data_PCOD9266679
_publ_section_title
;
Structure prediction by ZEFSAII (Michael W. Deem and Ramdas Pophale) SiO2 
 PCOD9266679
Probable space group: C 2/C
;
_chemical_formula_sum "Si O2"
_cell_formula_units_Z 60
_cell_length_a 11.020010
_cell_length_b 13.448270
_cell_length_c 22.046864
_cell_angle_alpha 90.000000
_cell_angle_beta 65.000130
_cell_angle_gamma 90.000000
_cell_volume 2961.224968
_symmetry_space_group_name_H-M "C 2/C"
_symmetry_group_IT_number 15
_symmetry_cell_setting 'monoclinic'
loop_
_space_group_symop_operation_xyz
x,y,z
-x,y,1/2-z
-x,-y,-z
x,-y,1/2+z
1/2+x,1/2+y,z
1/2-x,1/2+y,1/2-z
1/2-x,1/2-y,-z
1/2+x,1/2-y,1/2+z
loop_
_atom_site_type_symbol
_atom_site_label
_atom_site_fract_x
_atom_site_fract_y
_atom_site_fract_z
Si Si1 0.695146 0.048142 0.920888
Si Si2 0.495767 0.854564 0.553633
Si Si3 0.776540 0.557215 0.715910
Si Si4 0.252252 0.055504 0.851383
Si Si5 0.000000 0.945884 0.750000
Si Si6 0.348219 0.317181 0.018415
Si Si7 0.529849 0.551714 0.112574
Si Si8 0.508749 0.102294 0.183643
O O1 0.680592 0.101813 0.858176
O O2 0.617844 0.941428 0.930315
O O3 0.849137 0.026576 0.903650
O O4 0.622869 0.105108 0.990137
O O5 0.445809 0.754523 0.534263
O O6 0.523044 0.838468 0.618763
O O7 0.779613 0.610597 0.780744
O O8 0.628972 0.514514 0.734851
O O9 0.874282 0.463124 0.705496
O O10 0.235395 0.121868 0.914187
O O11 0.370398 0.976794 0.837840
O O12 0.111803 0.998876 0.871111
O O13 0.977934 0.892959 0.819775
O O14 0.250000 0.250000 0.000000
O O15 0.427907 0.383964 0.953819
O O16 0.500000 0.157697 0.250000
#
# Coordination Sequence:
#
# PCOD9266679 Si02
#       8
#     8   8   8   8   4   8   8   8
#     4   9  17  34  61  84 108 152 192 228 279 342
#     4  10  20  34  57  84 116 145 189 237 284 333
#     4   8  16  31  59  83 108 141 198 231 270 334
#     4  10  21  37  58  82 113 153 194 230 281 339
#     4   8  16  32  60  86 108 144 192 238 274 332
#     4  12  24  36  54  88 122 146 186 242 290 329
#     4  10  19  38  59  83 113 154 190 232 283 342
#     4   9  18  35  62  83 105 153 201 229 273 349
#
# _framework density 20.261883999999998
#
# number of rings (size 3 to 8) (size 9 to 14) (size 15 to 20)
#    0.000    2.400    1.333    1.200    3.733    0.000 
#    0.000    4.000    8.800    0.000    0.000    0.000 
#    0.000    0.000    0.000    0.000    0.000    0.000 
#
# Total GULP energy -167198.805917 kJ/mol
# GULP energy per Si atom -5573.293531 kJ/mol
# Density = 2.021577 g / cm^3
# Si number density = 20.261884 Si / 1000 Ang^3
#
#
#
# Elastic Constant Matrix: (Units=GPa)
#
#
# Indices 1 2 3 4 5 6 
#
# 1 98.4910 0.9259 27.3747 0.0000 6.5315 0.0000
# 2 0.9259 15.9122 32.8263 0.0000 18.1708 0.0000
# 3 27.3747 32.8263 183.8242 0.0000 46.2275 0.0000
# 4 0.0000 0.0000 0.0000 -5.5272 0.0000 10.8579
# 5 6.5315 18.1708 46.2275 0.0000 45.1444 0.0000
# 6 0.0000 0.0000 0.0000 10.8579 0.0000 16.9121
#
#
#
# Elastic Compliance Matrix: (Units=1/GPa)
#
#
# Indices 1 2 3 4 5 6 
#
# 1 0.010832 0.005872 -0.002254 0.000000 -0.001623 0.000000
# 2 0.005872 0.143692 -0.015860 0.000000 -0.042446 0.000000
# 3 -0.002254 -0.015860 0.009321 0.000000 -0.002834 0.000000
# 4 0.000000 0.000000 0.000000 -0.080011 0.000000 0.051369
# 5 -0.001623 -0.042446 -0.002834 0.000000 0.042373 0.000000
# 6 0.000000 0.000000 0.000000 0.051369 0.000000 0.026149
#
#
# Mechanical properties :
#
#
# Convention : Reuss Voigt Hill
#
# Bulk Modulus (GPa) = 7.17557 46.72013 26.94785
# Shear Modulus (GPa) = 22.39216 27.11256 24.75236
#
# Velocity S-wave (km/s) = 3.32797 3.66198 3.49896
# Velocity P-wave (km/s) = 4.27975 6.40221 5.44539
#
# Compressibility (1/GPa) = 0.13936177
#
# Stress axis : x y z
#
# Youngs Moduli (GPa) = 92.31913 6.95933 107.28976
#
# Poissons Ratio (x) = -0.04087 0.24178
# Poissons Ratio (y) = -0.54212 1.70163
# Poissons Ratio (z) = 0.20804 0.11038
#
# Static dielectric constant tensor:
#      x y z
#    x 1.698780 0.000000 0.018820 
#    y 0.000000 1.679840 0.000000 
#    z 0.018820 0.000000 1.805440 
# 
# From -- ./inp_files/238694.got.cif
#   From: 2010.05.17/outbox.cif.g08.bks.cpg/sg15_120_cif.got.tgz:238694.got - 2010.06.03 18:47:42.
