data_PCOD9266547
_publ_section_title
;
Structure prediction by ZEFSAII (Michael W. Deem and Ramdas Pophale) SiO2 
 PCOD9266547
Probable space group: C 2/C
;
_chemical_formula_sum "Si O2"
_cell_formula_units_Z 44
_cell_length_a 23.502002
_cell_length_b 16.370339
_cell_length_c 14.156678
_cell_angle_alpha 90.000000
_cell_angle_beta 16.943124
_cell_angle_gamma 90.000000
_cell_volume 1587.254662
_symmetry_space_group_name_H-M "C 2/C"
_symmetry_group_IT_number 15
_symmetry_cell_setting 'monoclinic'
loop_
_space_group_symop_operation_xyz
x,y,z
-x,y,1/2-z
-x,-y,-z
x,-y,1/2+z
1/2+x,1/2+y,z
1/2-x,1/2+y,1/2-z
1/2-x,1/2-y,-z
1/2+x,1/2-y,1/2+z
loop_
_atom_site_type_symbol
_atom_site_label
_atom_site_fract_x
_atom_site_fract_y
_atom_site_fract_z
Si Si1 0.000000 0.363333 0.750000
Si Si2 0.115734 0.877940 0.859294
Si Si3 0.750000 0.250000 0.000000
Si Si4 0.457442 0.234070 0.023013
Si Si5 0.500000 0.765058 0.250000
Si Si6 0.796796 0.579242 0.892444
Si Si7 0.293683 0.994217 0.199289
O O1 0.084981 0.310691 0.701224
O O2 0.162790 0.423632 0.446176
O O3 0.955617 0.805462 0.108809
O O4 0.313646 0.824183 0.539858
O O5 0.132030 0.923652 0.733734
O O6 0.143765 0.939674 0.897774
O O7 0.725179 0.191083 0.141007
O O8 0.458484 0.273735 0.918282
O O9 0.635677 0.172062 0.739115
O O10 0.736440 0.540810 0.890637
O O11 0.992950 0.537274 0.622575
#
# Coordination Sequence:
#
# PCOD9266547 Si02
#       7
#     4   8   4   8   4   8   8
#     4  12  25  48  70 101 148 192 246 298 361 446
#     4  11  20  38  68 105 132 179 242 299 354 436
#     4  12  30  46  72 106 152 200 242 296 372 442
#     4  11  24  41  68 107 140 185 243 301 356 438
#     4  10  19  38  66  97 144 174 232 300 357 414
#     4  10  19  37  67 100 133 184 236 292 364 430
#     4  11  20  39  70 101 138 187 239 295 366 439
#
# _framework density 27.720821000000001
#
# number of rings (size 3 to 8) (size 9 to 14) (size 15 to 20)
#    0.000    1.091    7.273    2.182    2.545    1.455 
#    0.000    0.909    0.000    3.273    0.000    0.000 
#    0.000    0.000    0.000    0.000    0.000    0.000 
#
# Total GULP energy -122802.066962 kJ/mol
# GULP energy per Si atom -5581.912135 kJ/mol
# Density = 2.765773 g / cm^3
# Si number density = 27.720821 Si / 1000 Ang^3
#
#
#
# Elastic Constant Matrix: (Units=GPa)
#
#
# Indices 1 2 3 4 5 6 
#
# 1 206.5747 105.7263 49.3534 -0.0036 49.2883 -0.0009
# 2 105.7263 123.9178 28.4825 -0.0184 -2.8474 0.0007
# 3 49.3534 28.4825 111.1379 -0.0228 10.2590 -0.0010
# 4 -0.0036 -0.0184 -0.0228 43.6122 0.0016 -7.3042
# 5 49.2883 -2.8474 10.2590 0.0016 42.5199 0.0026
# 6 -0.0009 0.0007 -0.0010 -7.3042 0.0026 65.0592
#
#
#
# Elastic Compliance Matrix: (Units=1/GPa)
#
#
# Indices 1 2 3 4 5 6 
#
# 1 0.019227 -0.016419 -0.002221 -0.000006 -0.022852 0.000001
# 2 -0.016419 0.022650 -0.000420 0.000007 0.020651 -0.000001
# 3 -0.002221 -0.000420 0.010081 0.000005 0.000114 0.000001
# 4 -0.000006 0.000007 0.000005 0.023369 0.000005 0.002624
# 5 -0.022852 0.020651 0.000114 0.000005 0.051363 -0.000002
# 6 0.000001 -0.000001 0.000001 0.002624 -0.000002 0.015665
#
#
# Mechanical properties :
#
#
# Convention : Reuss Voigt Hill
#
# Bulk Modulus (GPa) = 72.26251 89.86164 81.06208
# Shear Modulus (GPa) = 27.01414 47.44280 37.22847
#
# Velocity S-wave (km/s) = 3.12510 4.14146 3.66864
# Velocity P-wave (km/s) = 6.25669 7.44016 6.87394
#
# Compressibility (1/GPa) = 0.01383843
#
# Stress axis : x y z
#
# Youngs Moduli (GPa) = 52.00903 44.15047 99.19537
#
# Poissons Ratio (x) = 0.72492 0.22031
# Poissons Ratio (y) = 0.85396 0.04162
# Poissons Ratio (z) = 0.11551 0.01853
#
# Static dielectric constant tensor:
#      x y z
#    x 2.281640 0.000000 -0.012030 
#    y 0.000000 2.230060 0.000010 
#    z -0.012030 0.000010 2.292510 
# 
# From -- ./inp_files/174423.got.cif
#   From: 2010.05.17/outbox.cif.g08.bks.cpg/sg15_88_cif.got.tgz:174423.got - 2010.06.03 18:47:42.
