data_PCOD9266956
_publ_section_title
;
Structure prediction by ZEFSAII (Michael W. Deem and Ramdas Pophale) SiO2 
 PCOD9266956
Probable space group: C 2/C
;
_chemical_formula_sum "Si O2"
_cell_formula_units_Z 52
_cell_length_a 11.130439
_cell_length_b 23.143968
_cell_length_c 12.696204
_cell_angle_alpha 90.000000
_cell_angle_beta 133.915860
_cell_angle_gamma 90.000000
_cell_volume 2355.988029
_symmetry_space_group_name_H-M "C 2/C"
_symmetry_group_IT_number 15
_symmetry_cell_setting 'monoclinic'
loop_
_space_group_symop_operation_xyz
x,y,z
-x,y,1/2-z
-x,-y,-z
x,-y,1/2+z
1/2+x,1/2+y,z
1/2-x,1/2+y,1/2-z
1/2-x,1/2-y,-z
1/2+x,1/2-y,1/2+z
loop_
_atom_site_type_symbol
_atom_site_label
_atom_site_fract_x
_atom_site_fract_y
_atom_site_fract_z
Si Si1 0.706248 0.322282 0.294744
Si Si2 0.500000 0.873964 0.750000
Si Si3 0.921942 0.897051 0.452616
Si Si4 0.303074 0.576034 0.539111
Si Si5 0.466488 0.778514 0.907056
Si Si6 0.811388 0.953006 0.595292
Si Si7 0.655756 0.657997 0.268422
O O1 0.713112 0.358892 0.191405
O O2 0.685002 0.369252 0.375129
O O3 0.553624 0.279412 0.172963
O O4 0.867833 0.283898 0.422506
O O5 0.339004 0.911312 0.631517
O O6 0.475353 0.832125 0.833118
O O7 0.829410 0.934837 0.484173
O O8 0.026396 0.929752 0.424504
O O9 0.060965 0.858901 0.601609
O O10 0.246896 0.517851 0.564156
O O11 0.288941 0.790625 0.853472
O O12 0.748886 0.899140 0.626891
O O13 0.000000 0.958035 0.750000
O O14 0.500000 0.670240 0.250000
#
# Coordination Sequence:
#
# PCOD9266956 Si02
#       7
#     8   4   8   8   8   8   8
#     4  11  25  38  65  95 124 168 208 263 320 372
#     4  10  24  36  60  90 128 172 196 264 316 374
#     4  10  19  38  63  91 124 168 209 254 317 367
#     4  11  21  38  59  97 129 160 218 249 323 375
#     4  11  23  43  59  93 130 162 213 258 317 372
#     4   9  20  38  64  90 121 167 212 258 303 371
#     4   9  20  42  67  88 123 172 212 258 315 369
#
# _framework density 22.07142
#
# number of rings (size 3 to 8) (size 9 to 14) (size 15 to 20)
#    0.000    2.154    1.538    2.769    2.154    2.462 
#    2.769   10.769    0.000    0.000    0.000    0.000 
#    0.000    0.000    0.000    0.000    0.000    0.000 
#
# Total GULP energy -144983.463517 kJ/mol
# GULP energy per Si atom -5576.287058 kJ/mol
# Density = 2.202118 g / cm^3
# Si number density = 22.071420 Si / 1000 Ang^3
#
#
#
# Elastic Constant Matrix: (Units=GPa)
#
#
# Indices 1 2 3 4 5 6 
#
# 1 44.0474 13.7705 24.4569 0.0000 -8.7209 0.0000
# 2 13.7705 98.9905 46.9201 0.0000 -6.2627 0.0000
# 3 24.4569 46.9201 133.4869 0.0000 0.7886 0.0000
# 4 0.0000 0.0000 0.0000 21.1737 0.0000 -2.8299
# 5 -8.7209 -6.2627 0.7886 0.0000 21.8681 0.0000
# 6 0.0000 0.0000 0.0000 -2.8299 0.0000 18.9205
#
#
#
# Elastic Compliance Matrix: (Units=1/GPa)
#
#
# Indices 1 2 3 4 5 6 
#
# 1 0.027861 -0.000872 -0.004863 0.000000 0.011036 0.000000
# 2 -0.000872 0.012443 -0.004234 0.000000 0.003368 0.000000
# 3 -0.004863 -0.004234 0.009891 0.000000 -0.003509 0.000000
# 4 0.000000 0.000000 0.000000 0.048192 0.000000 0.007208
# 5 0.011036 0.003368 -0.003509 0.000000 0.051221 0.000000
# 6 0.000000 0.000000 0.000000 0.007208 0.000000 0.053931
#
#
# Mechanical properties :
#
#
# Convention : Reuss Voigt Hill
#
# Bulk Modulus (GPa) = 33.05062 49.64664 41.34863
# Shear Modulus (GPa) = 21.40751 25.15095 23.27923
#
# Velocity S-wave (km/s) = 3.11773 3.37935 3.25117
# Velocity P-wave (km/s) = 5.28841 6.14566 5.73308
#
# Compressibility (1/GPa) = 0.03025662
#
# Stress axis : x y z
#
# Youngs Moduli (GPa) = 35.89273 80.36517 101.09942
#
# Poissons Ratio (x) = 0.07011 0.49165
# Poissons Ratio (y) = 0.03131 0.42803
# Poissons Ratio (z) = 0.17455 0.34025
#
# Static dielectric constant tensor:
#      x y z
#    x 1.897690 0.000000 0.013200 
#    y 0.000000 1.889560 0.000000 
#    z 0.013200 0.000000 1.810970 
# 
# From -- ./inp_files/91336.got.cif
#   From: 2010.05.17/outbox.cif.g08.bks.cpg/sg15_46_cif.got.tgz:91336.got - 2010.06.03 18:47:42.
