data_PCOD9266777
_publ_section_title
;
Structure prediction by ZEFSAII (Michael W. Deem and Ramdas Pophale) SiO2 
 PCOD9266777
Probable space group: C 2/C
;
_chemical_formula_sum "Si O2"
_cell_formula_units_Z 64
_cell_length_a 23.285321
_cell_length_b 9.317626
_cell_length_c 21.476215
_cell_angle_alpha 90.000000
_cell_angle_beta 131.306676
_cell_angle_gamma 90.000000
_cell_volume 3500.204678
_symmetry_space_group_name_H-M "C 2/C"
_symmetry_group_IT_number 15
_symmetry_cell_setting 'monoclinic'
loop_
_space_group_symop_operation_xyz
x,y,z
-x,y,1/2-z
-x,-y,-z
x,-y,1/2+z
1/2+x,1/2+y,z
1/2-x,1/2+y,1/2-z
1/2-x,1/2-y,-z
1/2+x,1/2-y,1/2+z
loop_
_atom_site_type_symbol
_atom_site_label
_atom_site_fract_x
_atom_site_fract_y
_atom_site_fract_z
Si Si1 0.928320 0.733941 0.020092
Si Si2 0.268748 0.840324 0.815883
Si Si3 0.991459 0.428650 0.095756
Si Si4 0.567983 0.721542 0.340564
Si Si5 0.074526 0.209873 0.553324
Si Si6 0.726740 0.793676 0.413220
Si Si7 0.657103 0.866956 0.165095
Si Si8 0.638284 0.512876 0.492880
O O1 0.877004 0.690647 0.924090
O O2 0.957661 0.588001 0.072327
O O3 0.004886 0.812612 0.049931
O O4 0.879838 0.846350 0.024960
O O5 0.347716 0.757084 0.857973
O O6 0.256156 0.816243 0.881208
O O7 0.199707 0.760158 0.732096
O O8 0.284566 0.002970 0.807083
O O9 0.967040 0.340581 0.138715
O O10 0.082362 0.423165 0.148929
O O11 0.952635 0.343399 0.009826
O O12 0.500000 0.663043 0.250000
O O13 0.635596 0.792026 0.348327
O O14 0.604983 0.598943 0.410156
O O15 0.095235 0.079945 0.522291
O O16 0.750000 0.750000 0.500000
O O17 0.773348 0.940432 0.435056
#
# Coordination Sequence:
#
# PCOD9266777 Si02
#       8
#     8   8   8   8   8   8   8   8
#     4  11  19  36  58  84 118 152 191 237 294 356
#     4  11  21  37  56  90 122 149 189 248 305 353
#     4  10  19  38  61  81 112 156 199 233 285 365
#     4  10  20  39  60  81 106 155 207 245 283 345
#     4   9  17  35  56  80 114 150 187 220 282 361
#     4   9  20  38  61  77 114 158 205 235 277 352
#     4  11  23  35  57  90 125 154 184 245 316 358
#     4   9  20  33  58  86 109 149 196 241 282 352
#
# _framework density 18.284645999999999
#
# number of rings (size 3 to 8) (size 9 to 14) (size 15 to 20)
#    0.000    2.000    2.500    2.625    3.500    0.000 
#    2.250    1.250    0.000    0.000    0.000    0.000 
#    0.000    0.000    0.000    0.000    0.000    0.000 
#
# Total GULP energy -178448.518486 kJ/mol
# GULP energy per Si atom -5576.516203 kJ/mol
# Density = 1.824303 g / cm^3
# Si number density = 18.284646 Si / 1000 Ang^3
#
#
#
# Elastic Constant Matrix: (Units=GPa)
#
#
# Indices 1 2 3 4 5 6 
#
# 1 77.2592 39.5349 10.6152 0.0000 9.9621 0.0000
# 2 39.5349 80.3797 14.2470 0.0000 8.1432 0.0000
# 3 10.6152 14.2470 52.5294 0.0000 12.9633 0.0000
# 4 0.0000 0.0000 0.0000 16.5691 0.0000 10.5513
# 5 9.9621 8.1432 12.9633 0.0000 22.7034 0.0000
# 6 0.0000 0.0000 0.0000 10.5513 0.0000 16.6712
#
#
#
# Elastic Compliance Matrix: (Units=1/GPa)
#
#
# Indices 1 2 3 4 5 6 
#
# 1 0.017798 -0.008239 -0.000191 0.000000 -0.004745 0.000000
# 2 -0.008239 0.017074 -0.002732 0.000000 -0.000949 0.000000
# 3 -0.000191 -0.002732 0.022761 0.000000 -0.011933 0.000000
# 4 0.000000 0.000000 0.000000 0.101100 0.000000 -0.063987
# 5 -0.004745 -0.000949 -0.011933 0.000000 0.053282 0.000000
# 6 0.000000 0.000000 0.000000 -0.063987 0.000000 0.100481
#
#
# Mechanical properties :
#
#
# Convention : Reuss Voigt Hill
#
# Bulk Modulus (GPa) = 28.32117 37.66250 32.99184
# Shear Modulus (GPa) = 14.42630 20.90683 17.66656
#
# Velocity S-wave (km/s) = 2.81193 3.38510 3.11174
# Velocity P-wave (km/s) = 5.10542 5.99343 5.56716
#
# Compressibility (1/GPa) = 0.03530928
#
# Stress axis : x y z
#
# Youngs Moduli (GPa) = 56.18696 58.56946 43.93443
#
# Poissons Ratio (x) = 0.48257 0.00839
# Poissons Ratio (y) = 0.46294 0.12001
# Poissons Ratio (z) = 0.01072 0.15999
#
# Static dielectric constant tensor:
#      x y z
#    x 1.650970 0.000000 0.008020 
#    y 0.000000 1.626860 0.000000 
#    z 0.008020 0.000000 1.640610 
# 
# From -- ./inp_files/281523.got.cif
#   From: 2010.05.17/outbox.cif.g08.bks.cpg/sg15_141_cif.got.tgz:281523.got - 2010.06.03 18:47:42.
