data_PCOD9266594
_publ_section_title
;
Structure prediction by ZEFSAII (Michael W. Deem and Ramdas Pophale) SiO2 
 PCOD9266594
Probable space group: C 2/C
;
_chemical_formula_sum "Si O2"
_cell_formula_units_Z 40
_cell_length_a 10.963250
_cell_length_b 10.191141
_cell_length_c 15.013404
_cell_angle_alpha 90.000000
_cell_angle_beta 56.699366
_cell_angle_gamma 90.000000
_cell_volume 1401.988123
_symmetry_space_group_name_H-M "C 2/C"
_symmetry_group_IT_number 15
_symmetry_cell_setting 'monoclinic'
loop_
_space_group_symop_operation_xyz
x,y,z
-x,y,1/2-z
-x,-y,-z
x,-y,1/2+z
1/2+x,1/2+y,z
1/2-x,1/2+y,1/2-z
1/2-x,1/2-y,-z
1/2+x,1/2-y,1/2+z
loop_
_atom_site_type_symbol
_atom_site_label
_atom_site_fract_x
_atom_site_fract_y
_atom_site_fract_z
Si Si1 0.878629 0.142887 0.370833
Si Si2 0.217382 0.680929 0.727719
Si Si3 0.321111 0.086876 0.573975
Si Si4 0.364166 0.570082 0.135145
Si Si5 0.381555 0.172244 0.371069
O O1 0.846322 0.287473 0.344478
O O2 0.972238 0.124022 0.422845
O O3 0.000000 0.090403 0.250000
O O4 0.734400 0.057540 0.424634
O O5 0.128928 0.610640 0.844385
O O6 0.350953 0.581471 0.666433
O O7 0.225353 0.828214 0.764119
O O8 0.424823 0.141928 0.455000
O O9 0.176575 0.180246 0.621746
O O10 0.267757 0.590282 0.086439
O O11 0.500000 0.136975 0.250000
#
# Coordination Sequence:
#
# PCOD9266594 Si02
#       5
#     8   8   8   8   8
#     4  10  19  37  71  98 145 182 237 297 346 437
#     4  10  19  38  69 101 142 187 234 296 358 428
#     4  10  20  40  68 102 134 191 241 290 365 434
#     4  10  22  38  69 103 142 192 237 295 369 417
#     4  10  23  40  67 100 142 185 241 300 360 435
#
# _framework density 28.530913000000002
#
# number of rings (size 3 to 8) (size 9 to 14) (size 15 to 20)
#    0.000    2.000    4.000    0.600    2.800    3.200 
#    0.000    2.000    0.000    2.400    0.000    4.200 
#    0.000    0.000    0.000    0.000    0.000    0.000 
#
# Total GULP energy -111603.795146 kJ/mol
# GULP energy per Si atom -5580.189757 kJ/mol
# Density = 2.846598 g / cm^3
# Si number density = 28.530913 Si / 1000 Ang^3
#
#
#
# Elastic Constant Matrix: (Units=GPa)
#
#
# Indices 1 2 3 4 5 6 
#
# 1 143.0013 65.5158 42.5135 0.0000 13.3093 0.0000
# 2 65.5158 126.7913 33.0125 0.0000 2.8970 0.0000
# 3 42.5135 33.0125 145.1818 0.0000 15.4215 0.0000
# 4 0.0000 0.0000 0.0000 29.4144 0.0000 0.4609
# 5 13.3093 2.8970 15.4215 0.0000 21.9043 0.0000
# 6 0.0000 0.0000 0.0000 0.4609 0.0000 43.9640
#
#
#
# Elastic Compliance Matrix: (Units=1/GPa)
#
#
# Indices 1 2 3 4 5 6 
#
# 1 0.009967 -0.004689 -0.001378 0.000000 -0.004465 0.000000
# 2 -0.004689 0.010591 -0.001285 0.000000 0.002353 0.000000
# 3 -0.001378 -0.001285 0.008081 0.000000 -0.004682 0.000000
# 4 0.000000 0.000000 0.000000 0.034003 0.000000 -0.000356
# 5 -0.004465 0.002353 -0.004682 0.000000 0.051352 0.000000
# 6 0.000000 0.000000 0.000000 -0.000356 0.000000 0.022750
#
#
# Mechanical properties :
#
#
# Convention : Reuss Voigt Hill
#
# Bulk Modulus (GPa) = 71.76652 77.45090 74.60871
# Shear Modulus (GPa) = 32.03263 37.31870 34.67567
#
# Velocity S-wave (km/s) = 3.35436 3.62056 3.49000
# Velocity P-wave (km/s) = 6.34120 6.68455 6.51514
#
# Compressibility (1/GPa) = 0.01393407
#
# Stress axis : x y z
#
# Youngs Moduli (GPa) = 100.33605 94.42191 123.74765
#
# Poissons Ratio (x) = 0.44276 0.17051
# Poissons Ratio (y) = 0.47049 0.15902
# Poissons Ratio (z) = 0.13825 0.12134
#
# Static dielectric constant tensor:
#      x y z
#    x 2.402620 0.000000 0.177290 
#    y 0.000000 2.165220 0.000000 
#    z 0.177290 0.000000 2.312330 
# 
# From -- ./inp_files/160189.got.cif
#   From: 2010.05.17/outbox.cif.g08.bks.cpg/sg15_81_cif.got.tgz:160189.got - 2010.06.03 18:47:42.
