data_PCOD9266422
_publ_section_title
;
Structure prediction by ZEFSAII (Michael W. Deem and Ramdas Pophale) SiO2 
 PCOD9266422
Probable space group: C 2/C
;
_chemical_formula_sum "Si O2"
_cell_formula_units_Z 60
_cell_length_a 20.783632
_cell_length_b 26.139799
_cell_length_c 13.965337
_cell_angle_alpha 90.000000
_cell_angle_beta 157.921233
_cell_angle_gamma 90.000000
_cell_volume 2851.841219
_symmetry_space_group_name_H-M "C 2/C"
_symmetry_group_IT_number 15
_symmetry_cell_setting 'monoclinic'
loop_
_space_group_symop_operation_xyz
x,y,z
-x,y,1/2-z
-x,-y,-z
x,-y,1/2+z
1/2+x,1/2+y,z
1/2-x,1/2+y,1/2-z
1/2-x,1/2-y,-z
1/2+x,1/2-y,1/2+z
loop_
_atom_site_type_symbol
_atom_site_label
_atom_site_fract_x
_atom_site_fract_y
_atom_site_fract_z
Si Si1 0.101616 0.848494 0.604136
Si Si2 0.102472 0.490325 0.482247
Si Si3 0.500000 0.836822 0.750000
Si Si4 0.698507 0.580138 0.853337
Si Si5 0.163148 0.442121 0.765640
Si Si6 0.056251 0.343005 0.540866
Si Si7 0.929302 0.255574 0.800985
Si Si8 0.323790 0.195617 0.569712
O O1 0.275213 0.856727 0.785776
O O2 0.975650 0.896248 0.427066
O O3 0.010122 0.799317 0.429904
O O4 0.172730 0.832210 0.804881
O O5 0.227947 0.531902 0.605248
O O6 0.190679 0.461276 0.694286
O O7 0.952017 0.518552 0.333162
O O8 0.000000 0.463739 0.250000
O O9 0.338378 0.874024 0.538950
O O10 0.535081 0.796687 0.884349
O O11 0.685252 0.568406 0.949213
O O12 0.051347 0.389893 0.606690
O O13 0.091378 0.286703 0.629990
O O14 0.887476 0.338393 0.245700
O O15 0.750000 0.250000 0.500000
O O16 0.500000 0.202367 0.750000
O O17 0.250000 0.250000 0.500000
#
# Coordination Sequence:
#
# PCOD9266422 Si02
#       8
#     8   8   4   8   8   8   8   8
#     4  11  24  37  59  88 131 169 209 258 313 380
#     4   9  19  37  64  95 122 160 213 266 329 389
#     4  12  20  34  56  90 126 158 204 250 312 378
#     4  11  20  38  60  96 128 161 209 267 325 379
#     4  10  19  37  64  92 123 163 207 267 322 388
#     4  11  22  39  59  86 121 164 214 250 316 386
#     4  12  21  33  55  88 122 162 201 246 302 370
#     4  10  22  41  60  87 123 176 220 261 315 377
#
# _framework density 21.039038000000001
#
# number of rings (size 3 to 8) (size 9 to 14) (size 15 to 20)
#    0.000    1.333    6.000    0.800    0.000    3.200 
#    2.400    0.667    0.000    3.200    0.000    0.000 
#    0.000    0.000    0.000    0.000    0.000    0.000 
#
# Total GULP energy -167237.595850 kJ/mol
# GULP energy per Si atom -5574.586528 kJ/mol
# Density = 2.099115 g / cm^3
# Si number density = 21.039038 Si / 1000 Ang^3
#
#
#
# Elastic Constant Matrix: (Units=GPa)
#
#
# Indices 1 2 3 4 5 6 
#
# 1 71.0298 31.6392 42.7232 0.0000 -22.2289 0.0000
# 2 31.6392 73.1404 37.4901 0.0000 -16.7606 0.0000
# 3 42.7232 37.4901 147.5256 0.0001 -29.9490 0.0000
# 4 0.0000 0.0000 0.0001 -37.8638 0.0000 -12.0706
# 5 -22.2289 -16.7606 -29.9490 0.0000 29.9719 0.0000
# 6 0.0000 0.0000 0.0000 -12.0706 0.0000 33.1533
#
#
#
# Elastic Compliance Matrix: (Units=1/GPa)
#
#
# Indices 1 2 3 4 5 6 
#
# 1 0.021312 -0.005528 -0.002742 0.000000 0.009975 0.000000
# 2 -0.005528 0.018070 -0.002223 0.000000 0.003784 0.000000
# 3 -0.002742 -0.002223 0.009374 0.000000 0.006090 0.000000
# 4 0.000000 0.000000 0.000000 -0.023664 0.000000 -0.008616
# 5 0.009975 0.003784 0.006090 0.000000 0.048964 0.000000
# 6 0.000000 0.000000 0.000000 -0.008616 0.000000 0.027026
#
#
# Mechanical properties :
#
#
# Convention : Reuss Voigt Hill
#
# Bulk Modulus (GPa) = 36.01033 57.26674 46.63854
# Shear Modulus (GPa) = 38.07374 17.04185 27.55779
#
# Velocity S-wave (km/s) = 4.25864 2.84916 3.62310
# Velocity P-wave (km/s) = 6.42919 6.17268 6.30224
#
# Compressibility (1/GPa) = 0.02776981
#
# Stress axis : x y z
#
# Youngs Moduli (GPa) = 46.92229 55.33991 106.68004
#
# Poissons Ratio (x) = 0.30591 0.29253
# Poissons Ratio (y) = 0.25937 0.23716
# Poissons Ratio (z) = 0.12867 0.12303
#
# Static dielectric constant tensor:
#      x y z
#    x 1.831020 0.000000 -0.058210 
#    y 0.000000 1.778050 0.000000 
#    z -0.058210 0.000000 1.764200 
# 
# From -- ./inp_files/174934.got.cif
#   From: 2010.05.17/outbox.cif.g08.bks.cpg/sg15_88_cif.got.tgz:174934.got - 2010.06.03 18:47:42.
