data_PCOD9266624
_publ_section_title
;
Structure prediction by ZEFSAII (Michael W. Deem and Ramdas Pophale) SiO2 
 PCOD9266624
Probable space group: C 2/C
;
_chemical_formula_sum "Si O2"
_cell_formula_units_Z 56
_cell_length_a 21.918731
_cell_length_b 22.301800
_cell_length_c 5.546110
_cell_angle_alpha 90.000000
_cell_angle_beta 98.330987
_cell_angle_gamma 90.000000
_cell_volume 2682.480602
_symmetry_space_group_name_H-M "C 2/C"
_symmetry_group_IT_number 15
_symmetry_cell_setting 'monoclinic'
loop_
_space_group_symop_operation_xyz
x,y,z
-x,y,1/2-z
-x,-y,-z
x,-y,1/2+z
1/2+x,1/2+y,z
1/2-x,1/2+y,1/2-z
1/2-x,1/2-y,-z
1/2+x,1/2-y,1/2+z
loop_
_atom_site_type_symbol
_atom_site_label
_atom_site_fract_x
_atom_site_fract_y
_atom_site_fract_z
Si Si1 0.825862 0.743390 0.791576
Si Si2 0.465324 0.231033 0.982346
Si Si3 0.853840 0.642611 0.482814
Si Si4 0.201999 0.977718 0.517613
Si Si5 0.510533 0.099771 0.008240
Si Si6 0.251479 0.349125 0.932926
Si Si7 0.658032 0.976335 0.313629
O O1 0.893483 0.748717 0.949424
O O2 0.841013 0.710861 0.548207
O O3 0.793117 0.807269 0.783507
O O4 0.778940 0.696480 0.893200
O O5 0.500000 0.249607 0.750000
O O6 0.500000 0.248949 0.250000
O O7 0.466220 0.158293 0.974227
O O8 0.922683 0.630641 0.443053
O O9 0.805395 0.625174 0.252509
O O10 0.843937 0.595428 0.693766
O O11 0.210463 0.907203 0.463314
O O12 0.173349 0.010430 0.267061
O O13 0.270857 0.004457 0.606804
O O14 0.500000 0.066637 0.250000
O O15 0.500000 0.067866 0.750000
O O16 0.629679 0.997045 0.553895
#
# Coordination Sequence:
#
# PCOD9266624 Si02
#       7
#     8   8   8   8   8   8   8
#     4  11  23  36  54  90 120 149 183 237 300 348
#     4  10  19  38  56  75 107 155 194 223 266 346
#     4  12  21  35  60  78 117 152 192 234 291 348
#     4  10  19  38  56  77 107 155 193 223 269 348
#     4  10  20  34  54  77  99 148 195 229 268 331
#     4  11  23  35  56  88 122 147 183 239 299 350
#     4  10  20  34  55  78 100 150 198 231 272 335
#
# _framework density 20.876200000000001
#
# number of rings (size 3 to 8) (size 9 to 14) (size 15 to 20)
#    0.000    1.429    5.714    3.857    0.000    0.000 
#    0.000    0.000    0.000    2.571    0.000    0.000 
#    0.000    3.429    0.000    0.000    0.000    0.000 
#
# Total GULP energy -156255.552334 kJ/mol
# GULP energy per Si atom -5580.555441 kJ/mol
# Density = 2.082868 g / cm^3
# Si number density = 20.876200 Si / 1000 Ang^3
#
#
#
# Elastic Constant Matrix: (Units=GPa)
#
#
# Indices 1 2 3 4 5 6 
#
# 1 31.9512 16.7377 11.7656 0.0000 -1.9697 0.0000
# 2 16.7377 69.3126 1.9820 0.0000 -10.9497 0.0000
# 3 11.7656 1.9820 139.4821 0.0000 -18.4429 0.0000
# 4 0.0000 0.0000 0.0000 8.4396 0.0000 3.4222
# 5 -1.9697 -10.9497 -18.4429 0.0000 26.3023 0.0000
# 6 0.0000 0.0000 0.0000 3.4222 0.0000 0.9914
#
#
#
# Elastic Compliance Matrix: (Units=1/GPa)
#
#
# Indices 1 2 3 4 5 6 
#
# 1 0.037329 -0.009483 -0.003490 0.000000 -0.003600 0.000000
# 2 -0.009483 0.017913 0.001584 0.000000 0.007858 0.000000
# 3 -0.003490 0.001584 0.008260 0.000000 0.006190 0.000000
# 4 0.000000 0.000000 0.000000 -0.296450 0.000000 1.023293
# 5 -0.003600 0.007858 0.006190 0.000000 0.045362 0.000000
# 6 0.000000 0.000000 0.000000 1.023293 0.000000 -2.523572
#
#
# Mechanical properties :
#
#
# Convention : Reuss Voigt Hill
#
# Bulk Modulus (GPa) = 24.55511 33.52407 29.03959
# Shear Modulus (GPa) = -1.86929 21.16404 9.64737
#
# Velocity S-wave (km/s) = -0.94729 3.18746 2.15204
# Velocity P-wave (km/s) = 3.25443 5.44425 4.48504
#
# Compressibility (1/GPa) = 0.04072473
#
# Stress axis : x y z
#
# Youngs Moduli (GPa) = 26.78912 55.82394 121.06982
#
# Poissons Ratio (x) = 0.52938 0.42253
# Poissons Ratio (y) = 0.25404 -0.19182
# Poissons Ratio (z) = 0.09349 -0.08845
#
# Static dielectric constant tensor:
#      x y z
#    x 1.780670 0.000000 -0.083940 
#    y 0.000000 1.771240 0.000000 
#    z -0.083940 0.000000 1.916900 
# 
# From -- ./inp_files/13695.got.cif
#   From: 2010.05.17/outbox.cif.g08.bks.cpg/sg15_7_cif.got.tgz:13695.got - 2010.06.03 18:47:42.
