data_PCOD9266396
_publ_section_title
;
Structure prediction by ZEFSAII (Michael W. Deem and Ramdas Pophale) SiO2 
 PCOD9266396
Probable space group: C 2/C
;
_chemical_formula_sum "Si O2"
_cell_formula_units_Z 40
_cell_length_a 24.151313
_cell_length_b 15.749863
_cell_length_c 17.254762
_cell_angle_alpha 90.000000
_cell_angle_beta 165.121103
_cell_angle_gamma 90.000000
_cell_volume 1685.319925
_symmetry_space_group_name_H-M "C 2/C"
_symmetry_group_IT_number 15
_symmetry_cell_setting 'monoclinic'
loop_
_space_group_symop_operation_xyz
x,y,z
-x,y,1/2-z
-x,-y,-z
x,-y,1/2+z
1/2+x,1/2+y,z
1/2-x,1/2+y,1/2-z
1/2-x,1/2-y,-z
1/2+x,1/2-y,1/2+z
loop_
_atom_site_type_symbol
_atom_site_label
_atom_site_fract_x
_atom_site_fract_y
_atom_site_fract_z
Si Si1 0.612466 0.051336 0.719266
Si Si2 0.358018 0.803055 0.347896
Si Si3 0.750258 0.466467 0.443894
Si Si4 0.300117 0.876063 0.922526
Si Si5 0.260186 0.789959 0.393118
O O1 0.724655 0.127674 0.824687
O O2 0.416052 0.089526 0.503216
O O3 0.500000 0.000000 0.500000
O O4 0.744251 0.995367 0.959361
O O5 0.308467 0.711636 0.244534
O O6 0.271713 0.813358 0.317752
O O7 0.616699 0.794339 0.707502
O O8 0.665707 0.548124 0.281348
O O9 0.665124 0.372702 0.310181
O O10 0.000000 0.460791 0.750000
O O11 0.500000 0.856794 0.250000
O O12 0.500000 0.775007 0.750000
#
# Coordination Sequence:
#
# PCOD9266396 Si02
#       5
#     8   8   8   8   8
#     4  10  19  37  64  86 121 171 211 247 323 382
#     4  12  22  39  66  95 123 164 217 264 311 381
#     4   8  18  37  59  85 125 165 198 256 320 368
#     4   9  20  38  61  92 125 162 209 261 315 375
#     4  11  23  40  62  93 127 167 208 265 318 373
#
# _framework density 23.734366000000001
#
# number of rings (size 3 to 8) (size 9 to 14) (size 15 to 20)
#    0.000    2.400    2.000    4.200    0.000    4.000 
#    0.000    0.000    0.000    0.000    0.000    0.000 
#    0.000    0.000    0.000    0.000    0.000    0.000 
#
# Total GULP energy -111716.719196 kJ/mol
# GULP energy per Si atom -5585.835960 kJ/mol
# Density = 2.368035 g / cm^3
# Si number density = 23.734366 Si / 1000 Ang^3
#
#
#
# Elastic Constant Matrix: (Units=GPa)
#
#
# Indices 1 2 3 4 5 6 
#
# 1 162.7512 35.8472 22.4830 0.0002 -31.2755 0.0008
# 2 35.8472 82.0272 28.5259 -0.0001 -24.5174 -0.0001
# 3 22.4830 28.5259 50.4867 -0.0011 -16.6406 0.0005
# 4 0.0002 -0.0001 -0.0011 16.4113 -0.0004 -31.2458
# 5 -31.2755 -24.5174 -16.6406 -0.0004 25.3666 0.0004
# 6 0.0008 -0.0001 0.0005 -31.2458 0.0004 16.2439
#
#
#
# Elastic Compliance Matrix: (Units=1/GPa)
#
#
# Indices 1 2 3 4 5 6 
#
# 1 0.008088 -0.000743 -0.000168 0.000000 0.009144 0.000000
# 2 -0.000743 0.018444 -0.005763 0.000000 0.013130 0.000000
# 3 -0.000168 -0.005763 0.027092 0.000000 0.011995 -0.000001
# 4 0.000000 0.000000 0.000000 -0.022888 0.000001 -0.044026
# 5 0.009144 0.013130 0.011995 0.000001 0.071256 -0.000001
# 6 0.000000 0.000000 -0.000001 -0.044026 -0.000001 -0.023124
#
#
# Mechanical properties :
#
#
# Convention : Reuss Voigt Hill
#
# Bulk Modulus (GPa) = 24.82836 52.10857 38.46846
# Shear Modulus (GPa) = 47.32958 25.49830 36.41394
#
# Velocity S-wave (km/s) = 4.47042 3.28124 3.92117
# Velocity P-wave (km/s) = 6.09343 6.02975 6.06167
#
# Compressibility (1/GPa) = 0.04027653
#
# Stress axis : x y z
#
# Youngs Moduli (GPa) = 123.63314 54.21672 36.91160
#
# Poissons Ratio (x) = 0.04030 0.00621
# Poissons Ratio (y) = 0.09189 0.21271
# Poissons Ratio (z) = 0.02079 0.31243
#
# Static dielectric constant tensor:
#      x y z
#    x 1.880020 0.000000 0.034600 
#    y 0.000000 1.963970 0.000000 
#    z 0.034600 0.000000 2.002240 
# 
# From -- ./inp_files/56849.got.cif
#   From: 2010.05.17/outbox.cif.g08.bks.cpg/sg15_29_cif.got.tgz:56849.got - 2010.06.03 18:47:42.
