data_PCOD9266909
_publ_section_title
;
Structure prediction by ZEFSAII (Michael W. Deem and Ramdas Pophale) SiO2 
 PCOD9266909
Probable space group: C 2/C
;
_chemical_formula_sum "Si O2"
_cell_formula_units_Z 60
_cell_length_a 18.134540
_cell_length_b 24.927920
_cell_length_c 7.881450
_cell_angle_alpha 90.000000
_cell_angle_beta 140.144152
_cell_angle_gamma 90.000000
_cell_volume 2283.288034
_symmetry_space_group_name_H-M "C 2/C"
_symmetry_group_IT_number 15
_symmetry_cell_setting 'monoclinic'
loop_
_space_group_symop_operation_xyz
x,y,z
-x,y,1/2-z
-x,-y,-z
x,-y,1/2+z
1/2+x,1/2+y,z
1/2-x,1/2+y,1/2-z
1/2-x,1/2-y,-z
1/2+x,1/2-y,1/2+z
loop_
_atom_site_type_symbol
_atom_site_label
_atom_site_fract_x
_atom_site_fract_y
_atom_site_fract_z
Si Si1 0.167634 0.318387 0.284806
Si Si2 0.151176 0.637189 0.144466
Si Si3 0.596538 0.665979 0.219458
Si Si4 0.544572 0.241124 0.015211
Si Si5 0.338420 0.439105 0.139917
Si Si6 0.942371 0.581878 0.978171
Si Si7 0.798489 0.945394 0.462525
Si Si8 0.000000 0.133388 0.750000
O O1 0.161791 0.347490 0.462569
O O2 0.299501 0.299858 0.509597
O O3 0.066845 0.276540 0.073368
O O4 0.132686 0.366039 0.096922
O O5 0.246455 0.594117 0.366546
O O6 0.144353 0.697293 0.220852
O O7 0.036563 0.605785 0.013697
O O8 0.470365 0.694337 0.018388
O O9 0.635187 0.607188 0.352116
O O10 0.598509 0.666233 0.017665
O O11 0.500000 0.225603 0.750000
O O12 0.299800 0.441163 0.263524
O O13 0.452052 0.404714 0.310527
O O14 0.358626 0.499480 0.117174
O O15 0.836240 0.547418 0.717188
O O16 0.000000 0.558636 0.250000
#
# Coordination Sequence:
#
# PCOD9266909 Si02
#       8
#     8   8   8   8   8   8   8   4
#     4   9  19  39  67  94 138 190 223 291 341 425
#     4  10  20  43  69  99 147 179 237 287 363 435
#     4  11  23  44  66 102 135 184 243 290 353 420
#     4   9  20  38  67 102 134 189 228 288 363 423
#     4  12  26  48  69 105 138 187 247 299 364 424
#     4  10  19  38  63 104 139 178 222 280 363 423
#     4  11  27  44  73 102 144 182 234 303 358 433
#     4  12  28  46  74  92 138 190 240 304 354 424
#
# _framework density 26.277895999999998
#
# number of rings (size 3 to 8) (size 9 to 14) (size 15 to 20)
#    0.000    1.600    2.667    2.400    3.733    2.667 
#    4.800    2.000    0.000    0.000    0.000    0.000 
#    0.000    0.000    0.000    0.000    0.000    0.000 
#
# Total GULP energy -167007.119800 kJ/mol
# GULP energy per Si atom -5566.903993 kJ/mol
# Density = 2.621809 g / cm^3
# Si number density = 26.277896 Si / 1000 Ang^3
#
#
#
# Elastic Constant Matrix: (Units=GPa)
#
#
# Indices 1 2 3 4 5 6 
#
# 1 86.2561 9.2962 -6.8782 0.0000 -3.9756 0.0000
# 2 9.2962 142.4832 14.4357 0.0000 -8.0621 0.0000
# 3 -6.8782 14.4357 67.6715 0.0000 -0.9176 0.0000
# 4 0.0000 0.0000 0.0000 35.3711 0.0000 1.1746
# 5 -3.9756 -8.0621 -0.9176 0.0000 28.4933 0.0000
# 6 0.0000 0.0000 0.0000 1.1746 0.0000 -16.0638
#
#
#
# Elastic Compliance Matrix: (Units=1/GPa)
#
#
# Indices 1 2 3 4 5 6 
#
# 1 0.011863 -0.000833 0.001403 0.000000 0.001465 0.000000
# 2 -0.000833 0.007346 -0.001626 0.000000 0.001910 0.000000
# 3 0.001403 -0.001626 0.015270 0.000000 0.000228 0.000000
# 4 0.000000 0.000000 0.000000 0.028203 0.000000 0.002062
# 5 0.001465 0.001910 0.000228 0.000000 0.035848 0.000000
# 6 0.000000 0.000000 0.000000 0.002062 0.000000 -0.062101
#
#
# Mechanical properties :
#
#
# Convention : Reuss Voigt Hill
#
# Bulk Modulus (GPa) = 30.89609 36.67979 33.78794
# Shear Modulus (GPa) = 101.36161 28.19725 64.77943
#
# Velocity S-wave (km/s) = 6.21745 3.27928 4.97043
# Velocity P-wave (km/s) = 7.95771 5.32231 6.76950
#
# Compressibility (1/GPa) = 0.03236655
#
# Stress axis : x y z
#
# Youngs Moduli (GPa) = 84.29860 136.13753 65.48872
#
# Poissons Ratio (x) = 0.11344 -0.09190
# Poissons Ratio (y) = 0.07024 0.10647
# Poissons Ratio (z) = -0.11830 0.22132
#
# Static dielectric constant tensor:
#      x y z
#    x 2.289690 0.000000 0.115470 
#    y 0.000000 2.135890 0.000000 
#    z 0.115470 0.000000 2.093870 
# 
# From -- ./inp_files/59133.got.cif
#   From: 2010.05.17/outbox.cif.g08.bks.cpg/sg15_30_cif.got.tgz:59133.got - 2010.06.03 18:47:42.
