data_PCOD9266680
_publ_section_title
;
Structure prediction by ZEFSAII (Michael W. Deem and Ramdas Pophale) SiO2 
 PCOD9266680
Probable space group: C 2/C
;
_chemical_formula_sum "Si O2"
_cell_formula_units_Z 56
_cell_length_a 10.291680
_cell_length_b 10.316760
_cell_length_c 37.143596
_cell_angle_alpha 90.000000
_cell_angle_beta 46.107624
_cell_angle_gamma 90.000000
_cell_volume 2842.064602
_symmetry_space_group_name_H-M "C 2/C"
_symmetry_group_IT_number 15
_symmetry_cell_setting 'monoclinic'
loop_
_space_group_symop_operation_xyz
x,y,z
-x,y,1/2-z
-x,-y,-z
x,-y,1/2+z
1/2+x,1/2+y,z
1/2-x,1/2+y,1/2-z
1/2-x,1/2-y,-z
1/2+x,1/2-y,1/2+z
loop_
_atom_site_type_symbol
_atom_site_label
_atom_site_fract_x
_atom_site_fract_y
_atom_site_fract_z
Si Si1 0.101224 0.219175 0.119307
Si Si2 0.756872 0.731853 0.557681
Si Si3 0.603978 0.457218 0.194117
Si Si4 0.508110 0.121334 0.052347
Si Si5 0.441694 0.159354 0.587671
Si Si6 0.878967 0.732886 0.807569
Si Si7 0.952437 0.051725 0.646241
O O1 0.302069 0.170397 0.090390
O O2 0.037608 0.285751 0.168641
O O3 0.102628 0.300148 0.082756
O O4 0.966281 0.100695 0.136315
O O5 0.619911 0.835196 0.566405
O O6 0.868346 0.762793 0.572602
O O7 0.630929 0.613642 0.594666
O O8 0.888284 0.684076 0.501023
O O9 0.500000 0.414601 0.250000
O O10 0.781733 0.382320 0.146206
O O11 0.653026 0.610598 0.189042
O O12 0.469327 0.440906 0.186195
O O13 0.498770 0.966759 0.054183
O O14 0.708947 0.638233 0.837185
O O15 0.000000 0.700292 0.750000
#
# Coordination Sequence:
#
# PCOD9266680 Si02
#       7
#     8   8   8   8   8   8   8
#     4  11  23  37  60  88 119 148 199 236 287 346
#     4  10  21  39  64  81 119 155 194 238 296 341
#     4   9  19  36  58  83 111 149 191 236 288 345
#     4  11  21  42  59  86 115 158 193 240 291 346
#     4  11  22  38  59  88 117 153 191 245 287 343
#     4  10  20  38  62  83 115 157 187 236 293 340
#     4  10  19  38  59  83 115 153 190 239 285 343
#
# _framework density 19.703987000000001
#
# number of rings (size 3 to 8) (size 9 to 14) (size 15 to 20)
#    0.000    1.714    5.714    0.429    2.000    1.714 
#    0.000    2.143    0.000    0.000    0.000    0.000 
#    0.000    0.000    0.000    0.000    0.000    0.000 
#
# Total GULP energy -155999.874913 kJ/mol
# GULP energy per Si atom -5571.424104 kJ/mol
# Density = 1.965914 g / cm^3
# Si number density = 19.703987 Si / 1000 Ang^3
#
#
#
# Elastic Constant Matrix: (Units=GPa)
#
#
# Indices 1 2 3 4 5 6 
#
# 1 90.6230 34.8785 13.6440 0.0000 22.9991 0.0000
# 2 34.8785 31.7434 -1.8479 0.0000 7.4888 0.0000
# 3 13.6440 -1.8479 66.9078 0.0000 6.0903 0.0000
# 4 0.0000 0.0000 0.0000 15.1718 0.0000 11.2727
# 5 22.9991 7.4888 6.0903 0.0000 21.7276 0.0000
# 6 0.0000 0.0000 0.0000 11.2727 0.0000 29.2066
#
#
#
# Elastic Compliance Matrix: (Units=1/GPa)
#
#
# Indices 1 2 3 4 5 6 
#
# 1 0.025284 -0.023941 -0.004240 0.000000 -0.017323 0.000000
# 2 -0.023941 0.057244 0.006108 0.000000 0.003900 0.000000
# 3 -0.004240 0.006108 0.016175 0.000000 -0.002151 0.000000
# 4 0.000000 0.000000 0.000000 0.092413 0.000000 -0.035668
# 5 -0.017323 0.003900 -0.002151 0.000000 0.063620 0.000000
# 6 0.000000 0.000000 0.000000 -0.035668 0.000000 0.048006
#
#
# Mechanical properties :
#
#
# Convention : Reuss Voigt Hill
#
# Bulk Modulus (GPa) = 18.32972 31.40261 24.86616
# Shear Modulus (GPa) = 13.69584 22.72783 18.21183
#
# Velocity S-wave (km/s) = 2.63930 3.39995 3.04348
# Velocity P-wave (km/s) = 4.31400 5.60220 4.99976
#
# Compressibility (1/GPa) = 0.05455620
#
# Stress axis : x y z
#
# Youngs Moduli (GPa) = 39.55068 17.46911 61.82340
#
# Poissons Ratio (x) = 0.41823 0.26215
# Poissons Ratio (y) = 0.94689 -0.37763
# Poissons Ratio (z) = 0.16771 -0.10670
#
# Static dielectric constant tensor:
#      x y z
#    x 1.744630 0.000000 0.021840 
#    y 0.000000 1.695280 0.000000 
#    z 0.021840 0.000000 1.714970 
# 
# From -- ./inp_files/307429.got.cif
#   From: 2010.05.17/outbox.cif.g08.bks.cpg/sg15_154_cif.got.tgz:307429.got - 2010.06.03 18:47:42.
