data_PCOD9266533
_publ_section_title
;
Structure prediction by ZEFSAII (Michael W. Deem and Ramdas Pophale) SiO2 
 PCOD9266533
Probable space group: C 2/C
;
_chemical_formula_sum "Si O2"
_cell_formula_units_Z 36
_cell_length_a 14.130349
_cell_length_b 5.692087
_cell_length_c 28.087101
_cell_angle_alpha 90.000000
_cell_angle_beta 147.042452
_cell_angle_gamma 90.000000
_cell_volume 1228.978252
_symmetry_space_group_name_H-M "C 2/C"
_symmetry_group_IT_number 15
_symmetry_cell_setting 'monoclinic'
loop_
_space_group_symop_operation_xyz
x,y,z
-x,y,1/2-z
-x,-y,-z
x,-y,1/2+z
1/2+x,1/2+y,z
1/2-x,1/2+y,1/2-z
1/2-x,1/2-y,-z
1/2+x,1/2-y,1/2+z
loop_
_atom_site_type_symbol
_atom_site_label
_atom_site_fract_x
_atom_site_fract_y
_atom_site_fract_z
Si Si1 0.684540 0.289077 0.628725
Si Si2 0.674020 0.464706 0.029580
Si Si3 0.000000 0.070955 0.250000
Si Si4 0.861243 0.061554 0.282244
Si Si5 0.973044 0.644163 0.099686
O O1 0.472848 0.261897 0.534163
O O2 0.717349 0.490768 0.602592
O O3 0.831574 0.100680 0.676485
O O4 0.692273 0.393475 0.685543
O O5 0.837346 0.457564 0.063109
O O6 0.589624 0.709259 0.972476
O O7 0.038511 0.203489 0.216775
O O8 0.994408 0.846607 0.346637
O O9 0.665938 0.040753 0.177901
#
# Coordination Sequence:
#
# PCOD9266533 Si02
#       5
#     8   8   4   8   8
#     4  10  19  37  66  94 124 176 209 256 328 372
#     4   9  19  37  65  95 130 169 213 265 321 378
#     4  12  22  40  66  94 136 166 212 278 306 382
#     4  11  21  38  66  95 126 174 216 258 322 380
#     4  10  20  38  66  95 130 169 217 265 318 381
#
# _framework density 29.292625999999998
#
# number of rings (size 3 to 8) (size 9 to 14) (size 15 to 20)
#    0.000    1.778    4.444    0.000    0.000    0.000 
#    0.000   13.333    0.000    0.000    0.000    0.000 
#    0.000    0.000    0.000    0.000    0.000    0.000 
#
# Total GULP energy -100356.168700 kJ/mol
# GULP energy per Si atom -5575.342706 kJ/mol
# Density = 2.922595 g / cm^3
# Si number density = 29.292626 Si / 1000 Ang^3
#
#
#
# Elastic Constant Matrix: (Units=GPa)
#
#
# Indices 1 2 3 4 5 6 
#
# 1 298.5743 40.0297 69.9157 -0.0003 12.4094 0.0013
# 2 40.0297 57.0972 37.7400 -0.0018 -1.9238 0.0027
# 3 69.9157 37.7400 119.8504 -0.0001 -3.4283 0.0002
# 4 -0.0003 -0.0018 -0.0001 54.4936 0.0002 12.0570
# 5 12.4094 -1.9238 -3.4283 0.0002 37.2630 -0.0009
# 6 0.0013 0.0027 0.0002 12.0570 -0.0009 37.6950
#
#
#
# Elastic Compliance Matrix: (Units=1/GPa)
#
#
# Indices 1 2 3 4 5 6 
#
# 1 0.004086 -0.001658 -0.001908 0.000000 -0.001622 0.000000
# 2 -0.001658 0.022800 -0.006179 0.000001 0.001161 -0.000002
# 3 -0.001908 -0.006179 0.011441 0.000000 0.001369 0.000001
# 4 0.000000 0.000001 0.000000 0.019748 0.000000 -0.006317
# 5 -0.001622 0.001161 0.001369 0.000000 0.027562 0.000001
# 6 0.000000 -0.000002 0.000001 -0.006317 0.000001 0.028549
#
#
# Mechanical properties :
#
#
# Convention : Reuss Voigt Hill
#
# Bulk Modulus (GPa) = 53.08601 85.65472 69.37037
# Shear Modulus (GPa) = 35.72569 47.74608 41.73589
#
# Velocity S-wave (km/s) = 3.49609 4.04167 3.77874
# Velocity P-wave (km/s) = 5.87016 7.14735 6.54001
#
# Compressibility (1/GPa) = 0.01883735
#
# Stress axis : x y z
#
# Youngs Moduli (GPa) = 244.75842 43.86010 87.40130
#
# Poissons Ratio (x) = 0.07272 0.16673
# Poissons Ratio (y) = 0.40583 0.54005
# Poissons Ratio (z) = 0.46692 0.27101
#
# Static dielectric constant tensor:
#      x y z
#    x 2.175930 0.000000 -0.098290 
#    y 0.000000 2.644480 0.000000 
#    z -0.098290 0.000000 2.450700 
# 
# From -- ./inp_files/150212.got.cif
#   From: 2010.05.17/outbox.cif.g08.bks.cpg/sg15_76_cif.got.tgz:150212.got - 2010.06.03 18:47:42.
