data_PCOD9266619
_publ_section_title
;
Structure prediction by ZEFSAII (Michael W. Deem and Ramdas Pophale) SiO2 
 PCOD9266619
Probable space group: C 2/C
;
_chemical_formula_sum "Si O2"
_cell_formula_units_Z 52
_cell_length_a 12.866749
_cell_length_b 25.514051
_cell_length_c 8.011582
_cell_angle_alpha 90.000000
_cell_angle_beta 92.950851
_cell_angle_gamma 90.000000
_cell_volume 2626.577990
_symmetry_space_group_name_H-M "C 2/C"
_symmetry_group_IT_number 15
_symmetry_cell_setting 'monoclinic'
loop_
_space_group_symop_operation_xyz
x,y,z
-x,y,1/2-z
-x,-y,-z
x,-y,1/2+z
1/2+x,1/2+y,z
1/2-x,1/2+y,1/2-z
1/2-x,1/2-y,-z
1/2+x,1/2-y,1/2+z
loop_
_atom_site_type_symbol
_atom_site_label
_atom_site_fract_x
_atom_site_fract_y
_atom_site_fract_z
Si Si1 0.619868 0.938276 0.714768
Si Si2 0.032806 0.263522 0.522854
Si Si3 0.500000 0.664675 0.750000
Si Si4 0.718340 0.357018 0.182090
Si Si5 0.787632 0.332947 0.805891
Si Si6 0.619139 0.055092 0.818227
Si Si7 0.837265 0.738773 0.810232
O O1 0.500000 0.930122 0.750000
O O2 0.686298 0.888377 0.775122
O O3 0.622142 0.939332 0.516078
O O4 0.651146 0.995750 0.778841
O O5 0.014340 0.206434 0.600073
O O6 0.104349 0.301649 0.641683
O O7 0.098023 0.260418 0.357433
O O8 0.916957 0.279936 0.458365
O O9 0.397020 0.630197 0.765121
O O10 0.802394 0.400799 0.239676
O O11 0.747106 0.302916 0.275018
O O12 0.733762 0.345087 0.983669
O O13 0.715023 0.295729 0.688575
O O14 0.500000 0.063049 0.750000
#
# Coordination Sequence:
#
# PCOD9266619 Si02
#       7
#     8   8   4   8   8   8   8
#     4  10  21  36  60  83 113 145 180 243 292 336
#     4  10  21  33  57  79 120 148 190 233 273 351
#     4  12  20  38  50  86 120 148 190 234 278 330
#     4  10  21  34  60  79 118 154 186 234 284 339
#     4  10  19  38  57  84 119 153 185 230 293 341
#     4  10  21  39  57  85 111 146 191 234 292 340
#     4  10  19  38  55  82 110 161 189 219 297 338
#
# _framework density 19.797623000000002
#
# number of rings (size 3 to 8) (size 9 to 14) (size 15 to 20)
#    0.000    1.846    3.077    2.769    7.538    0.615 
#    5.538    0.000    0.000    5.538    0.000    0.000 
#    0.000    0.000    0.000    0.000    0.000    0.000 
#
# Total GULP energy -145102.786963 kJ/mol
# GULP energy per Si atom -5580.876422 kJ/mol
# Density = 1.975256 g / cm^3
# Si number density = 19.797623 Si / 1000 Ang^3
#
#
#
# Elastic Constant Matrix: (Units=GPa)
#
#
# Indices 1 2 3 4 5 6 
#
# 1 111.3826 52.9666 19.0862 0.0000 -7.3066 0.0000
# 2 52.9666 108.5161 3.2676 0.0000 -7.0271 0.0000
# 3 19.0862 3.2676 40.3412 0.0000 -7.4765 0.0000
# 4 0.0000 0.0000 0.0000 9.6676 0.0000 -7.6500
# 5 -7.3066 -7.0271 -7.4765 0.0000 17.3437 0.0000
# 6 0.0000 0.0000 0.0000 -7.6500 0.0000 35.0758
#
#
#
# Elastic Compliance Matrix: (Units=1/GPa)
#
#
# Indices 1 2 3 4 5 6 
#
# 1 0.012838 -0.006063 -0.005473 0.000000 0.000593 0.000000
# 2 -0.006063 0.012327 0.002524 0.000000 0.003528 0.000000
# 3 -0.005473 0.002524 0.029274 0.000000 0.011336 0.000000
# 4 0.000000 0.000000 0.000000 0.125014 0.000000 0.027265
# 5 0.000593 0.003528 0.011336 0.000000 0.064224 0.000000
# 6 0.000000 0.000000 0.000000 0.027265 0.000000 0.034456
#
#
# Mechanical properties :
#
#
# Convention : Reuss Voigt Hill
#
# Bulk Modulus (GPa) = 27.46091 45.65342 36.55716
# Shear Modulus (GPa) = 16.21817 24.74537 20.48177
#
# Velocity S-wave (km/s) = 2.86527 3.53925 3.21994
# Velocity P-wave (km/s) = 4.98470 6.30966 5.68591
#
# Compressibility (1/GPa) = 0.03641541
#
# Stress axis : x y z
#
# Youngs Moduli (GPa) = 77.89397 81.12248 34.15946
#
# Poissons Ratio (x) = 0.49185 0.18695
# Poissons Ratio (y) = 0.47227 -0.08622
# Poissons Ratio (z) = 0.42631 -0.20475
#
# Static dielectric constant tensor:
#      x y z
#    x 1.741880 0.000000 -0.007390 
#    y 0.000000 1.709250 0.000000 
#    z -0.007390 0.000000 1.747380 
# 
# From -- ./inp_files/33584.got.cif
#   From: 2010.05.17/outbox.cif.g08.bks.cpg/sg15_17_cif.got.tgz:33584.got - 2010.06.03 18:47:42.
