data_PCOD9266870
_publ_section_title
;
Structure prediction by ZEFSAII (Michael W. Deem and Ramdas Pophale) SiO2 
 PCOD9266870
Probable space group: C 2/C
;
_chemical_formula_sum "Si O2"
_cell_formula_units_Z 52
_cell_length_a 11.014002
_cell_length_b 21.375758
_cell_length_c 11.348374
_cell_angle_alpha 90.000000
_cell_angle_beta 77.142208
_cell_angle_gamma 90.000000
_cell_volume 2604.783886
_symmetry_space_group_name_H-M "C 2/C"
_symmetry_group_IT_number 15
_symmetry_cell_setting 'monoclinic'
loop_
_space_group_symop_operation_xyz
x,y,z
-x,y,1/2-z
-x,-y,-z
x,-y,1/2+z
1/2+x,1/2+y,z
1/2-x,1/2+y,1/2-z
1/2-x,1/2-y,-z
1/2+x,1/2-y,1/2+z
loop_
_atom_site_type_symbol
_atom_site_label
_atom_site_fract_x
_atom_site_fract_y
_atom_site_fract_z
Si Si1 0.431607 0.819458 0.386965
Si Si2 0.947332 0.242820 0.927734
Si Si3 0.000000 0.350695 0.750000
Si Si4 0.274514 0.633332 0.938330
Si Si5 0.817749 0.843248 0.167234
Si Si6 0.511362 0.926986 0.527116
Si Si7 0.991300 0.958502 0.118457
O O1 0.500000 0.807738 0.250000
O O2 0.493685 0.775088 0.470532
O O3 0.283156 0.816482 0.401171
O O4 0.457065 0.889240 0.428539
O O5 0.919752 0.299672 0.842644
O O6 0.060726 0.200335 0.854112
O O7 0.834187 0.196126 0.980681
O O8 0.948284 0.397579 0.659636
O O9 0.251755 0.653788 0.808267
O O10 0.388617 0.585709 0.911703
O O11 0.155004 0.595654 0.008896
O O12 0.871044 0.912973 0.133547
O O13 0.500000 0.000000 0.500000
O O14 0.000000 0.987355 0.250000
O O15 0.000000 0.000000 0.000000
#
# Coordination Sequence:
#
# PCOD9266870 Si02
#       7
#     8   8   4   8   8   8   8
#     4  11  23  37  59  94 125 170 202 269 324 381
#     4  10  20  40  65  94 124 159 223 259 326 380
#     4  10  22  40  64  92 124 166 206 278 300 386
#     4  10  20  40  66  86 122 180 208 268 311 405
#     4  10  19  38  62  88 128 162 211 265 331 381
#     4  11  26  41  60  91 131 170 217 251 328 388
#     4   9  20  38  61  89 118 170 226 268 322 387
#
# _framework density 19.963266999999998
#
# number of rings (size 3 to 8) (size 9 to 14) (size 15 to 20)
#    0.000    1.846    3.077    1.385    3.231    3.692 
#    2.769    3.077    0.000    0.000    0.000    0.000 
#    0.000    0.000    0.000    0.000    0.000    0.000 
#
# Total GULP energy -144762.952288 kJ/mol
# GULP energy per Si atom -5567.805857 kJ/mol
# Density = 1.991783 g / cm^3
# Si number density = 19.963267 Si / 1000 Ang^3
#
#
#
# Elastic Constant Matrix: (Units=GPa)
#
#
# Indices 1 2 3 4 5 6 
#
# 1 106.7226 42.6973 31.2354 0.0000 -3.8122 0.0000
# 2 42.6973 131.0117 56.6786 0.0000 14.1365 0.0000
# 3 31.2354 56.6786 106.2466 0.0000 18.9526 0.0000
# 4 0.0000 0.0000 0.0000 26.3955 0.0000 0.2133
# 5 -3.8122 14.1365 18.9526 0.0000 21.1481 0.0000
# 6 0.0000 0.0000 0.0000 0.2133 0.0000 22.1790
#
#
#
# Elastic Compliance Matrix: (Units=1/GPa)
#
#
# Indices 1 2 3 4 5 6 
#
# 1 0.011814 -0.003332 -0.002944 0.000000 0.006995 0.000000
# 2 -0.003332 0.010953 -0.004107 0.000000 -0.004242 0.000000
# 3 -0.002944 -0.004107 0.014371 0.000000 -0.010664 0.000000
# 4 0.000000 0.000000 0.000000 0.037888 0.000000 -0.000364
# 5 0.006995 -0.004242 -0.010664 0.000000 0.060939 0.000000
# 6 0.000000 0.000000 0.000000 -0.000364 0.000000 0.045091
#
#
# Mechanical properties :
#
#
# Convention : Reuss Voigt Hill
#
# Bulk Modulus (GPa) = 61.07426 67.24482 64.15954
# Shear Modulus (GPa) = 24.12203 28.16917 26.14560
#
# Velocity S-wave (km/s) = 3.47986 3.76047 3.62288
# Velocity P-wave (km/s) = 6.84147 7.25343 7.05046
#
# Compressibility (1/GPa) = 0.01637351
#
# Stress axis : x y z
#
# Youngs Moduli (GPa) = 84.64217 91.29788 69.58567
#
# Poissons Ratio (x) = 0.30417 0.20485
# Poissons Ratio (y) = 0.28199 0.28579
# Poissons Ratio (z) = 0.24917 0.37496
#
# Static dielectric constant tensor:
#      x y z
#    x 1.739670 0.000000 -0.022950 
#    y 0.000000 1.716840 0.000000 
#    z -0.022950 0.000000 1.787000 
# 
# From -- ./inp_files/88836.got.cif
#   From: 2010.05.17/outbox.cif.g08.bks.cpg/sg15_45_cif.got.tgz:88836.got - 2010.06.03 18:47:42.
