data_PCOD9266344
_publ_section_title
;
Structure prediction by ZEFSAII (Michael W. Deem and Ramdas Pophale) SiO2 
 PCOD9266344
Probable space group: C 2/C
;
_chemical_formula_sum "Si O2"
_cell_formula_units_Z 56
_cell_length_a 14.203839
_cell_length_b 18.109215
_cell_length_c 12.204882
_cell_angle_alpha 90.000000
_cell_angle_beta 66.141989
_cell_angle_gamma 90.000000
_cell_volume 2871.089279
_symmetry_space_group_name_H-M "C 2/C"
_symmetry_group_IT_number 15
_symmetry_cell_setting 'monoclinic'
loop_
_space_group_symop_operation_xyz
x,y,z
-x,y,1/2-z
-x,-y,-z
x,-y,1/2+z
1/2+x,1/2+y,z
1/2-x,1/2+y,1/2-z
1/2-x,1/2-y,-z
1/2+x,1/2-y,1/2+z
loop_
_atom_site_type_symbol
_atom_site_label
_atom_site_fract_x
_atom_site_fract_y
_atom_site_fract_z
Si Si1 0.182254 0.120698 0.214372
Si Si2 0.388982 0.774419 0.353259
Si Si3 0.317531 0.359546 0.536202
Si Si4 0.121313 0.956695 0.185973
Si Si5 0.740887 0.668782 0.749981
Si Si6 0.621573 0.801029 0.530999
Si Si7 0.388236 0.805506 0.611243
O O1 0.141054 0.190610 0.165490
O O2 0.147937 0.131440 0.356137
O O3 0.305766 0.128904 0.157371
O O4 0.145521 0.042322 0.190204
O O5 0.500000 0.790546 0.250000
O O6 0.305415 0.826628 0.332233
O O7 0.391596 0.782819 0.481699
O O8 0.341771 0.428811 0.449818
O O9 0.372137 0.287428 0.458839
O O10 0.196444 0.340666 0.581713
O O11 0.181762 0.905739 0.245798
O O12 0.000000 0.943755 0.250000
O O13 0.822642 0.684460 0.613135
O O14 0.659911 0.736215 0.799744
O O15 0.503807 0.824151 0.591226
#
# Coordination Sequence:
#
# PCOD9266344 Si02
#       7
#     8   8   8   8   8   8   8
#     4  11  23  39  57  93 127 160 205 248 309 376
#     4  11  20  37  65  91 121 164 204 258 307 357
#     4  10  21  39  60  89 126 158 205 262 295 370
#     4  11  25  40  62  89 126 166 199 252 316 365
#     4  10  20  38  58  94 119 156 213 252 297 365
#     4  10  19  37  63  89 119 157 212 260 299 351
#     4  11  21  37  65  90 123 164 206 256 311 356
#
# _framework density 19.504791999999998
#
# number of rings (size 3 to 8) (size 9 to 14) (size 15 to 20)
#    0.000    1.429    4.286    3.000    0.000    3.429 
#    0.000    2.857    3.143    0.000    0.000    0.000 
#    0.000    0.000    0.000    0.000    0.000    0.000 
#
# Total GULP energy -156454.922171 kJ/mol
# GULP energy per Si atom -5587.675792 kJ/mol
# Density = 1.946040 g / cm^3
# Si number density = 19.504792 Si / 1000 Ang^3
#
#
#
# Elastic Constant Matrix: (Units=GPa)
#
#
# Indices 1 2 3 4 5 6 
#
# 1 92.3890 25.2844 1.9604 0.0000 -19.8672 0.0000
# 2 25.2844 72.6137 14.4751 0.0000 8.8159 0.0000
# 3 1.9604 14.4751 60.0999 0.0000 -0.5363 0.0000
# 4 0.0000 0.0000 0.0000 17.4845 0.0000 4.6517
# 5 -19.8672 8.8159 -0.5363 0.0000 32.2311 0.0000
# 6 0.0000 0.0000 0.0000 4.6517 0.0000 19.6909
#
#
#
# Elastic Compliance Matrix: (Units=1/GPa)
#
#
# Indices 1 2 3 4 5 6 
#
# 1 0.015082 -0.006862 0.001261 0.000000 0.011195 0.000000
# 2 -0.006862 0.018127 -0.004225 0.000000 -0.009258 0.000000
# 3 0.001261 -0.004225 0.017635 0.000000 0.002226 0.000000
# 4 0.000000 0.000000 0.000000 0.061029 0.000000 -0.014417
# 5 0.011195 -0.009258 0.002226 0.000000 0.040496 0.000000
# 6 0.000000 0.000000 0.000000 -0.014417 0.000000 0.054191
#
#
# Mechanical properties :
#
#
# Convention : Reuss Voigt Hill
#
# Bulk Modulus (GPa) = 32.05920 34.28250 33.17085
# Shear Modulus (GPa) = 21.13180 26.10680 23.61930
#
# Velocity S-wave (km/s) = 3.29510 3.66250 3.48364
# Velocity P-wave (km/s) = 5.56320 5.95817 5.76407
#
# Compressibility (1/GPa) = 0.03119229
#
# Stress axis : x y z
#
# Youngs Moduli (GPa) = 66.30281 55.16591 56.70467
#
# Poissons Ratio (x) = 0.37856 -0.07149
# Poissons Ratio (y) = 0.45498 0.23956
# Poissons Ratio (z) = -0.08359 0.23306
#
# Static dielectric constant tensor:
#      x y z
#    x 1.706790 0.000000 0.003770 
#    y 0.000000 1.642190 0.000000 
#    z 0.003770 0.000000 1.720840 
# 
# From -- ./inp_files/98262.got.cif
#   From: 2010.05.17/outbox.cif.g08.bks.cpg/sg15_50_cif.got.tgz:98262.got - 2010.06.03 18:47:42.
