data_PCOD9266090
_publ_section_title
;
Structure prediction by ZEFSAII (Michael W. Deem and Ramdas Pophale) SiO2 
 PCOD9266090
Probable space group: C 2/C
;
_chemical_formula_sum "Si O2"
_cell_formula_units_Z 52
_cell_length_a 11.176906
_cell_length_b 24.960049
_cell_length_c 16.222685
_cell_angle_alpha 90.000000
_cell_angle_beta 142.922741
_cell_angle_gamma 90.000000
_cell_volume 2728.530660
_symmetry_space_group_name_H-M "C 2/C"
_symmetry_group_IT_number 15
_symmetry_cell_setting 'monoclinic'
loop_
_space_group_symop_operation_xyz
x,y,z
-x,y,1/2-z
-x,-y,-z
x,-y,1/2+z
1/2+x,1/2+y,z
1/2-x,1/2+y,1/2-z
1/2-x,1/2-y,-z
1/2+x,1/2-y,1/2+z
loop_
_atom_site_type_symbol
_atom_site_label
_atom_site_fract_x
_atom_site_fract_y
_atom_site_fract_z
Si Si1 0.374044 0.949118 0.546051
Si Si2 0.761354 0.621618 0.547035
Si Si3 0.655881 0.322791 0.672147
Si Si4 0.725093 0.087525 0.133760
Si Si5 0.000000 0.002781 0.750000
Si Si6 0.000000 0.635755 0.250000
Si Si7 0.534876 0.228517 0.860327
Si Si8 0.500000 0.966482 0.250000
O O1 0.508549 0.931689 0.542507
O O2 0.157584 0.964894 0.392760
O O3 0.391241 0.901126 0.621615
O O4 0.477220 0.997094 0.655873
O O5 0.561822 0.651935 0.465896
O O6 0.742519 0.597841 0.444811
O O7 0.938884 0.664944 0.630469
O O8 0.816496 0.574542 0.640292
O O9 0.722951 0.358430 0.788083
O O10 0.825572 0.331962 0.698686
O O11 0.622115 0.259915 0.670721
O O12 0.867506 0.037451 0.233062
O O13 0.500000 0.249182 0.750000
O O14 0.750000 0.250000 0.000000
#
# Coordination Sequence:
#
# PCOD9266090 Si02
#       8
#     8   8   8   8   4   4   8   4
#     4  10  23  37  56  83 120 156 198 230 282 345
#     4  11  20  34  58  88 116 144 191 246 294 328
#     4  10  19  37  60  84 114 150 195 235 291 349
#     4  11  20  37  59  85 115 158 191 237 289 346
#     4  12  20  34  55  83 113 157 188 234 284 336
#     4   9  22  40  58  83 117 158 192 235 282 344
#     4  10  20  34  58  88 111 141 185 244 292 335
#     4  11  20  36  53  88 122 151 188 243 288 338
#
# _framework density 19.057877999999999
#
# number of rings (size 3 to 8) (size 9 to 14) (size 15 to 20)
#    0.000    1.538    3.846    2.308    0.000    1.231 
#    0.000    4.615    0.000   15.692    0.000    0.000 
#    0.000    0.000    0.000    0.000    0.000    0.000 
#
# Total GULP energy -144773.763631 kJ/mol
# GULP energy per Si atom -5568.221678 kJ/mol
# Density = 1.901450 g / cm^3
# Si number density = 19.057878 Si / 1000 Ang^3
#
#
#
# Elastic Constant Matrix: (Units=GPa)
#
#
# Indices 1 2 3 4 5 6 
#
# 1 102.3297 40.7119 47.2049 -0.0001 17.2425 0.0000
# 2 40.7119 86.3693 36.6740 0.0000 15.0851 0.0000
# 3 47.2049 36.6740 102.1356 -0.0004 2.4307 0.0002
# 4 -0.0001 0.0000 -0.0004 0.5570 -0.0002 14.0687
# 5 17.2425 15.0851 2.4307 -0.0002 21.6356 0.0001
# 6 0.0000 0.0000 0.0002 14.0687 0.0001 13.4038
#
#
#
# Elastic Compliance Matrix: (Units=1/GPa)
#
#
# Indices 1 2 3 4 5 6 
#
# 1 0.015206 -0.003131 -0.005682 0.000000 -0.009297 0.000000
# 2 -0.003131 0.016309 -0.004209 0.000000 -0.008403 0.000000
# 3 -0.005682 -0.004209 0.013788 -0.000001 0.005914 0.000000
# 4 0.000000 0.000000 -0.000001 -0.070375 -0.000002 0.073866
# 5 -0.009297 -0.008403 0.005914 -0.000002 0.058823 0.000001
# 6 0.000000 0.000000 0.000000 0.073866 0.000001 -0.002924
#
#
# Mechanical properties :
#
#
# Convention : Reuss Voigt Hill
#
# Bulk Modulus (GPa) = 51.92688 60.00180 55.96434
# Shear Modulus (GPa) = 79.00093 18.20221 48.60157
#
# Velocity S-wave (km/s) = 6.44540 3.09382 5.05544
# Velocity P-wave (km/s) = 9.09379 6.65693 7.96905
#
# Compressibility (1/GPa) = 0.01925785
#
# Stress axis : x y z
#
# Youngs Moduli (GPa) = 65.76472 61.31609 72.52830
#
# Poissons Ratio (x) = 0.19198 0.41212
# Poissons Ratio (y) = 0.20591 0.30527
# Poissons Ratio (z) = 0.37369 0.25808
#
# Static dielectric constant tensor:
#      x y z
#    x 1.628340 0.000000 -0.019670 
#    y 0.000000 1.714390 0.000000 
#    z -0.019670 0.000000 1.711920 
# 
# From -- ./inp_files/44801.got.cif
#   From: 2010.05.17/outbox.cif.g08.bks.cpg/sg15_23_cif.got.tgz:44801.got - 2010.06.03 18:47:42.
