data_PCOD9266365
_publ_section_title
;
Structure prediction by ZEFSAII (Michael W. Deem and Ramdas Pophale) SiO2 
 PCOD9266365
Probable space group: C 2/C
;
_chemical_formula_sum "Si O2"
_cell_formula_units_Z 40
_cell_length_a 8.626837
_cell_length_b 17.558170
_cell_length_c 17.649479
_cell_angle_alpha 90.000000
_cell_angle_beta 131.258680
_cell_angle_gamma 90.000000
_cell_volume 2009.695871
_symmetry_space_group_name_H-M "C 2/C"
_symmetry_group_IT_number 15
_symmetry_cell_setting 'monoclinic'
loop_
_space_group_symop_operation_xyz
x,y,z
-x,y,1/2-z
-x,-y,-z
x,-y,1/2+z
1/2+x,1/2+y,z
1/2-x,1/2+y,1/2-z
1/2-x,1/2-y,-z
1/2+x,1/2-y,1/2+z
loop_
_atom_site_type_symbol
_atom_site_label
_atom_site_fract_x
_atom_site_fract_y
_atom_site_fract_z
Si Si1 0.152422 0.295654 0.690555
Si Si2 0.276567 0.701665 0.930709
Si Si3 0.298987 0.742627 0.404903
Si Si4 0.756540 0.952677 0.656860
Si Si5 0.489723 0.898936 0.065829
O O1 0.258266 0.252158 0.654574
O O2 0.256475 0.273878 0.802969
O O3 0.170595 0.385233 0.681981
O O4 0.914367 0.270083 0.620759
O O5 0.123156 0.632715 0.895761
O O6 0.250000 0.750000 0.000000
O O7 0.521131 0.686186 0.009227
O O8 0.386331 0.829148 0.434424
O O9 0.686293 0.927164 0.549542
O O10 0.000000 0.957736 0.750000
O O11 0.644425 0.032863 0.633263
#
# Coordination Sequence:
#
# PCOD9266365 Si02
#       5
#     8   8   8   8   8
#     4  11  22  37  65  95 126 166 214 254 313 371
#     4  10  19  37  63  92 120 160 215 256 304 370
#     4  10  22  39  65  95 126 166 214 261 306 377
#     4  11  23  40  64  90 130 171 202 261 323 377
#     4  10  23  41  63  93 126 166 212 257 324 371
#
# _framework density 19.903507000000001
#
# number of rings (size 3 to 8) (size 9 to 14) (size 15 to 20)
#    0.000    1.600    4.000    1.800    5.600    0.000 
#    0.000    5.000    0.000    0.000    0.000    0.000 
#    0.000    0.000    0.000    0.000    0.000    0.000 
#
# Total GULP energy -111649.245936 kJ/mol
# GULP energy per Si atom -5582.462297 kJ/mol
# Density = 1.985821 g / cm^3
# Si number density = 19.903507 Si / 1000 Ang^3
#
#
#
# Elastic Constant Matrix: (Units=GPa)
#
#
# Indices 1 2 3 4 5 6 
#
# 1 119.0235 74.1894 53.2987 0.0000 8.1908 0.0000
# 2 74.1894 137.9095 42.4471 0.0000 19.8029 0.0000
# 3 53.2987 42.4471 81.1089 0.0000 24.3223 0.0000
# 4 0.0000 0.0000 0.0000 24.2508 0.0000 4.0989
# 5 8.1908 19.8029 24.3223 0.0000 46.1201 0.0000
# 6 0.0000 0.0000 0.0000 4.0989 0.0000 27.5579
#
#
#
# Elastic Compliance Matrix: (Units=1/GPa)
#
#
# Indices 1 2 3 4 5 6 
#
# 1 0.015991 -0.006669 -0.008345 0.000000 0.004424 0.000000
# 2 -0.006669 0.011522 -0.000616 0.000000 -0.003438 0.000000
# 3 -0.008345 -0.000616 0.020920 0.000000 -0.009286 0.000000
# 4 0.000000 0.000000 0.000000 0.042299 0.000000 -0.006291
# 5 0.004424 -0.003438 -0.009286 0.000000 0.027270 0.000000
# 6 0.000000 0.000000 0.000000 -0.006291 0.000000 0.037223
#
#
# Mechanical properties :
#
#
# Convention : Reuss Voigt Hill
#
# Bulk Modulus (GPa) = 58.23372 75.32359 66.77866
# Shear Modulus (GPa) = 26.01317 30.79287 28.40302
#
# Velocity S-wave (km/s) = 3.61912 3.93760 3.78171
# Velocity P-wave (km/s) = 6.84000 7.65503 7.25896
#
# Compressibility (1/GPa) = 0.01717218
#
# Stress axis : x y z
#
# Youngs Moduli (GPa) = 62.53463 86.78730 47.80191
#
# Poissons Ratio (x) = 0.57883 0.39889
# Poissons Ratio (y) = 0.41707 0.02947
# Poissons Ratio (z) = 0.52182 0.05350
#
# Static dielectric constant tensor:
#      x y z
#    x 1.730630 0.000000 0.018110 
#    y 0.000000 1.697830 0.000000 
#    z 0.018110 0.000000 1.758830 
# 
# From -- ./inp_files/190165.got.cif
#   From: 2010.05.17/outbox.cif.g08.bks.cpg/sg15_96_cif.got.tgz:190165.got - 2010.06.03 18:47:42.
