data_PCOD9266299
_publ_section_title
;
Structure prediction by ZEFSAII (Michael W. Deem and Ramdas Pophale) SiO2 
 PCOD9266299
Probable space group: C 2/C
;
_chemical_formula_sum "Si O2"
_cell_formula_units_Z 52
_cell_length_a 19.619737
_cell_length_b 7.665771
_cell_length_c 13.975934
_cell_angle_alpha 90.000000
_cell_angle_beta 93.570753
_cell_angle_gamma 90.000000
_cell_volume 2097.905526
_symmetry_space_group_name_H-M "C 2/C"
_symmetry_group_IT_number 15
_symmetry_cell_setting 'monoclinic'
loop_
_space_group_symop_operation_xyz
x,y,z
-x,y,1/2-z
-x,-y,-z
x,-y,1/2+z
1/2+x,1/2+y,z
1/2-x,1/2+y,1/2-z
1/2-x,1/2-y,-z
1/2+x,1/2-y,1/2+z
loop_
_atom_site_type_symbol
_atom_site_label
_atom_site_fract_x
_atom_site_fract_y
_atom_site_fract_z
Si Si1 0.675797 0.747410 0.445694
Si Si2 0.649825 0.871650 0.922337
Si Si3 0.751581 0.343717 0.313876
Si Si4 0.144865 0.063275 0.255868
Si Si5 0.136747 0.432200 0.611301
Si Si6 0.000000 0.196735 0.250000
Si Si7 0.990905 0.515522 0.114385
O O1 0.750000 0.750000 0.500000
O O2 0.654244 0.598677 0.371344
O O3 0.670846 0.932978 0.390619
O O4 0.630880 0.771170 0.537150
O O5 0.709238 0.742803 0.897277
O O6 0.572441 0.852701 0.877320
O O7 0.641919 0.903948 0.035270
O O8 0.811190 0.214810 0.288756
O O9 0.687335 0.388192 0.238626
O O10 0.792584 0.527502 0.329676
O O11 0.065727 0.084002 0.226494
O O12 0.065974 0.437942 0.660485
O O13 0.977337 0.327877 0.162243
O O14 0.000000 0.500000 0.000000
#
# Coordination Sequence:
#
# PCOD9266299 Si02
#       7
#     8   8   8   8   8   4   8
#     4  10  19  37  62  93 120 161 213 261 319 379
#     4   9  20  36  62  89 121 160 211 256 312 382
#     4  12  23  39  61  92 126 163 217 264 318 381
#     4  12  24  39  62  91 127 170 212 268 328 384
#     4   9  19  36  65  89 119 164 210 259 311 384
#     4  12  22  40  66  90 132 176 206 274 334 390
#     4  10  19  38  63  94 123 167 220 255 321 397
#
# _framework density 24.786624
#
# number of rings (size 3 to 8) (size 9 to 14) (size 15 to 20)
#    0.923    0.615    4.615    1.385    0.000    0.000 
#    0.000    2.308    0.000    4.615    0.000    0.000 
#    0.000    0.000    0.000    0.000    0.000    0.000 
#
# Total GULP energy -144833.996550 kJ/mol
# GULP energy per Si atom -5570.538329 kJ/mol
# Density = 2.473021 g / cm^3
# Si number density = 24.786624 Si / 1000 Ang^3
#
#
#
# Elastic Constant Matrix: (Units=GPa)
#
#
# Indices 1 2 3 4 5 6 
#
# 1 211.8745 22.6807 10.0903 0.0000 -1.7007 0.0000
# 2 22.6807 47.5406 1.5542 0.0000 -6.2559 0.0000
# 3 10.0903 1.5542 80.6002 0.0000 4.0777 0.0000
# 4 0.0000 0.0000 0.0000 21.4447 0.0000 -2.3326
# 5 -1.7007 -6.2559 4.0777 0.0000 25.1624 0.0000
# 6 0.0000 0.0000 0.0000 -2.3326 0.0000 40.0457
#
#
#
# Elastic Compliance Matrix: (Units=1/GPa)
#
#
# Indices 1 2 3 4 5 6 
#
# 1 0.005001 -0.002389 -0.000572 0.000000 -0.000163 0.000000
# 2 -0.002389 0.022926 -0.000427 0.000000 0.005608 0.000000
# 3 -0.000572 -0.000427 0.012597 0.000000 -0.002186 0.000000
# 4 0.000000 0.000000 0.000000 0.046929 0.000000 0.002733
# 5 -0.000163 0.005608 -0.002186 0.000000 0.041479 0.000000
# 6 0.000000 0.000000 0.000000 0.002733 0.000000 0.025131
#
#
# Mechanical properties :
#
#
# Convention : Reuss Voigt Hill
#
# Bulk Modulus (GPa) = 29.62947 45.40730 37.51838
# Shear Modulus (GPa) = 29.05480 37.70990 33.38235
#
# Velocity S-wave (km/s) = 3.42745 3.90472 3.67384
# Velocity P-wave (km/s) = 5.25766 6.21998 5.75896
#
# Compressibility (1/GPa) = 0.03375018
#
# Stress axis : x y z
#
# Youngs Moduli (GPa) = 199.94330 43.61820 79.38185
#
# Poissons Ratio (x) = 0.10420 0.04539
# Poissons Ratio (y) = 0.47764 0.03387
# Poissons Ratio (z) = 0.11433 0.01861
#
# Static dielectric constant tensor:
#      x y z
#    x 2.052290 0.000000 0.023170 
#    y 0.000000 2.015740 0.000000 
#    z 0.023170 0.000000 2.078240 
# 
# From -- ./inp_files/166295.got.cif
#   From: 2010.05.17/outbox.cif.g08.bks.cpg/sg15_84_cif.got.tgz:166295.got - 2010.06.03 18:47:42.
