data_PCOD9266475
_publ_section_title
;
Structure prediction by ZEFSAII (Michael W. Deem and Ramdas Pophale) SiO2 
 PCOD9266475
Probable space group: C 2/C
;
_chemical_formula_sum "Si O2"
_cell_formula_units_Z 52
_cell_length_a 12.234785
_cell_length_b 12.608015
_cell_length_c 26.462586
_cell_angle_alpha 90.000000
_cell_angle_beta 139.682687
_cell_angle_gamma 90.000000
_cell_volume 2641.150711
_symmetry_space_group_name_H-M "C 2/C"
_symmetry_group_IT_number 15
_symmetry_cell_setting 'monoclinic'
loop_
_space_group_symop_operation_xyz
x,y,z
-x,y,1/2-z
-x,-y,-z
x,-y,1/2+z
1/2+x,1/2+y,z
1/2-x,1/2+y,1/2-z
1/2-x,1/2-y,-z
1/2+x,1/2-y,1/2+z
loop_
_atom_site_type_symbol
_atom_site_label
_atom_site_fract_x
_atom_site_fract_y
_atom_site_fract_z
Si Si1 0.655165 0.611680 0.160834
Si Si2 0.500000 0.780950 0.750000
Si Si3 0.914519 0.868845 0.390010
Si Si4 0.821235 0.824283 0.715107
Si Si5 0.519646 0.737013 0.485513
Si Si6 0.831120 0.153073 0.603135
Si Si7 0.174968 0.439421 0.571779
O O1 0.838697 0.647680 0.205446
O O2 0.624244 0.489314 0.137387
O O3 0.652289 0.634949 0.219187
O O4 0.524801 0.684352 0.083162
O O5 0.458244 0.706159 0.687775
O O6 0.771770 0.788972 0.318936
O O7 0.927078 0.849398 0.454223
O O8 0.088853 0.835175 0.423830
O O9 0.705114 0.902328 0.639938
O O10 0.000000 0.817588 0.750000
O O11 0.348419 0.791617 0.447955
O O12 0.658794 0.830536 0.534576
O O13 0.812220 0.027197 0.606074
O O14 0.000000 0.500000 0.500000
#
# Coordination Sequence:
#
# PCOD9266475 Si02
#       7
#     8   4   8   8   8   8   8
#     4  11  23  40  63  86 127 160 204 251 311 364
#     4  10  22  38  58  94 120 154 204 258 296 370
#     4  11  22  38  62  88 123 169 202 250 317 370
#     4  11  24  41  61  94 126 161 213 261 304 365
#     4   9  21  40  59  90 127 155 207 252 308 377
#     4  10  19  37  65  90 119 157 208 257 302 357
#     4   9  20  38  64  91 123 157 206 258 308 362
#
# _framework density 19.688386999999999
#
# number of rings (size 3 to 8) (size 9 to 14) (size 15 to 20)
#    0.000    1.846    1.538    1.846    4.308    1.231 
#    0.000    8.462    0.000    0.000    0.000    0.000 
#    0.000    0.000    0.000    0.000    0.000    0.000 
#
# Total GULP energy -145141.658997 kJ/mol
# GULP energy per Si atom -5582.371500 kJ/mol
# Density = 1.964357 g / cm^3
# Si number density = 19.688387 Si / 1000 Ang^3
#
#
#
# Elastic Constant Matrix: (Units=GPa)
#
#
# Indices 1 2 3 4 5 6 
#
# 1 67.2046 39.7536 26.3298 0.0000 -6.8465 0.0000
# 2 39.7536 132.5355 76.4371 0.0000 -11.1458 0.0000
# 3 26.3298 76.4371 121.4649 0.0000 -24.8046 0.0000
# 4 0.0000 0.0000 0.0000 22.9864 0.0000 3.1400
# 5 -6.8465 -11.1458 -24.8046 0.0000 23.6342 0.0000
# 6 0.0000 0.0000 0.0000 3.1400 0.0000 16.4946
#
#
#
# Elastic Compliance Matrix: (Units=1/GPa)
#
#
# Indices 1 2 3 4 5 6 
#
# 1 0.018270 -0.005159 -0.000166 0.000000 0.002686 0.000000
# 2 -0.005159 0.013453 -0.008091 0.000000 -0.003642 0.000000
# 3 -0.000166 -0.008091 0.016001 0.000000 0.012929 0.000000
# 4 0.000000 0.000000 0.000000 0.044666 0.000000 -0.008503
# 5 0.002686 -0.003642 0.012929 0.000000 0.054942 0.000000
# 6 0.000000 0.000000 0.000000 -0.008503 0.000000 0.062245
#
#
# Mechanical properties :
#
#
# Convention : Reuss Voigt Hill
#
# Bulk Modulus (GPa) = 47.86372 67.36067 57.61220
# Shear Modulus (GPa) = 20.54483 24.53533 22.54008
#
# Velocity S-wave (km/s) = 3.23383 3.53396 3.38722
# Velocity P-wave (km/s) = 6.18926 7.13719 6.68006
#
# Compressibility (1/GPa) = 0.02089265
#
# Stress axis : x y z
#
# Youngs Moduli (GPa) = 54.73475 74.33505 62.49695
#
# Poissons Ratio (x) = 0.38347 0.01034
# Poissons Ratio (y) = 0.28236 0.50567
# Poissons Ratio (z) = 0.00906 0.60146
#
# Static dielectric constant tensor:
#      x y z
#    x 1.690860 0.000000 0.026380 
#    y 0.000000 1.675740 0.000000 
#    z 0.026380 0.000000 1.689700 
# 
# From -- ./inp_files/269304.got.cif
#   From: 2010.05.17/outbox.cif.g08.bks.cpg/sg15_135_cif.got.tgz:269304.got - 2010.06.03 18:47:42.
