data_PCOD9266429
_publ_section_title
;
Structure prediction by ZEFSAII (Michael W. Deem and Ramdas Pophale) SiO2 
 PCOD9266429
Probable space group: C 2/C
;
_chemical_formula_sum "Si O2"
_cell_formula_units_Z 60
_cell_length_a 19.672254
_cell_length_b 15.171940
_cell_length_c 15.990703
_cell_angle_alpha 90.000000
_cell_angle_beta 138.862632
_cell_angle_gamma 90.000000
_cell_volume 3139.790121
_symmetry_space_group_name_H-M "C 2/C"
_symmetry_group_IT_number 15
_symmetry_cell_setting 'monoclinic'
loop_
_space_group_symop_operation_xyz
x,y,z
-x,y,1/2-z
-x,-y,-z
x,-y,1/2+z
1/2+x,1/2+y,z
1/2-x,1/2+y,1/2-z
1/2-x,1/2-y,-z
1/2+x,1/2-y,1/2+z
loop_
_atom_site_type_symbol
_atom_site_label
_atom_site_fract_x
_atom_site_fract_y
_atom_site_fract_z
Si Si1 0.082878 0.669859 0.899902
Si Si2 0.786269 0.153551 0.555000
Si Si3 0.561695 0.064608 0.617604
Si Si4 0.774389 0.098202 0.732257
Si Si5 0.119232 0.852387 0.003832
Si Si6 0.558366 0.529826 0.139399
Si Si7 0.297584 0.026398 0.594331
Si Si8 0.000000 0.081734 0.750000
O O1 0.138006 0.760372 0.975617
O O2 0.156174 0.592275 0.932814
O O3 0.000000 0.688329 0.750000
O O4 0.018081 0.634880 0.918844
O O5 0.750000 0.250000 0.500000
O O6 0.784666 0.142395 0.652841
O O7 0.903157 0.139515 0.633549
O O8 0.723101 0.071031 0.458717
O O9 0.657247 0.100990 0.653248
O O10 0.619901 0.024013 0.753201
O O11 0.500000 0.000000 0.500000
O O12 0.823039 0.998493 0.769167
O O13 0.841493 0.147603 0.864607
O O14 0.997199 0.877333 0.891695
O O15 0.190328 0.928785 0.027186
O O16 0.532381 0.475423 0.199491
O O17 0.500000 0.500000 0.000000
#
# Coordination Sequence:
#
# PCOD9266429 Si02
#       8
#     8   8   8   8   8   8   8   4
#     4  10  22  36  59  93 126 160 205 245 303 379
#     4  11  23  42  62  89 119 162 211 252 309 367
#     4  10  21  41  59  84 122 165 204 245 304 372
#     4   9  21  39  57  87 125 152 204 259 294 364
#     4  10  19  37  64  93 124 159 196 257 314 365
#     4   9  18  35  62  89 121 157 196 254 313 358
#     4  10  21  40  64  89 123 160 203 258 311 364
#     4  10  20  40  62  90 122 156 204 264 302 372
#
# _framework density 19.109559000000001
#
# number of rings (size 3 to 8) (size 9 to 14) (size 15 to 20)
#    0.000    2.133    1.333    1.200    0.933    1.067 
#   13.200    4.000    0.000    0.000    0.000    0.000 
#    0.000    0.000    0.000    0.000    0.000    0.000 
#
# Total GULP energy -167186.753534 kJ/mol
# GULP energy per Si atom -5572.891784 kJ/mol
# Density = 1.906606 g / cm^3
# Si number density = 19.109559 Si / 1000 Ang^3
#
#
#
# Elastic Constant Matrix: (Units=GPa)
#
#
# Indices 1 2 3 4 5 6 
#
# 1 73.8429 18.2063 15.7226 0.0000 -12.8836 0.0000
# 2 18.2063 117.1193 49.1068 0.0000 -9.0441 0.0000
# 3 15.7226 49.1068 53.6076 0.0000 -3.0390 0.0000
# 4 0.0000 0.0000 0.0000 27.5282 0.0000 -1.8802
# 5 -12.8836 -9.0441 -3.0390 0.0000 22.5880 0.0000
# 6 0.0000 0.0000 0.0000 -1.8802 0.0000 16.0365
#
#
#
# Elastic Compliance Matrix: (Units=1/GPa)
#
#
# Indices 1 2 3 4 5 6 
#
# 1 0.015920 -0.000103 -0.004094 0.000000 0.008489 0.000000
# 2 -0.000103 0.014208 -0.012763 0.000000 0.003913 0.000000
# 3 -0.004094 -0.012763 0.031363 0.000000 -0.003226 0.000000
# 4 0.000000 0.000000 0.000000 0.036620 0.000000 0.004294
# 5 0.008489 0.003913 -0.003226 0.000000 0.050246 0.000000
# 6 0.000000 0.000000 0.000000 0.004294 0.000000 0.062861
#
#
# Mechanical properties :
#
#
# Convention : Reuss Voigt Hill
#
# Bulk Modulus (GPa) = 36.26854 45.62679 40.94766
# Shear Modulus (GPa) = 19.65966 23.99950 21.82958
#
# Velocity S-wave (km/s) = 3.21095 3.54770 3.38352
# Velocity P-wave (km/s) = 5.72428 6.38042 6.06124
#
# Compressibility (1/GPa) = 0.02757211
#
# Stress axis : x y z
#
# Youngs Moduli (GPa) = 62.81294 70.38372 31.88433
#
# Poissons Ratio (x) = 0.00724 0.13053
# Poissons Ratio (y) = 0.00646 0.40694
# Poissons Ratio (z) = 0.25715 0.89831
#
# Static dielectric constant tensor:
#      x y z
#    x 1.696560 0.000000 0.022860 
#    y 0.000000 1.683190 0.000000 
#    z 0.022860 0.000000 1.677900 
# 
# From -- ./inp_files/168662.got.cif
#   From: 2010.05.17/outbox.cif.g08.bks.cpg/sg15_85_cif.got.tgz:168662.got - 2010.06.03 18:47:42.
