data_PCOD9266020
_publ_section_title
;
Structure prediction by ZEFSAII (Michael W. Deem and Ramdas Pophale) SiO2 
 PCOD9266020
Probable space group: C 2/C
;
_chemical_formula_sum "Si O2"
_cell_formula_units_Z 56
_cell_length_a 19.961102
_cell_length_b 13.686749
_cell_length_c 21.250733
_cell_angle_alpha 90.000000
_cell_angle_beta 20.461264
_cell_angle_gamma 90.000000
_cell_volume 2029.541382
_symmetry_space_group_name_H-M "C 2/C"
_symmetry_group_IT_number 15
_symmetry_cell_setting 'monoclinic'
loop_
_space_group_symop_operation_xyz
x,y,z
-x,y,1/2-z
-x,-y,-z
x,-y,1/2+z
1/2+x,1/2+y,z
1/2-x,1/2+y,1/2-z
1/2-x,1/2-y,-z
1/2+x,1/2-y,1/2+z
loop_
_atom_site_type_symbol
_atom_site_label
_atom_site_fract_x
_atom_site_fract_y
_atom_site_fract_z
Si Si1 0.257026 0.894251 0.129592
Si Si2 0.221132 0.405661 0.249932
Si Si3 0.119110 0.106352 0.256280
Si Si4 0.000000 0.595137 0.250000
Si Si5 0.319072 0.085694 0.846212
Si Si6 0.830769 0.868466 0.651710
Si Si7 0.842757 0.205813 0.005214
Si Si8 0.000000 0.249093 0.250000
O O1 0.349973 0.883576 0.117509
O O2 0.363140 0.823193 0.988228
O O3 0.038992 0.852248 0.320588
O O4 0.239250 0.009784 0.133371
O O5 0.118536 0.371458 0.276626
O O6 0.245714 0.522559 0.222966
O O7 0.438785 0.367968 0.057506
O O8 0.907028 0.064278 0.460520
O O9 0.201938 0.158272 0.246243
O O10 0.076260 0.179321 0.237867
O O11 0.060998 0.511274 0.247490
O O12 0.182198 0.665430 0.099965
O O13 0.335808 0.165297 0.887718
O O14 0.775943 0.813662 0.636531
#
# Coordination Sequence:
#
# PCOD9266020 Si02
#       8
#     8   8   8   4   8   8   8   4
#     4  10  22  38  65  87 124 159 205 247 296 360
#     4   8  14  32  59  84 108 149 196 244 290 344
#     4  10  20  41  57  84 122 160 196 246 309 357
#     4  11  20  35  60  84 122 153 204 247 284 356
#     4  10  19  37  59  87 113 153 200 245 302 365
#     4   8  15  31  60  79 111 153 199 239 280 361
#     4  11  21  38  59  95 117 165 204 246 296 358
#     4  11  24  31  60  90 114 153 194 261 302 368
#
# _framework density 27.592441000000001
#
# number of rings (size 3 to 8) (size 9 to 14) (size 15 to 20)
#    0.000    2.286    2.857    2.143    2.000    1.143 
#    2.571    0.000    0.000    3.429    0.000    0.000 
#    0.000    0.000    0.000    0.000    0.000    0.000 
#
# Total GULP energy -156420.830834 kJ/mol
# GULP energy per Si atom -5586.458244 kJ/mol
# Density = 2.752964 g / cm^3
# Si number density = 27.592441 Si / 1000 Ang^3
#
#
#
# Elastic Constant Matrix: (Units=GPa)
#
#
# Indices 1 2 3 4 5 6 
#
# 1 171.2406 50.1426 35.8379 0.0008 1.4052 0.0043
# 2 50.1426 150.9388 32.0434 0.0355 14.8775 -0.0119
# 3 35.8379 32.0434 90.2720 0.0323 -18.7139 -0.0064
# 4 0.0008 0.0355 0.0323 16.8389 -0.0029 1.9131
# 5 1.4052 14.8775 -18.7139 -0.0029 31.5292 -0.0044
# 6 0.0043 -0.0119 -0.0064 1.9131 -0.0044 47.0978
#
#
#
# Elastic Compliance Matrix: (Units=1/GPa)
#
#
# Indices 1 2 3 4 5 6 
#
# 1 0.006822 -0.001697 -0.002284 0.000008 -0.000859 -0.000002
# 2 -0.001697 0.008564 -0.003636 -0.000012 -0.006124 0.000002
# 3 -0.002284 -0.003636 0.015567 -0.000021 0.011057 0.000003
# 4 0.000008 -0.000012 -0.000021 0.059662 -0.000002 -0.002423
# 5 -0.000859 -0.006124 0.011057 -0.000002 0.041207 0.000004
# 6 -0.000002 0.000002 0.000003 -0.002423 0.000004 0.021331
#
#
# Mechanical properties :
#
#
# Convention : Reuss Voigt Hill
#
# Bulk Modulus (GPa) = 63.61321 72.05544 67.83432
# Shear Modulus (GPa) = 28.79749 38.72169 33.75959
#
# Velocity S-wave (km/s) = 3.23410 3.75019 3.50166
# Velocity P-wave (km/s) = 6.08691 6.70244 6.40208
#
# Compressibility (1/GPa) = 0.01572001
#
# Stress axis : x y z
#
# Youngs Moduli (GPa) = 146.59323 116.76384 64.23740
#
# Poissons Ratio (x) = 0.19810 0.14672
# Poissons Ratio (y) = 0.24871 0.23356
# Poissons Ratio (z) = 0.33482 0.42455
#
# Static dielectric constant tensor:
#      x y z
#    x 2.166810 -0.000010 0.077860 
#    y -0.000010 2.104510 0.000020 
#    z 0.077860 0.000020 2.251880 
# 
# From -- ./inp_files/279999.got.cif
#   From: 2010.05.17/outbox.cif.g08.bks.cpg/sg15_140_cif.got.tgz:279999.got - 2010.06.03 18:47:42.
