data_PCOD9266730
_publ_section_title
;
Structure prediction by ZEFSAII (Michael W. Deem and Ramdas Pophale) SiO2 
 PCOD9266730
Probable space group: C 2/C
;
_chemical_formula_sum "Si O2"
_cell_formula_units_Z 48
_cell_length_a 19.455704
_cell_length_b 11.594585
_cell_length_c 19.891177
_cell_angle_alpha 90.000000
_cell_angle_beta 153.688461
_cell_angle_gamma 90.000000
_cell_volume 1988.900600
_symmetry_space_group_name_H-M "C 2/C"
_symmetry_group_IT_number 15
_symmetry_cell_setting 'monoclinic'
loop_
_space_group_symop_operation_xyz
x,y,z
-x,y,1/2-z
-x,-y,-z
x,-y,1/2+z
1/2+x,1/2+y,z
1/2-x,1/2+y,1/2-z
1/2-x,1/2-y,-z
1/2+x,1/2-y,1/2+z
loop_
_atom_site_type_symbol
_atom_site_label
_atom_site_fract_x
_atom_site_fract_y
_atom_site_fract_z
Si Si1 0.371160 0.415548 0.689597
Si Si2 0.093792 0.858060 0.527830
Si Si3 0.086569 0.121908 0.505163
Si Si4 0.098810 0.754933 0.254405
Si Si5 0.687687 0.909969 0.980307
Si Si6 0.185391 0.346931 0.406608
O O1 0.500000 0.463880 0.750000
O O2 0.460331 0.378602 0.833778
O O3 0.232215 0.503915 0.581314
O O4 0.292420 0.320405 0.570280
O O5 0.990545 0.814004 0.499669
O O6 0.994344 0.844468 0.372825
O O7 0.252974 0.791395 0.656357
O O8 0.122713 0.993164 0.562145
O O9 0.240205 0.163315 0.602577
O O10 0.176012 0.815014 0.387503
O O11 0.976580 0.651635 0.158192
O O12 0.300081 0.005824 0.567908
O O13 0.000000 0.334408 0.250000
#
# Coordination Sequence:
#
# PCOD9266730 Si02
#       6
#     8   8   8   8   8   8
#     4   8  16  34  59  81 117 153 196 246 308 355
#     4  10  21  37  61  83 123 162 199 250 301 377
#     4  10  19  38  60  83 117 165 200 241 318 367
#     4  10  20  39  60  94 122 160 206 254 313 371
#     4   9  19  37  65  89 127 155 205 260 311 367
#     4   9  19  37  62  89 120 158 204 259 308 362
#
# _framework density 24.133937
#
# number of rings (size 3 to 8) (size 9 to 14) (size 15 to 20)
#    1.000    1.667    1.667    0.000    0.000    1.333 
#    0.000   19.167    0.000    0.000    0.000    3.500 
#    0.000    0.000    0.000    0.000    0.000    0.000 
#
# Total GULP energy -133812.036844 kJ/mol
# GULP energy per Si atom -5575.501535 kJ/mol
# Density = 2.407901 g / cm^3
# Si number density = 24.133937 Si / 1000 Ang^3
#
#
#
# Elastic Constant Matrix: (Units=GPa)
#
#
# Indices 1 2 3 4 5 6 
#
# 1 137.1903 34.9374 34.5786 -0.0002 21.9183 0.0000
# 2 34.9374 87.8653 36.8629 -0.0003 28.8859 -0.0001
# 3 34.5786 36.8629 139.6653 -0.0003 23.3267 -0.0001
# 4 -0.0002 -0.0003 -0.0003 60.1136 -0.0001 3.5539
# 5 21.9183 28.8859 23.3267 -0.0001 41.1575 0.0000
# 6 0.0000 -0.0001 -0.0001 3.5539 0.0000 27.8995
#
#
#
# Elastic Compliance Matrix: (Units=1/GPa)
#
#
# Indices 1 2 3 4 5 6 
#
# 1 0.008498 -0.002111 -0.001147 0.000000 -0.002394 0.000000
# 2 -0.002111 0.016083 -0.002237 0.000000 -0.008896 0.000000
# 3 -0.001147 -0.002237 0.008472 0.000000 -0.002621 0.000000
# 4 0.000000 0.000000 0.000000 0.016761 0.000000 -0.002135
# 5 -0.002394 -0.008896 -0.002621 0.000000 0.033301 0.000000
# 6 0.000000 0.000000 0.000000 -0.002135 0.000000 0.036115
#
#
# Mechanical properties :
#
#
# Convention : Reuss Voigt Hill
#
# Bulk Modulus (GPa) = 45.32086 64.16431 54.74259
# Shear Modulus (GPa) = 36.34381 43.05692 39.70037
#
# Velocity S-wave (km/s) = 3.88483 4.22842 4.06026
# Velocity P-wave (km/s) = 6.24037 7.10520 6.68678
#
# Compressibility (1/GPa) = 0.02206489
#
# Stress axis : x y z
#
# Youngs Moduli (GPa) = 117.67045 62.17611 118.03522
#
# Poissons Ratio (x) = 0.13124 0.13539
# Poissons Ratio (y) = 0.24838 0.26399
# Poissons Ratio (z) = 0.13497 0.13906
#
# Static dielectric constant tensor:
#      x y z
#    x 1.904820 0.000000 -0.029760 
#    y 0.000000 2.265350 0.000000 
#    z -0.029760 0.000000 1.915210 
# 
# From -- ./inp_files/47945.got.cif
#   From: 2010.05.17/outbox.cif.g08.bks.cpg/sg15_24_cif.got.tgz:47945.got - 2010.06.03 18:47:42.
