data_PCOD9266941
_publ_section_title
;
Structure prediction by ZEFSAII (Michael W. Deem and Ramdas Pophale) SiO2 
 PCOD9266941
Probable space group: C 2/C
;
_chemical_formula_sum "Si O2"
_cell_formula_units_Z 56
_cell_length_a 14.741714
_cell_length_b 17.738916
_cell_length_c 14.491440
_cell_angle_alpha 90.000000
_cell_angle_beta 49.543494
_cell_angle_gamma 90.000000
_cell_volume 2883.456957
_symmetry_space_group_name_H-M "C 2/C"
_symmetry_group_IT_number 15
_symmetry_cell_setting 'monoclinic'
loop_
_space_group_symop_operation_xyz
x,y,z
-x,y,1/2-z
-x,-y,-z
x,-y,1/2+z
1/2+x,1/2+y,z
1/2-x,1/2+y,1/2-z
1/2-x,1/2-y,-z
1/2+x,1/2-y,1/2+z
loop_
_atom_site_type_symbol
_atom_site_label
_atom_site_fract_x
_atom_site_fract_y
_atom_site_fract_z
Si Si1 0.537689 0.116695 0.411823
Si Si2 0.595604 0.973157 0.043736
Si Si3 0.513962 0.453490 0.843754
Si Si4 0.689387 0.215856 0.949068
Si Si5 0.285547 0.567471 0.794443
Si Si6 0.757671 0.976523 0.103653
Si Si7 0.291093 0.632237 0.165025
O O1 0.539690 0.092787 0.518394
O O2 0.437215 0.175895 0.451226
O O3 0.668639 0.142691 0.300619
O O4 0.502099 0.039083 0.383340
O O5 0.655607 0.951838 0.100095
O O6 0.701325 0.011976 0.911629
O O7 0.500000 0.423234 0.750000
O O8 0.580523 0.534565 0.790712
O O9 0.606372 0.404461 0.841040
O O10 0.387412 0.456986 0.976928
O O11 0.767498 0.150438 0.847887
O O12 0.669998 0.288232 0.898719
O O13 0.750000 0.250000 0.000000
O O14 0.247270 0.558226 0.712828
O O15 0.759518 0.067801 0.110512
#
# Coordination Sequence:
#
# PCOD9266941 Si02
#       7
#     8   8   8   8   8   8   8
#     4  10  21  40  60  88 126 168 203 267 307 382
#     4  10  19  38  63  89 124 155 220 264 310 365
#     4  11  21  38  66  90 125 169 213 269 318 371
#     4  11  26  42  59  89 132 169 205 257 334 388
#     4  10  20  40  60  95 124 165 219 263 311 387
#     4  11  21  37  65  96 121 168 217 268 318 370
#     4  11  22  40  59  92 127 161 211 257 320 381
#
# _framework density 19.421133000000001
#
# number of rings (size 3 to 8) (size 9 to 14) (size 15 to 20)
#    0.000    1.429    4.286    3.429    0.000    4.571 
#    0.000    1.429    0.000    3.429    0.000    0.000 
#    0.000    0.000    0.000    0.000    0.000    0.000 
#
# Total GULP energy -156409.325370 kJ/mol
# GULP energy per Si atom -5586.047335 kJ/mol
# Density = 1.937693 g / cm^3
# Si number density = 19.421133 Si / 1000 Ang^3
#
#
#
# Elastic Constant Matrix: (Units=GPa)
#
#
# Indices 1 2 3 4 5 6 
#
# 1 126.5314 34.2117 15.6676 0.0000 10.4747 0.0000
# 2 34.2117 93.6879 23.4703 0.0000 0.5907 0.0000
# 3 15.6676 23.4703 54.9996 0.0000 6.2416 0.0000
# 4 0.0000 0.0000 0.0000 19.5705 0.0000 -5.1597
# 5 10.4747 0.5907 6.2416 0.0000 31.4277 0.0000
# 6 0.0000 0.0000 0.0000 -5.1597 0.0000 19.5086
#
#
#
# Elastic Compliance Matrix: (Units=1/GPa)
#
#
# Indices 1 2 3 4 5 6 
#
# 1 0.009079 -0.003055 -0.000967 0.000000 -0.002776 0.000000
# 2 -0.003055 0.013000 -0.004875 0.000000 0.001742 0.000000
# 3 -0.000967 -0.004875 0.020963 0.000000 -0.003749 0.000000
# 4 0.000000 0.000000 0.000000 0.054927 0.000000 0.014527
# 5 -0.002776 0.001742 -0.003749 0.000000 0.033456 0.000000
# 6 0.000000 0.000000 0.000000 0.014527 0.000000 0.055102
#
#
# Mechanical properties :
#
#
# Convention : Reuss Voigt Hill
#
# Bulk Modulus (GPa) = 39.60907 46.87980 43.24443
# Shear Modulus (GPa) = 23.50311 27.55933 25.53122
#
# Velocity S-wave (km/s) = 3.48254 3.77110 3.62969
# Velocity P-wave (km/s) = 6.05061 6.56906 6.31516
#
# Compressibility (1/GPa) = 0.02524674
#
# Stress axis : x y z
#
# Youngs Moduli (GPa) = 110.14502 76.92474 47.70263
#
# Poissons Ratio (x) = 0.23504 0.04614
# Poissons Ratio (y) = 0.33655 0.23254
# Poissons Ratio (z) = 0.10655 0.37499
#
# Static dielectric constant tensor:
#      x y z
#    x 1.703770 0.000000 -0.000240 
#    y 0.000000 1.658610 0.000000 
#    z -0.000240 0.000000 1.728320 
# 
# From -- ./inp_files/155125.got.cif
#   From: 2010.05.17/outbox.cif.g08.bks.cpg/sg15_78_cif.got.tgz:155125.got - 2010.06.03 18:47:42.
