data_PCOD9266553
_publ_section_title
;
Structure prediction by ZEFSAII (Michael W. Deem and Ramdas Pophale) SiO2 
 PCOD9266553
Probable space group: C 2/C
;
_chemical_formula_sum "Si O2"
_cell_formula_units_Z 52
_cell_length_a 13.351889
_cell_length_b 11.940766
_cell_length_c 21.309727
_cell_angle_alpha 90.000000
_cell_angle_beta 36.026482
_cell_angle_gamma 90.000000
_cell_volume 1998.239866
_symmetry_space_group_name_H-M "C 2/C"
_symmetry_group_IT_number 15
_symmetry_cell_setting 'monoclinic'
loop_
_space_group_symop_operation_xyz
x,y,z
-x,y,1/2-z
-x,-y,-z
x,-y,1/2+z
1/2+x,1/2+y,z
1/2-x,1/2+y,1/2-z
1/2-x,1/2-y,-z
1/2+x,1/2-y,1/2+z
loop_
_atom_site_type_symbol
_atom_site_label
_atom_site_fract_x
_atom_site_fract_y
_atom_site_fract_z
Si Si1 0.771824 0.200262 0.108933
Si Si2 0.692328 0.802992 0.961895
Si Si3 0.481851 0.144554 0.156633
Si Si4 0.596124 0.088534 0.832804
Si Si5 0.500000 0.826138 0.250000
Si Si6 0.168040 0.047443 0.622833
Si Si7 0.516343 0.381842 0.402874
O O1 0.637268 0.144905 0.126908
O O2 0.687706 0.168300 0.217487
O O3 0.746901 0.333857 0.105883
O O4 0.945824 0.128518 0.009310
O O5 0.819389 0.740310 0.848577
O O6 0.733313 0.931655 0.924190
O O7 0.750000 0.750000 0.000000
O O8 0.487899 0.818194 0.078884
O O9 0.511550 0.252551 0.100341
O O10 0.454369 0.038301 0.126473
O O11 0.512129 0.104297 0.806986
O O12 0.794732 0.092262 0.716035
O O13 0.000000 0.036533 0.750000
O O14 0.105968 0.052593 0.582276
#
# Coordination Sequence:
#
# PCOD9266553 Si02
#       7
#     8   8   8   8   4   8   8
#     4  10  19  37  67  90 120 161 202 259 307 367
#     4  10  22  40  63  86 121 169 205 244 298 377
#     4  10  20  40  60  89 124 157 206 252 311 365
#     4  11  24  39  61  89 123 164 201 257 308 364
#     4  10  22  42  60  82 120 166 210 240 308 374
#     4  11  19  40  67  89 120 163 204 251 312 359
#     4  11  23  37  60  97 123 155 207 258 306 362
#
# _framework density 26.022901999999998
#
# number of rings (size 3 to 8) (size 9 to 14) (size 15 to 20)
#    0.000    1.538    3.846    4.615    0.000    5.538 
#    0.000    0.769    0.000    0.000    0.000    0.000 
#    0.000    0.000    0.000    0.000    0.000    0.000 
#
# Total GULP energy -145080.152024 kJ/mol
# GULP energy per Si atom -5580.005847 kJ/mol
# Density = 2.596367 g / cm^3
# Si number density = 26.022902 Si / 1000 Ang^3
#
#
#
# Elastic Constant Matrix: (Units=GPa)
#
#
# Indices 1 2 3 4 5 6 
#
# 1 37.4314 1.4687 -6.3870 0.0000 -9.7064 0.0000
# 2 1.4687 68.3630 -0.1191 0.0000 -4.1160 0.0000
# 3 -6.3870 -0.1191 110.2003 -0.0003 -10.0207 0.0000
# 4 0.0000 0.0000 -0.0003 41.7253 0.0001 2.2782
# 5 -9.7064 -4.1160 -10.0207 0.0001 32.7563 0.0000
# 6 0.0000 0.0000 0.0000 2.2782 0.0000 -11.9117
#
#
#
# Elastic Compliance Matrix: (Units=1/GPa)
#
#
# Indices 1 2 3 4 5 6 
#
# 1 0.029640 -0.000056 0.002588 0.000000 0.009568 0.000000
# 2 -0.000056 0.014743 0.000185 0.000000 0.001892 0.000000
# 3 0.002588 0.000185 0.009562 0.000000 0.003715 0.000000
# 4 0.000000 0.000000 0.000000 0.023719 0.000000 0.004536
# 5 0.009568 0.001892 0.003715 0.000000 0.034738 0.000000
# 6 0.000000 0.000000 0.000000 0.004536 0.000000 -0.083083
#
#
# Mechanical properties :
#
#
# Convention : Reuss Voigt Hill
#
# Bulk Modulus (GPa) = 16.84103 22.87998 19.86051
# Shear Modulus (GPa) = 114.47030 27.24945 70.85988
#
# Velocity S-wave (km/s) = 6.63956 3.23945 5.22388
# Velocity P-wave (km/s) = 8.07862 4.77529 6.63579
#
# Compressibility (1/GPa) = 0.05937879
#
# Stress axis : x y z
#
# Youngs Moduli (GPa) = 33.73780 67.82757 104.57609
#
# Poissons Ratio (x) = 0.00381 -0.27063
# Poissons Ratio (y) = 0.00190 -0.01932
# Poissons Ratio (z) = -0.08731 -0.01253
#
# Static dielectric constant tensor:
#      x y z
#    x 2.137720 0.000000 -0.006940 
#    y 0.000000 2.004140 0.000000 
#    z -0.006940 0.000000 2.217320 
# 
# From -- ./inp_files/298866.got.cif
#   From: 2010.05.17/outbox.cif.g08.bks.cpg/sg15_150_cif.got.tgz:298866.got - 2010.06.03 18:47:42.
