data_PCOD9266637
_publ_section_title
;
Structure prediction by ZEFSAII (Michael W. Deem and Ramdas Pophale) SiO2 
 PCOD9266637
Probable space group: C 2/C
;
_chemical_formula_sum "Si O2"
_cell_formula_units_Z 48
_cell_length_a 12.759819
_cell_length_b 15.205539
_cell_length_c 20.766715
_cell_angle_alpha 90.000000
_cell_angle_beta 39.060354
_cell_angle_gamma 90.000000
_cell_volume 2538.927310
_symmetry_space_group_name_H-M "C 2/C"
_symmetry_group_IT_number 15
_symmetry_cell_setting 'monoclinic'
loop_
_space_group_symop_operation_xyz
x,y,z
-x,y,1/2-z
-x,-y,-z
x,-y,1/2+z
1/2+x,1/2+y,z
1/2-x,1/2+y,1/2-z
1/2-x,1/2-y,-z
1/2+x,1/2-y,1/2+z
loop_
_atom_site_type_symbol
_atom_site_label
_atom_site_fract_x
_atom_site_fract_y
_atom_site_fract_z
Si Si1 0.380846 0.793335 0.124258
Si Si2 0.841883 0.263119 0.289448
Si Si3 0.553335 0.516505 0.074396
Si Si4 0.668178 0.540007 0.712252
Si Si5 0.007668 0.143514 0.516437
Si Si6 0.790473 0.599575 0.067277
O O1 0.382674 0.750865 0.194597
O O2 0.230222 0.861483 0.191560
O O3 0.384582 0.721968 0.065525
O O4 0.545826 0.852292 0.035815
O O5 0.670036 0.317454 0.376334
O O6 0.810031 0.173579 0.344490
O O7 0.000000 0.306902 0.250000
O O8 0.384286 0.504494 0.195822
O O9 0.591150 0.417763 0.030847
O O10 0.688531 0.560713 0.055995
O O11 0.529790 0.579156 0.025202
O O12 0.500000 0.538471 0.750000
O O13 0.803855 0.481481 0.610416
#
# Coordination Sequence:
#
# PCOD9266637 Si02
#       6
#     8   8   8   8   8   8
#     4  11  21  36  57  86 118 142 194 238 279 333
#     4  11  20  34  57  89 115 145 189 241 282 332
#     4  10  19  38  57  81 111 154 183 231 290 342
#     4  10  20  37  59  79 112 155 191 226 283 344
#     4  10  21  34  58  82 116 150 186 233 289 332
#     4  10  21  35  59  84 112 150 191 231 286 336
#
# _framework density 18.905622000000001
#
# number of rings (size 3 to 8) (size 9 to 14) (size 15 to 20)
#    0.000    1.667    1.667    5.000    0.000    2.667 
#    0.000    3.333    7.333    0.000    0.000    0.000 
#    0.000    0.000    0.000    0.000    0.000    0.000 
#
# Total GULP energy -133869.119992 kJ/mol
# GULP energy per Si atom -5577.880000 kJ/mol
# Density = 1.886259 g / cm^3
# Si number density = 18.905622 Si / 1000 Ang^3
#
#
#
# Elastic Constant Matrix: (Units=GPa)
#
#
# Indices 1 2 3 4 5 6 
#
# 1 42.6669 37.2745 27.2026 0.0000 18.7565 0.0000
# 2 37.2745 98.0498 27.8751 -0.0001 6.2898 0.0000
# 3 27.2026 27.8751 90.8983 -0.0007 15.5753 0.0001
# 4 0.0000 -0.0001 -0.0007 26.2442 0.0001 12.1035
# 5 18.7565 6.2898 15.5753 0.0001 24.2916 0.0000
# 6 0.0000 0.0000 0.0001 12.1035 0.0000 40.5485
#
#
#
# Elastic Compliance Matrix: (Units=1/GPa)
#
#
# Indices 1 2 3 4 5 6 
#
# 1 0.060235 -0.018830 -0.005749 0.000000 -0.037948 0.000000
# 2 -0.018830 0.017073 -0.001499 0.000000 0.011080 0.000000
# 3 -0.005749 -0.001499 0.013879 0.000000 -0.004072 0.000000
# 4 0.000000 0.000000 0.000000 0.044187 0.000000 -0.013189
# 5 -0.037948 0.011080 -0.004072 0.000000 0.070209 0.000000
# 6 0.000000 0.000000 0.000000 -0.013189 0.000000 0.028599
#
#
# Mechanical properties :
#
#
# Convention : Reuss Voigt Hill
#
# Bulk Modulus (GPa) = 25.62112 46.25769 35.93941
# Shear Modulus (GPa) = 16.70293 27.50104 22.10198
#
# Velocity S-wave (km/s) = 2.97558 3.81812 3.42287
# Velocity P-wave (km/s) = 5.03855 6.63010 5.88834
#
# Compressibility (1/GPa) = 0.03903030
#
# Stress axis : x y z
#
# Youngs Moduli (GPa) = 16.60158 58.57310 72.05011
#
# Poissons Ratio (x) = 1.10294 0.41425
# Poissons Ratio (y) = 0.31261 0.10800
# Poissons Ratio (z) = 0.09545 0.08780
#
# Static dielectric constant tensor:
#      x y z
#    x 1.646290 0.000000 0.015920 
#    y 0.000000 1.678740 0.000000 
#    z 0.015920 0.000000 1.680150 
# 
# From -- ./inp_files/96286.got.cif
#   From: 2010.05.17/outbox.cif.g08.bks.cpg/sg15_49_cif.got.tgz:96286.got - 2010.06.03 18:47:42.
