data_PCOD9266512
_publ_section_title
;
Structure prediction by ZEFSAII (Michael W. Deem and Ramdas Pophale) SiO2 
 PCOD9266512
Probable space group: C 2/C
;
_chemical_formula_sum "Si O2"
_cell_formula_units_Z 56
_cell_length_a 27.101470
_cell_length_b 8.650275
_cell_length_c 20.151126
_cell_angle_alpha 90.000000
_cell_angle_beta 36.112364
_cell_angle_gamma 90.000000
_cell_volume 2784.265356
_symmetry_space_group_name_H-M "C 2/C"
_symmetry_group_IT_number 15
_symmetry_cell_setting 'monoclinic'
loop_
_space_group_symop_operation_xyz
x,y,z
-x,y,1/2-z
-x,-y,-z
x,-y,1/2+z
1/2+x,1/2+y,z
1/2-x,1/2+y,1/2-z
1/2-x,1/2-y,-z
1/2+x,1/2-y,1/2+z
loop_
_atom_site_type_symbol
_atom_site_label
_atom_site_fract_x
_atom_site_fract_y
_atom_site_fract_z
Si Si1 0.761861 0.073264 0.668976
Si Si2 0.340070 0.722971 0.127777
Si Si3 0.933617 0.262924 0.490315
Si Si4 0.596389 0.454984 0.812963
Si Si5 0.180456 0.265226 0.130897
Si Si6 0.531502 0.796397 0.899823
Si Si7 0.475953 0.028319 0.706128
O O1 0.707413 0.127933 0.791732
O O2 0.846929 0.173559 0.580366
O O3 0.714444 0.132985 0.655363
O O4 0.784266 0.891533 0.643676
O O5 0.359492 0.611562 0.169509
O O6 0.431361 0.768550 0.001962
O O7 0.946625 0.343217 0.548168
O O8 0.008300 0.136811 0.405561
O O9 0.949712 0.380348 0.412653
O O10 0.652441 0.399899 0.690895
O O11 0.577388 0.633647 0.839563
O O12 0.096243 0.348782 0.198411
O O13 0.250000 0.250000 0.000000
O O14 0.556582 0.913707 0.815323
O O15 0.500000 0.953035 0.750000
#
# Coordination Sequence:
#
# PCOD9266512 Si02
#       7
#     8   8   8   8   8   8   8
#     4  11  21  34  61  92 119 149 190 247 304 348
#     4  10  21  34  56  92 123 143 189 244 305 349
#     4  10  19  37  66  87 117 159 194 244 298 355
#     4   9  18  39  62  86 116 152 195 243 287 358
#     4  10  23  42  59  84 117 159 202 240 292 364
#     4  11  20  40  61  90 120 153 201 250 296 350
#     4  11  25  41  59  85 121 163 206 242 288 361
#
# _framework density 20.113025
#
# number of rings (size 3 to 8) (size 9 to 14) (size 15 to 20)
#    0.000    1.714    2.857    3.000    4.000    0.000 
#    2.571    1.429    0.000    0.000    0.000    0.000 
#    0.000    0.000    0.000    0.000    0.000    0.000 
#
# Total GULP energy -156423.308701 kJ/mol
# GULP energy per Si atom -5586.546739 kJ/mol
# Density = 2.006725 g / cm^3
# Si number density = 20.113025 Si / 1000 Ang^3
#
#
#
# Elastic Constant Matrix: (Units=GPa)
#
#
# Indices 1 2 3 4 5 6 
#
# 1 53.7908 2.4120 19.2290 0.0005 9.0896 -0.0007
# 2 2.4120 50.1413 31.9473 0.0003 8.4118 -0.0015
# 3 19.2290 31.9473 117.2052 0.0008 8.0865 -0.0005
# 4 0.0005 0.0003 0.0008 20.6770 -0.0011 -6.0670
# 5 9.0896 8.4118 8.0865 -0.0011 31.0818 0.0010
# 6 -0.0007 -0.0015 -0.0005 -6.0670 0.0010 25.8332
#
#
#
# Elastic Compliance Matrix: (Units=1/GPa)
#
#
# Indices 1 2 3 4 5 6 
#
# 1 0.020756 0.002278 -0.003630 0.000000 -0.005742 0.000001
# 2 0.002278 0.025144 -0.006834 0.000000 -0.005693 0.000002
# 3 -0.003630 -0.006834 0.010987 0.000000 0.000053 0.000000
# 4 0.000000 0.000000 0.000000 0.051942 0.000002 0.012199
# 5 -0.005742 -0.005693 0.000053 0.000002 0.035379 -0.000001
# 6 0.000001 0.000002 0.000000 0.012199 -0.000001 0.041575
#
#
# Mechanical properties :
#
#
# Convention : Reuss Voigt Hill
#
# Bulk Modulus (GPa) = 24.68329 36.47932 30.58131
# Shear Modulus (GPa) = 23.18451 26.68832 24.93641
#
# Velocity S-wave (km/s) = 3.39884 3.64664 3.52492
# Velocity P-wave (km/s) = 5.26325 5.99226 5.63955
#
# Compressibility (1/GPa) = 0.04051324
#
# Stress axis : x y z
#
# Youngs Moduli (GPa) = 48.17803 39.77150 91.01781
#
# Poissons Ratio (x) = -0.09059 0.33040
# Poissons Ratio (y) = -0.10973 0.62206
# Poissons Ratio (z) = 0.17489 0.27182
#
# Static dielectric constant tensor:
#      x y z
#    x 1.734850 0.000000 -0.006860 
#    y 0.000000 1.716720 0.000000 
#    z -0.006860 0.000000 1.705260 
# 
# From -- ./inp_files/222002.got.cif
#   From: 2010.05.17/outbox.cif.g08.bks.cpg/sg15_112_cif.got.tgz:222002.got - 2010.06.03 18:47:42.
