data_PCOD9266834
_publ_section_title
;
Structure prediction by ZEFSAII (Michael W. Deem and Ramdas Pophale) SiO2 
 PCOD9266834
Probable space group: C 2/C
;
_chemical_formula_sum "Si O2"
_cell_formula_units_Z 40
_cell_length_a 14.594197
_cell_length_b 21.283186
_cell_length_c 8.516125
_cell_angle_alpha 90.000000
_cell_angle_beta 37.170642
_cell_angle_gamma 90.000000
_cell_volume 1598.207083
_symmetry_space_group_name_H-M "C 2/C"
_symmetry_group_IT_number 15
_symmetry_cell_setting 'monoclinic'
loop_
_space_group_symop_operation_xyz
x,y,z
-x,y,1/2-z
-x,-y,-z
x,-y,1/2+z
1/2+x,1/2+y,z
1/2-x,1/2+y,1/2-z
1/2-x,1/2-y,-z
1/2+x,1/2-y,1/2+z
loop_
_atom_site_type_symbol
_atom_site_label
_atom_site_fract_x
_atom_site_fract_y
_atom_site_fract_z
Si Si1 0.842949 0.406784 0.413476
Si Si2 0.500000 0.877459 0.750000
Si Si3 0.500000 0.573951 0.750000
Si Si4 0.245906 0.722935 0.826210
Si Si5 0.816319 0.527860 0.282189
Si Si6 0.925493 0.170681 0.130394
O O1 0.869598 0.457150 0.239876
O O2 0.815880 0.451045 0.602877
O O3 0.694139 0.364911 0.593533
O O4 0.000000 0.372327 0.250000
O O5 0.622351 0.832884 0.496422
O O6 0.598182 0.920635 0.730458
O O7 0.644325 0.530948 0.575633
O O8 0.527135 0.619454 0.565553
O O9 0.178575 0.777207 0.810352
O O10 0.414615 0.702397 0.544766
O O11 0.250000 0.750000 0.000000
#
# Coordination Sequence:
#
# PCOD9266834 Si02
#       6
#     8   4   4   8   8   8
#     4  11  25  46  67  99 139 184 228 281 344 408
#     4  12  21  36  72 104 132 171 238 274 334 404
#     4  10  19  38  62 104 132 165 226 288 344 378
#     4  12  19  37  64 102 133 172 230 283 326 400
#     4  11  24  41  70 100 137 177 230 282 341 410
#     4  11  22  36  66  97 137 174 225 286 333 394
#
# _framework density 25.028044000000001
#
# number of rings (size 3 to 8) (size 9 to 14) (size 15 to 20)
#    0.000    0.800    7.000    1.800    0.000    3.200 
#    0.000    1.000    0.000    0.000    0.000    0.000 
#    0.000    0.000    0.000    0.000    0.000    0.000 
#
# Total GULP energy -112071.108519 kJ/mol
# GULP energy per Si atom -5603.555426 kJ/mol
# Density = 2.497108 g / cm^3
# Si number density = 25.028044 Si / 1000 Ang^3
#
#
#
# Elastic Constant Matrix: (Units=GPa)
#
#
# Indices 1 2 3 4 5 6 
#
# 1 70.8174 11.5295 13.0233 0.0000 -12.6716 0.0000
# 2 11.5295 60.6559 20.7118 0.0000 -6.8259 0.0000
# 3 13.0233 20.7118 133.8582 0.0000 -35.5797 0.0000
# 4 0.0000 0.0000 0.0000 57.6338 0.0000 -23.8624
# 5 -12.6716 -6.8259 -35.5797 0.0000 47.3228 0.0000
# 6 0.0000 0.0000 0.0000 -23.8624 0.0000 16.6001
#
#
#
# Elastic Compliance Matrix: (Units=1/GPa)
#
#
# Indices 1 2 3 4 5 6 
#
# 1 0.015189 -0.002432 -0.000142 0.000000 0.003610 0.000000
# 2 -0.002432 0.017810 -0.002511 0.000000 0.000030 0.000000
# 3 -0.000142 -0.002511 0.009706 0.000000 0.006897 0.000000
# 4 0.000000 0.000000 0.000000 0.042860 0.000000 0.061610
# 5 0.003610 0.000030 0.006897 0.000000 0.027288 0.000000
# 6 0.000000 0.000000 0.000000 0.061610 0.000000 0.148805
#
#
# Mechanical properties :
#
#
# Convention : Reuss Voigt Hill
#
# Bulk Modulus (GPa) = 30.73743 39.54005 35.13874
# Shear Modulus (GPa) = 17.68829 38.98247 28.33538
#
# Velocity S-wave (km/s) = 2.66134 3.95086 3.36839
# Velocity P-wave (km/s) = 4.66385 6.05351 5.40354
#
# Compressibility (1/GPa) = 0.03253363
#
# Stress axis : x y z
#
# Youngs Moduli (GPa) = 65.83798 56.14951 103.02575
#
# Poissons Ratio (x) = 0.13658 0.01463
# Poissons Ratio (y) = 0.16015 0.25871
# Poissons Ratio (z) = 0.00935 0.14100
#
# Static dielectric constant tensor:
#      x y z
#    x 1.864720 0.000000 -0.285260 
#    y 0.000000 1.925170 0.000000 
#    z -0.285260 0.000000 1.410210 
# 
# From -- ./inp_files/107451.got.cif
#   From: 2010.05.17/outbox.cif.g08.bks.cpg/sg15_54_cif.got.tgz:107451.got - 2010.06.03 18:47:42.
