data_PCOD9266460
_publ_section_title
;
Structure prediction by ZEFSAII (Michael W. Deem and Ramdas Pophale) SiO2 
 PCOD9266460
Probable space group: C 2/C
;
_chemical_formula_sum "Si O2"
_cell_formula_units_Z 56
_cell_length_a 9.753928
_cell_length_b 12.012122
_cell_length_c 20.921701
_cell_angle_alpha 90.000000
_cell_angle_beta 119.553963
_cell_angle_gamma 90.000000
_cell_volume 2132.364153
_symmetry_space_group_name_H-M "C 2/C"
_symmetry_group_IT_number 15
_symmetry_cell_setting 'monoclinic'
loop_
_space_group_symop_operation_xyz
x,y,z
-x,y,1/2-z
-x,-y,-z
x,-y,1/2+z
1/2+x,1/2+y,z
1/2-x,1/2+y,1/2-z
1/2-x,1/2-y,-z
1/2+x,1/2-y,1/2+z
loop_
_atom_site_type_symbol
_atom_site_label
_atom_site_fract_x
_atom_site_fract_y
_atom_site_fract_z
Si Si1 0.679217 0.681208 0.311768
Si Si2 0.071756 0.682089 0.893170
Si Si3 0.406223 0.590103 0.517307
Si Si4 0.428858 0.933725 0.622731
Si Si5 0.269886 0.780461 0.692916
Si Si6 0.002376 0.658817 0.490914
Si Si7 0.685754 0.563075 0.868863
O O1 0.500000 0.715553 0.250000
O O2 0.702605 0.765388 0.376834
O O3 0.779887 0.692103 0.269950
O O4 0.664250 0.555607 0.332776
O O5 0.022032 0.561128 0.853098
O O6 0.920174 0.765794 0.862984
O O7 0.119870 0.660016 0.978075
O O8 0.500000 0.500000 0.500000
O O9 0.231025 0.563606 0.454727
O O10 0.434883 0.717289 0.505870
O O11 0.431179 0.576810 0.598461
O O12 0.367257 0.865807 0.670521
O O13 0.536115 0.881346 0.589974
O O14 0.331563 0.659712 0.686781
O O15 0.144072 0.587952 0.557752
#
# Coordination Sequence:
#
# PCOD9266460 Si02
#       7
#     8   8   8   8   8   8   8
#     4  10  23  39  61  84 122 163 204 252 300 356
#     4  10  21  37  62  90 118 155 205 244 305 364
#     4  11  20  35  63  92 123 158 195 250 317 373
#     4  11  20  38  63  91 119 162 194 248 315 367
#     4  10  21  40  62  85 122 160 207 251 302 361
#     4  10  19  40  60  92 125 151 198 255 309 369
#     4  10  19  37  65  84 119 164 197 246 313 358
#
# _framework density 26.261931000000001
#
# number of rings (size 3 to 8) (size 9 to 14) (size 15 to 20)
#    0.000    1.714    4.286    2.143    4.000    0.000 
#    0.000    9.286    6.286    0.000    0.000    0.000 
#    0.000    0.000    0.000    0.000    0.000    0.000 
#
# Total GULP energy -156584.911500 kJ/mol
# GULP energy per Si atom -5592.318268 kJ/mol
# Density = 2.620216 g / cm^3
# Si number density = 26.261931 Si / 1000 Ang^3
#
#
#
# Elastic Constant Matrix: (Units=GPa)
#
#
# Indices 1 2 3 4 5 6 
#
# 1 107.0037 50.8974 50.1101 0.0000 -62.9026 0.0000
# 2 50.8974 164.9657 72.4392 0.0000 -60.6267 0.0000
# 3 50.1101 72.4392 172.2578 0.0000 -66.2388 0.0000
# 4 0.0000 0.0000 0.0000 37.3260 0.0000 -18.1970
# 5 -62.9026 -60.6267 -66.2388 0.0000 79.9406 0.0000
# 6 0.0000 0.0000 0.0000 -18.1970 0.0000 45.5452
#
#
#
# Elastic Compliance Matrix: (Units=1/GPa)
#
#
# Indices 1 2 3 4 5 6 
#
# 1 0.017433 -0.000543 0.000401 0.000000 0.013639 0.000000
# 2 -0.000543 0.008729 -0.001661 0.000000 0.004817 0.000000
# 3 0.000401 -0.001661 0.008841 0.000000 0.006382 0.000000
# 4 0.000000 0.000000 0.000000 0.033272 0.000000 0.013293
# 5 0.013639 0.004817 0.006382 0.000000 0.032182 0.000000
# 6 0.000000 0.000000 0.000000 0.013293 0.000000 0.027267
#
#
# Mechanical properties :
#
#
# Convention : Reuss Voigt Hill
#
# Bulk Modulus (GPa) = 31.84803 87.90229 59.87516
# Shear Modulus (GPa) = 35.26238 50.61438 42.93838
#
# Velocity S-wave (km/s) = 3.66829 4.39485 4.04791
# Velocity P-wave (km/s) = 5.48591 7.70046 6.68551
#
# Compressibility (1/GPa) = 0.03139911
#
# Stress axis : x y z
#
# Youngs Moduli (GPa) = 57.36205 114.56412 113.11062
#
# Poissons Ratio (x) = 0.06216 -0.04540
# Poissons Ratio (y) = 0.03113 0.18783
# Poissons Ratio (z) = -0.02302 0.19024
#
# Static dielectric constant tensor:
#      x y z
#    x 2.056560 0.000000 -0.031890 
#    y 0.000000 1.988990 0.000000 
#    z -0.031890 0.000000 2.107980 
# 
# From -- ./inp_files/237614.got.cif
#   From: 2010.05.17/outbox.cif.g08.bks.cpg/sg15_119_cif.got.tgz:237614.got - 2010.06.03 18:47:42.
