data_PCOD9266354
_publ_section_title
;
Structure prediction by ZEFSAII (Michael W. Deem and Ramdas Pophale) SiO2 
 PCOD9266354
Probable space group: C 2/C
;
_chemical_formula_sum "Si O2"
_cell_formula_units_Z 60
_cell_length_a 22.498744
_cell_length_b 7.678489
_cell_length_c 13.681821
_cell_angle_alpha 90.000000
_cell_angle_beta 87.330499
_cell_angle_gamma 90.000000
_cell_volume 2361.056589
_symmetry_space_group_name_H-M "C 2/C"
_symmetry_group_IT_number 15
_symmetry_cell_setting 'monoclinic'
loop_
_space_group_symop_operation_xyz
x,y,z
-x,y,1/2-z
-x,-y,-z
x,-y,1/2+z
1/2+x,1/2+y,z
1/2-x,1/2+y,1/2-z
1/2-x,1/2-y,-z
1/2+x,1/2-y,1/2+z
loop_
_atom_site_type_symbol
_atom_site_label
_atom_site_fract_x
_atom_site_fract_y
_atom_site_fract_z
Si Si1 0.832601 0.068936 0.853616
Si Si2 0.379554 0.229086 0.783364
Si Si3 0.182795 0.067713 0.934073
Si Si4 0.372889 0.100358 0.991331
Si Si5 0.444056 0.590497 0.119128
Si Si6 0.000000 0.500000 0.000000
Si Si7 0.036313 0.202335 0.599214
Si Si8 0.698817 0.934601 0.662017
O O1 0.901004 0.133696 0.866415
O O2 0.799508 0.234048 0.811750
O O3 0.836369 0.896594 0.788850
O O4 0.805824 0.013237 0.959377
O O5 0.396009 0.217253 0.896913
O O6 0.432179 0.276733 0.707197
O O7 0.342080 0.055244 0.765877
O O8 0.238755 0.021274 0.864921
O O9 0.119940 0.985649 0.906505
O O10 0.170518 0.272918 0.946592
O O11 0.335984 0.949108 0.940827
O O12 0.431817 0.044054 0.040056
O O13 0.486050 0.428271 0.140774
O O14 0.469640 0.686205 0.020597
O O15 0.026847 0.592321 0.102467
#
# Coordination Sequence:
#
# PCOD9266354 Si02
#       8
#     8   8   8   8   8   4   8   8
#     4  10  20  38  61  91 117 161 210 258 312 379
#     4   9  22  40  58  88 128 164 199 261 332 373
#     4  10  19  37  63  90 120 168 213 258 312 378
#     4   9  20  35  64  89 122 162 207 264 315 379
#     4  10  21  39  59  86 120 167 201 259 320 379
#     4  12  18  40  62  94 116 152 216 272 306 390
#     4  10  21  37  64  84 116 155 215 259 307 379
#     4  10  20  38  62  89 126 159 213 255 312 384
#
# _framework density 25.412354000000001
#
# number of rings (size 3 to 8) (size 9 to 14) (size 15 to 20)
#    0.800    1.333    2.667    0.800    1.867    0.533 
#    4.800    0.000    2.933    0.000    0.000    0.000 
#    0.000    0.000    0.000    0.000    0.000    0.000 
#
# Total GULP energy -167289.577489 kJ/mol
# GULP energy per Si atom -5576.319250 kJ/mol
# Density = 2.535451 g / cm^3
# Si number density = 25.412354 Si / 1000 Ang^3
#
#
#
# Elastic Constant Matrix: (Units=GPa)
#
#
# Indices 1 2 3 4 5 6 
#
# 1 93.9505 14.2758 12.6397 0.0000 -20.9700 0.0000
# 2 14.2758 120.5749 18.9213 0.0000 -12.2278 0.0000
# 3 12.6397 18.9213 71.4469 0.0000 -14.8461 0.0000
# 4 0.0000 0.0000 0.0000 15.8463 0.0000 -10.3344
# 5 -20.9700 -12.2278 -14.8461 0.0000 29.7379 0.0000
# 6 0.0000 0.0000 0.0000 -10.3344 0.0000 22.7780
#
#
#
# Elastic Compliance Matrix: (Units=1/GPa)
#
#
# Indices 1 2 3 4 5 6 
#
# 1 0.012683 -0.000586 -0.000313 0.000000 0.008546 0.000000
# 2 -0.000586 0.008878 -0.001757 0.000000 0.002360 0.000000
# 3 -0.000313 -0.001757 0.015979 0.000000 0.007034 0.000000
# 4 0.000000 0.000000 0.000000 0.089626 0.000000 0.040663
# 5 0.008546 0.002360 0.007034 0.000000 0.044136 0.000000
# 6 0.000000 0.000000 0.000000 0.040663 0.000000 0.062351
#
#
# Mechanical properties :
#
#
# Convention : Reuss Voigt Hill
#
# Bulk Modulus (GPa) = 31.02886 41.96066 36.49476
# Shear Modulus (GPa) = 20.02359 29.68147 24.85253
#
# Velocity S-wave (km/s) = 2.81008 3.42130 3.13064
# Velocity P-wave (km/s) = 4.77131 5.67052 5.24024
#
# Compressibility (1/GPa) = 0.03222806
#
# Stress axis : x y z
#
# Youngs Moduli (GPa) = 78.84864 112.63732 62.58334
#
# Poissons Ratio (x) = 0.06599 0.01957
# Poissons Ratio (y) = 0.04619 0.10997
# Poissons Ratio (z) = 0.02465 0.19792
#
# Static dielectric constant tensor:
#      x y z
#    x 1.977390 0.000000 0.029860 
#    y 0.000000 0.939880 0.000000 
#    z 0.029860 0.000000 2.022040 
# 
# From -- ./inp_files/218587.got.cif
#   From: 2010.05.17/outbox.cif.g08.bks.cpg/sg15_110_cif.got.tgz:218587.got - 2010.06.03 18:47:42.
