data_PCOD9266462
_publ_section_title
;
Structure prediction by ZEFSAII (Michael W. Deem and Ramdas Pophale) SiO2 
 PCOD9266462
Probable space group: C 2/C
;
_chemical_formula_sum "Si O2"
_cell_formula_units_Z 52
_cell_length_a 18.487550
_cell_length_b 14.594289
_cell_length_c 7.158022
_cell_angle_alpha 90.000000
_cell_angle_beta 94.584594
_cell_angle_gamma 90.000000
_cell_volume 1925.145413
_symmetry_space_group_name_H-M "C 2/C"
_symmetry_group_IT_number 15
_symmetry_cell_setting 'monoclinic'
loop_
_space_group_symop_operation_xyz
x,y,z
-x,y,1/2-z
-x,-y,-z
x,-y,1/2+z
1/2+x,1/2+y,z
1/2-x,1/2+y,1/2-z
1/2-x,1/2-y,-z
1/2+x,1/2-y,1/2+z
loop_
_atom_site_type_symbol
_atom_site_label
_atom_site_fract_x
_atom_site_fract_y
_atom_site_fract_z
Si Si1 0.000000 0.421559 0.250000
Si Si2 0.139574 0.542087 0.305578
Si Si3 0.753946 0.171348 0.296285
Si Si4 0.944031 0.113214 0.954223
Si Si5 0.402670 0.419255 0.872441
Si Si6 0.785898 0.644919 0.647394
Si Si7 0.926674 0.312205 0.984391
O O1 0.065926 0.485411 0.328753
O O2 0.996806 0.349485 0.421167
O O3 0.191173 0.620131 0.402223
O O4 0.195913 0.458306 0.284296
O O5 0.106013 0.608035 0.144834
O O6 0.828970 0.133832 0.392697
O O7 0.745402 0.280385 0.266199
O O8 0.748602 0.140383 0.071181
O O9 0.926830 0.112570 0.172021
O O10 0.930056 0.215678 0.885775
O O11 0.030765 0.095527 0.969333
O O12 0.897037 0.029951 0.864344
O O13 0.865639 0.692116 0.634221
#
# Coordination Sequence:
#
# PCOD9266462 Si02
#       7
#     4   8   8   8   8   8   8
#     4  10  20  38  58  88 124 160 214 256 310 382
#     4  10  22  35  60  92 120 158 204 263 312 366
#     4  10  20  35  60  86 118 166 199 260 307 381
#     4  10  21  38  62  94 122 169 214 263 317 377
#     4  10  21  36  62  91 128 161 215 263 315 379
#     4   9  20  37  59  90 117 154 218 247 310 378
#     4  10  19  37  65  85 117 163 211 257 313 376
#
# _framework density 27.010946000000001
#
# number of rings (size 3 to 8) (size 9 to 14) (size 15 to 20)
#    0.000    2.154    1.538    1.385    4.308    0.000 
#    0.000    3.077    6.769    9.231    0.000    0.000 
#    0.000    0.000    0.000    0.000    0.000    0.000 
#
# Total GULP energy -144919.990709 kJ/mol
# GULP energy per Si atom -5573.845796 kJ/mol
# Density = 2.694947 g / cm^3
# Si number density = 27.010946 Si / 1000 Ang^3
#
#
#
# Elastic Constant Matrix: (Units=GPa)
#
#
# Indices 1 2 3 4 5 6 
#
# 1 80.1157 20.5055 18.1667 0.0000 21.1722 0.0000
# 2 20.5055 219.4745 52.5739 0.0000 10.1397 0.0000
# 3 18.1667 52.5739 60.7700 0.0000 17.3777 0.0000
# 4 0.0000 0.0000 0.0000 52.4246 0.0000 6.5233
# 5 21.1722 10.1397 17.3777 0.0000 33.3620 0.0000
# 6 0.0000 0.0000 0.0000 6.5233 0.0000 30.2796
#
#
#
# Elastic Compliance Matrix: (Units=1/GPa)
#
#
# Indices 1 2 3 4 5 6 
#
# 1 0.015299 -0.000666 -0.001502 0.000000 -0.008724 0.000000
# 2 -0.000666 0.005804 -0.005216 0.000000 0.001376 0.000000
# 3 -0.001502 -0.005216 0.024312 0.000000 -0.010125 0.000000
# 4 0.000000 0.000000 0.000000 0.019600 0.000000 -0.004223
# 5 -0.008724 0.001376 -0.010125 0.000000 0.040367 0.000000
# 6 0.000000 0.000000 0.000000 -0.004223 0.000000 0.033935
#
#
# Mechanical properties :
#
#
# Convention : Reuss Voigt Hill
#
# Bulk Modulus (GPa) = 32.63005 60.31694 46.47350
# Shear Modulus (GPa) = 30.43181 41.15419 35.79300
#
# Velocity S-wave (km/s) = 3.36020 3.90758 3.64418
# Velocity P-wave (km/s) = 5.21163 6.53743 5.91181
#
# Compressibility (1/GPa) = 0.03064659
#
# Stress axis : x y z
#
# Youngs Moduli (GPa) = 65.36555 172.28148 41.13148
#
# Poissons Ratio (x) = 0.11482 0.06179
# Poissons Ratio (y) = 0.04356 0.21453
# Poissons Ratio (z) = 0.09819 0.89857
#
# Static dielectric constant tensor:
#      x y z
#    x 2.357950 0.000000 -0.183340 
#    y 0.000000 2.107050 0.000000 
#    z -0.183340 0.000000 2.274600 
# 
# From -- ./inp_files/111167.got.cif
#   From: 2010.05.17/outbox.cif.g08.bks.cpg/sg15_56_cif.got.tgz:111167.got - 2010.06.03 18:47:42.
