data_PCOD9266446
_publ_section_title
;
Structure prediction by ZEFSAII (Michael W. Deem and Ramdas Pophale) SiO2 
 PCOD9266446
Probable space group: C 2/C
;
_chemical_formula_sum "Si O2"
_cell_formula_units_Z 44
_cell_length_a 20.589662
_cell_length_b 18.989351
_cell_length_c 5.196745
_cell_angle_alpha 90.000000
_cell_angle_beta 106.192964
_cell_angle_gamma 90.000000
_cell_volume 1951.238292
_symmetry_space_group_name_H-M "C 2/C"
_symmetry_group_IT_number 15
_symmetry_cell_setting 'monoclinic'
loop_
_space_group_symop_operation_xyz
x,y,z
-x,y,1/2-z
-x,-y,-z
x,-y,1/2+z
1/2+x,1/2+y,z
1/2-x,1/2+y,1/2-z
1/2-x,1/2-y,-z
1/2+x,1/2-y,1/2+z
loop_
_atom_site_type_symbol
_atom_site_label
_atom_site_fract_x
_atom_site_fract_y
_atom_site_fract_z
Si Si1 0.877106 0.661817 0.179483
Si Si2 0.786304 0.674275 0.577458
Si Si3 0.000000 0.550773 0.250000
Si Si4 0.080901 0.101233 0.353348
Si Si5 0.708113 0.536315 0.365322
Si Si6 0.078769 0.180135 0.851030
O O1 0.842844 0.659909 0.421573
O O2 0.933647 0.601738 0.193336
O O3 0.909502 0.739262 0.199222
O O4 0.820281 0.664006 0.893580
O O5 0.750000 0.750000 0.500000
O O6 0.733006 0.612622 0.473097
O O7 0.000000 0.500000 0.500000
O O8 0.126829 0.038033 0.302637
O O9 0.105788 0.128575 0.658857
O O10 0.000000 0.087012 0.250000
O O11 0.097039 0.162277 0.162371
O O12 0.732725 0.482756 0.610307
O O13 0.000000 0.166185 0.750000
#
# Coordination Sequence:
#
# PCOD9266446 Si02
#       6
#     8   8   4   8   8   8
#     4  12  24  44  70  97 136 179 227 295 351 416
#     4  12  27  45  72 103 137 184 237 291 353 426
#     4  12  28  46  68 104 144 190 246 300 360 438
#     4  10  22  39  65  96 129 170 209 269 326 397
#     4  12  26  44  65  94 134 175 223 272 332 408
#     4  10  19  37  64  96 128 157 211 269 335 381
#
# _framework density 22.549786000000001
#
# number of rings (size 3 to 8) (size 9 to 14) (size 15 to 20)
#    0.000    0.727    0.909    7.091    0.000    5.091 
#    0.000    0.000    0.000    0.000    0.000    0.000 
#    0.000    0.000    0.000    0.000    0.000    0.000 
#
# Total GULP energy -122995.011233 kJ/mol
# GULP energy per Si atom -5590.682329 kJ/mol
# Density = 2.249846 g / cm^3
# Si number density = 22.549786 Si / 1000 Ang^3
#
#
#
# Elastic Constant Matrix: (Units=GPa)
#
#
# Indices 1 2 3 4 5 6 
#
# 1 57.9711 20.7182 7.4967 0.0000 -15.4514 0.0000
# 2 20.7182 105.5640 16.1760 0.0000 8.1848 0.0000
# 3 7.4967 16.1760 57.3303 0.0000 -8.2125 0.0000
# 4 0.0000 0.0000 0.0000 34.6545 0.0000 -9.1103
# 5 -15.4514 8.1848 -8.2125 0.0000 25.1559 0.0000
# 6 0.0000 0.0000 0.0000 -9.1103 0.0000 35.2437
#
#
#
# Elastic Compliance Matrix: (Units=1/GPa)
#
#
# Indices 1 2 3 4 5 6 
#
# 1 0.023844 -0.006159 0.001054 0.000000 0.016994 0.000000
# 2 -0.006159 0.011964 -0.003850 0.000000 -0.008933 0.000000
# 3 0.001054 -0.003850 0.019579 0.000000 0.008292 0.000000
# 4 0.000000 0.000000 0.000000 0.030960 0.000000 0.008003
# 5 0.016994 -0.008933 0.008292 0.000000 0.055803 0.000000
# 6 0.000000 0.000000 0.000000 0.008003 0.000000 0.030443
#
#
# Mechanical properties :
#
#
# Convention : Reuss Voigt Hill
#
# Bulk Modulus (GPa) = 26.68230 34.40526 30.54378
# Shear Modulus (GPa) = 24.63106 30.77579 27.70343
#
# Velocity S-wave (km/s) = 3.30858 3.69832 3.50886
# Velocity P-wave (km/s) = 5.14333 5.79028 5.47637
#
# Compressibility (1/GPa) = 0.03747803
#
# Stress axis : x y z
#
# Youngs Moduli (GPa) = 41.93896 83.58269 51.07497
#
# Poissons Ratio (x) = 0.51477 -0.05384
# Poissons Ratio (y) = 0.25829 0.19664
# Poissons Ratio (z) = -0.04421 0.32179
#
# Static dielectric constant tensor:
#      x y z
#    x 1.982690 0.000000 -0.031770 
#    y 0.000000 1.796470 0.000000 
#    z -0.031770 0.000000 1.937040 
# 
# From -- ./inp_files/12966.got.cif
#   From: 2010.05.17/outbox.cif.g08.bks.cpg/sg15_7_cif.got.tgz:12966.got - 2010.06.03 18:47:42.
