data_PCOD9266858
_publ_section_title
;
Structure prediction by ZEFSAII (Michael W. Deem and Ramdas Pophale) SiO2 
 PCOD9266858
Probable space group: C 2/C
;
_chemical_formula_sum "Si O2"
_cell_formula_units_Z 40
_cell_length_a 13.482501
_cell_length_b 6.867748
_cell_length_c 20.939723
_cell_angle_alpha 90.000000
_cell_angle_beta 121.325318
_cell_angle_gamma 90.000000
_cell_volume 1656.266231
_symmetry_space_group_name_H-M "C 2/C"
_symmetry_group_IT_number 15
_symmetry_cell_setting 'monoclinic'
loop_
_space_group_symop_operation_xyz
x,y,z
-x,y,1/2-z
-x,-y,-z
x,-y,1/2+z
1/2+x,1/2+y,z
1/2-x,1/2+y,1/2-z
1/2-x,1/2-y,-z
1/2+x,1/2-y,1/2+z
loop_
_atom_site_type_symbol
_atom_site_label
_atom_site_fract_x
_atom_site_fract_y
_atom_site_fract_z
Si Si1 0.883047 0.917346 0.184090
Si Si2 0.808448 0.371871 0.274515
Si Si3 0.643932 0.467707 0.630069
Si Si4 0.501169 0.170580 0.115778
Si Si5 0.186439 0.643609 0.536757
O O1 0.806462 0.857296 0.219377
O O2 0.000000 0.015857 0.250000
O O3 0.780024 0.996422 0.102945
O O4 0.933214 0.740350 0.156862
O O5 0.762636 0.415825 0.188414
O O6 0.872150 0.173609 0.313930
O O7 0.891190 0.540315 0.327506
O O8 0.545583 0.630879 0.596797
O O9 0.652822 0.316546 0.575017
O O10 0.424246 0.058129 0.037206
O O11 0.250000 0.750000 0.500000
#
# Coordination Sequence:
#
# PCOD9266858 Si02
#       5
#     8   8   8   8   8
#     4  10  19  38  62  87 127 164 210 269 318 379
#     4  11  22  38  67  93 123 174 214 263 334 380
#     4  11  20  37  63  92 124 167 217 264 318 392
#     4  11  21  40  63  91 129 165 211 269 322 392
#     4   9  21  37  62  93 126 172 209 262 336 381
#
# _framework density 24.150706
#
# number of rings (size 3 to 8) (size 9 to 14) (size 15 to 20)
#    0.000    1.600    4.000    1.800    0.000    3.200 
#    0.000    6.000   13.200   13.200    0.000    0.000 
#    0.000    0.000    0.000    0.000    0.000    0.000 
#
# Total GULP energy -111415.121995 kJ/mol
# GULP energy per Si atom -5570.756100 kJ/mol
# Density = 2.409574 g / cm^3
# Si number density = 24.150706 Si / 1000 Ang^3
#
#
#
# Elastic Constant Matrix: (Units=GPa)
#
#
# Indices 1 2 3 4 5 6 
#
# 1 109.5727 21.7284 37.9220 0.0000 0.8438 0.0000
# 2 21.7284 59.4291 15.3205 0.0000 -4.4640 0.0000
# 3 37.9220 15.3205 174.9301 0.0000 23.8069 0.0000
# 4 0.0000 0.0000 0.0000 29.5541 0.0000 -3.7861
# 5 0.8438 -4.4640 23.8069 0.0000 40.7588 0.0000
# 6 0.0000 0.0000 0.0000 -3.7861 0.0000 18.4198
#
#
#
# Elastic Compliance Matrix: (Units=1/GPa)
#
#
# Indices 1 2 3 4 5 6 
#
# 1 0.010484 -0.003250 -0.002075 0.000000 0.000639 0.000000
# 2 -0.003250 0.018569 -0.001312 0.000000 0.002867 0.000000
# 3 -0.002075 -0.001312 0.006839 0.000000 -0.004095 0.000000
# 4 0.000000 0.000000 0.000000 0.034751 0.000000 0.007143
# 5 0.000639 0.002867 -0.004095 0.000000 0.027227 0.000000
# 6 0.000000 0.000000 0.000000 0.007143 0.000000 0.055758
#
#
# Mechanical properties :
#
#
# Convention : Reuss Voigt Hill
#
# Bulk Modulus (GPa) = 44.21450 54.87486 49.54468
# Shear Modulus (GPa) = 28.66298 35.67729 32.17014
#
# Velocity S-wave (km/s) = 3.44879 3.84771 3.65370
# Velocity P-wave (km/s) = 5.84862 6.52004 6.19344
#
# Compressibility (1/GPa) = 0.02261701
#
# Stress axis : x y z
#
# Youngs Moduli (GPa) = 95.38222 53.85414 146.22821
#
# Poissons Ratio (x) = 0.17504 0.30344
# Poissons Ratio (y) = 0.31002 0.19183
# Poissons Ratio (z) = 0.19793 0.07065
#
# Static dielectric constant tensor:
#      x y z
#    x 1.973100 0.000000 0.093910 
#    y 0.000000 1.977650 0.000000 
#    z 0.093910 0.000000 2.104260 
# 
# From -- ./inp_files/202324.got.cif
#   From: 2010.05.17/outbox.cif.g08.bks.cpg/sg15_102_cif.got.tgz:202324.got - 2010.06.03 18:47:42.
