data_PCOD9266970
_publ_section_title
;
Structure prediction by ZEFSAII (Michael W. Deem and Ramdas Pophale) SiO2 
 PCOD9266970
Probable space group: C 2/C
;
_chemical_formula_sum "Si O2"
_cell_formula_units_Z 48
_cell_length_a 24.058608
_cell_length_b 9.392263
_cell_length_c 9.009273
_cell_angle_alpha 90.000000
_cell_angle_beta 69.273172
_cell_angle_gamma 90.000000
_cell_volume 1904.019541
_symmetry_space_group_name_H-M "C 2/C"
_symmetry_group_IT_number 15
_symmetry_cell_setting 'monoclinic'
loop_
_space_group_symop_operation_xyz
x,y,z
-x,y,1/2-z
-x,-y,-z
x,-y,1/2+z
1/2+x,1/2+y,z
1/2-x,1/2+y,1/2-z
1/2-x,1/2-y,-z
1/2+x,1/2-y,1/2+z
loop_
_atom_site_type_symbol
_atom_site_label
_atom_site_fract_x
_atom_site_fract_y
_atom_site_fract_z
Si Si1 0.097927 0.841410 0.491890
Si Si2 0.184438 0.822444 0.675545
Si Si3 0.071144 0.849132 0.963939
Si Si4 0.500000 0.140498 0.250000
Si Si5 0.803445 0.541886 0.016963
Si Si6 0.000000 0.768565 0.750000
Si Si7 0.621599 0.874743 0.764699
O O1 0.151997 0.862228 0.551707
O O2 0.113384 0.792576 0.311341
O O3 0.053273 0.716804 0.593504
O O4 0.065535 0.991255 0.524628
O O5 0.139813 0.821747 0.856372
O O6 0.199171 0.659518 0.615625
O O7 0.238470 0.931284 0.646799
O O8 0.041064 0.841981 0.832225
O O9 0.037076 0.738113 0.099866
O O10 0.444225 0.064216 0.217887
O O11 0.848838 0.572327 0.109336
O O12 0.830775 0.406519 0.908085
#
# Coordination Sequence:
#
# PCOD9266970 Si02
#       7
#     8   8   8   4   8   4   8
#     4  10  21  39  68 109 134 185 232 290 358 417
#     4   9  23  45  73  94 139 191 233 293 361 414
#     4  11  23  39  70 104 146 182 233 294 350 424
#     4  12  27  44  67 116 144 189 238 291 360 430
#     4  10  24  51  68  96 140 188 245 292 352 425
#     4  10  19  38  63  92 148 185 216 283 342 428
#     4  11  26  45  72 102 141 187 240 295 356 424
#
# _framework density 25.209826
#
# number of rings (size 3 to 8) (size 9 to 14) (size 15 to 20)
#    0.000    1.667    1.667    1.000    9.333    0.667 
#    0.000    1.667    0.000    0.000    0.000    0.000 
#    0.000    0.000    0.000    0.000    0.000    0.000 
#
# Total GULP energy -133710.384082 kJ/mol
# GULP energy per Si atom -5571.266003 kJ/mol
# Density = 2.515245 g / cm^3
# Si number density = 25.209826 Si / 1000 Ang^3
#
#
#
# Elastic Constant Matrix: (Units=GPa)
#
#
# Indices 1 2 3 4 5 6 
#
# 1 168.9763 18.6969 68.1697 0.0000 -22.0351 0.0000
# 2 18.6969 31.9225 37.3459 0.0000 -9.1522 0.0000
# 3 68.1697 37.3459 128.6908 0.0000 -26.1220 0.0000
# 4 0.0000 0.0000 0.0000 39.2334 0.0000 -5.3835
# 5 -22.0351 -9.1522 -26.1220 0.0000 52.6660 0.0000
# 6 0.0000 0.0000 0.0000 -5.3835 0.0000 16.1791
#
#
#
# Elastic Compliance Matrix: (Units=1/GPa)
#
#
# Indices 1 2 3 4 5 6 
#
# 1 0.007613 0.000491 -0.003904 0.000000 0.001334 0.000000
# 2 0.000491 0.047577 -0.013729 0.000000 0.001664 0.000000
# 3 -0.003904 -0.013729 0.014463 0.000000 0.003154 0.000000
# 4 0.000000 0.000000 0.000000 0.026708 0.000000 0.008887
# 5 0.001334 0.001664 0.003154 0.000000 0.021399 0.000000
# 6 0.000000 0.000000 0.000000 0.008887 0.000000 0.064765
#
#
# Mechanical properties :
#
#
# Convention : Reuss Voigt Hill
#
# Bulk Modulus (GPa) = 28.27395 64.22382 46.24889
# Shear Modulus (GPa) = 21.87232 35.30752 28.58992
#
# Velocity S-wave (km/s) = 2.94872 3.74645 3.37126
# Velocity P-wave (km/s) = 4.77839 6.65173 5.79131
#
# Compressibility (1/GPa) = 0.03536824
#
# Stress axis : x y z
#
# Youngs Moduli (GPa) = 131.35907 21.01860 69.14035
#
# Poissons Ratio (x) = -0.01033 0.26996
# Poissons Ratio (y) = -0.06456 0.94926
# Poissons Ratio (z) = 0.51289 0.28857
#
# Static dielectric constant tensor:
#      x y z
#    x 2.069970 0.000000 -0.102300 
#    y 0.000000 2.136300 0.000000 
#    z -0.102300 0.000000 2.023560 
# 
# From -- ./inp_files/60862.got.cif
#   From: 2010.05.17/outbox.cif.g08.bks.cpg/sg15_31_cif.got.tgz:60862.got - 2010.06.03 18:47:42.
