data_PCOD9266809
_publ_section_title
;
Structure prediction by ZEFSAII (Michael W. Deem and Ramdas Pophale) SiO2 
 PCOD9266809
Probable space group: C 2/C
;
_chemical_formula_sum "Si O2"
_cell_formula_units_Z 52
_cell_length_a 21.213106
_cell_length_b 12.411968
_cell_length_c 16.102980
_cell_angle_alpha 90.000000
_cell_angle_beta 139.999991
_cell_angle_gamma 90.000000
_cell_volume 2725.327766
_symmetry_space_group_name_H-M "C 2/C"
_symmetry_group_IT_number 15
_symmetry_cell_setting 'monoclinic'
loop_
_space_group_symop_operation_xyz
x,y,z
-x,y,1/2-z
-x,-y,-z
x,-y,1/2+z
1/2+x,1/2+y,z
1/2-x,1/2+y,1/2-z
1/2-x,1/2-y,-z
1/2+x,1/2-y,1/2+z
loop_
_atom_site_type_symbol
_atom_site_label
_atom_site_fract_x
_atom_site_fract_y
_atom_site_fract_z
Si Si1 0.390155 0.132053 0.388044
Si Si2 0.113302 0.604328 0.615509
Si Si3 0.805940 0.918904 0.055580
Si Si4 0.000000 0.058129 0.250000
Si Si5 0.235758 0.750788 0.620863
Si Si6 0.176762 0.614986 0.866084
Si Si7 0.116998 0.764637 0.951593
O O1 0.501692 0.113343 0.472929
O O2 0.326620 0.187522 0.253395
O O3 0.393115 0.205661 0.471949
O O4 0.347393 0.014505 0.367328
O O5 0.173878 0.697615 0.632303
O O6 0.118750 0.607640 0.721169
O O7 0.772514 0.844443 0.097860
O O8 0.821252 0.837903 0.993240
O O9 0.905049 0.985687 0.174289
O O10 0.719025 0.002123 0.943345
O O11 0.037640 0.140749 0.358817
O O12 0.117369 0.679278 0.876325
O O13 0.275663 0.681339 0.945052
#
# Coordination Sequence:
#
# PCOD9266809 Si02
#       7
#     8   8   8   4   8   8   8
#     4  11  23  40  62  94 123 161 208 255 306 374
#     4  11  23  39  62  91 126 161 205 257 306 365
#     4  10  23  41  63  89 125 165 208 251 310 371
#     4  10  22  40  62  94 118 156 214 258 294 372
#     4  11  23  43  64  89 124 169 200 259 315 361
#     4  10  19  38  61  88 124 163 197 250 303 369
#     4  10  20  37  62  88 124 159 200 250 312 356
#
# _framework density 19.080272999999998
#
# number of rings (size 3 to 8) (size 9 to 14) (size 15 to 20)
#    0.000    1.538    3.077    1.846    2.154    0.000 
#    2.769    0.769    0.000    0.000    0.000    0.000 
#    0.000    0.000    0.000    0.000    0.000    0.000 
#
# Total GULP energy -145157.309435 kJ/mol
# GULP energy per Si atom -5582.973440 kJ/mol
# Density = 1.903685 g / cm^3
# Si number density = 19.080273 Si / 1000 Ang^3
#
#
#
# Elastic Constant Matrix: (Units=GPa)
#
#
# Indices 1 2 3 4 5 6 
#
# 1 31.8589 29.5523 27.0143 0.0000 -4.8088 0.0000
# 2 29.5523 111.9193 35.0646 0.0000 -1.7870 0.0000
# 3 27.0143 35.0646 87.1267 0.0000 2.0807 0.0000
# 4 0.0000 0.0000 0.0000 35.3945 0.0000 -0.7492
# 5 -4.8088 -1.7870 2.0807 0.0000 25.3107 0.0000
# 6 0.0000 0.0000 0.0000 -0.7492 0.0000 29.6163
#
#
#
# Elastic Compliance Matrix: (Units=1/GPa)
#
#
# Indices 1 2 3 4 5 6 
#
# 1 0.052794 -0.009805 -0.012671 0.000000 0.010380 0.000000
# 2 -0.009805 0.012074 -0.001798 0.000000 -0.000863 0.000000
# 3 -0.012671 -0.001798 0.016223 0.000000 -0.003868 0.000000
# 4 0.000000 0.000000 0.000000 0.028268 0.000000 0.000715
# 5 0.010380 -0.000863 -0.003868 0.000000 0.041738 0.000000
# 6 0.000000 0.000000 0.000000 0.000715 0.000000 0.033783
#
#
# Mechanical properties :
#
#
# Convention : Reuss Voigt Hill
#
# Bulk Modulus (GPa) = 30.72975 46.01859 38.37417
# Shear Modulus (GPa) = 20.46863 27.34923 23.90893
#
# Velocity S-wave (km/s) = 3.27886 3.79010 3.54371
# Velocity P-wave (km/s) = 5.52042 6.58209 6.07450
#
# Compressibility (1/GPa) = 0.03254175
#
# Stress axis : x y z
#
# Youngs Moduli (GPa) = 18.94138 82.82501 61.64271
#
# Poissons Ratio (x) = 0.81208 0.78109
# Poissons Ratio (y) = 0.18572 0.11086
# Poissons Ratio (z) = 0.24001 0.14896
#
# Static dielectric constant tensor:
#      x y z
#    x 1.628790 0.000000 0.009510 
#    y 0.000000 1.684240 0.000000 
#    z 0.009510 0.000000 1.660380 
# 
# From -- ./inp_files/173133.got.cif
#   From: 2010.05.17/outbox.cif.g08.bks.cpg/sg15_87_cif.got.tgz:173133.got - 2010.06.03 18:47:42.
