data_PCOD9266279
_publ_section_title
;
Structure prediction by ZEFSAII (Michael W. Deem and Ramdas Pophale) SiO2 
 PCOD9266279
Probable space group: C 2/C
;
_chemical_formula_sum "Si O2"
_cell_formula_units_Z 48
_cell_length_a 27.851893
_cell_length_b 11.365940
_cell_length_c 18.067690
_cell_angle_alpha 90.000000
_cell_angle_beta 26.000862
_cell_angle_gamma 90.000000
_cell_volume 2507.367921
_symmetry_space_group_name_H-M "C 2/C"
_symmetry_group_IT_number 15
_symmetry_cell_setting 'monoclinic'
loop_
_space_group_symop_operation_xyz
x,y,z
-x,y,1/2-z
-x,-y,-z
x,-y,1/2+z
1/2+x,1/2+y,z
1/2-x,1/2+y,1/2-z
1/2-x,1/2-y,-z
1/2+x,1/2-y,1/2+z
loop_
_atom_site_type_symbol
_atom_site_label
_atom_site_fract_x
_atom_site_fract_y
_atom_site_fract_z
Si Si1 0.568048 0.953568 0.835809
Si Si2 0.842658 0.299162 0.282391
Si Si3 0.397740 0.648459 0.340071
Si Si4 0.095878 0.272780 0.474717
Si Si5 0.897830 0.879123 0.293654
Si Si6 0.255452 0.748878 0.882333
O O1 0.657939 0.856728 0.735204
O O2 0.624909 0.072108 0.730505
O O3 0.482291 0.885983 0.902660
O O4 0.500000 0.000000 0.000000
O O5 0.711856 0.299222 0.471198
O O6 0.900475 0.205427 0.255049
O O7 0.877195 0.278312 0.149739
O O8 0.500000 0.676554 0.250000
O O9 0.393190 0.508020 0.334270
O O10 0.204350 0.274256 0.373484
O O11 0.019355 0.162092 0.602594
O O12 0.845247 0.788720 0.425806
O O13 0.819051 0.859917 0.331674
#
# Coordination Sequence:
#
# PCOD9266279 Si02
#       6
#     8   8   8   8   8   8
#     4   9  19  38  59  85 122 154 196 251 301 364
#     4  10  23  42  57  90 124 160 207 247 301 388
#     4  11  23  42  63  83 124 169 200 250 314 366
#     4  10  21  38  64  92 120 156 206 255 314 353
#     4  10  21  37  61  93 121 155 207 256 299 368
#     4  10  19  37  62  90 123 158 201 258 307 356
#
# _framework density 19.14358
#
# number of rings (size 3 to 8) (size 9 to 14) (size 15 to 20)
#    0.000    2.000    1.667    1.500    0.000    4.667 
#   12.000    0.000    0.000    0.000    0.000    0.000 
#    0.000    0.000    0.000    0.000    0.000    0.000 
#
# Total GULP energy -133847.244354 kJ/mol
# GULP energy per Si atom -5576.968515 kJ/mol
# Density = 1.910001 g / cm^3
# Si number density = 19.143580 Si / 1000 Ang^3
#
#
#
# Elastic Constant Matrix: (Units=GPa)
#
#
# Indices 1 2 3 4 5 6 
#
# 1 93.1320 17.8009 39.5918 0.0000 -10.9308 0.0000
# 2 17.8009 29.1385 7.3994 0.0000 -11.9359 0.0000
# 3 39.5918 7.3994 61.4809 0.0000 -3.7679 0.0000
# 4 0.0000 0.0000 0.0000 21.0769 0.0000 3.2576
# 5 -10.9308 -11.9359 -3.7679 0.0000 28.5133 0.0000
# 6 0.0000 0.0000 0.0000 3.2576 0.0000 15.2652
#
#
#
# Elastic Compliance Matrix: (Units=1/GPa)
#
#
# Indices 1 2 3 4 5 6 
#
# 1 0.016344 -0.006641 -0.009590 0.000000 0.002218 0.000000
# 2 -0.006641 0.045096 -0.000151 0.000000 0.016312 0.000000
# 3 -0.009590 -0.000151 0.022411 0.000000 -0.000778 0.000000
# 4 0.000000 0.000000 0.000000 0.049064 0.000000 -0.010470
# 5 0.002218 0.016312 -0.000778 0.000000 0.042647 0.000000
# 6 0.000000 0.000000 0.000000 -0.010470 0.000000 0.067743
#
#
# Mechanical properties :
#
#
# Convention : Reuss Voigt Hill
#
# Bulk Modulus (GPa) = 19.57430 34.81508 27.19469
# Shear Modulus (GPa) = 17.05918 20.90169 18.98043
#
# Velocity S-wave (km/s) = 2.98840 3.30788 3.15219
# Velocity P-wave (km/s) = 4.70686 5.72846 5.24260
#
# Compressibility (1/GPa) = 0.05108740
#
# Stress axis : x y z
#
# Youngs Moduli (GPa) = 61.18505 22.17499 44.62042
#
# Poissons Ratio (x) = 0.14726 0.42790
# Poissons Ratio (y) = 0.40631 0.00675
# Poissons Ratio (z) = 0.58675 0.00336
#
# Static dielectric constant tensor:
#      x y z
#    x 1.667510 0.000000 0.008030 
#    y 0.000000 1.686050 0.000000 
#    z 0.008030 0.000000 1.700300 
# 
# From -- ./inp_files/219247.got.cif
#   From: 2010.05.17/outbox.cif.g08.bks.cpg/sg15_110_cif.got.tgz:219247.got - 2010.06.03 18:47:42.
