data_PCOD9266558
_publ_section_title
;
Structure prediction by ZEFSAII (Michael W. Deem and Ramdas Pophale) SiO2 
 PCOD9266558
Probable space group: C 2/C
;
_chemical_formula_sum "Si O2"
_cell_formula_units_Z 44
_cell_length_a 11.646597
_cell_length_b 16.488360
_cell_length_c 11.453494
_cell_angle_alpha 90.000000
_cell_angle_beta 69.821390
_cell_angle_gamma 90.000000
_cell_volume 2064.453804
_symmetry_space_group_name_H-M "C 2/C"
_symmetry_group_IT_number 15
_symmetry_cell_setting 'monoclinic'
loop_
_space_group_symop_operation_xyz
x,y,z
-x,y,1/2-z
-x,-y,-z
x,-y,1/2+z
1/2+x,1/2+y,z
1/2-x,1/2+y,1/2-z
1/2-x,1/2-y,-z
1/2+x,1/2-y,1/2+z
loop_
_atom_site_type_symbol
_atom_site_label
_atom_site_fract_x
_atom_site_fract_y
_atom_site_fract_z
Si Si1 0.652256 0.370330 0.031542
Si Si2 0.930998 0.412997 0.536484
Si Si3 0.137136 0.286308 0.402010
Si Si4 0.860867 0.382840 0.313487
Si Si5 0.500000 0.513288 0.750000
Si Si6 0.737998 0.460376 0.787234
O O1 0.733800 0.318008 0.092581
O O2 0.557170 0.427179 0.131634
O O3 0.605009 0.303034 0.956714
O O4 0.732736 0.428185 0.920647
O O5 0.844360 0.388826 0.456994
O O6 0.844936 0.416129 0.678951
O O7 0.000000 0.500000 0.500000
O O8 0.036474 0.346043 0.492918
O O9 0.140294 0.300620 0.261320
O O10 0.772783 0.445013 0.280334
O O11 0.000000 0.414697 0.250000
O O12 0.607860 0.459548 0.768166
#
# Coordination Sequence:
#
# PCOD9266558 Si02
#       6
#     8   8   8   8   4   8
#     4  11  25  41  66  93 136 179 218 268 338 404
#     4  11  20  38  67 102 125 169 215 276 329 380
#     4  10  22  42  63  99 134 168 220 272 336 388
#     4  10  19  37  67  94 132 156 216 275 319 372
#     4  12  24  46  62  92 136 178 226 266 332 402
#     4  12  23  40  68  98 127 176 222 271 329 398
#
# _framework density 21.313144000000001
#
# number of rings (size 3 to 8) (size 9 to 14) (size 15 to 20)
#    0.000    1.091    5.455    2.727    0.000    2.909 
#    4.909    0.909    0.000    0.000    0.000    0.000 
#    0.000    0.000    0.000    0.000    0.000    0.000 
#
# Total GULP energy -122761.616886 kJ/mol
# GULP energy per Si atom -5580.073495 kJ/mol
# Density = 2.126463 g / cm^3
# Si number density = 21.313144 Si / 1000 Ang^3
#
#
#
# Elastic Constant Matrix: (Units=GPa)
#
#
# Indices 1 2 3 4 5 6 
#
# 1 52.6233 -12.7623 -17.9021 0.0000 8.1964 0.0000
# 2 -12.7623 59.1616 14.9197 0.0000 4.6837 0.0000
# 3 -17.9021 14.9197 131.0777 0.0000 0.7173 0.0000
# 4 0.0000 0.0000 0.0000 18.4956 0.0000 18.2450
# 5 8.1964 4.6837 0.7173 0.0000 29.6358 0.0000
# 6 0.0000 0.0000 0.0000 18.2450 0.0000 12.7955
#
#
#
# Elastic Compliance Matrix: (Units=1/GPa)
#
#
# Indices 1 2 3 4 5 6 
#
# 1 0.022068 0.004672 0.002520 0.000000 -0.006903 0.000000
# 2 0.004672 0.018610 -0.001457 0.000000 -0.004198 0.000000
# 3 0.002520 -0.001457 0.008143 0.000000 -0.000664 0.000000
# 4 0.000000 0.000000 0.000000 -0.132986 0.000000 0.189623
# 5 -0.006903 -0.004198 -0.000664 0.000000 0.036332 0.000000
# 6 0.000000 0.000000 0.000000 0.189623 0.000000 -0.192228
#
#
# Mechanical properties :
#
#
# Convention : Reuss Voigt Hill
#
# Bulk Modulus (GPa) = 16.58647 23.48592 20.03620
# Shear Modulus (GPa) = -21.60450 29.42589 3.91069
#
# Velocity S-wave (km/s) = -3.18727 3.71973 1.35604
# Velocity P-wave (km/s) = 2.39704 5.43065 3.44573
#
# Compressibility (1/GPa) = 0.06029012
#
# Stress axis : x y z
#
# Youngs Moduli (GPa) = 45.31374 53.73323 122.80868
#
# Poissons Ratio (x) = -0.25102 -0.30948
# Poissons Ratio (y) = -0.21168 0.17897
# Poissons Ratio (z) = -0.11419 0.07831
#
# Static dielectric constant tensor:
#      x y z
#    x 1.795990 0.000000 0.047140 
#    y 0.000000 1.775980 0.000000 
#    z 0.047140 0.000000 1.800970 
# 
# From -- ./inp_files/87530.got.cif
#   From: 2010.05.17/outbox.cif.g08.bks.cpg/sg15_44_cif.got.tgz:87530.got - 2010.06.03 18:47:42.
