data_PCOD9266092
_publ_section_title
;
Structure prediction by ZEFSAII (Michael W. Deem and Ramdas Pophale) SiO2 
 PCOD9266092
Probable space group: C 2/C
;
_chemical_formula_sum "Si O2"
_cell_formula_units_Z 40
_cell_length_a 13.564504
_cell_length_b 5.198616
_cell_length_c 25.568945
_cell_angle_alpha 90.000000
_cell_angle_beta 87.065510
_cell_angle_gamma 90.000000
_cell_volume 1800.671999
_symmetry_space_group_name_H-M "C 2/C"
_symmetry_group_IT_number 15
_symmetry_cell_setting 'monoclinic'
loop_
_space_group_symop_operation_xyz
x,y,z
-x,y,1/2-z
-x,-y,-z
x,-y,1/2+z
1/2+x,1/2+y,z
1/2-x,1/2+y,1/2-z
1/2-x,1/2-y,-z
1/2+x,1/2-y,1/2+z
loop_
_atom_site_type_symbol
_atom_site_label
_atom_site_fract_x
_atom_site_fract_y
_atom_site_fract_z
Si Si1 0.696766 0.144905 0.108584
Si Si2 0.324624 0.841109 0.193500
Si Si3 0.090398 0.842125 0.284018
Si Si4 0.534736 0.113563 0.387929
Si Si5 0.284098 0.151085 0.055094
O O1 0.728210 0.247619 0.165126
O O2 0.581386 0.094480 0.103077
O O3 0.735888 0.374821 0.069905
O O4 0.748565 0.871625 0.096553
O O5 0.368627 0.621474 0.228771
O O6 0.326642 0.121038 0.219480
O O7 0.407525 0.889372 0.145301
O O8 0.052509 0.839361 0.345035
O O9 0.000000 0.767882 0.250000
O O10 0.598067 0.140526 0.438883
O O11 0.250000 0.250000 0.000000
#
# Coordination Sequence:
#
# PCOD9266092 Si02
#       5
#     8   8   8   8   8
#     4  11  21  39  63  83 117 158 191 235 292 344
#     4   9  19  37  55  84 117 148 192 235 282 336
#     4  10  19  37  60  84 117 152 187 239 289 333
#     4   9  23  37  62  84 118 153 194 233 290 336
#     4  11  24  40  59  88 120 149 194 244 286 343
#
# _framework density 22.213929
#
# number of rings (size 3 to 8) (size 9 to 14) (size 15 to 20)
#    1.200    0.800    2.000    1.200    2.800    1.600 
#    0.000    2.000    0.000    0.000    0.000    0.000 
#    0.000    0.000    0.000    0.000    0.000    0.000 
#
# Total GULP energy -111491.370786 kJ/mol
# GULP energy per Si atom -5574.568539 kJ/mol
# Density = 2.216337 g / cm^3
# Si number density = 22.213929 Si / 1000 Ang^3
#
#
#
# Elastic Constant Matrix: (Units=GPa)
#
#
# Indices 1 2 3 4 5 6 
#
# 1 167.7029 1.5348 17.2331 0.0000 36.1585 0.0000
# 2 1.5348 80.4956 -17.2279 0.0000 7.6859 0.0000
# 3 17.2331 -17.2279 52.1538 0.0000 29.3896 0.0000
# 4 0.0000 0.0000 0.0000 -203.6852 0.0000 558.9351
# 5 36.1585 7.6859 29.3896 0.0000 28.2734 0.0000
# 6 0.0000 0.0000 0.0000 558.9351 0.0000-1328.1363
#
#
#
# Elastic Compliance Matrix: (Units=1/GPa)
#
#
# Indices 1 2 3 4 5 6 
#
# 1 0.012299 0.008050 0.020982 0.000000 -0.039728 0.000000
# 2 0.008050 0.025688 0.037568 0.000000 -0.056329 0.000000
# 3 0.020982 0.037568 0.109906 0.000000 -0.151292 0.000000
# 4 0.000000 0.000000 0.000000 0.031708 0.000000 0.013344
# 5 -0.039728 -0.056329 -0.151292 0.000000 0.258753 0.000000
# 6 0.000000 0.000000 0.000000 0.013344 0.000000 0.004863
#
#
# Mechanical properties :
#
#
# Convention : Reuss Voigt Hill
#
# Bulk Modulus (GPa) = 3.55754 33.71469 18.63612
# Shear Modulus (GPa) = 12.38499 -280.78878 -134.20189
#
# Velocity S-wave (km/s) = 2.36377 -11.25507 -7.78104
# Velocity P-wave (km/s) = 3.00913 12.39725 8.50403
#
# Compressibility (1/GPa) = 0.28109308
#
# Stress axis : x y z
#
# Youngs Moduli (GPa) = 81.30848 38.92810 9.09868
#
# Poissons Ratio (x) = -0.31335 -0.19091
# Poissons Ratio (y) = -0.65449 -0.34182
# Poissons Ratio (z) = -1.70604 -1.46245
#
# Static dielectric constant tensor:
#      x y z
#    x 1.638960 0.000000 -0.080970 
#    y 0.000000 1.816470 0.000000 
#    z -0.080970 0.000000 1.859600 
# 
# From -- ./inp_files/309317.got.cif
#   From: 2010.05.17/outbox.cif.g08.bks.cpg/sg15_155_cif.got.tgz:309317.got - 2010.06.03 18:47:42.
