data_PCOD9266375
_publ_section_title
;
Structure prediction by ZEFSAII (Michael W. Deem and Ramdas Pophale) SiO2 
 PCOD9266375
Probable space group: C 2/C
;
_chemical_formula_sum "Si O2"
_cell_formula_units_Z 56
_cell_length_a 20.154441
_cell_length_b 14.856045
_cell_length_c 17.985299
_cell_angle_alpha 90.000000
_cell_angle_beta 156.135041
_cell_angle_gamma 90.000000
_cell_volume 2178.705755
_symmetry_space_group_name_H-M "C 2/C"
_symmetry_group_IT_number 15
_symmetry_cell_setting 'monoclinic'
loop_
_space_group_symop_operation_xyz
x,y,z
-x,y,1/2-z
-x,-y,-z
x,-y,1/2+z
1/2+x,1/2+y,z
1/2-x,1/2+y,1/2-z
1/2-x,1/2-y,-z
1/2+x,1/2-y,1/2+z
loop_
_atom_site_type_symbol
_atom_site_label
_atom_site_fract_x
_atom_site_fract_y
_atom_site_fract_z
Si Si1 0.091542 0.182693 0.584906
Si Si2 0.243534 0.047647 0.956083
Si Si3 0.000000 0.260816 0.250000
Si Si4 0.750000 0.750000 0.000000
Si Si5 0.422373 0.391300 0.787817
Si Si6 0.915049 0.468131 0.783033
Si Si7 0.928862 0.359330 0.026091
Si Si8 0.309819 0.695141 0.400249
O O1 0.080713 0.116020 0.503367
O O2 0.966678 0.153889 0.521006
O O3 0.029130 0.273216 0.479044
O O4 0.247867 0.220296 0.787804
O O5 0.406598 0.048956 0.071493
O O6 0.299885 0.009919 0.094239
O O7 0.199249 0.149561 0.922748
O O8 0.105038 0.985538 0.779772
O O9 0.912247 0.187640 0.214847
O O10 0.940640 0.329202 0.124882
O O11 0.654126 0.733837 0.981872
O O12 0.263628 0.380764 0.678789
O O13 0.834478 0.379928 0.737583
O O14 0.954298 0.556781 0.870613
#
# Coordination Sequence:
#
# PCOD9266375 Si02
#       8
#     8   8   4   4   8   8   8   8
#     4  11  23  40  62  95 134 171 209 268 340 404
#     4   9  18  38  63  96 122 164 224 271 321 379
#     4  10  20  32  62  96 134 176 208 260 328 412
#     4  10  22  42  72  88 122 172 226 284 320 384
#     4  10  20  38  60  96 137 170 208 270 330 403
#     4   9  19  36  64  92 119 163 232 280 295 376
#     4  10  19  37  63  94 128 176 218 262 323 387
#     4  11  23  43  64  95 124 170 226 276 333 386
#
# _framework density 25.703333000000001
#
# number of rings (size 3 to 8) (size 9 to 14) (size 15 to 20)
#    0.000    2.000    1.429    3.000    0.000    3.429 
#    2.571    6.429    0.000    0.000    0.000    0.000 
#    0.000    0.000    0.000    0.000    0.000    0.000 
#
# Total GULP energy -155905.540756 kJ/mol
# GULP energy per Si atom -5568.055027 kJ/mol
# Density = 2.564483 g / cm^3
# Si number density = 25.703333 Si / 1000 Ang^3
#
#
#
# Elastic Constant Matrix: (Units=GPa)
#
#
# Indices 1 2 3 4 5 6 
#
# 1 85.4241 -10.3741 20.7950 -0.0037 -3.8834 -0.0029
# 2 -10.3741 94.7314 14.6788 -0.0065 -6.3071 -0.0077
# 3 20.7950 14.6788 41.4711 -0.0069 -2.2984 -0.0067
# 4 -0.0037 -0.0065 -0.0069 12.2419 -0.0035 -7.1095
# 5 -3.8834 -6.3071 -2.2984 -0.0035 39.2770 -0.0031
# 6 -0.0029 -0.0077 -0.0067 -7.1095 -0.0031 21.3267
#
#
#
# Elastic Compliance Matrix: (Units=1/GPa)
#
#
# Indices 1 2 3 4 5 6 
#
# 1 0.014063 0.002870 -0.007991 0.000003 0.001384 0.000001
# 2 0.002870 0.011852 -0.005531 0.000008 0.001863 0.000006
# 3 -0.007991 -0.005531 0.030082 0.000019 0.000082 0.000013
# 4 0.000003 0.000008 0.000019 0.101298 0.000014 0.033769
# 5 0.001384 0.001863 0.000082 0.000014 0.025901 0.000009
# 6 0.000001 0.000006 0.000013 0.033769 0.000009 0.058147
#
#
# Mechanical properties :
#
#
# Convention : Reuss Voigt Hill
#
# Bulk Modulus (GPa) = 28.82344 30.20287 29.51315
# Shear Modulus (GPa) = 18.23412 27.67090 22.95251
#
# Velocity S-wave (km/s) = 2.66636 3.28464 2.99152
# Velocity P-wave (km/s) = 4.55165 5.11480 4.84142
#
# Compressibility (1/GPa) = 0.03469399
#
# Stress axis : x y z
#
# Youngs Moduli (GPa) = 71.10825 84.37685 33.24202
#
# Poissons Ratio (x) = -0.24220 0.26564
# Poissons Ratio (y) = -0.20411 0.18386
# Poissons Ratio (z) = 0.56823 0.46668
#
# Static dielectric constant tensor:
#      x y z
#    x 1.996030 0.000000 -0.022080 
#    y 0.000000 1.971860 0.000000 
#    z -0.022080 0.000000 2.098320 
# 
# From -- ./inp_files/215807.got.cif
#   From: 2010.05.17/outbox.cif.g08.bks.cpg/sg15_108_cif.got.tgz:215807.got - 2010.06.03 18:47:42.
