data_PCOD9266382
_publ_section_title
;
Structure prediction by ZEFSAII (Michael W. Deem and Ramdas Pophale) SiO2 
 PCOD9266382
Probable space group: C 2/C
;
_chemical_formula_sum "Si O2"
_cell_formula_units_Z 48
_cell_length_a 14.822359
_cell_length_b 12.044389
_cell_length_c 14.509584
_cell_angle_alpha 90.000000
_cell_angle_beta 125.033895
_cell_angle_gamma 90.000000
_cell_volume 2121.004410
_symmetry_space_group_name_H-M "C 2/C"
_symmetry_group_IT_number 15
_symmetry_cell_setting 'monoclinic'
loop_
_space_group_symop_operation_xyz
x,y,z
-x,y,1/2-z
-x,-y,-z
x,-y,1/2+z
1/2+x,1/2+y,z
1/2-x,1/2+y,1/2-z
1/2-x,1/2-y,-z
1/2+x,1/2-y,1/2+z
loop_
_atom_site_type_symbol
_atom_site_label
_atom_site_fract_x
_atom_site_fract_y
_atom_site_fract_z
Si Si1 0.528795 0.534551 0.871922
Si Si2 0.106425 0.199980 0.478547
Si Si3 0.611233 0.054904 0.606902
Si Si4 0.648808 0.208205 0.808257
Si Si5 0.318412 0.420764 0.780611
Si Si6 0.385881 0.276147 0.970295
O O1 0.500000 0.530993 0.750000
O O2 0.599747 0.427326 0.940476
O O3 0.410696 0.514413 0.853251
O O4 0.585980 0.651199 0.925685
O O5 0.219562 0.207985 0.600895
O O6 0.106441 0.282853 0.389223
O O7 0.002209 0.224619 0.481979
O O8 0.613489 0.115635 0.711025
O O9 0.647968 0.149371 0.555025
O O10 0.500000 0.000000 0.500000
O O11 0.708038 0.965900 0.672587
O O12 0.624732 0.328960 0.751134
O O13 0.300417 0.351303 0.862832
#
# Coordination Sequence:
#
# PCOD9266382 Si02
#       6
#     8   8   8   8   8   8
#     4  11  20  37  62  89 120 155 206 257 309 374
#     4  10  19  37  63  96 120 152 209 266 311 364
#     4  11  23  38  59  89 130 164 202 252 317 381
#     4  10  20  35  64  95 124 159 205 261 309 365
#     4  10  20  37  57  86 119 160 206 248 308 372
#     4  10  22  37  64  87 120 162 204 257 317 372
#
# _framework density 22.630786000000001
#
# number of rings (size 3 to 8) (size 9 to 14) (size 15 to 20)
#    0.000    1.667    1.667    5.000    0.000    1.333 
#    0.000    0.833   11.000    0.000    0.000    0.000 
#    0.000    0.000    0.000    0.000    0.000    0.000 
#
# Total GULP energy -133902.973969 kJ/mol
# GULP energy per Si atom -5579.290582 kJ/mol
# Density = 2.257928 g / cm^3
# Si number density = 22.630786 Si / 1000 Ang^3
#
#
#
# Elastic Constant Matrix: (Units=GPa)
#
#
# Indices 1 2 3 4 5 6 
#
# 1 26.1799 7.8422 4.4847 0.0000 14.6646 0.0000
# 2 7.8422 101.1707 51.8732 0.0000 13.4925 0.0000
# 3 4.4847 51.8732 119.9253 0.0000 19.6549 0.0000
# 4 0.0000 0.0000 0.0000 40.9596 0.0000 8.7296
# 5 14.6646 13.4925 19.6549 0.0000 40.0336 0.0000
# 6 0.0000 0.0000 0.0000 8.7296 0.0000 19.4242
#
#
#
# Elastic Compliance Matrix: (Units=1/GPa)
#
#
# Indices 1 2 3 4 5 6 
#
# 1 0.048697 -0.002504 0.002226 0.000000 -0.018087 0.000000
# 2 -0.002504 0.012940 -0.005371 0.000000 -0.000807 0.000000
# 3 0.002226 -0.005371 0.011327 0.000000 -0.004566 0.000000
# 4 0.000000 0.000000 0.000000 0.027000 0.000000 -0.012134
# 5 -0.018087 -0.000807 -0.004566 0.000000 0.034118 0.000000
# 6 0.000000 0.000000 0.000000 -0.012134 0.000000 0.056935
#
#
# Mechanical properties :
#
#
# Convention : Reuss Voigt Hill
#
# Bulk Modulus (GPa) = 16.21627 41.74182 28.97904
# Shear Modulus (GPa) = 22.43439 32.28854 27.36146
#
# Velocity S-wave (km/s) = 3.15194 3.78134 3.48089
# Velocity P-wave (km/s) = 4.51967 6.12776 5.38409
#
# Compressibility (1/GPa) = 0.06166648
#
# Stress axis : x y z
#
# Youngs Moduli (GPa) = 20.53496 77.27976 88.28475
#
# Poissons Ratio (x) = 0.19352 -0.19656
# Poissons Ratio (y) = 0.05142 0.47420
# Poissons Ratio (z) = -0.04572 0.41509
#
# Static dielectric constant tensor:
#      x y z
#    x 1.929700 0.000000 -0.036390 
#    y 0.000000 1.870970 0.000000 
#    z -0.036390 0.000000 1.895140 
# 
# From -- ./inp_files/152739.got.cif
#   From: 2010.05.17/outbox.cif.g08.bks.cpg/sg15_77_cif.got.tgz:152739.got - 2010.06.03 18:47:42.
