data_PCOD9266796
_publ_section_title
;
Structure prediction by ZEFSAII (Michael W. Deem and Ramdas Pophale) SiO2 
 PCOD9266796
Probable space group: C 2/C
;
_chemical_formula_sum "Si O2"
_cell_formula_units_Z 52
_cell_length_a 20.694676
_cell_length_b 13.604621
_cell_length_c 9.256413
_cell_angle_alpha 90.000000
_cell_angle_beta 68.023974
_cell_angle_gamma 90.000000
_cell_volume 2416.723908
_symmetry_space_group_name_H-M "C 2/C"
_symmetry_group_IT_number 15
_symmetry_cell_setting 'monoclinic'
loop_
_space_group_symop_operation_xyz
x,y,z
-x,y,1/2-z
-x,-y,-z
x,-y,1/2+z
1/2+x,1/2+y,z
1/2-x,1/2+y,1/2-z
1/2-x,1/2-y,-z
1/2+x,1/2-y,1/2+z
loop_
_atom_site_type_symbol
_atom_site_label
_atom_site_fract_x
_atom_site_fract_y
_atom_site_fract_z
Si Si1 0.599907 0.631498 0.103468
Si Si2 0.775509 0.778283 0.141057
Si Si3 0.873827 0.287633 0.187829
Si Si4 0.621712 0.875446 0.808445
Si Si5 0.500000 0.542701 0.750000
Si Si6 0.008336 0.222978 0.948493
Si Si7 0.580938 0.034392 0.644394
O O1 0.623360 0.683036 0.231429
O O2 0.565640 0.527634 0.165706
O O3 0.665100 0.639781 0.938522
O O4 0.541148 0.700684 0.078253
O O5 0.706069 0.808137 0.284581
O O6 0.812615 0.685969 0.187212
O O7 0.750000 0.750000 0.000000
O O8 0.896900 0.369787 0.283075
O O9 0.934092 0.275514 0.020612
O O10 0.562728 0.794457 0.827263
O O11 0.627759 0.945973 0.666724
O O12 0.593641 0.941758 0.966248
O O13 0.506934 0.616807 0.877202
O O14 0.500000 0.014382 0.750000
#
# Coordination Sequence:
#
# PCOD9266796 Si02
#       7
#     8   8   8   8   4   8   8
#     4  10  19  38  61  86 119 164 217 257 318 386
#     4   9  19  40  63  88 124 172 213 255 325 399
#     4  11  19  39  67  86 123 171 210 259 326 399
#     4  11  24  40  65  96 129 172 215 279 324 399
#     4  12  24  34  62  98 120 164 212 282 314 382
#     4  11  22  39  60  91 128 160 216 267 334 376
#     4  12  22  39  66  98 123 169 228 266 330 387
#
# _framework density 21.516732000000001
#
# number of rings (size 3 to 8) (size 9 to 14) (size 15 to 20)
#    0.000    1.231    7.692    0.923    1.077    0.000 
#    2.769    1.538    0.000    4.615    0.000    0.000 
#    0.000    0.000    0.000    0.000    0.000    0.000 
#
# Total GULP energy -145219.714949 kJ/mol
# GULP energy per Si atom -5585.373652 kJ/mol
# Density = 2.146776 g / cm^3
# Si number density = 21.516732 Si / 1000 Ang^3
#
#
#
# Elastic Constant Matrix: (Units=GPa)
#
#
# Indices 1 2 3 4 5 6 
#
# 1 109.8334 28.3047 32.1902 0.0000 -27.0548 0.0000
# 2 28.3047 100.9288 10.3042 0.0000 3.5139 0.0000
# 3 32.1902 10.3042 38.0570 0.0000 -7.6195 0.0000
# 4 0.0000 0.0000 0.0000 21.8555 0.0000 12.9494
# 5 -27.0548 3.5139 -7.6195 0.0000 23.2149 0.0000
# 6 0.0000 0.0000 0.0000 12.9494 0.0000 33.3643
#
#
#
# Elastic Compliance Matrix: (Units=1/GPa)
#
#
# Indices 1 2 3 4 5 6 
#
# 1 0.017663 -0.004546 -0.010115 0.000000 0.017953 0.000000
# 2 -0.004546 0.011511 -0.000729 0.000000 -0.007279 0.000000
# 3 -0.010115 -0.000729 0.034991 0.000000 -0.000193 0.000000
# 4 0.000000 0.000000 0.000000 0.059419 0.000000 -0.023062
# 5 0.017953 -0.007279 -0.000193 0.000000 0.065036 0.000000
# 6 0.000000 0.000000 0.000000 -0.023062 0.000000 0.038923
#
#
# Mechanical properties :
#
#
# Convention : Reuss Voigt Hill
#
# Bulk Modulus (GPa) = 29.95358 43.37970 36.66664
# Shear Modulus (GPa) = 18.55634 27.55496 23.05565
#
# Velocity S-wave (km/s) = 2.93987 3.58247 3.27696
# Velocity P-wave (km/s) = 5.04729 6.10875 5.60321
#
# Compressibility (1/GPa) = 0.03338499
#
# Stress axis : x y z
#
# Youngs Moduli (GPa) = 56.61611 86.87599 28.57911
#
# Poissons Ratio (x) = 0.39492 0.28907
# Poissons Ratio (y) = 0.25736 0.02083
# Poissons Ratio (z) = 0.57266 0.06333
#
# Static dielectric constant tensor:
#      x y z
#    x 1.846710 0.000000 0.005930 
#    y 0.000000 1.766270 0.000000 
#    z 0.005930 0.000000 1.870880 
# 
# From -- ./inp_files/110943.got.cif
#   From: 2010.05.17/outbox.cif.g08.bks.cpg/sg15_56_cif.got.tgz:110943.got - 2010.06.03 18:47:42.
