data_PCOD9266929
_publ_section_title
;
Structure prediction by ZEFSAII (Michael W. Deem and Ramdas Pophale) SiO2 
 PCOD9266929
Probable space group: C 2/C
;
_chemical_formula_sum "Si O2"
_cell_formula_units_Z 56
_cell_length_a 13.105395
_cell_length_b 31.874097
_cell_length_c 7.594105
_cell_angle_alpha 90.000000
_cell_angle_beta 130.791916
_cell_angle_gamma 90.000000
_cell_volume 2401.654498
_symmetry_space_group_name_H-M "C 2/C"
_symmetry_group_IT_number 15
_symmetry_cell_setting 'monoclinic'
loop_
_space_group_symop_operation_xyz
x,y,z
-x,y,1/2-z
-x,-y,-z
x,-y,1/2+z
1/2+x,1/2+y,z
1/2-x,1/2+y,1/2-z
1/2-x,1/2-y,-z
1/2+x,1/2-y,1/2+z
loop_
_atom_site_type_symbol
_atom_site_label
_atom_site_fract_x
_atom_site_fract_y
_atom_site_fract_z
Si Si1 0.730198 0.445423 0.740194
Si Si2 0.666427 0.091210 0.790344
Si Si3 0.607301 0.183850 0.658232
Si Si4 0.390943 0.695172 0.806042
Si Si5 0.532327 0.391627 0.987929
Si Si6 0.000000 0.735717 0.250000
Si Si7 0.642619 0.027730 0.476009
Si Si8 0.500000 0.749887 0.250000
O O1 0.579288 0.425593 0.576967
O O2 0.790580 0.447028 0.611824
O O3 0.811436 0.419422 0.980496
O O4 0.751558 0.492818 0.837460
O O5 0.595357 0.135936 0.695265
O O6 0.599758 0.056598 0.592005
O O7 0.815763 0.091981 0.867370
O O8 0.740073 0.186129 0.691646
O O9 0.494884 0.204485 0.407950
O O10 0.616539 0.216793 0.828027
O O11 0.386414 0.727781 0.637970
O O12 0.463294 0.650005 0.888432
O O13 0.461020 0.720753 0.043725
O O14 0.500000 0.378248 0.750000
O O15 0.500000 0.008938 0.250000
#
# Coordination Sequence:
#
# PCOD9266929 Si02
#       8
#     8   8   8   8   8   4   8   4
#     4  11  24  45  69  99 128 178 224 276 342 406
#     4  10  24  44  66  95 135 174 220 288 328 402
#     4  10  22  39  59  92 130 172 215 274 324 389
#     4  10  19  38  63  87 132 167 217 269 329 394
#     4   9  20  41  66  97 131 171 222 279 343 389
#     4  10  22  36  60  94 125 175 218 266 328 396
#     4  12  26  44  69  97 134 182 223 271 341 407
#     4  10  20  36  62  92 121 177 216 260 326 406
#
# _framework density 23.317259
#
# number of rings (size 3 to 8) (size 9 to 14) (size 15 to 20)
#    0.000    1.714    2.143    1.286    1.000    4.571 
#    5.143    0.000    0.000    0.000    0.000    0.000 
#    0.000    0.000    0.000    0.000    0.000    0.000 
#
# Total GULP energy -156124.521335 kJ/mol
# GULP energy per Si atom -5575.875762 kJ/mol
# Density = 2.326419 g / cm^3
# Si number density = 23.317259 Si / 1000 Ang^3
#
#
#
# Elastic Constant Matrix: (Units=GPa)
#
#
# Indices 1 2 3 4 5 6 
#
# 1 101.3088 35.7466 21.7200 0.0000 -11.0980 0.0000
# 2 35.7466 123.2850 21.2036 0.0000 2.1423 0.0000
# 3 21.7200 21.2036 49.5564 0.0000 -10.9069 0.0000
# 4 0.0000 0.0000 0.0000 18.7115 0.0000 6.6287
# 5 -11.0980 2.1423 -10.9069 0.0000 34.7456 0.0000
# 6 0.0000 0.0000 0.0000 6.6287 0.0000 40.8058
#
#
#
# Elastic Compliance Matrix: (Units=1/GPa)
#
#
# Indices 1 2 3 4 5 6 
#
# 1 0.011946 -0.002943 -0.003327 0.000000 0.002953 0.000000
# 2 -0.002943 0.009592 -0.003385 0.000000 -0.002594 0.000000
# 3 -0.003327 -0.003385 0.024597 0.000000 0.006867 0.000000
# 4 0.000000 0.000000 0.000000 0.056706 0.000000 -0.009212
# 5 0.002953 -0.002594 0.006867 0.000000 0.032039 0.000000
# 6 0.000000 0.000000 0.000000 -0.009212 0.000000 0.026003
#
#
# Mechanical properties :
#
#
# Convention : Reuss Voigt Hill
#
# Bulk Modulus (GPa) = 37.27832 47.94340 42.61086
# Shear Modulus (GPa) = 26.43624 31.88460 29.16042
#
# Velocity S-wave (km/s) = 3.37079 3.70188 3.54021
# Velocity P-wave (km/s) = 5.58317 6.23521 5.91818
#
# Compressibility (1/GPa) = 0.02682524
#
# Stress axis : x y z
#
# Youngs Moduli (GPa) = 83.71080 104.25506 40.65549
#
# Poissons Ratio (x) = 0.30681 0.13525
# Poissons Ratio (y) = 0.24635 0.13762
# Poissons Ratio (z) = 0.27848 0.35292
#
# Static dielectric constant tensor:
#      x y z
#    x 2.078720 0.000000 0.050500 
#    y 0.000000 1.864000 0.000000 
#    z 0.050500 0.000000 1.994880 
# 
# From -- ./inp_files/44621.got.cif
#   From: 2010.05.17/outbox.cif.g08.bks.cpg/sg15_23_cif.got.tgz:44621.got - 2010.06.03 18:47:42.
