data_PCOD9266050
_publ_section_title
;
Structure prediction by ZEFSAII (Michael W. Deem and Ramdas Pophale) SiO2 
 PCOD9266050
Probable space group: C 2/C
;
_chemical_formula_sum "Si O2"
_cell_formula_units_Z 56
_cell_length_a 14.589850
_cell_length_b 27.789431
_cell_length_c 12.211289
_cell_angle_alpha 90.000000
_cell_angle_beta 36.450259
_cell_angle_gamma 90.000000
_cell_volume 2941.505050
_symmetry_space_group_name_H-M "C 2/C"
_symmetry_group_IT_number 15
_symmetry_cell_setting 'monoclinic'
loop_
_space_group_symop_operation_xyz
x,y,z
-x,y,1/2-z
-x,-y,-z
x,-y,1/2+z
1/2+x,1/2+y,z
1/2-x,1/2+y,1/2-z
1/2-x,1/2-y,-z
1/2+x,1/2-y,1/2+z
loop_
_atom_site_type_symbol
_atom_site_label
_atom_site_fract_x
_atom_site_fract_y
_atom_site_fract_z
Si Si1 0.890972 0.369987 0.252870
Si Si2 0.644251 0.200694 0.908119
Si Si3 0.817173 0.944568 0.933674
Si Si4 0.809631 0.282486 0.836140
Si Si5 0.317464 0.366100 0.412237
Si Si6 0.171056 0.458680 0.631013
Si Si7 0.908588 0.549348 0.056936
O O1 0.877640 0.324480 0.186910
O O2 0.743316 0.396506 0.448021
O O3 0.000000 0.358317 0.250000
O O4 0.972253 0.411860 0.103478
O O5 0.728789 0.251968 0.819026
O O6 0.753109 0.163224 0.870128
O O7 0.487828 0.210302 0.129866
O O8 0.724897 0.952663 0.907223
O O9 0.000000 0.943670 0.750000
O O10 0.764087 0.992008 0.050434
O O11 0.750000 0.250000 0.000000
O O12 0.746904 0.334750 0.924622
O O13 0.500000 0.366546 0.250000
O O14 0.250991 0.419701 0.476513
O O15 0.159534 0.435385 0.761404
O O16 0.000000 0.469220 0.750000
O O17 0.000000 0.500000 0.000000
#
# Coordination Sequence:
#
# PCOD9266050 Si02
#       7
#     8   8   8   8   8   8   8
#     4  10  22  43  62  86 119 169 216 249 303 376
#     4  11  22  39  66  87 125 163 200 253 319 378
#     4  11  24  39  58  88 127 163 206 266 310 355
#     4  10  19  37  59  90 120 155 189 248 317 369
#     4  11  22  34  55  93 128 156 197 251 308 379
#     4  12  21  36  60  87 122 163 211 248 304 385
#     4  11  20  38  61  83 115 168 207 247 302 368
#
# _framework density 19.037873999999999
#
# number of rings (size 3 to 8) (size 9 to 14) (size 15 to 20)
#    0.000    1.143    2.857    6.857    0.000    1.714 
#    0.000    3.571    0.000    0.000    0.000    0.000 
#    0.000    0.000    0.000    0.000    0.000    0.000 
#
# Total GULP energy -156118.773170 kJ/mol
# GULP energy per Si atom -5575.670470 kJ/mol
# Density = 1.899454 g / cm^3
# Si number density = 19.037874 Si / 1000 Ang^3
#
#
#
# Elastic Constant Matrix: (Units=GPa)
#
#
# Indices 1 2 3 4 5 6 
#
# 1 76.7665 24.8527 50.7873 0.0000 1.9530 0.0000
# 2 24.8527 71.0885 18.3013 0.0000 -6.5123 0.0000
# 3 50.7873 18.3013 103.6212 0.0000 -27.7896 0.0000
# 4 0.0000 0.0000 0.0000 20.5843 0.0000 10.6711
# 5 1.9530 -6.5123 -27.7896 0.0000 40.7249 0.0000
# 6 0.0000 0.0000 0.0000 10.6711 0.0000 32.6742
#
#
#
# Elastic Compliance Matrix: (Units=1/GPa)
#
#
# Indices 1 2 3 4 5 6 
#
# 1 0.024689 -0.006059 -0.014208 0.000000 -0.011848 0.000000
# 2 -0.006059 0.016241 0.001072 0.000000 0.003619 0.000000
# 3 -0.014208 0.001072 0.020384 0.000000 0.014762 0.000000
# 4 0.000000 0.000000 0.000000 0.058482 0.000000 -0.019100
# 5 -0.011848 0.003619 0.014762 0.000000 0.035775 0.000000
# 6 0.000000 0.000000 0.000000 -0.019100 0.000000 0.036843
#
#
# Mechanical properties :
#
#
# Convention : Reuss Voigt Hill
#
# Bulk Modulus (GPa) = 43.62361 48.81763 46.22062
# Shear Modulus (GPa) = 20.96902 29.29901 25.13402
#
# Velocity S-wave (km/s) = 3.32239 3.92725 3.63741
# Velocity P-wave (km/s) = 6.13853 6.80165 6.47858
#
# Compressibility (1/GPa) = 0.02292337
#
# Stress axis : x y z
#
# Youngs Moduli (GPa) = 40.50311 61.57329 49.05787
#
# Poissons Ratio (x) = 0.37307 0.69703
# Poissons Ratio (y) = 0.24541 -0.05258
# Poissons Ratio (z) = 0.57548 -0.06600
#
# Static dielectric constant tensor:
#      x y z
#    x 1.710340 0.000000 0.028950 
#    y 0.000000 1.683660 0.000000 
#    z 0.028950 0.000000 1.690250 
# 
# From -- ./inp_files/101737.got.cif
#   From: 2010.05.17/outbox.cif.g08.bks.cpg/sg15_51_cif.got.tgz:101737.got - 2010.06.03 18:47:42.
