data_PCOD9266198
_publ_section_title
;
Structure prediction by ZEFSAII (Michael W. Deem and Ramdas Pophale) SiO2 
 PCOD9266198
Probable space group: C 2/C
;
_chemical_formula_sum "Si O2"
_cell_formula_units_Z 56
_cell_length_a 18.551030
_cell_length_b 25.484968
_cell_length_c 8.513433
_cell_angle_alpha 90.000000
_cell_angle_beta 137.108194
_cell_angle_gamma 90.000000
_cell_volume 2739.422766
_symmetry_space_group_name_H-M "C 2/C"
_symmetry_group_IT_number 15
_symmetry_cell_setting 'monoclinic'
loop_
_space_group_symop_operation_xyz
x,y,z
-x,y,1/2-z
-x,-y,-z
x,-y,1/2+z
1/2+x,1/2+y,z
1/2-x,1/2+y,1/2-z
1/2-x,1/2-y,-z
1/2+x,1/2-y,1/2+z
loop_
_atom_site_type_symbol
_atom_site_label
_atom_site_fract_x
_atom_site_fract_y
_atom_site_fract_z
Si Si1 0.120763 0.537958 0.997732
Si Si2 0.487557 0.355468 0.416600
Si Si3 0.897658 0.764708 0.471558
Si Si4 0.934728 0.042257 0.995661
Si Si5 0.383338 0.847445 0.986897
Si Si6 0.206307 0.157772 0.465700
Si Si7 0.732227 0.954394 0.348534
O O1 0.139681 0.594114 0.115656
O O2 0.203606 0.538596 0.985027
O O3 0.000000 0.539315 0.750000
O O4 0.135908 0.483888 0.112975
O O5 0.500000 0.355418 0.250000
O O6 0.425641 0.304561 0.378128
O O7 0.423996 0.407558 0.367111
O O8 0.599932 0.354282 0.692575
O O9 0.876246 0.705947 0.376433
O O10 0.812793 0.793376 0.449252
O O11 0.000000 0.761307 0.750000
O O12 0.000000 0.061912 0.250000
O O13 0.832258 0.019267 0.920541
O O14 0.000000 0.000000 0.000000
O O15 0.500000 0.850656 0.250000
O O16 0.300963 0.835619 0.994777
O O17 0.240089 0.106809 0.621002
#
# Coordination Sequence:
#
# PCOD9266198 Si02
#       7
#     8   8   8   8   8   8   8
#     4  10  22  39  61  89 123 157 206 250 301 351
#     4  11  22  38  58  89 127 161 195 248 306 365
#     4   9  17  36  62  87 118 153 200 247 298 360
#     4  12  22  37  56  88 125 160 203 246 301 366
#     4   9  19  35  62  90 113 150 204 254 291 353
#     4  10  19  37  61  88 118 159 205 243 302 360
#     4  11  21  38  60  87 122 162 199 250 300 362
#
# _framework density 20.442264000000002
#
# number of rings (size 3 to 8) (size 9 to 14) (size 15 to 20)
#    0.000    1.714    2.857    2.571    2.000    0.000 
#    0.000    0.714    0.000   12.857    0.000    0.000 
#    0.000    0.000    0.000    0.000    0.000    0.143 
#
# Total GULP energy -155918.010252 kJ/mol
# GULP energy per Si atom -5568.500366 kJ/mol
# Density = 2.039574 g / cm^3
# Si number density = 20.442264 Si / 1000 Ang^3
#
#
#
# Elastic Constant Matrix: (Units=GPa)
#
#
# Indices 1 2 3 4 5 6 
#
# 1 88.4870 28.0658 13.1004 0.0000 2.7330 0.0000
# 2 28.0658 118.8038 41.4118 0.0000 -6.1254 0.0000
# 3 13.1004 41.4118 27.8267 0.0000 -2.5128 0.0000
# 4 0.0000 0.0000 0.0000 21.0245 0.0000 4.3143
# 5 2.7330 -6.1254 -2.5128 0.0000 29.3479 0.0000
# 6 0.0000 0.0000 0.0000 4.3143 0.0000 32.8114
#
#
#
# Elastic Compliance Matrix: (Units=1/GPa)
#
#
# Indices 1 2 3 4 5 6 
#
# 1 0.012437 -0.001941 -0.003133 0.000000 -0.001831 0.000000
# 2 -0.001941 0.017853 -0.025500 0.000000 0.001724 0.000000
# 3 -0.003133 -0.025500 0.075490 0.000000 0.001433 0.000000
# 4 0.000000 0.000000 0.000000 0.048882 0.000000 -0.006427
# 5 -0.001831 0.001724 0.001433 0.000000 0.034727 0.000000
# 6 0.000000 0.000000 0.000000 -0.006427 0.000000 0.031322
#
#
# Mechanical properties :
#
#
# Convention : Reuss Voigt Hill
#
# Bulk Modulus (GPa) = 22.40447 44.47483 33.43965
# Shear Modulus (GPa) = 16.85003 26.80605 21.82804
#
# Velocity S-wave (km/s) = 2.87413 3.62512 3.27125
# Velocity P-wave (km/s) = 4.69019 6.27101 5.53730
#
# Compressibility (1/GPa) = 0.04463396
#
# Stress axis : x y z
#
# Youngs Moduli (GPa) = 80.40571 56.01267 13.24684
#
# Poissons Ratio (x) = 0.10870 0.04150
# Poissons Ratio (y) = 0.15603 0.33779
# Poissons Ratio (z) = 0.25187 1.42831
#
# Static dielectric constant tensor:
#      x y z
#    x 1.755050 0.000000 0.035610 
#    y 0.000000 1.796790 0.000000 
#    z 0.035610 0.000000 1.765180 
# 
# From -- ./inp_files/51573.got.cif
#   From: 2010.05.17/outbox.cif.g08.bks.cpg/sg15_26_cif.got.tgz:51573.got - 2010.06.03 18:47:42.
