data_PCOD9266520
_publ_section_title
;
Structure prediction by ZEFSAII (Michael W. Deem and Ramdas Pophale) SiO2 
 PCOD9266520
Probable space group: C 2/C
;
_chemical_formula_sum "Si O2"
_cell_formula_units_Z 40
_cell_length_a 9.175126
_cell_length_b 17.178134
_cell_length_c 15.402576
_cell_angle_alpha 90.000000
_cell_angle_beta 123.458395
_cell_angle_gamma 90.000000
_cell_volume 2025.333478
_symmetry_space_group_name_H-M "C 2/C"
_symmetry_group_IT_number 15
_symmetry_cell_setting 'monoclinic'
loop_
_space_group_symop_operation_xyz
x,y,z
-x,y,1/2-z
-x,-y,-z
x,-y,1/2+z
1/2+x,1/2+y,z
1/2-x,1/2+y,1/2-z
1/2-x,1/2-y,-z
1/2+x,1/2-y,1/2+z
loop_
_atom_site_type_symbol
_atom_site_label
_atom_site_fract_x
_atom_site_fract_y
_atom_site_fract_z
Si Si1 0.728162 0.168461 0.380505
Si Si2 0.796923 0.182244 0.203311
Si Si3 0.348287 0.989812 0.878380
Si Si4 0.000000 0.474176 0.750000
Si Si5 0.500000 0.415897 0.250000
Si Si6 0.021789 0.204443 0.608231
O O1 0.773051 0.195322 0.298499
O O2 0.641605 0.084166 0.339949
O O3 0.899661 0.168365 0.494764
O O4 0.592372 0.227485 0.381629
O O5 0.703748 0.101084 0.148015
O O6 0.691930 0.253399 0.126580
O O7 0.000000 0.178400 0.250000
O O8 0.416602 0.016551 0.805270
O O9 0.166746 0.034475 0.836488
O O10 0.500000 0.000000 0.000000
O O11 0.438947 0.360604 0.308006
#
# Coordination Sequence:
#
# PCOD9266520 Si02
#       6
#     8   8   8   4   4   8
#     4  10  19  37  66  90 115 166 212 253 313 369
#     4  11  22  42  61  90 132 166 206 258 323 380
#     4  11  24  42  65  94 131 171 207 264 323 378
#     4  10  19  44  62  89 128 170 210 256 319 392
#     4  12  23  42  62 101 124 160 220 268 303 378
#     4  11  21  38  67  91 119 165 217 262 305 375
#
# _framework density 19.749835000000001
#
# number of rings (size 3 to 8) (size 9 to 14) (size 15 to 20)
#    0.000    1.200    7.000    1.200    2.800    0.800 
#    5.400    3.000    0.000    0.000    0.000    0.000 
#    0.000    0.000    0.000    0.000    0.000    0.000 
#
# Total GULP energy -111669.033489 kJ/mol
# GULP energy per Si atom -5583.451674 kJ/mol
# Density = 1.970488 g / cm^3
# Si number density = 19.749835 Si / 1000 Ang^3
#
#
#
# Elastic Constant Matrix: (Units=GPa)
#
#
# Indices 1 2 3 4 5 6 
#
# 1 93.5707 20.8053 35.7292 0.0000 22.3802 0.0000
# 2 20.8053 63.5129 44.8261 0.0000 15.0053 0.0000
# 3 35.7292 44.8261 131.4005 0.0000 32.4951 0.0000
# 4 0.0000 0.0000 0.0000 9.3285 0.0000 -0.4502
# 5 22.3802 15.0053 32.4951 0.0000 29.0513 0.0000
# 6 0.0000 0.0000 0.0000 -0.4502 0.0000 22.6473
#
#
#
# Elastic Compliance Matrix: (Units=1/GPa)
#
#
# Indices 1 2 3 4 5 6 
#
# 1 0.013451 -0.001725 -0.001005 0.000000 -0.008347 0.000000
# 2 -0.001725 0.021278 -0.006083 0.000000 -0.002857 0.000000
# 3 -0.001005 -0.006083 0.012428 0.000000 -0.009985 0.000000
# 4 0.000000 0.000000 0.000000 0.107301 0.000000 0.002133
# 5 -0.008347 -0.002857 -0.009985 0.000000 0.053497 0.000000
# 6 0.000000 0.000000 0.000000 0.002133 0.000000 0.044198
#
#
# Mechanical properties :
#
#
# Convention : Reuss Voigt Hill
#
# Bulk Modulus (GPa) = 33.86227 54.57837 44.22032
# Shear Modulus (GPa) = 17.88122 24.68032 21.28077
#
# Velocity S-wave (km/s) = 3.01223 3.53887 3.28612
# Velocity P-wave (km/s) = 5.41118 6.66281 6.06934
#
# Compressibility (1/GPa) = 0.02953139
#
# Stress axis : x y z
#
# Youngs Moduli (GPa) = 74.34503 46.99607 80.46275
#
# Poissons Ratio (x) = 0.08107 0.08084
# Poissons Ratio (y) = 0.12824 0.48948
# Poissons Ratio (z) = 0.07469 0.28589
#
# Static dielectric constant tensor:
#      x y z
#    x 1.721360 0.000000 0.005780 
#    y 0.000000 1.705300 0.000000 
#    z 0.005780 0.000000 1.696980 
# 
# From -- ./inp_files/133221.got.cif
#   From: 2010.05.17/outbox.cif.g08.bks.cpg/sg15_67_cif.got.tgz:133221.got - 2010.06.03 18:47:42.
