data_PCOD9266345
_publ_section_title
;
Structure prediction by ZEFSAII (Michael W. Deem and Ramdas Pophale) SiO2 
 PCOD9266345
Probable space group: C 2/C
;
_chemical_formula_sum "Si O2"
_cell_formula_units_Z 64
_cell_length_a 14.785934
_cell_length_b 14.948043
_cell_length_c 14.852498
_cell_angle_alpha 90.000000
_cell_angle_beta 63.437521
_cell_angle_gamma 90.000000
_cell_volume 2936.211570
_symmetry_space_group_name_H-M "C 2/C"
_symmetry_group_IT_number 15
_symmetry_cell_setting 'monoclinic'
loop_
_space_group_symop_operation_xyz
x,y,z
-x,y,1/2-z
-x,-y,-z
x,-y,1/2+z
1/2+x,1/2+y,z
1/2-x,1/2+y,1/2-z
1/2-x,1/2-y,-z
1/2+x,1/2-y,1/2+z
loop_
_atom_site_type_symbol
_atom_site_label
_atom_site_fract_x
_atom_site_fract_y
_atom_site_fract_z
Si Si1 0.448896 0.599507 0.182199
Si Si2 0.113473 0.047274 0.997112
Si Si3 0.261691 0.284308 0.355184
Si Si4 0.081131 0.534859 0.533971
Si Si5 0.772594 0.871826 0.877906
Si Si6 0.024311 0.287981 0.413012
Si Si7 0.764256 0.602691 0.465737
Si Si8 0.359054 0.717912 0.620713
O O1 0.500000 0.563976 0.250000
O O2 0.496566 0.543989 0.080065
O O3 0.332317 0.603492 0.260581
O O4 0.481859 0.702085 0.148756
O O5 0.164535 0.101254 0.061243
O O6 0.134045 0.114781 0.907920
O O7 0.176864 0.957823 0.962710
O O8 0.143445 0.296091 0.380062
O O9 0.276341 0.365767 0.418239
O O10 0.276932 0.192337 0.403053
O O11 0.334423 0.278231 0.236921
O O12 0.172586 0.570971 0.432842
O O13 0.134011 0.457320 0.569523
O O14 0.000000 0.500000 0.500000
O O15 0.028687 0.622481 0.601667
O O16 0.734095 0.769849 0.886890
O O17 0.960671 0.262091 0.532240
#
# Coordination Sequence:
#
# PCOD9266345 Si02
#       8
#     8   8   8   8   8   8   8   8
#     4   9  17  33  60  93 123 160 202 264 325 381
#     4   9  19  37  58  93 125 156 210 271 320 367
#     4  11  22  43  65  86 130 178 209 251 333 399
#     4  10  19  37  63  89 122 167 213 267 319 377
#     4   9  17  32  62  91 128 161 204 265 328 378
#     4  10  20  38  65  88 128 162 214 270 314 383
#     4  10  23  42  63  88 132 171 207 271 320 390
#     4  10  20  37  65  92 119 167 215 258 322 383
#
# _framework density 21.796794999999999
#
# number of rings (size 3 to 8) (size 9 to 14) (size 15 to 20)
#    0.000    2.250    2.500    0.375    0.000    3.000 
#    6.750   11.250    2.750    0.000    0.000    0.000 
#    0.000    0.000    0.000    0.000    0.000    0.000 
#
# Total GULP energy -178512.197305 kJ/mol
# GULP energy per Si atom -5578.506166 kJ/mol
# Density = 2.174718 g / cm^3
# Si number density = 21.796795 Si / 1000 Ang^3
#
#
#
# Elastic Constant Matrix: (Units=GPa)
#
#
# Indices 1 2 3 4 5 6 
#
# 1 79.5778 15.8599 4.1206 0.0000 -18.4906 0.0000
# 2 15.8599 93.0606 8.6353 0.0000 -0.0705 0.0000
# 3 4.1206 8.6353 101.1040 0.0000 -3.9017 0.0000
# 4 0.0000 0.0000 0.0000 14.5830 0.0000 3.7741
# 5 -18.4906 -0.0705 -3.9017 0.0000 25.9825 0.0000
# 6 0.0000 0.0000 0.0000 3.7741 0.0000 24.8674
#
#
#
# Elastic Compliance Matrix: (Units=1/GPa)
#
#
# Indices 1 2 3 4 5 6 
#
# 1 0.015690 -0.002667 0.000019 0.000000 0.011162 0.000000
# 2 -0.002667 0.011285 -0.000933 0.000000 -0.002008 0.000000
# 3 0.000019 -0.000933 0.010028 0.000000 0.001517 0.000000
# 4 0.000000 0.000000 0.000000 0.071377 0.000000 -0.010833
# 5 0.011162 -0.002008 0.001517 0.000000 0.046653 0.000000
# 6 0.000000 0.000000 0.000000 -0.010833 0.000000 0.041857
#
#
# Mechanical properties :
#
#
# Convention : Reuss Voigt Hill
#
# Bulk Modulus (GPa) = 33.50966 36.77488 35.14227
# Shear Modulus (GPa) = 23.36444 29.42837 26.39640
#
# Velocity S-wave (km/s) = 3.27757 3.67839 3.48375
# Velocity P-wave (km/s) = 5.45255 5.91177 5.68680
#
# Compressibility (1/GPa) = 0.02984215
#
# Stress axis : x y z
#
# Youngs Moduli (GPa) = 63.73289 88.61087 99.71850
#
# Poissons Ratio (x) = 0.23636 -0.00190
# Poissons Ratio (y) = 0.17000 0.09300
# Poissons Ratio (z) = -0.00122 0.08264
#
# Static dielectric constant tensor:
#      x y z
#    x 1.909000 0.000000 0.022610 
#    y 0.000000 1.832100 0.000000 
#    z 0.022610 0.000000 1.797440 
# 
# From -- ./inp_files/162261.got.cif
#   From: 2010.05.17/outbox.cif.g08.bks.cpg/sg15_82_cif.got.tgz:162261.got - 2010.06.03 18:47:42.
