data_PCOD9266412
_publ_section_title
;
Structure prediction by ZEFSAII (Michael W. Deem and Ramdas Pophale) SiO2 
 PCOD9266412
Probable space group: C 2/C
;
_chemical_formula_sum "Si O2"
_cell_formula_units_Z 52
_cell_length_a 13.315019
_cell_length_b 14.704609
_cell_length_c 15.758956
_cell_angle_alpha 90.000000
_cell_angle_beta 42.473992
_cell_angle_gamma 90.000000
_cell_volume 2083.487143
_symmetry_space_group_name_H-M "C 2/C"
_symmetry_group_IT_number 15
_symmetry_cell_setting 'monoclinic'
loop_
_space_group_symop_operation_xyz
x,y,z
-x,y,1/2-z
-x,-y,-z
x,-y,1/2+z
1/2+x,1/2+y,z
1/2-x,1/2+y,1/2-z
1/2-x,1/2-y,-z
1/2+x,1/2-y,1/2+z
loop_
_atom_site_type_symbol
_atom_site_label
_atom_site_fract_x
_atom_site_fract_y
_atom_site_fract_z
Si Si1 0.668621 0.520928 0.415835
Si Si2 0.862185 0.214212 0.131995
Si Si3 0.967199 0.509156 0.172403
Si Si4 0.228553 0.981867 0.575538
Si Si5 0.102066 0.796888 0.623218
Si Si6 0.033317 0.718662 0.373332
Si Si7 0.500000 0.365443 0.250000
O O1 0.500000 0.500000 0.500000
O O2 0.684150 0.628699 0.396520
O O3 0.793506 0.482936 0.272801
O O4 0.699967 0.493208 0.492341
O O5 0.710094 0.239374 0.274990
O O6 0.994711 0.184607 0.111265
O O7 0.937345 0.281930 0.018721
O O8 0.983314 0.618223 0.154513
O O9 0.000000 0.485066 0.250000
O O10 0.093275 0.472821 0.030455
O O11 0.153690 0.886034 0.642850
O O12 0.141169 0.066356 0.671032
O O13 0.250000 0.750000 0.500000
O O14 0.000000 0.738137 0.750000
O O15 0.981198 0.797554 0.341146
#
# Coordination Sequence:
#
# PCOD9266412 Si02
#       7
#     8   8   8   8   8   8   4
#     4  10  19  37  64  90 126 171 208 265 319 382
#     4  11  23  41  64  92 128 168 222 264 324 379
#     4   9  20  35  60  98 137 167 208 256 314 400
#     4  11  22  40  62  98 131 170 217 260 326 387
#     4  12  27  48  70  89 123 175 231 286 325 375
#     4  11  22  38  65 101 136 171 205 258 322 398
#     4  12  22  36  68 100 140 170 204 252 332 400
#
# _framework density 24.958155999999999
#
# number of rings (size 3 to 8) (size 9 to 14) (size 15 to 20)
#    0.000    1.231    4.615    1.846    0.000    3.077 
#    2.769    0.000    0.000    4.615    0.000    0.000 
#    0.000    0.000    0.000    0.000    0.000    0.000 
#
# Total GULP energy -145342.397099 kJ/mol
# GULP energy per Si atom -5590.092196 kJ/mol
# Density = 2.490135 g / cm^3
# Si number density = 24.958156 Si / 1000 Ang^3
#
#
#
# Elastic Constant Matrix: (Units=GPa)
#
#
# Indices 1 2 3 4 5 6 
#
# 1 57.2649 5.0982 21.0605 0.0000 -15.7475 0.0000
# 2 5.0982 62.4455 10.2004 0.0000 -3.5289 0.0000
# 3 21.0605 10.2004 146.9637 0.0000 -38.1893 0.0000
# 4 0.0000 0.0000 0.0000 31.3433 0.0000 -5.3701
# 5 -15.7475 -3.5289 -38.1893 0.0000 41.1914 0.0000
# 6 0.0000 0.0000 0.0000 -5.3701 0.0000 15.9196
#
#
#
# Elastic Compliance Matrix: (Units=1/GPa)
#
#
# Indices 1 2 3 4 5 6 
#
# 1 0.019728 -0.001070 -0.001076 0.000000 0.006453 0.000000
# 2 -0.001070 0.016262 -0.000948 0.000000 0.000105 0.000000
# 3 -0.001076 -0.000948 0.009085 0.000000 0.007930 0.000000
# 4 0.000000 0.000000 0.000000 0.033862 0.000000 0.011423
# 5 0.006453 0.000105 0.007930 0.000000 0.034105 0.000000
# 6 0.000000 0.000000 0.000000 0.011423 0.000000 0.066669
#
#
# Mechanical properties :
#
#
# Convention : Reuss Voigt Hill
#
# Bulk Modulus (GPa) = 25.71562 37.71023 31.71292
# Shear Modulus (GPa) = 25.14306 33.04521 29.09413
#
# Velocity S-wave (km/s) = 3.17741 3.64266 3.41796
# Velocity P-wave (km/s) = 4.87721 5.73011 5.32078
#
# Compressibility (1/GPa) = 0.03888688
#
# Stress axis : x y z
#
# Youngs Moduli (GPa) = 50.68891 61.49254 110.06947
#
# Poissons Ratio (x) = 0.06581 0.11844
# Poissons Ratio (y) = 0.05425 0.10435
# Poissons Ratio (z) = 0.05454 0.05830
#
# Static dielectric constant tensor:
#      x y z
#    x 2.000000 0.000000 -0.032690 
#    y 0.000000 1.962400 0.000000 
#    z -0.032690 0.000000 2.011460 
# 
# From -- ./inp_files/205647.got.cif
#   From: 2010.05.17/outbox.cif.g08.bks.cpg/sg15_103_cif.got.tgz:205647.got - 2010.06.03 18:47:42.
