data_PCOD9266729
_publ_section_title
;
Structure prediction by ZEFSAII (Michael W. Deem and Ramdas Pophale) SiO2 
 PCOD9266729
Probable space group: C 2/C
;
_chemical_formula_sum "Si O2"
_cell_formula_units_Z 56
_cell_length_a 25.400580
_cell_length_b 8.736440
_cell_length_c 15.704467
_cell_angle_alpha 90.000000
_cell_angle_beta 120.955447
_cell_angle_gamma 90.000000
_cell_volume 2988.612882
_symmetry_space_group_name_H-M "C 2/C"
_symmetry_group_IT_number 15
_symmetry_cell_setting 'monoclinic'
loop_
_space_group_symop_operation_xyz
x,y,z
-x,y,1/2-z
-x,-y,-z
x,-y,1/2+z
1/2+x,1/2+y,z
1/2-x,1/2+y,1/2-z
1/2-x,1/2-y,-z
1/2+x,1/2-y,1/2+z
loop_
_atom_site_type_symbol
_atom_site_label
_atom_site_fract_x
_atom_site_fract_y
_atom_site_fract_z
Si Si1 0.937385 0.786394 0.156942
Si Si2 0.363847 0.855572 0.035646
Si Si3 0.114304 0.526865 0.273720
Si Si4 0.172835 0.990922 0.965910
Si Si5 0.259232 0.578248 0.153058
Si Si6 0.514070 0.000623 0.412674
Si Si7 0.263184 0.056139 0.689916
O O1 0.902744 0.691787 0.202589
O O2 0.960337 0.659797 0.106997
O O3 0.000000 0.854598 0.250000
O O4 0.886112 0.899701 0.078792
O O5 0.348585 0.679171 0.029378
O O6 0.361652 0.928160 0.127257
O O7 0.431741 0.882404 0.058651
O O8 0.311561 0.934760 0.935751
O O9 0.168997 0.518519 0.252292
O O10 0.049495 0.463098 0.187286
O O11 0.201013 0.980348 0.894150
O O12 0.225319 0.020582 0.080391
O O13 0.269196 0.760605 0.179210
O O14 0.268813 0.483169 0.247219
O O15 0.500000 0.000000 0.500000
#
# Coordination Sequence:
#
# PCOD9266729 Si02
#       7
#     8   8   8   8   8   8   8
#     4   9  22  39  60  86 117 157 200 245 303 352
#     4  10  19  40  61  83 117 162 198 243 298 355
#     4  10  19  38  60  83 117 157 203 242 291 355
#     4  11  22  42  61  86 131 156 193 251 308 357
#     4  11  23  39  60  91 126 156 199 249 298 358
#     4  10  21  38  60  87 117 155 207 252 289 353
#     4  11  23  39  62  93 120 159 203 245 301 357
#
# _framework density 18.73779
#
# number of rings (size 3 to 8) (size 9 to 14) (size 15 to 20)
#    0.000    1.714    2.857    3.000    2.000    5.143 
#    2.571    0.714    0.000    0.000    0.000    0.000 
#    0.000    0.000    0.000    0.000    0.000    0.000 
#
# Total GULP energy -156174.874632 kJ/mol
# GULP energy per Si atom -5577.674094 kJ/mol
# Density = 1.869514 g / cm^3
# Si number density = 18.737790 Si / 1000 Ang^3
#
#
#
# Elastic Constant Matrix: (Units=GPa)
#
#
# Indices 1 2 3 4 5 6 
#
# 1 111.4762 24.2441 55.6364 0.0000 -0.2559 0.0000
# 2 24.2441 20.1952 24.5555 0.0000 10.4825 0.0000
# 3 55.6364 24.5555 89.9117 0.0000 -1.4619 0.0000
# 4 0.0000 0.0000 0.0000 25.8021 0.0000 8.1302
# 5 -0.2559 10.4825 -1.4619 0.0000 44.5079 0.0000
# 6 0.0000 0.0000 0.0000 8.1302 0.0000 17.3255
#
#
#
# Elastic Compliance Matrix: (Units=1/GPa)
#
#
# Indices 1 2 3 4 5 6 
#
# 1 0.014339 -0.011775 -0.005614 0.000000 0.002671 0.000000
# 2 -0.011775 0.102031 -0.020982 0.000000 -0.024787 0.000000
# 3 -0.005614 -0.020982 0.020417 0.000000 0.005580 0.000000
# 4 0.000000 0.000000 0.000000 0.045482 0.000000 -0.021343
# 5 0.002671 -0.024787 0.005580 0.000000 0.028504 0.000000
# 6 0.000000 0.000000 0.000000 -0.021343 0.000000 0.067733
#
#
# Mechanical properties :
#
#
# Convention : Reuss Voigt Hill
#
# Bulk Modulus (GPa) = 16.65409 47.82834 32.24121
# Shear Modulus (GPa) = 13.32400 25.33691 19.33046
#
# Velocity S-wave (km/s) = 2.66949 3.68119 3.21538
# Velocity P-wave (km/s) = 4.29056 6.60672 5.57035
#
# Compressibility (1/GPa) = 0.06004532
#
# Stress axis : x y z
#
# Youngs Moduli (GPa) = 69.73876 9.80098 48.97919
#
# Poissons Ratio (x) = 0.11541 0.27496
# Poissons Ratio (y) = 0.82116 1.02769
# Poissons Ratio (z) = 0.39150 0.20565
#
# Static dielectric constant tensor:
#      x y z
#    x 1.698020 0.000000 0.005040 
#    y 0.000000 1.640270 0.000000 
#    z 0.005040 0.000000 1.677230 
# 
# From -- ./inp_files/172474.got.cif
#   From: 2010.05.17/outbox.cif.g08.bks.cpg/sg15_87_cif.got.tgz:172474.got - 2010.06.03 18:47:42.
