data_PCOD9266886
_publ_section_title
;
Structure prediction by ZEFSAII (Michael W. Deem and Ramdas Pophale) SiO2 
 PCOD9266886
Probable space group: C 2/C
;
_chemical_formula_sum "Si O2"
_cell_formula_units_Z 60
_cell_length_a 11.567720
_cell_length_b 16.680800
_cell_length_c 13.947515
_cell_angle_alpha 90.000000
_cell_angle_beta 85.766530
_cell_angle_gamma 90.000000
_cell_volume 2683.952953
_symmetry_space_group_name_H-M "C 2/C"
_symmetry_group_IT_number 15
_symmetry_cell_setting 'monoclinic'
loop_
_space_group_symop_operation_xyz
x,y,z
-x,y,1/2-z
-x,-y,-z
x,-y,1/2+z
1/2+x,1/2+y,z
1/2-x,1/2+y,1/2-z
1/2-x,1/2-y,-z
1/2+x,1/2-y,1/2+z
loop_
_atom_site_type_symbol
_atom_site_label
_atom_site_fract_x
_atom_site_fract_y
_atom_site_fract_z
Si Si1 0.718650 0.117074 0.166725
Si Si2 0.971810 0.403529 0.421885
Si Si3 0.968517 0.097621 0.111726
Si Si4 0.316016 0.974840 0.019442
Si Si5 0.000000 0.529967 0.250000
Si Si6 0.386130 0.740940 0.466589
Si Si7 0.413737 0.438765 0.391326
Si Si8 0.445876 0.741132 0.855027
O O1 0.855839 0.129220 0.176441
O O2 0.663379 0.199210 0.128478
O O3 0.619442 0.081774 0.244119
O O4 0.724862 0.048397 0.084213
O O5 0.098858 0.402498 0.458492
O O6 0.985806 0.469571 0.339213
O O7 0.887075 0.443532 0.505642
O O8 0.923003 0.317637 0.401075
O O9 0.940508 0.082984 0.000606
O O10 0.001267 0.008967 0.145564
O O11 0.072815 0.161819 0.093425
O O12 0.212719 0.977739 0.099468
O O13 0.250000 0.750000 0.500000
O O14 0.463652 0.746819 0.560900
O O15 0.412464 0.352157 0.344192
O O16 0.500000 0.764281 0.750000
#
# Coordination Sequence:
#
# PCOD9266886 Si02
#       8
#     8   8   8   8   4   8   8   8
#     4  10  19  38  62  91 122 164 215 275 324 376
#     4  10  20  36  59  93 121 172 211 261 323 397
#     4   9  20  37  63  88 123 162 211 262 325 395
#     4   9  18  33  61  83 119 156 216 256 312 391
#     4  10  22  38  60  88 130 164 212 274 326 378
#     4  11  23  41  67  93 134 176 221 264 337 407
#     4   9  19  37  58  90 116 159 204 267 325 376
#     4  11  23  39  67  96 127 166 225 280 326 383
#
# _framework density 22.355086
#
# number of rings (size 3 to 8) (size 9 to 14) (size 15 to 20)
#    0.000    2.133    2.000    0.800    1.867    4.800 
#    4.800    0.000    1.467    0.000    0.000    0.000 
#    0.000    0.000    0.000    0.000    0.000    0.000 
#
# Total GULP energy -167088.085763 kJ/mol
# GULP energy per Si atom -5569.602859 kJ/mol
# Density = 2.230420 g / cm^3
# Si number density = 22.355086 Si / 1000 Ang^3
#
#
#
# Elastic Constant Matrix: (Units=GPa)
#
#
# Indices 1 2 3 4 5 6 
#
# 1 107.2537 50.5894 22.6180 0.0000 -40.1676 0.0000
# 2 50.5894 133.1921 25.9072 0.0000 -20.7330 0.0000
# 3 22.6180 25.9072 59.1450 0.0000 -12.0468 0.0000
# 4 0.0000 0.0000 0.0000 15.1577 0.0000 4.5204
# 5 -40.1676 -20.7330 -12.0468 0.0000 26.6066 0.0000
# 6 0.0000 0.0000 0.0000 4.5204 0.0000 10.3073
#
#
#
# Elastic Compliance Matrix: (Units=1/GPa)
#
#
# Indices 1 2 3 4 5 6 
#
# 1 0.023054 -0.003691 -0.000767 0.000000 0.031580 0.000000
# 2 -0.003691 0.009523 -0.002626 0.000000 0.000660 0.000000
# 3 -0.000767 -0.002626 0.019496 0.000000 0.005624 0.000000
# 4 0.000000 0.000000 0.000000 0.075900 0.000000 -0.033287
# 5 0.031580 0.000660 0.005624 0.000000 0.088321 0.000000
# 6 0.000000 0.000000 0.000000 -0.033287 0.000000 0.111617
#
#
# Mechanical properties :
#
#
# Convention : Reuss Voigt Hill
#
# Bulk Modulus (GPa) = 26.38114 55.31332 40.84723
# Shear Modulus (GPa) = 14.09586 23.77940 18.93763
#
# Velocity S-wave (km/s) = 2.51379 3.26500 2.91370
# Velocity P-wave (km/s) = 4.50023 6.24583 5.44346
#
# Compressibility (1/GPa) = 0.03790587
#
# Stress axis : x y z
#
# Youngs Moduli (GPa) = 43.37730 105.00513 51.29157
#
# Poissons Ratio (x) = 0.38760 0.03933
# Poissons Ratio (y) = 0.16012 0.13467
# Poissons Ratio (z) = 0.03326 0.27570
#
# Static dielectric constant tensor:
#      x y z
#    x 1.942290 0.000000 0.050680 
#    y 0.000000 1.843260 0.000000 
#    z 0.050680 0.000000 1.907510 
# 
# From -- ./inp_files/198292.got.cif
#   From: 2010.05.17/outbox.cif.g08.bks.cpg/sg15_100_cif.got.tgz:198292.got - 2010.06.03 18:47:42.
