data_PCOD9266735
_publ_section_title
;
Structure prediction by ZEFSAII (Michael W. Deem and Ramdas Pophale) SiO2 
 PCOD9266735
Probable space group: C 2/C
;
_chemical_formula_sum "Si O2"
_cell_formula_units_Z 64
_cell_length_a 13.073400
_cell_length_b 13.792852
_cell_length_c 26.963834
_cell_angle_alpha 90.000000
_cell_angle_beta 138.373225
_cell_angle_gamma 90.000000
_cell_volume 3229.777222
_symmetry_space_group_name_H-M "C 2/C"
_symmetry_group_IT_number 15
_symmetry_cell_setting 'monoclinic'
loop_
_space_group_symop_operation_xyz
x,y,z
-x,y,1/2-z
-x,-y,-z
x,-y,1/2+z
1/2+x,1/2+y,z
1/2-x,1/2+y,1/2-z
1/2-x,1/2-y,-z
1/2+x,1/2-y,1/2+z
loop_
_atom_site_type_symbol
_atom_site_label
_atom_site_fract_x
_atom_site_fract_y
_atom_site_fract_z
Si Si1 0.380734 0.422296 0.621825
Si Si2 0.340865 0.215930 0.582198
Si Si3 0.902559 0.528527 0.550190
Si Si4 0.609205 0.413855 0.186125
Si Si5 0.852807 0.895715 0.407663
Si Si6 0.210035 0.092822 0.056797
Si Si7 0.613294 0.723152 0.837108
Si Si8 0.242248 0.535801 0.655861
O O1 0.427448 0.310781 0.633085
O O2 0.216891 0.438610 0.535221
O O3 0.501357 0.492167 0.638271
O O4 0.352376 0.460974 0.666895
O O5 0.250000 0.250000 0.500000
O O6 0.431699 0.121540 0.596598
O O7 0.226468 0.179247 0.583623
O O8 0.815307 0.447264 0.550332
O O9 0.068073 0.499831 0.590097
O O10 0.696006 0.388261 0.167224
O O11 0.496726 0.326391 0.161721
O O12 0.708399 0.444182 0.269820
O O13 0.037359 0.882484 0.476722
O O14 0.811535 0.002633 0.413301
O O15 0.293807 0.184239 0.111284
O O16 0.500000 0.745747 0.750000
O O17 0.729122 0.637758 0.861842
#
# Coordination Sequence:
#
# PCOD9266735 Si02
#       8
#     8   8   8   8   8   8   8   8
#     4  10  19  38  60  85 117 153 198 239 292 355
#     4   9  21  36  59  87 118 146 195 248 295 351
#     4  10  20  37  56  90 115 147 197 247 291 345
#     4  10  21  41  58  83 120 158 195 241 297 357
#     4  10  21  38  58  87 113 155 193 242 295 353
#     4  10  21  36  59  83 116 150 196 237 292 353
#     4   9  21  38  57  83 116 156 197 238 295 353
#     4  10  22  38  59  84 120 157 193 247 298 346
#
# _framework density 19.815608999999998
#
# number of rings (size 3 to 8) (size 9 to 14) (size 15 to 20)
#    0.000    2.250    1.250    1.500    5.250    2.500 
#    0.000    6.875    0.000    0.000    0.000    0.000 
#    0.000    0.000    0.000    0.000    0.000    0.000 
#
# Total GULP energy -178566.706916 kJ/mol
# GULP energy per Si atom -5580.209591 kJ/mol
# Density = 1.977051 g / cm^3
# Si number density = 19.815609 Si / 1000 Ang^3
#
#
#
# Elastic Constant Matrix: (Units=GPa)
#
#
# Indices 1 2 3 4 5 6 
#
# 1 78.9944 7.9082 22.9290 0.0000 -19.8751 0.0000
# 2 7.9082 90.1384 19.2293 0.0000 -6.7731 0.0000
# 3 22.9290 19.2293 50.1052 0.0000 -12.0047 0.0000
# 4 0.0000 0.0000 0.0000 21.8223 0.0000 3.4476
# 5 -19.8751 -6.7731 -12.0047 0.0000 36.7210 0.0000
# 6 0.0000 0.0000 0.0000 3.4476 0.0000 3.1596
#
#
#
# Elastic Compliance Matrix: (Units=1/GPa)
#
#
# Indices 1 2 3 4 5 6 
#
# 1 0.016038 0.000352 -0.005836 0.000000 0.006838 0.000000
# 2 0.000352 0.012111 -0.004587 0.000000 0.000925 0.000000
# 3 -0.005836 -0.004587 0.025421 0.000000 0.004306 0.000000
# 4 0.000000 0.000000 0.000000 0.055369 0.000000 -0.060417
# 5 0.006838 0.000925 0.004306 0.000000 0.032511 0.000000
# 6 0.000000 0.000000 0.000000 -0.060417 0.000000 0.382423
#
#
# Mechanical properties :
#
#
# Convention : Reuss Voigt Hill
#
# Bulk Modulus (GPa) = 29.91630 35.48567 32.70098
# Shear Modulus (GPa) = 9.00641 23.61868 16.31254
#
# Velocity S-wave (km/s) = 2.13424 3.45617 2.87229
# Velocity P-wave (km/s) = 4.60472 5.82011 5.24772
#
# Compressibility (1/GPa) = 0.03342660
#
# Stress axis : x y z
#
# Youngs Moduli (GPa) = 62.35090 82.56741 39.33771
#
# Poissons Ratio (x) = -0.02904 0.22958
# Poissons Ratio (y) = -0.02193 0.18046
# Poissons Ratio (z) = 0.36389 0.37878
#
# Static dielectric constant tensor:
#      x y z
#    x 1.696120 0.000000 -0.024770 
#    y 0.000000 1.694520 0.000000 
#    z -0.024770 0.000000 1.712400 
# 
# From -- ./inp_files/296414.got.cif
#   From: 2010.05.17/outbox.cif.g08.bks.cpg/sg15_149_cif.got.tgz:296414.got - 2010.06.03 18:47:42.
