data_PCOD9266470
_publ_section_title
;
Structure prediction by ZEFSAII (Michael W. Deem and Ramdas Pophale) SiO2 
 PCOD9266470
Probable space group: C 2/C
;
_chemical_formula_sum "Si O2"
_cell_formula_units_Z 44
_cell_length_a 9.887834
_cell_length_b 16.385398
_cell_length_c 11.840406
_cell_angle_alpha 90.000000
_cell_angle_beta 70.267187
_cell_angle_gamma 90.000000
_cell_volume 1805.686531
_symmetry_space_group_name_H-M "C 2/C"
_symmetry_group_IT_number 15
_symmetry_cell_setting 'monoclinic'
loop_
_space_group_symop_operation_xyz
x,y,z
-x,y,1/2-z
-x,-y,-z
x,-y,1/2+z
1/2+x,1/2+y,z
1/2-x,1/2+y,1/2-z
1/2-x,1/2-y,-z
1/2+x,1/2-y,1/2+z
loop_
_atom_site_type_symbol
_atom_site_label
_atom_site_fract_x
_atom_site_fract_y
_atom_site_fract_z
Si Si1 0.000000 0.731656 0.750000
Si Si2 0.056665 0.313071 0.614310
Si Si3 0.126921 0.132261 0.555683
Si Si4 0.783291 0.506690 0.645100
Si Si5 0.921744 0.397760 0.439696
Si Si6 0.600492 0.391621 0.825174
O O1 0.900826 0.670692 0.850745
O O2 0.905319 0.793139 0.698556
O O3 0.053349 0.215621 0.611222
O O4 0.218090 0.342498 0.542587
O O5 0.000000 0.341233 0.750000
O O6 0.961596 0.347964 0.540859
O O7 0.167439 0.076091 0.649382
O O8 0.049784 0.095435 0.467015
O O9 0.801491 0.458571 0.520153
O O10 0.738535 0.445358 0.756105
O O11 0.936329 0.548813 0.628304
O O12 0.500000 0.420022 0.750000
#
# Coordination Sequence:
#
# PCOD9266470 Si02
#       6
#     4   8   8   8   8   8
#     4  10  22  40  62  84 128 164 200 254 300 376
#     4  10  19  37  65  88 122 158 203 248 309 363
#     4  10  21  38  58  92 122 157 204 258 295 373
#     4  10  23  38  63  91 123 158 206 254 312 352
#     4  10  21  41  62  97 117 159 209 254 304 365
#     4  10  22  41  58  84 129 162 198 257 302 366
#
# _framework density 24.367463999999998
#
# number of rings (size 3 to 8) (size 9 to 14) (size 15 to 20)
#    0.545    1.455    1.818    1.091    2.545    2.182 
#    3.273    1.818    0.000    0.000    0.000    0.000 
#    0.000    0.000    0.000    0.000    0.000    0.000 
#
# Total GULP energy -122873.904919 kJ/mol
# GULP energy per Si atom -5585.177496 kJ/mol
# Density = 2.431200 g / cm^3
# Si number density = 24.367464 Si / 1000 Ang^3
#
#
#
# Elastic Constant Matrix: (Units=GPa)
#
#
# Indices 1 2 3 4 5 6 
#
# 1 27.5476 7.2034 -7.8967 0.0000 8.8499 0.0000
# 2 7.2034 119.2233 8.2775 0.0000 -9.1541 0.0000
# 3 -7.8967 8.2775 52.3589 0.0000 5.4483 0.0000
# 4 0.0000 0.0000 0.0000 47.0907 0.0000 1.7994
# 5 8.8499 -9.1541 5.4483 0.0000 22.3734 0.0000
# 6 0.0000 0.0000 0.0000 1.7994 0.0000 14.5603
#
#
#
# Elastic Compliance Matrix: (Units=1/GPa)
#
#
# Indices 1 2 3 4 5 6 
#
# 1 0.048544 -0.005524 0.010699 0.000000 -0.024067 0.000000
# 2 -0.005524 0.009454 -0.003034 0.000000 0.006792 0.000000
# 3 0.010699 -0.003034 0.022328 0.000000 -0.010911 0.000000
# 4 0.000000 0.000000 0.000000 0.021336 0.000000 -0.002637
# 5 -0.024067 0.006792 -0.010911 0.000000 0.059652 0.000000
# 6 0.000000 0.000000 0.000000 -0.002637 0.000000 0.069006
#
#
# Mechanical properties :
#
#
# Convention : Reuss Voigt Hill
#
# Bulk Modulus (GPa) = 11.81938 23.81092 17.81515
# Shear Modulus (GPa) = 19.66650 29.57457 24.62054
#
# Velocity S-wave (km/s) = 2.84400 3.48759 3.18210
# Velocity P-wave (km/s) = 3.95543 5.10005 4.56377
#
# Compressibility (1/GPa) = 0.08460677
#
# Stress axis : x y z
#
# Youngs Moduli (GPa) = 20.59989 105.78085 44.78767
#
# Poissons Ratio (x) = 0.58430 -0.47918
# Poissons Ratio (y) = 0.11379 0.13590
# Poissons Ratio (z) = -0.22040 0.32097
#
# Static dielectric constant tensor:
#      x y z
#    x 2.026310 0.000000 0.002630 
#    y 0.000000 1.923800 0.000000 
#    z 0.002630 0.000000 1.925860 
# 
# From -- ./inp_files/87729.got.cif
#   From: 2010.05.17/outbox.cif.g08.bks.cpg/sg15_44_cif.got.tgz:87729.got - 2010.06.03 18:47:42.
