data_PCOD9266570
_publ_section_title
;
Structure prediction by ZEFSAII (Michael W. Deem and Ramdas Pophale) SiO2 
 PCOD9266570
Probable space group: C 2/C
;
_chemical_formula_sum "Si O2"
_cell_formula_units_Z 52
_cell_length_a 8.625764
_cell_length_b 27.606683
_cell_length_c 12.462152
_cell_angle_alpha 90.000000
_cell_angle_beta 119.799874
_cell_angle_gamma 90.000000
_cell_volume 2575.180930
_symmetry_space_group_name_H-M "C 2/C"
_symmetry_group_IT_number 15
_symmetry_cell_setting 'monoclinic'
loop_
_space_group_symop_operation_xyz
x,y,z
-x,y,1/2-z
-x,-y,-z
x,-y,1/2+z
1/2+x,1/2+y,z
1/2-x,1/2+y,1/2-z
1/2-x,1/2-y,-z
1/2+x,1/2-y,1/2+z
loop_
_atom_site_type_symbol
_atom_site_label
_atom_site_fract_x
_atom_site_fract_y
_atom_site_fract_z
Si Si1 0.797188 0.803784 0.685636
Si Si2 0.309448 0.871061 0.650409
Si Si3 0.004594 0.943271 0.020924
Si Si4 0.500000 0.597407 0.750000
Si Si5 0.327678 0.156771 0.805826
Si Si6 0.091378 0.285117 0.977383
Si Si7 0.786555 0.631977 0.552473
O O1 0.773867 0.838055 0.782490
O O2 0.614248 0.771598 0.620793
O O3 0.772050 0.836415 0.569341
O O4 0.000000 0.783930 0.750000
O O5 0.500000 0.892790 0.750000
O O6 0.170060 0.912568 0.572698
O O7 0.365023 0.834016 0.574483
O O8 0.026149 0.934241 0.154507
O O9 0.169007 0.915989 0.020011
O O10 0.000000 0.000000 0.000000
O O11 0.667287 0.632916 0.814427
O O12 0.270725 0.159670 0.662108
O O13 0.501729 0.122902 0.878567
O O14 0.387320 0.204870 0.888439
O O15 0.250000 0.250000 0.000000
#
# Coordination Sequence:
#
# PCOD9266570 Si02
#       7
#     8   8   8   4   8   8   8
#     4  10  19  37  68  86 123 164 202 252 317 379
#     4  10  21  40  61  88 127 162 202 257 320 372
#     4  11  22  38  60  90 124 164 215 256 305 376
#     4  10  20  38  60  84 118 162 206 254 312 362
#     4   9  18  37  64  86 118 156 201 256 311 364
#     4  10  21  40  67  92 117 161 213 259 315 385
#     4   9  19  36  61  89 118 164 197 250 318 362
#
# _framework density 20.192754999999998
#
# number of rings (size 3 to 8) (size 9 to 14) (size 15 to 20)
#    0.000    2.154    3.077    0.000    0.000    1.231 
#    9.692    1.538    6.769    0.000    0.000    0.000 
#    0.000    0.000    0.000    0.000    0.000    0.000 
#
# Total GULP energy -145032.798269 kJ/mol
# GULP energy per Si atom -5578.184549 kJ/mol
# Density = 2.014680 g / cm^3
# Si number density = 20.192755 Si / 1000 Ang^3
#
#
#
# Elastic Constant Matrix: (Units=GPa)
#
#
# Indices 1 2 3 4 5 6 
#
# 1 126.0629 36.2761 25.3436 0.0000 35.8877 0.0000
# 2 36.2761 57.9032 22.6530 0.0000 26.6084 0.0000
# 3 25.3436 22.6530 80.9427 0.0000 9.5612 0.0000
# 4 0.0000 0.0000 0.0000 11.7050 0.0000 2.8630
# 5 35.8877 26.6084 9.5612 0.0000 43.6939 0.0000
# 6 0.0000 0.0000 0.0000 2.8630 0.0000 21.1539
#
#
#
# Elastic Compliance Matrix: (Units=1/GPa)
#
#
# Indices 1 2 3 4 5 6 
#
# 1 0.011147 -0.003127 -0.001805 0.000000 -0.006857 0.000000
# 2 -0.003127 0.027119 -0.005095 0.000000 -0.012832 0.000000
# 3 -0.001805 -0.005095 0.014170 0.000000 0.001485 0.000000
# 4 0.000000 0.000000 0.000000 0.088359 0.000000 -0.011958
# 5 -0.006857 -0.012832 0.001485 0.000000 0.036007 0.000000
# 6 0.000000 0.000000 0.000000 -0.011958 0.000000 0.048891
#
#
# Mechanical properties :
#
#
# Convention : Reuss Voigt Hill
#
# Bulk Modulus (GPa) = 30.88076 48.16156 39.52116
# Shear Modulus (GPa) = 19.49006 27.35297 23.42152
#
# Velocity S-wave (km/s) = 3.11014 3.68447 3.40942
# Velocity P-wave (km/s) = 5.31258 6.48098 5.92565
#
# Compressibility (1/GPa) = 0.03238262
#
# Stress axis : x y z
#
# Youngs Moduli (GPa) = 89.70930 36.87475 70.57069
#
# Poissons Ratio (x) = 0.11529 0.12740
# Poissons Ratio (y) = 0.28048 0.35955
# Poissons Ratio (z) = 0.16195 0.18787
#
# Static dielectric constant tensor:
#      x y z
#    x 1.751460 0.000000 0.005640 
#    y 0.000000 1.687150 0.000000 
#    z 0.005640 0.000000 1.781380 
# 
# From -- ./inp_files/138303.got.cif
#   From: 2010.05.17/outbox.cif.g08.bks.cpg/sg15_70_cif.got.tgz:138303.got - 2010.06.03 18:47:42.
