data_PCOD9266839
_publ_section_title
;
Structure prediction by ZEFSAII (Michael W. Deem and Ramdas Pophale) SiO2 
 PCOD9266839
Probable space group: C 2/C
;
_chemical_formula_sum "Si O2"
_cell_formula_units_Z 48
_cell_length_a 17.496334
_cell_length_b 25.773060
_cell_length_c 5.365166
_cell_angle_alpha 90.000000
_cell_angle_beta 72.143039
_cell_angle_gamma 90.000000
_cell_volume 2302.784633
_symmetry_space_group_name_H-M "C 2/C"
_symmetry_group_IT_number 15
_symmetry_cell_setting 'monoclinic'
loop_
_space_group_symop_operation_xyz
x,y,z
-x,y,1/2-z
-x,-y,-z
x,-y,1/2+z
1/2+x,1/2+y,z
1/2-x,1/2+y,1/2-z
1/2-x,1/2-y,-z
1/2+x,1/2-y,1/2+z
loop_
_atom_site_type_symbol
_atom_site_label
_atom_site_fract_x
_atom_site_fract_y
_atom_site_fract_z
Si Si1 0.312920 0.797114 0.437100
Si Si2 0.904472 0.559015 0.345523
Si Si3 0.315058 0.389574 0.934948
Si Si4 0.095688 0.732126 0.154289
Si Si5 0.834938 0.558173 0.915056
Si Si6 0.904289 0.856817 0.345721
O O1 0.250000 0.750000 0.500000
O O2 0.256301 0.847187 0.493704
O O3 0.365454 0.790919 0.634307
O O4 0.365466 0.790918 0.134837
O O5 0.870125 0.583366 0.630313
O O6 0.871071 0.499995 0.378923
O O7 0.000000 0.558114 0.250000
O O8 0.870126 0.583366 0.129424
O O9 0.366023 0.380915 0.634157
O O10 0.261280 0.441615 0.988727
O O11 0.366019 0.380913 0.133819
O O12 0.111058 0.794603 0.138921
O O13 0.000000 0.724071 0.250000
O O14 0.000000 0.864244 0.250000
#
# Coordination Sequence:
#
# PCOD9266839 Si02
#       6
#     8   8   8   8   8   8
#     4  12  21  37  56  80 111 152 185 235 293 328
#     4  10  19  38  62  84 113 156 188 215 266 336
#     4  12  23  36  57  88 112 139 188 239 284 329
#     4  11  22  38  55  76 105 151 198 226 274 343
#     4  10  20  34  55  88 113 142 185 227 269 321
#     4  11  22  38  58  79 106 145 190 238 275 323
#
# _framework density 20.844329999999999
#
# number of rings (size 3 to 8) (size 9 to 14) (size 15 to 20)
#    0.000    1.000    3.333    6.000    0.000    2.667 
#    0.000    6.667    0.000    0.000    0.000   46.667 
#    0.000    0.000    0.000    0.000    0.000    0.000 
#
# Total GULP energy -134162.765681 kJ/mol
# GULP energy per Si atom -5590.115237 kJ/mol
# Density = 2.079689 g / cm^3
# Si number density = 20.844330 Si / 1000 Ang^3
#
#
#
# Elastic Constant Matrix: (Units=GPa)
#
#
# Indices 1 2 3 4 5 6 
#
# 1 151.7655 30.1769 105.4984 0.0000 8.4174 0.0000
# 2 30.1769 30.9001 19.3126 0.0000 -3.3503 0.0000
# 3 105.4984 19.3126 247.1913 0.0000 20.8545 0.0000
# 4 0.0000 0.0000 0.0000 -8.8211 0.0000 -14.6057
# 5 8.4174 -3.3503 20.8545 0.0000 40.6903 0.0000
# 6 0.0000 0.0000 0.0000 -14.6057 0.0000 38.6521
#
#
#
# Elastic Compliance Matrix: (Units=1/GPa)
#
#
# Indices 1 2 3 4 5 6 
#
# 1 0.011099 -0.008443 -0.003998 0.000000 -0.000942 0.000000
# 2 -0.008443 0.041200 -0.000051 0.000000 0.005165 0.000000
# 3 -0.003998 -0.000051 0.005943 0.000000 -0.002223 0.000000
# 4 0.000000 0.000000 0.000000 -0.069734 0.000000 -0.026351
# 5 -0.000942 0.005165 -0.002223 0.000000 0.026336 0.000000
# 6 0.000000 0.000000 0.000000 -0.026351 0.000000 0.015914
#
#
# Mechanical properties :
#
#
# Convention : Reuss Voigt Hill
#
# Bulk Modulus (GPa) = 30.06793 82.20363 56.13578
# Shear Modulus (GPa) = 74.81831 32.42886 53.62358
#
# Velocity S-wave (km/s) = 5.99765 3.94860 5.07756
# Velocity P-wave (km/s) = 7.90055 7.76602 7.83357
#
# Compressibility (1/GPa) = 0.03325802
#
# Stress axis : x y z
#
# Youngs Moduli (GPa) = 90.09604 24.27202 168.25711
#
# Poissons Ratio (x) = 0.20493 0.67268
# Poissons Ratio (y) = 0.76067 0.00863
# Poissons Ratio (z) = 0.36020 0.00124
#
# Static dielectric constant tensor:
#      x y z
#    x 1.726420 0.000000 0.004280 
#    y 0.000000 1.733590 0.000000 
#    z 0.004280 0.000000 1.740380 
# 
# From -- ./inp_files/8707.got.cif
#   From: 2010.05.17/outbox.cif.g08.bks.cpg/sg15_5_cif.got.tgz:8707.got - 2010.06.03 18:47:42.
