data_PCOD9266705
_publ_section_title
;
Structure prediction by ZEFSAII (Michael W. Deem and Ramdas Pophale) SiO2 
 PCOD9266705
Probable space group: C 2/C
;
_chemical_formula_sum "Si O2"
_cell_formula_units_Z 40
_cell_length_a 7.418657
_cell_length_b 12.326827
_cell_length_c 15.452593
_cell_angle_alpha 90.000000
_cell_angle_beta 87.003612
_cell_angle_gamma 90.000000
_cell_volume 1411.184505
_symmetry_space_group_name_H-M "C 2/C"
_symmetry_group_IT_number 15
_symmetry_cell_setting 'monoclinic'
loop_
_space_group_symop_operation_xyz
x,y,z
-x,y,1/2-z
-x,-y,-z
x,-y,1/2+z
1/2+x,1/2+y,z
1/2-x,1/2+y,1/2-z
1/2-x,1/2-y,-z
1/2+x,1/2-y,1/2+z
loop_
_atom_site_type_symbol
_atom_site_label
_atom_site_fract_x
_atom_site_fract_y
_atom_site_fract_z
Si Si1 0.831852 0.981064 0.131365
Si Si2 0.351503 0.823779 0.128480
Si Si3 0.666262 0.130580 0.489266
Si Si4 0.500000 0.000926 0.250000
Si Si5 0.464444 0.752079 0.652548
Si Si6 0.500000 0.631042 0.250000
O O1 0.784226 0.964347 0.030413
O O2 0.664030 0.039431 0.182705
O O3 0.837218 0.853563 0.156240
O O4 0.002804 0.039393 0.170607
O O5 0.478614 0.857086 0.045325
O O6 0.379734 0.924839 0.190215
O O7 0.148889 0.792460 0.106319
O O8 0.417089 0.722059 0.185151
O O9 0.750000 0.250000 0.500000
O O10 0.625986 0.143671 0.389101
O O11 0.500000 0.779771 0.750000
#
# Coordination Sequence:
#
# PCOD9266705 Si02
#       6
#     8   8   8   4   8   4
#     4  10  19  38  59  87 122 156 201 240 301 355
#     4  10  20  35  59  88 122 150 202 250 299 346
#     4   9  21  37  62  89 117 155 209 253 284 351
#     4   9  16  34  58  83 110 160 200 243 276 360
#     4  11  19  37  67  85 112 158 211 241 291 353
#     4  11  22  36  58  91 126 160 190 245 308 360
#
# _framework density 28.344982000000002
#
# number of rings (size 3 to 8) (size 9 to 14) (size 15 to 20)
#    0.000    2.000    3.000    0.600    2.800    0.000 
#    1.800    5.000    0.000    0.000    0.000    0.000 
#    0.000    0.000    0.000    0.000    0.000    0.000 
#
# Total GULP energy -111424.002546 kJ/mol
# GULP energy per Si atom -5571.200127 kJ/mol
# Density = 2.828047 g / cm^3
# Si number density = 28.344982 Si / 1000 Ang^3
#
#
#
# Elastic Constant Matrix: (Units=GPa)
#
#
# Indices 1 2 3 4 5 6 
#
# 1 100.0215 32.7890 7.4554 0.0000 1.8189 0.0000
# 2 32.7890 124.0288 37.7069 0.0000 19.2663 0.0000
# 3 7.4554 37.7069 83.3577 0.0000 36.2862 0.0000
# 4 0.0000 0.0000 0.0000 -142.1129 0.0000 -32.6829
# 5 1.8189 19.2663 36.2862 0.0000 36.2940 0.0000
# 6 0.0000 0.0000 0.0000 -32.6829 0.0000 49.3220
#
#
#
# Elastic Compliance Matrix: (Units=1/GPa)
#
#
# Indices 1 2 3 4 5 6 
#
# 1 0.010986 -0.003053 -0.000119 0.000000 0.001189 0.000000
# 2 -0.003053 0.010231 -0.003643 0.000000 -0.001636 0.000000
# 3 -0.000119 -0.003643 0.022682 0.000000 -0.020738 0.000000
# 4 0.000000 0.000000 0.000000 -0.006106 0.000000 -0.004046
# 5 0.001189 -0.001636 -0.020738 0.000000 0.049095 0.000000
# 6 0.000000 0.000000 0.000000 -0.004046 0.000000 0.017594
#
#
# Mechanical properties :
#
#
# Convention : Reuss Voigt Hill
#
# Bulk Modulus (GPa) = 33.03666 51.47896 42.25781
# Shear Modulus (GPa) = 39.00104 3.99774 21.49939
#
# Velocity S-wave (km/s) = 3.71339 1.18889 2.75706
# Velocity P-wave (km/s) = 5.48327 4.48170 5.00759
#
# Compressibility (1/GPa) = 0.03026940
#
# Stress axis : x y z
#
# Youngs Moduli (GPa) = 91.02601 97.73887 44.08734
#
# Poissons Ratio (x) = 0.29837 0.00526
# Poissons Ratio (y) = 0.27788 0.16061
# Poissons Ratio (z) = 0.01086 0.35606
#
# Static dielectric constant tensor:
#      x y z
#    x 2.350710 0.000000 0.099350 
#    y 0.000000 2.275020 0.000000 
#    z 0.099350 0.000000 2.346730 
# 
# From -- ./inp_files/133249.got.cif
#   From: 2010.05.17/outbox.cif.g08.bks.cpg/sg15_67_cif.got.tgz:133249.got - 2010.06.03 18:47:42.
