data_PCOD9266609
_publ_section_title
;
Structure prediction by ZEFSAII (Michael W. Deem and Ramdas Pophale) SiO2 
 PCOD9266609
Probable space group: C 2/C
;
_chemical_formula_sum "Si O2"
_cell_formula_units_Z 48
_cell_length_a 22.976114
_cell_length_b 18.917549
_cell_length_c 11.739966
_cell_angle_alpha 90.000000
_cell_angle_beta 28.440481
_cell_angle_gamma 90.000000
_cell_volume 2430.184504
_symmetry_space_group_name_H-M "C 2/C"
_symmetry_group_IT_number 15
_symmetry_cell_setting 'monoclinic'
loop_
_space_group_symop_operation_xyz
x,y,z
-x,y,1/2-z
-x,-y,-z
x,-y,1/2+z
1/2+x,1/2+y,z
1/2-x,1/2+y,1/2-z
1/2-x,1/2-y,-z
1/2+x,1/2-y,1/2+z
loop_
_atom_site_type_symbol
_atom_site_label
_atom_site_fract_x
_atom_site_fract_y
_atom_site_fract_z
Si Si1 0.145962 0.391809 0.008921
Si Si2 0.140908 0.758853 0.476663
Si Si3 0.146300 0.451640 0.471746
Si Si4 0.953909 0.749689 0.198854
Si Si5 0.715397 0.656318 0.625521
Si Si6 0.331845 0.158594 0.773317
O O1 0.190377 0.320477 0.871339
O O2 0.186685 0.466948 0.890408
O O3 0.169080 0.377462 0.102441
O O4 0.000000 0.393931 0.250000
O O5 0.166312 0.805743 0.323873
O O6 0.210895 0.796345 0.458812
O O7 0.000000 0.754754 0.750000
O O8 0.230600 0.418715 0.427231
O O9 0.160514 0.402450 0.336281
O O10 0.000000 0.449042 0.750000
O O11 0.838514 0.697877 0.380441
O O12 0.896098 0.826428 0.268131
O O13 0.000000 0.746367 0.250000
O O14 0.058628 0.714613 0.939945
#
# Coordination Sequence:
#
# PCOD9266609 Si02
#       6
#     8   8   8   8   8   8
#     4  10  22  34  54  87 114 145 186 231 283 335
#     4  10  20  38  58  85 108 147 195 229 276 326
#     4  10  19  38  54  83 118 145 179 229 295 328
#     4  11  18  34  57  86 110 145 191 224 283 321
#     4  10  20  34  59  82 116 145 184 235 272 340
#     4  11  20  38  60  79 117 148 182 237 276 332
#
# _framework density 19.751586
#
# number of rings (size 3 to 8) (size 9 to 14) (size 15 to 20)
#    0.000    1.667    5.000    2.500    0.000    2.667 
#    6.000    0.000    0.000   10.000    0.000    0.000 
#    0.000    0.000    0.000    0.000    0.000    0.000 
#
# Total GULP energy -133791.466023 kJ/mol
# GULP energy per Si atom -5574.644418 kJ/mol
# Density = 1.970663 g / cm^3
# Si number density = 19.751586 Si / 1000 Ang^3
#
#
#
# Elastic Constant Matrix: (Units=GPa)
#
#
# Indices 1 2 3 4 5 6 
#
# 1 81.9067 23.6376 13.6997 0.0000 -14.9768 0.0000
# 2 23.6376 110.5650 19.2793 0.0000 -22.1580 0.0000
# 3 13.6997 19.2793 62.1410 -0.0001 -9.1449 0.0001
# 4 0.0000 0.0000 -0.0001 15.4743 0.0001 -2.7519
# 5 -14.9768 -22.1580 -9.1449 0.0001 18.3496 0.0000
# 6 0.0000 0.0000 0.0001 -2.7519 0.0000 37.2314
#
#
#
# Elastic Compliance Matrix: (Units=1/GPa)
#
#
# Indices 1 2 3 4 5 6 
#
# 1 0.014547 -0.000820 -0.001458 0.000000 0.010155 0.000000
# 2 -0.000820 0.012148 -0.001649 0.000000 0.013178 0.000000
# 3 -0.001458 -0.001649 0.017760 0.000000 0.005670 0.000000
# 4 0.000000 0.000000 0.000000 0.065484 0.000000 0.004840
# 5 0.010155 0.013178 0.005670 0.000000 0.081525 0.000000
# 6 0.000000 0.000000 0.000000 0.004840 0.000000 0.027217
#
#
# Mechanical properties :
#
#
# Convention : Reuss Voigt Hill
#
# Bulk Modulus (GPa) = 27.32205 40.87178 34.09692
# Shear Modulus (GPa) = 20.94370 27.41079 24.17725
#
# Velocity S-wave (km/s) = 3.25984 3.72933 3.50246
# Velocity P-wave (km/s) = 5.29449 6.26751 5.80144
#
# Compressibility (1/GPa) = 0.03660047
#
# Stress axis : x y z
#
# Youngs Moduli (GPa) = 68.74462 82.31539 56.30686
#
# Poissons Ratio (x) = 0.06754 0.08209
# Poissons Ratio (y) = 0.05640 0.09284
# Poissons Ratio (z) = 0.10022 0.13572
#
# Static dielectric constant tensor:
#      x y z
#    x 1.765380 0.000000 0.000620 
#    y 0.000000 1.748440 0.000000 
#    z 0.000620 0.000000 1.696190 
# 
# From -- ./inp_files/88564.got.cif
#   From: 2010.05.17/outbox.cif.g08.bks.cpg/sg15_45_cif.got.tgz:88564.got - 2010.06.03 18:47:42.
