data_PCOD9266721
_publ_section_title
;
Structure prediction by ZEFSAII (Michael W. Deem and Ramdas Pophale) SiO2 
 PCOD9266721
Probable space group: C 2/C
;
_chemical_formula_sum "Si O2"
_cell_formula_units_Z 56
_cell_length_a 25.815119
_cell_length_b 12.728157
_cell_length_c 7.801192
_cell_angle_alpha 90.000000
_cell_angle_beta 113.670502
_cell_angle_gamma 90.000000
_cell_volume 2347.654459
_symmetry_space_group_name_H-M "C 2/C"
_symmetry_group_IT_number 15
_symmetry_cell_setting 'monoclinic'
loop_
_space_group_symop_operation_xyz
x,y,z
-x,y,1/2-z
-x,-y,-z
x,-y,1/2+z
1/2+x,1/2+y,z
1/2-x,1/2+y,1/2-z
1/2-x,1/2-y,-z
1/2+x,1/2-y,1/2+z
loop_
_atom_site_type_symbol
_atom_site_label
_atom_site_fract_x
_atom_site_fract_y
_atom_site_fract_z
Si Si1 0.314310 0.039163 0.487173
Si Si2 0.346200 0.152138 0.884537
Si Si3 0.946211 0.072159 0.405080
Si Si4 0.916599 0.329084 0.995951
Si Si5 0.963148 0.308435 0.451641
Si Si6 0.117403 0.897431 0.012650
Si Si7 0.790401 0.838225 0.637628
O O1 0.325841 0.089077 0.688320
O O2 0.365424 0.089250 0.442477
O O3 0.252858 0.077626 0.344423
O O4 0.316930 0.913522 0.493856
O O5 0.413439 0.139925 0.994546
O O6 0.329094 0.272184 0.822049
O O7 0.960765 0.185729 0.500480
O O8 0.933377 0.093977 0.191037
O O9 0.891814 0.003922 0.394690
O O10 0.000000 0.000000 0.500000
O O11 0.939155 0.317683 0.223739
O O12 0.892650 0.214413 0.908394
O O13 0.973390 0.352011 0.964111
O O14 0.172731 0.883940 0.969705
O O15 0.750000 0.750000 0.500000
#
# Coordination Sequence:
#
# PCOD9266721 Si02
#       7
#     8   8   8   8   8   8   8
#     4  10  21  37  60  83 108 149 194 225 277 335
#     4  10  20  39  60  81 111 147 186 234 278 333
#     4  11  20  32  57  85 114 149 188 232 285 348
#     4   9  16  33  57  80 104 150 186 223 272 343
#     4   9  17  33  56  78 113 144 185 224 280 335
#     4  11  20  34  56  84 113 149 191 226 288 339
#     4  10  19  38  60  80 110 153 191 228 275 347
#
# _framework density 23.853594000000001
#
# number of rings (size 3 to 8) (size 9 to 14) (size 15 to 20)
#    0.000    2.000    7.143    0.429    0.000    2.857 
#    0.000    2.143    0.000    0.000    0.000    0.000 
#    0.000    0.000    0.000    0.000    0.000    0.000 
#
# Total GULP energy -156234.743466 kJ/mol
# GULP energy per Si atom -5579.812267 kJ/mol
# Density = 2.379930 g / cm^3
# Si number density = 23.853594 Si / 1000 Ang^3
#
#
#
# Elastic Constant Matrix: (Units=GPa)
#
#
# Indices 1 2 3 4 5 6 
#
# 1 161.0500 37.0832 1.7207 0.0000 21.9723 0.0000
# 2 37.0832 63.8066 4.4563 0.0000 -7.4382 0.0000
# 3 1.7207 4.4563 33.7670 0.0000 7.1850 0.0000
# 4 0.0000 0.0000 0.0000 22.1118 0.0000 -0.3716
# 5 21.9723 -7.4382 7.1850 0.0000 11.0431 0.0000
# 6 0.0000 0.0000 0.0000 -0.3716 0.0000 48.4527
#
#
#
# Elastic Compliance Matrix: (Units=1/GPa)
#
#
# Indices 1 2 3 4 5 6 
#
# 1 0.017883 -0.017907 0.013451 0.000000 -0.056394 0.000000
# 2 -0.017907 0.035843 -0.019193 0.000000 0.072259 0.000000
# 3 0.013451 -0.019193 0.046321 0.000000 -0.069829 0.000000
# 4 0.000000 0.000000 0.000000 0.045231 0.000000 0.000347
# 5 -0.056394 0.072259 -0.069829 0.000000 0.296865 0.000000
# 6 0.000000 0.000000 0.000000 0.000347 0.000000 0.020641
#
#
# Mechanical properties :
#
#
# Convention : Reuss Voigt Hill
#
# Bulk Modulus (GPa) = 18.95735 38.34931 28.65333
# Shear Modulus (GPa) = 9.47575 30.67908 20.07742
#
# Velocity S-wave (km/s) = 1.99527 3.59017 2.90434
# Velocity P-wave (km/s) = 3.64318 5.77041 4.82547
#
# Compressibility (1/GPa) = 0.05274998
#
# Stress axis : x y z
#
# Youngs Moduli (GPa) = 55.92030 27.89922 21.58870
#
# Poissons Ratio (x) = 0.49958 -0.29040
# Poissons Ratio (y) = 1.00134 0.41435
# Poissons Ratio (z) = -0.75221 0.53547
#
# Static dielectric constant tensor:
#      x y z
#    x 2.005540 0.000000 -0.030260 
#    y 0.000000 1.997800 0.000000 
#    z -0.030260 0.000000 1.981010 
# 
# From -- ./inp_files/65551.got.cif
#   From: 2010.05.17/outbox.cif.g08.bks.cpg/sg15_33_cif.got.tgz:65551.got - 2010.06.03 18:47:42.
