data_PCOD9266994
_publ_section_title
;
Structure prediction by ZEFSAII (Michael W. Deem and Ramdas Pophale) SiO2 
 PCOD9266994
Probable space group: C 2/C
;
_chemical_formula_sum "Si O2"
_cell_formula_units_Z 48
_cell_length_a 11.003180
_cell_length_b 21.930698
_cell_length_c 9.690813
_cell_angle_alpha 90.000000
_cell_angle_beta 80.467357
_cell_angle_gamma 90.000000
_cell_volume 2306.174153
_symmetry_space_group_name_H-M "C 2/C"
_symmetry_group_IT_number 15
_symmetry_cell_setting 'monoclinic'
loop_
_space_group_symop_operation_xyz
x,y,z
-x,y,1/2-z
-x,-y,-z
x,-y,1/2+z
1/2+x,1/2+y,z
1/2-x,1/2+y,1/2-z
1/2-x,1/2-y,-z
1/2+x,1/2-y,1/2+z
loop_
_atom_site_type_symbol
_atom_site_label
_atom_site_fract_x
_atom_site_fract_y
_atom_site_fract_z
Si Si1 0.500000 0.502704 0.250000
Si Si2 0.122539 0.460421 0.485014
Si Si3 0.295844 0.130282 0.301316
Si Si4 0.152255 0.195620 0.541970
Si Si5 0.808370 0.933697 0.947386
Si Si6 0.500000 0.229674 0.250000
Si Si7 0.714470 0.596015 0.758957
O O1 0.554180 0.545561 0.119211
O O2 0.388375 0.457410 0.233575
O O3 0.125936 0.408995 0.602084
O O4 0.233905 0.505599 0.502856
O O5 0.160302 0.431156 0.330678
O O6 0.000000 0.500000 0.500000
O O7 0.173657 0.153714 0.404715
O O8 0.255748 0.091925 0.177585
O O9 0.382262 0.186979 0.246651
O O10 0.250000 0.250000 0.500000
O O11 0.027967 0.228834 0.611029
O O12 0.182808 0.152257 0.666055
O O13 0.789257 0.888959 0.079337
#
# Coordination Sequence:
#
# PCOD9266994 Si02
#       7
#     4   8   8   8   8   4   8
#     4  10  21  36  56  84 122 154 185 224 284 354
#     4  10  20  36  56  84 123 160 188 220 277 354
#     4  10  21  37  58  87 116 147 188 236 288 338
#     4   9  20  38  58  77 103 147 197 235 275 331
#     4  11  22  35  56  90 121 147 183 235 289 346
#     4  10  19  38  64  78 102 150 195 236 282 338
#     4  10  21  36  59  84 112 154 197 233 281 346
#
# _framework density 20.813693000000001
#
# number of rings (size 3 to 8) (size 9 to 14) (size 15 to 20)
#    0.000    2.000    0.000    4.000    0.000    6.000 
#    0.000    3.333    0.000    8.000    0.000    0.000 
#    0.000    0.000    0.000    0.000    0.000    0.000 
#
# Total GULP energy -133929.305986 kJ/mol
# GULP energy per Si atom -5580.387749 kJ/mol
# Density = 2.076632 g / cm^3
# Si number density = 20.813693 Si / 1000 Ang^3
#
#
#
# Elastic Constant Matrix: (Units=GPa)
#
#
# Indices 1 2 3 4 5 6 
#
# 1 65.8615 29.9591 44.2436 0.0000 -26.5371 0.0000
# 2 29.9591 82.5264 50.4887 0.0000 -15.5255 0.0000
# 3 44.2436 50.4887 150.0518 0.0000 -15.7816 0.0000
# 4 0.0000 0.0000 0.0000 35.6441 0.0000 -18.6091
# 5 -26.5371 -15.5255 -15.7816 0.0000 30.8719 0.0000
# 6 0.0000 0.0000 0.0000 -18.6091 0.0000 20.1244
#
#
#
# Elastic Compliance Matrix: (Units=1/GPa)
#
#
# Indices 1 2 3 4 5 6 
#
# 1 0.028142 -0.003370 -0.005071 0.000000 0.019904 0.000000
# 2 -0.003370 0.016541 -0.004229 0.000000 0.003260 0.000000
# 3 -0.005071 -0.004229 0.009406 0.000000 -0.001677 0.000000
# 4 0.000000 0.000000 0.000000 0.054241 0.000000 0.050157
# 5 0.019904 0.003260 -0.001677 0.000000 0.050283 0.000000
# 6 0.000000 0.000000 0.000000 0.050157 0.000000 0.096071
#
#
# Mechanical properties :
#
#
# Convention : Reuss Voigt Hill
#
# Bulk Modulus (GPa) = 34.78201 60.86915 47.82558
# Shear Modulus (GPa) = 17.26469 28.91131 23.08800
#
# Velocity S-wave (km/s) = 2.88321 3.73104 3.33418
# Velocity P-wave (km/s) = 5.27553 6.91875 6.15225
#
# Compressibility (1/GPa) = 0.02875049
#
# Stress axis : x y z
#
# Youngs Moduli (GPa) = 35.53373 60.45448 106.31352
#
# Poissons Ratio (x) = 0.20371 0.53908
# Poissons Ratio (y) = 0.11974 0.44963
# Poissons Ratio (z) = 0.18018 0.25568
#
# Static dielectric constant tensor:
#      x y z
#    x 1.742100 0.000000 -0.026620 
#    y 0.000000 1.760710 0.000000 
#    z -0.026620 0.000000 1.795530 
# 
# From -- ./inp_files/32571.got.cif
#   From: 2010.05.17/outbox.cif.g08.bks.cpg/sg15_17_cif.got.tgz:32571.got - 2010.06.03 18:47:42.
