data_PCOD9266148
_publ_section_title
;
Structure prediction by ZEFSAII (Michael W. Deem and Ramdas Pophale) SiO2 
 PCOD9266148
Probable space group: C 2/C
;
_chemical_formula_sum "Si O2"
_cell_formula_units_Z 44
_cell_length_a 10.521572
_cell_length_b 20.111547
_cell_length_c 13.753666
_cell_angle_alpha 90.000000
_cell_angle_beta 50.100972
_cell_angle_gamma 90.000000
_cell_volume 2232.747493
_symmetry_space_group_name_H-M "C 2/C"
_symmetry_group_IT_number 15
_symmetry_cell_setting 'monoclinic'
loop_
_space_group_symop_operation_xyz
x,y,z
-x,y,1/2-z
-x,-y,-z
x,-y,1/2+z
1/2+x,1/2+y,z
1/2-x,1/2+y,1/2-z
1/2-x,1/2-y,-z
1/2+x,1/2-y,1/2+z
loop_
_atom_site_type_symbol
_atom_site_label
_atom_site_fract_x
_atom_site_fract_y
_atom_site_fract_z
Si Si1 0.784423 0.521620 0.005574
Si Si2 0.000000 0.565192 0.250000
Si Si3 0.707606 0.896720 0.821502
Si Si4 0.941510 0.008346 0.640369
Si Si5 0.299141 0.888902 0.330555
Si Si6 0.803040 0.242559 0.361682
O O1 0.867899 0.553882 0.059068
O O2 0.617039 0.479592 0.108660
O O3 0.732794 0.586432 0.967693
O O4 0.893025 0.480003 0.876245
O O5 0.889176 0.606697 0.231637
O O6 0.727686 0.824098 0.854483
O O7 0.870966 0.938746 0.714161
O O8 0.790129 0.061931 0.703841
O O9 0.000000 0.000000 0.500000
O O10 0.500000 0.891813 0.250000
O O11 0.254600 0.812421 0.334664
O O12 0.750000 0.250000 0.500000
O O13 0.000000 0.236489 0.250000
#
# Coordination Sequence:
#
# PCOD9266148 Si02
#       6
#     8   4   8   8   8   8
#     4  11  20  37  63  95 125 165 213 265 324 380
#     4  12  24  38  62  92 132 164 210 280 320 388
#     4  12  23  40  66  94 126 173 220 264 332 386
#     4  10  20  36  65  91 128 165 212 269 319 382
#     4  10  19  37  60  93 130 161 203 273 320 370
#     4  11  24  39  66  96 127 171 221 270 327 396
#
# _framework density 19.706661
#
# number of rings (size 3 to 8) (size 9 to 14) (size 15 to 20)
#    0.000    1.091    6.364    2.182    2.545    0.000 
#    0.000    0.000    4.000    2.182    0.000    0.000 
#    0.000    0.000    0.000    0.000    0.000    0.000 
#
# Total GULP energy -122473.408600 kJ/mol
# GULP energy per Si atom -5566.973118 kJ/mol
# Density = 1.966181 g / cm^3
# Si number density = 19.706661 Si / 1000 Ang^3
#
#
#
# Elastic Constant Matrix: (Units=GPa)
#
#
# Indices 1 2 3 4 5 6 
#
# 1 98.0414 49.3738 29.5465 0.0000 8.1708 0.0000
# 2 49.3738 145.0273 45.8080 0.0000 -0.8206 0.0000
# 3 29.5465 45.8080 101.6845 0.0000 -1.7000 0.0000
# 4 0.0000 0.0000 0.0000 26.1780 0.0000 7.6891
# 5 8.1708 -0.8206 -1.7000 0.0000 30.9441 0.0000
# 6 0.0000 0.0000 0.0000 7.6891 0.0000 3.0140
#
#
#
# Elastic Compliance Matrix: (Units=1/GPa)
#
#
# Indices 1 2 3 4 5 6 
#
# 1 0.013061 -0.003788 -0.002150 0.000000 -0.003667 0.000000
# 2 -0.003788 0.009138 -0.002998 0.000000 0.001078 0.000000
# 3 -0.002150 -0.002998 0.011829 0.000000 0.001138 0.000000
# 4 0.000000 0.000000 0.000000 0.152381 0.000000 -0.388738
# 5 -0.003667 0.001078 0.001138 0.000000 0.033376 0.000000
# 6 0.000000 0.000000 0.000000 -0.388738 0.000000 1.323490
#
#
# Mechanical properties :
#
#
# Convention : Reuss Voigt Hill
#
# Bulk Modulus (GPa) = 61.89779 66.02332 63.96056
# Shear Modulus (GPa) = 3.19176 26.69554 14.94365
#
# Velocity S-wave (km/s) = 1.27403 3.68454 2.75672
# Velocity P-wave (km/s) = 5.80017 7.18867 6.53142
#
# Compressibility (1/GPa) = 0.01615566
#
# Stress axis : x y z
#
# Youngs Moduli (GPa) = 76.56316 109.43404 84.54135
#
# Poissons Ratio (x) = 0.41457 0.18176
# Poissons Ratio (y) = 0.29004 0.25344
# Poissons Ratio (z) = 0.16460 0.32806
#
# Static dielectric constant tensor:
#      x y z
#    x 1.779930 0.000000 -0.021830 
#    y 0.000000 1.719600 0.000000 
#    z -0.021830 0.000000 1.770740 
# 
# From -- ./inp_files/147005.got.cif
#   From: 2010.05.17/outbox.cif.g08.bks.cpg/sg15_74_cif.got.tgz:147005.got - 2010.06.03 18:47:42.
