data_PCOD9266442
_publ_section_title
;
Structure prediction by ZEFSAII (Michael W. Deem and Ramdas Pophale) SiO2 
 PCOD9266442
Probable space group: C 2/C
;
_chemical_formula_sum "Si O2"
_cell_formula_units_Z 40
_cell_length_a 14.712526
_cell_length_b 14.291834
_cell_length_c 9.402921
_cell_angle_alpha 90.000000
_cell_angle_beta 113.746010
_cell_angle_gamma 90.000000
_cell_volume 1809.756767
_symmetry_space_group_name_H-M "C 2/C"
_symmetry_group_IT_number 15
_symmetry_cell_setting 'monoclinic'
loop_
_space_group_symop_operation_xyz
x,y,z
-x,y,1/2-z
-x,-y,-z
x,-y,1/2+z
1/2+x,1/2+y,z
1/2-x,1/2+y,1/2-z
1/2-x,1/2-y,-z
1/2+x,1/2-y,1/2+z
loop_
_atom_site_type_symbol
_atom_site_label
_atom_site_fract_x
_atom_site_fract_y
_atom_site_fract_z
Si Si1 0.053856 0.283909 0.926748
Si Si2 0.485279 0.637004 0.393893
Si Si3 0.718329 0.054973 0.490148
Si Si4 0.949473 0.580341 0.562708
Si Si5 0.149687 0.035153 0.665195
O O1 0.000000 0.253229 0.750000
O O2 0.083499 0.195957 0.041240
O O3 0.137428 0.360773 0.937982
O O4 0.972522 0.330407 0.981770
O O5 0.500000 0.684008 0.250000
O O6 0.589291 0.610988 0.534916
O O7 0.430957 0.538898 0.330877
O O8 0.792886 0.077424 0.665119
O O9 0.660891 0.957843 0.490304
O O10 0.774970 0.025581 0.383574
O O11 0.000000 0.585004 0.750000
O O12 0.000000 0.500000 0.500000
#
# Coordination Sequence:
#
# PCOD9266442 Si02
#       5
#     8   8   8   8   8
#     4  11  24  41  68  97 135 170 211 270 333 384
#     4  11  25  46  62  91 134 179 210 265 342 387
#     4  11  21  41  67 100 123 168 225 265 312 389
#     4  10  19  37  64  95 135 172 208 264 333 390
#     4  11  24  42  69  91 129 174 224 264 318 398
#
# _framework density 22.102416999999999
#
# number of rings (size 3 to 8) (size 9 to 14) (size 15 to 20)
#    0.000    1.200    2.000    6.600    2.800    0.800 
#    3.600    2.000    0.000    0.000    0.000    0.000 
#    0.000    0.000    0.000    0.000    0.000    0.000 
#
# Total GULP energy -111678.889445 kJ/mol
# GULP energy per Si atom -5583.944472 kJ/mol
# Density = 2.205211 g / cm^3
# Si number density = 22.102417 Si / 1000 Ang^3
#
#
#
# Elastic Constant Matrix: (Units=GPa)
#
#
# Indices 1 2 3 4 5 6 
#
# 1 65.2701 -0.1983 13.8766 0.0000 -16.5295 0.0000
# 2 -0.1983 52.9286 -0.8293 0.0000 -10.6779 0.0000
# 3 13.8766 -0.8293 119.9998 0.0000 -22.8155 0.0000
# 4 0.0000 0.0000 0.0000 0.7797 0.0000 -1.4279
# 5 -16.5295 -10.6779 -22.8155 0.0000 39.6248 0.0000
# 6 0.0000 0.0000 0.0000 -1.4279 0.0000 28.9089
#
#
#
# Elastic Compliance Matrix: (Units=1/GPa)
#
#
# Indices 1 2 3 4 5 6 
#
# 1 0.017297 0.001523 -0.000606 0.000000 0.007277 0.000000
# 2 0.001523 0.020297 0.001263 0.000000 0.006832 0.000000
# 3 -0.000606 0.001263 0.009465 0.000000 0.005537 0.000000
# 4 0.000000 0.000000 0.000000 1.410131 0.000000 0.069651
# 5 0.007277 0.006832 0.005537 0.000000 0.033302 0.000000
# 6 0.000000 0.000000 0.000000 0.069651 0.000000 0.038032
#
#
# Mechanical properties :
#
#
# Convention : Reuss Voigt Hill
#
# Bulk Modulus (GPa) = 19.44751 29.32185 24.38468
# Shear Modulus (GPa) = 3.24401 28.88597 16.06499
#
# Velocity S-wave (km/s) = 1.21281 3.61905 2.69893
# Velocity P-wave (km/s) = 3.28316 5.54604 4.55728
#
# Compressibility (1/GPa) = 0.05142046
#
# Stress axis : x y z
#
# Youngs Moduli (GPa) = 57.81231 49.26772 105.65255
#
# Poissons Ratio (x) = -0.07505 0.06404
# Poissons Ratio (y) = -0.08807 -0.13345
# Poissons Ratio (z) = 0.03504 -0.06223
#
# Static dielectric constant tensor:
#      x y z
#    x 1.860280 0.000000 -0.015420 
#    y 0.000000 1.913050 0.000000 
#    z -0.015420 0.000000 1.792540 
# 
# From -- ./inp_files/37812.got.cif
#   From: 2010.05.17/outbox.cif.g08.bks.cpg/sg15_19_cif.got.tgz:37812.got - 2010.06.03 18:47:42.
