data_PCOD9266854
_publ_section_title
;
Structure prediction by ZEFSAII (Michael W. Deem and Ramdas Pophale) SiO2 
 PCOD9266854
Probable space group: C 2/C
;
_chemical_formula_sum "Si O2"
_cell_formula_units_Z 52
_cell_length_a 18.954769
_cell_length_b 11.208891
_cell_length_c 14.552040
_cell_angle_alpha 90.000000
_cell_angle_beta 49.761980
_cell_angle_gamma 90.000000
_cell_volume 2360.145172
_symmetry_space_group_name_H-M "C 2/C"
_symmetry_group_IT_number 15
_symmetry_cell_setting 'monoclinic'
loop_
_space_group_symop_operation_xyz
x,y,z
-x,y,1/2-z
-x,-y,-z
x,-y,1/2+z
1/2+x,1/2+y,z
1/2-x,1/2+y,1/2-z
1/2-x,1/2-y,-z
1/2+x,1/2-y,1/2+z
loop_
_atom_site_type_symbol
_atom_site_label
_atom_site_fract_x
_atom_site_fract_y
_atom_site_fract_z
Si Si1 0.483961 0.121282 0.612969
Si Si2 0.154933 0.253121 0.638390
Si Si3 0.791946 0.123046 0.434764
Si Si4 0.922201 0.625488 0.466596
Si Si5 0.293451 0.996542 0.824731
Si Si6 0.223661 0.052825 0.696927
Si Si7 0.500000 0.681838 0.250000
O O1 0.485980 0.149821 0.502313
O O2 0.503038 0.234600 0.657977
O O3 0.550253 0.010302 0.582242
O O4 0.382372 0.076588 0.727678
O O5 0.250000 0.250000 0.500000
O O6 0.081620 0.290340 0.619807
O O7 0.168334 0.362625 0.698106
O O8 0.149022 0.132706 0.704328
O O9 0.750000 0.250000 0.500000
O O10 0.902431 0.117235 0.338056
O O11 0.750419 0.029623 0.541401
O O12 0.763550 0.077449 0.358707
O O13 0.819357 0.621271 0.595105
O O14 0.219078 0.028278 0.808740
#
# Coordination Sequence:
#
# PCOD9266854 Si02
#       7
#     8   8   8   8   8   8   4
#     4  10  20  37  60  98 123 160 218 274 312 371
#     4  10  19  38  62  86 126 167 206 262 313 374
#     4  12  24  43  65  93 130 171 212 266 319 391
#     4   9  18  36  63  91 125 157 212 270 317 360
#     4  11  22  40  68  91 122 169 214 260 324 376
#     4  10  23  40  64  96 125 171 211 255 328 389
#     4  12  24  38  64  90 132 166 212 260 326 382
#
# _framework density 22.032544000000001
#
# number of rings (size 3 to 8) (size 9 to 14) (size 15 to 20)
#    0.000    1.538    4.615    1.846    2.154    1.231 
#    0.000    2.308    0.000    0.000    0.000    0.000 
#    0.000    0.000    0.000    0.000    0.000    0.000 
#
# Total GULP energy -145041.462145 kJ/mol
# GULP energy per Si atom -5578.517775 kJ/mol
# Density = 2.198240 g / cm^3
# Si number density = 22.032544 Si / 1000 Ang^3
#
#
#
# Elastic Constant Matrix: (Units=GPa)
#
#
# Indices 1 2 3 4 5 6 
#
# 1 74.2672 17.7333 17.8191 0.0000 23.8753 0.0000
# 2 17.7333 56.6701 -10.0997 0.0000 17.2718 0.0000
# 3 17.8191 -10.0997 53.6875 0.0000 -3.4688 0.0000
# 4 0.0000 0.0000 0.0000 9.8501 0.0000 -4.0273
# 5 23.8753 17.2718 -3.4688 0.0000 24.4901 0.0000
# 6 0.0000 0.0000 0.0000 -4.0273 0.0000 48.3066
#
#
#
# Elastic Compliance Matrix: (Units=1/GPa)
#
#
# Indices 1 2 3 4 5 6 
#
# 1 0.023706 -0.002156 -0.009758 0.000000 -0.022973 0.000000
# 2 -0.002156 0.023244 0.004203 0.000000 -0.013696 0.000000
# 3 -0.009758 0.004203 0.023292 0.000000 0.009848 0.000000
# 4 0.000000 0.000000 0.000000 0.105104 0.000000 0.008763
# 5 -0.022973 -0.013696 0.009848 0.000000 0.074283 0.000000
# 6 0.000000 0.000000 0.000000 0.008763 0.000000 0.021432
#
#
# Mechanical properties :
#
#
# Convention : Reuss Voigt Hill
#
# Bulk Modulus (GPa) = 18.24109 26.17004 22.20556
# Shear Modulus (GPa) = 16.40659 27.14083 21.77371
#
# Velocity S-wave (km/s) = 2.73179 3.51358 3.14706
# Velocity P-wave (km/s) = 4.27170 5.32579 4.82760
#
# Compressibility (1/GPa) = 0.05482130
#
# Stress axis : x y z
#
# Youngs Moduli (GPa) = 42.18321 43.02202 42.93322
#
# Poissons Ratio (x) = 0.09274 0.41894
# Poissons Ratio (y) = 0.09093 -0.18046
# Poissons Ratio (z) = 0.41162 -0.18083
#
# Static dielectric constant tensor:
#      x y z
#    x 1.887400 0.000000 -0.018390 
#    y 0.000000 1.857960 0.000000 
#    z -0.018390 0.000000 1.796230 
# 
# From -- ./inp_files/167557.got.cif
#   From: 2010.05.17/outbox.cif.g08.bks.cpg/sg15_84_cif.got.tgz:167557.got - 2010.06.03 18:47:42.
