data_PCOD9266874
_publ_section_title
;
Structure prediction by ZEFSAII (Michael W. Deem and Ramdas Pophale) SiO2 
 PCOD9266874
Probable space group: C 2/C
;
_chemical_formula_sum "Si O2"
_cell_formula_units_Z 52
_cell_length_a 12.154528
_cell_length_b 13.280871
_cell_length_c 14.435430
_cell_angle_alpha 90.000000
_cell_angle_beta 83.886632
_cell_angle_gamma 90.000000
_cell_volume 2316.954758
_symmetry_space_group_name_H-M "C 2/C"
_symmetry_group_IT_number 15
_symmetry_cell_setting 'monoclinic'
loop_
_space_group_symop_operation_xyz
x,y,z
-x,y,1/2-z
-x,-y,-z
x,-y,1/2+z
1/2+x,1/2+y,z
1/2-x,1/2+y,1/2-z
1/2-x,1/2-y,-z
1/2+x,1/2-y,1/2+z
loop_
_atom_site_type_symbol
_atom_site_label
_atom_site_fract_x
_atom_site_fract_y
_atom_site_fract_z
Si Si1 0.458334 0.187529 0.597156
Si Si2 0.227428 0.088308 0.607951
Si Si3 0.502017 0.635552 0.526491
Si Si4 0.429952 0.596464 0.170066
Si Si5 0.789336 0.412510 0.711472
Si Si6 0.881791 0.192582 0.709811
Si Si7 0.500000 0.041119 0.750000
O O1 0.345517 0.135887 0.571900
O O2 0.513471 0.247954 0.507661
O O3 0.430125 0.281552 0.666652
O O4 0.521741 0.109227 0.656710
O O5 0.127599 0.122411 0.551783
O O6 0.193922 0.133091 0.711255
O O7 0.243149 0.969526 0.624458
O O8 0.505654 0.572590 0.430621
O O9 0.415087 0.626895 0.617099
O O10 0.500000 0.556770 0.250000
O O11 0.302722 0.575014 0.200381
O O12 0.821371 0.297062 0.692788
O O13 0.896812 0.472600 0.733661
O O14 0.000000 0.213900 0.750000
#
# Coordination Sequence:
#
# PCOD9266874 Si02
#       7
#     8   8   8   8   8   8   4
#     4   9  17  35  62  83 122 155 207 246 312 359
#     4  10  20  36  61  89 126 166 204 249 319 364
#     4   9  20  37  63  91 120 168 208 255 302 379
#     4  10  21  40  65  85 121 169 206 250 313 373
#     4  11  22  38  63  93 125 164 210 255 310 366
#     4  10  19  38  62  89 127 164 204 254 306 363
#     4  10  20  38  62  96 116 164 206 270 300 366
#
# _framework density 22.443251
#
# number of rings (size 3 to 8) (size 9 to 14) (size 15 to 20)
#    0.923    1.231    3.077    0.462    0.000    1.846 
#    2.769    5.385    0.000    0.000    0.000    0.000 
#    0.000    0.000    0.000    0.000    0.000    0.000 
#
# Total GULP energy -145057.310517 kJ/mol
# GULP energy per Si atom -5579.127328 kJ/mol
# Density = 2.239217 g / cm^3
# Si number density = 22.443251 Si / 1000 Ang^3
#
#
#
# Elastic Constant Matrix: (Units=GPa)
#
#
# Indices 1 2 3 4 5 6 
#
# 1 49.1593 2.1352 15.6746 0.0000 5.7230 0.0000
# 2 2.1352 85.4524 5.4857 0.0000 6.5109 0.0000
# 3 15.6746 5.4857 100.0567 0.0000 3.7350 0.0000
# 4 0.0000 0.0000 0.0000 17.0892 0.0000 -3.6368
# 5 5.7230 6.5109 3.7350 0.0000 29.3150 0.0000
# 6 0.0000 0.0000 0.0000 -3.6368 0.0000 25.4616
#
#
#
# Elastic Compliance Matrix: (Units=1/GPa)
#
#
# Indices 1 2 3 4 5 6 
#
# 1 0.021835 -0.000043 -0.003275 0.000000 -0.003836 0.000000
# 2 -0.000043 0.011935 -0.000552 0.000000 -0.002572 0.000000
# 3 -0.003275 -0.000552 0.010559 0.000000 -0.000583 0.000000
# 4 0.000000 0.000000 0.000000 0.060351 0.000000 0.008620
# 5 -0.003836 -0.002572 -0.000583 0.000000 0.035507 0.000000
# 6 0.000000 0.000000 0.000000 0.008620 0.000000 0.040506
#
#
# Mechanical properties :
#
#
# Convention : Reuss Voigt Hill
#
# Bulk Modulus (GPa) = 27.33014 31.25106 29.29060
# Shear Modulus (GPa) = 24.92166 28.46469 26.69318
#
# Velocity S-wave (km/s) = 3.33593 3.56518 3.45246
# Velocity P-wave (km/s) = 5.20017 5.55896 5.38255
#
# Compressibility (1/GPa) = 0.03658964
#
# Stress axis : x y z
#
# Youngs Moduli (GPa) = 45.79867 83.78804 94.70230
#
# Poissons Ratio (x) = 0.00361 0.31015
# Poissons Ratio (y) = 0.00197 0.05224
# Poissons Ratio (z) = 0.14999 0.04622
#
# Static dielectric constant tensor:
#      x y z
#    x 1.804380 0.000000 0.025270 
#    y 0.000000 1.879770 0.000000 
#    z 0.025270 0.000000 1.836840 
# 
# From -- ./inp_files/144156.got.cif
#   From: 2010.05.17/outbox.cif.g08.bks.cpg/sg15_73_cif.got.tgz:144156.got - 2010.06.03 18:47:42.
