data_PCOD9266748
_publ_section_title
;
Structure prediction by ZEFSAII (Michael W. Deem and Ramdas Pophale) SiO2 
 PCOD9266748
Probable space group: C 2/C
;
_chemical_formula_sum "Si O2"
_cell_formula_units_Z 52
_cell_length_a 10.073261
_cell_length_b 26.614601
_cell_length_c 10.202571
_cell_angle_alpha 90.000000
_cell_angle_beta 90.513464
_cell_angle_gamma 90.000000
_cell_volume 2735.156826
_symmetry_space_group_name_H-M "C 2/C"
_symmetry_group_IT_number 15
_symmetry_cell_setting 'monoclinic'
loop_
_space_group_symop_operation_xyz
x,y,z
-x,y,1/2-z
-x,-y,-z
x,-y,1/2+z
1/2+x,1/2+y,z
1/2-x,1/2+y,1/2-z
1/2-x,1/2-y,-z
1/2+x,1/2-y,1/2+z
loop_
_atom_site_type_symbol
_atom_site_label
_atom_site_fract_x
_atom_site_fract_y
_atom_site_fract_z
Si Si1 0.144487 0.635150 0.002538
Si Si2 0.730013 0.956818 0.813125
Si Si3 0.000000 0.665632 0.750000
Si Si4 0.500000 0.121937 0.250000
Si Si5 0.855873 0.754059 0.882317
Si Si6 0.352202 0.983670 0.954280
Si Si7 0.882068 0.810724 0.609625
Si Si8 0.500000 0.402016 0.750000
O O1 0.068226 0.635834 0.866465
O O2 0.173520 0.576156 0.030386
O O3 0.265491 0.674471 0.010091
O O4 0.055599 0.651216 0.126636
O O5 0.617735 0.913183 0.809278
O O6 0.678411 0.993699 0.697761
O O7 0.872016 0.934230 0.781768
O O8 0.738138 0.984808 0.949950
O O9 0.111150 0.700684 0.682642
O O10 0.829955 0.790128 0.752784
O O11 0.000994 0.773430 0.933387
O O12 0.750000 0.750000 0.000000
O O13 0.500000 0.000000 0.000000
O O14 0.954650 0.863759 0.636490
#
# Coordination Sequence:
#
# PCOD9266748 Si02
#       8
#     8   8   4   4   8   8   8   4
#     4  11  22  38  61  93 122 167 208 264 305 375
#     4  11  21  36  58  85 119 166 212 255 306 359
#     4  10  25  37  60  96 124 146 210 264 314 360
#     4  10  20  35  62  88 111 173 220 230 315 372
#     4   9  21  41  64  91 123 159 193 253 325 382
#     4  11  21  37  58  86 125 161 216 253 305 354
#     4   9  20  40  63  89 127 158 207 256 309 383
#     4  10  19  38  60  88 119 161 210 258 297 384
#
# _framework density 19.011707000000001
#
# number of rings (size 3 to 8) (size 9 to 14) (size 15 to 20)
#    0.000    2.154    6.154    0.000    4.308    3.077 
#    0.000    2.308    0.000    0.000    0.000    0.000 
#    0.000    0.000    0.000    0.000    0.000    0.000 
#
# Total GULP energy -144795.928262 kJ/mol
# GULP energy per Si atom -5569.074164 kJ/mol
# Density = 1.896844 g / cm^3
# Si number density = 19.011707 Si / 1000 Ang^3
#
#
#
# Elastic Constant Matrix: (Units=GPa)
#
#
# Indices 1 2 3 4 5 6 
#
# 1 91.1726 14.7699 28.8972 0.0000 -14.2132 0.0000
# 2 14.7699 24.1538 -0.4062 0.0000 -6.8868 0.0000
# 3 28.8972 -0.4062 68.6038 0.0000 -4.4046 0.0000
# 4 0.0000 0.0000 0.0000 23.1508 0.0000 4.4350
# 5 -14.2132 -6.8868 -4.4046 0.0000 37.3333 0.0000
# 6 0.0000 0.0000 0.0000 4.4350 0.0000 23.7785
#
#
#
# Elastic Compliance Matrix: (Units=1/GPa)
#
#
# Indices 1 2 3 4 5 6 
#
# 1 0.014729 -0.008140 -0.006034 0.000000 0.003394 0.000000
# 2 -0.008140 0.048240 0.004118 0.000000 0.006286 0.000000
# 3 -0.006034 0.004118 0.017174 0.000000 0.000489 0.000000
# 4 0.000000 0.000000 0.000000 0.044796 0.000000 -0.008355
# 5 0.003394 0.006286 0.000489 0.000000 0.029295 0.000000
# 6 0.000000 0.000000 0.000000 -0.008355 0.000000 0.043613
#
#
# Mechanical properties :
#
#
# Convention : Reuss Voigt Hill
#
# Bulk Modulus (GPa) = 16.65836 30.05022 23.35429
# Shear Modulus (GPa) = 21.01110 26.23047 23.62079
#
# Velocity S-wave (km/s) = 3.32801 3.71846 3.52864
# Velocity P-wave (km/s) = 4.85270 5.85461 5.37704
#
# Compressibility (1/GPa) = 0.06002993
#
# Stress axis : x y z
#
# Youngs Moduli (GPa) = 67.89541 20.72949 58.22776
#
# Poissons Ratio (x) = 0.16874 0.35136
# Poissons Ratio (y) = 0.55269 -0.23978
# Poissons Ratio (z) = 0.40970 -0.08536
#
# Static dielectric constant tensor:
#      x y z
#    x 1.706570 0.000000 0.000820 
#    y 0.000000 1.695260 0.000000 
#    z 0.000820 0.000000 1.698140 
# 
# From -- ./inp_files/80757.got.cif
#   From: 2010.05.17/outbox.cif.g08.bks.cpg/sg15_41_cif.got.tgz:80757.got - 2010.06.03 18:47:42.
