data_PCOD9266447
_publ_section_title
;
Structure prediction by ZEFSAII (Michael W. Deem and Ramdas Pophale) SiO2 
 PCOD9266447
Probable space group: C 2/C
;
_chemical_formula_sum "Si O2"
_cell_formula_units_Z 56
_cell_length_a 15.327502
_cell_length_b 16.973119
_cell_length_c 17.414892
_cell_angle_alpha 90.000000
_cell_angle_beta 139.682007
_cell_angle_gamma 90.000000
_cell_volume 2931.417929
_symmetry_space_group_name_H-M "C 2/C"
_symmetry_group_IT_number 15
_symmetry_cell_setting 'monoclinic'
loop_
_space_group_symop_operation_xyz
x,y,z
-x,y,1/2-z
-x,-y,-z
x,-y,1/2+z
1/2+x,1/2+y,z
1/2-x,1/2+y,1/2-z
1/2-x,1/2-y,-z
1/2+x,1/2-y,1/2+z
loop_
_atom_site_type_symbol
_atom_site_label
_atom_site_fract_x
_atom_site_fract_y
_atom_site_fract_z
Si Si1 0.997244 0.854671 0.831402
Si Si2 0.714473 0.849010 0.223238
Si Si3 0.190457 0.685717 0.162604
Si Si4 0.081181 0.686987 0.917307
Si Si5 0.127103 0.955000 0.052762
Si Si6 0.363143 0.980340 0.110541
Si Si7 0.053429 0.428056 0.983129
O O1 0.842153 0.846208 0.754002
O O2 0.000000 0.895725 0.750000
O O3 0.074587 0.770874 0.871397
O O4 0.071083 0.896174 0.950744
O O5 0.793409 0.766405 0.279123
O O6 0.575324 0.836765 0.176829
O O7 0.800087 0.911877 0.327879
O O8 0.662712 0.879604 0.106416
O O9 0.139515 0.701022 0.041407
O O10 0.078050 0.626364 0.120603
O O11 0.149667 0.611913 0.923644
O O12 0.239943 0.003869 0.082436
O O13 0.000000 0.000000 0.000000
O O14 0.500000 0.985787 0.250000
O O15 0.380656 0.033429 0.047235
O O16 0.000000 0.500000 0.000000
#
# Coordination Sequence:
#
# PCOD9266447 Si02
#       7
#     8   8   8   8   8   8   8
#     4  11  24  34  58  95 137 165 200 264 335 402
#     4  10  21  41  61  94 130 170 214 268 326 390
#     4  10  21  38  62  94 128 170 213 262 324 387
#     4  10  19  37  64  96 128 167 210 259 327 410
#     4  12  27  40  60  93 135 170 210 273 337 382
#     4  12  23  40  67  97 131 173 218 265 323 396
#     4  11  22  40  70  94 127 175 226 264 317 401
#
# _framework density 19.103383999999998
#
# number of rings (size 3 to 8) (size 9 to 14) (size 15 to 20)
#    0.000    1.143    5.714    1.286    6.000    1.143 
#    0.000    0.000    0.000    3.429    0.000    0.000 
#    0.000    0.000    0.000    0.000    0.000    0.000 
#
# Total GULP energy -156413.120447 kJ/mol
# GULP energy per Si atom -5586.182873 kJ/mol
# Density = 1.905990 g / cm^3
# Si number density = 19.103384 Si / 1000 Ang^3
#
#
#
# Elastic Constant Matrix: (Units=GPa)
#
#
# Indices 1 2 3 4 5 6 
#
# 1 120.0246 61.7005 45.8353 0.0000 12.7299 0.0000
# 2 61.7005 79.7613 48.6730 0.0000 6.4707 0.0000
# 3 45.8353 48.6730 111.3655 0.0000 10.7464 0.0000
# 4 0.0000 0.0000 0.0000 11.7981 0.0000 1.3637
# 5 12.7299 6.4707 10.7464 0.0000 29.6863 0.0000
# 6 0.0000 0.0000 0.0000 1.3637 0.0000 16.8206
#
#
#
# Elastic Compliance Matrix: (Units=1/GPa)
#
#
# Indices 1 2 3 4 5 6 
#
# 1 0.014339 -0.010108 -0.001143 0.000000 -0.003532 0.000000
# 2 -0.010108 0.024255 -0.006579 0.000000 0.001429 0.000000
# 3 -0.001143 -0.006579 0.012579 0.000000 -0.002629 0.000000
# 4 0.000000 0.000000 0.000000 0.085562 0.000000 -0.006937
# 5 -0.003532 0.001429 -0.002629 0.000000 0.035840 0.000000
# 6 0.000000 0.000000 0.000000 -0.006937 0.000000 0.060013
#
#
# Mechanical properties :
#
#
# Convention : Reuss Voigt Hill
#
# Bulk Modulus (GPa) = 64.45905 69.28545 66.87225
# Shear Modulus (GPa) = 18.28699 21.99050 20.13874
#
# Velocity S-wave (km/s) = 3.09733 3.39651 3.25036
# Velocity P-wave (km/s) = 6.82691 7.19230 7.01198
#
# Compressibility (1/GPa) = 0.01551373
#
# Stress axis : x y z
#
# Youngs Moduli (GPa) = 69.74043 41.22834 79.49905
#
# Poissons Ratio (x) = 0.41674 0.09086
# Poissons Ratio (y) = 0.70494 0.52299
# Poissons Ratio (z) = 0.07971 0.27122
#
# Static dielectric constant tensor:
#      x y z
#    x 1.594650 0.000000 0.059270 
#    y 0.000000 1.702010 0.000000 
#    z 0.059270 0.000000 1.644180 
# 
# From -- ./inp_files/206281.got.cif
#   From: 2010.05.17/outbox.cif.g08.bks.cpg/sg15_104_cif.got.tgz:206281.got - 2010.06.03 18:47:42.
