data_PCOD9266682
_publ_section_title
;
Structure prediction by ZEFSAII (Michael W. Deem and Ramdas Pophale) SiO2 
 PCOD9266682
Probable space group: C 2/C
;
_chemical_formula_sum "Si O2"
_cell_formula_units_Z 60
_cell_length_a 29.433955
_cell_length_b 9.149662
_cell_length_c 24.999113
_cell_angle_alpha 90.000000
_cell_angle_beta 149.606293
_cell_angle_gamma 90.000000
_cell_volume 3406.249488
_symmetry_space_group_name_H-M "C 2/C"
_symmetry_group_IT_number 15
_symmetry_cell_setting 'monoclinic'
loop_
_space_group_symop_operation_xyz
x,y,z
-x,y,1/2-z
-x,-y,-z
x,-y,1/2+z
1/2+x,1/2+y,z
1/2-x,1/2+y,1/2-z
1/2-x,1/2-y,-z
1/2+x,1/2-y,1/2+z
loop_
_atom_site_type_symbol
_atom_site_label
_atom_site_fract_x
_atom_site_fract_y
_atom_site_fract_z
Si Si1 0.322276 0.708429 0.619423
Si Si2 0.705690 0.365680 0.584735
Si Si3 0.698725 0.701666 0.730595
Si Si4 0.225251 0.647888 0.809416
Si Si5 0.000000 0.332446 0.750000
Si Si6 0.442571 0.944122 0.891601
Si Si7 0.725925 0.529627 0.348418
Si Si8 0.582532 0.893268 0.939832
O O1 0.250000 0.750000 0.500000
O O2 0.291327 0.813817 0.636558
O O3 0.420667 0.739915 0.697219
O O4 0.312730 0.549442 0.637515
O O5 0.724745 0.301088 0.663049
O O6 0.709881 0.538524 0.591696
O O7 0.621405 0.273689 0.477952
O O8 0.727615 0.673540 0.699779
O O9 0.692396 0.558504 0.761626
O O10 0.609653 0.797982 0.643996
O O11 0.133053 0.561104 0.703267
O O12 0.209576 0.800209 0.823394
O O13 0.044663 0.424613 0.842798
O O14 0.507950 0.910745 0.908837
O O15 0.500000 0.000000 0.000000
O O16 0.832139 0.493384 0.459627
#
# Coordination Sequence:
#
# PCOD9266682 Si02
#       8
#     8   8   8   8   4   8   8   8
#     4  10  19  38  59  84 107 151 204 243 288 351
#     4   9  19  36  56  83 114 145 196 237 289 348
#     4   9  18  34  54  80 111 159 191 220 284 360
#     4  11  20  35  58  82 121 157 180 243 309 347
#     4  12  18  34  68  82 106 150 210 252 274 344
#     4  11  21  36  58  87 117 151 204 246 285 354
#     4  10  20  37  57  86 119 152 194 238 305 359
#     4  10  20  36  60  85 107 150 207 246 281 356
#
# _framework density 17.614681999999998
#
# number of rings (size 3 to 8) (size 9 to 14) (size 15 to 20)
#    0.000    2.133    2.667    6.400    0.000    0.000 
#    0.000    7.333    0.000    1.600    0.000    0.000 
#    0.000    0.000    0.000    0.000    0.000    0.000 
#
# Total GULP energy -167198.701252 kJ/mol
# GULP energy per Si atom -5573.290042 kJ/mol
# Density = 1.757459 g / cm^3
# Si number density = 17.614682 Si / 1000 Ang^3
#
#
#
# Elastic Constant Matrix: (Units=GPa)
#
#
# Indices 1 2 3 4 5 6 
#
# 1 126.5636 37.2017 37.7170 0.0000 14.8814 0.0000
# 2 37.2017 120.8605 32.1075 0.0000 -3.3766 0.0000
# 3 37.7170 32.1075 85.8775 0.0000 2.6300 0.0000
# 4 0.0000 0.0000 0.0000 16.3526 0.0000 0.8728
# 5 14.8814 -3.3766 2.6300 0.0000 37.3920 0.0000
# 6 0.0000 0.0000 0.0000 0.8728 0.0000 12.5595
#
#
#
# Elastic Compliance Matrix: (Units=1/GPa)
#
#
# Indices 1 2 3 4 5 6 
#
# 1 0.010069 -0.002296 -0.003442 0.000000 -0.003972 0.000000
# 2 -0.002296 0.009753 -0.002699 0.000000 0.001984 0.000000
# 3 -0.003442 -0.002699 0.014161 0.000000 0.000130 0.000000
# 4 0.000000 0.000000 0.000000 0.061380 0.000000 -0.004266
# 5 -0.003972 0.001984 0.000130 0.000000 0.028495 0.000000
# 6 0.000000 0.000000 0.000000 -0.004266 0.000000 0.079918
#
#
# Mechanical properties :
#
#
# Convention : Reuss Voigt Hill
#
# Bulk Modulus (GPa) = 58.44703 60.81710 59.63207
# Shear Modulus (GPa) = 22.08943 28.34583 25.21763
#
# Velocity S-wave (km/s) = 3.54508 4.01586 3.78779
# Velocity P-wave (km/s) = 7.07175 7.49027 7.28402
#
# Compressibility (1/GPa) = 0.01710951
#
# Stress axis : x y z
#
# Youngs Moduli (GPa) = 99.31593 102.53164 70.61464
#
# Poissons Ratio (x) = 0.23539 0.24307
# Poissons Ratio (y) = 0.22801 0.19058
# Poissons Ratio (z) = 0.34187 0.27672
#
# Static dielectric constant tensor:
#      x y z
#    x 1.610400 0.000000 -0.021580 
#    y 0.000000 1.614930 0.000000 
#    z -0.021580 0.000000 1.635980 
# 
# From -- ./inp_files/304201.got.cif
#   From: 2010.05.17/outbox.cif.g08.bks.cpg/sg15_153_cif.got.tgz:304201.got - 2010.06.03 18:47:42.
