data_PCOD9266200
_publ_section_title
;
Structure prediction by ZEFSAII (Michael W. Deem and Ramdas Pophale) SiO2 
 PCOD9266200
Probable space group: C 2/C
;
_chemical_formula_sum "Si O2"
_cell_formula_units_Z 64
_cell_length_a 29.791831
_cell_length_b 7.858775
_cell_length_c 14.264634
_cell_angle_alpha 90.000000
_cell_angle_beta 55.118437
_cell_angle_gamma 90.000000
_cell_volume 2739.708920
_symmetry_space_group_name_H-M "C 2/C"
_symmetry_group_IT_number 15
_symmetry_cell_setting 'monoclinic'
loop_
_space_group_symop_operation_xyz
x,y,z
-x,y,1/2-z
-x,-y,-z
x,-y,1/2+z
1/2+x,1/2+y,z
1/2-x,1/2+y,1/2-z
1/2-x,1/2-y,-z
1/2+x,1/2-y,1/2+z
loop_
_atom_site_type_symbol
_atom_site_label
_atom_site_fract_x
_atom_site_fract_y
_atom_site_fract_z
Si Si1 0.322906 0.882516 0.140862
Si Si2 0.066933 0.466038 0.071774
Si Si3 0.331275 0.635205 0.431803
Si Si4 0.606930 0.336950 0.826883
Si Si5 0.837679 0.323025 0.765048
Si Si6 0.945727 0.495261 0.190235
Si Si7 0.887238 0.113991 0.555677
Si Si8 0.218120 0.481875 0.498711
O O1 0.336698 0.719692 0.186962
O O2 0.312605 0.028569 0.229528
O O3 0.381098 0.924562 0.021474
O O4 0.281333 0.898804 0.105066
O O5 0.063062 0.460035 0.188709
O O6 0.009309 0.535569 0.103558
O O7 0.077889 0.277846 0.017572
O O8 0.374887 0.603049 0.297555
O O9 0.354862 0.565530 0.500695
O O10 0.275974 0.544055 0.467272
O O11 0.317649 0.839563 0.459109
O O12 0.571023 0.171904 0.847549
O O13 0.579750 0.467770 0.930870
O O14 0.901260 0.367145 0.712068
O O15 0.843267 0.167191 0.688030
O O16 0.807626 0.345337 0.899100
#
# Coordination Sequence:
#
# PCOD9266200 Si02
#       8
#     8   8   8   8   8   8   8   8
#     4  10  19  37  61  89 114 153 201 242 290 348
#     4  10  19  38  65  87 115 155 199 245 299 357
#     4  11  22  41  59  87 124 156 195 246 309 345
#     4  11  23  40  60  88 123 159 195 242 301 361
#     4  10  19  37  61  89 114 153 201 242 290 348
#     4  10  19  38  65  87 115 155 199 245 299 357
#     4  11  23  40  60  88 123 159 195 242 301 361
#     4  11  20  39  65  87 116 156 201 254 291 344
#
# _framework density 23.360146
#
# number of rings (size 3 to 8) (size 9 to 14) (size 15 to 20)
#    0.000    1.500    7.500    0.000    0.000    7.000 
#    0.000    1.250    0.000    3.000    0.000    0.000 
#    0.000    0.000    0.000    0.000    0.000    0.000 
#
# Total GULP energy -178874.404837 kJ/mol
# GULP energy per Si atom -5589.825151 kJ/mol
# Density = 2.330698 g / cm^3
# Si number density = 23.360146 Si / 1000 Ang^3
#
#
#
# Elastic Constant Matrix: (Units=GPa)
#
#
# Indices 1 2 3 4 5 6 
#
# 1 111.5847 9.5560 52.1523 0.0000 20.9903 0.0000
# 2 9.5560 50.0313 20.9526 0.0000 21.3320 0.0000
# 3 52.1523 20.9526 92.5787 0.0000 34.7004 0.0000
# 4 0.0000 0.0000 0.0000 25.4376 0.0000 8.8839
# 5 20.9903 21.3320 34.7004 0.0000 52.0817 0.0000
# 6 0.0000 0.0000 0.0000 8.8839 0.0000 17.6872
#
#
#
# Elastic Compliance Matrix: (Units=1/GPa)
#
#
# Indices 1 2 3 4 5 6 
#
# 1 0.012200 0.000824 -0.006784 0.000000 -0.000735 0.000000
# 2 0.000824 0.024662 -0.002846 0.000000 -0.008537 0.000000
# 3 -0.006784 -0.002846 0.018401 0.000000 -0.008360 0.000000
# 4 0.000000 0.000000 0.000000 0.047675 0.000000 -0.023946
# 5 -0.000735 -0.008537 -0.008360 0.000000 0.028564 0.000000
# 6 0.000000 0.000000 0.000000 -0.023946 0.000000 0.068565
#
#
# Mechanical properties :
#
#
# Convention : Reuss Voigt Hill
#
# Bulk Modulus (GPa) = 26.55930 46.61293 36.58612
# Shear Modulus (GPa) = 21.71760 30.47691 26.09726
#
# Velocity S-wave (km/s) = 3.05238 3.61592 3.34604
# Velocity P-wave (km/s) = 4.88026 6.11805 5.53387
#
# Compressibility (1/GPa) = 0.03765159
#
# Stress axis : x y z
#
# Youngs Moduli (GPa) = 81.96716 40.54831 54.34563
#
# Poissons Ratio (x) = -0.03341 0.36867
# Poissons Ratio (y) = -0.06754 0.15466
# Poissons Ratio (z) = 0.55605 0.11539
#
# Static dielectric constant tensor:
#      x y z
#    x 1.887210 0.000000 0.006170 
#    y 0.000000 1.976340 0.000000 
#    z 0.006170 0.000000 1.875370 
# 
# From -- ./inp_files/180800.got.cif
#   From: 2010.05.17/outbox.cif.g08.bks.cpg/sg15_91_cif.got.tgz:180800.got - 2010.06.03 18:47:42.
