data_PCOD9266494
_publ_section_title
;
Structure prediction by ZEFSAII (Michael W. Deem and Ramdas Pophale) SiO2 
 PCOD9266494
Probable space group: C 2/C
;
_chemical_formula_sum "Si O2"
_cell_formula_units_Z 40
_cell_length_a 7.396774
_cell_length_b 20.630699
_cell_length_c 12.100462
_cell_angle_alpha 90.000000
_cell_angle_beta 117.063673
_cell_angle_gamma 90.000000
_cell_volume 1644.344753
_symmetry_space_group_name_H-M "C 2/C"
_symmetry_group_IT_number 15
_symmetry_cell_setting 'monoclinic'
loop_
_space_group_symop_operation_xyz
x,y,z
-x,y,1/2-z
-x,-y,-z
x,-y,1/2+z
1/2+x,1/2+y,z
1/2-x,1/2+y,1/2-z
1/2-x,1/2-y,-z
1/2+x,1/2-y,1/2+z
loop_
_atom_site_type_symbol
_atom_site_label
_atom_site_fract_x
_atom_site_fract_y
_atom_site_fract_z
Si Si1 0.492920 0.253925 0.043751
Si Si2 0.352798 0.466865 0.610114
Si Si3 0.801993 0.353961 0.027828
Si Si4 0.264078 0.558783 0.407862
Si Si5 0.000000 0.675541 0.250000
Si Si6 0.000000 0.547410 0.750000
O O1 0.613505 0.318790 0.039685
O O2 0.589331 0.223614 0.182278
O O3 0.250000 0.250000 0.000000
O O4 0.548659 0.203796 0.963200
O O5 0.500000 0.484438 0.750000
O O6 0.240051 0.398267 0.594556
O O7 0.234742 0.527034 0.521537
O O8 0.498613 0.441269 0.551101
O O9 0.926773 0.405009 0.135172
O O10 0.177799 0.505936 0.295951
O O11 0.158992 0.626586 0.353045
#
# Coordination Sequence:
#
# PCOD9266494 Si02
#       6
#     8   8   8   8   4   4
#     4  11  25  41  63  96 128 180 229 273 334 395
#     4  10  19  37  65  95 128 171 212 270 337 395
#     4  10  23  42  63  95 132 174 226 274 333 398
#     4   9  20  37  62  98 129 165 215 269 333 399
#     4  11  22  40  64  92 134 169 214 278 326 393
#     4   9  20  40  64  90 134 173 212 282 332 397
#
# _framework density 24.325797999999999
#
# number of rings (size 3 to 8) (size 9 to 14) (size 15 to 20)
#    0.000    2.000    0.000    2.400    2.800    1.600 
#    3.600    6.000    4.400    0.000    0.000    0.000 
#    0.000    0.000    0.000    0.000    0.000    0.000 
#
# Total GULP energy -111369.199625 kJ/mol
# GULP energy per Si atom -5568.459981 kJ/mol
# Density = 2.427043 g / cm^3
# Si number density = 24.325798 Si / 1000 Ang^3
#
#
#
# Elastic Constant Matrix: (Units=GPa)
#
#
# Indices 1 2 3 4 5 6 
#
# 1 105.9576 34.7525 28.3047 0.0000 -3.7590 0.0000
# 2 34.7525 137.6233 47.7164 0.0000 -4.5716 0.0000
# 3 28.3047 47.7164 74.7361 0.0000 14.5528 0.0000
# 4 0.0000 0.0000 0.0000 40.5962 0.0000 -0.1092
# 5 -3.7590 -4.5716 14.5528 0.0000 21.4757 0.0000
# 6 0.0000 0.0000 0.0000 -0.1092 0.0000 20.2320
#
#
#
# Elastic Compliance Matrix: (Units=1/GPa)
#
#
# Indices 1 2 3 4 5 6 
#
# 1 0.011156 -0.001127 -0.004422 0.000000 0.004709 0.000000
# 2 -0.001127 0.010439 -0.007641 0.000000 0.007203 0.000000
# 3 -0.004422 -0.007641 0.023502 0.000000 -0.018327 0.000000
# 4 0.000000 0.000000 0.000000 0.024633 0.000000 0.000133
# 5 0.004709 0.007203 -0.018327 0.000000 0.061341 0.000000
# 6 0.000000 0.000000 0.000000 0.000133 0.000000 0.049427
#
#
# Mechanical properties :
#
#
# Convention : Reuss Voigt Hill
#
# Bulk Modulus (GPa) = 53.42817 59.98490 56.70654
# Shear Modulus (GPa) = 23.46116 30.29701 26.87908
#
# Velocity S-wave (km/s) = 3.10894 3.53295 3.32770
# Velocity P-wave (km/s) = 5.90750 6.43077 6.17468
#
# Compressibility (1/GPa) = 0.01871672
#
# Stress axis : x y z
#
# Youngs Moduli (GPa) = 89.63858 95.79186 42.54922
#
# Poissons Ratio (x) = 0.10799 0.18817
# Poissons Ratio (y) = 0.10105 0.32510
# Poissons Ratio (z) = 0.39641 0.73191
#
# Static dielectric constant tensor:
#      x y z
#    x 2.075280 0.000000 0.000820 
#    y 0.000000 1.998990 0.000000 
#    z 0.000820 0.000000 2.016270 
# 
# From -- ./inp_files/79574.got.cif
#   From: 2010.05.17/outbox.cif.g08.bks.cpg/sg15_40_cif.got.tgz:79574.got - 2010.06.03 18:47:42.
