data_PCOD9266736
_publ_section_title
;
Structure prediction by ZEFSAII (Michael W. Deem and Ramdas Pophale) SiO2 
 PCOD9266736
Probable space group: C 2/C
;
_chemical_formula_sum "Si O2"
_cell_formula_units_Z 60
_cell_length_a 21.797751
_cell_length_b 9.693193
_cell_length_c 28.376919
_cell_angle_alpha 90.000000
_cell_angle_beta 148.790693
_cell_angle_gamma 90.000000
_cell_volume 3106.795414
_symmetry_space_group_name_H-M "C 2/C"
_symmetry_group_IT_number 15
_symmetry_cell_setting 'monoclinic'
loop_
_space_group_symop_operation_xyz
x,y,z
-x,y,1/2-z
-x,-y,-z
x,-y,1/2+z
1/2+x,1/2+y,z
1/2-x,1/2+y,1/2-z
1/2-x,1/2-y,-z
1/2+x,1/2-y,1/2+z
loop_
_atom_site_type_symbol
_atom_site_label
_atom_site_fract_x
_atom_site_fract_y
_atom_site_fract_z
Si Si1 0.000000 0.009452 0.750000
Si Si2 0.519589 0.889498 0.655878
Si Si3 0.845793 0.360682 0.453531
Si Si4 0.727809 0.093430 0.805908
Si Si5 0.101235 0.897675 0.172824
Si Si6 0.303547 0.405112 0.685833
Si Si7 0.650582 0.740116 0.893740
Si Si8 0.588859 0.418882 0.524790
O O1 0.936165 0.107829 0.669250
O O2 0.898877 0.919673 0.707064
O O3 0.430812 0.897721 0.552937
O O4 0.597301 0.751297 0.695813
O O5 0.441295 0.859708 0.651322
O O6 0.602568 0.021906 0.713234
O O7 0.805670 0.497679 0.400943
O O8 0.730774 0.279495 0.399648
O O9 0.904624 0.243861 0.459711
O O10 0.808024 0.099831 0.811387
O O11 0.723277 0.248266 0.821392
O O12 0.789464 0.995739 0.885384
O O13 0.139682 0.019135 0.232107
O O14 0.969482 0.922320 0.065219
O O15 0.750000 0.750000 0.000000
O O16 0.500000 0.500000 0.500000
#
# Coordination Sequence:
#
# PCOD9266736 Si02
#       8
#     4   8   8   8   8   8   8   8
#     4  10  20  38  58  84 116 160 190 232 294 362
#     4  10  19  38  60  86 112 147 206 245 284 343
#     4   9  20  37  63  82 112 159 198 237 292 358
#     4  11  23  36  56  90 121 151 194 249 300 348
#     4  10  20  39  61  80 114 161 197 240 291 355
#     4  11  22  38  58  84 124 156 191 236 301 359
#     4   9  18  34  61  84 106 145 202 241 273 345
#     4   9  20  38  57  85 118 150 198 247 288 342
#
# _framework density 19.312505000000002
#
# number of rings (size 3 to 8) (size 9 to 14) (size 15 to 20)
#    0.000    2.133    1.333    1.600    1.867    2.133 
#    2.400   10.667    0.000    3.200    0.000    0.000 
#    0.000    0.000    0.000    0.000    0.000    0.000 
#
# Total GULP energy -167195.412534 kJ/mol
# GULP energy per Si atom -5573.180418 kJ/mol
# Density = 1.926855 g / cm^3
# Si number density = 19.312505 Si / 1000 Ang^3
#
#
#
# Elastic Constant Matrix: (Units=GPa)
#
#
# Indices 1 2 3 4 5 6 
#
# 1 48.2244 34.1497 18.7890 0.0000 4.5769 0.0000
# 2 34.1497 140.0695 64.3981 0.0000 -6.1425 0.0000
# 3 18.7890 64.3981 94.1050 0.0000 2.1295 0.0000
# 4 0.0000 0.0000 0.0000 22.3237 0.0000 -7.0413
# 5 4.5769 -6.1425 2.1295 0.0000 23.3816 0.0000
# 6 0.0000 0.0000 0.0000 -7.0413 0.0000 3.7891
#
#
#
# Elastic Compliance Matrix: (Units=1/GPa)
#
#
# Indices 1 2 3 4 5 6 
#
# 1 0.026143 -0.006330 -0.000736 0.000000 -0.006713 0.000000
# 2 -0.006330 0.012225 -0.007218 0.000000 0.005108 0.000000
# 3 -0.000736 -0.007218 0.015785 0.000000 -0.003190 0.000000
# 4 0.000000 0.000000 0.000000 0.108240 0.000000 0.201143
# 5 -0.006713 0.005108 -0.003190 0.000000 0.045715 0.000000
# 6 0.000000 0.000000 0.000000 0.201143 0.000000 0.637701
#
#
# Mechanical properties :
#
#
# Convention : Reuss Voigt Hill
#
# Bulk Modulus (GPa) = 39.08472 57.45248 48.26860
# Shear Modulus (GPa) = 5.66314 20.90302 13.28308
#
# Velocity S-wave (km/s) = 1.71427 3.29349 2.62543
# Velocity P-wave (km/s) = 4.91938 6.65404 5.85134
#
# Compressibility (1/GPa) = 0.02558544
#
# Stress axis : x y z
#
# Youngs Moduli (GPa) = 38.25164 81.80082 63.35250
#
# Poissons Ratio (x) = 0.51777 0.04664
# Poissons Ratio (y) = 0.24212 0.45725
# Poissons Ratio (z) = 0.02816 0.59040
#
# Static dielectric constant tensor:
#      x y z
#    x 1.732660 0.000000 0.013300 
#    y 0.000000 1.653210 0.000000 
#    z 0.013300 0.000000 1.730700 
# 
# From -- ./inp_files/318516.got.cif
#   From: 2010.05.17/outbox.cif.g08.bks.cpg/sg15_160_cif.got.tgz:318516.got - 2010.06.03 18:47:42.
