data_PCOD9266213
_publ_section_title
;
Structure prediction by ZEFSAII (Michael W. Deem and Ramdas Pophale) SiO2 
 PCOD9266213
Probable space group: C 2/C
;
_chemical_formula_sum "Si O2"
_cell_formula_units_Z 56
_cell_length_a 13.003871
_cell_length_b 22.112498
_cell_length_c 27.955216
_cell_angle_alpha 90.000000
_cell_angle_beta 160.007584
_cell_angle_gamma 90.000000
_cell_volume 2748.318257
_symmetry_space_group_name_H-M "C 2/C"
_symmetry_group_IT_number 15
_symmetry_cell_setting 'monoclinic'
loop_
_space_group_symop_operation_xyz
x,y,z
-x,y,1/2-z
-x,-y,-z
x,-y,1/2+z
1/2+x,1/2+y,z
1/2-x,1/2+y,1/2-z
1/2-x,1/2-y,-z
1/2+x,1/2-y,1/2+z
loop_
_atom_site_type_symbol
_atom_site_label
_atom_site_fract_x
_atom_site_fract_y
_atom_site_fract_z
Si Si1 0.538508 0.849681 0.823670
Si Si2 0.918201 0.215863 0.807803
Si Si3 0.200961 0.187626 0.636780
Si Si4 0.677812 0.991054 0.527447
Si Si5 0.683254 0.117564 0.632448
Si Si6 0.916780 0.680098 0.424665
Si Si7 0.703941 0.921622 0.696205
O O1 0.500000 0.856906 0.750000
O O2 0.414209 0.783905 0.786258
O O3 0.375335 0.899221 0.785385
O O4 0.893459 0.846788 0.991162
O O5 0.782044 0.205145 0.800110
O O6 0.763622 0.171961 0.702305
O O7 0.267336 0.195545 0.963616
O O8 0.500000 0.154931 0.750000
O O9 0.190277 0.253600 0.606807
O O10 0.511004 0.934711 0.429227
O O11 0.019188 0.968975 0.684233
O O12 0.500000 0.000000 0.500000
O O13 0.591899 0.049010 0.458238
O O14 0.497446 0.142400 0.506554
O O15 0.000000 0.093570 0.750000
O O16 0.727682 0.638231 0.306053
#
# Coordination Sequence:
#
# PCOD9266213 Si02
#       7
#     8   8   8   8   8   8   8
#     4  11  23  46  66  94 132 180 221 265 328 399
#     4  10  19  39  64  98 135 170 207 267 328 396
#     4  11  22  35  64  99 133 168 217 266 328 398
#     4  12  26  40  64  97 129 170 222 274 332 393
#     4  10  21  35  62  95 134 167 208 268 327 390
#     4  10  19  37  61  90 131 173 204 253 329 397
#     4  12  25  43  66  91 132 177 217 273 329 393
#
# _framework density 20.376097000000001
#
# number of rings (size 3 to 8) (size 9 to 14) (size 15 to 20)
#    0.000    1.143    4.286    4.286    4.000    1.143 
#    0.000    2.857    0.000    0.857    0.000    0.000 
#    0.000    0.000    0.000    0.000    0.000    0.000 
#
# Total GULP energy -156435.289201 kJ/mol
# GULP energy per Si atom -5586.974614 kJ/mol
# Density = 2.032972 g / cm^3
# Si number density = 20.376097 Si / 1000 Ang^3
#
#
#
# Elastic Constant Matrix: (Units=GPa)
#
#
# Indices 1 2 3 4 5 6 
#
# 1 120.7388 21.6754 40.3931 0.0035 -11.2853 -0.0055
# 2 21.6754 62.1962 22.9146 0.0049 1.6149 -0.0044
# 3 40.3931 22.9146 90.4928 -0.0109 4.3738 -0.0146
# 4 0.0035 0.0049 -0.0109 21.2253 -0.0316 -4.4358
# 5 -11.2853 1.6149 4.3738 -0.0316 25.0764 0.0180
# 6 -0.0055 -0.0044 -0.0146 -4.4358 0.0180 25.9511
#
#
#
# Elastic Compliance Matrix: (Units=1/GPa)
#
#
# Indices 1 2 3 4 5 6 
#
# 1 0.010727 -0.002229 -0.004502 0.000004 0.005756 -0.000004
# 2 -0.002229 0.018199 -0.003538 -0.000008 -0.001558 0.000000
# 3 -0.004502 -0.003538 0.014162 0.000005 -0.004268 0.000010
# 4 0.000004 -0.000008 0.000005 0.048859 0.000057 0.008351
# 5 0.005756 -0.001558 -0.004268 0.000057 0.043314 -0.000022
# 6 -0.000004 0.000000 0.000010 0.008351 -0.000022 0.039961
#
#
# Mechanical properties :
#
#
# Convention : Reuss Voigt Hill
#
# Bulk Modulus (GPa) = 44.34595 49.26601 46.80598
# Shear Modulus (GPa) = 24.59706 27.01354 25.80530
#
# Velocity S-wave (km/s) = 3.47818 3.64503 3.56258
# Velocity P-wave (km/s) = 6.15965 6.47656 6.32009
#
# Compressibility (1/GPa) = 0.02254997
#
# Stress axis : x y z
#
# Youngs Moduli (GPa) = 93.22620 54.94825 70.61029
#
# Poissons Ratio (x) = 0.12249 0.31787
# Poissons Ratio (y) = 0.20781 0.24982
# Poissons Ratio (z) = 0.41968 0.19441
#
# Static dielectric constant tensor:
#      x y z
#    x 1.719010 0.000000 0.024620 
#    y 0.000000 1.757430 -0.000030 
#    z 0.024620 -0.000030 1.794510 
# 
# From -- ./inp_files/293954.got.cif
#   From: 2010.05.17/outbox.cif.g08.bks.cpg/sg15_147_cif.got.tgz:293954.got - 2010.06.03 18:47:42.
