data_PCOD9266519
_publ_section_title
;
Structure prediction by ZEFSAII (Michael W. Deem and Ramdas Pophale) SiO2 
 PCOD9266519
Probable space group: C 2/C
;
_chemical_formula_sum "Si O2"
_cell_formula_units_Z 32
_cell_length_a 9.931309
_cell_length_b 10.306292
_cell_length_c 13.813692
_cell_angle_alpha 90.000000
_cell_angle_beta 111.733712
_cell_angle_gamma 90.000000
_cell_volume 1313.392751
_symmetry_space_group_name_H-M "C 2/C"
_symmetry_group_IT_number 15
_symmetry_cell_setting 'monoclinic'
loop_
_space_group_symop_operation_xyz
x,y,z
-x,y,1/2-z
-x,-y,-z
x,-y,1/2+z
1/2+x,1/2+y,z
1/2-x,1/2+y,1/2-z
1/2-x,1/2-y,-z
1/2+x,1/2-y,1/2+z
loop_
_atom_site_type_symbol
_atom_site_label
_atom_site_fract_x
_atom_site_fract_y
_atom_site_fract_z
Si Si1 0.321112 0.379737 0.470492
Si Si2 0.067175 0.798077 0.659741
Si Si3 0.116060 0.263947 0.699457
Si Si4 0.025784 0.511686 0.872934
O O1 0.250000 0.250000 0.500000
O O2 0.473218 0.390755 0.566042
O O3 0.341651 0.349093 0.362849
O O4 0.194569 0.485067 0.445791
O O5 0.237745 0.817493 0.713018
O O6 0.000000 0.807826 0.750000
O O7 0.044603 0.649142 0.619122
O O8 0.000000 0.225162 0.750000
O O9 0.051142 0.380101 0.616611
O O10 0.000000 0.506633 0.750000
#
# Coordination Sequence:
#
# PCOD9266519 Si02
#       4
#     8   8   8   8
#     4  10  19  37  66  89 126 171 206 252 316 376
#     4  10  19  39  61  88 128 167 208 255 310 375
#     4  11  22  37  64  97 125 162 210 263 310 365
#     4   9  18  37  64  88 126 163 206 252 312 368
#
# _framework density 24.364380000000001
#
# number of rings (size 3 to 8) (size 9 to 14) (size 15 to 20)
#    0.000    2.000    7.500    0.000    0.000    5.000 
#    0.000    6.250    0.000    0.000    0.000    0.000 
#    0.000    0.000    0.000    0.000    0.000    0.000 
#
# Total GULP energy -89476.342553 kJ/mol
# GULP energy per Si atom -5592.271410 kJ/mol
# Density = 2.430893 g / cm^3
# Si number density = 24.364380 Si / 1000 Ang^3
#
#
#
# Elastic Constant Matrix: (Units=GPa)
#
#
# Indices 1 2 3 4 5 6 
#
# 1 158.8880 7.8543 55.3363 0.0000 25.8806 0.0000
# 2 7.8543 49.2146 -4.7127 0.0000 3.6889 0.0000
# 3 55.3363 -4.7127 123.0219 0.0000 18.7742 0.0000
# 4 0.0000 0.0000 0.0000 -4.8011 0.0000 -7.0116
# 5 25.8806 3.6889 18.7742 0.0000 58.7542 0.0000
# 6 0.0000 0.0000 0.0000 -7.0116 0.0000 25.5457
#
#
#
# Elastic Compliance Matrix: (Units=1/GPa)
#
#
# Indices 1 2 3 4 5 6 
#
# 1 0.007872 -0.001390 -0.003236 0.000000 -0.002346 0.000000
# 2 -0.001390 0.020785 0.001606 0.000000 -0.001206 0.000000
# 3 -0.003236 0.001606 0.009928 0.000000 -0.001848 0.000000
# 4 0.000000 0.000000 0.000000 -0.148685 0.000000 -0.040810
# 5 -0.002346 -0.001206 -0.001848 0.000000 0.018720 0.000000
# 6 0.000000 0.000000 0.000000 -0.040810 0.000000 0.027944
#
#
# Mechanical properties :
#
#
# Convention : Reuss Voigt Hill
#
# Bulk Modulus (GPa) = 30.72839 49.78669 40.25754
# Shear Modulus (GPa) = -107.41678 34.07620 -36.67029
#
# Velocity S-wave (km/s) = -6.64706 3.74385 -3.88374
# Velocity P-wave (km/s) = 6.80233 6.25837 1.88475
#
# Compressibility (1/GPa) = 0.03254319
#
# Stress axis : x y z
#
# Youngs Moduli (GPa) = 127.03916 48.11122 100.72865
#
# Poissons Ratio (x) = 0.06689 0.32595
# Poissons Ratio (y) = 0.17662 -0.16173
# Poissons Ratio (z) = 0.41109 -0.07725
#
# Static dielectric constant tensor:
#      x y z
#    x 1.941610 0.000000 0.002350 
#    y 0.000000 1.993330 0.000000 
#    z 0.002350 0.000000 1.951550 
# 
# From -- ./inp_files/131938.got.cif
#   From: 2010.05.17/outbox.cif.g08.bks.cpg/sg15_66_cif.got.tgz:131938.got - 2010.06.03 18:47:42.
