data_PCOD9266977
_publ_section_title
;
Structure prediction by ZEFSAII (Michael W. Deem and Ramdas Pophale) SiO2 
 PCOD9266977
Probable space group: C 2/C
;
_chemical_formula_sum "Si O2"
_cell_formula_units_Z 40
_cell_length_a 12.415518
_cell_length_b 9.436536
_cell_length_c 14.516088
_cell_angle_alpha 90.000000
_cell_angle_beta 112.756722
_cell_angle_gamma 90.000000
_cell_volume 1568.307587
_symmetry_space_group_name_H-M "C 2/C"
_symmetry_group_IT_number 15
_symmetry_cell_setting 'monoclinic'
loop_
_space_group_symop_operation_xyz
x,y,z
-x,y,1/2-z
-x,-y,-z
x,-y,1/2+z
1/2+x,1/2+y,z
1/2-x,1/2+y,1/2-z
1/2-x,1/2-y,-z
1/2+x,1/2-y,1/2+z
loop_
_atom_site_type_symbol
_atom_site_label
_atom_site_fract_x
_atom_site_fract_y
_atom_site_fract_z
Si Si1 0.656729 0.409475 0.874251
Si Si2 0.715190 0.304773 0.704543
Si Si3 0.906214 0.522322 0.797764
Si Si4 0.921414 0.658103 0.511140
Si Si5 0.428489 0.372431 0.021944
O O1 0.639410 0.383439 0.760135
O O2 0.603417 0.280872 0.918281
O O3 0.795713 0.400000 0.941397
O O4 0.617259 0.561738 0.898939
O O5 0.840545 0.377132 0.753960
O O6 0.695591 0.142038 0.727212
O O7 0.669160 0.331549 0.586186
O O8 0.000000 0.550925 0.750000
O O9 0.986523 0.552359 0.912504
O O10 0.983647 0.742322 0.449104
O O11 0.500000 0.500000 0.000000
#
# Coordination Sequence:
#
# PCOD9266977 Si02
#       5
#     8   8   8   8   8
#     4  10  19  38  63  94 122 170 216 257 317 387
#     4  11  24  39  68  99 126 174 221 259 323 395
#     4  11  22  43  64  94 133 169 215 269 322 375
#     4   9  19  35  62  90 121 168 209 265 317 376
#     4   9  20  34  59  94 125 160 215 262 310 378
#
# _framework density 25.505202000000001
#
# number of rings (size 3 to 8) (size 9 to 14) (size 15 to 20)
#    0.000    2.000    2.000    1.200    5.600    0.800 
#    0.000    7.000    0.000    0.000    0.000    0.000 
#    0.000    0.000    0.000    0.000    0.000    0.000 
#
# Total GULP energy -111913.032998 kJ/mol
# GULP energy per Si atom -5595.651650 kJ/mol
# Density = 2.544715 g / cm^3
# Si number density = 25.505202 Si / 1000 Ang^3
#
#
#
# Elastic Constant Matrix: (Units=GPa)
#
#
# Indices 1 2 3 4 5 6 
#
# 1 84.4765 55.8058 19.1919 0.0000 23.5271 0.0000
# 2 55.8058 112.3754 21.8915 0.0000 22.0406 0.0000
# 3 19.1919 21.8915 66.7580 0.0000 0.0702 0.0000
# 4 0.0000 0.0000 0.0000 32.7527 0.0000 -3.4780
# 5 23.5271 22.0406 0.0702 0.0000 46.1816 0.0000
# 6 0.0000 0.0000 0.0000 -3.4780 0.0000 41.0212
#
#
#
# Elastic Compliance Matrix: (Units=1/GPa)
#
#
# Indices 1 2 3 4 5 6 
#
# 1 0.019418 -0.007854 -0.003000 0.000000 -0.006139 0.000000
# 2 -0.007854 0.013737 -0.002244 0.000000 -0.002551 0.000000
# 3 -0.003000 -0.002244 0.016575 0.000000 0.002574 0.000000
# 4 0.000000 0.000000 0.000000 0.030809 0.000000 0.002612
# 5 -0.006139 -0.002551 0.002574 0.000000 0.025995 0.000000
# 6 0.000000 0.000000 0.000000 0.002612 0.000000 0.024599
#
#
# Mechanical properties :
#
#
# Convention : Reuss Voigt Hill
#
# Bulk Modulus (GPa) = 42.49418 50.82092 46.65755
# Shear Modulus (GPa) = 30.27118 35.10581 32.68849
#
# Velocity S-wave (km/s) = 3.44883 3.71403 3.58388
# Velocity P-wave (km/s) = 5.70582 6.19363 5.95472
#
# Compressibility (1/GPa) = 0.02353263
#
# Stress axis : x y z
#
# Youngs Moduli (GPa) = 51.49973 72.79776 60.33141
#
# Poissons Ratio (x) = 0.57177 0.18101
# Poissons Ratio (y) = 0.40449 0.13538
# Poissons Ratio (z) = 0.15451 0.16335
#
# Static dielectric constant tensor:
#      x y z
#    x 2.045190 0.000000 -0.071400 
#    y 0.000000 1.766300 0.000000 
#    z -0.071400 0.000000 2.171840 
# 
# From -- ./inp_files/142388.got.cif
#   From: 2010.05.17/outbox.cif.g08.bks.cpg/sg15_72_cif.got.tgz:142388.got - 2010.06.03 18:47:42.
