data_PCOD9266248
_publ_section_title
;
Structure prediction by ZEFSAII (Michael W. Deem and Ramdas Pophale) SiO2 
 PCOD9266248
Probable space group: C 2/C
;
_chemical_formula_sum "Si O2"
_cell_formula_units_Z 56
_cell_length_a 22.568733
_cell_length_b 16.611809
_cell_length_c 9.230257
_cell_angle_alpha 90.000000
_cell_angle_beta 129.989007
_cell_angle_gamma 90.000000
_cell_volume 2651.317707
_symmetry_space_group_name_H-M "C 2/C"
_symmetry_group_IT_number 15
_symmetry_cell_setting 'monoclinic'
loop_
_space_group_symop_operation_xyz
x,y,z
-x,y,1/2-z
-x,-y,-z
x,-y,1/2+z
1/2+x,1/2+y,z
1/2-x,1/2+y,1/2-z
1/2-x,1/2-y,-z
1/2+x,1/2-y,1/2+z
loop_
_atom_site_type_symbol
_atom_site_label
_atom_site_fract_x
_atom_site_fract_y
_atom_site_fract_z
Si Si1 0.896687 0.304624 0.393161
Si Si2 0.181218 0.253221 0.541371
Si Si3 0.798092 0.965817 0.094600
Si Si4 0.938672 0.069163 0.371171
Si Si5 0.322821 0.340008 0.901333
Si Si6 0.973278 0.236668 0.053228
Si Si7 0.730990 0.915301 0.292036
O O1 0.866651 0.244582 0.469810
O O2 0.857370 0.388296 0.369113
O O3 0.986847 0.289984 0.507633
O O4 0.858439 0.274698 0.176383
O O5 0.243243 0.320046 0.690505
O O6 0.118067 0.238967 0.568686
O O7 0.223785 0.167026 0.594328
O O8 0.775985 0.951116 0.225116
O O9 0.874291 0.020111 0.179423
O O10 0.806563 0.881245 0.027331
O O11 0.732176 0.018523 0.917567
O O12 0.883333 0.103353 0.410638
O O13 0.987936 0.147059 0.396748
O O14 0.000000 0.000000 0.500000
O O15 0.000000 0.270914 0.250000
#
# Coordination Sequence:
#
# PCOD9266248 Si02
#       7
#     8   8   8   8   8   8   8
#     4   9  19  36  59  83 120 157 206 246 297 353
#     4  10  19  37  62  85 119 161 208 240 297 364
#     4  12  23  36  57  89 123 160 199 248 310 367
#     4  11  22  35  54  89 129 156 189 242 316 371
#     4  10  21  36  55  83 119 160 197 248 292 367
#     4   9  18  32  57  86 112 157 202 244 286 364
#     4  11  22  36  59  86 119 159 197 249 297 365
#
# _framework density 21.121573000000001
#
# number of rings (size 3 to 8) (size 9 to 14) (size 15 to 20)
#    0.000    1.714    1.429    6.000    2.000    2.286 
#    0.000    0.000    0.000    3.429    3.714    0.000 
#    0.000    0.000    0.000    0.000    0.000    0.000 
#
# Total GULP energy -156017.749798 kJ/mol
# GULP energy per Si atom -5572.062493 kJ/mol
# Density = 2.107350 g / cm^3
# Si number density = 21.121573 Si / 1000 Ang^3
#
#
#
# Elastic Constant Matrix: (Units=GPa)
#
#
# Indices 1 2 3 4 5 6 
#
# 1 119.8728 40.2937 14.0823 0.0000 22.0874 0.0000
# 2 40.2937 57.1086 16.1979 0.0000 4.4994 0.0000
# 3 14.0823 16.1979 19.4807 0.0000 -4.7906 0.0000
# 4 0.0000 0.0000 0.0000 32.7029 0.0000 6.0696
# 5 22.0874 4.4994 -4.7906 0.0000 19.7941 0.0000
# 6 0.0000 0.0000 0.0000 6.0696 0.0000 34.6977
#
#
#
# Elastic Compliance Matrix: (Units=1/GPa)
#
#
# Indices 1 2 3 4 5 6 
#
# 1 0.014835 -0.006319 -0.009769 0.000000 -0.017482 0.000000
# 2 -0.006319 0.027833 -0.019561 0.000000 -0.004010 0.000000
# 3 -0.009769 -0.019561 0.083396 0.000000 0.035531 0.000000
# 4 0.000000 0.000000 0.000000 0.031604 0.000000 -0.005529
# 5 -0.017482 -0.004010 0.035531 0.000000 0.079538 0.000000
# 6 0.000000 0.000000 0.000000 -0.005529 0.000000 0.029787
#
#
# Mechanical properties :
#
#
# Convention : Reuss Voigt Hill
#
# Bulk Modulus (GPa) = 18.25911 37.51221 27.88566
# Shear Modulus (GPa) = 14.02342 25.83148 19.92745
#
# Velocity S-wave (km/s) = 2.57950 3.50092 3.07492
# Velocity P-wave (km/s) = 4.18751 5.84300 5.08310
#
# Compressibility (1/GPa) = 0.05476719
#
# Stress axis : x y z
#
# Youngs Moduli (GPa) = 67.40851 35.92880 11.99093
#
# Poissons Ratio (x) = 0.22703 0.11714
# Poissons Ratio (y) = 0.42595 0.23455
# Poissons Ratio (z) = 0.65851 0.70279
#
# Static dielectric constant tensor:
#      x y z
#    x 1.878140 0.000000 0.061000 
#    y 0.000000 1.785030 0.000000 
#    z 0.061000 0.000000 1.853140 
# 
# From -- ./inp_files/62763.got.cif
#   From: 2010.05.17/outbox.cif.g08.bks.cpg/sg15_32_cif.got.tgz:62763.got - 2010.06.03 18:47:42.
