data_PCOD9266022
_publ_section_title
;
Structure prediction by ZEFSAII (Michael W. Deem and Ramdas Pophale) SiO2 
 PCOD9266022
Probable space group: C 2/C
;
_chemical_formula_sum "Si O2"
_cell_formula_units_Z 48
_cell_length_a 16.685827
_cell_length_b 8.625966
_cell_length_c 32.854583
_cell_angle_alpha 90.000000
_cell_angle_beta 30.015346
_cell_angle_gamma 90.000000
_cell_volume 2365.499460
_symmetry_space_group_name_H-M "C 2/C"
_symmetry_group_IT_number 15
_symmetry_cell_setting 'monoclinic'
loop_
_space_group_symop_operation_xyz
x,y,z
-x,y,1/2-z
-x,-y,-z
x,-y,1/2+z
1/2+x,1/2+y,z
1/2-x,1/2+y,1/2-z
1/2-x,1/2-y,-z
1/2+x,1/2-y,1/2+z
loop_
_atom_site_type_symbol
_atom_site_label
_atom_site_fract_x
_atom_site_fract_y
_atom_site_fract_z
Si Si1 0.669668 0.511610 0.178221
Si Si2 0.801149 0.282526 0.885957
Si Si3 0.943470 0.430851 0.667491
Si Si4 0.824941 0.287554 0.176974
Si Si5 0.547918 0.781857 0.923630
Si Si6 0.391728 0.452608 0.586992
O O1 0.500000 0.600164 0.250000
O O2 0.641330 0.381631 0.156177
O O3 0.719917 0.410819 0.196377
O O4 0.823003 0.623812 0.106156
O O5 0.773792 0.394705 0.859461
O O6 0.909958 0.373497 0.869527
O O7 0.625354 0.240544 0.980337
O O8 0.912203 0.612703 0.673452
O O9 0.789134 0.342186 0.753367
O O10 0.974535 0.368221 0.608638
O O11 0.938395 0.192525 0.095260
O O12 0.616886 0.610954 0.884783
O O13 0.500000 0.500000 0.500000
#
# Coordination Sequence:
#
# PCOD9266022 Si02
#       6
#     8   8   8   8   8   8
#     4  10  19  37  59  87 117 157 211 250 299 365
#     4  10  20  38  62  84 117 164 203 250 307 369
#     4  11  21  37  59  89 121 161 203 251 317 369
#     4  10  21  37  59  85 123 160 200 260 311 363
#     4  10  21  37  57  87 123 155 200 251 308 366
#     4   9  20  40  59  83 119 158 202 253 301 364
#
# _framework density 20.291696000000002
#
# number of rings (size 3 to 8) (size 9 to 14) (size 15 to 20)
#    0.000    2.000    1.667    2.000    0.000    1.333 
#    9.000    3.333    0.000    0.000    0.000    0.000 
#    0.000    0.000    0.000    0.000    0.000    0.000 
#
# Total GULP energy -133602.197501 kJ/mol
# GULP energy per Si atom -5566.758229 kJ/mol
# Density = 2.024551 g / cm^3
# Si number density = 20.291696 Si / 1000 Ang^3
#
#
#
# Elastic Constant Matrix: (Units=GPa)
#
#
# Indices 1 2 3 4 5 6 
#
# 1 85.4000 37.2439 15.2954 -0.0026 -21.6760 -0.0015
# 2 37.2439 81.2289 12.3334 0.0061 -18.5263 0.0055
# 3 15.2954 12.3334 53.4548 -0.0011 -11.4519 0.0004
# 4 -0.0026 0.0061 -0.0011 20.9800 0.0004 9.5777
# 5 -21.6760 -18.5263 -11.4519 0.0004 24.3913 0.0008
# 6 -0.0015 0.0055 0.0004 9.5777 0.0008 41.2823
#
#
#
# Elastic Compliance Matrix: (Units=1/GPa)
#
#
# Indices 1 2 3 4 5 6 
#
# 1 0.016842 -0.005135 -0.001405 0.000003 0.010407 0.000000
# 2 -0.005135 0.016517 -0.000702 -0.000005 0.007652 -0.000001
# 3 -0.001405 -0.000702 0.021002 0.000001 0.008079 -0.000001
# 4 0.000003 -0.000005 0.000001 0.053311 -0.000001 -0.012368
# 5 0.010407 0.007652 0.008079 -0.000001 0.059852 -0.000002
# 6 0.000000 -0.000001 -0.000001 -0.012368 -0.000002 0.027093
#
#
# Mechanical properties :
#
#
# Convention : Reuss Voigt Hill
#
# Bulk Modulus (GPa) = 25.07690 38.86992 31.97341
# Shear Modulus (GPa) = 22.48249 27.67809 25.08029
#
# Velocity S-wave (km/s) = 3.33222 3.69726 3.51948
# Velocity P-wave (km/s) = 5.21440 6.11747 5.68390
#
# Compressibility (1/GPa) = 0.03987733
#
# Stress axis : x y z
#
# Youngs Moduli (GPa) = 59.37417 60.54216 47.61415
#
# Poissons Ratio (x) = 0.31091 0.06689
# Poissons Ratio (y) = 0.30491 0.03343
# Poissons Ratio (z) = 0.08341 0.04251
#
# Static dielectric constant tensor:
#      x y z
#    x 1.732000 -0.000010 0.017830 
#    y -0.000010 1.789930 0.000010 
#    z 0.017830 0.000010 1.875890 
# 
# From -- ./inp_files/312808.got.cif
#   From: 2010.05.17/outbox.cif.g08.bks.cpg/sg15_157_cif.got.tgz:312808.got - 2010.06.03 18:47:42.
