data_PCOD9266218
_publ_section_title
;
Structure prediction by ZEFSAII (Michael W. Deem and Ramdas Pophale) SiO2 
 PCOD9266218
Probable space group: C 2/C
;
_chemical_formula_sum "Si O2"
_cell_formula_units_Z 56
_cell_length_a 14.852097
_cell_length_b 17.952675
_cell_length_c 16.393971
_cell_angle_alpha 90.000000
_cell_angle_beta 140.909296
_cell_angle_gamma 90.000000
_cell_volume 2756.262407
_symmetry_space_group_name_H-M "C 2/C"
_symmetry_group_IT_number 15
_symmetry_cell_setting 'monoclinic'
loop_
_space_group_symop_operation_xyz
x,y,z
-x,y,1/2-z
-x,-y,-z
x,-y,1/2+z
1/2+x,1/2+y,z
1/2-x,1/2+y,1/2-z
1/2-x,1/2-y,-z
1/2+x,1/2-y,1/2+z
loop_
_atom_site_type_symbol
_atom_site_label
_atom_site_fract_x
_atom_site_fract_y
_atom_site_fract_z
Si Si1 0.134397 0.604822 0.889354
Si Si2 0.882416 0.152548 0.605894
Si Si3 0.644631 0.234419 0.541802
Si Si4 0.162698 0.559096 0.342055
Si Si5 0.294447 0.638651 0.287619
Si Si6 0.057854 0.180179 0.384166
Si Si7 0.930915 0.666369 0.504203
O O1 0.161959 0.527875 0.862911
O O2 0.076890 0.596433 0.941148
O O3 0.000000 0.642249 0.750000
O O4 0.280403 0.650519 0.998052
O O5 0.774151 0.198257 0.585867
O O6 0.942987 0.213724 0.583872
O O7 0.783054 0.097034 0.484147
O O8 0.000000 0.119853 0.750000
O O9 0.700149 0.291689 0.647811
O O10 0.555241 0.172338 0.525645
O O11 0.212758 0.577092 0.284691
O O12 0.000000 0.586475 0.250000
O O13 0.454681 0.626830 0.366413
O O14 0.209893 0.663965 0.148621
O O15 0.057282 0.259878 0.430664
O O16 0.000000 0.182531 0.250000
#
# Coordination Sequence:
#
# PCOD9266218 Si02
#       7
#     8   8   8   8   8   8   8
#     4  11  25  42  62  86 127 171 211 258 316 376
#     4  10  19  37  61  92 127 166 208 267 317 369
#     4   9  20  33  59  95 129 155 205 263 325 378
#     4  10  23  44  62  85 126 175 216 255 307 383
#     4  10  21  38  64  93 123 162 207 258 318 375
#     4  11  23  40  66  97 128 159 207 268 326 377
#     4  11  21  37  65  94 124 161 208 260 326 382
#
# _framework density 20.31737
#
# number of rings (size 3 to 8) (size 9 to 14) (size 15 to 20)
#    0.000    1.714    1.429    2.571    4.000    5.143 
#    0.000    6.429    0.000    0.000    0.000    0.000 
#    0.000    0.000    0.000    0.000    0.000    0.000 
#
# Total GULP energy -156041.045836 kJ/mol
# GULP energy per Si atom -5572.894494 kJ/mol
# Density = 2.027113 g / cm^3
# Si number density = 20.317370 Si / 1000 Ang^3
#
#
#
# Elastic Constant Matrix: (Units=GPa)
#
#
# Indices 1 2 3 4 5 6 
#
# 1 130.6855 35.6230 45.9292 0.0003 -7.4315 0.0002
# 2 35.6230 44.3481 20.5661 0.0002 -1.9131 0.0002
# 3 45.9292 20.5661 143.5062 0.0005 -1.7639 0.0004
# 4 0.0003 0.0002 0.0005 17.8400 0.0004 -4.9585
# 5 -7.4315 -1.9131 -1.7639 0.0004 29.4928 0.0003
# 6 0.0002 0.0002 0.0004 -4.9585 0.0003 15.2624
#
#
#
# Elastic Compliance Matrix: (Units=1/GPa)
#
#
# Indices 1 2 3 4 5 6 
#
# 1 0.010581 -0.007340 -0.002309 0.000000 0.002052 0.000000
# 2 -0.007340 0.029300 -0.001851 0.000000 -0.000060 0.000000
# 3 -0.002309 -0.001851 0.007970 0.000000 -0.000225 0.000000
# 4 0.000000 0.000000 0.000000 0.061618 -0.000001 0.020018
# 5 0.002052 -0.000060 -0.000225 -0.000001 0.034406 -0.000001
# 6 0.000000 0.000000 0.000000 0.020018 -0.000001 0.072024
#
#
# Mechanical properties :
#
#
# Convention : Reuss Voigt Hill
#
# Bulk Modulus (GPa) = 40.23901 58.08627 49.16264
# Shear Modulus (GPa) = 20.22792 26.94713 23.58752
#
# Velocity S-wave (km/s) = 3.15873 3.64580 3.41097
# Velocity P-wave (km/s) = 5.75775 6.80985 6.30578
#
# Compressibility (1/GPa) = 0.02485151
#
# Stress axis : x y z
#
# Youngs Moduli (GPa) = 94.50918 34.12932 125.47202
#
# Poissons Ratio (x) = 0.25050 0.28976
# Poissons Ratio (y) = 0.69368 0.23221
# Poissons Ratio (z) = 0.21825 0.06316
#
# Static dielectric constant tensor:
#      x y z
#    x 1.779130 0.000000 -0.000530 
#    y 0.000000 1.738500 0.000000 
#    z -0.000530 0.000000 1.784280 
# 
# From -- ./inp_files/156218.got.cif
#   From: 2010.05.17/outbox.cif.g08.bks.cpg/sg15_79_cif.got.tgz:156218.got - 2010.06.03 18:47:42.
