data_PCOD9266139
_publ_section_title
;
Structure prediction by ZEFSAII (Michael W. Deem and Ramdas Pophale) SiO2 
 PCOD9266139
Probable space group: C 2/C
;
_chemical_formula_sum "Si O2"
_cell_formula_units_Z 52
_cell_length_a 17.769427
_cell_length_b 14.559150
_cell_length_c 10.436672
_cell_angle_alpha 90.000000
_cell_angle_beta 117.531114
_cell_angle_gamma 90.000000
_cell_volume 2394.294407
_symmetry_space_group_name_H-M "C 2/C"
_symmetry_group_IT_number 15
_symmetry_cell_setting 'monoclinic'
loop_
_space_group_symop_operation_xyz
x,y,z
-x,y,1/2-z
-x,-y,-z
x,-y,1/2+z
1/2+x,1/2+y,z
1/2-x,1/2+y,1/2-z
1/2-x,1/2-y,-z
1/2+x,1/2-y,1/2+z
loop_
_atom_site_type_symbol
_atom_site_label
_atom_site_fract_x
_atom_site_fract_y
_atom_site_fract_z
Si Si1 0.082921 0.322277 0.236250
Si Si2 0.141035 0.707086 0.517662
Si Si3 0.000000 0.202802 0.750000
Si Si4 0.783410 0.892655 0.970772
Si Si5 0.263702 0.403334 0.422715
Si Si6 0.388458 0.417691 0.302955
Si Si7 0.911811 0.894347 0.747982
O O1 0.095773 0.346710 0.097041
O O2 0.173945 0.352249 0.367660
O O3 0.073462 0.212349 0.215029
O O4 0.000000 0.354949 0.250000
O O5 0.075969 0.734234 0.356178
O O6 0.186064 0.805616 0.589448
O O7 0.211498 0.646083 0.507301
O O8 0.971829 0.143271 0.852050
O O9 0.857139 0.917042 0.130770
O O10 0.749792 0.987717 0.887268
O O11 0.320663 0.373120 0.345375
O O12 0.327385 0.393808 0.592728
O O13 0.400633 0.525158 0.344707
O O14 0.000000 0.925070 0.750000
#
# Coordination Sequence:
#
# PCOD9266139 Si02
#       7
#     8   8   4   8   8   8   8
#     4  11  24  41  60  88 129 169 210 254 302 368
#     4  10  20  42  62  91 123 157 211 260 308 369
#     4  10  22  34  64  96 120 160 202 260 314 364
#     4   9  20  39  64  86 117 162 206 252 309 364
#     4  11  22  39  62  86 126 166 205 254 308 369
#     4  10  19  37  60  91 121 154 201 254 313 369
#     4  10  22  37  58  93 123 158 201 245 319 373
#
# _framework density 21.718298999999998
#
# number of rings (size 3 to 8) (size 9 to 14) (size 15 to 20)
#    0.000    1.846    2.308    1.385    4.308    0.615 
#    1.385    2.308    0.000    0.000    0.000    0.000 
#    0.000    0.000    0.000    0.000    0.000    0.000 
#
# Total GULP energy -144845.946336 kJ/mol
# GULP energy per Si atom -5570.997936 kJ/mol
# Density = 2.166887 g / cm^3
# Si number density = 21.718299 Si / 1000 Ang^3
#
#
#
# Elastic Constant Matrix: (Units=GPa)
#
#
# Indices 1 2 3 4 5 6 
#
# 1 143.9270 16.9686 4.7890 0.0000 -4.2903 0.0000
# 2 16.9686 35.2956 -9.1138 0.0000 7.8093 0.0000
# 3 4.7890 -9.1138 36.2916 0.0000 8.2269 0.0000
# 4 0.0000 0.0000 0.0000 -85.6130 0.0000 -8.5725
# 5 -4.2903 7.8093 8.2269 0.0000 30.0072 0.0000
# 6 0.0000 0.0000 0.0000 -8.5725 0.0000 25.8418
#
#
#
# Elastic Compliance Matrix: (Units=1/GPa)
#
#
# Indices 1 2 3 4 5 6 
#
# 1 0.007773 -0.005278 -0.003107 0.000000 0.003337 0.000000
# 2 -0.005278 0.037434 0.013303 0.000000 -0.014144 0.000000
# 3 -0.003107 0.013303 0.034324 0.000000 -0.013317 0.000000
# 4 0.000000 0.000000 0.000000 -0.011305 0.000000 -0.003750
# 5 0.003337 -0.014144 -0.013317 0.000000 0.041134 0.000000
# 6 0.000000 0.000000 0.000000 -0.003750 0.000000 0.037453
#
#
# Mechanical properties :
#
#
# Convention : Reuss Voigt Hill
#
# Bulk Modulus (GPa) = 11.18974 26.75576 18.97275
# Shear Modulus (GPa) = 29.98210 7.57190 18.77700
#
# Velocity S-wave (km/s) = 3.71954 1.86922 2.94355
# Velocity P-wave (km/s) = 4.85901 4.12369 4.50638
#
# Compressibility (1/GPa) = 0.08936759
#
# Stress axis : x y z
#
# Youngs Moduli (GPa) = 128.64971 26.71381 29.13393
#
# Poissons Ratio (x) = 0.14098 0.09053
# Poissons Ratio (y) = 0.67896 -0.38758
# Poissons Ratio (z) = 0.39978 -0.35538
#
# Static dielectric constant tensor:
#      x y z
#    x 1.864620 0.000000 -0.028720 
#    y 0.000000 1.862340 0.000000 
#    z -0.028720 0.000000 1.811870 
# 
# From -- ./inp_files/97102.got.cif
#   From: 2010.05.17/outbox.cif.g08.bks.cpg/sg15_49_cif.got.tgz:97102.got - 2010.06.03 18:47:42.
