data_PCOD9266482
_publ_section_title
;
Structure prediction by ZEFSAII (Michael W. Deem and Ramdas Pophale) SiO2 
 PCOD9266482
Probable space group: C 2/C
;
_chemical_formula_sum "Si O2"
_cell_formula_units_Z 48
_cell_length_a 22.293218
_cell_length_b 9.558769
_cell_length_c 11.080369
_cell_angle_alpha 90.000000
_cell_angle_beta 98.744144
_cell_angle_gamma 90.000000
_cell_volume 2333.735362
_symmetry_space_group_name_H-M "C 2/C"
_symmetry_group_IT_number 15
_symmetry_cell_setting 'monoclinic'
loop_
_space_group_symop_operation_xyz
x,y,z
-x,y,1/2-z
-x,-y,-z
x,-y,1/2+z
1/2+x,1/2+y,z
1/2-x,1/2+y,1/2-z
1/2-x,1/2-y,-z
1/2+x,1/2-y,1/2+z
loop_
_atom_site_type_symbol
_atom_site_label
_atom_site_fract_x
_atom_site_fract_y
_atom_site_fract_z
Si Si1 0.318333 0.084179 0.534203
Si Si2 0.886316 0.218185 0.893029
Si Si3 0.698537 0.791850 0.860817
Si Si4 0.144756 0.035753 0.938933
Si Si5 0.211367 0.166996 0.314714
Si Si6 0.989498 0.091372 0.615308
O O1 0.374457 0.157545 0.484462
O O2 0.262209 0.111704 0.425475
O O3 0.304147 0.176382 0.648473
O O4 0.324762 0.925155 0.573360
O O5 0.846027 0.251456 0.764273
O O6 0.956587 0.203756 0.878482
O O7 0.861445 0.076214 0.953073
O O8 0.696694 0.653097 0.942122
O O9 0.759778 0.830968 0.807309
O O10 0.081910 0.121122 0.913229
O O11 0.155109 0.934321 0.825935
O O12 0.000000 0.021871 0.750000
O O13 0.000000 0.000000 0.500000
#
# Coordination Sequence:
#
# PCOD9266482 Si02
#       6
#     8   8   8   8   8   8
#     4   9  19  35  55  81 119 162 197 245 318 378
#     4   9  20  38  57  84 124 154 207 264 307 367
#     4  11  19  34  59  85 118 164 198 244 324 375
#     4  10  20  34  60  91 117 159 209 258 307 367
#     4   9  19  35  53  83 121 155 200 254 300 372
#     4  10  19  37  65  92 118 163 215 268 313 360
#
# _framework density 20.567885
#
# number of rings (size 3 to 8) (size 9 to 14) (size 15 to 20)
#    0.000    2.333    1.667    2.000    0.000    0.667 
#    0.000    7.500    0.000    0.000    0.000    0.000 
#    0.000    0.000    0.000    0.000    0.000    0.000 
#
# Total GULP energy -133781.859995 kJ/mol
# GULP energy per Si atom -5574.244166 kJ/mol
# Density = 2.052107 g / cm^3
# Si number density = 20.567885 Si / 1000 Ang^3
#
#
#
# Elastic Constant Matrix: (Units=GPa)
#
#
# Indices 1 2 3 4 5 6 
#
# 1 91.7199 28.1173 27.1466 0.0000 -27.2383 0.0000
# 2 28.1173 133.2701 41.0464 0.0000 -11.8276 0.0000
# 3 27.1466 41.0464 120.9055 0.0000 -14.1930 0.0000
# 4 0.0000 0.0000 0.0000 22.9345 0.0000 -4.5150
# 5 -27.2383 -11.8276 -14.1930 0.0000 25.7802 0.0000
# 6 0.0000 0.0000 0.0000 -4.5150 0.0000 19.2125
#
#
#
# Elastic Compliance Matrix: (Units=1/GPa)
#
#
# Indices 1 2 3 4 5 6 
#
# 1 0.016549 -0.001680 -0.001265 0.000000 0.016018 0.000000
# 2 -0.001680 0.008696 -0.002475 0.000000 0.000852 0.000000
# 3 -0.001265 -0.002475 0.009734 0.000000 0.002887 0.000000
# 4 0.000000 0.000000 0.000000 0.045717 0.000000 0.010744
# 5 0.016018 0.000852 0.002887 0.000000 0.057693 0.000000
# 6 0.000000 0.000000 0.000000 0.010744 0.000000 0.054574
#
#
# Mechanical properties :
#
#
# Convention : Reuss Voigt Hill
#
# Bulk Modulus (GPa) = 41.42738 59.83515 50.63127
# Shear Modulus (GPa) = 23.60148 30.22444 26.91296
#
# Velocity S-wave (km/s) = 3.39114 3.83756 3.62124
# Velocity P-wave (km/s) = 5.95975 6.98502 6.49265
#
# Compressibility (1/GPa) = 0.02413862
#
# Stress axis : x y z
#
# Youngs Moduli (GPa) = 60.42607 114.99634 102.73204
#
# Poissons Ratio (x) = 0.19324 0.12995
# Poissons Ratio (y) = 0.10154 0.25426
# Poissons Ratio (z) = 0.07644 0.28461
#
# Static dielectric constant tensor:
#      x y z
#    x 1.814020 0.000000 0.004650 
#    y 0.000000 1.717550 0.000000 
#    z 0.004650 0.000000 1.764090 
# 
# From -- ./inp_files/116342.got.cif
#   From: 2010.05.17/outbox.cif.g08.bks.cpg/sg15_59_cif.got.tgz:116342.got - 2010.06.03 18:47:42.
