data_PCOD9266395
_publ_section_title
;
Structure prediction by ZEFSAII (Michael W. Deem and Ramdas Pophale) SiO2 
 PCOD9266395
Probable space group: C 2/C
;
_chemical_formula_sum "Si O2"
_cell_formula_units_Z 44
_cell_length_a 11.164273
_cell_length_b 15.752419
_cell_length_c 18.521977
_cell_angle_alpha 90.000000
_cell_angle_beta 144.720714
_cell_angle_gamma 90.000000
_cell_volume 1881.325984
_symmetry_space_group_name_H-M "C 2/C"
_symmetry_group_IT_number 15
_symmetry_cell_setting 'monoclinic'
loop_
_space_group_symop_operation_xyz
x,y,z
-x,y,1/2-z
-x,-y,-z
x,-y,1/2+z
1/2+x,1/2+y,z
1/2-x,1/2+y,1/2-z
1/2-x,1/2-y,-z
1/2+x,1/2-y,1/2+z
loop_
_atom_site_type_symbol
_atom_site_label
_atom_site_fract_x
_atom_site_fract_y
_atom_site_fract_z
Si Si1 0.075632 0.705880 0.613269
Si Si2 0.827306 0.801970 0.368756
Si Si3 0.011449 0.513425 0.921686
Si Si4 0.729564 0.617772 0.036477
Si Si5 0.277050 0.005964 0.674538
Si Si6 0.500000 0.751529 0.750000
O O1 0.158892 0.740535 0.731961
O O2 0.976566 0.614574 0.582296
O O3 0.291284 0.702506 0.672327
O O4 0.914377 0.754080 0.481782
O O5 0.745333 0.894632 0.349722
O O6 0.029454 0.826908 0.419619
O O7 0.805628 0.489987 0.773647
O O8 0.193853 0.453381 0.981180
O O9 0.000000 0.500000 0.000000
O O10 0.652821 0.564675 0.069680
O O11 0.912343 0.682101 0.146749
O O12 0.500000 0.986515 0.750000
#
# Coordination Sequence:
#
# PCOD9266395 Si02
#       6
#     8   8   8   8   8   4
#     4  10  24  37  59  93 129 159 214 260 322 369
#     4  10  22  38  62  94 124 167 209 264 312 385
#     4  10  21  35  57  86 126 160 199 266 317 360
#     4  10  19  37  64  86 120 170 213 249 315 384
#     4   9  18  39  61  88 121 166 215 254 307 389
#     4  10  20  36  64  88 122 170 210 256 314 380
#
# _framework density 23.38776
#
# number of rings (size 3 to 8) (size 9 to 14) (size 15 to 20)
#    0.000    2.182    2.727    0.545    5.091    1.455 
#    0.000    8.182    0.000    4.364    0.000    0.000 
#    0.000    0.000    0.000    0.000    0.000    0.000 
#
# Total GULP energy -122534.409847 kJ/mol
# GULP energy per Si atom -5569.745902 kJ/mol
# Density = 2.333453 g / cm^3
# Si number density = 23.387760 Si / 1000 Ang^3
#
#
#
# Elastic Constant Matrix: (Units=GPa)
#
#
# Indices 1 2 3 4 5 6 
#
# 1 34.7604 27.9234 34.9570 -0.0001 -17.2772 0.0000
# 2 27.9234 99.2498 59.8030 -0.0002 -14.0023 -0.0001
# 3 34.9570 59.8030 154.5488 -0.0010 -51.4971 -0.0005
# 4 -0.0001 -0.0002 -0.0010 43.2969 -0.0004 -7.0346
# 5 -17.2772 -14.0023 -51.4971 -0.0004 41.2669 -0.0002
# 6 0.0000 -0.0001 -0.0005 -7.0346 -0.0002 47.9116
#
#
#
# Elastic Compliance Matrix: (Units=1/GPa)
#
#
# Indices 1 2 3 4 5 6 
#
# 1 0.045038 -0.009520 -0.002219 0.000000 0.012856 0.000000
# 2 -0.009520 0.015408 -0.005811 0.000000 -0.006010 0.000000
# 3 -0.002219 -0.005811 0.014130 0.000000 0.014732 0.000000
# 4 0.000000 0.000000 0.000000 0.023661 0.000001 0.003474
# 5 0.012856 -0.006010 0.014732 0.000001 0.045960 0.000000
# 6 0.000000 0.000000 0.000000 0.003474 0.000000 0.021382
#
#
# Mechanical properties :
#
#
# Convention : Reuss Voigt Hill
#
# Bulk Modulus (GPa) = 25.33305 59.32509 42.32907
# Shear Modulus (GPa) = 23.38230 37.55346 30.46788
#
# Velocity S-wave (km/s) = 3.16534 4.01145 3.61325
# Velocity P-wave (km/s) = 4.92082 6.84665 5.96201
#
# Compressibility (1/GPa) = 0.03947413
#
# Stress axis : x y z
#
# Youngs Moduli (GPa) = 22.20349 64.90261 70.77237
#
# Poissons Ratio (x) = 0.61788 0.15707
# Poissons Ratio (y) = 0.21138 0.41127
# Poissons Ratio (z) = 0.04928 0.37716
#
# Static dielectric constant tensor:
#      x y z
#    x 1.960040 0.000000 0.003930 
#    y 0.000000 1.892200 0.000000 
#    z 0.003930 0.000000 2.221090 
# 
# From -- ./inp_files/199633.got.cif
#   From: 2010.05.17/outbox.cif.g08.bks.cpg/sg15_100_cif.got.tgz:199633.got - 2010.06.03 18:47:42.
