data_PCOD9266667
_publ_section_title
;
Structure prediction by ZEFSAII (Michael W. Deem and Ramdas Pophale) SiO2 
 PCOD9266667
Probable space group: C 2/C
;
_chemical_formula_sum "Si O2"
_cell_formula_units_Z 48
_cell_length_a 8.822482
_cell_length_b 18.505926
_cell_length_c 12.959896
_cell_angle_alpha 90.000000
_cell_angle_beta 102.924444
_cell_angle_gamma 90.000000
_cell_volume 2062.333389
_symmetry_space_group_name_H-M "C 2/C"
_symmetry_group_IT_number 15
_symmetry_cell_setting 'monoclinic'
loop_
_space_group_symop_operation_xyz
x,y,z
-x,y,1/2-z
-x,-y,-z
x,-y,1/2+z
1/2+x,1/2+y,z
1/2-x,1/2+y,1/2-z
1/2-x,1/2-y,-z
1/2+x,1/2-y,1/2+z
loop_
_atom_site_type_symbol
_atom_site_label
_atom_site_fract_x
_atom_site_fract_y
_atom_site_fract_z
Si Si1 0.622375 0.438212 0.493205
Si Si2 0.851433 0.133658 0.296878
Si Si3 0.839708 0.318427 0.912479
Si Si4 0.172098 0.147471 0.583800
Si Si5 0.313540 0.593008 0.706935
Si Si6 0.144422 0.723728 0.577159
O O1 0.500000 0.500000 0.500000
O O2 0.695025 0.416566 0.613518
O O3 0.510793 0.369849 0.448372
O O4 0.716886 0.453741 0.402073
O O5 0.701327 0.146421 0.202539
O O6 0.902266 0.210488 0.355044
O O7 0.000000 0.108120 0.250000
O O8 0.800415 0.232732 0.891868
O O9 0.733865 0.360870 0.978425
O O10 0.003104 0.315504 0.996917
O O11 0.242071 0.094102 0.681648
O O12 0.500000 0.587149 0.750000
O O13 0.244354 0.669188 0.660438
O O14 0.250000 0.750000 0.500000
#
# Coordination Sequence:
#
# PCOD9266667 Si02
#       6
#     8   8   8   8   8   8
#     4  11  23  41  62  92 128 173 227 263 309 392
#     4  12  22  37  63  96 128 165 213 267 332 382
#     4  11  21  35  62  95 134 158 202 278 337 397
#     4  10  19  38  58  90 128 162 212 262 329 385
#     4  10  21  37  58  89 120 167 212 259 326 381
#     4  12  22  35  59  95 136 159 203 270 341 393
#
# _framework density 23.274608000000001
#
# number of rings (size 3 to 8) (size 9 to 14) (size 15 to 20)
#    0.000    1.000    6.667    2.000    0.000    2.000 
#    0.000    0.000    0.000    1.000    8.667    0.000 
#    0.000    0.000    0.000    0.000    0.000    0.000 
#
# Total GULP energy -133643.523862 kJ/mol
# GULP energy per Si atom -5568.480161 kJ/mol
# Density = 2.322163 g / cm^3
# Si number density = 23.274608 Si / 1000 Ang^3
#
#
#
# Elastic Constant Matrix: (Units=GPa)
#
#
# Indices 1 2 3 4 5 6 
#
# 1 32.8289 -5.5121 9.7767 0.0000 -2.1125 0.0000
# 2 -5.5121 53.0908 30.2637 0.0000 -6.9772 0.0000
# 3 9.7767 30.2637 189.9140 0.0000 -9.0542 0.0000
# 4 0.0000 0.0000 0.0000 2.4825 0.0000 -0.3457
# 5 -2.1125 -6.9772 -9.0542 0.0000 21.7863 0.0000
# 6 0.0000 0.0000 0.0000 -0.3457 0.0000 24.9154
#
#
#
# Elastic Compliance Matrix: (Units=1/GPa)
#
#
# Indices 1 2 3 4 5 6 
#
# 1 0.032259 0.005164 -0.002301 0.000000 0.003825 0.000000
# 2 0.005164 0.022179 -0.003507 0.000000 0.006146 0.000000
# 3 -0.002301 -0.003507 0.005998 0.000000 0.001146 0.000000
# 4 0.000000 0.000000 0.000000 0.403593 0.000000 0.005599
# 5 0.003825 0.006146 0.001146 0.000000 0.048716 0.000000
# 6 0.000000 0.000000 0.000000 0.005599 0.000000 0.040214
#
#
# Mechanical properties :
#
#
# Convention : Reuss Voigt Hill
#
# Bulk Modulus (GPa) = 16.90710 38.32113 27.61412
# Shear Modulus (GPa) = 8.71137 25.92387 17.31762
#
# Velocity S-wave (km/s) = 1.93675 3.34102 2.73070
# Velocity P-wave (km/s) = 3.50447 5.60212 4.67253
#
# Compressibility (1/GPa) = 0.05914673
#
# Stress axis : x y z
#
# Youngs Moduli (GPa) = 30.99863 45.08839 166.73542
#
# Poissons Ratio (x) = -0.23283 0.38369
# Poissons Ratio (y) = -0.16007 0.58476
# Poissons Ratio (z) = 0.07133 0.15813
#
# Static dielectric constant tensor:
#      x y z
#    x 2.018610 0.000000 -0.035300 
#    y 0.000000 1.941950 0.000000 
#    z -0.035300 0.000000 1.957560 
# 
# From -- ./inp_files/79381.got.cif
#   From: 2010.05.17/outbox.cif.g08.bks.cpg/sg15_40_cif.got.tgz:79381.got - 2010.06.03 18:47:42.
