data_PCOD9266102
_publ_section_title
;
Structure prediction by ZEFSAII (Michael W. Deem and Ramdas Pophale) SiO2 
 PCOD9266102
Probable space group: C 2/C
;
_chemical_formula_sum "Si O2"
_cell_formula_units_Z 40
_cell_length_a 15.294870
_cell_length_b 12.029790
_cell_length_c 8.659834
_cell_angle_alpha 90.000000
_cell_angle_beta 89.269468
_cell_angle_gamma 90.000000
_cell_volume 1593.228627
_symmetry_space_group_name_H-M "C 2/C"
_symmetry_group_IT_number 15
_symmetry_cell_setting 'monoclinic'
loop_
_space_group_symop_operation_xyz
x,y,z
-x,y,1/2-z
-x,-y,-z
x,-y,1/2+z
1/2+x,1/2+y,z
1/2-x,1/2+y,1/2-z
1/2-x,1/2-y,-z
1/2+x,1/2-y,1/2+z
loop_
_atom_site_type_symbol
_atom_site_label
_atom_site_fract_x
_atom_site_fract_y
_atom_site_fract_z
Si Si1 0.327457 0.561711 0.371179
Si Si2 0.593386 0.113221 0.677035
Si Si3 0.132520 0.627078 0.318680
Si Si4 0.273754 0.691951 0.840168
Si Si5 0.936483 0.042751 0.633390
O O1 0.141066 0.740216 0.223309
O O2 0.307173 0.430870 0.381012
O O3 0.362634 0.602036 0.534301
O O4 0.394295 0.560938 0.227616
O O5 0.500000 0.151903 0.750000
O O6 0.591818 0.126406 0.490968
O O7 0.602485 0.981933 0.724051
O O8 0.682640 0.171145 0.743245
O O9 0.236506 0.615114 0.339424
O O10 0.250000 0.750000 0.000000
O O11 0.000000 0.102479 0.750000
O O12 0.000000 0.000000 0.000000
#
# Coordination Sequence:
#
# PCOD9266102 Si02
#       5
#     8   8   8   8   8
#     4  10  19  37  60  85 119 162 207 254 315 382
#     4  11  24  44  68  98 130 169 219 278 331 382
#     4  11  22  41  68  93 126 170 217 267 326 396
#     4  11  23  41  64  93 126 167 217 263 317 392
#     4   9  18  33  54  81 115 154 195 244 305 370
#
# _framework density 25.106252000000001
#
# number of rings (size 3 to 8) (size 9 to 14) (size 15 to 20)
#    0.000    1.600    0.000    7.200    0.000    0.000 
#    0.000   21.000    0.000    0.000    0.000    0.000 
#    0.000    0.000    0.000    0.000    0.000    0.000 
#
# Total GULP energy -111695.655437 kJ/mol
# GULP energy per Si atom -5584.782772 kJ/mol
# Density = 2.504911 g / cm^3
# Si number density = 25.106252 Si / 1000 Ang^3
#
#
#
# Elastic Constant Matrix: (Units=GPa)
#
#
# Indices 1 2 3 4 5 6 
#
# 1 132.5657 15.9374 38.8712 0.0000 -18.9104 0.0000
# 2 15.9374 92.3697 18.2757 0.0000 -19.2590 0.0000
# 3 38.8712 18.2757 131.1935 0.0000 -30.3248 0.0000
# 4 0.0000 0.0000 0.0000 13.0993 0.0000 -7.9261
# 5 -18.9104 -19.2590 -30.3248 0.0000 59.7390 0.0000
# 6 0.0000 0.0000 0.0000 -7.9261 0.0000 13.0192
#
#
#
# Elastic Compliance Matrix: (Units=1/GPa)
#
#
# Indices 1 2 3 4 5 6 
#
# 1 0.008440 -0.000759 -0.002078 0.000000 0.001372 0.000000
# 2 -0.000759 0.011759 -0.000671 0.000000 0.003210 0.000000
# 3 -0.002078 -0.000671 0.009210 0.000000 0.003801 0.000000
# 4 0.000000 0.000000 0.000000 0.120862 0.000000 0.073581
# 5 0.001372 0.003210 0.003801 0.000000 0.020138 0.000000
# 6 0.000000 0.000000 0.000000 0.073581 0.000000 0.121606
#
#
# Mechanical properties :
#
#
# Convention : Reuss Voigt Hill
#
# Bulk Modulus (GPa) = 44.65677 55.81083 50.23380
# Shear Modulus (GPa) = 16.31349 36.04114 26.17731
#
# Velocity S-wave (km/s) = 2.55184 3.79297 3.23253
# Velocity P-wave (km/s) = 5.14862 6.43896 5.82960
#
# Compressibility (1/GPa) = 0.02239302
#
# Stress axis : x y z
#
# Youngs Moduli (GPa) = 118.48850 85.04055 108.57720
#
# Poissons Ratio (x) = 0.06454 0.22559
# Poissons Ratio (y) = 0.08993 0.07288
# Poissons Ratio (z) = 0.24618 0.05708
#
# Static dielectric constant tensor:
#      x y z
#    x 2.147820 0.000000 -0.172130 
#    y 0.000000 2.007720 0.000000 
#    z -0.172130 0.000000 2.634570 
# 
# From -- ./inp_files/46741.got.cif
#   From: 2010.05.17/outbox.cif.g08.bks.cpg/sg15_24_cif.got.tgz:46741.got - 2010.06.03 18:47:42.
