data_PCOD9266990
_publ_section_title
;
Structure prediction by ZEFSAII (Michael W. Deem and Ramdas Pophale) SiO2 
 PCOD9266990
Probable space group: C 2/C
;
_chemical_formula_sum "Si O2"
_cell_formula_units_Z 60
_cell_length_a 27.067783
_cell_length_b 19.609294
_cell_length_c 16.074242
_cell_angle_alpha 90.000000
_cell_angle_beta 20.177322
_cell_angle_gamma 90.000000
_cell_volume 2942.876071
_symmetry_space_group_name_H-M "C 2/C"
_symmetry_group_IT_number 15
_symmetry_cell_setting 'monoclinic'
loop_
_space_group_symop_operation_xyz
x,y,z
-x,y,1/2-z
-x,-y,-z
x,-y,1/2+z
1/2+x,1/2+y,z
1/2-x,1/2+y,1/2-z
1/2-x,1/2-y,-z
1/2+x,1/2-y,1/2+z
loop_
_atom_site_type_symbol
_atom_site_label
_atom_site_fract_x
_atom_site_fract_y
_atom_site_fract_z
Si Si1 0.351785 0.341867 0.298627
Si Si2 0.000000 0.929887 0.750000
Si Si3 0.041171 0.701398 0.829317
Si Si4 0.607728 0.499638 0.250646
Si Si5 0.186818 0.195200 0.984617
Si Si6 0.237417 0.226561 0.388849
Si Si7 0.168867 0.180479 0.330931
Si Si8 0.360266 0.078251 0.938992
O O1 0.344037 0.421391 0.328656
O O2 0.257750 0.307360 0.374328
O O3 0.303527 0.306250 0.459652
O O4 0.519697 0.324058 0.017405
O O5 0.965259 0.972837 0.720223
O O6 0.131447 0.875523 0.534817
O O7 0.072176 0.771873 0.730474
O O8 0.169419 0.687743 0.690163
O O9 0.063296 0.640597 0.729517
O O10 0.892649 0.701419 0.111779
O O11 0.500000 0.500000 0.500000
O O12 0.748376 0.542651 0.053724
O O13 0.230455 0.256503 0.854741
O O14 0.134646 0.198726 0.479627
O O15 0.257457 0.111870 0.172027
O O16 0.500000 0.036793 0.750000
#
# Coordination Sequence:
#
# PCOD9266990 Si02
#       8
#     8   4   8   8   8   8   8   8
#     4  11  26  44  62  95 132 188 228 272 334 415
#     4  12  26  42  68 104 140 184 236 280 348 424
#     4  10  19  38  63  98 134 162 215 294 347 388
#     4  12  28  46  69  98 146 191 232 281 346 435
#     4  10  21  34  67 104 130 160 223 298 344 391
#     4  11  23  41  67  92 129 173 229 279 336 407
#     4  11  21  37  70  96 131 167 222 288 345 400
#     4  11  22  42  68 103 129 176 224 288 357 402
#
# _framework density 20.388217999999998
#
# number of rings (size 3 to 8) (size 9 to 14) (size 15 to 20)
#    0.000    1.067    5.333    1.200    7.467    0.000 
#    0.000    4.667    0.000    0.000    0.000    0.000 
#    0.000    0.000    0.000    0.000    0.000    0.000 
#
# Total GULP energy -167264.261285 kJ/mol
# GULP energy per Si atom -5575.475376 kJ/mol
# Density = 2.034181 g / cm^3
# Si number density = 20.388218 Si / 1000 Ang^3
#
#
#
# Elastic Constant Matrix: (Units=GPa)
#
#
# Indices 1 2 3 4 5 6 
#
# 1 108.2085 47.1585 22.1003 -0.0007 -15.8540 0.0000
# 2 47.1585 116.9836 16.3838 -0.0029 -6.8700 0.0016
# 3 22.1003 16.3838 86.7108 -0.0028 1.8149 0.0011
# 4 -0.0007 -0.0029 -0.0028 19.7574 -0.0001 2.8691
# 5 -15.8540 -6.8700 1.8149 -0.0001 26.3368 0.0005
# 6 0.0000 0.0016 0.0011 2.8691 0.0005 16.1095
#
#
#
# Elastic Compliance Matrix: (Units=1/GPa)
#
#
# Indices 1 2 3 4 5 6 
#
# 1 0.012626 -0.004345 -0.002536 -0.000001 0.006642 0.000000
# 2 -0.004345 0.010431 -0.000867 0.000001 0.000165 -0.000001
# 3 -0.002536 -0.000867 0.012397 0.000002 -0.002607 -0.000001
# 4 -0.000001 0.000001 0.000002 0.051958 0.000000 -0.009254
# 5 0.006642 0.000165 -0.002607 0.000000 0.042191 -0.000001
# 6 0.000000 -0.000001 -0.000001 -0.009254 -0.000001 0.063723
#
#
# Mechanical properties :
#
#
# Convention : Reuss Voigt Hill
#
# Bulk Modulus (GPa) = 50.10360 53.68755 51.89558
# Shear Modulus (GPa) = 23.20464 27.52476 25.36470
#
# Velocity S-wave (km/s) = 3.37729 3.67827 3.53099
# Velocity P-wave (km/s) = 6.31160 6.66553 6.49098
#
# Compressibility (1/GPa) = 0.01995864
#
# Stress axis : x y z
#
# Youngs Moduli (GPa) = 79.20211 95.87077 80.66223
#
# Poissons Ratio (x) = 0.41651 0.20457
# Poissons Ratio (y) = 0.34410 0.06993
# Poissons Ratio (z) = 0.20087 0.08312
#
# Static dielectric constant tensor:
#      x y z
#    x 1.839680 0.000000 -0.039010 
#    y 0.000000 1.756910 0.000000 
#    z -0.039010 0.000000 1.741200 
# 
# From -- ./inp_files/225770.got.cif
#   From: 2010.05.17/outbox.cif.g08.bks.cpg/sg15_113_cif.got.tgz:225770.got - 2010.06.03 18:47:42.
