data_PCOD9266985
_publ_section_title
;
Structure prediction by ZEFSAII (Michael W. Deem and Ramdas Pophale) SiO2 
 PCOD9266985
Probable space group: C 2/C
;
_chemical_formula_sum "Si O2"
_cell_formula_units_Z 52
_cell_length_a 11.680761
_cell_length_b 8.786519
_cell_length_c 24.483657
_cell_angle_alpha 90.000000
_cell_angle_beta 59.640090
_cell_angle_gamma 90.000000
_cell_volume 2168.245253
_symmetry_space_group_name_H-M "C 2/C"
_symmetry_group_IT_number 15
_symmetry_cell_setting 'monoclinic'
loop_
_space_group_symop_operation_xyz
x,y,z
-x,y,1/2-z
-x,-y,-z
x,-y,1/2+z
1/2+x,1/2+y,z
1/2-x,1/2+y,1/2-z
1/2-x,1/2-y,-z
1/2+x,1/2-y,1/2+z
loop_
_atom_site_type_symbol
_atom_site_label
_atom_site_fract_x
_atom_site_fract_y
_atom_site_fract_z
Si Si1 0.000000 0.677838 0.250000
Si Si2 0.351389 0.430389 0.161262
Si Si3 0.630225 0.018407 0.908475
Si Si4 0.872149 0.800143 0.389069
Si Si5 0.949828 0.753806 0.995038
Si Si6 0.226068 0.388767 0.774006
Si Si7 0.703271 0.469803 0.946282
O O1 0.917619 0.771016 0.315243
O O2 0.895467 0.588124 0.238802
O O3 0.501687 0.378595 0.114859
O O4 0.349765 0.559728 0.208162
O O5 0.277868 0.285527 0.205721
O O6 0.289484 0.482033 0.119319
O O7 0.744224 0.093697 0.918354
O O8 0.588868 0.861529 0.947183
O O9 0.694383 0.985821 0.834808
O O10 0.509339 0.139214 0.935289
O O11 0.828932 0.639208 0.426087
O O12 0.832312 0.875673 0.013071
O O13 0.075581 0.859332 0.980016
#
# Coordination Sequence:
#
# PCOD9266985 Si02
#       7
#     4   8   8   8   8   8   8
#     4  10  20  38  60  96 118 166 204 268 320 406
#     4  11  23  40  65  98 126 174 207 273 333 392
#     4  10  19  38  63  96 127 170 209 275 315 387
#     4  10  21  38  66  90 131 160 217 258 333 391
#     4   9  20  36  65  87 129 170 217 260 321 373
#     4  11  22  38  67  93 131 162 216 264 338 386
#     4  10  19  41  64  91 125 172 213 267 318 393
#
# _framework density 23.982527999999999
#
# number of rings (size 3 to 8) (size 9 to 14) (size 15 to 20)
#    0.000    1.846    3.077    1.846    2.154    0.000 
#    0.000   12.308    0.000    0.000    0.000    0.000 
#    0.000    0.000    0.000    0.000    0.000    0.000 
#
# Total GULP energy -145381.521062 kJ/mol
# GULP energy per Si atom -5591.596964 kJ/mol
# Density = 2.392794 g / cm^3
# Si number density = 23.982528 Si / 1000 Ang^3
#
#
#
# Elastic Constant Matrix: (Units=GPa)
#
#
# Indices 1 2 3 4 5 6 
#
# 1 46.0239 36.2741 8.0977 0.0000 -6.8231 0.0000
# 2 36.2741 126.0725 45.9540 0.0000 -10.3404 0.0000
# 3 8.0977 45.9540 78.0706 0.0000 -7.0441 0.0000
# 4 0.0000 0.0000 0.0000 49.9160 0.0000 -14.2104
# 5 -6.8231 -10.3404 -7.0441 0.0000 27.4063 0.0000
# 6 0.0000 0.0000 0.0000 -14.2104 0.0000 35.9053
#
#
#
# Elastic Compliance Matrix: (Units=1/GPa)
#
#
# Indices 1 2 3 4 5 6 
#
# 1 0.028973 -0.008936 0.002663 0.000000 0.004526 0.000000
# 2 -0.008936 0.013003 -0.006639 0.000000 0.000975 0.000000
# 3 0.002663 -0.006639 0.016661 0.000000 0.002440 0.000000
# 4 0.000000 0.000000 0.000000 0.022577 0.000000 0.008936
# 5 0.004526 0.000975 0.002440 0.000000 0.038610 0.000000
# 6 0.000000 0.000000 0.000000 0.008936 0.000000 0.031388
#
#
# Mechanical properties :
#
#
# Convention : Reuss Voigt Hill
#
# Bulk Modulus (GPa) = 30.47546 47.86873 39.17210
# Shear Modulus (GPa) = 26.59962 33.30160 29.95061
#
# Velocity S-wave (km/s) = 3.33397 3.73040 3.53774
# Velocity P-wave (km/s) = 5.24932 6.20949 5.74948
#
# Compressibility (1/GPa) = 0.03281328
#
# Stress axis : x y z
#
# Youngs Moduli (GPa) = 34.51485 76.90623 60.02142
#
# Poissons Ratio (x) = 0.68721 -0.15983
# Poissons Ratio (y) = 0.30841 0.39848
# Poissons Ratio (z) = -0.09191 0.51058
#
# Static dielectric constant tensor:
#      x y z
#    x 1.911560 0.000000 -0.031470 
#    y 0.000000 1.929650 0.000000 
#    z -0.031470 0.000000 1.956170 
# 
# From -- ./inp_files/291482.got.cif
#   From: 2010.05.17/outbox.cif.g08.bks.cpg/sg15_146_cif.got.tgz:291482.got - 2010.06.03 18:47:42.
