data_PCOD9266818
_publ_section_title
;
Structure prediction by ZEFSAII (Michael W. Deem and Ramdas Pophale) SiO2 
 PCOD9266818
Probable space group: C 2/C
;
_chemical_formula_sum "Si O2"
_cell_formula_units_Z 64
_cell_length_a 9.109145
_cell_length_b 23.290357
_cell_length_c 15.918855
_cell_angle_alpha 90.000000
_cell_angle_beta 90.995896
_cell_angle_gamma 90.000000
_cell_volume 3376.758326
_symmetry_space_group_name_H-M "C 2/C"
_symmetry_group_IT_number 15
_symmetry_cell_setting 'monoclinic'
loop_
_space_group_symop_operation_xyz
x,y,z
-x,y,1/2-z
-x,-y,-z
x,-y,1/2+z
1/2+x,1/2+y,z
1/2-x,1/2+y,1/2-z
1/2-x,1/2-y,-z
1/2+x,1/2-y,1/2+z
loop_
_atom_site_type_symbol
_atom_site_label
_atom_site_fract_x
_atom_site_fract_y
_atom_site_fract_z
Si Si1 0.459205 0.549800 0.932240
Si Si2 0.151310 0.722904 0.571804
Si Si3 0.790463 0.568364 0.696613
Si Si4 0.256309 0.019819 0.870735
Si Si5 0.819673 0.306661 0.246357
Si Si6 0.481605 0.904272 0.447146
Si Si7 0.734929 0.603846 0.437706
Si Si8 0.327978 0.730484 0.086778
O O1 0.333032 0.538569 0.862247
O O2 0.609264 0.557221 0.883310
O O3 0.500000 0.500000 0.000000
O O4 0.385667 0.599151 0.988407
O O5 0.250000 0.750000 0.500000
O O6 0.222494 0.721373 0.665325
O O7 0.103124 0.656394 0.556040
O O8 0.001000 0.758995 0.576369
O O9 0.818407 0.530494 0.778778
O O10 0.749693 0.630899 0.733055
O O11 0.924010 0.584421 0.636320
O O12 0.366932 0.043328 0.943494
O O13 0.219296 0.953204 0.882436
O O14 0.781886 0.269443 0.164757
O O15 0.000000 0.311845 0.250000
O O16 0.602947 0.900517 0.520520
O O17 0.710490 0.664688 0.395410
O O18 0.250000 0.750000 0.000000
#
# Coordination Sequence:
#
# PCOD9266818 Si02
#       8
#     8   8   8   8   8   8   8   8
#     4   9  21  37  53  88 123 155 201 252 308 374
#     4  11  23  39  64  97 123 160 212 272 323 369
#     4  11  18  36  65  88 116 163 209 266 305 375
#     4  11  21  35  60  91 125 155 209 261 310 366
#     4  10  19  38  61  91 118 156 218 261 304 381
#     4  11  20  39  64  89 124 158 218 260 311 382
#     4  10  22  38  60  88 122 168 203 244 321 388
#     4  11  20  39  67  87 124 169 208 252 319 395
#
# _framework density 18.953088000000001
#
# number of rings (size 3 to 8) (size 9 to 14) (size 15 to 20)
#    0.000    1.500    5.000    1.875    1.750    0.000 
#    0.000    8.125    8.250    0.000    0.000    0.000 
#    0.000    0.000    0.000    0.000    0.000    0.000 
#
# Total GULP energy -178382.859941 kJ/mol
# GULP energy per Si atom -5574.464373 kJ/mol
# Density = 1.890995 g / cm^3
# Si number density = 18.953088 Si / 1000 Ang^3
#
#
#
# Elastic Constant Matrix: (Units=GPa)
#
#
# Indices 1 2 3 4 5 6 
#
# 1 55.5627 24.9790 23.9174 0.0000 0.9637 0.0000
# 2 24.9790 112.0344 32.8464 0.0000 5.8533 0.0000
# 3 23.9174 32.8464 101.0604 0.0000 5.0353 0.0000
# 4 0.0000 0.0000 0.0000 31.6102 0.0000 2.1544
# 5 0.9637 5.8533 5.0353 0.0000 31.3424 0.0000
# 6 0.0000 0.0000 0.0000 2.1544 0.0000 26.5685
#
#
#
# Elastic Compliance Matrix: (Units=1/GPa)
#
#
# Indices 1 2 3 4 5 6 
#
# 1 0.021298 -0.003642 -0.003889 0.000000 0.000650 0.000000
# 2 -0.003642 0.010545 -0.002493 0.000000 -0.001457 0.000000
# 3 -0.003889 -0.002493 0.011690 0.000000 -0.001293 0.000000
# 4 0.000000 0.000000 0.000000 0.031811 0.000000 -0.002579
# 5 0.000650 -0.001457 -0.001293 0.000000 0.032365 0.000000
# 6 0.000000 0.000000 0.000000 -0.002579 0.000000 0.037848
#
#
# Mechanical properties :
#
#
# Convention : Reuss Voigt Hill
#
# Bulk Modulus (GPa) = 42.58080 48.01591 45.29835
# Shear Modulus (GPa) = 28.82951 30.36521 29.59736
#
# Velocity S-wave (km/s) = 3.90436 4.00700 3.95601
# Velocity P-wave (km/s) = 6.54527 6.84084 6.69469
#
# Compressibility (1/GPa) = 0.02348476
#
# Stress axis : x y z
#
# Youngs Moduli (GPa) = 46.95295 94.83312 85.54285
#
# Poissons Ratio (x) = 0.34541 0.33268
# Poissons Ratio (y) = 0.17102 0.21323
# Poissons Ratio (z) = 0.18260 0.23639
#
# Static dielectric constant tensor:
#      x y z
#    x 1.694530 0.000000 -0.004830 
#    y 0.000000 1.660190 0.000000 
#    z -0.004830 0.000000 1.689520 
# 
# From -- ./inp_files/137845.got.cif
#   From: 2010.05.17/outbox.cif.g08.bks.cpg/sg15_69_cif.got.tgz:137845.got - 2010.06.03 18:47:42.
