data_PCOD9266353
_publ_section_title
;
Structure prediction by ZEFSAII (Michael W. Deem and Ramdas Pophale) SiO2 
 PCOD9266353
Probable space group: C 2/C
;
_chemical_formula_sum "Si O2"
_cell_formula_units_Z 52
_cell_length_a 16.584560
_cell_length_b 33.973304
_cell_length_c 5.158772
_cell_angle_alpha 90.000000
_cell_angle_beta 113.209347
_cell_angle_gamma 90.000000
_cell_volume 2671.389193
_symmetry_space_group_name_H-M "C 2/C"
_symmetry_group_IT_number 15
_symmetry_cell_setting 'monoclinic'
loop_
_space_group_symop_operation_xyz
x,y,z
-x,y,1/2-z
-x,-y,-z
x,-y,1/2+z
1/2+x,1/2+y,z
1/2-x,1/2+y,1/2-z
1/2-x,1/2-y,-z
1/2+x,1/2-y,1/2+z
loop_
_atom_site_type_symbol
_atom_site_label
_atom_site_fract_x
_atom_site_fract_y
_atom_site_fract_z
Si Si1 0.500000 0.028076 0.250000
Si Si2 0.500000 0.471765 0.250000
Si Si3 0.661958 0.586151 0.858794
Si Si4 0.750159 0.286164 0.803633
Si Si5 0.841289 0.138602 0.153569
Si Si6 0.315198 0.027269 0.919928
Si Si7 0.405143 0.745833 0.753983
Si Si8 0.000000 0.813905 0.750000
O O1 0.592525 0.049002 0.400815
O O2 0.500000 0.000000 0.500000
O O3 0.500000 0.500000 0.500000
O O4 0.418516 0.442616 0.181608
O O5 0.648129 0.617585 0.610391
O O6 0.738685 0.557722 0.862718
O O7 0.682192 0.608324 0.151007
O O8 0.730639 0.326782 0.924091
O O9 0.666221 0.277266 0.512973
O O10 0.844642 0.281677 0.782187
O O11 0.750000 0.250000 0.000000
O O12 0.935968 0.158357 0.333820
O O13 0.310447 0.007334 0.630917
O O14 0.500000 0.757285 0.750000
O O15 0.436095 0.714610 0.009205
#
# Coordination Sequence:
#
# PCOD9266353 Si02
#       8
#     4   4   8   8   8   8   8   4
#     4   8  16  30  58  90 107 135 196 263 294 341
#     4  12  24  43  66  94 136 177 222 267 314 406
#     4  12  25  40  60  95 131 177 208 260 335 400
#     4  11  23  39  64  93 124 168 224 278 340 398
#     4  12  25  40  63  92 136 165 220 274 333 393
#     4  10  19  37  63  90 120 159 212 259 307 376
#     4  11  21  38  65  93 121 158 223 283 334 391
#     4  12  22  39  62  94 117 172 214 292 322 381
#
# _framework density 19.465527999999999
#
# number of rings (size 3 to 8) (size 9 to 14) (size 15 to 20)
#    0.000    0.923    3.077    4.615    2.154    0.000 
#    0.000    0.000    1.692    0.000    0.000    0.000 
#    0.000    0.000    0.000    0.000    0.000    0.000 
#
# Total GULP energy -145079.699731 kJ/mol
# GULP energy per Si atom -5579.988451 kJ/mol
# Density = 1.942122 g / cm^3
# Si number density = 19.465528 Si / 1000 Ang^3
#
#
#
# Elastic Constant Matrix: (Units=GPa)
#
#
# Indices 1 2 3 4 5 6 
#
# 1 135.0776 30.0666 3.4416 0.0000 16.7715 0.0000
# 2 30.0666 69.4666 4.8749 0.0000 3.8461 0.0000
# 3 3.4416 4.8749 76.8815 0.0000 -2.2119 0.0000
# 4 0.0000 0.0000 0.0000 30.0445 0.0000 -29.9303
# 5 16.7715 3.8461 -2.2119 0.0000 41.9191 0.0000
# 6 0.0000 0.0000 0.0000 -29.9303 0.0000 144.9765
#
#
#
# Elastic Compliance Matrix: (Units=1/GPa)
#
#
# Indices 1 2 3 4 5 6 
#
# 1 0.008582 -0.003524 -0.000251 0.000000 -0.003123 0.000000
# 2 -0.003524 0.015987 -0.000859 0.000000 -0.000102 0.000000
# 3 -0.000251 -0.000859 0.013098 0.000000 0.000870 0.000000
# 4 0.000000 0.000000 0.000000 0.041902 0.000000 0.008651
# 5 -0.003123 -0.000102 0.000870 0.000000 0.025160 0.000000
# 6 0.000000 0.000000 0.000000 0.008651 0.000000 0.008684
#
#
# Mechanical properties :
#
#
# Convention : Reuss Voigt Hill
#
# Bulk Modulus (GPa) = 35.21198 39.79909 37.50554
# Shear Modulus (GPa) = 37.83732 59.59087 48.71409
#
# Velocity S-wave (km/s) = 4.41365 5.53895 5.00801
# Velocity P-wave (km/s) = 6.64097 7.83562 7.26290
#
# Compressibility (1/GPa) = 0.02839942
#
# Stress axis : x y z
#
# Youngs Moduli (GPa) = 116.52700 62.55272 76.34909
#
# Poissons Ratio (x) = 0.22042 0.01913
# Poissons Ratio (y) = 0.41062 0.06557
# Poissons Ratio (z) = 0.02920 0.05372
#
# Static dielectric constant tensor:
#      x y z
#    x 1.762580 0.000000 -0.022420 
#    y 0.000000 1.659690 0.000000 
#    z -0.022420 0.000000 1.702690 
# 
# From -- ./inp_files/12088.got.cif
#   From: 2010.05.17/outbox.cif.g08.bks.cpg/sg15_7_cif.got.tgz:12088.got - 2010.06.03 18:47:42.
