data_PCOD9266258
_publ_section_title
;
Structure prediction by ZEFSAII (Michael W. Deem and Ramdas Pophale) SiO2 
 PCOD9266258
Probable space group: C 2/C
;
_chemical_formula_sum "Si O2"
_cell_formula_units_Z 40
_cell_length_a 8.988378
_cell_length_b 25.415176
_cell_length_c 8.045549
_cell_angle_alpha 90.000000
_cell_angle_beta 92.968394
_cell_angle_gamma 90.000000
_cell_volume 1835.468895
_symmetry_space_group_name_H-M "C 2/C"
_symmetry_group_IT_number 15
_symmetry_cell_setting 'monoclinic'
loop_
_space_group_symop_operation_xyz
x,y,z
-x,y,1/2-z
-x,-y,-z
x,-y,1/2+z
1/2+x,1/2+y,z
1/2-x,1/2+y,1/2-z
1/2-x,1/2-y,-z
1/2+x,1/2-y,1/2+z
loop_
_atom_site_type_symbol
_atom_site_label
_atom_site_fract_x
_atom_site_fract_y
_atom_site_fract_z
Si Si1 0.819044 0.988119 0.753259
Si Si2 0.164714 0.695122 0.459966
Si Si3 0.701795 0.415804 0.432055
Si Si4 0.321018 0.803256 0.938940
Si Si5 0.901093 0.893930 0.572603
O O1 0.801563 0.944826 0.606930
O O2 0.000000 0.993926 0.750000
O O3 0.756364 0.045862 0.716555
O O4 0.767775 0.955207 0.909665
O O5 0.250000 0.750000 0.500000
O O6 0.228963 0.641734 0.544455
O O7 0.175405 0.690341 0.260805
O O8 0.992454 0.696881 0.502997
O O9 0.525594 0.405797 0.444401
O O10 0.208690 0.848533 0.988763
O O11 0.250000 0.750000 0.000000
O O12 0.000000 0.881286 0.750000
#
# Coordination Sequence:
#
# PCOD9266258 Si02
#       5
#     8   8   8   8   8
#     4   9  17  33  60  89 120 161 201 247 298 354
#     4  11  24  43  62  94 123 162 207 257 316 367
#     4  10  19  37  62  86 129 156 207 254 294 368
#     4  11  23  40  68  86 123 166 205 254 317 371
#     4   9  16  34  60  84 120 158 195 249 300 349
#
# _framework density 21.792795999999999
#
# number of rings (size 3 to 8) (size 9 to 14) (size 15 to 20)
#    0.000    2.400    4.000    3.600    0.000    0.000 
#   10.800    1.000    0.000    0.000    0.000    0.000 
#    0.000    0.000    0.000    0.000    0.000    0.000 
#
# Total GULP energy -111496.684041 kJ/mol
# GULP energy per Si atom -5574.834202 kJ/mol
# Density = 2.174319 g / cm^3
# Si number density = 21.792796 Si / 1000 Ang^3
#
#
#
# Elastic Constant Matrix: (Units=GPa)
#
#
# Indices 1 2 3 4 5 6 
#
# 1 73.1887 73.1684 18.1188 0.0000 0.3222 0.0000
# 2 73.1684 238.5345 34.3109 0.0000 16.4989 0.0000
# 3 18.1188 34.3109 50.5420 0.0000 1.8789 0.0000
# 4 0.0000 0.0000 0.0000 35.1351 0.0000 10.2899
# 5 0.3222 16.4989 1.8789 0.0000 15.1497 0.0000
# 6 0.0000 0.0000 0.0000 10.2899 0.0000 31.9368
#
#
#
# Elastic Compliance Matrix: (Units=1/GPa)
#
#
# Indices 1 2 3 4 5 6 
#
# 1 0.020863 -0.006390 -0.003399 0.000000 0.006937 0.000000
# 2 -0.006390 0.006961 -0.002168 0.000000 -0.007176 0.000000
# 3 -0.003399 -0.002168 0.022489 0.000000 -0.000356 0.000000
# 4 0.000000 0.000000 0.000000 0.031427 0.000000 -0.010126
# 5 0.006937 -0.007176 -0.000356 0.000000 0.073719 0.000000
# 6 0.000000 0.000000 0.000000 -0.010126 0.000000 0.034574
#
#
# Mechanical properties :
#
#
# Convention : Reuss Voigt Hill
#
# Bulk Modulus (GPa) = 37.88099 68.16236 53.02167
# Shear Modulus (GPa) = 22.44710 32.22214 27.33462
#
# Velocity S-wave (km/s) = 3.21288 3.84939 3.54545
# Velocity P-wave (km/s) = 5.58422 7.14860 6.41428
#
# Compressibility (1/GPa) = 0.02639847
#
# Stress axis : x y z
#
# Youngs Moduli (GPa) = 47.93202 143.66571 44.46675
#
# Poissons Ratio (x) = 0.91809 0.15113
# Poissons Ratio (y) = 0.30631 0.09639
# Poissons Ratio (z) = 0.16291 0.31141
#
# Static dielectric constant tensor:
#      x y z
#    x 1.793350 0.000000 0.051530 
#    y 0.000000 1.812370 0.000000 
#    z 0.051530 0.000000 1.929130 
# 
# From -- ./inp_files/23643.got.cif
#   From: 2010.05.17/outbox.cif.g08.bks.cpg/sg15_12_cif.got.tgz:23643.got - 2010.06.03 18:47:42.
