data_PCOD9266018
_publ_section_title
;
Structure prediction by ZEFSAII (Michael W. Deem and Ramdas Pophale) SiO2 
 PCOD9266018
Probable space group: C 2/C
;
_chemical_formula_sum "Si O2"
_cell_formula_units_Z 64
_cell_length_a 28.256898
_cell_length_b 10.156310
_cell_length_c 16.651925
_cell_angle_alpha 90.000000
_cell_angle_beta 143.811048
_cell_angle_gamma 90.000000
_cell_volume 2821.681859
_symmetry_space_group_name_H-M "C 2/C"
_symmetry_group_IT_number 15
_symmetry_cell_setting 'monoclinic'
loop_
_space_group_symop_operation_xyz
x,y,z
-x,y,1/2-z
-x,-y,-z
x,-y,1/2+z
1/2+x,1/2+y,z
1/2-x,1/2+y,1/2-z
1/2-x,1/2-y,-z
1/2+x,1/2-y,1/2+z
loop_
_atom_site_type_symbol
_atom_site_label
_atom_site_fract_x
_atom_site_fract_y
_atom_site_fract_z
Si Si1 0.527322 0.820954 0.880428
Si Si2 0.196413 0.637122 0.272320
Si Si3 0.604463 0.389222 0.713325
Si Si4 0.048611 0.171227 0.584388
Si Si5 0.093609 0.234870 0.353298
Si Si6 0.105107 0.501290 0.765638
Si Si7 0.264551 0.141279 0.357023
Si Si8 0.686899 0.855747 0.018816
O O1 0.500000 0.807209 0.750000
O O2 0.497700 0.703890 0.896142
O O3 0.486339 0.949741 0.864824
O O4 0.621632 0.835601 0.999728
O O5 0.115674 0.723011 0.157649
O O6 0.163471 0.505820 0.269689
O O7 0.232298 0.622618 0.233601
O O8 0.258057 0.727785 0.406742
O O9 0.591463 0.531830 0.655707
O O10 0.518671 0.324618 0.576032
O O11 0.615705 0.386211 0.824791
O O12 0.678427 0.315886 0.772701
O O13 0.103153 0.362856 0.309301
O O14 0.160805 0.266386 0.512739
O O15 0.000000 0.226007 0.250000
O O16 0.142854 0.387310 0.874919
O O17 0.272552 0.995330 0.406397
#
# Coordination Sequence:
#
# PCOD9266018 Si02
#       8
#     8   8   8   8   8   8   8   8
#     4   9  18  35  59  87 113 150 197 252 309 368
#     4  11  21  37  61  91 122 162 211 260 322 379
#     4  11  23  42  61  84 127 169 201 258 317 377
#     4  10  22  39  60  86 123 161 208 256 310 376
#     4  11  23  43  65  91 126 168 216 264 319 384
#     4   9  20  36  61  89 119 158 206 261 318 372
#     4  11  23  39  63  93 128 168 211 267 321 381
#     4  10  19  37  59  86 127 160 202 267 318 373
#
# _framework density 22.681508000000001
#
# number of rings (size 3 to 8) (size 9 to 14) (size 15 to 20)
#    0.000    1.750    1.250    4.125    0.000    2.500 
#    0.000    3.125    2.750    0.000    0.000    0.000 
#    0.000    0.000    0.000    0.000    0.000    0.000 
#
# Total GULP energy -178600.335356 kJ/mol
# GULP energy per Si atom -5581.260480 kJ/mol
# Density = 2.262988 g / cm^3
# Si number density = 22.681508 Si / 1000 Ang^3
#
#
#
# Elastic Constant Matrix: (Units=GPa)
#
#
# Indices 1 2 3 4 5 6 
#
# 1 112.5656 2.9019 18.0025 0.0000 4.9757 0.0000
# 2 2.9019 22.4400 3.3937 0.0000 4.3354 0.0000
# 3 18.0025 3.3937 43.7390 0.0000 10.4314 0.0000
# 4 0.0000 0.0000 0.0000 1.2097 0.0000 -1.6271
# 5 4.9757 4.3354 10.4314 0.0000 39.1467 0.0000
# 6 0.0000 0.0000 0.0000 -1.6271 0.0000 12.6956
#
#
#
# Elastic Compliance Matrix: (Units=1/GPa)
#
#
# Indices 1 2 3 4 5 6 
#
# 1 0.009519 -0.000627 -0.003842 0.000000 -0.000117 0.000000
# 2 -0.000627 0.045834 -0.002249 0.000000 -0.004397 0.000000
# 3 -0.003842 -0.002249 0.026101 0.000000 -0.006218 0.000000
# 4 0.000000 0.000000 0.000000 0.998814 0.000000 0.128007
# 5 -0.000117 -0.004397 -0.006218 0.000000 0.027704 0.000000
# 6 0.000000 0.000000 0.000000 0.128007 0.000000 0.095173
#
#
# Mechanical properties :
#
#
# Convention : Reuss Voigt Hill
#
# Bulk Modulus (GPa) = 14.70197 25.26008 19.98102
# Shear Modulus (GPa) = 4.03468 20.90684 12.47076
#
# Velocity S-wave (km/s) = 1.33518 3.03934 2.34737
# Velocity P-wave (km/s) = 2.97875 4.84539 4.02186
#
# Compressibility (1/GPa) = 0.06801811
#
# Stress axis : x y z
#
# Youngs Moduli (GPa) = 105.04838 21.81785 38.31200
#
# Poissons Ratio (x) = 0.01369 0.14718
# Poissons Ratio (y) = 0.06591 0.08618
# Poissons Ratio (z) = 0.40355 0.04908
#
# Static dielectric constant tensor:
#      x y z
#    x 1.862530 0.000000 -0.003790 
#    y 0.000000 1.895820 0.000000 
#    z -0.003790 0.000000 1.902350 
# 
# From -- ./inp_files/177847.got.cif
#   From: 2010.05.17/outbox.cif.g08.bks.cpg/sg15_89_cif.got.tgz:177847.got - 2010.06.03 18:47:42.
