data_PCOD9266159
_publ_section_title
;
Structure prediction by ZEFSAII (Michael W. Deem and Ramdas Pophale) SiO2 
 PCOD9266159
Probable space group: C 2/C
;
_chemical_formula_sum "Si O2"
_cell_formula_units_Z 52
_cell_length_a 29.922166
_cell_length_b 8.584160
_cell_length_c 15.744041
_cell_angle_alpha 90.000000
_cell_angle_beta 137.506374
_cell_angle_gamma 90.000000
_cell_volume 2731.729285
_symmetry_space_group_name_H-M "C 2/C"
_symmetry_group_IT_number 15
_symmetry_cell_setting 'monoclinic'
loop_
_space_group_symop_operation_xyz
x,y,z
-x,y,1/2-z
-x,-y,-z
x,-y,1/2+z
1/2+x,1/2+y,z
1/2-x,1/2+y,1/2-z
1/2-x,1/2-y,-z
1/2+x,1/2-y,1/2+z
loop_
_atom_site_type_symbol
_atom_site_label
_atom_site_fract_x
_atom_site_fract_y
_atom_site_fract_z
Si Si1 0.632513 0.384555 0.980695
Si Si2 0.561223 0.695966 0.890222
Si Si3 0.029495 0.521721 0.449313
Si Si4 0.749018 0.942628 0.909465
Si Si5 0.000000 0.308349 0.250000
Si Si6 0.677431 0.907515 0.634660
Si Si7 0.822436 0.615079 0.026661
O O1 0.605360 0.549069 0.978131
O O2 0.568177 0.291264 0.854945
O O3 0.689700 0.437504 0.994768
O O4 0.667661 0.273793 0.098647
O O5 0.500000 0.635688 0.750000
O O6 0.531899 0.798674 0.924562
O O7 0.605035 0.816141 0.894501
O O8 0.105088 0.467544 0.557667
O O9 0.000000 0.500000 0.500000
O O10 0.996358 0.417791 0.328460
O O11 0.723234 0.950866 0.777271
O O12 0.777429 0.768191 0.956694
O O13 0.692434 0.957494 0.901917
O O14 0.695559 0.993738 0.572387
#
# Coordination Sequence:
#
# PCOD9266159 Si02
#       7
#     8   8   8   8   4   8   8
#     4  10  21  37  60  89 117 161 194 247 306 346
#     4  10  19  37  61  81 117 158 189 242 299 352
#     4  10  22  37  60  89 114 160 203 244 300 357
#     4  10  20  38  60  83 119 156 200 238 294 366
#     4  10  20  40  58  88 126 148 204 254 292 360
#     4  10  21  36  58  86 121 150 197 254 291 351
#     4   9  21  37  56  87 109 157 201 230 298 353
#
# _framework density 19.03556
#
# number of rings (size 3 to 8) (size 9 to 14) (size 15 to 20)
#    0.000    2.154    1.538    0.923    2.154    0.615 
#    0.000   12.308    0.000    0.000    0.000    0.000 
#    0.000    0.000    0.000    0.000    0.000    0.000 
#
# Total GULP energy -144888.868637 kJ/mol
# GULP energy per Si atom -5572.648794 kJ/mol
# Density = 1.899223 g / cm^3
# Si number density = 19.035560 Si / 1000 Ang^3
#
#
#
# Elastic Constant Matrix: (Units=GPa)
#
#
# Indices 1 2 3 4 5 6 
#
# 1 98.3652 28.4406 41.3339 0.0000 -23.7282 0.0000
# 2 28.4406 59.8341 30.2165 0.0000 -11.2503 0.0000
# 3 41.3339 30.2165 80.1957 0.0000 -7.8453 0.0000
# 4 0.0000 0.0000 0.0000 21.7486 0.0000 1.3418
# 5 -23.7282 -11.2503 -7.8453 0.0000 21.8348 0.0000
# 6 0.0000 0.0000 0.0000 1.3418 0.0000 14.9961
#
#
#
# Elastic Compliance Matrix: (Units=1/GPa)
#
#
# Indices 1 2 3 4 5 6 
#
# 1 0.017215 -0.001949 -0.006640 0.000000 0.015317 0.000000
# 2 -0.001949 0.022353 -0.006735 0.000000 0.006979 0.000000
# 3 -0.006640 -0.006735 0.018017 0.000000 -0.004212 0.000000
# 4 0.000000 0.000000 0.000000 0.046235 0.000000 -0.004137
# 5 0.015317 0.006979 -0.004212 0.000000 0.064527 0.000000
# 6 0.000000 0.000000 0.000000 -0.004137 0.000000 0.067054
#
#
# Mechanical properties :
#
#
# Convention : Reuss Voigt Hill
#
# Bulk Modulus (GPa) = 37.12362 48.70857 42.91610
# Shear Modulus (GPa) = 18.17998 20.94284 19.56141
#
# Velocity S-wave (km/s) = 3.09375 3.32052 3.20914
# Velocity P-wave (km/s) = 5.68386 6.35176 6.02707
#
# Compressibility (1/GPa) = 0.02693703
#
# Stress axis : x y z
#
# Youngs Moduli (GPa) = 58.08919 44.73722 55.50249
#
# Poissons Ratio (x) = 0.08721 0.36852
# Poissons Ratio (y) = 0.11324 0.37379
# Poissons Ratio (z) = 0.38570 0.30129
#
# Static dielectric constant tensor:
#      x y z
#    x 1.689690 0.000000 0.025220 
#    y 0.000000 1.690060 0.000000 
#    z 0.025220 0.000000 1.673190 
# 
# From -- ./inp_files/176465.got.cif
#   From: 2010.05.17/outbox.cif.g08.bks.cpg/sg15_89_cif.got.tgz:176465.got - 2010.06.03 18:47:42.
