data_PCOD9266473
_publ_section_title
;
Structure prediction by ZEFSAII (Michael W. Deem and Ramdas Pophale) SiO2 
 PCOD9266473
Probable space group: C 2/C
;
_chemical_formula_sum "Si O2"
_cell_formula_units_Z 44
_cell_length_a 27.995728
_cell_length_b 15.239012
_cell_length_c 15.032024
_cell_angle_alpha 90.000000
_cell_angle_beta 21.085038
_cell_angle_gamma 90.000000
_cell_volume 2307.122549
_symmetry_space_group_name_H-M "C 2/C"
_symmetry_group_IT_number 15
_symmetry_cell_setting 'monoclinic'
loop_
_space_group_symop_operation_xyz
x,y,z
-x,y,1/2-z
-x,-y,-z
x,-y,1/2+z
1/2+x,1/2+y,z
1/2-x,1/2+y,1/2-z
1/2-x,1/2-y,-z
1/2+x,1/2-y,1/2+z
loop_
_atom_site_type_symbol
_atom_site_label
_atom_site_fract_x
_atom_site_fract_y
_atom_site_fract_z
Si Si1 0.138514 0.552042 0.750390
Si Si2 0.581617 0.184979 0.688442
Si Si3 0.342190 0.785158 0.170928
Si Si4 0.584078 0.737509 0.880125
Si Si5 0.804373 0.117677 0.948707
Si Si6 0.000000 0.803843 0.250000
O O1 0.125535 0.616319 0.687837
O O2 0.165292 0.612704 0.790065
O O3 0.252856 0.480637 0.539572
O O4 0.000000 0.500000 0.000000
O O5 0.500000 0.141553 0.750000
O O6 0.708763 0.235713 0.430514
O O7 0.479455 0.253302 0.912772
O O8 0.459902 0.751046 0.030275
O O9 0.391968 0.757853 0.986974
O O10 0.684907 0.817892 0.687640
O O11 0.655099 0.650694 0.720299
O O12 0.923044 0.137378 0.811453
#
# Coordination Sequence:
#
# PCOD9266473 Si02
#       6
#     8   8   8   8   8   4
#     4  11  21  40  63  92 122 155 205 257 307 350
#     4  11  22  40  60  89 124 165 207 253 302 368
#     4  10  21  39  62  84 121 165 202 247 305 373
#     4   9  18  36  62  83 115 165 196 235 316 363
#     4  10  19  37  65  89 124 157 203 254 295 370
#     4  10  22  40  62  90 120 170 208 242 310 368
#
# _framework density 19.071376000000001
#
# number of rings (size 3 to 8) (size 9 to 14) (size 15 to 20)
#    0.000    1.818    3.636    3.273    0.000    0.000 
#    3.273    8.182    0.000    0.000    0.000    0.000 
#    0.000    0.000    0.000    0.000    0.000    0.000 
#
# Total GULP energy -122686.115623 kJ/mol
# GULP energy per Si atom -5576.641619 kJ/mol
# Density = 1.902797 g / cm^3
# Si number density = 19.071376 Si / 1000 Ang^3
#
#
#
# Elastic Constant Matrix: (Units=GPa)
#
#
# Indices 1 2 3 4 5 6 
#
# 1 73.1146 32.2163 22.5664 0.0000 1.0880 0.0000
# 2 32.2163 123.3476 56.4967 0.0000 7.9174 0.0000
# 3 22.5664 56.4967 127.7768 0.0000 12.6243 0.0000
# 4 0.0000 0.0000 0.0000 37.4337 0.0000 -3.2164
# 5 1.0880 7.9174 12.6243 0.0000 33.6765 0.0000
# 6 0.0000 0.0000 0.0000 -3.2164 0.0000 21.8251
#
#
#
# Elastic Compliance Matrix: (Units=1/GPa)
#
#
# Indices 1 2 3 4 5 6 
#
# 1 0.015621 -0.003551 -0.001268 0.000000 0.000806 0.000000
# 2 -0.003551 0.010990 -0.004142 0.000000 -0.000917 0.000000
# 3 -0.001268 -0.004142 0.010157 0.000000 -0.002793 0.000000
# 4 0.000000 0.000000 0.000000 0.027057 0.000000 0.003987
# 5 0.000806 -0.000917 -0.002793 0.000000 0.030931 0.000000
# 6 0.000000 0.000000 0.000000 0.003987 0.000000 0.046406
#
#
# Mechanical properties :
#
#
# Convention : Reuss Voigt Hill
#
# Bulk Modulus (GPa) = 53.05854 60.75530 56.90692
# Shear Modulus (GPa) = 30.23577 32.78437 31.51007
#
# Velocity S-wave (km/s) = 3.98603 4.15062 4.06916
# Velocity P-wave (km/s) = 7.00471 7.40920 7.20979
#
# Compressibility (1/GPa) = 0.01884711
#
# Stress axis : x y z
#
# Youngs Moduli (GPa) = 64.01550 90.98805 98.45013
#
# Poissons Ratio (x) = 0.32307 0.12488
# Poissons Ratio (y) = 0.22730 0.40776
# Poissons Ratio (z) = 0.08120 0.37686
#
# Static dielectric constant tensor:
#      x y z
#    x 1.705260 0.000000 0.022050 
#    y 0.000000 1.646780 0.000000 
#    z 0.022050 0.000000 1.692340 
# 
# From -- ./inp_files/182247.got.cif
#   From: 2010.05.17/outbox.cif.g08.bks.cpg/sg15_92_cif.got.tgz:182247.got - 2010.06.03 18:47:42.
