data_PCOD9266275
_publ_section_title
;
Structure prediction by ZEFSAII (Michael W. Deem and Ramdas Pophale) SiO2 
 PCOD9266275
Probable space group: C 2/C
;
_chemical_formula_sum "Si O2"
_cell_formula_units_Z 36
_cell_length_a 7.394863
_cell_length_b 13.790320
_cell_length_c 15.652529
_cell_angle_alpha 90.000000
_cell_angle_beta 94.164482
_cell_angle_gamma 90.000000
_cell_volume 1591.991716
_symmetry_space_group_name_H-M "C 2/C"
_symmetry_group_IT_number 15
_symmetry_cell_setting 'monoclinic'
loop_
_space_group_symop_operation_xyz
x,y,z
-x,y,1/2-z
-x,-y,-z
x,-y,1/2+z
1/2+x,1/2+y,z
1/2-x,1/2+y,1/2-z
1/2-x,1/2-y,-z
1/2+x,1/2-y,1/2+z
loop_
_atom_site_type_symbol
_atom_site_label
_atom_site_fract_x
_atom_site_fract_y
_atom_site_fract_z
Si Si1 0.193834 0.043415 0.981454
Si Si2 0.000000 0.827791 0.250000
Si Si3 0.503938 0.266033 0.433853
Si Si4 0.379522 0.874484 0.065768
Si Si5 0.151390 0.442987 0.196745
O O1 0.255848 0.014560 0.886676
O O2 0.146355 0.157499 0.978723
O O3 0.328542 0.986736 0.049136
O O4 0.000000 0.000000 0.000000
O O5 0.960173 0.763416 0.165631
O O6 0.177692 0.897312 0.247293
O O7 0.478281 0.169223 0.486316
O O8 0.306095 0.316961 0.431211
O O9 0.517317 0.863411 0.148766
O O10 0.000000 0.497499 0.250000
#
# Coordination Sequence:
#
# PCOD9266275 Si02
#       5
#     8   4   8   8   8
#     4   9  20  37  59  89 121 161 217 261 318 391
#     4  10  20  36  56  90 122 158 214 264 332 390
#     4   9  19  36  63  87 125 164 209 271 318 387
#     4  10  19  37  62  89 119 168 218 256 323 400
#     4  11  21  37  63  87 123 166 208 263 333 389
#
# _framework density 22.613184
#
# number of rings (size 3 to 8) (size 9 to 14) (size 15 to 20)
#    0.000    2.222    2.222    0.667    0.000    3.556 
#    2.000    0.000    0.000    5.333    0.000    0.000 
#    0.000    0.000    0.000    0.000    0.000    0.000 
#
# Total GULP energy -100203.780469 kJ/mol
# GULP energy per Si atom -5566.876693 kJ/mol
# Density = 2.256172 g / cm^3
# Si number density = 22.613184 Si / 1000 Ang^3
#
#
#
# Elastic Constant Matrix: (Units=GPa)
#
#
# Indices 1 2 3 4 5 6 
#
# 1 175.8376 14.6610 15.3915 0.0000 -4.5071 0.0000
# 2 14.6610 74.1432 17.2303 0.0000 11.0977 0.0000
# 3 15.3915 17.2303 56.5491 0.0000 -5.6447 0.0000
# 4 0.0000 0.0000 0.0000 28.9088 0.0000 -9.2097
# 5 -4.5071 11.0977 -5.6447 0.0000 57.5417 0.0000
# 6 0.0000 0.0000 0.0000 -9.2097 0.0000 18.8808
#
#
#
# Elastic Compliance Matrix: (Units=1/GPa)
#
#
# Indices 1 2 3 4 5 6 
#
# 1 0.005890 -0.000949 -0.001262 0.000000 0.000521 0.000000
# 2 -0.000949 0.015302 -0.004753 0.000000 -0.003492 0.000000
# 3 -0.001262 -0.004753 0.019750 0.000000 0.002755 0.000000
# 4 0.000000 0.000000 0.000000 0.040956 0.000000 0.019978
# 5 0.000521 -0.003492 0.002755 0.000000 0.018363 0.000000
# 6 0.000000 0.000000 0.000000 0.019978 0.000000 0.062709
#
#
# Mechanical properties :
#
#
# Convention : Reuss Voigt Hill
#
# Bulk Modulus (GPa) = 37.01684 44.56617 40.79150
# Shear Modulus (GPa) = 26.89574 38.34943 32.62258
#
# Velocity S-wave (km/s) = 3.45248 4.12258 3.80232
# Velocity P-wave (km/s) = 5.68313 6.51243 6.11186
#
# Compressibility (1/GPa) = 0.02701473
#
# Stress axis : x y z
#
# Youngs Moduli (GPa) = 169.77861 65.34976 50.63203
#
# Poissons Ratio (x) = 0.06204 0.06389
# Poissons Ratio (y) = 0.16118 0.24064
# Poissons Ratio (z) = 0.21424 0.31059
#
# Static dielectric constant tensor:
#      x y z
#    x 1.911970 0.000000 -0.050290 
#    y 0.000000 1.826630 0.000000 
#    z -0.050290 0.000000 1.920810 
# 
# From -- ./inp_files/133581.got.cif
#   From: 2010.05.17/outbox.cif.g08.bks.cpg/sg15_67_cif.got.tgz:133581.got - 2010.06.03 18:47:42.
