data_PCOD9266174
_publ_section_title
;
Structure prediction by ZEFSAII (Michael W. Deem and Ramdas Pophale) SiO2 
 PCOD9266174
Probable space group: C 2/C
;
_chemical_formula_sum "Si O2"
_cell_formula_units_Z 56
_cell_length_a 14.376799
_cell_length_b 23.559630
_cell_length_c 8.699492
_cell_angle_alpha 90.000000
_cell_angle_beta 120.761651
_cell_angle_gamma 90.000000
_cell_volume 2532.040198
_symmetry_space_group_name_H-M "C 2/C"
_symmetry_group_IT_number 15
_symmetry_cell_setting 'monoclinic'
loop_
_space_group_symop_operation_xyz
x,y,z
-x,y,1/2-z
-x,-y,-z
x,-y,1/2+z
1/2+x,1/2+y,z
1/2-x,1/2+y,1/2-z
1/2-x,1/2-y,-z
1/2+x,1/2-y,1/2+z
loop_
_atom_site_type_symbol
_atom_site_label
_atom_site_fract_x
_atom_site_fract_y
_atom_site_fract_z
Si Si1 0.394803 0.037408 0.050533
Si Si2 0.707374 0.779847 0.217051
Si Si3 0.193308 0.108710 0.850432
Si Si4 0.938900 0.813740 0.052288
Si Si5 0.547935 0.913746 0.458521
Si Si6 0.912608 0.876862 0.554938
Si Si7 0.197702 0.680880 0.019906
O O1 0.500000 0.034213 0.250000
O O2 0.388705 0.974009 0.977565
O O3 0.278165 0.063002 0.988301
O O4 0.441747 0.082080 0.969881
O O5 0.752592 0.831165 0.155197
O O6 0.791994 0.739075 0.378343
O O7 0.643969 0.805946 0.309314
O O8 0.642719 0.734012 0.068019
O O9 0.114314 0.129007 0.920659
O O10 0.138856 0.090218 0.638910
O O11 0.000000 0.788910 0.250000
O O12 0.016377 0.830186 0.977131
O O13 0.500000 0.909339 0.250000
O O14 0.628823 0.863272 0.558895
O O15 0.812386 0.849161 0.566593
O O16 0.000000 0.903162 0.750000
#
# Coordination Sequence:
#
# PCOD9266174 Si02
#       7
#     8   8   8   8   8   8   8
#     4  10  23  41  66  93 123 164 209 261 328 374
#     4  10  20  37  55  88 125 158 209 247 307 381
#     4  10  22  39  56  91 128 160 211 260 307 385
#     4  10  21  37  58  85 126 168 197 250 311 376
#     4  10  21  43  65  92 122 158 212 268 317 377
#     4  10  19  37  61  84 117 165 204 249 305 364
#     4  10  21  37  62  89 122 156 209 265 304 371
#
# _framework density 22.116551999999999
#
# number of rings (size 3 to 8) (size 9 to 14) (size 15 to 20)
#    0.000    2.000    1.429    2.143    2.000    0.571 
#   23.143    0.000    0.000    4.286    0.000    0.000 
#    0.000    0.000    0.000    0.000    0.000    0.000 
#
# Total GULP energy -155965.542282 kJ/mol
# GULP energy per Si atom -5570.197939 kJ/mol
# Density = 2.206621 g / cm^3
# Si number density = 22.116552 Si / 1000 Ang^3
#
#
#
# Elastic Constant Matrix: (Units=GPa)
#
#
# Indices 1 2 3 4 5 6 
#
# 1 46.7773 26.0065 -11.5090 0.0000 6.1115 0.0000
# 2 26.0065 63.7558 6.0433 0.0000 11.7252 0.0000
# 3 -11.5090 6.0433 75.4737 0.0000 15.8214 0.0000
# 4 0.0000 0.0000 0.0000 13.8619 0.0000 2.8512
# 5 6.1115 11.7252 15.8214 0.0000 19.0245 0.0000
# 6 0.0000 0.0000 0.0000 2.8512 0.0000 24.1786
#
#
#
# Elastic Compliance Matrix: (Units=1/GPa)
#
#
# Indices 1 2 3 4 5 6 
#
# 1 0.030888 -0.011658 0.007530 0.000000 -0.009000 0.000000
# 2 -0.011658 0.022159 -0.001785 0.000000 -0.008427 0.000000
# 3 0.007530 -0.001785 0.017946 0.000000 -0.016243 0.000000
# 4 0.000000 0.000000 0.000000 0.073934 0.000000 -0.008718
# 5 -0.009000 -0.008427 -0.016243 0.000000 0.074157 0.000000
# 6 0.000000 0.000000 0.000000 -0.008718 0.000000 0.042387
#
#
# Mechanical properties :
#
#
# Convention : Reuss Voigt Hill
#
# Bulk Modulus (GPa) = 16.90148 25.23204 21.06676
# Shear Modulus (GPa) = 17.06371 22.44407 19.75389
#
# Velocity S-wave (km/s) = 2.78067 3.18906 2.99184
# Velocity P-wave (km/s) = 4.23888 4.99936 4.63474
#
# Compressibility (1/GPa) = 0.05916640
#
# Stress axis : x y z
#
# Youngs Moduli (GPa) = 32.37521 45.12764 55.72312
#
# Poissons Ratio (x) = 0.52610 -0.41960
# Poissons Ratio (y) = 0.37743 0.09949
# Poissons Ratio (z) = -0.24379 0.08057
#
# Static dielectric constant tensor:
#      x y z
#    x 1.874500 0.000000 0.016410 
#    y 0.000000 1.801480 0.000000 
#    z 0.016410 0.000000 1.957490 
# 
# From -- ./inp_files/42743.got.cif
#   From: 2010.05.17/outbox.cif.g08.bks.cpg/sg15_22_cif.got.tgz:42743.got - 2010.06.03 18:47:42.
