data_PCOD9266112
_publ_section_title
;
Structure prediction by ZEFSAII (Michael W. Deem and Ramdas Pophale) SiO2 
 PCOD9266112
Probable space group: C 2/C
;
_chemical_formula_sum "Si O2"
_cell_formula_units_Z 64
_cell_length_a 18.181702
_cell_length_b 18.669810
_cell_length_c 21.113563
_cell_angle_alpha 90.000000
_cell_angle_beta 153.415052
_cell_angle_gamma 90.000000
_cell_volume 3207.395087
_symmetry_space_group_name_H-M "C 2/C"
_symmetry_group_IT_number 15
_symmetry_cell_setting 'monoclinic'
loop_
_space_group_symop_operation_xyz
x,y,z
-x,y,1/2-z
-x,-y,-z
x,-y,1/2+z
1/2+x,1/2+y,z
1/2-x,1/2+y,1/2-z
1/2-x,1/2-y,-z
1/2+x,1/2-y,1/2+z
loop_
_atom_site_type_symbol
_atom_site_label
_atom_site_fract_x
_atom_site_fract_y
_atom_site_fract_z
Si Si1 0.199568 0.504591 0.533525
Si Si2 0.909477 0.404907 0.878744
Si Si3 0.761805 0.788943 0.940821
Si Si4 0.875524 0.747507 0.290184
Si Si5 0.155271 0.638433 0.675322
Si Si6 0.956603 0.588039 0.782349
Si Si7 0.627881 0.491605 0.205321
Si Si8 0.757787 0.043702 0.436976
O O1 0.335834 0.498421 0.692043
O O2 0.259730 0.539915 0.515071
O O3 0.046399 0.545665 0.449505
O O4 0.122866 0.431908 0.447303
O O5 0.885846 0.334278 0.819574
O O6 0.738901 0.447298 0.757121
O O7 0.991731 0.381913 0.009210
O O8 0.654167 0.745938 0.807532
O O9 0.750000 0.750000 0.000000
O O10 0.715479 0.872510 0.896683
O O11 0.949665 0.783197 0.062286
O O12 0.725247 0.785233 0.209551
O O13 0.143441 0.629181 0.741396
O O14 0.287614 0.581546 0.751834
O O15 0.867623 0.513306 0.691730
O O16 0.000000 0.626028 0.750000
O O17 0.434563 0.481905 0.046966
#
# Coordination Sequence:
#
# PCOD9266112 Si02
#       8
#     8   8   8   8   8   8   8   8
#     4  10  19  37  60  86 123 167 202 244 315 384
#     4  11  21  40  66  91 122 173 212 259 317 385
#     4  12  26  41  58  89 138 179 205 247 305 384
#     4  12  25  41  62  90 125 174 216 250 316 378
#     4  11  21  41  63  88 122 164 216 259 319 387
#     4  10  21  39  62  89 119 161 205 267 327 374
#     4  11  21  36  65  90 118 164 214 263 311 363
#     4  11  24  36  59  97 129 156 214 270 304 365
#
# _framework density 19.953887999999999
#
# number of rings (size 3 to 8) (size 9 to 14) (size 15 to 20)
#    0.000    1.000    5.000    3.000    1.750    4.500 
#    0.000    0.000    0.000    2.250    0.000    0.000 
#    0.000    0.000    0.000    0.000    0.000    0.000 
#
# Total GULP energy -178561.186619 kJ/mol
# GULP energy per Si atom -5580.037082 kJ/mol
# Density = 1.990847 g / cm^3
# Si number density = 19.953888 Si / 1000 Ang^3
#
#
#
# Elastic Constant Matrix: (Units=GPa)
#
#
# Indices 1 2 3 4 5 6 
#
# 1 86.6978 11.4303 22.3120 0.0068 -16.4712 -0.0021
# 2 11.4303 37.3541 -0.6326 0.0039 -1.7474 -0.0102
# 3 22.3120 -0.6326 61.6112 0.0039 0.4553 -0.0233
# 4 0.0068 0.0039 0.0039 17.7875 -0.0025 -0.3696
# 5 -16.4712 -1.7474 0.4553 -0.0025 34.9444 -0.0058
# 6 -0.0021 -0.0102 -0.0233 -0.3696 -0.0058 8.3312
#
#
#
# Elastic Compliance Matrix: (Units=1/GPa)
#
#
# Indices 1 2 3 4 5 6 
#
# 1 0.014804 -0.004303 -0.005456 -0.000003 0.006834 -0.000012
# 2 -0.004303 0.028089 0.001851 -0.000004 -0.000648 0.000038
# 3 -0.005456 0.001851 0.018246 -0.000002 -0.002717 0.000050
# 4 -0.000003 -0.000004 -0.000002 0.056271 0.000003 0.002496
# 5 0.006834 -0.000648 -0.002717 0.000003 0.031841 0.000016
# 6 -0.000012 0.000038 0.000050 0.002496 0.000016 0.120141
#
#
# Mechanical properties :
#
#
# Convention : Reuss Voigt Hill
#
# Bulk Modulus (GPa) = 22.06341 27.98696 25.02519
# Shear Modulus (GPa) = 16.64925 22.38285 19.51605
#
# Velocity S-wave (km/s) = 2.89171 3.35286 3.13078
# Velocity P-wave (km/s) = 4.71492 5.38935 5.06338
#
# Compressibility (1/GPa) = 0.04532390
#
# Stress axis : x y z
#
# Youngs Moduli (GPa) = 67.54930 35.60173 54.80743
#
# Poissons Ratio (x) = 0.15318 0.29902
# Poissons Ratio (y) = 0.29065 -0.10147
# Poissons Ratio (z) = 0.36854 -0.06591
#
# Static dielectric constant tensor:
#      x y z
#    x 1.757030 0.000000 -0.003930 
#    y 0.000000 1.715350 -0.000010 
#    z -0.003930 -0.000010 1.730000 
# 
# From -- ./inp_files/249662.got.cif
#   From: 2010.05.17/outbox.cif.g08.bks.cpg/sg15_125_cif.got.tgz:249662.got - 2010.06.03 18:47:42.
