data_PCOD9266862
_publ_section_title
;
Structure prediction by ZEFSAII (Michael W. Deem and Ramdas Pophale) SiO2 
 PCOD9266862
Probable space group: C 2/C
;
_chemical_formula_sum "Si O2"
_cell_formula_units_Z 64
_cell_length_a 15.498523
_cell_length_b 17.919423
_cell_length_c 11.994039
_cell_angle_alpha 90.000000
_cell_angle_beta 84.951385
_cell_angle_gamma 90.000000
_cell_volume 3318.116419
_symmetry_space_group_name_H-M "C 2/C"
_symmetry_group_IT_number 15
_symmetry_cell_setting 'monoclinic'
loop_
_space_group_symop_operation_xyz
x,y,z
-x,y,1/2-z
-x,-y,-z
x,-y,1/2+z
1/2+x,1/2+y,z
1/2-x,1/2+y,1/2-z
1/2-x,1/2-y,-z
1/2+x,1/2-y,1/2+z
loop_
_atom_site_type_symbol
_atom_site_label
_atom_site_fract_x
_atom_site_fract_y
_atom_site_fract_z
Si Si1 0.140592 0.194775 0.996194
Si Si2 0.094905 0.466315 0.486304
Si Si3 0.805577 0.608609 0.710136
Si Si4 0.317613 0.399448 0.465940
Si Si5 0.033640 0.799468 0.119013
Si Si6 0.830491 0.337020 0.882019
Si Si7 0.751342 0.453160 0.445799
Si Si8 0.266904 0.270195 0.806627
O O1 0.185758 0.114168 0.975306
O O2 0.197787 0.248172 0.909816
O O3 0.046245 0.206543 0.956065
O O4 0.150897 0.208719 0.126822
O O5 0.113799 0.414889 0.375897
O O6 0.118419 0.412850 0.589464
O O7 0.169316 0.530318 0.478324
O O8 0.000000 0.500000 0.500000
O O9 0.721602 0.582521 0.650390
O O10 0.800923 0.566732 0.827021
O O11 0.792794 0.696460 0.734219
O O12 0.411085 0.368047 0.434604
O O13 0.249890 0.338617 0.522205
O O14 0.304525 0.471033 0.545175
O O15 0.100352 0.729650 0.114297
O O16 0.000000 0.809999 0.250000
O O17 0.781362 0.327877 0.769497
#
# Coordination Sequence:
#
# PCOD9266862 Si02
#       8
#     8   8   8   8   8   8   8   8
#     4  10  22  36  60  90 129 154 204 262 311 376
#     4  10  24  40  61  94 124 161 213 267 307 381
#     4   9  18  38  62  83 120 164 203 247 315 371
#     4  10  22  38  66  86 121 162 209 258 307 384
#     4  12  21  39  63  98 118 155 217 268 309 365
#     4  10  21  39  67  87 122 165 210 258 313 381
#     4   9  20  40  57  84 123 168 194 245 331 376
#     4  10  19  38  62  88 118 169 203 249 319 370
#
# _framework density 19.288050999999999
#
# number of rings (size 3 to 8) (size 9 to 14) (size 15 to 20)
#    0.000    2.250    2.500    1.125    1.750    8.000 
#    4.500    1.875    0.000    0.000    0.000    0.000 
#    0.000    0.000    0.000    0.000    0.000    0.000 
#
# Total GULP energy -178148.451366 kJ/mol
# GULP energy per Si atom -5567.139105 kJ/mol
# Density = 1.924415 g / cm^3
# Si number density = 19.288051 Si / 1000 Ang^3
#
#
#
# Elastic Constant Matrix: (Units=GPa)
#
#
# Indices 1 2 3 4 5 6 
#
# 1 90.2506 6.5352 38.6277 0.0000 13.9530 0.0000
# 2 6.5352 44.9583 37.9558 0.0000 4.1722 0.0000
# 3 38.6277 37.9558 91.3409 0.0000 17.8153 0.0000
# 4 0.0000 0.0000 0.0000 27.2642 0.0000 5.3722
# 5 13.9530 4.1722 17.8153 0.0000 30.5297 0.0000
# 6 0.0000 0.0000 0.0000 5.3722 0.0000 23.4792
#
#
#
# Elastic Compliance Matrix: (Units=1/GPa)
#
#
# Indices 1 2 3 4 5 6 
#
# 1 0.014340 0.004357 -0.007313 0.000000 -0.002882 0.000000
# 2 0.004357 0.036045 -0.017459 0.000000 0.003271 0.000000
# 3 -0.007313 -0.017459 0.022770 0.000000 -0.007559 0.000000
# 4 0.000000 0.000000 0.000000 0.038410 0.000000 -0.008789
# 5 -0.002882 0.003271 -0.007559 0.000000 0.038036 0.000000
# 6 0.000000 0.000000 0.000000 -0.008789 0.000000 0.044602
#
#
# Mechanical properties :
#
#
# Convention : Reuss Voigt Hill
#
# Bulk Modulus (GPa) = 30.93501 43.64301 37.28901
# Shear Modulus (GPa) = 20.34111 25.81669 23.07890
#
# Velocity S-wave (km/s) = 3.25098 3.66249 3.46285
# Velocity P-wave (km/s) = 5.49227 6.36877 5.94669
#
# Compressibility (1/GPa) = 0.03232583
#
# Stress axis : x y z
#
# Youngs Moduli (GPa) = 69.73403 27.74280 43.91826
#
# Poissons Ratio (x) = -0.12086 0.32116
# Poissons Ratio (y) = -0.30380 0.76675
# Poissons Ratio (z) = 0.50994 0.48435
#
# Static dielectric constant tensor:
#      x y z
#    x 1.680480 0.000000 0.022240 
#    y 0.000000 1.733060 0.000000 
#    z 0.022240 0.000000 1.707650 
# 
# From -- ./inp_files/98792.got.cif
#   From: 2010.05.17/outbox.cif.g08.bks.cpg/sg15_50_cif.got.tgz:98792.got - 2010.06.03 18:47:42.
