data_PCOD9266678
_publ_section_title
;
Structure prediction by ZEFSAII (Michael W. Deem and Ramdas Pophale) SiO2 
 PCOD9266678
Probable space group: C 2/C
;
_chemical_formula_sum "Si O2"
_cell_formula_units_Z 44
_cell_length_a 5.639772
_cell_length_b 22.613444
_cell_length_c 14.302824
_cell_angle_alpha 90.000000
_cell_angle_beta 61.499705
_cell_angle_gamma 90.000000
_cell_volume 1603.051012
_symmetry_space_group_name_H-M "C 2/C"
_symmetry_group_IT_number 15
_symmetry_cell_setting 'monoclinic'
loop_
_space_group_symop_operation_xyz
x,y,z
-x,y,1/2-z
-x,-y,-z
x,-y,1/2+z
1/2+x,1/2+y,z
1/2-x,1/2+y,1/2-z
1/2-x,1/2-y,-z
1/2+x,1/2-y,1/2+z
loop_
_atom_site_type_symbol
_atom_site_label
_atom_site_fract_x
_atom_site_fract_y
_atom_site_fract_z
Si Si1 0.994347 0.395813 0.137917
Si Si2 0.648835 0.684524 0.049753
Si Si3 0.070903 0.714763 0.109147
Si Si4 0.367359 0.970899 0.647054
Si Si5 0.592584 0.540030 0.395476
Si Si6 0.500000 0.684910 0.750000
O O1 0.943696 0.461297 0.106601
O O2 0.736373 0.355098 0.164836
O O3 0.000000 0.397944 0.250000
O O4 0.256870 0.362307 0.047732
O O5 0.321701 0.685603 0.121197
O O6 0.838420 0.676439 0.105078
O O7 0.750000 0.750000 0.000000
O O8 0.909612 0.768003 0.189910
O O9 0.250000 0.750000 0.000000
O O10 0.637044 0.932894 0.611511
O O11 0.227415 0.984104 0.773672
O O12 0.173565 0.940505 0.608927
O O13 0.500000 0.500000 0.500000
#
# Coordination Sequence:
#
# PCOD9266678 Si02
#       6
#     8   8   8   8   8   4
#     4  12  22  33  57  82 127 146 181 259 305 329
#     4  10  20  36  48  72 116 150 194 231 285 346
#     4  10  20  36  45  76 106 136 215 230 279 352
#     4  10  22  36  54  99 122 142 200 232 293 362
#     4  10  19  38  59  82 132 154 180 233 289 362
#     4  12  22  30  60  74 108 162 186 260 304 318
#
# _framework density 27.447662999999999
#
# number of rings (size 3 to 8) (size 9 to 14) (size 15 to 20)
#    0.000    1.455    5.455    3.818    0.000    0.000 
#    0.000    0.000    0.000    0.000    0.000   25.455 
#    0.000    0.000    0.000    0.000    0.000    0.000 
#
# Total GULP energy -122662.610655 kJ/mol
# GULP energy per Si atom -5575.573212 kJ/mol
# Density = 2.738519 g / cm^3
# Si number density = 27.447663 Si / 1000 Ang^3
#
#
#
# Elastic Constant Matrix: (Units=GPa)
#
#
# Indices 1 2 3 4 5 6 
#
# 1 277.3093 64.4162 16.3142 0.0000 7.5882 0.0000
# 2 64.4162 155.1308 21.6159 0.0000 -7.5884 0.0000
# 3 16.3142 21.6159 77.3920 0.0000 0.9662 0.0000
# 4 0.0000 0.0000 0.0000 30.1465 0.0000 2.0040
# 5 7.5882 -7.5884 0.9662 0.0000 39.7175 0.0000
# 6 0.0000 0.0000 0.0000 2.0040 0.0000 9.6180
#
#
#
# Elastic Compliance Matrix: (Units=1/GPa)
#
#
# Indices 1 2 3 4 5 6 
#
# 1 0.004048 -0.001683 -0.000370 0.000000 -0.001086 0.000000
# 2 -0.001683 0.007477 -0.001756 0.000000 0.001793 0.000000
# 3 -0.000370 -0.001756 0.013497 0.000000 -0.000593 0.000000
# 4 0.000000 0.000000 0.000000 0.033637 0.000000 -0.007009
# 5 -0.001086 0.001793 -0.000593 0.000000 0.025742 0.000000
# 6 0.000000 0.000000 0.000000 -0.007009 0.000000 0.105432
#
#
# Mechanical properties :
#
#
# Convention : Reuss Voigt Hill
#
# Bulk Modulus (GPa) = 57.45306 79.39164 68.42235
# Shear Modulus (GPa) = 24.59989 43.06212 33.83101
#
# Velocity S-wave (km/s) = 2.99699 3.96521 3.51460
# Velocity P-wave (km/s) = 5.74049 7.06763 6.43834
#
# Compressibility (1/GPa) = 0.01740551
#
# Stress axis : x y z
#
# Youngs Moduli (GPa) = 247.01004 133.73875 74.09002
#
# Poissons Ratio (x) = 0.22503 0.02740
# Poissons Ratio (y) = 0.41563 0.13011
# Poissons Ratio (z) = 0.09136 0.23486
#
# Static dielectric constant tensor:
#      x y z
#    x 2.242480 0.000000 0.011290 
#    y 0.000000 2.257460 0.000000 
#    z 0.011290 0.000000 2.138870 
# 
# From -- ./inp_files/130283.got.cif
#   From: 2010.05.17/outbox.cif.g08.bks.cpg/sg15_66_cif.got.tgz:130283.got - 2010.06.03 18:47:42.
