data_PCOD9266350
_publ_section_title
;
Structure prediction by ZEFSAII (Michael W. Deem and Ramdas Pophale) SiO2 
 PCOD9266350
Probable space group: C 2/C
;
_chemical_formula_sum "Si O2"
_cell_formula_units_Z 48
_cell_length_a 29.107172
_cell_length_b 8.594960
_cell_length_c 19.429680
_cell_angle_alpha 90.000000
_cell_angle_beta 30.978319
_cell_angle_gamma 90.000000
_cell_volume 2501.930449
_symmetry_space_group_name_H-M "C 2/C"
_symmetry_group_IT_number 15
_symmetry_cell_setting 'monoclinic'
loop_
_space_group_symop_operation_xyz
x,y,z
-x,y,1/2-z
-x,-y,-z
x,-y,1/2+z
1/2+x,1/2+y,z
1/2-x,1/2+y,1/2-z
1/2-x,1/2-y,-z
1/2+x,1/2-y,1/2+z
loop_
_atom_site_type_symbol
_atom_site_label
_atom_site_fract_x
_atom_site_fract_y
_atom_site_fract_z
Si Si1 0.992411 0.540487 0.928133
Si Si2 0.798008 0.406962 0.150401
Si Si3 0.314941 0.047350 0.864639
Si Si4 0.308299 0.554545 0.092022
Si Si5 0.557262 0.685797 0.105768
Si Si6 0.737860 0.138029 0.418079
O O1 0.981693 0.715489 0.908712
O O2 0.085870 0.485350 0.775432
O O3 0.901032 0.459655 0.021511
O O4 0.000000 0.500000 0.000000
O O5 0.749725 0.443462 0.283817
O O6 0.798699 0.226372 0.133099
O O7 0.745424 0.510531 0.161620
O O8 0.308855 0.226619 0.844013
O O9 0.240887 0.953338 0.917869
O O10 0.287036 0.053959 0.979222
O O11 0.408010 0.485530 0.959496
O O12 0.500000 0.685677 0.250000
O O13 0.648919 0.771369 0.009177
#
# Coordination Sequence:
#
# PCOD9266350 Si02
#       6
#     8   8   8   8   8   8
#     4  11  21  36  63  89 119 154 203 248 294 353
#     4  11  23  40  60  87 120 161 195 245 303 356
#     4  10  19  37  63  90 113 157 199 247 293 354
#     4  11  23  40  61  85 122 158 200 243 300 360
#     4  10  20  39  60  86 119 161 196 238 300 358
#     4   9  20  37  64  85 117 157 200 237 298 362
#
# _framework density 19.185186000000002
#
# number of rings (size 3 to 8) (size 9 to 14) (size 15 to 20)
#    0.000    1.667    3.333    3.000    0.000    0.667 
#    3.000    2.500    0.000    0.000    0.000    0.000 
#    0.000    0.000    0.000    0.000    0.000    0.000 
#
# Total GULP energy -133750.324285 kJ/mol
# GULP energy per Si atom -5572.930179 kJ/mol
# Density = 1.914152 g / cm^3
# Si number density = 19.185186 Si / 1000 Ang^3
#
#
#
# Elastic Constant Matrix: (Units=GPa)
#
#
# Indices 1 2 3 4 5 6 
#
# 1 75.8347 -4.9652 11.4629 -0.0005 12.4579 0.0001
# 2 -4.9652 40.4718 10.7085 -0.0028 8.5919 0.0006
# 3 11.4629 10.7085 74.3748 -0.0010 3.5654 0.0002
# 4 -0.0005 -0.0028 -0.0010 21.2546 0.0001 11.1821
# 5 12.4579 8.5919 3.5654 0.0001 32.4807 0.0001
# 6 0.0001 0.0006 0.0002 11.1821 0.0001 15.2279
#
#
#
# Elastic Compliance Matrix: (Units=1/GPa)
#
#
# Indices 1 2 3 4 5 6 
#
# 1 0.014884 0.003868 -0.002542 0.000001 -0.006453 -0.000001
# 2 0.003868 0.028098 -0.004237 0.000007 -0.008451 -0.000006
# 3 -0.002542 -0.004237 0.014423 0.000000 0.000512 0.000000
# 4 0.000001 0.000007 0.000000 0.076667 -0.000002 -0.056298
# 5 -0.006453 -0.008451 0.000512 -0.000002 0.035442 0.000002
# 6 -0.000001 -0.000006 0.000000 -0.056298 0.000002 0.107010
#
#
# Mechanical properties :
#
#
# Convention : Reuss Voigt Hill
#
# Bulk Modulus (GPa) = 19.38536 25.01043 22.19789
# Shear Modulus (GPa) = 16.69234 25.35764 21.02499
#
# Velocity S-wave (km/s) = 2.95289 3.63951 3.31403
# Velocity P-wave (km/s) = 4.66394 5.54310 5.12241
#
# Compressibility (1/GPa) = 0.05158533
#
# Stress axis : x y z
#
# Youngs Moduli (GPa) = 67.18566 35.58933 69.33577
#
# Poissons Ratio (x) = -0.13768 0.17623
# Poissons Ratio (y) = -0.25991 0.29375
# Poissons Ratio (z) = 0.17076 0.15078
#
# Static dielectric constant tensor:
#      x y z
#    x 1.680090 0.000000 -0.000800 
#    y 0.000000 1.706070 0.000000 
#    z -0.000800 0.000000 1.646080 
# 
# From -- ./inp_files/258688.got.cif
#   From: 2010.05.17/outbox.cif.g08.bks.cpg/sg15_130_cif.got.tgz:258688.got - 2010.06.03 18:47:42.
