data_PCOD9266305
_publ_section_title
;
Structure prediction by ZEFSAII (Michael W. Deem and Ramdas Pophale) SiO2 
 PCOD9266305
Probable space group: C 2/C
;
_chemical_formula_sum "Si O2"
_cell_formula_units_Z 56
_cell_length_a 10.856076
_cell_length_b 21.947309
_cell_length_c 11.759343
_cell_angle_alpha 90.000000
_cell_angle_beta 120.752423
_cell_angle_gamma 90.000000
_cell_volume 2407.824746
_symmetry_space_group_name_H-M "C 2/C"
_symmetry_group_IT_number 15
_symmetry_cell_setting 'monoclinic'
loop_
_space_group_symop_operation_xyz
x,y,z
-x,y,1/2-z
-x,-y,-z
x,-y,1/2+z
1/2+x,1/2+y,z
1/2-x,1/2+y,1/2-z
1/2-x,1/2-y,-z
1/2+x,1/2-y,1/2+z
loop_
_atom_site_type_symbol
_atom_site_label
_atom_site_fract_x
_atom_site_fract_y
_atom_site_fract_z
Si Si1 0.462584 0.955109 0.368324
Si Si2 0.000000 0.092686 0.250000
Si Si3 0.554904 0.299797 0.614081
Si Si4 0.524518 0.119274 0.090159
Si Si5 0.839660 0.749466 0.337080
Si Si6 0.500000 0.656368 0.750000
Si Si7 0.272040 0.527359 0.269138
Si Si8 0.798323 0.892378 0.976619
O O1 0.500000 0.964029 0.250000
O O2 0.522117 0.893663 0.452686
O O3 0.500000 0.000000 0.500000
O O4 0.291179 0.961222 0.278353
O O5 0.992131 0.140006 0.143786
O O6 0.133295 0.050090 0.289176
O O7 0.667306 0.261625 0.745565
O O8 0.419300 0.267793 0.492347
O O9 0.662350 0.329809 0.571983
O O10 0.584451 0.184777 0.149645
O O11 0.633261 0.072213 0.200529
O O12 0.364387 0.109247 0.058364
O O13 0.894612 0.799506 0.272770
O O14 0.594198 0.612709 0.870483
O O15 0.333785 0.547583 0.418769
#
# Coordination Sequence:
#
# PCOD9266305 Si02
#       8
#     8   4   8   8   8   4   8   8
#     4  10  22  42  68 101 132 165 227 300 352 421
#     4  10  20  40  59  92 122 175 220 270 346 444
#     4  10  22  36  60  90 135 180 232 277 349 422
#     4  11  20  36  65  94 126 168 226 279 345 413
#     4  11  20  37  56  96 132 188 219 286 345 416
#     4  10  22  34  59  96 146 169 230 284 338 424
#     4  10  20  38  65  91 124 176 220 286 357 407
#     4  10  19  37  62  94 127 177 222 285 343 415
#
# _framework density 23.257508000000001
#
# number of rings (size 3 to 8) (size 9 to 14) (size 15 to 20)
#    0.000    1.714    2.857    3.857    0.000    2.857 
#    1.286   10.714    0.000    7.714    0.000    0.000 
#    0.000    0.000    0.000    0.000    0.000    0.000 
#
# Total GULP energy -155904.875911 kJ/mol
# GULP energy per Si atom -5568.031283 kJ/mol
# Density = 2.320457 g / cm^3
# Si number density = 23.257508 Si / 1000 Ang^3
#
#
#
# Elastic Constant Matrix: (Units=GPa)
#
#
# Indices 1 2 3 4 5 6 
#
# 1 78.8097 9.3251 64.0181 0.0000 -4.0567 0.0000
# 2 9.3251 20.3885 30.4080 0.0000 -0.6561 0.0000
# 3 64.0181 30.4080 132.7668 0.0000 6.6781 0.0000
# 4 0.0000 0.0000 0.0000 24.9659 0.0000 -2.5428
# 5 -4.0567 -0.6561 6.6781 0.0000 25.1655 0.0000
# 6 0.0000 0.0000 0.0000 -2.5428 0.0000 18.5704
#
#
#
# Elastic Compliance Matrix: (Units=1/GPa)
#
#
# Indices 1 2 3 4 5 6 
#
# 1 0.023198 0.010480 -0.013974 0.000000 0.007721 0.000000
# 2 0.010480 0.080311 -0.023957 0.000000 0.010141 0.000000
# 3 -0.013974 -0.023957 0.020171 0.000000 -0.008230 0.000000
# 4 0.000000 0.000000 0.000000 0.040621 0.000000 0.005562
# 5 0.007721 0.010141 -0.008230 0.000000 0.043430 0.000000
# 6 0.000000 0.000000 0.000000 0.005562 0.000000 0.054611
#
#
# Mechanical properties :
#
#
# Convention : Reuss Voigt Hill
#
# Bulk Modulus (GPa) = 14.53978 48.82974 31.68476
# Shear Modulus (GPa) = 14.69855 22.28796 18.49325
#
# Velocity S-wave (km/s) = 2.51667 3.09902 2.82290
# Velocity P-wave (km/s) = 3.83537 5.81774 4.92728
#
# Compressibility (1/GPa) = 0.06877683
#
# Stress axis : x y z
#
# Youngs Moduli (GPa) = 43.10797 12.45160 49.57589
#
# Poissons Ratio (x) = -0.13049 0.69278
# Poissons Ratio (y) = -0.45177 1.18770
# Poissons Ratio (z) = 0.60240 0.29831
#
# Static dielectric constant tensor:
#      x y z
#    x 1.912070 0.000000 -0.038440 
#    y 0.000000 1.991430 0.000000 
#    z -0.038440 0.000000 2.053770 
# 
# From -- ./inp_files/91869.got.cif
#   From: 2010.05.17/outbox.cif.g08.bks.cpg/sg15_46_cif.got.tgz:91869.got - 2010.06.03 18:47:42.
