data_PCOD9266890
_publ_section_title
;
Structure prediction by ZEFSAII (Michael W. Deem and Ramdas Pophale) SiO2 
 PCOD9266890
Probable space group: C 2/C
;
_chemical_formula_sum "Si O2"
_cell_formula_units_Z 52
_cell_length_a 10.750896
_cell_length_b 28.213709
_cell_length_c 8.737925
_cell_angle_alpha 90.000000
_cell_angle_beta 102.189853
_cell_angle_gamma 90.000000
_cell_volume 2590.652576
_symmetry_space_group_name_H-M "C 2/C"
_symmetry_group_IT_number 15
_symmetry_cell_setting 'monoclinic'
loop_
_space_group_symop_operation_xyz
x,y,z
-x,y,1/2-z
-x,-y,-z
x,-y,1/2+z
1/2+x,1/2+y,z
1/2-x,1/2+y,1/2-z
1/2-x,1/2-y,-z
1/2+x,1/2-y,1/2+z
loop_
_atom_site_type_symbol
_atom_site_label
_atom_site_fract_x
_atom_site_fract_y
_atom_site_fract_z
Si Si1 0.253590 0.848373 0.400569
Si Si2 0.638600 0.788514 0.606943
Si Si3 0.639937 0.231879 0.764206
Si Si4 0.640427 0.443896 0.343189
Si Si5 0.135138 0.385042 0.751973
Si Si6 0.000000 0.210174 0.750000
Si Si7 0.138695 0.952505 0.712329
O O1 0.350902 0.811436 0.349811
O O2 0.233384 0.900723 0.324110
O O3 0.301205 0.861570 0.581255
O O4 0.117873 0.821428 0.340415
O O5 0.676722 0.788652 0.440021
O O6 0.760538 0.773243 0.740550
O O7 0.596621 0.840581 0.638334
O O8 0.542043 0.746330 0.625786
O O9 0.500000 0.251047 0.750000
O O10 0.500000 0.430502 0.250000
O O11 0.633220 0.450134 0.525705
O O12 0.670077 0.494270 0.274750
O O13 0.245893 0.417812 0.711556
O O14 0.000000 0.410542 0.750000
O O15 0.000000 0.940650 0.750000
#
# Coordination Sequence:
#
# PCOD9266890 Si02
#       7
#     8   8   8   8   8   4   8
#     4  10  22  38  63  84 120 158 204 245 306 359
#     4  10  22  36  57  81 116 155 203 242 301 345
#     4  10  22  36  52  85 116 152 198 249 294 361
#     4  10  19  38  62  92 118 156 200 258 301 359
#     4  11  23  41  60  88 124 167 199 247 306 375
#     4  10  20  38  62  88 108 162 206 248 296 350
#     4  10  22  38  62  93 119 157 204 254 306 355
#
# _framework density 20.072163
#
# number of rings (size 3 to 8) (size 9 to 14) (size 15 to 20)
#    0.000    1.846    1.538    2.769    2.154    4.308 
#    5.538    3.846    0.000    0.000    0.000    0.000 
#    0.000    0.000    0.000    0.000    0.000    0.000 
#
# Total GULP energy -144942.289644 kJ/mol
# GULP energy per Si atom -5574.703448 kJ/mol
# Density = 2.002648 g / cm^3
# Si number density = 20.072163 Si / 1000 Ang^3
#
#
#
# Elastic Constant Matrix: (Units=GPa)
#
#
# Indices 1 2 3 4 5 6 
#
# 1 86.8995 40.7355 -8.7805 0.0000 3.4261 0.0000
# 2 40.7355 79.5754 3.6766 0.0000 0.0080 0.0000
# 3 -8.7805 3.6766 37.6290 0.0000 6.4634 0.0000
# 4 0.0000 0.0000 0.0000 6.0448 0.0000 11.9316
# 5 3.4261 0.0080 6.4634 0.0000 22.9559 0.0000
# 6 0.0000 0.0000 0.0000 11.9316 0.0000 8.7389
#
#
#
# Elastic Compliance Matrix: (Units=1/GPa)
#
#
# Indices 1 2 3 4 5 6 
#
# 1 0.016196 -0.008535 0.005283 0.000000 -0.003902 0.000000
# 2 -0.008535 0.017124 -0.004080 0.000000 0.002416 0.000000
# 3 0.005283 -0.004080 0.029782 0.000000 -0.009172 0.000000
# 4 0.000000 0.000000 0.000000 -0.097600 0.000000 0.133257
# 5 -0.003902 0.002416 -0.009172 0.000000 0.046726 0.000000
# 6 0.000000 0.000000 0.000000 0.133257 0.000000 -0.067511
#
#
# Mechanical properties :
#
#
# Convention : Reuss Voigt Hill
#
# Bulk Modulus (GPa) = 20.64404 30.59633 25.62018
# Shear Modulus (GPa) = -204.29686 18.77941 -92.75873
#
# Velocity S-wave (km/s) = -10.09961 3.06207 -6.80536
# Velocity P-wave (km/s) = 11.21141 5.27048 6.99706
#
# Compressibility (1/GPa) = 0.04844013
#
# Stress axis : x y z
#
# Youngs Moduli (GPa) = 61.74397 58.39800 33.57712
#
# Poissons Ratio (x) = 0.49840 -0.17740
# Poissons Ratio (y) = 0.52696 0.13698
# Poissons Ratio (z) = -0.32621 0.23824
#
# Static dielectric constant tensor:
#      x y z
#    x 1.762620 0.000000 0.018610 
#    y 0.000000 1.702370 0.000000 
#    z 0.018610 0.000000 1.737620 
# 
# From -- ./inp_files/34831.got.cif
#   From: 2010.05.17/outbox.cif.g08.bks.cpg/sg15_18_cif.got.tgz:34831.got - 2010.06.03 18:47:42.
