data_PCOD9266101
_publ_section_title
;
Structure prediction by ZEFSAII (Michael W. Deem and Ramdas Pophale) SiO2 
 PCOD9266101
Probable space group: C 2/C
;
_chemical_formula_sum "Si O2"
_cell_formula_units_Z 56
_cell_length_a 11.964905
_cell_length_b 15.366492
_cell_length_c 19.084795
_cell_angle_alpha 90.000000
_cell_angle_beta 49.448200
_cell_angle_gamma 90.000000
_cell_volume 2666.130190
_symmetry_space_group_name_H-M "C 2/C"
_symmetry_group_IT_number 15
_symmetry_cell_setting 'monoclinic'
loop_
_space_group_symop_operation_xyz
x,y,z
-x,y,1/2-z
-x,-y,-z
x,-y,1/2+z
1/2+x,1/2+y,z
1/2-x,1/2+y,1/2-z
1/2-x,1/2-y,-z
1/2+x,1/2-y,1/2+z
loop_
_atom_site_type_symbol
_atom_site_label
_atom_site_fract_x
_atom_site_fract_y
_atom_site_fract_z
Si Si1 0.537112 0.312518 0.358851
Si Si2 0.685975 0.162761 0.836168
Si Si3 0.932419 0.903896 0.535645
Si Si4 0.846912 0.126640 0.447873
Si Si5 0.305353 0.794097 0.904600
Si Si6 0.864088 0.032127 0.848329
Si Si7 0.407432 0.192826 0.860024
O O1 0.706570 0.324397 0.273607
O O2 0.504304 0.334441 0.452276
O O3 0.477660 0.223453 0.347475
O O4 0.445346 0.387587 0.354772
O O5 0.736721 0.235661 0.870999
O O6 0.521978 0.171619 0.876377
O O7 0.737417 0.073011 0.851754
O O8 0.761467 0.888714 0.584990
O O9 0.986551 0.879675 0.590613
O O10 0.000000 0.000000 0.500000
O O11 0.806744 0.038548 0.425024
O O12 0.737002 0.138315 0.558651
O O13 0.849221 0.208454 0.394692
O O14 0.250000 0.750000 0.000000
O O15 0.000000 0.991252 0.750000
O O16 0.500000 0.181088 0.750000
#
# Coordination Sequence:
#
# PCOD9266101 Si02
#       7
#     8   8   8   8   8   8   8
#     4   9  18  33  59  87 115 158 199 254 304 356
#     4  10  19  37  60  85 119 158 205 256 305 358
#     4  11  19  33  58  87 117 156 198 246 305 360
#     4  11  22  38  59  87 120 160 206 252 299 374
#     4   9  18  32  55  86 114 146 196 242 291 362
#     4   9  18  34  59  87 118 155 205 253 304 363
#     4  11  24  40  60  84 121 162 208 255 306 374
#
# _framework density 21.004225999999999
#
# number of rings (size 3 to 8) (size 9 to 14) (size 15 to 20)
#    0.000    2.000    2.857    2.571    0.000    0.571 
#    0.000    0.000    0.000    6.857    0.000    0.000 
#    0.000    0.000    0.000    0.000    0.000    0.000 
#
# Total GULP energy -155885.337653 kJ/mol
# GULP energy per Si atom -5567.333488 kJ/mol
# Density = 2.095642 g / cm^3
# Si number density = 21.004226 Si / 1000 Ang^3
#
#
#
# Elastic Constant Matrix: (Units=GPa)
#
#
# Indices 1 2 3 4 5 6 
#
# 1 80.3964 18.5516 -3.7114 0.0000 -14.7260 0.0000
# 2 18.5516 80.7715 14.3278 0.0000 -9.2519 0.0000
# 3 -3.7114 14.3278 71.3456 0.0000 6.4670 0.0000
# 4 0.0000 0.0000 0.0000 23.6291 0.0000 1.7662
# 5 -14.7260 -9.2519 6.4670 0.0000 30.6334 0.0000
# 6 0.0000 0.0000 0.0000 1.7662 0.0000 25.6371
#
#
#
# Elastic Compliance Matrix: (Units=1/GPa)
#
#
# Indices 1 2 3 4 5 6 
#
# 1 0.014169 -0.002720 0.000755 0.000000 0.005830 0.000000
# 2 -0.002720 0.014001 -0.003281 0.000000 0.003614 0.000000
# 3 0.000755 -0.003281 0.015060 0.000000 -0.003807 0.000000
# 4 0.000000 0.000000 0.000000 0.042540 0.000000 -0.002931
# 5 0.005830 0.003614 -0.003807 0.000000 0.037342 0.000000
# 6 0.000000 0.000000 0.000000 -0.002931 0.000000 0.039208
#
#
# Mechanical properties :
#
#
# Convention : Reuss Voigt Hill
#
# Bulk Modulus (GPa) = 30.54646 32.31661 31.43153
# Shear Modulus (GPa) = 27.21471 29.53629 28.37550
#
# Velocity S-wave (km/s) = 3.60346 3.75401 3.67950
# Velocity P-wave (km/s) = 5.64693 5.84887 5.74879
#
# Compressibility (1/GPa) = 0.03273702
#
# Stress axis : x y z
#
# Youngs Moduli (GPa) = 70.57737 71.42182 66.40318
#
# Poissons Ratio (x) = 0.19430 -0.05013
# Poissons Ratio (y) = 0.19200 0.21786
# Poissons Ratio (z) = -0.05328 0.23432
#
# Static dielectric constant tensor:
#      x y z
#    x 1.769950 0.000000 -0.017060 
#    y 0.000000 1.813910 0.000000 
#    z -0.017060 0.000000 1.895500 
# 
# From -- ./inp_files/239502.got.cif
#   From: 2010.05.17/outbox.cif.g08.bks.cpg/sg15_120_cif.got.tgz:239502.got - 2010.06.03 18:47:42.
