data_PCOD9266127
_publ_section_title
;
Structure prediction by ZEFSAII (Michael W. Deem and Ramdas Pophale) SiO2 
 PCOD9266127
Probable space group: C 2/C
;
_chemical_formula_sum "Si O2"
_cell_formula_units_Z 56
_cell_length_a 7.978024
_cell_length_b 22.318610
_cell_length_c 17.608616
_cell_angle_alpha 90.000000
_cell_angle_beta 124.550268
_cell_angle_gamma 90.000000
_cell_volume 2582.374962
_symmetry_space_group_name_H-M "C 2/C"
_symmetry_group_IT_number 15
_symmetry_cell_setting 'monoclinic'
loop_
_space_group_symop_operation_xyz
x,y,z
-x,y,1/2-z
-x,-y,-z
x,-y,1/2+z
1/2+x,1/2+y,z
1/2-x,1/2+y,1/2-z
1/2-x,1/2-y,-z
1/2+x,1/2-y,1/2+z
loop_
_atom_site_type_symbol
_atom_site_label
_atom_site_fract_x
_atom_site_fract_y
_atom_site_fract_z
Si Si1 0.423808 0.913913 0.648805
Si Si2 0.730065 0.077118 0.777954
Si Si3 0.651603 0.207212 0.718824
Si Si4 0.215079 0.974582 0.833509
Si Si5 0.863211 0.681782 0.949780
Si Si6 0.986446 0.718513 0.137190
Si Si7 0.345577 0.557656 0.546556
O O1 0.500000 0.936149 0.750000
O O2 0.392824 0.842912 0.645116
O O3 0.230328 0.943895 0.559523
O O4 0.606883 0.928892 0.638399
O O5 0.500000 0.074364 0.750000
O O6 0.769663 0.144842 0.761927
O O7 0.752244 0.031971 0.713294
O O8 0.912379 0.063913 0.882800
O O9 0.500000 0.214402 0.750000
O O10 0.548294 0.194003 0.611170
O O11 0.813120 0.260716 0.767211
O O12 0.213061 0.000028 0.917970
O O13 0.000000 0.948768 0.750000
O O14 0.672010 0.727202 0.902158
O O15 0.770305 0.616024 0.945806
O O16 0.014795 0.702505 0.055402
#
# Coordination Sequence:
#
# PCOD9266127 Si02
#       7
#     8   8   8   8   8   8   8
#     4  11  23  40  59  89 126 164 206 246 308 380
#     4  10  20  36  61  94 117 147 202 261 306 350
#     4  11  21  34  59  89 122 153 196 257 315 354
#     4  10  21  39  63  86 116 164 202 253 306 360
#     4  10  19  37  60  88 118 155 210 248 301 375
#     4  10  22  36  60  86 118 166 200 247 305 372
#     4  10  20  38  65  89 118 161 206 259 308 360
#
# _framework density 21.685464
#
# number of rings (size 3 to 8) (size 9 to 14) (size 15 to 20)
#    0.000    1.714    2.857    2.143    0.000    1.143 
#    0.000    7.857    0.000    0.000    0.000    0.000 
#    0.000    0.000    0.000    0.000    0.000    0.000 
#
# Total GULP energy -156292.883703 kJ/mol
# GULP energy per Si atom -5581.888704 kJ/mol
# Density = 2.163611 g / cm^3
# Si number density = 21.685464 Si / 1000 Ang^3
#
#
#
# Elastic Constant Matrix: (Units=GPa)
#
#
# Indices 1 2 3 4 5 6 
#
# 1 45.4693 4.5110 28.6113 0.0000 -1.6660 0.0000
# 2 4.5110 66.0935 10.8052 0.0000 3.1488 0.0000
# 3 28.6113 10.8052 158.2162 0.0000 -17.4138 0.0000
# 4 0.0000 0.0000 0.0000 -25.9158 0.0000 5.2990
# 5 -1.6660 3.1488 -17.4138 0.0000 31.3205 0.0000
# 6 0.0000 0.0000 0.0000 5.2990 0.0000 21.4258
#
#
#
# Elastic Compliance Matrix: (Units=1/GPa)
#
#
# Indices 1 2 3 4 5 6 
#
# 1 0.024915 -0.000900 -0.004568 0.000000 -0.001124 0.000000
# 2 -0.000900 0.015485 -0.001141 0.000000 -0.002239 0.000000
# 3 -0.004568 -0.001141 0.007680 0.000000 0.004142 0.000000
# 4 0.000000 0.000000 0.000000 -0.036729 0.000000 0.009084
# 5 -0.001124 -0.002239 0.004142 0.000000 0.034396 0.000000
# 6 0.000000 0.000000 0.000000 0.009084 0.000000 0.044426
#
#
# Mechanical properties :
#
#
# Convention : Reuss Voigt Hill
#
# Bulk Modulus (GPa) = 28.68459 39.73711 34.21085
# Shear Modulus (GPa) = 43.47358 20.42288 31.94823
#
# Velocity S-wave (km/s) = 4.48228 3.07217 3.84247
# Velocity P-wave (km/s) = 6.32804 5.56313 5.95787
#
# Compressibility (1/GPa) = 0.03486192
#
# Stress axis : x y z
#
# Youngs Moduli (GPa) = 40.13606 64.57965 130.20322
#
# Poissons Ratio (x) = 0.05814 0.59474
# Poissons Ratio (y) = 0.03613 0.14858
# Poissons Ratio (z) = 0.18333 0.07370
#
# Static dielectric constant tensor:
#      x y z
#    x 1.814000 0.000000 -0.042910 
#    y 0.000000 1.767780 0.000000 
#    z -0.042910 0.000000 1.849450 
# 
# From -- ./inp_files/193298.got.cif
#   From: 2010.05.17/outbox.cif.g08.bks.cpg/sg15_97_cif.got.tgz:193298.got - 2010.06.03 18:47:42.
