data_PCOD9266543
_publ_section_title
;
Structure prediction by ZEFSAII (Michael W. Deem and Ramdas Pophale) SiO2 
 PCOD9266543
Probable space group: C 2/C
;
_chemical_formula_sum "Si O2"
_cell_formula_units_Z 44
_cell_length_a 20.345244
_cell_length_b 10.423599
_cell_length_c 8.482861
_cell_angle_alpha 90.000000
_cell_angle_beta 77.362777
_cell_angle_gamma 90.000000
_cell_volume 1755.385728
_symmetry_space_group_name_H-M "C 2/C"
_symmetry_group_IT_number 15
_symmetry_cell_setting 'monoclinic'
loop_
_space_group_symop_operation_xyz
x,y,z
-x,y,1/2-z
-x,-y,-z
x,-y,1/2+z
1/2+x,1/2+y,z
1/2-x,1/2+y,1/2-z
1/2-x,1/2-y,-z
1/2+x,1/2-y,1/2+z
loop_
_atom_site_type_symbol
_atom_site_label
_atom_site_fract_x
_atom_site_fract_y
_atom_site_fract_z
Si Si1 0.362587 0.033197 0.896640
Si Si2 0.645284 0.513408 0.084390
Si Si3 0.000000 0.658949 0.750000
Si Si4 0.052535 0.111818 0.419296
Si Si5 0.780206 0.616559 0.632723
Si Si6 0.803136 0.749383 0.114047
O O1 0.436945 0.066912 0.807942
O O2 0.313690 0.072310 0.779420
O O3 0.348853 0.128740 0.052705
O O4 0.339619 0.897159 0.976188
O O5 0.596938 0.574478 0.241893
O O6 0.718830 0.474815 0.108719
O O7 0.606864 0.391851 0.031036
O O8 0.655101 0.620296 0.941406
O O9 0.983596 0.756626 0.613140
O O10 0.000000 0.000000 0.500000
O O11 0.741175 0.745104 0.704527
O O12 0.750000 0.750000 0.000000
#
# Coordination Sequence:
#
# PCOD9266543 Si02
#       6
#     8   8   4   8   8   8
#     4  11  24  45  68  95 136 179 223 267 338 402
#     4  12  20  37  69  99 134 168 215 284 341 382
#     4  12  26  44  68  88 138 192 220 262 340 412
#     4  12  22  38  64  99 136 175 214 270 340 397
#     4  11  22  41  71 100 131 173 218 284 329 387
#     4  10  19  37  66  97 134 168 207 266 346 392
#
# _framework density 25.065715000000001
#
# number of rings (size 3 to 8) (size 9 to 14) (size 15 to 20)
#    0.000    0.727    9.091    0.000    0.000    0.727 
#    0.000    3.636    0.000    0.000    0.000    0.000 
#    0.000    0.000    0.000    0.000    0.000    0.000 
#
# Total GULP energy -122931.548551 kJ/mol
# GULP energy per Si atom -5587.797661 kJ/mol
# Density = 2.500866 g / cm^3
# Si number density = 25.065715 Si / 1000 Ang^3
#
#
#
# Elastic Constant Matrix: (Units=GPa)
#
#
# Indices 1 2 3 4 5 6 
#
# 1 159.7609 47.8445 58.1729 0.0000 -20.7429 0.0000
# 2 47.8445 79.6242 33.5450 0.0000 -8.8974 0.0000
# 3 58.1729 33.5450 68.6704 0.0000 -16.0603 0.0000
# 4 0.0000 0.0000 0.0000 36.4788 0.0000 -7.4243
# 5 -20.7429 -8.8974 -16.0603 0.0000 37.9746 0.0000
# 6 0.0000 0.0000 0.0000 -7.4243 0.0000 41.5856
#
#
#
# Elastic Compliance Matrix: (Units=1/GPa)
#
#
# Indices 1 2 3 4 5 6 
#
# 1 0.009694 -0.002946 -0.006321 0.000000 0.001932 0.000000
# 2 -0.002946 0.016717 -0.005694 0.000000 -0.000101 0.000000
# 3 -0.006321 -0.005694 0.023948 0.000000 0.005341 0.000000
# 4 0.000000 0.000000 0.000000 0.028447 0.000000 0.005079
# 5 0.001932 -0.000101 0.005341 0.000000 0.029624 0.000000
# 6 0.000000 0.000000 0.000000 0.005079 0.000000 0.024953
#
#
# Mechanical properties :
#
#
# Convention : Reuss Voigt Hill
#
# Bulk Modulus (GPa) = 48.93258 65.24227 57.08742
# Shear Modulus (GPa) = 29.39143 34.44067 31.91605
#
# Velocity S-wave (km/s) = 3.42800 3.71079 3.57220
# Velocity P-wave (km/s) = 5.93569 6.66671 6.31179
#
# Compressibility (1/GPa) = 0.02043628
#
# Stress axis : x y z
#
# Youngs Moduli (GPa) = 103.15458 59.82018 41.75727
#
# Poissons Ratio (x) = 0.17623 0.26396
# Poissons Ratio (y) = 0.30390 0.23776
# Poissons Ratio (z) = 0.65208 0.34061
#
# Static dielectric constant tensor:
#      x y z
#    x 1.985910 0.000000 -0.012630 
#    y 0.000000 2.145670 0.000000 
#    z -0.012630 0.000000 2.033160 
# 
# From -- ./inp_files/54440.got.cif
#   From: 2010.05.17/outbox.cif.g08.bks.cpg/sg15_28_cif.got.tgz:54440.got - 2010.06.03 18:47:42.
