data_PCOD9266310
_publ_section_title
;
Structure prediction by ZEFSAII (Michael W. Deem and Ramdas Pophale) SiO2 
 PCOD9266310
Probable space group: C 2/C
;
_chemical_formula_sum "Si O2"
_cell_formula_units_Z 56
_cell_length_a 14.541029
_cell_length_b 12.740945
_cell_length_c 12.151099
_cell_angle_alpha 90.000000
_cell_angle_beta 65.173271
_cell_angle_gamma 90.000000
_cell_volume 2043.139744
_symmetry_space_group_name_H-M "C 2/C"
_symmetry_group_IT_number 15
_symmetry_cell_setting 'monoclinic'
loop_
_space_group_symop_operation_xyz
x,y,z
-x,y,1/2-z
-x,-y,-z
x,-y,1/2+z
1/2+x,1/2+y,z
1/2-x,1/2+y,1/2-z
1/2-x,1/2-y,-z
1/2+x,1/2-y,1/2+z
loop_
_atom_site_type_symbol
_atom_site_label
_atom_site_fract_x
_atom_site_fract_y
_atom_site_fract_z
Si Si1 0.063459 0.631794 0.927495
Si Si2 0.352282 0.349827 0.249262
Si Si3 0.513619 0.653238 0.035466
Si Si4 0.500000 0.999256 0.750000
Si Si5 0.845338 0.428904 0.574671
Si Si6 0.292558 0.876084 0.834155
Si Si7 0.275085 0.589267 0.569700
Si Si8 0.500000 0.505609 0.250000
O O1 0.068812 0.755388 0.915338
O O2 0.033961 0.577765 0.828431
O O3 0.147109 0.555233 0.934666
O O4 0.957728 0.612760 0.046323
O O5 0.313386 0.247991 0.334600
O O6 0.266500 0.375418 0.200640
O O7 0.396372 0.437686 0.307375
O O8 0.450623 0.345093 0.112802
O O9 0.481419 0.566489 0.142518
O O10 0.629833 0.656354 0.021155
O O11 0.401396 0.926984 0.812014
O O12 0.779026 0.390788 0.708945
O O13 0.811478 0.390079 0.473741
O O14 0.214488 0.961535 0.924596
#
# Coordination Sequence:
#
# PCOD9266310 Si02
#       8
#     8   8   8   4   8   8   8   4
#     4  10  19  37  63 101 132 179 227 278 343 413
#     4  10  25  42  67  96 128 186 231 279 358 407
#     4  10  24  43  68 101 134 185 231 283 349 419
#     4  10  20  34  64 102 138 176 240 282 342 414
#     4  10  20  37  64  96 137 173 223 294 337 409
#     4  11  21  41  66  95 138 181 229 292 348 410
#     4  10  24  41  64 103 138 172 233 290 346 410
#     4  12  24  48  72  90 142 180 240 282 342 438
#
# _framework density 27.408795000000001
#
# number of rings (size 3 to 8) (size 9 to 14) (size 15 to 20)
#    0.857    0.857    2.857    1.286    2.000    3.429 
#    0.000    0.714    0.000    0.000    0.000    0.000 
#    0.000    0.000    0.000    0.000    0.000    0.000 
#
# Total GULP energy -155934.202533 kJ/mol
# GULP energy per Si atom -5569.078662 kJ/mol
# Density = 2.734641 g / cm^3
# Si number density = 27.408795 Si / 1000 Ang^3
#
#
#
# Elastic Constant Matrix: (Units=GPa)
#
#
# Indices 1 2 3 4 5 6 
#
# 1 86.3468 -6.2671 11.2891 0.0000 10.9651 0.0000
# 2 -6.2671 152.0930 15.9598 0.0000 -5.0927 0.0000
# 3 11.2891 15.9598 95.9307 0.0000 5.4997 0.0000
# 4 0.0000 0.0000 0.0000 13.3998 0.0000 -1.8453
# 5 10.9651 -5.0927 5.4997 0.0000 27.5540 0.0000
# 6 0.0000 0.0000 0.0000 -1.8453 0.0000 23.5709
#
#
#
# Elastic Compliance Matrix: (Units=1/GPa)
#
#
# Indices 1 2 3 4 5 6 
#
# 1 0.012364 0.000490 -0.001274 0.000000 -0.004576 0.000000
# 2 0.000490 0.006771 -0.001259 0.000000 0.001308 0.000000
# 3 -0.001274 -0.001259 0.010893 0.000000 -0.001900 0.000000
# 4 0.000000 0.000000 0.000000 0.075442 0.000000 0.005906
# 5 -0.004576 0.001308 -0.001900 0.000000 0.038734 0.000000
# 6 0.000000 0.000000 0.000000 0.005906 0.000000 0.042888
#
#
# Mechanical properties :
#
#
# Convention : Reuss Voigt Hill
#
# Bulk Modulus (GPa) = 38.54870 41.81491 40.18180
# Shear Modulus (GPa) = 25.02189 33.79750 29.40970
#
# Velocity S-wave (km/s) = 3.02473 3.51535 3.27922
# Velocity P-wave (km/s) = 5.12772 5.63614 5.38793
#
# Compressibility (1/GPa) = 0.02594121
#
# Stress axis : x y z
#
# Youngs Moduli (GPa) = 80.87727 147.68798 91.80601
#
# Poissons Ratio (x) = -0.07237 0.11698
# Poissons Ratio (y) = -0.03963 0.11559
# Poissons Ratio (z) = 0.10306 0.18596
#
# Static dielectric constant tensor:
#      x y z
#    x 2.149360 0.000000 -0.119100 
#    y 0.000000 2.254520 0.000000 
#    z -0.119100 0.000000 2.251290 
# 
# From -- ./inp_files/160877.got.cif
#   From: 2010.05.17/outbox.cif.g08.bks.cpg/sg15_81_cif.got.tgz:160877.got - 2010.06.03 18:47:42.
