data_PCOD9266130
_publ_section_title
;
Structure prediction by ZEFSAII (Michael W. Deem and Ramdas Pophale) SiO2 
 PCOD9266130
Probable space group: C 2/C
;
_chemical_formula_sum "Si O2"
_cell_formula_units_Z 56
_cell_length_a 11.780239
_cell_length_b 18.908952
_cell_length_c 17.192772
_cell_angle_alpha 90.000000
_cell_angle_beta 131.341734
_cell_angle_gamma 90.000000
_cell_volume 2875.292332
_symmetry_space_group_name_H-M "C 2/C"
_symmetry_group_IT_number 15
_symmetry_cell_setting 'monoclinic'
loop_
_space_group_symop_operation_xyz
x,y,z
-x,y,1/2-z
-x,-y,-z
x,-y,1/2+z
1/2+x,1/2+y,z
1/2-x,1/2+y,1/2-z
1/2-x,1/2-y,-z
1/2+x,1/2-y,1/2+z
loop_
_atom_site_type_symbol
_atom_site_label
_atom_site_fract_x
_atom_site_fract_y
_atom_site_fract_z
Si Si1 0.472086 0.577360 0.822594
Si Si2 0.828924 0.869526 0.406262
Si Si3 0.000000 0.702443 0.750000
Si Si4 0.938566 0.405871 0.996531
Si Si5 0.074814 0.749578 0.945020
Si Si6 0.742915 0.498645 0.528411
Si Si7 0.500000 0.979491 0.750000
Si Si8 0.676658 0.998663 0.177366
O O1 0.500000 0.607879 0.750000
O O2 0.386839 0.627608 0.844590
O O3 0.354540 0.512072 0.759315
O O4 0.624558 0.548913 0.929895
O O5 0.653406 0.843412 0.329169
O O6 0.934744 0.817087 0.504027
O O7 0.837046 0.946868 0.448578
O O8 0.014498 0.747056 0.676964
O O9 0.876228 0.427314 0.883805
O O10 0.948342 0.323941 0.020381
O O11 0.829689 0.448014 0.008104
O O12 0.101429 0.440977 0.085858
O O13 0.250000 0.750000 0.000000
O O14 0.864393 0.452460 0.632741
O O15 0.398918 0.014782 0.772858
#
# Coordination Sequence:
#
# PCOD9266130 Si02
#       8
#     8   8   4   8   8   8   4   8
#     4  12  24  37  57  89 126 160 193 243 302 353
#     4  11  22  38  58  87 122 159 197 240 296 360
#     4  10  19  38  62  84 110 160 201 234 294 345
#     4  10  19  37  60  89 116 152 202 243 299 349
#     4  10  20  35  58  89 116 149 195 247 292 348
#     4  11  20  36  57  89 119 151 196 237 304 352
#     4  10  21  36  60  84 110 160 197 242 292 351
#     4  10  21  36  61  85 117 158 198 249 287 359
#
# _framework density 19.476279000000002
#
# number of rings (size 3 to 8) (size 9 to 14) (size 15 to 20)
#    0.000    1.429    5.714    1.714    0.000    0.000 
#    6.429    0.000    1.571    3.429    0.000    0.000 
#    0.000    0.000    0.000    0.000    0.000    0.000 
#
# Total GULP energy -155965.681541 kJ/mol
# GULP energy per Si atom -5570.202912 kJ/mol
# Density = 1.943195 g / cm^3
# Si number density = 19.476279 Si / 1000 Ang^3
#
#
#
# Elastic Constant Matrix: (Units=GPa)
#
#
# Indices 1 2 3 4 5 6 
#
# 1 82.8652 11.0046 25.2043 0.0000 -19.6037 0.0000
# 2 11.0046 50.0225 36.4475 0.0000 -10.0774 0.0000
# 3 25.2043 36.4475 131.9838 0.0000 -4.4100 0.0000
# 4 0.0000 0.0000 0.0000 14.9805 0.0000 8.9875
# 5 -19.6037 -10.0774 -4.4100 0.0000 41.7207 0.0000
# 6 0.0000 0.0000 0.0000 8.9875 0.0000 -21.4166
#
#
#
# Elastic Compliance Matrix: (Units=1/GPa)
#
#
# Indices 1 2 3 4 5 6 
#
# 1 0.014371 -0.000017 -0.002523 0.000000 0.006482 0.000000
# 2 -0.000017 0.026268 -0.007064 0.000000 0.005590 0.000000
# 3 -0.002523 -0.007064 0.009948 0.000000 -0.001840 0.000000
# 4 0.000000 0.000000 0.000000 0.053327 0.000000 0.022379
# 5 0.006482 0.005590 -0.001840 0.000000 0.028170 0.000000
# 6 0.000000 0.000000 0.000000 0.022379 0.000000 -0.037301
#
#
# Mechanical properties :
#
#
# Convention : Reuss Voigt Hill
#
# Bulk Modulus (GPa) = 31.86941 45.57602 38.72272
# Shear Modulus (GPa) = 40.17668 19.87125 30.02397
#
# Velocity S-wave (km/s) = 4.54679 3.19765 3.93054
# Velocity P-wave (km/s) = 6.63047 6.08973 6.36585
#
# Compressibility (1/GPa) = 0.03137805
#
# Stress axis : x y z
#
# Youngs Moduli (GPa) = 69.58519 38.06940 100.52606
#
# Poissons Ratio (x) = 0.00066 0.25362
# Poissons Ratio (y) = 0.00121 0.71009
# Poissons Ratio (z) = 0.17556 0.26891
#
# Static dielectric constant tensor:
#      x y z
#    x 1.869320 0.000000 -0.150880 
#    y 0.000000 1.713220 0.000000 
#    z -0.150880 0.000000 1.860210 
# 
# From -- ./inp_files/199621.got.cif
#   From: 2010.05.17/outbox.cif.g08.bks.cpg/sg15_100_cif.got.tgz:199621.got - 2010.06.03 18:47:42.
