data_PCOD9266192
_publ_section_title
;
Structure prediction by ZEFSAII (Michael W. Deem and Ramdas Pophale) SiO2 
 PCOD9266192
Probable space group: C 2/C
;
_chemical_formula_sum "Si O2"
_cell_formula_units_Z 48
_cell_length_a 13.519920
_cell_length_b 15.274049
_cell_length_c 10.647928
_cell_angle_alpha 90.000000
_cell_angle_beta 63.730599
_cell_angle_gamma 90.000000
_cell_volume 1971.749233
_symmetry_space_group_name_H-M "C 2/C"
_symmetry_group_IT_number 15
_symmetry_cell_setting 'monoclinic'
loop_
_space_group_symop_operation_xyz
x,y,z
-x,y,1/2-z
-x,-y,-z
x,-y,1/2+z
1/2+x,1/2+y,z
1/2-x,1/2+y,1/2-z
1/2-x,1/2-y,-z
1/2+x,1/2-y,1/2+z
loop_
_atom_site_type_symbol
_atom_site_label
_atom_site_fract_x
_atom_site_fract_y
_atom_site_fract_z
Si Si1 0.847347 0.327857 0.076252
Si Si2 0.901547 0.503656 0.400651
Si Si3 0.326654 0.519090 0.123322
Si Si4 0.900784 0.841650 0.402652
Si Si5 0.277205 0.137657 0.110189
Si Si6 0.291578 0.670698 0.629058
O O1 0.719827 0.332723 0.096326
O O2 0.828426 0.335681 0.235700
O O3 0.908270 0.408439 0.978423
O O4 0.900136 0.237541 0.002966
O O5 0.792056 0.514034 0.377984
O O6 0.875065 0.424718 0.509425
O O7 0.000000 0.492045 0.250000
O O8 0.302806 0.581300 0.255431
O O9 0.353663 0.417958 0.136531
O O10 0.401376 0.567846 0.979579
O O11 0.000000 0.832167 0.250000
O O12 0.321930 0.228617 0.142555
O O13 0.212950 0.162373 0.018582
#
# Coordination Sequence:
#
# PCOD9266192 Si02
#       6
#     8   8   8   8   8   8
#     4  10  19  37  61  87 121 152 195 256 302 340
#     4  10  21  36  59  92 121 154 202 248 300 360
#     4  10  20  38  62  85 119 162 199 248 299 357
#     4  10  21  37  61  91 116 155 207 247 296 353
#     4  10  20  37  59  84 122 167 193 240 307 358
#     4  10  20  37  61  84 118 163 199 240 301 360
#
# _framework density 24.343869000000002
#
# number of rings (size 3 to 8) (size 9 to 14) (size 15 to 20)
#    0.000    2.000    3.333    0.500    0.000    0.667 
#    0.000    1.667    0.000    0.000    0.000    0.000 
#    0.000    0.000    0.000    0.000    0.000    0.000 
#
# Total GULP energy -134190.570579 kJ/mol
# GULP energy per Si atom -5591.273774 kJ/mol
# Density = 2.428846 g / cm^3
# Si number density = 24.343869 Si / 1000 Ang^3
#
#
#
# Elastic Constant Matrix: (Units=GPa)
#
#
# Indices 1 2 3 4 5 6 
#
# 1 50.7191 -14.5359 7.4940 0.0000 -7.7140 0.0000
# 2 -14.5359 196.5734 57.8091 0.0000 1.1015 0.0000
# 3 7.4940 57.8091 165.0984 0.0000 -12.1687 0.0000
# 4 0.0000 0.0000 0.0000 45.7237 0.0000 24.6921
# 5 -7.7140 1.1015 -12.1687 0.0000 37.7517 0.0000
# 6 0.0000 0.0000 0.0000 24.6921 0.0000 1.0850
#
#
#
# Elastic Compliance Matrix: (Units=1/GPa)
#
#
# Indices 1 2 3 4 5 6 
#
# 1 0.021049 0.001933 -0.001351 0.000000 0.003809 0.000000
# 2 0.001933 0.005874 -0.002180 0.000000 -0.000479 0.000000
# 3 -0.001351 -0.002180 0.007033 0.000000 0.002054 0.000000
# 4 0.000000 0.000000 0.000000 -0.001937 0.000000 0.044086
# 5 0.003809 -0.000479 0.002054 0.000000 0.027943 0.000000
# 6 0.000000 0.000000 0.000000 0.044086 0.000000 -0.081636
#
#
# Mechanical properties :
#
#
# Convention : Reuss Voigt Hill
#
# Bulk Modulus (GPa) = 32.51075 57.10280 44.80677
# Shear Modulus (GPa) = -608.00742 41.02033 -283.49355
#
# Velocity S-wave (km/s) = -15.82088 4.10937 -10.80308
# Velocity P-wave (km/s) = 17.89832 6.78407 11.71166
#
# Compressibility (1/GPa) = 0.03075906
#
# Stress axis : x y z
#
# Youngs Moduli (GPa) = 47.50742 170.24817 142.18703
#
# Poissons Ratio (x) = -0.32902 0.19215
# Poissons Ratio (y) = -0.09181 0.30993
# Poissons Ratio (z) = 0.06420 0.37110
#
# Static dielectric constant tensor:
#      x y z
#    x 2.023880 0.000000 0.060640 
#    y 0.000000 1.964310 0.000000 
#    z 0.060640 0.000000 1.911890 
# 
# From -- ./inp_files/112930.got.cif
#   From: 2010.05.17/outbox.cif.g08.bks.cpg/sg15_57_cif.got.tgz:112930.got - 2010.06.03 18:47:42.
