data_PCOD9266237
_publ_section_title
;
Structure prediction by ZEFSAII (Michael W. Deem and Ramdas Pophale) SiO2 
 PCOD9266237
Probable space group: C 2/C
;
_chemical_formula_sum "Si O2"
_cell_formula_units_Z 60
_cell_length_a 30.009585
_cell_length_b 8.821041
_cell_length_c 24.091709
_cell_angle_alpha 90.000000
_cell_angle_beta 31.209918
_cell_angle_gamma 90.000000
_cell_volume 3304.638445
_symmetry_space_group_name_H-M "C 2/C"
_symmetry_group_IT_number 15
_symmetry_cell_setting 'monoclinic'
loop_
_space_group_symop_operation_xyz
x,y,z
-x,y,1/2-z
-x,-y,-z
x,-y,1/2+z
1/2+x,1/2+y,z
1/2-x,1/2+y,1/2-z
1/2-x,1/2-y,-z
1/2+x,1/2-y,1/2+z
loop_
_atom_site_type_symbol
_atom_site_label
_atom_site_fract_x
_atom_site_fract_y
_atom_site_fract_z
Si Si1 0.797209 0.347784 0.793417
Si Si2 0.274529 0.720808 0.251793
Si Si3 0.805918 0.992685 0.315343
Si Si4 0.483265 0.336552 0.647537
Si Si5 0.165748 0.082395 0.950236
Si Si6 0.436908 0.086138 0.609698
Si Si7 0.188563 0.334059 0.021028
Si Si8 0.500000 0.190458 0.750000
O O1 0.760196 0.319534 0.771163
O O2 0.721107 0.435919 0.906024
O O3 0.878462 0.459551 0.702291
O O4 0.817599 0.185131 0.796425
O O5 0.275374 0.572765 0.290505
O O6 0.211354 0.840644 0.348768
O O7 0.368376 0.801035 0.152486
O O8 0.739767 0.034768 0.434610
O O9 0.894979 0.076272 0.233147
O O10 0.565525 0.439526 0.546096
O O11 0.483809 0.190591 0.605837
O O12 0.488429 0.285518 0.705874
O O13 0.173057 0.205650 0.990947
O O14 0.500000 0.000000 0.500000
O O15 0.094414 0.386286 0.142727
O O16 0.250000 0.250000 0.000000
#
# Coordination Sequence:
#
# PCOD9266237 Si02
#       8
#     8   8   8   8   8   8   8   4
#     4  11  21  35  55  83 121 150 182 239 305 334
#     4   9  19  35  54  78 113 159 192 220 282 359
#     4  10  20  35  57  85 114 152 188 241 290 346
#     4  10  20  37  58  83 109 148 205 228 286 354
#     4   9  20  35  56  81 108 148 190 237 279 343
#     4  10  21  35  57  85 117 152 193 245 282 347
#     4  10  19  37  62  80 109 145 204 238 282 347
#     4  10  20  34  66  84 100 154 202 246 268 342
#
# _framework density 18.156298
#
# number of rings (size 3 to 8) (size 9 to 14) (size 15 to 20)
#    0.000    2.133    1.333    3.200    0.000    3.200 
#    0.000    4.000    0.000    1.600    0.000    0.000 
#    0.000    0.000    0.000    0.000    0.000    0.000 
#
# Total GULP energy -167264.825018 kJ/mol
# GULP energy per Si atom -5575.494167 kJ/mol
# Density = 1.811497 g / cm^3
# Si number density = 18.156298 Si / 1000 Ang^3
#
#
#
# Elastic Constant Matrix: (Units=GPa)
#
#
# Indices 1 2 3 4 5 6 
#
# 1 54.2768 4.0587 20.2802 0.0015 -0.0922 -0.0003
# 2 4.0587 91.4422 33.7971 -0.0035 -0.5667 -0.0006
# 3 20.2802 33.7971 127.9312 -0.0028 -14.3425 0.0006
# 4 0.0015 -0.0035 -0.0028 15.3996 0.0006 -5.4439
# 5 -0.0922 -0.5667 -14.3425 0.0006 20.3124 0.0011
# 6 -0.0003 -0.0006 0.0006 -5.4439 0.0011 9.5007
#
#
#
# Elastic Compliance Matrix: (Units=1/GPa)
#
#
# Indices 1 2 3 4 5 6 
#
# 1 0.019695 0.000402 -0.003494 -0.000002 -0.002366 0.000000
# 2 0.000402 0.012210 -0.003530 0.000003 -0.002150 0.000003
# 3 -0.003494 -0.003530 0.010089 0.000001 0.007009 -0.000001
# 4 -0.000002 0.000003 0.000001 0.081432 -0.000004 0.046660
# 5 -0.002366 -0.002150 0.007009 -0.000004 0.054110 -0.000009
# 6 0.000000 0.000003 -0.000001 0.046660 -0.000009 0.131992
#
#
# Mechanical properties :
#
#
# Convention : Reuss Voigt Hill
#
# Bulk Modulus (GPa) = 34.78204 43.32469 39.05337
# Shear Modulus (GPa) = 15.04420 23.41017 19.22718
#
# Velocity S-wave (km/s) = 2.88165 3.59467 3.25773
# Velocity P-wave (km/s) = 5.50186 6.41426 5.97550
#
# Compressibility (1/GPa) = 0.02875047
#
# Stress axis : x y z
#
# Youngs Moduli (GPa) = 50.77326 81.90329 99.11726
#
# Poissons Ratio (x) = -0.03296 0.34630
# Poissons Ratio (y) = -0.02043 0.34992
# Poissons Ratio (z) = 0.17739 0.28915
#
# Static dielectric constant tensor:
#      x y z
#    x 1.636520 0.000000 -0.012540 
#    y 0.000000 1.611630 0.000000 
#    z -0.012540 0.000000 1.663770 
# 
# From -- ./inp_files/284294.got.cif
#   From: 2010.05.17/outbox.cif.g08.bks.cpg/sg15_143_cif.got.tgz:284294.got - 2010.06.03 18:47:42.
