data_PCOD9266105
_publ_section_title
;
Structure prediction by ZEFSAII (Michael W. Deem and Ramdas Pophale) SiO2 
 PCOD9266105
Probable space group: C 2/C
;
_chemical_formula_sum "Si O2"
_cell_formula_units_Z 36
_cell_length_a 7.273687
_cell_length_b 22.674497
_cell_length_c 10.004959
_cell_angle_alpha 90.000000
_cell_angle_beta 91.377854
_cell_angle_gamma 90.000000
_cell_volume 1649.612705
_symmetry_space_group_name_H-M "C 2/C"
_symmetry_group_IT_number 15
_symmetry_cell_setting 'monoclinic'
loop_
_space_group_symop_operation_xyz
x,y,z
-x,y,1/2-z
-x,-y,-z
x,-y,1/2+z
1/2+x,1/2+y,z
1/2-x,1/2+y,1/2-z
1/2-x,1/2-y,-z
1/2+x,1/2-y,1/2+z
loop_
_atom_site_type_symbol
_atom_site_label
_atom_site_fract_x
_atom_site_fract_y
_atom_site_fract_z
Si Si1 0.596378 0.367998 0.890129
Si Si2 0.255728 0.377105 0.088520
Si Si3 0.866435 0.000041 0.124325
Si Si4 0.000000 0.803184 0.250000
Si Si5 0.466310 0.811723 0.900012
O O1 0.500000 0.349956 0.750000
O O2 0.692596 0.431964 0.865936
O O3 0.756017 0.323523 0.930232
O O4 0.436990 0.374504 0.996697
O O5 0.221968 0.446775 0.110473
O O6 0.322912 0.344405 0.224295
O O7 0.097024 0.342344 0.009490
O O8 0.000000 0.986312 0.250000
O O9 0.000000 0.000000 0.000000
O O10 0.003348 0.757287 0.373982
O O11 0.500000 0.837438 0.750000
#
# Coordination Sequence:
#
# PCOD9266105 Si02
#       5
#     8   8   8   4   8
#     4  10  19  37  60  86 115 152 196 241 293 348
#     4  11  20  39  61  82 120 153 195 247 293 347
#     4   9  19  34  62  89 114 158 197 241 304 354
#     4  10  22  38  58  86 122 160 190 242 302 342
#     4  10  22  36  56  87 112 155 201 234 287 358
#
# _framework density 21.823305999999999
#
# number of rings (size 3 to 8) (size 9 to 14) (size 15 to 20)
#    0.667    1.333    3.333    0.667    0.000    1.778 
#    0.000    3.333    0.000    0.000    0.000    0.000 
#    0.000    0.000    0.000    0.000    0.000    0.000 
#
# Total GULP energy -100383.846790 kJ/mol
# GULP energy per Si atom -5576.880377 kJ/mol
# Density = 2.177364 g / cm^3
# Si number density = 21.823306 Si / 1000 Ang^3
#
#
#
# Elastic Constant Matrix: (Units=GPa)
#
#
# Indices 1 2 3 4 5 6 
#
# 1 45.6354 21.1441 3.2090 0.0000 5.8318 0.0000
# 2 21.1441 110.8562 3.9665 0.0000 25.9481 0.0000
# 3 3.2090 3.9665 85.8206 0.0000 17.7538 0.0000
# 4 0.0000 0.0000 0.0000 20.0909 0.0000 0.1538
# 5 5.8318 25.9481 17.7538 0.0000 29.7248 0.0000
# 6 0.0000 0.0000 0.0000 0.1538 0.0000 3.5576
#
#
#
# Elastic Compliance Matrix: (Units=1/GPa)
#
#
# Indices 1 2 3 4 5 6 
#
# 1 0.024082 -0.004461 -0.000596 0.000000 -0.000475 0.000000
# 2 -0.004461 0.012395 0.001884 0.000000 -0.011071 0.000000
# 3 -0.000596 0.001884 0.013582 0.000000 -0.009640 0.000000
# 4 0.000000 0.000000 0.000000 0.049790 0.000000 -0.002152
# 5 -0.000475 -0.011071 -0.009640 0.000000 0.049157 0.000000
# 6 0.000000 0.000000 0.000000 -0.002152 0.000000 0.281184
#
#
# Mechanical properties :
#
#
# Convention : Reuss Voigt Hill
#
# Bulk Modulus (GPa) = 22.87626 33.21683 28.04654
# Shear Modulus (GPa) = 11.08383 24.94081 18.01232
#
# Velocity S-wave (km/s) = 2.25609 3.38428 2.87604
# Velocity P-wave (km/s) = 4.15834 5.52494 4.88962
#
# Compressibility (1/GPa) = 0.04371344
#
# Stress axis : x y z
#
# Youngs Moduli (GPa) = 41.52437 80.67490 73.62911
#
# Poissons Ratio (x) = 0.35988 0.04389
# Poissons Ratio (y) = 0.18524 -0.13872
# Poissons Ratio (z) = 0.02475 -0.15200
#
# Static dielectric constant tensor:
#      x y z
#    x 1.731330 0.000000 -0.028500 
#    y 0.000000 1.869130 0.000000 
#    z -0.028500 0.000000 1.829680 
# 
# From -- ./inp_files/72922.got.cif
#   From: 2010.05.17/outbox.cif.g08.bks.cpg/sg15_37_cif.got.tgz:72922.got - 2010.06.03 18:47:42.
