data_PCOD9266064
_publ_section_title
;
Structure prediction by ZEFSAII (Michael W. Deem and Ramdas Pophale) SiO2 
 PCOD9266064
Probable space group: C 2/C
;
_chemical_formula_sum "Si O2"
_cell_formula_units_Z 40
_cell_length_a 19.320514
_cell_length_b 11.789951
_cell_length_c 22.583023
_cell_angle_alpha 90.000000
_cell_angle_beta 17.437678
_cell_angle_gamma 90.000000
_cell_volume 1541.535291
_symmetry_space_group_name_H-M "C 2/C"
_symmetry_group_IT_number 15
_symmetry_cell_setting 'monoclinic'
loop_
_space_group_symop_operation_xyz
x,y,z
-x,y,1/2-z
-x,-y,-z
x,-y,1/2+z
1/2+x,1/2+y,z
1/2-x,1/2+y,1/2-z
1/2-x,1/2-y,-z
1/2+x,1/2-y,1/2+z
loop_
_atom_site_type_symbol
_atom_site_label
_atom_site_fract_x
_atom_site_fract_y
_atom_site_fract_z
Si Si1 0.513400 0.529840 0.637175
Si Si2 0.470349 0.149989 0.916284
Si Si3 0.057065 0.603535 0.076440
Si Si4 0.756551 0.366561 0.711027
Si Si5 0.500000 0.653064 0.250000
Si Si6 0.500000 0.851547 0.750000
O O1 0.426537 0.468073 0.648201
O O2 0.551739 0.427862 0.652386
O O3 0.753966 0.590674 0.435027
O O4 0.303711 0.598218 0.840556
O O5 0.494981 0.029006 0.863984
O O6 0.659232 0.245818 0.768438
O O7 0.436043 0.107939 0.011925
O O8 0.240940 0.207743 0.074188
O O9 0.063433 0.680097 0.129485
O O10 0.866398 0.642219 0.185212
#
# Coordination Sequence:
#
# PCOD9266064 Si02
#       6
#     8   8   8   8   4   4
#     4  10  19  37  59  94 128 161 195 267 317 380
#     4  10  20  38  61  91 133 167 199 262 317 382
#     4  10  22  43  59  96 131 166 209 258 323 371
#     4  10  23  38  61  91 134 170 202 257 322 377
#     4   8  16  35  54  88 139 150 192 251 336 358
#     4  12  20  35  72  90 121 162 222 261 310 380
#
# _framework density 25.948159
#
# number of rings (size 3 to 8) (size 9 to 14) (size 15 to 20)
#    0.000    2.400    4.000    2.400    2.800    4.800 
#    3.600    0.000    0.000    1.200    0.000    0.000 
#    0.000    0.000    0.000    0.000    0.000    0.000 
#
# Total GULP energy -111562.830583 kJ/mol
# GULP energy per Si atom -5578.141529 kJ/mol
# Density = 2.588910 g / cm^3
# Si number density = 25.948159 Si / 1000 Ang^3
#
#
#
# Elastic Constant Matrix: (Units=GPa)
#
#
# Indices 1 2 3 4 5 6 
#
# 1 214.0835 35.7407 39.0576 0.0190 -24.4076 0.0000
# 2 35.7407 105.3809 53.4833 0.0138 -13.2428 0.0125
# 3 39.0576 53.4833 89.4052 0.0502 -16.8540 0.0238
# 4 0.0190 0.0138 0.0502 37.1064 -0.0115 -12.0571
# 5 -24.4076 -13.2428 -16.8540 -0.0115 35.1421 -0.0071
# 6 0.0000 0.0125 0.0238 -12.0571 -0.0071 25.8365
#
#
#
# Elastic Compliance Matrix: (Units=1/GPa)
#
#
# Indices 1 2 3 4 5 6 
#
# 1 0.005366 -0.000785 -0.001350 0.000001 0.002784 0.000003
# 2 -0.000785 0.013800 -0.007734 0.000007 0.000946 0.000004
# 3 -0.001350 -0.007734 0.017233 -0.000026 0.004413 -0.000023
# 4 0.000001 0.000007 -0.000026 0.031767 0.000005 0.014825
# 5 0.002784 0.000946 0.004413 0.000005 0.032862 0.000007
# 6 0.000003 0.000004 -0.000023 0.014825 0.000007 0.045623
#
#
# Mechanical properties :
#
#
# Convention : Reuss Voigt Hill
#
# Bulk Modulus (GPa) = 60.01955 73.93698 66.97826
# Shear Modulus (GPa) = 29.07970 38.32285 33.70128
#
# Velocity S-wave (km/s) = 3.35129 3.84722 3.60779
# Velocity P-wave (km/s) = 6.17703 6.94915 6.57444
#
# Compressibility (1/GPa) = 0.01666124
#
# Stress axis : x y z
#
# Youngs Moduli (GPa) = 186.36792 72.46595 58.02788
#
# Poissons Ratio (x) = 0.05689 0.07832
# Poissons Ratio (y) = 0.14630 0.44878
# Poissons Ratio (z) = 0.25155 0.56044
#
# Static dielectric constant tensor:
#      x y z
#    x 2.029440 -0.000010 0.013450 
#    y -0.000010 2.098360 0.000030 
#    z 0.013450 0.000030 2.152940 
# 
# From -- ./inp_files/249198.got.cif
#   From: 2010.05.17/outbox.cif.g08.bks.cpg/sg15_125_cif.got.tgz:249198.got - 2010.06.03 18:47:42.
