data_PCOD9266859
_publ_section_title
;
Structure prediction by ZEFSAII (Michael W. Deem and Ramdas Pophale) SiO2 
 PCOD9266859
Probable space group: C 2/C
;
_chemical_formula_sum "Si O2"
_cell_formula_units_Z 56
_cell_length_a 11.485480
_cell_length_b 20.046273
_cell_length_c 17.976251
_cell_angle_alpha 90.000000
_cell_angle_beta 136.434614
_cell_angle_gamma 90.000000
_cell_volume 2852.435237
_symmetry_space_group_name_H-M "C 2/C"
_symmetry_group_IT_number 15
_symmetry_cell_setting 'monoclinic'
loop_
_space_group_symop_operation_xyz
x,y,z
-x,y,1/2-z
-x,-y,-z
x,-y,1/2+z
1/2+x,1/2+y,z
1/2-x,1/2+y,1/2-z
1/2-x,1/2-y,-z
1/2+x,1/2-y,1/2+z
loop_
_atom_site_type_symbol
_atom_site_label
_atom_site_fract_x
_atom_site_fract_y
_atom_site_fract_z
Si Si1 0.751893 0.016267 0.815668
Si Si2 0.905883 0.642035 0.839683
Si Si3 0.500000 0.756218 0.250000
Si Si4 0.182863 0.797063 0.363796
Si Si5 0.548617 0.421915 0.967246
Si Si6 0.000000 0.591236 0.250000
Si Si7 0.808850 0.841625 0.969343
Si Si8 0.735643 0.320738 0.950374
O O1 0.669495 0.074622 0.729656
O O2 0.620473 0.956417 0.758415
O O3 0.790756 0.046412 0.915932
O O4 0.930989 0.980705 0.879786
O O5 0.941233 0.694867 0.789297
O O6 0.770604 0.666519 0.836349
O O7 0.086334 0.641511 0.965450
O O8 0.344618 0.706162 0.162350
O O9 0.161308 0.840969 0.428591
O O10 0.303618 0.735274 0.441368
O O11 0.000000 0.774279 0.250000
O O12 0.442970 0.383664 0.983247
O O13 0.606079 0.368279 0.933872
O O14 0.124273 0.631565 0.361247
O O15 0.750000 0.250000 0.000000
#
# Coordination Sequence:
#
# PCOD9266859 Si02
#       8
#     8   8   4   8   8   4   8   8
#     4  10  20  35  62  86 117 163 201 249 285 361
#     4  11  22  38  61  93 121 159 204 247 303 368
#     4  10  21  36  64  90 125 158 196 258 312 356
#     4  11  23  38  59  90 126 157 194 251 313 357
#     4  10  20  37  62  88 118 156 208 245 300 358
#     4  10  19  38  62  88 117 154 212 240 294 360
#     4  10  21  38  60  90 118 157 199 250 301 360
#     4  10  20  36  59  92 120 152 199 257 308 354
#
# _framework density 19.632346999999999
#
# number of rings (size 3 to 8) (size 9 to 14) (size 15 to 20)
#    0.000    1.714    0.714    5.571    0.000    2.286 
#    5.143    0.714   11.000    0.000    0.000    0.000 
#    0.000    0.000    0.000    0.000    0.000    0.000 
#
# Total GULP energy -156141.529279 kJ/mol
# GULP energy per Si atom -5576.483189 kJ/mol
# Density = 1.958766 g / cm^3
# Si number density = 19.632347 Si / 1000 Ang^3
#
#
#
# Elastic Constant Matrix: (Units=GPa)
#
#
# Indices 1 2 3 4 5 6 
#
# 1 56.6299 20.2626 12.7001 0.0000 -2.5921 0.0000
# 2 20.2626 91.1008 27.3553 0.0000 -2.3688 0.0000
# 3 12.7001 27.3553 76.0975 0.0001 3.0437 0.0000
# 4 0.0000 0.0000 0.0001 33.3323 0.0000 3.0185
# 5 -2.5921 -2.3688 3.0437 0.0000 20.4326 0.0000
# 6 0.0000 0.0000 0.0000 3.0185 0.0000 18.7066
#
#
#
# Elastic Compliance Matrix: (Units=1/GPa)
#
#
# Indices 1 2 3 4 5 6 
#
# 1 0.019537 -0.003673 -0.002034 0.000000 0.002356 0.000000
# 2 -0.003673 0.013086 -0.004158 0.000000 0.001670 0.000000
# 3 -0.002034 -0.004158 0.015095 0.000000 -0.002989 0.000000
# 4 0.000000 0.000000 0.000000 0.030446 0.000000 -0.004913
# 5 0.002356 0.001670 -0.002989 0.000000 0.049879 0.000000
# 6 0.000000 0.000000 0.000000 -0.004913 0.000000 0.054250
#
#
# Mechanical properties :
#
#
# Convention : Reuss Voigt Hill
#
# Bulk Modulus (GPa) = 35.73142 38.27382 37.00262
# Shear Modulus (GPa) = 23.65724 25.39498 24.52611
#
# Velocity S-wave (km/s) = 3.47510 3.60047 3.53834
# Velocity P-wave (km/s) = 5.86016 6.06812 5.96505
#
# Compressibility (1/GPa) = 0.02798658
#
# Stress axis : x y z
#
# Youngs Moduli (GPa) = 51.18514 76.41876 66.24833
#
# Poissons Ratio (x) = 0.28071 0.13477
# Poissons Ratio (y) = 0.18802 0.27545
# Poissons Ratio (z) = 0.10413 0.31773
#
# Static dielectric constant tensor:
#      x y z
#    x 15.174800 -0.000010 2.175170 
#    y -0.000010 1.691290 0.000000 
#    z 2.175170 0.000000 2.099490 
# 
# From -- ./inp_files/240321.got.cif
#   From: 2010.05.17/outbox.cif.g08.bks.cpg/sg15_121_cif.got.tgz:240321.got - 2010.06.03 18:47:42.
