data_PCOD9266878
_publ_section_title
;
Structure prediction by ZEFSAII (Michael W. Deem and Ramdas Pophale) SiO2 
 PCOD9266878
Probable space group: C 2/C
;
_chemical_formula_sum "Si O2"
_cell_formula_units_Z 60
_cell_length_a 20.747444
_cell_length_b 8.830391
_cell_length_c 17.641079
_cell_angle_alpha 90.000000
_cell_angle_beta 110.282177
_cell_angle_gamma 90.000000
_cell_volume 3031.594019
_symmetry_space_group_name_H-M "C 2/C"
_symmetry_group_IT_number 15
_symmetry_cell_setting 'monoclinic'
loop_
_space_group_symop_operation_xyz
x,y,z
-x,y,1/2-z
-x,-y,-z
x,-y,1/2+z
1/2+x,1/2+y,z
1/2-x,1/2+y,1/2-z
1/2-x,1/2-y,-z
1/2+x,1/2-y,1/2+z
loop_
_atom_site_type_symbol
_atom_site_label
_atom_site_fract_x
_atom_site_fract_y
_atom_site_fract_z
Si Si1 0.640786 0.094173 0.854745
Si Si2 0.177192 0.267463 0.929817
Si Si3 0.500000 0.206858 0.750000
Si Si4 0.175523 0.227403 0.508676
Si Si5 0.243853 0.289621 0.684126
Si Si6 0.460400 0.547735 0.359831
Si Si7 0.831258 0.907359 0.225980
Si Si8 0.406428 0.582291 0.502788
O O1 0.567463 0.104518 0.785278
O O2 0.698550 0.175137 0.826543
O O3 0.666778 0.929361 0.887666
O O4 0.629805 0.186875 0.928759
O O5 0.166276 0.141953 0.860265
O O6 0.122937 0.233825 0.973247
O O7 0.250000 0.250000 0.000000
O O8 0.514126 0.319090 0.684811
O O9 0.250000 0.250000 0.500000
O O10 0.185998 0.301350 0.594981
O O11 0.147937 0.056921 0.508615
O O12 0.206785 0.222754 0.742090
O O13 0.284120 0.443972 0.714254
O O14 0.406162 0.446508 0.290262
O O15 0.421276 0.600818 0.420044
O O16 0.525814 0.461559 0.421911
#
# Coordination Sequence:
#
# PCOD9266878 Si02
#       8
#     8   8   4   8   8   8   8   8
#     4  11  23  39  64  95 131 176 217 271 334 395
#     4  12  26  43  65  98 136 173 216 277 335 395
#     4  12  22  42  68  98 134 178 218 276 336 390
#     4  10  19  38  62  90 124 170 217 265 321 394
#     4  11  22  39  63  97 131 170 226 273 332 389
#     4  11  24  43  71  95 131 177 229 273 327 403
#     4  12  24  41  67  99 132 177 219 282 331 396
#     4  11  23  44  68  96 128 180 227 267 333 403
#
# _framework density 19.791567000000001
#
# number of rings (size 3 to 8) (size 9 to 14) (size 15 to 20)
#    0.000    0.800    4.000    5.600    1.867    1.067 
#    0.000    0.667    0.000    0.000    0.000    0.000 
#    0.000    0.000    0.000    0.000    0.000    0.000 
#
# Total GULP energy -167583.216478 kJ/mol
# GULP energy per Si atom -5586.107216 kJ/mol
# Density = 1.974652 g / cm^3
# Si number density = 19.791567 Si / 1000 Ang^3
#
#
#
# Elastic Constant Matrix: (Units=GPa)
#
#
# Indices 1 2 3 4 5 6 
#
# 1 62.6459 7.7310 36.9239 0.0000 -6.8041 0.0000
# 2 7.7310 53.0333 9.5245 0.0000 -7.8236 0.0000
# 3 36.9239 9.5245 111.0794 0.0000 5.7711 0.0000
# 4 0.0000 0.0000 0.0000 21.9074 0.0000 0.8362
# 5 -6.8041 -7.8236 5.7711 0.0000 36.4891 0.0000
# 6 0.0000 0.0000 0.0000 0.8362 0.0000 28.8943
#
#
#
# Elastic Compliance Matrix: (Units=1/GPa)
#
#
# Indices 1 2 3 4 5 6 
#
# 1 0.020773 -0.001057 -0.007062 0.000000 0.004764 0.000000
# 2 -0.001057 0.019933 -0.001583 0.000000 0.004327 0.000000
# 3 -0.007062 -0.001583 0.011668 0.000000 -0.003501 0.000000
# 4 0.000000 0.000000 0.000000 0.045697 0.000000 -0.001323
# 5 0.004764 0.004327 -0.003501 0.000000 0.029775 0.000000
# 6 0.000000 0.000000 0.000000 -0.001323 0.000000 0.034647
#
#
# Mechanical properties :
#
#
# Convention : Reuss Voigt Hill
#
# Bulk Modulus (GPa) = 30.33061 37.23528 33.78294
# Shear Modulus (GPa) = 25.92200 28.96344 27.44272
#
# Velocity S-wave (km/s) = 3.62297 3.82962 3.72773
# Velocity P-wave (km/s) = 5.73232 6.19752 5.96945
#
# Compressibility (1/GPa) = 0.03297000
#
# Stress axis : x y z
#
# Youngs Moduli (GPa) = 48.13938 50.16879 85.70695
#
# Poissons Ratio (x) = 0.05304 0.60526
# Poissons Ratio (y) = 0.05089 0.13563
# Poissons Ratio (z) = 0.33996 0.07939
#
# Static dielectric constant tensor:
#      x y z
#    x 1.711030 0.000000 0.017660 
#    y 0.000000 1.685160 0.000000 
#    z 0.017660 0.000000 1.732690 
# 
# From -- ./inp_files/213966.got.cif
#   From: 2010.05.17/outbox.cif.g08.bks.cpg/sg15_107_cif.got.tgz:213966.got - 2010.06.03 18:47:42.
