data_PCOD9266349
_publ_section_title
;
Structure prediction by ZEFSAII (Michael W. Deem and Ramdas Pophale) SiO2 
 PCOD9266349
Probable space group: C 2/C
;
_chemical_formula_sum "Si O2"
_cell_formula_units_Z 52
_cell_length_a 7.917681
_cell_length_b 16.448415
_cell_length_c 29.033708
_cell_angle_alpha 90.000000
_cell_angle_beta 138.636404
_cell_angle_gamma 90.000000
_cell_volume 2498.720527
_symmetry_space_group_name_H-M "C 2/C"
_symmetry_group_IT_number 15
_symmetry_cell_setting 'monoclinic'
loop_
_space_group_symop_operation_xyz
x,y,z
-x,y,1/2-z
-x,-y,-z
x,-y,1/2+z
1/2+x,1/2+y,z
1/2-x,1/2+y,1/2-z
1/2-x,1/2-y,-z
1/2+x,1/2-y,1/2+z
loop_
_atom_site_type_symbol
_atom_site_label
_atom_site_fract_x
_atom_site_fract_y
_atom_site_fract_z
Si Si1 0.530905 0.717279 0.567884
Si Si2 0.142744 0.915552 0.529153
Si Si3 0.000000 0.283246 0.750000
Si Si4 0.354856 0.299300 0.304094
Si Si5 0.500000 0.353322 0.750000
Si Si6 0.500000 0.059987 0.750000
Si Si7 0.706003 0.105866 0.104531
Si Si8 0.342977 0.580319 0.361191
O O1 0.250000 0.750000 0.500000
O O2 0.552031 0.645845 0.535860
O O3 0.545978 0.688873 0.623841
O O4 0.706847 0.795957 0.598092
O O5 0.413619 0.917389 0.556941
O O6 0.190585 0.894513 0.592500
O O7 0.000000 0.000000 0.500000
O O8 0.038655 0.220503 0.800198
O O9 0.771364 0.347948 0.694152
O O10 0.209211 0.211897 0.275534
O O11 0.172455 0.375804 0.256710
O O12 0.626509 0.407390 0.815241
O O13 0.320572 0.000635 0.683375
O O14 0.862362 0.067932 0.094171
#
# Coordination Sequence:
#
# PCOD9266349 Si02
#       8
#     8   8   4   8   4   4   8   8
#     4   9  19  38  64  89 123 168 209 260 323 377
#     4  11  24  42  63  91 135 174 212 263 328 387
#     4  11  20  37  65 103 120 156 228 271 312 389
#     4  10  19  37  63  89 131 162 203 271 327 381
#     4   9  16  35  61  90 121 158 204 267 326 365
#     4  10  24  40  58  91 139 168 202 268 348 376
#     4  10  21  38  65  93 123 169 214 268 319 380
#     4  11  23  41  64  95 124 172 220 266 313 395
#
# _framework density 20.810649999999999
#
# number of rings (size 3 to 8) (size 9 to 14) (size 15 to 20)
#    0.000    1.846    1.538    3.692    2.154    1.231 
#    2.769    0.000    0.000    0.000    0.000    0.000 
#    0.000    0.000    0.000    0.000    0.000    0.000 
#
# Total GULP energy -144808.585567 kJ/mol
# GULP energy per Si atom -5569.560983 kJ/mol
# Density = 2.076328 g / cm^3
# Si number density = 20.810650 Si / 1000 Ang^3
#
#
#
# Elastic Constant Matrix: (Units=GPa)
#
#
# Indices 1 2 3 4 5 6 
#
# 1 80.7109 39.5090 36.8783 0.0000 3.3056 0.0000
# 2 39.5090 91.2791 22.2495 -0.0001 -9.3266 0.0000
# 3 36.8783 22.2495 75.6546 -0.0002 -7.6144 0.0000
# 4 0.0000 -0.0001 -0.0002 26.3192 -0.0001 2.4310
# 5 3.3056 -9.3266 -7.6144 -0.0001 26.6562 0.0000
# 6 0.0000 0.0000 0.0000 2.4310 0.0000 18.6794
#
#
#
# Elastic Compliance Matrix: (Units=1/GPa)
#
#
# Indices 1 2 3 4 5 6 
#
# 1 0.020188 -0.007457 -0.008404 0.000000 -0.007513 0.000000
# 2 -0.007457 0.014833 -0.000115 0.000000 0.006082 0.000000
# 3 -0.008404 -0.000115 0.017966 0.000000 0.006134 0.000000
# 4 0.000000 0.000000 0.000000 0.038457 0.000000 -0.005005
# 5 -0.007513 0.006082 0.006134 0.000000 0.042326 0.000000
# 6 0.000000 0.000000 0.000000 -0.005005 0.000000 0.054186
#
#
# Mechanical properties :
#
#
# Convention : Reuss Voigt Hill
#
# Bulk Modulus (GPa) = 47.54194 49.43536 48.48865
# Shear Modulus (GPa) = 22.03422 24.26479 23.14950
#
# Velocity S-wave (km/s) = 3.25744 3.41835 3.33887
# Velocity P-wave (km/s) = 6.08626 6.27587 6.18179
#
# Compressibility (1/GPa) = 0.02103406
#
# Stress axis : x y z
#
# Youngs Moduli (GPa) = 49.53465 67.41879 55.66204
#
# Poissons Ratio (x) = 0.50276 0.46777
# Poissons Ratio (y) = 0.36940 0.00640
# Poissons Ratio (z) = 0.41628 0.00775
#
# Static dielectric constant tensor:
#      x y z
#    x 1.888710 0.000000 0.019320 
#    y 0.000000 1.745120 0.000000 
#    z 0.019320 0.000000 1.753590 
# 
# From -- ./inp_files/308348.got.cif
#   From: 2010.05.17/outbox.cif.g08.bks.cpg/sg15_155_cif.got.tgz:308348.got - 2010.06.03 18:47:42.
