data_PCOD9266672
_publ_section_title
;
Structure prediction by ZEFSAII (Michael W. Deem and Ramdas Pophale) SiO2 
 PCOD9266672
Probable space group: C 2/C
;
_chemical_formula_sum "Si O2"
_cell_formula_units_Z 56
_cell_length_a 29.169031
_cell_length_b 17.067607
_cell_length_c 5.276398
_cell_angle_alpha 90.000000
_cell_angle_beta 87.649195
_cell_angle_gamma 90.000000
_cell_volume 2624.620608
_symmetry_space_group_name_H-M "C 2/C"
_symmetry_group_IT_number 15
_symmetry_cell_setting 'monoclinic'
loop_
_space_group_symop_operation_xyz
x,y,z
-x,y,1/2-z
-x,-y,-z
x,-y,1/2+z
1/2+x,1/2+y,z
1/2-x,1/2+y,1/2-z
1/2-x,1/2-y,-z
1/2+x,1/2-y,1/2+z
loop_
_atom_site_type_symbol
_atom_site_label
_atom_site_fract_x
_atom_site_fract_y
_atom_site_fract_z
Si Si1 0.318850 0.353149 0.433550
Si Si2 0.569166 0.835263 0.078487
Si Si3 0.907425 0.210999 0.023589
Si Si4 0.802421 0.237047 0.435464
Si Si5 0.500000 0.742560 0.750000
Si Si6 0.354214 0.851506 0.750211
Si Si7 0.724945 0.949773 0.480567
Si Si8 0.500000 0.948509 0.250000
O O1 0.372671 0.362830 0.502155
O O2 0.317720 0.328917 0.137543
O O3 0.276111 0.411653 0.487274
O O4 0.307182 0.285255 0.642308
O O5 0.589941 0.757083 0.209223
O O6 0.544522 0.893118 0.274850
O O7 0.528177 0.798692 0.926943
O O8 0.603338 0.889871 0.906309
O O9 0.881962 0.278367 0.864496
O O10 0.959117 0.197574 0.909923
O O11 0.750000 0.250000 0.500000
O O12 0.825295 0.316332 0.524419
O O13 0.318300 0.893567 0.941177
O O14 0.721473 0.984973 0.201169
O O15 0.500000 0.000000 0.500000
#
# Coordination Sequence:
#
# PCOD9266672 Si02
#       8
#     8   8   8   8   4   8   8   4
#     4  11  23  39  63  94 120 157 209 251 327 374
#     4  11  21  39  61  84 122 155 208 262 307 354
#     4  10  21  36  66  91 119 154 196 276 320 361
#     4  11  20  35  64  92 116 149 194 269 313 360
#     4  10  19  38  58  98 122 149 184 264 336 356
#     4  10  24  36  61  89 120 157 211 255 312 349
#     4  12  28  44  60  85 131 178 209 252 296 376
#     4  12  27  40  56  76 112 171 206 236 286 360
#
# _framework density 21.336417999999998
#
# number of rings (size 3 to 8) (size 9 to 14) (size 15 to 20)
#    0.000    1.143    4.286    1.714    6.000    1.143 
#    0.000    0.000    0.000    0.000    0.000    1.000 
#    0.000    0.000    0.000    0.000    0.000    0.000 
#
# Total GULP energy -155892.498011 kJ/mol
# GULP energy per Si atom -5567.589215 kJ/mol
# Density = 2.128786 g / cm^3
# Si number density = 21.336418 Si / 1000 Ang^3
#
#
#
# Elastic Constant Matrix: (Units=GPa)
#
#
# Indices 1 2 3 4 5 6 
#
# 1 147.7462 7.7016 11.0302 0.0000 -23.5694 0.0000
# 2 7.7016 9.7578 0.1189 0.0000 -4.8583 0.0000
# 3 11.0302 0.1189 63.7676 0.0000 -4.1261 0.0000
# 4 0.0000 0.0000 0.0000 23.1135 0.0000 1.0844
# 5 -23.5694 -4.8583 -4.1261 0.0000 51.8546 0.0000
# 6 0.0000 0.0000 0.0000 1.0844 0.0000 16.0204
#
#
#
# Elastic Compliance Matrix: (Units=1/GPa)
#
#
# Indices 1 2 3 4 5 6 
#
# 1 0.007552 -0.004491 -0.001109 0.000000 0.002923 0.000000
# 2 -0.004491 0.110181 0.001113 0.000000 0.008370 0.000000
# 3 -0.001109 0.001113 0.015928 0.000000 0.000868 0.000000
# 4 0.000000 0.000000 0.000000 0.043403 0.000000 -0.002938
# 5 0.002923 0.008370 0.000868 0.000000 0.021467 0.000000
# 6 0.000000 0.000000 0.000000 -0.002938 0.000000 0.062619
#
#
# Mechanical properties :
#
#
# Convention : Reuss Voigt Hill
#
# Bulk Modulus (GPa) = 8.02011 28.77477 18.39744
# Shear Modulus (GPa) = 16.04183 31.69240 23.86712
#
# Velocity S-wave (km/s) = 2.74497 3.85823 3.34819
# Velocity P-wave (km/s) = 3.71665 5.77610 4.85679
#
# Compressibility (1/GPa) = 0.12468654
#
# Stress axis : x y z
#
# Youngs Moduli (GPa) = 132.42194 9.07598 62.78328
#
# Poissons Ratio (x) = 0.04076 0.06961
# Poissons Ratio (y) = 0.59474 -0.06988
# Poissons Ratio (z) = 0.14682 -0.01010
#
# Static dielectric constant tensor:
#      x y z
#    x 1.651510 0.000000 -0.107070 
#    y 0.000000 1.799670 0.000000 
#    z -0.107070 0.000000 2.106000 
# 
# From -- ./inp_files/15701.got.cif
#   From: 2010.05.17/outbox.cif.g08.bks.cpg/sg15_8_cif.got.tgz:15701.got - 2010.06.03 18:47:42.
