data_PCOD9266094
_publ_section_title
;
Structure prediction by ZEFSAII (Michael W. Deem and Ramdas Pophale) SiO2 
 PCOD9266094
Probable space group: C 2/C
;
_chemical_formula_sum "Si O2"
_cell_formula_units_Z 48
_cell_length_a 9.730412
_cell_length_b 14.886964
_cell_length_c 18.171265
_cell_angle_alpha 90.000000
_cell_angle_beta 70.131055
_cell_angle_gamma 90.000000
_cell_volume 2475.532433
_symmetry_space_group_name_H-M "C 2/C"
_symmetry_group_IT_number 15
_symmetry_cell_setting 'monoclinic'
loop_
_space_group_symop_operation_xyz
x,y,z
-x,y,1/2-z
-x,-y,-z
x,-y,1/2+z
1/2+x,1/2+y,z
1/2-x,1/2+y,1/2-z
1/2-x,1/2-y,-z
1/2+x,1/2-y,1/2+z
loop_
_atom_site_type_symbol
_atom_site_label
_atom_site_fract_x
_atom_site_fract_y
_atom_site_fract_z
Si Si1 0.069697 0.619405 0.154883
Si Si2 0.802439 0.960770 0.095566
Si Si3 0.237903 0.404049 0.815284
Si Si4 0.933739 0.902218 0.923537
Si Si5 0.660950 0.904719 0.256347
Si Si6 0.325546 0.723039 0.162638
O O1 0.166996 0.531861 0.118212
O O2 0.185029 0.700102 0.138256
O O3 0.000000 0.612257 0.250000
O O4 0.924727 0.629880 0.133275
O O5 0.767516 0.892299 0.167371
O O6 0.831892 0.913954 0.012939
O O7 0.944169 0.019381 0.091707
O O8 0.343366 0.409454 0.865200
O O9 0.209224 0.502555 0.785874
O O10 0.304321 0.339961 0.739547
O O11 0.028280 0.811218 0.903205
O O12 0.500000 0.908213 0.250000
O O13 0.668357 0.824084 0.311938
#
# Coordination Sequence:
#
# PCOD9266094 Si02
#       6
#     8   8   8   8   8   8
#     4   9  16  37  58  80 114 148 192 238 285 336
#     4  10  19  37  60  84 117 155 191 238 301 339
#     4  11  19  38  59  87 111 154 201 238 288 345
#     4  10  21  36  60  87 119 148 190 250 295 341
#     4  12  20  37  64  85 115 158 202 235 285 353
#     4  10  21  37  59  85 114 153 194 241 284 347
#
# _framework density 19.389769000000001
#
# number of rings (size 3 to 8) (size 9 to 14) (size 15 to 20)
#    0.000    1.667    6.667    1.500    0.000    0.667 
#    9.000    3.333    3.667    3.000    0.000    0.000 
#    0.000    0.000    0.000    0.000    0.000    0.000 
#
# Total GULP energy -133886.791177 kJ/mol
# GULP energy per Si atom -5578.616299 kJ/mol
# Density = 1.934564 g / cm^3
# Si number density = 19.389769 Si / 1000 Ang^3
#
#
#
# Elastic Constant Matrix: (Units=GPa)
#
#
# Indices 1 2 3 4 5 6 
#
# 1 76.1615 -13.5753 6.6449 0.0000 -5.3651 0.0000
# 2 -13.5753 48.3123 -16.2914 0.0000 -1.6822 0.0000
# 3 6.6449 -16.2914 42.2199 0.0000 -12.9554 0.0000
# 4 0.0000 0.0000 0.0000 20.4519 0.0000 4.2200
# 5 -5.3651 -1.6822 -12.9554 0.0000 22.6176 0.0000
# 6 0.0000 0.0000 0.0000 4.2200 0.0000 4.4647
#
#
#
# Elastic Compliance Matrix: (Units=1/GPa)
#
#
# Indices 1 2 3 4 5 6 
#
# 1 0.014131 0.004351 0.000707 0.000000 0.004081 0.000000
# 2 0.004351 0.026572 0.012729 0.000000 0.010300 0.000000
# 3 0.000707 0.012729 0.034976 0.000000 0.021149 0.000000
# 4 0.000000 0.000000 0.000000 0.060741 0.000000 -0.057411
# 5 0.004081 0.010300 0.021149 0.000000 0.058061 0.000000
# 6 0.000000 0.000000 0.000000 -0.057411 0.000000 0.278242
#
#
# Mechanical properties :
#
#
# Convention : Reuss Voigt Hill
#
# Bulk Modulus (GPa) = 8.98839 13.36113 11.17476
# Shear Modulus (GPa) = 10.54333 22.16787 16.35560
#
# Velocity S-wave (km/s) = 2.33439 3.38491 2.90749
# Velocity P-wave (km/s) = 3.45131 4.70984 4.12881
#
# Compressibility (1/GPa) = 0.11125460
#
# Stress axis : x y z
#
# Youngs Moduli (GPa) = 70.76464 37.63305 28.59139
#
# Poissons Ratio (x) = -0.16375 -0.02022
# Poissons Ratio (y) = -0.30792 -0.36395
# Poissons Ratio (z) = -0.05004 -0.47904
#
# Static dielectric constant tensor:
#      x y z
#    x 1.714940 0.000000 -0.019430 
#    y 0.000000 1.682330 0.000000 
#    z -0.019430 0.000000 1.688000 
# 
# From -- ./inp_files/231075.got.cif
#   From: 2010.05.17/outbox.cif.g08.bks.cpg/sg15_116_cif.got.tgz:231075.got - 2010.06.03 18:47:42.
