data_PCOD9266367
_publ_section_title
;
Structure prediction by ZEFSAII (Michael W. Deem and Ramdas Pophale) SiO2 
 PCOD9266367
Probable space group: C 2/C
;
_chemical_formula_sum "Si O2"
_cell_formula_units_Z 48
_cell_length_a 14.080581
_cell_length_b 11.209050
_cell_length_c 14.624239
_cell_angle_alpha 90.000000
_cell_angle_beta 123.786335
_cell_angle_gamma 90.000000
_cell_volume 1918.336927
_symmetry_space_group_name_H-M "C 2/C"
_symmetry_group_IT_number 15
_symmetry_cell_setting 'monoclinic'
loop_
_space_group_symop_operation_xyz
x,y,z
-x,y,1/2-z
-x,-y,-z
x,-y,1/2+z
1/2+x,1/2+y,z
1/2-x,1/2+y,1/2-z
1/2-x,1/2-y,-z
1/2+x,1/2-y,1/2+z
loop_
_atom_site_type_symbol
_atom_site_label
_atom_site_fract_x
_atom_site_fract_y
_atom_site_fract_z
Si Si1 0.758403 0.766080 0.613156
Si Si2 0.970703 0.213061 0.042771
Si Si3 0.500000 0.659340 0.750000
Si Si4 0.405403 0.186050 0.039151
Si Si5 0.000000 0.193913 0.250000
Si Si6 0.265308 0.542887 0.667782
Si Si7 0.543847 0.959982 0.168267
O O1 0.750000 0.750000 0.500000
O O2 0.643005 0.699878 0.578557
O O3 0.885620 0.730050 0.709170
O O4 0.761012 0.903270 0.642433
O O5 0.975371 0.135772 0.137859
O O6 0.975132 0.348968 0.085416
O O7 0.075404 0.214806 0.030252
O O8 0.571735 0.743779 0.856356
O O9 0.397308 0.584644 0.743341
O O10 0.500203 0.080946 0.094478
O O11 0.292913 0.115831 0.947567
O O12 0.176731 0.554116 0.705969
O O13 0.500000 0.979147 0.250000
#
# Coordination Sequence:
#
# PCOD9266367 Si02
#       7
#     8   8   4   8   4   8   8
#     4  10  20  37  64  95 130 177 218 280 347 403
#     4  10  19  37  63  92 124 170 229 285 324 398
#     4  12  27  43  68 104 144 186 221 295 370 408
#     4  11  22  42  68  96 131 189 238 272 338 431
#     4  10  21  33  58  92 134 162 217 275 352 392
#     4  11  23  45  68  97 146 178 232 297 345 418
#     4  11  20  40  71  96 127 180 246 278 332 404
#
# _framework density 25.021671999999999
#
# number of rings (size 3 to 8) (size 9 to 14) (size 15 to 20)
#    0.000    1.333    5.000    2.000    0.000    2.667 
#    3.000    0.000    0.000    6.000    0.000    0.000 
#    0.000    0.000    0.000    0.000    0.000    0.000 
#
# Total GULP energy -133644.884006 kJ/mol
# GULP energy per Si atom -5568.536834 kJ/mol
# Density = 2.496472 g / cm^3
# Si number density = 25.021672 Si / 1000 Ang^3
#
#
#
# Elastic Constant Matrix: (Units=GPa)
#
#
# Indices 1 2 3 4 5 6 
#
# 1 144.1448 55.0494 55.8146 0.0000 11.8932 0.0000
# 2 55.0494 62.6588 32.4655 0.0000 -5.4391 0.0000
# 3 55.8146 32.4655 116.6006 0.0000 -0.6250 0.0000
# 4 0.0000 0.0000 0.0000 13.3652 0.0000 1.4152
# 5 11.8932 -5.4391 -0.6250 0.0000 56.4851 0.0000
# 6 0.0000 0.0000 0.0000 1.4152 0.0000 31.1232
#
#
#
# Elastic Compliance Matrix: (Units=1/GPa)
#
#
# Indices 1 2 3 4 5 6 
#
# 1 0.011947 -0.009140 -0.003192 0.000000 -0.003431 0.000000
# 2 -0.009140 0.025815 -0.002789 0.000000 0.004379 0.000000
# 3 -0.003192 -0.002789 0.010884 0.000000 0.000524 0.000000
# 4 0.000000 0.000000 0.000000 0.075183 0.000000 -0.003419
# 5 -0.003431 0.004379 0.000524 0.000000 0.018854 0.000000
# 6 0.000000 0.000000 0.000000 -0.003419 0.000000 0.032286
#
#
# Mechanical properties :
#
#
# Convention : Reuss Voigt Hill
#
# Bulk Modulus (GPa) = 54.33965 67.78478 61.06222
# Shear Modulus (GPa) = 23.65785 32.19969 27.92877
#
# Velocity S-wave (km/s) = 3.07823 3.59119 3.34456
# Velocity P-wave (km/s) = 5.86499 6.65919 6.27467
#
# Compressibility (1/GPa) = 0.01840277
#
# Stress axis : x y z
#
# Youngs Moduli (GPa) = 83.70035 38.73743 91.87953
#
# Poissons Ratio (x) = 0.35407 0.29332
# Poissons Ratio (y) = 0.76504 0.25625
# Poissons Ratio (z) = 0.26721 0.10804
#
# Static dielectric constant tensor:
#      x y z
#    x 2.161930 0.000000 0.024360 
#    y 0.000000 2.013850 0.000000 
#    z 0.024360 0.000000 2.034200 
# 
# From -- ./inp_files/153629.got.cif
#   From: 2010.05.17/outbox.cif.g08.bks.cpg/sg15_77_cif.got.tgz:153629.got - 2010.06.03 18:47:42.
