data_PCOD9266134
_publ_section_title
;
Structure prediction by ZEFSAII (Michael W. Deem and Ramdas Pophale) SiO2 
 PCOD9266134
Probable space group: C 2/C
;
_chemical_formula_sum "Si O2"
_cell_formula_units_Z 48
_cell_length_a 11.178624
_cell_length_b 10.949217
_cell_length_c 17.262213
_cell_angle_alpha 90.000000
_cell_angle_beta 126.561126
_cell_angle_gamma 90.000000
_cell_volume 1697.084155
_symmetry_space_group_name_H-M "C 2/C"
_symmetry_group_IT_number 15
_symmetry_cell_setting 'monoclinic'
loop_
_space_group_symop_operation_xyz
x,y,z
-x,y,1/2-z
-x,-y,-z
x,-y,1/2+z
1/2+x,1/2+y,z
1/2-x,1/2+y,1/2-z
1/2-x,1/2-y,-z
1/2+x,1/2-y,1/2+z
loop_
_atom_site_type_symbol
_atom_site_label
_atom_site_fract_x
_atom_site_fract_y
_atom_site_fract_z
Si Si1 0.215812 0.460077 0.811947
Si Si2 0.092621 0.337792 0.184991
Si Si3 0.819288 0.637871 0.481498
Si Si4 0.777359 0.789943 0.108218
Si Si5 0.487708 0.188601 0.391190
Si Si6 0.009023 0.055177 0.341103
O O1 0.144626 0.593979 0.782391
O O2 0.224762 0.359958 0.881937
O O3 0.384526 0.487358 0.852274
O O4 0.106466 0.393051 0.706817
O O5 0.229335 0.334709 0.175531
O O6 0.038807 0.200555 0.178466
O O7 0.961793 0.403710 0.085426
O O8 0.750000 0.750000 0.500000
O O9 0.682623 0.545188 0.426980
O O10 0.870407 0.685927 0.417308
O O11 0.941582 0.799670 0.133559
O O12 0.638769 0.829914 0.001404
O O13 0.000000 0.013671 0.250000
#
# Coordination Sequence:
#
# PCOD9266134 Si02
#       6
#     8   8   8   8   8   8
#     4  11  21  38  67  97 128 174 224 273 327 404
#     4   9  21  38  65  94 127 170 224 268 332 398
#     4   9  18  36  63  93 125 171 218 271 330 395
#     4   9  21  38  61  99 130 169 216 276 330 391
#     4  10  19  37  66  92 131 170 215 271 338 390
#     4  10  19  37  60  89 127 166 213 272 327 382
#
# _framework density 28.283805999999998
#
# number of rings (size 3 to 8) (size 9 to 14) (size 15 to 20)
#    0.000    2.333    1.667    1.500    0.000    4.000 
#    0.000    3.333    7.333    4.000    0.000    0.000 
#    0.000    0.000    0.000    0.000    0.000    0.000 
#
# Total GULP energy -134051.021031 kJ/mol
# GULP energy per Si atom -5585.459210 kJ/mol
# Density = 2.821943 g / cm^3
# Si number density = 28.283806 Si / 1000 Ang^3
#
#
#
# Elastic Constant Matrix: (Units=GPa)
#
#
# Indices 1 2 3 4 5 6 
#
# 1 194.5782 28.2679 44.1655 0.0000 27.0188 0.0000
# 2 28.2679 67.3612 47.3063 0.0000 16.7431 0.0000
# 3 44.1655 47.3063 93.9676 0.0000 18.3574 0.0000
# 4 0.0000 0.0000 0.0000 48.1764 0.0000 8.7346
# 5 27.0188 16.7431 18.3574 0.0000 66.5937 0.0000
# 6 0.0000 0.0000 0.0000 8.7346 0.0000 30.6956
#
#
#
# Elastic Compliance Matrix: (Units=1/GPa)
#
#
# Indices 1 2 3 4 5 6 
#
# 1 0.005949 -0.000536 -0.002199 0.000000 -0.001672 0.000000
# 2 -0.000536 0.023494 -0.011060 0.000000 -0.002641 0.000000
# 3 -0.002199 -0.011060 0.017466 0.000000 -0.001142 0.000000
# 4 0.000000 0.000000 0.000000 0.021886 0.000000 -0.006228
# 5 -0.001672 -0.002641 -0.001142 0.000000 0.016674 0.000000
# 6 0.000000 0.000000 0.000000 -0.006228 0.000000 0.034350
#
#
# Mechanical properties :
#
#
# Convention : Reuss Voigt Hill
#
# Bulk Modulus (GPa) = 51.76323 66.15403 58.95863
# Shear Modulus (GPa) = 32.49961 44.83763 38.66862
#
# Velocity S-wave (km/s) = 3.39345 3.98587 3.70153
# Velocity P-wave (km/s) = 5.80475 6.68005 6.25772
#
# Compressibility (1/GPa) = 0.01931873
#
# Stress axis : x y z
#
# Youngs Moduli (GPa) = 168.10569 42.56493 57.25261
#
# Poissons Ratio (x) = 0.02282 0.12591
# Poissons Ratio (y) = 0.09013 0.63319
# Poissons Ratio (z) = 0.36971 0.47075
#
# Static dielectric constant tensor:
#      x y z
#    x 1.356820 0.000000 2.653600 
#    y 0.000000 2.607200 0.000000 
#    z 2.653600 0.000000 -4.845070 
# 
# From -- ./inp_files/237735.got.cif
#   From: 2010.05.17/outbox.cif.g08.bks.cpg/sg15_119_cif.got.tgz:237735.got - 2010.06.03 18:47:42.
