data_PCOD9266111
_publ_section_title
;
Structure prediction by ZEFSAII (Michael W. Deem and Ramdas Pophale) SiO2 
 PCOD9266111
Probable space group: C 2/C
;
_chemical_formula_sum "Si O2"
_cell_formula_units_Z 60
_cell_length_a 21.481677
_cell_length_b 9.274110
_cell_length_c 28.006875
_cell_angle_alpha 90.000000
_cell_angle_beta 33.474782
_cell_angle_gamma 90.000000
_cell_volume 3077.553718
_symmetry_space_group_name_H-M "C 2/C"
_symmetry_group_IT_number 15
_symmetry_cell_setting 'monoclinic'
loop_
_space_group_symop_operation_xyz
x,y,z
-x,y,1/2-z
-x,-y,-z
x,-y,1/2+z
1/2+x,1/2+y,z
1/2-x,1/2+y,1/2-z
1/2-x,1/2-y,-z
1/2+x,1/2-y,1/2+z
loop_
_atom_site_type_symbol
_atom_site_label
_atom_site_fract_x
_atom_site_fract_y
_atom_site_fract_z
Si Si1 0.882407 0.448928 0.054018
Si Si2 0.343300 0.202345 0.401443
Si Si3 0.849227 0.907492 0.771739
Si Si4 0.474498 0.074256 0.397953
Si Si5 0.117401 0.836036 0.306310
Si Si6 0.803744 0.603024 0.764584
Si Si7 0.754320 0.831924 0.640007
Si Si8 0.500000 0.565519 0.750000
O O1 0.779741 0.537526 0.142378
O O2 0.857856 0.279245 0.077592
O O3 0.000000 0.500000 0.000000
O O4 0.887516 0.474918 0.993888
O O5 0.250000 0.250000 0.500000
O O6 0.419549 0.085974 0.380873
O O7 0.284877 0.152788 0.389606
O O8 0.425402 0.332472 0.332360
O O9 0.849092 0.738288 0.765023
O O10 0.903444 0.997706 0.693091
O O11 0.915357 0.965051 0.774972
O O12 0.513573 0.236641 0.387545
O O13 0.587501 0.978647 0.326613
O O14 0.219063 0.835054 0.278963
O O15 0.159440 0.756866 0.230775
O O16 0.738800 0.484830 0.838249
#
# Coordination Sequence:
#
# PCOD9266111 Si02
#       8
#     8   8   8   8   8   8   8   4
#     4  11  21  39  62  90 127 167 212 263 325 382
#     4  12  21  41  69  92 124 163 229 274 311 392
#     4  11  22  38  60  90 126 167 200 265 331 380
#     4  11  21  37  65  90 114 168 216 260 310 379
#     4  10  19  37  60  86 120 162 212 253 307 380
#     4  11  23  38  60  93 128 161 213 259 322 394
#     4  10  21  39  61  90 121 163 211 265 314 376
#     4  12  20  40  64  90 128 168 218 270 326 392
#
# _framework density 19.496003000000002
#
# number of rings (size 3 to 8) (size 9 to 14) (size 15 to 20)
#    0.000    1.067    5.333    4.800    0.000    1.067 
#    0.000    5.333    0.000    3.200    0.000    0.000 
#    0.000    0.000    0.000    0.000    0.000    0.000 
#
# Total GULP energy -167437.457406 kJ/mol
# GULP energy per Si atom -5581.248580 kJ/mol
# Density = 1.945163 g / cm^3
# Si number density = 19.496003 Si / 1000 Ang^3
#
#
#
# Elastic Constant Matrix: (Units=GPa)
#
#
# Indices 1 2 3 4 5 6 
#
# 1 85.7318 12.3568 5.5959 0.0010 4.5738 -0.0014
# 2 12.3568 97.4019 23.8290 0.0014 1.4568 0.0003
# 3 5.5959 23.8290 75.6528 0.0000 5.6166 0.0000
# 4 0.0010 0.0014 0.0000 17.5866 -0.0001 -3.7513
# 5 4.5738 1.4568 5.6166 -0.0001 32.0399 0.0003
# 6 -0.0014 0.0003 0.0000 -3.7513 0.0003 28.6612
#
#
#
# Elastic Compliance Matrix: (Units=1/GPa)
#
#
# Indices 1 2 3 4 5 6 
#
# 1 0.011974 -0.001417 -0.000322 0.000000 -0.001589 0.000001
# 2 -0.001417 0.011292 -0.003474 -0.000001 0.000298 0.000000
# 3 -0.000322 -0.003474 0.014510 0.000000 -0.002340 0.000000
# 4 0.000000 -0.000001 0.000000 0.058495 0.000000 0.007656
# 5 -0.001589 0.000298 -0.002340 0.000000 0.031834 0.000000
# 6 0.000001 0.000000 0.000000 0.007656 0.000000 0.035892
#
#
# Mechanical properties :
#
#
# Convention : Reuss Voigt Hill
#
# Bulk Modulus (GPa) = 36.56086 38.03886 37.29986
# Shear Modulus (GPa) = 27.24211 30.12451 28.68331
#
# Velocity S-wave (km/s) = 3.74213 3.93512 3.83984
# Velocity P-wave (km/s) = 6.12087 6.34038 6.23159
#
# Compressibility (1/GPa) = 0.02735165
#
# Stress axis : x y z
#
# Youngs Moduli (GPa) = 83.51277 88.55893 68.91787
#
# Poissons Ratio (x) = 0.12546 0.02216
# Poissons Ratio (y) = 0.11831 0.23942
# Poissons Ratio (z) = 0.02685 0.30766
#
# Static dielectric constant tensor:
#      x y z
#    x 1.720200 0.000000 0.015180 
#    y 0.000000 1.679420 0.000000 
#    z 0.015180 0.000000 1.713380 
# 
# From -- ./inp_files/279679.got.cif
#   From: 2010.05.17/outbox.cif.g08.bks.cpg/sg15_140_cif.got.tgz:279679.got - 2010.06.03 18:47:42.
