data_PCOD9266812
_publ_section_title
;
Structure prediction by ZEFSAII (Michael W. Deem and Ramdas Pophale) SiO2 
 PCOD9266812
Probable space group: C 2/C
;
_chemical_formula_sum "Si O2"
_cell_formula_units_Z 52
_cell_length_a 25.948806
_cell_length_b 12.804554
_cell_length_c 12.150098
_cell_angle_alpha 90.000000
_cell_angle_beta 137.816008
_cell_angle_gamma 90.000000
_cell_volume 2710.918249
_symmetry_space_group_name_H-M "C 2/C"
_symmetry_group_IT_number 15
_symmetry_cell_setting 'monoclinic'
loop_
_space_group_symop_operation_xyz
x,y,z
-x,y,1/2-z
-x,-y,-z
x,-y,1/2+z
1/2+x,1/2+y,z
1/2-x,1/2+y,1/2-z
1/2-x,1/2-y,-z
1/2+x,1/2-y,1/2+z
loop_
_atom_site_type_symbol
_atom_site_label
_atom_site_fract_x
_atom_site_fract_y
_atom_site_fract_z
Si Si1 0.346855 0.327874 0.557299
Si Si2 0.683407 0.725591 0.239736
Si Si3 0.791281 0.034604 0.377762
Si Si4 0.000000 0.720239 0.750000
Si Si5 0.451006 0.085008 0.489383
Si Si6 0.314481 0.840970 0.627762
Si Si7 0.345955 0.923045 0.440225
O O1 0.345079 0.312403 0.686440
O O2 0.272108 0.263792 0.395371
O O3 0.343926 0.448928 0.518286
O O4 0.422283 0.283803 0.620864
O O5 0.677749 0.634076 0.139890
O O6 0.642302 0.828864 0.127670
O O7 0.735812 0.074020 0.387102
O O8 0.739093 0.969496 0.210330
O O9 0.007256 0.653474 0.651110
O O10 0.391382 0.159184 0.326968
O O11 0.500000 0.000000 0.500000
O O12 0.401630 0.017268 0.498519
O O13 0.250000 0.750000 0.500000
O O14 0.348238 0.878192 0.565392
#
# Coordination Sequence:
#
# PCOD9266812 Si02
#       7
#     8   8   8   4   8   8   8
#     4  10  22  37  61  87 118 164 205 245 310 378
#     4  10  19  38  61  89 118 153 206 261 304 355
#     4  10  20  35  60  90 120 156 205 261 301 367
#     4  12  24  42  62  84 134 166 202 250 324 386
#     4  11  24  40  63  94 128 167 207 261 328 395
#     4  11  21  37  63  96 122 159 208 270 315 366
#     4  10  20  34  62  90 122 153 206 256 321 368
#
# _framework density 19.181692999999999
#
# number of rings (size 3 to 8) (size 9 to 14) (size 15 to 20)
#    0.000    1.538    1.538    4.615    2.154    4.923 
#    0.000    0.769    3.385    0.000    0.000    0.000 
#    0.000    0.000    0.000    0.000    0.000    0.000 
#
# Total GULP energy -144893.587374 kJ/mol
# GULP energy per Si atom -5572.830284 kJ/mol
# Density = 1.913803 g / cm^3
# Si number density = 19.181693 Si / 1000 Ang^3
#
#
#
# Elastic Constant Matrix: (Units=GPa)
#
#
# Indices 1 2 3 4 5 6 
#
# 1 53.5153 -3.8867 9.7528 0.0000 -11.2880 0.0000
# 2 -3.8867 67.8614 24.3675 0.0000 -7.8489 0.0000
# 3 9.7528 24.3675 67.0046 0.0000 -14.1692 0.0000
# 4 0.0000 0.0000 0.0000 26.0006 0.0000 2.6024
# 5 -11.2880 -7.8489 -14.1692 0.0000 22.1061 0.0000
# 6 0.0000 0.0000 0.0000 2.6024 0.0000 21.6873
#
#
#
# Elastic Compliance Matrix: (Units=1/GPa)
#
#
# Indices 1 2 3 4 5 6 
#
# 1 0.021580 0.003216 -0.002011 0.000000 0.010872 0.000000
# 2 0.003216 0.017538 -0.005995 0.000000 0.004027 0.000000
# 3 -0.002011 -0.005995 0.019353 0.000000 0.009249 0.000000
# 4 0.000000 0.000000 0.000000 0.038928 0.000000 -0.004671
# 5 0.010872 0.004027 0.009249 0.000000 0.058146 0.000000
# 6 0.000000 0.000000 0.000000 -0.004671 0.000000 0.046671
#
#
# Mechanical properties :
#
#
# Convention : Reuss Voigt Hill
#
# Bulk Modulus (GPa) = 20.45410 27.64984 24.05197
# Shear Modulus (GPa) = 21.92086 24.50197 23.21142
#
# Velocity S-wave (km/s) = 3.38420 3.57790 3.48240
# Velocity P-wave (km/s) = 5.09479 5.61377 5.36057
#
# Compressibility (1/GPa) = 0.04888996
#
# Stress axis : x y z
#
# Youngs Moduli (GPa) = 46.34024 57.01771 51.67139
#
# Poissons Ratio (x) = -0.18335 0.10393
# Poissons Ratio (y) = -0.14901 0.30976
# Poissons Ratio (z) = 0.09321 0.34180
#
# Static dielectric constant tensor:
#      x y z
#    x 1.637500 0.000000 -0.024550 
#    y 0.000000 1.695830 0.000000 
#    z -0.024550 0.000000 1.825140 
# 
# From -- ./inp_files/111189.got.cif
#   From: 2010.05.17/outbox.cif.g08.bks.cpg/sg15_56_cif.got.tgz:111189.got - 2010.06.03 18:47:42.
