data_PCOD9266737
_publ_section_title
;
Structure prediction by ZEFSAII (Michael W. Deem and Ramdas Pophale) SiO2 
 PCOD9266737
Probable space group: C 2/C
;
_chemical_formula_sum "Si O2"
_cell_formula_units_Z 48
_cell_length_a 19.794205
_cell_length_b 20.537620
_cell_length_c 17.321548
_cell_angle_alpha 90.000000
_cell_angle_beta 21.814845
_cell_angle_gamma 90.000000
_cell_volume 2616.738885
_symmetry_space_group_name_H-M "C 2/C"
_symmetry_group_IT_number 15
_symmetry_cell_setting 'monoclinic'
loop_
_space_group_symop_operation_xyz
x,y,z
-x,y,1/2-z
-x,-y,-z
x,-y,1/2+z
1/2+x,1/2+y,z
1/2-x,1/2+y,1/2-z
1/2-x,1/2-y,-z
1/2+x,1/2-y,1/2+z
loop_
_atom_site_type_symbol
_atom_site_label
_atom_site_fract_x
_atom_site_fract_y
_atom_site_fract_z
Si Si1 0.486433 0.555578 0.852364
Si Si2 0.190168 0.702199 0.633411
Si Si3 0.207981 0.676196 0.397258
Si Si4 0.241830 0.446529 0.296446
Si Si5 0.553864 0.404649 0.574249
Si Si6 0.170773 0.413345 0.796830
O O1 0.500000 0.577842 0.750000
O O2 0.656950 0.563703 0.729823
O O3 0.452718 0.477679 0.887866
O O4 0.314929 0.588705 0.075602
O O5 0.250000 0.750000 0.500000
O O6 0.215019 0.750889 0.679760
O O7 0.322980 0.641913 0.503863
O O8 0.984265 0.677487 0.854358
O O9 0.357918 0.628945 0.275646
O O10 0.176337 0.648627 0.346061
O O11 0.231531 0.523162 0.283458
O O12 0.033472 0.424206 0.515668
O O13 0.354158 0.411308 0.108488
#
# Coordination Sequence:
#
# PCOD9266737 Si02
#       6
#     8   8   8   8   8   8
#     4  11  23  36  58  90 124 153 198 259 319 357
#     4  12  27  38  54  90 126 160 207 247 286 355
#     4  12  22  38  58  79 118 167 199 240 291 349
#     4  10  19  38  60  86 113 151 212 255 295 377
#     4  11  22  38  59  83 121 168 201 244 299 360
#     4  10  20  37  61  82 112 161 206 247 299 368
#
# _framework density 18.343443000000001
#
# number of rings (size 3 to 8) (size 9 to 14) (size 15 to 20)
#    0.000    1.000    6.667    1.500    2.333    0.667 
#    0.000    0.000    0.000    0.000    0.000    4.667 
#    0.000    0.000    0.000    0.000    0.000    0.000 
#
# Total GULP energy -134060.173086 kJ/mol
# GULP energy per Si atom -5585.840545 kJ/mol
# Density = 1.830169 g / cm^3
# Si number density = 18.343443 Si / 1000 Ang^3
#
#
#
# Elastic Constant Matrix: (Units=GPa)
#
#
# Indices 1 2 3 4 5 6 
#
# 1 125.7614 13.1293 74.5339 0.0182 -0.4031 0.0153
# 2 13.1293 46.0337 23.3856 0.0186 -9.7450 0.0360
# 3 74.5339 23.3856 152.9922 -0.0140 -15.9645 0.0455
# 4 0.0182 0.0186 -0.0140 26.3027 0.0265 0.9256
# 5 -0.4031 -9.7450 -15.9645 0.0265 23.6043 -0.0213
# 6 0.0153 0.0360 0.0455 0.9256 -0.0213 24.5841
#
#
#
# Elastic Compliance Matrix: (Units=1/GPa)
#
#
# Indices 1 2 3 4 5 6 
#
# 1 0.011556 -0.001210 -0.005892 -0.000006 -0.004288 0.000002
# 2 -0.001210 0.025110 -0.002334 -0.000026 0.008768 -0.000023
# 3 -0.005892 -0.002334 0.010386 0.000005 0.005960 -0.000007
# 4 -0.000006 -0.000026 0.000005 0.038069 -0.000051 -0.001433
# 5 -0.004288 0.008768 0.005960 -0.000051 0.049943 0.000024
# 6 0.000002 -0.000023 -0.000007 -0.001433 0.000024 0.040731
#
#
# Mechanical properties :
#
#
# Convention : Reuss Voigt Hill
#
# Bulk Modulus (GPa) = 35.48707 60.76498 48.12602
# Shear Modulus (GPa) = 24.50253 29.14744 26.82498
#
# Velocity S-wave (km/s) = 3.65878 3.99053 3.82825
# Velocity P-wave (km/s) = 6.10219 7.37771 6.77006
#
# Compressibility (1/GPa) = 0.02817928
#
# Stress axis : x y z
#
# Youngs Moduli (GPa) = 86.53258 39.82474 96.28788
#
# Poissons Ratio (x) = 0.04820 0.56736
# Poissons Ratio (y) = 0.10473 0.22471
# Poissons Ratio (z) = 0.50988 0.09294
#
# Static dielectric constant tensor:
#      x y z
#    x 1.680400 0.000000 -0.006450 
#    y 0.000000 1.615210 0.000040 
#    z -0.006450 0.000040 1.646130 
# 
# From -- ./inp_files/216537.got.cif
#   From: 2010.05.17/outbox.cif.g08.bks.cpg/sg15_109_cif.got.tgz:216537.got - 2010.06.03 18:47:42.
