data_PCOD9266183
_publ_section_title
;
Structure prediction by ZEFSAII (Michael W. Deem and Ramdas Pophale) SiO2 
 PCOD9266183
Probable space group: C 2/C
;
_chemical_formula_sum "Si O2"
_cell_formula_units_Z 48
_cell_length_a 8.046051
_cell_length_b 20.775107
_cell_length_c 14.652964
_cell_angle_alpha 90.000000
_cell_angle_beta 82.012118
_cell_angle_gamma 90.000000
_cell_volume 2425.588961
_symmetry_space_group_name_H-M "C 2/C"
_symmetry_group_IT_number 15
_symmetry_cell_setting 'monoclinic'
loop_
_space_group_symop_operation_xyz
x,y,z
-x,y,1/2-z
-x,-y,-z
x,-y,1/2+z
1/2+x,1/2+y,z
1/2-x,1/2+y,1/2-z
1/2-x,1/2-y,-z
1/2+x,1/2-y,1/2+z
loop_
_atom_site_type_symbol
_atom_site_label
_atom_site_fract_x
_atom_site_fract_y
_atom_site_fract_z
Si Si1 0.790143 0.578985 0.158206
Si Si2 0.797698 0.174872 0.492688
Si Si3 0.671923 0.037282 0.959851
Si Si4 0.693718 0.095350 0.143198
Si Si5 0.997480 0.649485 0.642098
Si Si6 0.853740 0.219763 0.073349
O O1 0.735340 0.515938 0.107052
O O2 0.729925 0.574170 0.266617
O O3 0.993169 0.583822 0.153439
O O4 0.742548 0.640312 0.100311
O O5 0.750000 0.250000 0.500000
O O6 0.681028 0.143724 0.579867
O O7 0.997289 0.177412 0.482213
O O8 0.618856 0.098734 0.903314
O O9 0.756467 0.059892 0.047154
O O10 0.500000 0.000000 0.000000
O O11 0.733984 0.170892 0.135133
O O12 0.000000 0.637024 0.750000
O O13 0.929731 0.721833 0.627214
O O14 0.750000 0.250000 0.000000
#
# Coordination Sequence:
#
# PCOD9266183 Si02
#       6
#     8   8   8   8   8   8
#     4  10  21  36  63  90 118 161 211 250 303 372
#     4  10  21  38  59  87 122 155 201 252 303 360
#     4  10  19  37  61  86 123 156 207 250 305 363
#     4  10  20  36  61  91 116 160 202 253 306 361
#     4  11  23  38  63  93 119 159 203 253 308 369
#     4  11  22  41  61  86 127 161 202 257 311 358
#
# _framework density 19.789007000000002
#
# number of rings (size 3 to 8) (size 9 to 14) (size 15 to 20)
#    0.000    1.667    5.000    1.000    9.333    0.000 
#    0.000    0.833    0.000    2.000    0.000    0.000 
#    0.000    0.000    0.000    0.000    0.000    0.000 
#
# Total GULP energy -133749.449862 kJ/mol
# GULP energy per Si atom -5572.893744 kJ/mol
# Density = 1.974397 g / cm^3
# Si number density = 19.789007 Si / 1000 Ang^3
#
#
#
# Elastic Constant Matrix: (Units=GPa)
#
#
# Indices 1 2 3 4 5 6 
#
# 1 33.1570 4.2948 28.7838 0.0000 11.0801 0.0000
# 2 4.2948 108.1400 66.5026 0.0000 8.4145 0.0000
# 3 28.7838 66.5026 192.8105 0.0000 21.7711 0.0000
# 4 0.0000 0.0000 0.0000 24.0787 0.0000 -1.3799
# 5 11.0801 8.4145 21.7711 0.0000 10.5580 0.0000
# 6 0.0000 0.0000 0.0000 -1.3799 0.0000 24.7709
#
#
#
# Elastic Compliance Matrix: (Units=1/GPa)
#
#
# Indices 1 2 3 4 5 6 
#
# 1 0.048093 0.003678 -0.003152 0.000000 -0.046902 0.000000
# 2 0.003678 0.012032 -0.004146 0.000000 -0.004900 0.000000
# 3 -0.003152 -0.004146 0.008265 0.000000 -0.010430 0.000000
# 4 0.000000 0.000000 0.000000 0.041664 0.000000 0.002321
# 5 -0.046902 -0.004900 -0.010430 0.000000 0.169349 0.000000
# 6 0.000000 0.000000 0.000000 0.002321 0.000000 0.040499
#
#
# Mechanical properties :
#
#
# Convention : Reuss Voigt Hill
#
# Bulk Modulus (GPa) = 16.35331 59.25220 37.80276
# Shear Modulus (GPa) = 14.38749 27.51662 20.95205
#
# Velocity S-wave (km/s) = 2.69930 3.73299 3.25741
# Velocity P-wave (km/s) = 4.24226 6.97045 5.76992
#
# Compressibility (1/GPa) = 0.06114971
#
# Stress axis : x y z
#
# Youngs Moduli (GPa) = 20.79309 83.11177 120.99773
#
# Poissons Ratio (x) = -0.30569 0.38141
# Poissons Ratio (y) = -0.07648 0.50162
# Poissons Ratio (z) = 0.06554 0.34456
#
# Static dielectric constant tensor:
#      x y z
#    x 1.712040 0.000000 -0.058400 
#    y 0.000000 1.719520 0.000000 
#    z -0.058400 0.000000 1.758130 
# 
# From -- ./inp_files/134841.got.cif
#   From: 2010.05.17/outbox.cif.g08.bks.cpg/sg15_68_cif.got.tgz:134841.got - 2010.06.03 18:47:42.
