data_PCOD9266397
_publ_section_title
;
Structure prediction by ZEFSAII (Michael W. Deem and Ramdas Pophale) SiO2 
 PCOD9266397
Probable space group: C 2/C
;
_chemical_formula_sum "Si O2"
_cell_formula_units_Z 64
_cell_length_a 16.557984
_cell_length_b 16.762509
_cell_length_c 16.215798
_cell_angle_alpha 90.000000
_cell_angle_beta 47.129772
_cell_angle_gamma 90.000000
_cell_volume 3298.583372
_symmetry_space_group_name_H-M "C 2/C"
_symmetry_group_IT_number 15
_symmetry_cell_setting 'monoclinic'
loop_
_space_group_symop_operation_xyz
x,y,z
-x,y,1/2-z
-x,-y,-z
x,-y,1/2+z
1/2+x,1/2+y,z
1/2-x,1/2+y,1/2-z
1/2-x,1/2-y,-z
1/2+x,1/2-y,1/2+z
loop_
_atom_site_type_symbol
_atom_site_label
_atom_site_fract_x
_atom_site_fract_y
_atom_site_fract_z
Si Si1 0.614568 0.599057 0.701235
Si Si2 0.567714 0.290817 0.837697
Si Si3 0.460065 0.032822 0.440278
Si Si4 0.347195 0.297952 0.894162
Si Si5 0.166541 0.658166 0.877188
Si Si6 0.816171 0.478854 0.273811
Si Si7 0.742973 0.469799 0.511929
Si Si8 0.915370 0.973477 0.630417
O O1 0.500000 0.636235 0.750000
O O2 0.708366 0.656478 0.674830
O O3 0.673021 0.547523 0.587755
O O4 0.581826 0.534479 0.794696
O O5 0.452773 0.270089 0.873207
O O6 0.649809 0.279658 0.704451
O O7 0.610929 0.238637 0.883325
O O8 0.557005 0.383495 0.865934
O O9 0.408171 0.118260 0.499254
O O10 0.500000 0.000000 0.500000
O O11 0.567865 0.026026 0.308512
O O12 0.358666 0.978962 0.479664
O O13 0.250000 0.250000 0.000000
O O14 0.327206 0.392462 0.915529
O O15 0.168228 0.598368 0.796232
O O16 0.777181 0.461329 0.393204
O O17 0.712622 0.525692 0.307790
O O18 0.000000 0.000000 0.500000
#
# Coordination Sequence:
#
# PCOD9266397 Si02
#       8
#     8   8   8   8   8   8   8   8
#     4  10  19  37  64  87 117 158 212 254 299 361
#     4  11  23  40  57  88 129 158 199 250 311 374
#     4   9  20  35  57  83 116 162 206 242 296 361
#     4  11  24  35  57  90 126 165 189 241 316 379
#     4   9  21  37  57  88 123 161 197 251 310 366
#     4  10  20  35  59  87 116 157 204 248 306 364
#     4  11  20  36  59  89 118 157 205 253 302 366
#     4  11  22  37  61  88 119 157 208 258 303 360
#
# _framework density 19.402269
#
# number of rings (size 3 to 8) (size 9 to 14) (size 15 to 20)
#    0.000    1.750    1.250    4.125    3.500    1.000 
#    0.000    0.000    0.000    8.250    0.000    0.000 
#    0.000    0.000    0.000    0.000    0.000    0.000 
#
# Total GULP energy -178453.010035 kJ/mol
# GULP energy per Si atom -5576.656564 kJ/mol
# Density = 1.935811 g / cm^3
# Si number density = 19.402269 Si / 1000 Ang^3
#
#
#
# Elastic Constant Matrix: (Units=GPa)
#
#
# Indices 1 2 3 4 5 6 
#
# 1 92.5861 11.2744 0.1756 0.0000 -20.2668 0.0000
# 2 11.2744 35.0392 -2.4619 0.0000 -6.0084 0.0000
# 3 0.1756 -2.4619 80.6361 0.0000 -10.2490 0.0000
# 4 0.0000 0.0000 0.0000 20.7885 0.0000 4.6060
# 5 -20.2668 -6.0084 -10.2490 0.0000 26.8475 0.0000
# 6 0.0000 0.0000 0.0000 4.6060 0.0000 22.9630
#
#
#
# Elastic Compliance Matrix: (Units=1/GPa)
#
#
# Indices 1 2 3 4 5 6 
#
# 1 0.013269 -0.002491 0.001153 0.000000 0.009899 0.000000
# 2 -0.002491 0.030408 0.001639 0.000000 0.005551 0.000000
# 3 0.001153 0.001639 0.013249 0.000000 0.006295 0.000000
# 4 0.000000 0.000000 0.000000 0.050341 0.000000 -0.010098
# 5 0.009899 0.005551 0.006295 0.000000 0.048366 0.000000
# 6 0.000000 0.000000 0.000000 -0.010098 0.000000 0.045574
#
#
# Mechanical properties :
#
#
# Convention : Reuss Voigt Hill
#
# Bulk Modulus (GPa) = 17.38250 25.13751 21.26001
# Shear Modulus (GPa) = 22.75010 27.40467 25.07738
#
# Velocity S-wave (km/s) = 3.42796 3.76233 3.59903
# Velocity P-wave (km/s) = 4.96451 5.64425 5.31526
#
# Compressibility (1/GPa) = 0.05752911
#
# Stress axis : x y z
#
# Youngs Moduli (GPa) = 75.36471 32.88616 75.47695
#
# Poissons Ratio (x) = 0.08192 -0.08705
# Poissons Ratio (y) = 0.18773 -0.12373
# Poissons Ratio (z) = -0.08692 -0.05391
#
# Static dielectric constant tensor:
#      x y z
#    x 1.745190 0.000000 -0.031830 
#    y 0.000000 1.639960 0.000000 
#    z -0.031830 0.000000 1.701040 
# 
# From -- ./inp_files/211375.got.cif
#   From: 2010.05.17/outbox.cif.g08.bks.cpg/sg15_106_cif.got.tgz:211375.got - 2010.06.03 18:47:42.
