data_PCOD9266571
_publ_section_title
;
Structure prediction by ZEFSAII (Michael W. Deem and Ramdas Pophale) SiO2 
 PCOD9266571
Probable space group: C 2/C
;
_chemical_formula_sum "Si O2"
_cell_formula_units_Z 60
_cell_length_a 16.916483
_cell_length_b 13.472115
_cell_length_c 12.042566
_cell_angle_alpha 90.000000
_cell_angle_beta 102.476085
_cell_angle_gamma 90.000000
_cell_volume 2679.702329
_symmetry_space_group_name_H-M "C 2/C"
_symmetry_group_IT_number 15
_symmetry_cell_setting 'monoclinic'
loop_
_space_group_symop_operation_xyz
x,y,z
-x,y,1/2-z
-x,-y,-z
x,-y,1/2+z
1/2+x,1/2+y,z
1/2-x,1/2+y,1/2-z
1/2-x,1/2-y,-z
1/2+x,1/2-y,1/2+z
loop_
_atom_site_type_symbol
_atom_site_label
_atom_site_fract_x
_atom_site_fract_y
_atom_site_fract_z
Si Si1 0.845229 0.383264 0.162124
Si Si2 0.144172 0.183640 0.239562
Si Si3 0.314760 0.108182 0.224075
Si Si4 0.828042 0.865379 0.492306
Si Si5 0.560112 0.237922 0.372245
Si Si6 0.917904 0.327965 0.961416
Si Si7 0.500000 0.437768 0.750000
Si Si8 0.923035 0.952125 0.038614
O O1 0.862925 0.302665 0.263093
O O2 0.832234 0.494931 0.196646
O O3 0.760670 0.348114 0.080931
O O4 0.909755 0.371358 0.082222
O O5 0.221189 0.141412 0.198558
O O6 0.162738 0.156363 0.374479
O O7 0.057334 0.132278 0.191999
O O8 0.364377 0.180944 0.157567
O O9 0.353611 0.122793 0.358359
O O10 0.891092 0.788404 0.457070
O O11 0.849704 0.979692 0.475402
O O12 0.500000 0.263848 0.250000
O O13 0.505999 0.167831 0.434413
O O14 0.584055 0.335101 0.449951
O O15 0.560679 0.509321 0.831635
O O16 0.000000 0.000000 0.000000
#
# Coordination Sequence:
#
# PCOD9266571 Si02
#       8
#     8   8   8   8   8   8   4   8
#     4  11  22  40  65  90 119 176 209 251 312 377
#     4  10  21  41  63  89 128 158 210 259 310 369
#     4  11  23  38  64  92 123 168 208 260 313 362
#     4  10  19  37  68  88 119 161 210 251 313 382
#     4  10  22  39  61  91 127 162 206 261 310 368
#     4  10  19  42  62  87 123 161 217 254 298 392
#     4  10  24  38  58  98 122 156 206 260 308 368
#     4  11  21  36  64  96 120 157 196 262 324 363
#
# _framework density 22.390546000000001
#
# number of rings (size 3 to 8) (size 9 to 14) (size 15 to 20)
#    0.000    1.600    4.667    0.800    1.867    2.667 
#    3.600    2.000    0.000    0.000    0.000    0.000 
#    0.000    0.000    0.000    0.000    0.000    0.000 
#
# Total GULP energy -167582.435012 kJ/mol
# GULP energy per Si atom -5586.081167 kJ/mol
# Density = 2.233958 g / cm^3
# Si number density = 22.390546 Si / 1000 Ang^3
#
#
#
# Elastic Constant Matrix: (Units=GPa)
#
#
# Indices 1 2 3 4 5 6 
#
# 1 95.1737 33.6663 11.1624 0.0000 -25.2992 0.0000
# 2 33.6663 142.9945 34.0073 0.0000 -13.5953 0.0000
# 3 11.1624 34.0073 44.9362 0.0000 -12.3102 0.0000
# 4 0.0000 0.0000 0.0000 33.0301 0.0000 3.3820
# 5 -25.2992 -13.5953 -12.3102 0.0000 34.3965 0.0000
# 6 0.0000 0.0000 0.0000 3.3820 0.0000 25.8882
#
#
#
# Elastic Compliance Matrix: (Units=1/GPa)
#
#
# Indices 1 2 3 4 5 6 
#
# 1 0.013841 -0.002628 0.001170 0.000000 0.009560 0.000000
# 2 -0.002628 0.009070 -0.006385 0.000000 -0.000633 0.000000
# 3 0.001170 -0.006385 0.029203 0.000000 0.008788 0.000000
# 4 0.000000 0.000000 0.000000 0.030686 0.000000 -0.004009
# 5 0.009560 -0.000633 0.008788 0.000000 0.038999 0.000000
# 6 0.000000 0.000000 0.000000 -0.004009 0.000000 0.039151
#
#
# Mechanical properties :
#
#
# Convention : Reuss Voigt Hill
#
# Bulk Modulus (GPa) = 27.45185 48.97515 38.21350
# Shear Modulus (GPa) = 26.48597 32.28085 29.38341
#
# Velocity S-wave (km/s) = 3.44308 3.80112 3.62652
# Velocity P-wave (km/s) = 5.30032 6.41757 5.88552
#
# Compressibility (1/GPa) = 0.03642742
#
# Stress axis : x y z
#
# Youngs Moduli (GPa) = 72.25031 110.25034 34.24338
#
# Poissons Ratio (x) = 0.28972 -0.04005
# Poissons Ratio (y) = 0.18986 0.21864
# Poissons Ratio (z) = -0.08450 0.70394
#
# Static dielectric constant tensor:
#      x y z
#    x 1.842560 0.000000 0.016280 
#    y 0.000000 1.835860 0.000000 
#    z 0.016280 0.000000 1.918510 
# 
# From -- ./inp_files/160931.got.cif
#   From: 2010.05.17/outbox.cif.g08.bks.cpg/sg15_81_cif.got.tgz:160931.got - 2010.06.03 18:47:42.
