data_PCOD9266613
_publ_section_title
;
Structure prediction by ZEFSAII (Michael W. Deem and Ramdas Pophale) SiO2 
 PCOD9266613
Probable space group: C 2/C
;
_chemical_formula_sum "Si O2"
_cell_formula_units_Z 56
_cell_length_a 11.009667
_cell_length_b 22.784886
_cell_length_c 13.580665
_cell_angle_alpha 90.000000
_cell_angle_beta 123.615600
_cell_angle_gamma 90.000000
_cell_volume 2837.052886
_symmetry_space_group_name_H-M "C 2/C"
_symmetry_group_IT_number 15
_symmetry_cell_setting 'monoclinic'
loop_
_space_group_symop_operation_xyz
x,y,z
-x,y,1/2-z
-x,-y,-z
x,-y,1/2+z
1/2+x,1/2+y,z
1/2-x,1/2+y,1/2-z
1/2-x,1/2-y,-z
1/2+x,1/2-y,1/2+z
loop_
_atom_site_type_symbol
_atom_site_label
_atom_site_fract_x
_atom_site_fract_y
_atom_site_fract_z
Si Si1 0.500000 0.487944 0.750000
Si Si2 0.462395 0.170972 0.529763
Si Si3 0.322627 0.418402 0.040512
Si Si4 0.771620 0.282330 0.779025
Si Si5 0.014789 0.443381 0.573178
Si Si6 0.000000 0.717009 0.750000
Si Si7 0.791803 0.082804 0.303245
Si Si8 0.283858 0.705607 0.604926
O O1 0.600656 0.531336 0.860809
O O2 0.599981 0.446539 0.726775
O O3 0.375366 0.214865 0.420184
O O4 0.425189 0.107025 0.472743
O O5 0.432345 0.179214 0.631013
O O6 0.631445 0.181825 0.581494
O O7 0.360806 0.353213 0.099009
O O8 0.357357 0.424733 0.941110
O O9 0.146449 0.425100 0.965107
O O10 0.620900 0.255921 0.750741
O O11 0.738623 0.347779 0.725230
O O12 0.841941 0.243768 0.723070
O O13 0.133861 0.447451 0.713090
O O14 0.000000 0.500000 0.500000
O O15 0.250000 0.750000 0.500000
#
# Coordination Sequence:
#
# PCOD9266613 Si02
#       8
#     4   8   8   8   8   4   8   8
#     4  12  25  40  60  92 136 165 202 254 314 388
#     4   9  21  34  60  85 115 155 198 246 295 359
#     4  11  23  41  62  94 123 161 210 258 312 366
#     4  10  20  37  62  88 117 161 201 249 308 361
#     4  10  20  42  62  86 116 158 209 259 299 354
#     4  10  19  38  54  88 128 151 192 244 302 374
#     4  11  22  41  65  89 123 167 209 254 305 377
#     4  10  20  38  60  87 120 151 203 256 301 364
#
# _framework density 19.738793000000001
#
# number of rings (size 3 to 8) (size 9 to 14) (size 15 to 20)
#    0.000    1.714    2.857    1.714    0.000    1.714 
#    2.571    0.000    3.143    0.000    0.000    0.000 
#    0.000    0.000    0.000    0.000    0.000    0.000 
#
# Total GULP energy -156215.448843 kJ/mol
# GULP energy per Si atom -5579.123173 kJ/mol
# Density = 1.969387 g / cm^3
# Si number density = 19.738793 Si / 1000 Ang^3
#
#
#
# Elastic Constant Matrix: (Units=GPa)
#
#
# Indices 1 2 3 4 5 6 
#
# 1 62.9591 22.6241 30.1451 0.0000 -8.1785 0.0000
# 2 22.6241 92.5631 42.4369 0.0000 -15.6784 0.0000
# 3 30.1451 42.4369 144.6449 0.0000 -25.0923 0.0000
# 4 0.0000 0.0000 0.0000 27.3564 0.0000 1.6621
# 5 -8.1785 -15.6784 -25.0923 0.0000 31.4207 0.0000
# 6 0.0000 0.0000 0.0000 1.6621 0.0000 16.6115
#
#
#
# Elastic Compliance Matrix: (Units=1/GPa)
#
#
# Indices 1 2 3 4 5 6 
#
# 1 0.018444 -0.003062 -0.002760 0.000000 0.001069 0.000000
# 2 -0.003062 0.013402 -0.002637 0.000000 0.003784 0.000000
# 3 -0.002760 -0.002637 0.009182 0.000000 0.005298 0.000000
# 4 0.000000 0.000000 0.000000 0.036778 0.000000 -0.003680
# 5 0.001069 0.003784 0.005298 0.000000 0.038223 0.000000
# 6 0.000000 0.000000 0.000000 -0.003680 0.000000 0.060568
#
#
# Mechanical properties :
#
#
# Convention : Reuss Voigt Hill
#
# Bulk Modulus (GPa) = 41.47825 54.50880 47.99353
# Shear Modulus (GPa) = 24.80761 28.74179 26.77470
#
# Velocity S-wave (km/s) = 3.54898 3.82004 3.68700
# Velocity P-wave (km/s) = 6.15247 6.86527 6.51862
#
# Compressibility (1/GPa) = 0.02410902
#
# Stress axis : x y z
#
# Youngs Moduli (GPa) = 54.21838 74.61648 108.91406
#
# Poissons Ratio (x) = 0.22844 0.30063
# Poissons Ratio (y) = 0.16599 0.28725
# Poissons Ratio (z) = 0.14966 0.19679
#
# Static dielectric constant tensor:
#      x y z
#    x 1.697990 0.000000 0.038570 
#    y 0.000000 1.730280 0.000000 
#    z 0.038570 0.000000 1.750350 
# 
# From -- ./inp_files/90951.got.cif
#   From: 2010.05.17/outbox.cif.g08.bks.cpg/sg15_46_cif.got.tgz:90951.got - 2010.06.03 18:47:42.
