data_PCOD9266417
_publ_section_title
;
Structure prediction by ZEFSAII (Michael W. Deem and Ramdas Pophale) SiO2 
 PCOD9266417
Probable space group: C 2/C
;
_chemical_formula_sum "Si O2"
_cell_formula_units_Z 56
_cell_length_a 16.438540
_cell_length_b 10.263051
_cell_length_c 26.121281
_cell_angle_alpha 90.000000
_cell_angle_beta 32.381986
_cell_angle_gamma 90.000000
_cell_volume 2360.170594
_symmetry_space_group_name_H-M "C 2/C"
_symmetry_group_IT_number 15
_symmetry_cell_setting 'monoclinic'
loop_
_space_group_symop_operation_xyz
x,y,z
-x,y,1/2-z
-x,-y,-z
x,-y,1/2+z
1/2+x,1/2+y,z
1/2-x,1/2+y,1/2-z
1/2-x,1/2-y,-z
1/2+x,1/2-y,1/2+z
loop_
_atom_site_type_symbol
_atom_site_label
_atom_site_fract_x
_atom_site_fract_y
_atom_site_fract_z
Si Si1 0.957169 0.927345 0.216511
Si Si2 0.008312 0.182066 0.533308
Si Si3 0.756595 0.385865 0.252954
Si Si4 0.776383 0.894982 0.505897
Si Si5 0.652991 0.756095 0.981275
Si Si6 0.480838 0.034415 0.420373
Si Si7 0.982860 0.204878 0.338634
O O1 0.824765 0.847724 0.257950
O O2 0.000000 0.879366 0.250000
O O3 0.100769 0.933878 0.102224
O O4 0.928790 0.082497 0.232906
O O5 0.882195 0.110320 0.634810
O O6 0.942011 0.186547 0.512445
O O7 0.162113 0.110786 0.469359
O O8 0.027585 0.332466 0.542939
O O9 0.846677 0.514239 0.188365
O O10 0.884562 0.301277 0.212977
O O11 0.750000 0.750000 0.500000
O O12 0.618970 0.963086 0.578305
O O13 0.837155 0.755113 0.880957
O O14 0.604632 0.687782 0.060097
O O15 0.589190 0.906200 0.014909
#
# Coordination Sequence:
#
# PCOD9266417 Si02
#       7
#     8   8   8   8   8   8   8
#     4  11  23  40  67  92 120 163 210 255 303 364
#     4  10  21  37  61  92 124 159 204 258 308 358
#     4  10  23  36  56  95 128 156 197 260 310 354
#     4   9  20  38  60  91 125 158 202 258 305 361
#     4  10  21  37  63  89 119 160 206 255 304 367
#     4  10  19  37  64  91 122 162 209 251 301 369
#     4  10  22  38  60  91 125 152 203 261 304 358
#
# _framework density 23.7271
#
# number of rings (size 3 to 8) (size 9 to 14) (size 15 to 20)
#    0.000    2.000    1.429    1.286    4.000    4.571 
#    0.000    2.857    3.143    5.143    0.000    0.000 
#    0.000    0.000    0.000    0.000    0.000    0.000 
#
# Total GULP energy -156052.119005 kJ/mol
# GULP energy per Si atom -5573.289964 kJ/mol
# Density = 2.367310 g / cm^3
# Si number density = 23.727100 Si / 1000 Ang^3
#
#
#
# Elastic Constant Matrix: (Units=GPa)
#
#
# Indices 1 2 3 4 5 6 
#
# 1 200.3590 11.3603 26.6854 0.0000 -17.1563 0.0000
# 2 11.3603 39.3935 4.1899 0.0000 2.2408 0.0000
# 3 26.6854 4.1899 28.9147 -0.0001 -23.9681 0.0000
# 4 0.0000 0.0000 -0.0001 -19.8153 0.0000 -4.6571
# 5 -17.1563 2.2408 -23.9681 0.0000 30.1742 0.0000
# 6 0.0000 0.0000 0.0000 -4.6571 0.0000 39.6113
#
#
#
# Elastic Compliance Matrix: (Units=1/GPa)
#
#
# Indices 1 2 3 4 5 6 
#
# 1 0.005790 -0.000771 -0.007189 0.000000 -0.002361 0.000000
# 2 -0.000771 0.028178 -0.016013 0.000000 -0.015251 0.000000
# 3 -0.007189 -0.016013 0.120437 0.000000 0.092767 0.000000
# 4 0.000000 0.000000 0.000000 -0.049109 0.000000 -0.005774
# 5 -0.002361 -0.015251 0.092767 0.000000 0.106618 0.000000
# 6 0.000000 0.000000 0.000000 -0.005774 0.000000 0.024567
#
#
# Mechanical properties :
#
#
# Convention : Reuss Voigt Hill
#
# Bulk Modulus (GPa) = 9.39340 39.23762 24.31551
# Shear Modulus (GPa) = 15.62925 25.08946 20.35936
#
# Velocity S-wave (km/s) = 2.56932 3.25532 2.93245
# Velocity P-wave (km/s) = 3.57343 5.54098 4.66218
#
# Compressibility (1/GPa) = 0.10645775
#
# Stress axis : x y z
#
# Youngs Moduli (GPa) = 172.70926 35.48887 8.30312
#
# Poissons Ratio (x) = 0.02735 0.05969
# Poissons Ratio (y) = 0.13312 0.13296
# Poissons Ratio (z) = 1.24166 0.56830
#
# Static dielectric constant tensor:
#      x y z
#    x 1.936670 0.000000 -0.003130 
#    y 0.000000 1.932670 0.000000 
#    z -0.003130 0.000000 1.860710 
# 
# From -- ./inp_files/181918.got.cif
#   From: 2010.05.17/outbox.cif.g08.bks.cpg/sg15_91_cif.got.tgz:181918.got - 2010.06.03 18:47:42.
