data_PCOD9266848
_publ_section_title
;
Structure prediction by ZEFSAII (Michael W. Deem and Ramdas Pophale) SiO2 
 PCOD9266848
Probable space group: C 2/C
;
_chemical_formula_sum "Si O2"
_cell_formula_units_Z 60
_cell_length_a 28.245861
_cell_length_b 15.425091
_cell_length_c 13.488511
_cell_angle_alpha 90.000000
_cell_angle_beta 34.703109
_cell_angle_gamma 90.000000
_cell_volume 3345.847613
_symmetry_space_group_name_H-M "C 2/C"
_symmetry_group_IT_number 15
_symmetry_cell_setting 'monoclinic'
loop_
_space_group_symop_operation_xyz
x,y,z
-x,y,1/2-z
-x,-y,-z
x,-y,1/2+z
1/2+x,1/2+y,z
1/2-x,1/2+y,1/2-z
1/2-x,1/2-y,-z
1/2+x,1/2-y,1/2+z
loop_
_atom_site_type_symbol
_atom_site_label
_atom_site_fract_x
_atom_site_fract_y
_atom_site_fract_z
Si Si1 0.439662 0.985072 0.946500
Si Si2 0.254919 0.978000 0.181463
Si Si3 0.286547 0.292946 0.241106
Si Si4 0.044231 0.309525 0.069663
Si Si5 0.721709 0.125021 0.044756
Si Si6 0.975428 0.671167 0.105767
Si Si7 0.500000 0.701985 0.750000
Si Si8 0.319042 0.361603 0.584150
O O1 0.500000 0.967399 0.750000
O O2 0.469979 0.915647 0.974323
O O3 0.447731 0.086527 0.956150
O O4 0.345486 0.972942 0.074644
O O5 0.208392 0.891976 0.302195
O O6 0.209307 0.065425 0.290020
O O7 0.268183 0.961501 0.040911
O O8 0.267093 0.307226 0.391770
O O9 0.210724 0.234801 0.332559
O O10 0.367697 0.238065 0.080495
O O11 0.000000 0.292699 0.250000
O O12 0.003474 0.283636 0.035259
O O13 0.623542 0.146632 0.222622
O O14 0.768212 0.119423 0.069382
O O15 0.991967 0.735579 0.168313
O O16 0.583101 0.644690 0.601118
#
# Coordination Sequence:
#
# PCOD9266848 Si02
#       8
#     8   8   8   8   8   8   4   8
#     4  11  18  34  57  95 125 148 195 259 319 359
#     4  10  22  36  59  93 122 160 201 252 305 370
#     4  10  19  38  62  86 116 161 208 245 301 371
#     4  11  24  35  57  88 130 171 192 237 313 395
#     4  10  20  37  70  91 114 161 211 257 316 356
#     4  12  19  38  62  98 120 149 208 269 311 359
#     4  12  24  36  68  92 116 152 218 274 302 332
#     4  12  21  41  61  93 122 159 205 265 304 360
#
# _framework density 17.932675
#
# number of rings (size 3 to 8) (size 9 to 14) (size 15 to 20)
#    0.800    0.267    6.000    2.400    0.000    0.000 
#    1.200    2.000    0.000    2.400    0.000    0.000 
#    0.000    0.000    0.000    0.000    0.000    0.000 
#
# Total GULP energy -167179.882205 kJ/mol
# GULP energy per Si atom -5572.662740 kJ/mol
# Density = 1.789186 g / cm^3
# Si number density = 17.932675 Si / 1000 Ang^3
#
#
#
# Elastic Constant Matrix: (Units=GPa)
#
#
# Indices 1 2 3 4 5 6 
#
# 1 82.9479 8.9338 31.3588 0.0000 7.0523 0.0000
# 2 8.9338 46.7549 15.9069 0.0000 8.3264 0.0000
# 3 31.3588 15.9069 68.1193 0.0000 8.3764 0.0000
# 4 0.0000 0.0000 0.0000 35.5560 0.0000 2.4622
# 5 7.0523 8.3264 8.3764 0.0000 32.0796 0.0000
# 6 0.0000 0.0000 0.0000 2.4622 0.0000 16.5245
#
#
#
# Elastic Compliance Matrix: (Units=1/GPa)
#
#
# Indices 1 2 3 4 5 6 
#
# 1 0.014671 -0.000336 -0.006498 0.000000 -0.001441 0.000000
# 2 -0.000336 0.023969 -0.004842 0.000000 -0.004883 0.000000
# 3 -0.006498 -0.004842 0.019085 0.000000 -0.002298 0.000000
# 4 0.000000 0.000000 0.000000 0.028418 0.000000 -0.004234
# 5 -0.001441 -0.004883 -0.002298 0.000000 0.033357 0.000000
# 6 0.000000 0.000000 0.000000 -0.004234 0.000000 0.061147
#
#
# Mechanical properties :
#
#
# Convention : Reuss Voigt Hill
#
# Bulk Modulus (GPa) = 29.09263 34.46901 31.78082
# Shear Modulus (GPa) = 23.20648 26.27354 24.74001
#
# Velocity S-wave (km/s) = 3.60125 3.83184 3.71833
# Velocity P-wave (km/s) = 5.79227 6.23221 6.01626
#
# Compressibility (1/GPa) = 0.03437297
#
# Stress axis : x y z
#
# Youngs Moduli (GPa) = 68.16095 41.71999 52.39753
#
# Poissons Ratio (x) = 0.01401 0.34049
# Poissons Ratio (y) = 0.02289 0.25372
# Poissons Ratio (z) = 0.44293 0.20201
#
# Static dielectric constant tensor:
#      x y z
#    x 1.655470 0.000000 0.018830 
#    y 0.000000 1.647630 0.000000 
#    z 0.018830 0.000000 1.618720 
# 
# From -- ./inp_files/182305.got.cif
#   From: 2010.05.17/outbox.cif.g08.bks.cpg/sg15_92_cif.got.tgz:182305.got - 2010.06.03 18:47:42.
