data_PCOD9266401
_publ_section_title
;
Structure prediction by ZEFSAII (Michael W. Deem and Ramdas Pophale) SiO2 
 PCOD9266401
Probable space group: C 2/C
;
_chemical_formula_sum "Si O2"
_cell_formula_units_Z 52
_cell_length_a 8.645286
_cell_length_b 19.559670
_cell_length_c 22.441640
_cell_angle_alpha 90.000000
_cell_angle_beta 38.054544
_cell_angle_gamma 90.000000
_cell_volume 2339.193314
_symmetry_space_group_name_H-M "C 2/C"
_symmetry_group_IT_number 15
_symmetry_cell_setting 'monoclinic'
loop_
_space_group_symop_operation_xyz
x,y,z
-x,y,1/2-z
-x,-y,-z
x,-y,1/2+z
1/2+x,1/2+y,z
1/2-x,1/2+y,1/2-z
1/2-x,1/2-y,-z
1/2+x,1/2-y,1/2+z
loop_
_atom_site_type_symbol
_atom_site_label
_atom_site_fract_x
_atom_site_fract_y
_atom_site_fract_z
Si Si1 0.490825 0.742252 0.882009
Si Si2 0.863834 0.378906 0.614400
Si Si3 0.821829 0.564804 0.571188
Si Si4 0.518875 0.318100 0.613315
Si Si5 0.500000 0.154844 0.750000
Si Si6 0.000000 0.281224 0.750000
Si Si7 0.500000 0.505587 0.250000
Si Si8 0.925372 0.652686 0.901397
O O1 0.611662 0.817241 0.849126
O O2 0.729121 0.695052 0.827568
O O3 0.433629 0.734983 0.828721
O O4 0.250000 0.750000 0.000000
O O5 0.674206 0.353251 0.619347
O O6 0.740632 0.445255 0.680690
O O7 0.133622 0.391052 0.501164
O O8 0.555531 0.538161 0.674152
O O9 0.000000 0.500000 0.500000
O O10 0.922534 0.609398 0.595929
O O11 0.230360 0.330566 0.693063
O O12 0.649465 0.342805 0.512991
O O13 0.520164 0.234773 0.620234
O O14 0.469113 0.120584 0.823689
#
# Coordination Sequence:
#
# PCOD9266401 Si02
#       8
#     8   8   8   8   4   4   4   8
#     4  12  25  36  59  95 136 173 214 258 335 414
#     4  10  20  40  62  85 130 170 205 268 329 396
#     4   9  21  36  59  89 113 158 224 262 303 364
#     4  10  20  36  60  88 126 176 204 263 342 388
#     4  12  21  40  56  91 135 177 202 258 354 402
#     4  12  22  33  52  93 133 163 214 254 304 426
#     4  10  19  37  64  88 116 166 222 266 308 366
#     4  10  20  35  60  83 130 165 211 263 331 393
#
# _framework density 22.229887000000002
#
# number of rings (size 3 to 8) (size 9 to 14) (size 15 to 20)
#    0.000    1.538    3.077    2.308    4.308    1.846 
#    0.000    0.000    0.000    8.308    0.000   31.231 
#    0.000    0.000    0.000    0.000    0.000    0.000 
#
# Total GULP energy -144805.105370 kJ/mol
# GULP energy per Si atom -5569.427130 kJ/mol
# Density = 2.217929 g / cm^3
# Si number density = 22.229887 Si / 1000 Ang^3
#
#
#
# Elastic Constant Matrix: (Units=GPa)
#
#
# Indices 1 2 3 4 5 6 
#
# 1 69.9462 14.6829 56.6658 -0.0037 9.5669 0.0097
# 2 14.6829 55.1376 13.9367 -0.0311 4.3387 0.0120
# 3 56.6658 13.9367 170.6778 0.0138 5.4521 0.0315
# 4 -0.0037 -0.0311 0.0138 25.2789 -0.0165 -2.0934
# 5 9.5669 4.3387 5.4521 -0.0165 39.2224 -0.0102
# 6 0.0097 0.0120 0.0315 -2.0934 -0.0102 4.5233
#
#
#
# Elastic Compliance Matrix: (Units=1/GPa)
#
#
# Indices 1 2 3 4 5 6 
#
# 1 0.020840 -0.003608 -0.006504 0.000000 -0.003780 0.000002
# 2 -0.003608 0.019278 -0.000338 0.000020 -0.001205 -0.000035
# 3 -0.006504 -0.000338 0.008030 -0.000009 0.000508 -0.000044
# 4 0.000000 0.000020 -0.000009 0.041135 0.000021 0.019037
# 5 -0.003780 -0.001205 0.000508 0.000021 0.026480 0.000077
# 6 0.000002 -0.000035 -0.000044 0.019037 0.000077 0.229889
#
#
# Mechanical properties :
#
#
# Convention : Reuss Voigt Hill
#
# Bulk Modulus (GPa) = 36.69986 51.81470 44.25728
# Shear Modulus (GPa) = 13.31083 27.83665 20.57374
#
# Velocity S-wave (km/s) = 2.44965 3.54251 3.04550
# Velocity P-wave (km/s) = 4.95441 6.33180 5.68497
#
# Compressibility (1/GPa) = 0.02724806
#
# Stress axis : x y z
#
# Youngs Moduli (GPa) = 47.98479 51.87388 124.53952
#
# Poissons Ratio (x) = 0.18718 0.80995
# Poissons Ratio (y) = 0.17314 0.04205
# Poissons Ratio (z) = 0.31207 0.01751
#
# Static dielectric constant tensor:
#      x y z
#    x 1.854550 -0.000010 0.014860 
#    y -0.000010 1.879820 0.000020 
#    z 0.014860 0.000020 1.916810 
# 
# From -- ./inp_files/266062.got.cif
#   From: 2010.05.17/outbox.cif.g08.bks.cpg/sg15_134_cif.got.tgz:266062.got - 2010.06.03 18:47:42.
