data_PCOD9266647
_publ_section_title
;
Structure prediction by ZEFSAII (Michael W. Deem and Ramdas Pophale) SiO2 
 PCOD9266647
Probable space group: C 2/C
;
_chemical_formula_sum "Si O2"
_cell_formula_units_Z 52
_cell_length_a 18.803981
_cell_length_b 20.324165
_cell_length_c 8.448637
_cell_angle_alpha 90.000000
_cell_angle_beta 49.157697
_cell_angle_gamma 90.000000
_cell_volume 2442.672393
_symmetry_space_group_name_H-M "C 2/C"
_symmetry_group_IT_number 15
_symmetry_cell_setting 'monoclinic'
loop_
_space_group_symop_operation_xyz
x,y,z
-x,y,1/2-z
-x,-y,-z
x,-y,1/2+z
1/2+x,1/2+y,z
1/2-x,1/2+y,1/2-z
1/2-x,1/2-y,-z
1/2+x,1/2-y,1/2+z
loop_
_atom_site_type_symbol
_atom_site_label
_atom_site_fract_x
_atom_site_fract_y
_atom_site_fract_z
Si Si1 0.000000 0.678349 0.750000
Si Si2 0.500000 0.642505 0.250000
Si Si3 0.500000 0.970532 0.750000
Si Si4 0.063717 0.836129 0.002294
Si Si5 0.291785 0.451112 0.746182
Si Si6 0.711440 0.590042 0.899325
Si Si7 0.104577 0.422675 0.882160
Si Si8 0.328202 0.781247 0.272942
O O1 0.058613 0.637681 0.536897
O O2 0.083901 0.706225 0.737667
O O3 0.491322 0.672844 0.085116
O O4 0.397585 0.609354 0.415566
O O5 0.567800 0.928379 0.759679
O O6 0.563708 0.015190 0.541916
O O7 0.114837 0.907678 0.917505
O O8 0.138217 0.775930 0.895278
O O9 0.000000 0.833895 0.250000
O O10 0.293436 0.529033 0.713561
O O11 0.215116 0.422690 0.737892
O O12 0.256658 0.437090 0.975148
O O13 0.780302 0.652507 0.770250
O O14 0.250000 0.750000 0.500000
#
# Coordination Sequence:
#
# PCOD9266647 Si02
#       8
#     4   4   4   8   8   8   8   8
#     4  11  23  40  72  92 132 187 235 294 367 425
#     4  10  23  46  75 106 149 193 244 312 381 430
#     4   9  20  30  61  84 143 168 237 268 364 423
#     4  11  26  48  75 108 145 196 251 309 370 454
#     4  11  23  42  68 105 149 181 250 302 375 441
#     4  11  25  41  73 108 143 198 240 314 376 447
#     4  10  19  38  57  97 130 191 220 299 350 435
#     4  12  23  48  74 103 143 200 250 295 382 452
#
# _framework density 21.288160000000001
#
# number of rings (size 3 to 8) (size 9 to 14) (size 15 to 20)
#    0.000    1.231    4.615    1.385    7.538    1.231 
#    1.385    0.769    0.000    0.000    0.000    0.000 
#    0.000    0.000    0.000    0.000    0.000    0.000 
#
# Total GULP energy -144935.150562 kJ/mol
# GULP energy per Si atom -5574.428868 kJ/mol
# Density = 2.123971 g / cm^3
# Si number density = 21.288160 Si / 1000 Ang^3
#
#
#
# Elastic Constant Matrix: (Units=GPa)
#
#
# Indices 1 2 3 4 5 6 
#
# 1 113.3396 33.0159 12.0886 0.0000 -8.1365 0.0000
# 2 33.0159 111.0304 30.7305 0.0000 -0.3241 0.0000
# 3 12.0886 30.7305 73.3673 0.0000 4.4680 0.0000
# 4 0.0000 0.0000 0.0000 -87.7492 0.0000 -75.3814
# 5 -8.1365 -0.3241 4.4680 0.0000 33.6892 0.0000
# 6 0.0000 0.0000 0.0000 -75.3814 0.0000 -48.6408
#
#
#
# Elastic Compliance Matrix: (Units=1/GPa)
#
#
# Indices 1 2 3 4 5 6 
#
# 1 0.009867 -0.002755 -0.000620 0.000000 0.002439 0.000000
# 2 -0.002755 0.010972 -0.004141 0.000000 -0.000011 0.000000
# 3 -0.000620 -0.004141 0.015604 0.000000 -0.002259 0.000000
# 4 0.000000 0.000000 0.000000 0.034395 0.000000 -0.053304
# 5 0.002439 -0.000011 -0.002259 0.000000 0.030572 0.000000
# 6 0.000000 0.000000 0.000000 -0.053304 0.000000 0.062050
#
#
# Mechanical properties :
#
#
# Convention : Reuss Voigt Hill
#
# Bulk Modulus (GPa) = 46.70685 49.93417 48.32051
# Shear Modulus (GPa) = 26.93533 -5.74668 10.59433
#
# Velocity S-wave (km/s) = 3.56093 -1.64479 2.23326
# Velocity P-wave (km/s) = 6.23657 4.46096 5.42195
#
# Compressibility (1/GPa) = 0.02141013
#
# Stress axis : x y z
#
# Youngs Moduli (GPa) = 101.34928 91.14149 64.08469
#
# Poissons Ratio (x) = 0.25112 0.03975
# Poissons Ratio (y) = 0.27924 0.26538
# Poissons Ratio (z) = 0.06286 0.37742
#
# Static dielectric constant tensor:
#      x y z
#    x 1.736960 0.000000 0.025770 
#    y 0.000000 1.835380 0.000000 
#    z 0.025770 0.000000 1.722640 
# 
# From -- ./inp_files/50605.got.cif
#   From: 2010.05.17/outbox.cif.g08.bks.cpg/sg15_26_cif.got.tgz:50605.got - 2010.06.03 18:47:42.
