data_PCOD9266052
_publ_section_title
;
Structure prediction by ZEFSAII (Michael W. Deem and Ramdas Pophale) SiO2 
 PCOD9266052
Probable space group: C 2/C
;
_chemical_formula_sum "Si O2"
_cell_formula_units_Z 44
_cell_length_a 18.210523
_cell_length_b 14.819598
_cell_length_c 8.668333
_cell_angle_alpha 90.000000
_cell_angle_beta 66.793400
_cell_angle_gamma 90.000000
_cell_volume 2150.069249
_symmetry_space_group_name_H-M "C 2/C"
_symmetry_group_IT_number 15
_symmetry_cell_setting 'monoclinic'
loop_
_space_group_symop_operation_xyz
x,y,z
-x,y,1/2-z
-x,-y,-z
x,-y,1/2+z
1/2+x,1/2+y,z
1/2-x,1/2+y,1/2-z
1/2-x,1/2-y,-z
1/2+x,1/2-y,1/2+z
loop_
_atom_site_type_symbol
_atom_site_label
_atom_site_fract_x
_atom_site_fract_y
_atom_site_fract_z
Si Si1 0.550060 0.204458 0.955236
Si Si2 0.369557 0.042944 0.442351
Si Si3 0.407313 0.395001 0.536289
Si Si4 0.000000 0.969652 0.750000
Si Si5 0.774617 0.418693 0.718411
Si Si6 0.609007 0.162183 0.581549
O O1 0.572398 0.114078 0.027390
O O2 0.572950 0.293302 0.029971
O O3 0.602518 0.205633 0.754081
O O4 0.459027 0.202308 0.972260
O O5 0.332976 0.081876 0.316843
O O6 0.295916 0.013362 0.615451
O O7 0.409568 0.945234 0.381584
O O8 0.459298 0.412906 0.647914
O O9 0.434967 0.466314 0.385697
O O10 0.315338 0.408138 0.655740
O O11 0.805771 0.342650 0.573227
#
# Coordination Sequence:
#
# PCOD9266052 Si02
#       6
#     8   8   8   4   8   8
#     4  11  21  37  62  93 125 157 218 245 303 361
#     4  10  19  37  59  90 126 166 194 253 306 378
#     4  11  24  43  67  89 118 165 209 264 295 377
#     4  10  24  46  64  84 120 166 208 250 322 356
#     4  10  21  37  60  88 124 166 199 244 322 352
#     4   9  20  37  58  91 124 165 192 250 308 370
#
# _framework density 20.464458
#
# number of rings (size 3 to 8) (size 9 to 14) (size 15 to 20)
#    1.091    0.727    1.818    2.727    0.000    3.636 
#    0.000    3.636    0.000    0.000    0.000    0.000 
#    0.000    0.000    0.000    0.000    0.000    0.000 
#
# Total GULP energy -122744.688740 kJ/mol
# GULP energy per Si atom -5579.304034 kJ/mol
# Density = 2.041788 g / cm^3
# Si number density = 20.464458 Si / 1000 Ang^3
#
#
#
# Elastic Constant Matrix: (Units=GPa)
#
#
# Indices 1 2 3 4 5 6 
#
# 1 25.8620 -4.6693 13.0151 0.0000 -18.2883 0.0000
# 2 -4.6693 60.7920 -9.8924 0.0000 -3.7633 0.0000
# 3 13.0151 -9.8924 58.4440 0.0000 -15.9692 0.0000
# 4 0.0000 0.0000 0.0000 9.7497 0.0000 2.5363
# 5 -18.2883 -3.7633 -15.9692 0.0000 39.3047 0.0000
# 6 0.0000 0.0000 0.0000 2.5363 0.0000 10.2010
#
#
#
# Elastic Compliance Matrix: (Units=1/GPa)
#
#
# Indices 1 2 3 4 5 6 
#
# 1 0.061400 0.005505 -0.005390 0.000000 0.026906 0.000000
# 2 0.005505 0.017758 0.003312 0.000000 0.005607 0.000000
# 3 -0.005390 0.003312 0.020555 0.000000 0.006160 0.000000
# 4 0.000000 0.000000 0.000000 0.109660 0.000000 -0.027265
# 5 0.026906 0.005607 0.006160 0.000000 0.041002 0.000000
# 6 0.000000 0.000000 0.000000 -0.027265 0.000000 0.104809
#
#
# Mechanical properties :
#
#
# Convention : Reuss Voigt Hill
#
# Bulk Modulus (GPa) = 9.38380 15.77831 12.58106
# Shear Modulus (GPa) = 13.02589 21.62739 17.32664
#
# Velocity S-wave (km/s) = 2.52566 3.25441 2.91292
# Velocity P-wave (km/s) = 3.61948 4.67423 4.18026
#
# Compressibility (1/GPa) = 0.10656661
#
# Stress axis : x y z
#
# Youngs Moduli (GPa) = 16.28673 56.31132 48.65107
#
# Poissons Ratio (x) = -0.30997 0.26222
# Poissons Ratio (y) = -0.08965 -0.16114
# Poissons Ratio (z) = 0.08778 -0.18651
#
# Static dielectric constant tensor:
#      x y z
#    x 1.694130 0.000000 -0.006890 
#    y 0.000000 1.713390 0.000000 
#    z -0.006890 0.000000 1.765480 
# 
# From -- ./inp_files/54907.got.cif
#   From: 2010.05.17/outbox.cif.g08.bks.cpg/sg15_28_cif.got.tgz:54907.got - 2010.06.03 18:47:42.
