data_PCOD9266122
_publ_section_title
;
Structure prediction by ZEFSAII (Michael W. Deem and Ramdas Pophale) SiO2 
 PCOD9266122
Probable space group: C 2/C
;
_chemical_formula_sum "Si O2"
_cell_formula_units_Z 52
_cell_length_a 24.527759
_cell_length_b 18.199521
_cell_length_c 11.621294
_cell_angle_alpha 90.000000
_cell_angle_beta 158.746867
_cell_angle_gamma 90.000000
_cell_volume 1880.473206
_symmetry_space_group_name_H-M "C 2/C"
_symmetry_group_IT_number 15
_symmetry_cell_setting 'monoclinic'
loop_
_space_group_symop_operation_xyz
x,y,z
-x,y,1/2-z
-x,-y,-z
x,-y,1/2+z
1/2+x,1/2+y,z
1/2-x,1/2+y,1/2-z
1/2-x,1/2-y,-z
1/2+x,1/2-y,1/2+z
loop_
_atom_site_type_symbol
_atom_site_label
_atom_site_fract_x
_atom_site_fract_y
_atom_site_fract_z
Si Si1 0.784274 0.878870 0.187845
Si Si2 0.618708 0.749899 0.146230
Si Si3 0.432587 0.399261 0.866904
Si Si4 0.000000 0.962569 0.250000
Si Si5 0.369370 0.908821 0.370274
Si Si6 0.656394 0.226079 0.115565
Si Si7 0.322864 0.937282 0.765250
O O1 0.698011 0.896482 0.135309
O O2 0.793707 0.790443 0.201038
O O3 0.958164 0.906385 0.528641
O O4 0.722091 0.920154 0.954370
O O5 0.750000 0.750000 0.500000
O O6 0.522009 0.681281 0.994070
O O7 0.548952 0.830926 0.996559
O O8 0.705757 0.726234 0.202761
O O9 0.266506 0.406598 0.489585
O O10 0.450123 0.445525 0.016055
O O11 0.178195 0.961150 0.556001
O O12 0.430824 0.991606 0.485204
O O13 0.625369 0.143069 0.092461
O O14 0.500000 0.252372 0.750000
#
# Coordination Sequence:
#
# PCOD9266122 Si02
#       7
#     8   8   8   4   8   8   8
#     4  10  22  38  62  94 120 159 209 252 305 357
#     4   9  18  35  60  85 113 156 210 245 289 358
#     4  10  19  37  60  87 120 159 201 252 306 363
#     4  10  22  34  58  90 120 152 194 246 318 358
#     4  10  22  35  60  90 127 159 199 251 309 371
#     4  11  21  40  63  86 120 166 215 242 290 370
#     4  11  24  37  61  90 131 155 194 259 310 361
#
# _framework density 27.652612999999999
#
# number of rings (size 3 to 8) (size 9 to 14) (size 15 to 20)
#    0.000    1.846    1.538    3.692    4.308    1.231 
#    0.000    0.000    1.692   11.077    0.000    0.000 
#    0.000    0.000    0.000    0.000    0.000    0.000 
#
# Total GULP energy -145051.436239 kJ/mol
# GULP energy per Si atom -5578.901394 kJ/mol
# Density = 2.758967 g / cm^3
# Si number density = 27.652613 Si / 1000 Ang^3
#
#
#
# Elastic Constant Matrix: (Units=GPa)
#
#
# Indices 1 2 3 4 5 6 
#
# 1 123.7975 30.9977 -6.5311 0.0000 12.0980 0.0000
# 2 30.9977 269.0619 19.2814 0.0000 -10.0110 0.0000
# 3 -6.5311 19.2814 77.1578 0.0000 -15.0562 0.0000
# 4 0.0000 0.0000 0.0000 9.1615 0.0000 1.5287
# 5 12.0980 -10.0110 -15.0562 0.0000 38.7045 0.0000
# 6 0.0000 0.0000 0.0000 1.5287 0.0000 3.6895
#
#
#
# Elastic Compliance Matrix: (Units=1/GPa)
#
#
# Indices 1 2 3 4 5 6 
#
# 1 0.008662 -0.001136 0.000467 0.000000 -0.002820 0.000000
# 2 -0.001136 0.003949 -0.000881 0.000000 0.001034 0.000000
# 3 0.000467 -0.000881 0.014227 0.000000 0.005161 0.000000
# 4 0.000000 0.000000 0.000000 0.117260 0.000000 -0.048587
# 5 -0.002820 0.001034 0.005161 0.000000 0.028993 0.000000
# 6 0.000000 0.000000 0.000000 -0.048587 0.000000 0.291172
#
#
# Mechanical properties :
#
#
# Convention : Reuss Voigt Hill
#
# Bulk Modulus (GPa) = 42.12773 61.94590 52.03681
# Shear Modulus (GPa) = 10.52015 38.72905 24.62460
#
# Velocity S-wave (km/s) = 1.95260 3.74646 2.98736
# Velocity P-wave (km/s) = 4.51124 6.41597 5.54599
#
# Compressibility (1/GPa) = 0.02373733
#
# Stress axis : x y z
#
# Youngs Moduli (GPa) = 115.44075 253.21877 70.28786
#
# Poissons Ratio (x) = 0.28775 -0.03282
# Poissons Ratio (y) = 0.13118 0.06195
# Poissons Ratio (z) = -0.05390 0.22317
#
# Static dielectric constant tensor:
#      x y z
#    x 2.120940 0.000000 0.106630 
#    y 0.000000 2.195970 0.000000 
#    z 0.106630 0.000000 2.252690 
# 
# From -- ./inp_files/123920.got.cif
#   From: 2010.05.17/outbox.cif.g08.bks.cpg/sg15_62_cif.got.tgz:123920.got - 2010.06.03 18:47:42.
