data_PCOD9266699
_publ_section_title
;
Structure prediction by ZEFSAII (Michael W. Deem and Ramdas Pophale) SiO2 
 PCOD9266699
Probable space group: C 2/C
;
_chemical_formula_sum "Si O2"
_cell_formula_units_Z 40
_cell_length_a 10.461672
_cell_length_b 30.557046
_cell_length_c 5.486495
_cell_angle_alpha 90.000000
_cell_angle_beta 69.681972
_cell_angle_gamma 90.000000
_cell_volume 1644.781811
_symmetry_space_group_name_H-M "C 2/C"
_symmetry_group_IT_number 15
_symmetry_cell_setting 'monoclinic'
loop_
_space_group_symop_operation_xyz
x,y,z
-x,y,1/2-z
-x,-y,-z
x,-y,1/2+z
1/2+x,1/2+y,z
1/2-x,1/2+y,1/2-z
1/2-x,1/2-y,-z
1/2+x,1/2-y,1/2+z
loop_
_atom_site_type_symbol
_atom_site_label
_atom_site_fract_x
_atom_site_fract_y
_atom_site_fract_z
Si Si1 0.135559 0.891182 0.520872
Si Si2 0.371060 0.859417 0.726127
Si Si3 0.692362 0.692625 0.742654
Si Si4 0.101352 0.727961 0.491445
Si Si5 0.843454 0.017064 0.641654
O O1 0.266759 0.883185 0.609380
O O2 0.099480 0.845682 0.413005
O O3 0.164045 0.930798 0.317712
O O4 0.000000 0.905442 0.750000
O O5 0.500000 0.886284 0.750000
O O6 0.454222 0.819482 0.545171
O O7 0.273326 0.832697 0.979534
O O8 0.774742 0.709687 0.925932
O O9 0.629271 0.740577 0.741950
O O10 0.000000 0.750669 0.750000
O O11 0.781784 0.006185 0.418021
O O12 0.000000 0.000000 0.500000
#
# Coordination Sequence:
#
# PCOD9266699 Si02
#       5
#     8   8   8   8   8
#     4  11  24  40  63 100 128 166 219 275 339 402
#     4  11  23  40  63  89 128 178 224 271 333 399
#     4  10  22  36  61  89 129 168 224 278 321 399
#     4  10  19  38  59  86 126 176 222 271 335 386
#     4  10  21  40  70  98 137 176 210 274 354 422
#
# _framework density 24.319333
#
# number of rings (size 3 to 8) (size 9 to 14) (size 15 to 20)
#    0.000    1.600    4.000    1.200    2.800    0.800 
#    3.600    0.000    0.000    1.200    0.000    0.000 
#    0.000    0.000    0.000    0.000    0.000    0.000 
#
# Total GULP energy -111342.527784 kJ/mol
# GULP energy per Si atom -5567.126389 kJ/mol
# Density = 2.426398 g / cm^3
# Si number density = 24.319333 Si / 1000 Ang^3
#
#
#
# Elastic Constant Matrix: (Units=GPa)
#
#
# Indices 1 2 3 4 5 6 
#
# 1 104.2735 5.0726 -11.0657 0.0000 14.6425 0.0000
# 2 5.0726 114.5519 3.0344 0.0000 2.7247 0.0000
# 3 -11.0657 3.0344 86.0979 0.0000 -0.5165 0.0000
# 4 0.0000 0.0000 0.0000 -51.1443 0.0000 -28.5190
# 5 14.6425 2.7247 -0.5165 0.0000 28.1632 0.0000
# 6 0.0000 0.0000 0.0000 -28.5190 0.0000 -7.3375
#
#
#
# Elastic Compliance Matrix: (Units=1/GPa)
#
#
# Indices 1 2 3 4 5 6 
#
# 1 0.010508 -0.000372 0.001331 0.000000 -0.005403 0.000000
# 2 -0.000372 0.008771 -0.000361 0.000000 -0.000662 0.000000
# 3 0.001331 -0.000361 0.011796 0.000000 -0.000441 0.000000
# 4 0.000000 0.000000 0.000000 0.016750 0.000000 -0.065102
# 5 -0.005403 -0.000662 -0.000441 0.000000 0.038372 0.000000
# 6 0.000000 0.000000 0.000000 -0.065102 0.000000 0.116751
#
#
# Mechanical properties :
#
#
# Convention : Reuss Voigt Hill
#
# Bulk Modulus (GPa) = 30.98655 33.22289 32.10472
# Shear Modulus (GPa) = 23.52840 14.46174 18.99507
#
# Velocity S-wave (km/s) = 3.11380 2.44121 2.79779
# Velocity P-wave (km/s) = 5.06921 4.65153 4.86486
#
# Compressibility (1/GPa) = 0.03227207
#
# Stress axis : x y z
#
# Youngs Moduli (GPa) = 95.16331 114.00625 84.77550
#
# Poissons Ratio (x) = 0.04242 -0.11286
# Poissons Ratio (y) = 0.03541 0.03060
# Poissons Ratio (z) = -0.12669 0.04115
#
# Static dielectric constant tensor:
#      x y z
#    x 2.317230 0.000000 0.065030 
#    y 0.000000 1.974870 0.000000 
#    z 0.065030 0.000000 2.036090 
# 
# From -- ./inp_files/5689.got.cif
#   From: 2010.05.17/outbox.cif.g08.bks.cpg/sg15_3_cif.got.tgz:5689.got - 2010.06.03 18:47:42.
