data_PCOD9266394
_publ_section_title
;
Structure prediction by ZEFSAII (Michael W. Deem and Ramdas Pophale) SiO2 
 PCOD9266394
Probable space group: C 2/C
;
_chemical_formula_sum "Si O2"
_cell_formula_units_Z 40
_cell_length_a 9.836311
_cell_length_b 10.521723
_cell_length_c 16.745039
_cell_angle_alpha 90.000000
_cell_angle_beta 56.794888
_cell_angle_gamma 90.000000
_cell_volume 1450.050310
_symmetry_space_group_name_H-M "C 2/C"
_symmetry_group_IT_number 15
_symmetry_cell_setting 'monoclinic'
loop_
_space_group_symop_operation_xyz
x,y,z
-x,y,1/2-z
-x,-y,-z
x,-y,1/2+z
1/2+x,1/2+y,z
1/2-x,1/2+y,1/2-z
1/2-x,1/2-y,-z
1/2+x,1/2-y,1/2+z
loop_
_atom_site_type_symbol
_atom_site_label
_atom_site_fract_x
_atom_site_fract_y
_atom_site_fract_z
Si Si1 0.463477 0.624210 0.407090
Si Si2 0.256358 0.793391 0.208582
Si Si3 0.542475 0.005970 0.652703
Si Si4 0.707387 0.274282 0.393957
Si Si5 0.269063 0.386750 0.456910
O O1 0.647623 0.659563 0.331466
O O2 0.422113 0.718024 0.494197
O O3 0.339532 0.666508 0.375780
O O4 0.413697 0.480037 0.438892
O O5 0.396252 0.896071 0.185892
O O6 0.150600 0.768951 0.321519
O O7 0.195799 0.854737 0.146786
O O8 0.500000 0.931836 0.750000
O O9 0.694117 0.095500 0.626476
O O10 0.603555 0.949014 0.548420
O O11 0.250000 0.250000 0.500000
#
# Coordination Sequence:
#
# PCOD9266394 Si02
#       5
#     8   8   8   8   8
#     4   9  18  37  61  84 117 154 194 250 295 346
#     4  10  19  37  64  86 108 156 206 238 298 350
#     4   8  16  35  60  78 106 151 195 241 285 345
#     4   8  16  34  62  90 106 142 207 247 279 357
#     4  11  23  37  51  87 127 148 191 246 294 362
#
# _framework density 27.585249999999998
#
# number of rings (size 3 to 8) (size 9 to 14) (size 15 to 20)
#    0.000    2.800    0.000    3.600    0.000    0.800 
#   14.400    2.000    0.000    0.000    0.000    0.000 
#    0.000    0.000    0.000    0.000    0.000    0.000 
#
# Total GULP energy -111795.722268 kJ/mol
# GULP energy per Si atom -5589.786113 kJ/mol
# Density = 2.752246 g / cm^3
# Si number density = 27.585250 Si / 1000 Ang^3
#
#
#
# Elastic Constant Matrix: (Units=GPa)
#
#
# Indices 1 2 3 4 5 6 
#
# 1 76.8659 24.1721 37.1307 0.0000 12.2428 0.0000
# 2 24.1721 115.1057 24.5322 0.0000 -1.2718 0.0000
# 3 37.1307 24.5322 96.5915 0.0000 12.7239 0.0000
# 4 0.0000 0.0000 0.0000 33.7807 0.0000 0.6389
# 5 12.2428 -1.2718 12.7239 0.0000 37.9881 0.0000
# 6 0.0000 0.0000 0.0000 0.6389 0.0000 38.9035
#
#
#
# Elastic Compliance Matrix: (Units=1/GPa)
#
#
# Indices 1 2 3 4 5 6 
#
# 1 0.016995 -0.002456 -0.005416 0.000000 -0.003745 0.000000
# 2 -0.002456 0.009587 -0.001713 0.000000 0.001686 0.000000
# 3 -0.005416 -0.001713 0.013231 0.000000 -0.002744 0.000000
# 4 0.000000 0.000000 0.000000 0.029612 0.000000 -0.000486
# 5 -0.003745 0.001686 -0.002744 0.000000 0.028507 0.000000
# 6 0.000000 0.000000 0.000000 -0.000486 0.000000 0.025713
#
#
# Mechanical properties :
#
#
# Convention : Reuss Voigt Hill
#
# Bulk Modulus (GPa) = 48.44122 51.13702 49.78912
# Shear Modulus (GPa) = 33.40131 35.64966 34.52548
#
# Velocity S-wave (km/s) = 3.48349 3.59882 3.54162
# Velocity P-wave (km/s) = 5.81191 5.98721 5.90021
#
# Compressibility (1/GPa) = 0.02064358
#
# Stress axis : x y z
#
# Youngs Moduli (GPa) = 58.84195 104.30648 75.57874
#
# Poissons Ratio (x) = 0.25618 0.40932
# Poissons Ratio (y) = 0.14452 0.12946
# Poissons Ratio (z) = 0.31868 0.17867
#
# Static dielectric constant tensor:
#      x y z
#    x 2.177360 0.000000 0.053560 
#    y 0.000000 2.140570 0.000000 
#    z 0.053560 0.000000 2.236340 
# 
# From -- ./inp_files/177406.got.cif
#   From: 2010.05.17/outbox.cif.g08.bks.cpg/sg15_89_cif.got.tgz:177406.got - 2010.06.03 18:47:42.
