data_PCOD9266593
_publ_section_title
;
Structure prediction by ZEFSAII (Michael W. Deem and Ramdas Pophale) SiO2 
 PCOD9266593
Probable space group: C 2/C
;
_chemical_formula_sum "Si O2"
_cell_formula_units_Z 48
_cell_length_a 22.715179
_cell_length_b 19.577320
_cell_length_c 11.086676
_cell_angle_alpha 90.000000
_cell_angle_beta 151.217160
_cell_angle_gamma 90.000000
_cell_volume 2373.881921
_symmetry_space_group_name_H-M "C 2/C"
_symmetry_group_IT_number 15
_symmetry_cell_setting 'monoclinic'
loop_
_space_group_symop_operation_xyz
x,y,z
-x,y,1/2-z
-x,-y,-z
x,-y,1/2+z
1/2+x,1/2+y,z
1/2-x,1/2+y,1/2-z
1/2-x,1/2-y,-z
1/2+x,1/2-y,1/2+z
loop_
_atom_site_type_symbol
_atom_site_label
_atom_site_fract_x
_atom_site_fract_y
_atom_site_fract_z
Si Si1 0.196755 0.606128 0.609945
Si Si2 0.029732 0.049286 0.439064
Si Si3 0.495274 0.927463 0.553212
Si Si4 0.077426 0.319002 0.506065
Si Si5 0.577700 0.303885 0.708629
Si Si6 0.217568 0.246748 0.236615
O O1 0.140307 0.584554 0.637723
O O2 0.186181 0.688753 0.596616
O O3 0.098586 0.576693 0.340689
O O4 0.329582 0.576341 0.816976
O O5 0.000000 0.021550 0.250000
O O6 0.949103 0.117559 0.315108
O O7 0.000000 0.000000 0.500000
O O8 0.533696 0.868070 0.531383
O O9 0.500000 0.000000 0.500000
O O10 0.218490 0.313515 0.724047
O O11 0.000000 0.339658 0.250000
O O12 0.039479 0.241753 0.470371
O O13 0.615604 0.284628 0.640772
O O14 0.681792 0.277042 0.987843
#
# Coordination Sequence:
#
# PCOD9266593 Si02
#       6
#     8   8   8   8   8   8
#     4  11  24  45  66  93 136 178 220 288 341 398
#     4  12  26  46  71 101 140 181 227 286 355 422
#     4  11  27  43  63  95 137 184 223 274 343 409
#     4  10  20  37  65  96 123 172 227 275 330 402
#     4  10  19  39  66  98 128 172 224 275 340 410
#     4  10  19  37  71  97 128 173 229 280 338 405
#
# _framework density 20.220046
#
# number of rings (size 3 to 8) (size 9 to 14) (size 15 to 20)
#    0.000    1.333    5.000    0.500    4.667    2.000 
#    0.000    0.000    0.000    0.000    0.000    0.000 
#    0.000    0.000    0.000    0.000    0.000    0.000 
#
# Total GULP energy -133929.442936 kJ/mol
# GULP energy per Si atom -5580.393456 kJ/mol
# Density = 2.017402 g / cm^3
# Si number density = 20.220046 Si / 1000 Ang^3
#
#
#
# Elastic Constant Matrix: (Units=GPa)
#
#
# Indices 1 2 3 4 5 6 
#
# 1 155.3312 48.7238 33.1670 0.0000 9.9349 0.0000
# 2 48.7238 80.4661 8.3703 0.0000 -11.9865 0.0000
# 3 33.1670 8.3703 44.7885 0.0000 6.5526 0.0000
# 4 0.0000 0.0000 0.0000 21.9830 0.0000 -6.8920
# 5 9.9349 -11.9865 6.5526 0.0000 29.7217 0.0000
# 6 0.0000 0.0000 0.0000 -6.8920 0.0000 52.0041
#
#
#
# Elastic Compliance Matrix: (Units=1/GPa)
#
#
# Indices 1 2 3 4 5 6 
#
# 1 0.009781 -0.006024 -0.005459 0.000000 -0.004495 0.000000
# 2 -0.006024 0.017440 -0.000126 0.000000 0.009075 0.000000
# 3 -0.005459 -0.000126 0.027005 0.000000 -0.004180 0.000000
# 4 0.000000 0.000000 0.000000 0.047462 0.000000 0.006290
# 5 -0.004495 0.009075 -0.004180 0.000000 0.039729 0.000000
# 6 0.000000 0.000000 0.000000 0.006290 0.000000 0.020063
#
#
# Mechanical properties :
#
#
# Convention : Reuss Voigt Hill
#
# Bulk Modulus (GPa) = 32.25083 51.23423 41.74253
# Shear Modulus (GPa) = 25.63648 33.43007 29.53328
#
# Velocity S-wave (km/s) = 3.56459 4.07051 3.82592
# Velocity P-wave (km/s) = 5.73814 6.89096 6.34081
#
# Compressibility (1/GPa) = 0.03100696
#
# Stress axis : x y z
#
# Youngs Moduli (GPa) = 102.24212 57.33854 37.03022
#
# Poissons Ratio (x) = 0.34542 0.20216
# Poissons Ratio (y) = 0.61592 0.00467
# Poissons Ratio (z) = 0.55818 0.00722
#
# Static dielectric constant tensor:
#      x y z
#    x 1.766110 0.000000 -0.003120 
#    y 0.000000 1.698810 0.000000 
#    z -0.003120 0.000000 1.732950 
# 
# From -- ./inp_files/119496.got.cif
#   From: 2010.05.17/outbox.cif.g08.bks.cpg/sg15_60_cif.got.tgz:119496.got - 2010.06.03 18:47:42.
