data_PCOD9266486
_publ_section_title
;
Structure prediction by ZEFSAII (Michael W. Deem and Ramdas Pophale) SiO2 
 PCOD9266486
Probable space group: C 2/C
;
_chemical_formula_sum "Si O2"
_cell_formula_units_Z 52
_cell_length_a 10.830773
_cell_length_b 17.064448
_cell_length_c 18.969445
_cell_angle_alpha 90.000000
_cell_angle_beta 47.307498
_cell_angle_gamma 90.000000
_cell_volume 2576.888533
_symmetry_space_group_name_H-M "C 2/C"
_symmetry_group_IT_number 15
_symmetry_cell_setting 'monoclinic'
loop_
_space_group_symop_operation_xyz
x,y,z
-x,y,1/2-z
-x,-y,-z
x,-y,1/2+z
1/2+x,1/2+y,z
1/2-x,1/2+y,1/2-z
1/2-x,1/2-y,-z
1/2+x,1/2-y,1/2+z
loop_
_atom_site_type_symbol
_atom_site_label
_atom_site_fract_x
_atom_site_fract_y
_atom_site_fract_z
Si Si1 0.700913 0.850501 0.674051
Si Si2 0.623895 0.417319 0.261037
Si Si3 0.500000 0.285789 0.750000
Si Si4 0.086937 0.296867 0.353722
Si Si5 0.760282 0.416159 0.696440
Si Si6 0.112852 0.847714 0.045554
Si Si7 0.036735 0.680100 0.026330
O O1 0.500000 0.841136 0.750000
O O2 0.788135 0.772706 0.670641
O O3 0.740745 0.914061 0.718406
O O4 0.790211 0.866081 0.564852
O O5 0.500000 0.380861 0.250000
O O6 0.792412 0.369056 0.209894
O O7 0.682503 0.500740 0.207838
O O8 0.511379 0.412484 0.375213
O O9 0.515136 0.232817 0.674315
O O10 0.653020 0.344819 0.705497
O O11 0.986198 0.315711 0.464141
O O12 0.944789 0.392132 0.599109
O O13 0.263423 0.832179 0.042470
O O14 0.012602 0.765352 0.072390
#
# Coordination Sequence:
#
# PCOD9266486 Si02
#       7
#     8   8   4   8   8   8   8
#     4  10  19  37  65  93 120 162 211 272 307 370
#     4  12  23  40  61  91 127 169 209 268 315 383
#     4  10  22  42  60  92 128 176 200 260 316 386
#     4  10  22  38  65  92 127 163 217 256 317 369
#     4  11  23  39  61  88 135 169 208 252 330 383
#     4  10  20  36  65  97 121 150 222 275 310 362
#     4  10  20  37  65  97 117 163 214 271 312 373
#
# _framework density 20.179373999999999
#
# number of rings (size 3 to 8) (size 9 to 14) (size 15 to 20)
#    0.000    1.538    3.846    2.308    2.154    1.846 
#    1.385    1.538    0.000    0.000    0.000    0.000 
#    0.000    0.000    0.000    0.000    0.000    0.000 
#
# Total GULP energy -145000.544818 kJ/mol
# GULP energy per Si atom -5576.944031 kJ/mol
# Density = 2.013344 g / cm^3
# Si number density = 20.179374 Si / 1000 Ang^3
#
#
#
# Elastic Constant Matrix: (Units=GPa)
#
#
# Indices 1 2 3 4 5 6 
#
# 1 67.4320 16.9812 29.2459 0.0003 22.5910 -0.0002
# 2 16.9812 51.5359 36.3041 0.0000 -1.9846 0.0000
# 3 29.2459 36.3041 110.5598 -0.0001 12.7379 0.0000
# 4 0.0003 0.0000 -0.0001 23.6774 -0.0001 -3.0560
# 5 22.5910 -1.9846 12.7379 -0.0001 28.2096 0.0001
# 6 -0.0002 0.0000 0.0000 -3.0560 0.0001 21.6737
#
#
#
# Elastic Compliance Matrix: (Units=1/GPa)
#
#
# Indices 1 2 3 4 5 6 
#
# 1 0.023681 -0.007323 -0.001704 0.000000 -0.018710 0.000000
# 2 -0.007323 0.028448 -0.008766 0.000000 0.011825 0.000000
# 3 -0.001704 -0.008766 0.012962 0.000000 -0.005105 0.000000
# 4 0.000000 0.000000 0.000000 0.043017 0.000000 0.006066
# 5 -0.018710 0.011825 -0.005105 0.000000 0.053570 0.000000
# 6 0.000000 0.000000 0.000000 0.006066 0.000000 0.046994
#
#
# Mechanical properties :
#
#
# Convention : Reuss Voigt Hill
#
# Bulk Modulus (GPa) = 33.89340 43.84334 38.86837
# Shear Modulus (GPa) = 19.67769 24.51191 22.09480
#
# Velocity S-wave (km/s) = 3.12611 3.48904 3.31255
# Velocity P-wave (km/s) = 5.46467 6.16483 5.82528
#
# Compressibility (1/GPa) = 0.02950427
#
# Stress axis : x y z
#
# Youngs Moduli (GPa) = 42.22741 35.15208 77.14610
#
# Poissons Ratio (x) = 0.25743 0.13145
# Poissons Ratio (y) = 0.30924 0.67630
# Poissons Ratio (z) = 0.07195 0.30816
#
# Static dielectric constant tensor:
#      x y z
#    x 1.740490 0.000000 0.015290 
#    y 0.000000 1.725970 0.000000 
#    z 0.015290 0.000000 1.776250 
# 
# From -- ./inp_files/238670.got.cif
#   From: 2010.05.17/outbox.cif.g08.bks.cpg/sg15_120_cif.got.tgz:238670.got - 2010.06.03 18:47:42.
