data_PCOD9266061
_publ_section_title
;
Structure prediction by ZEFSAII (Michael W. Deem and Ramdas Pophale) SiO2 
 PCOD9266061
Probable space group: C 2/C
;
_chemical_formula_sum "Si O2"
_cell_formula_units_Z 56
_cell_length_a 12.116440
_cell_length_b 28.485475
_cell_length_c 9.907878
_cell_angle_alpha 90.000000
_cell_angle_beta 61.284753
_cell_angle_gamma 90.000000
_cell_volume 2999.078459
_symmetry_space_group_name_H-M "C 2/C"
_symmetry_group_IT_number 15
_symmetry_cell_setting 'monoclinic'
loop_
_space_group_symop_operation_xyz
x,y,z
-x,y,1/2-z
-x,-y,-z
x,-y,1/2+z
1/2+x,1/2+y,z
1/2-x,1/2+y,1/2-z
1/2-x,1/2-y,-z
1/2+x,1/2-y,1/2+z
loop_
_atom_site_type_symbol
_atom_site_label
_atom_site_fract_x
_atom_site_fract_y
_atom_site_fract_z
Si Si1 0.404478 0.304509 0.084645
Si Si2 0.173868 0.853280 0.895050
Si Si3 0.746856 0.862467 0.957192
Si Si4 0.971309 0.291554 0.419158
Si Si5 0.774401 0.298774 0.061112
Si Si6 0.557860 0.558374 0.580634
Si Si7 0.889619 0.953382 0.921815
O O1 0.338927 0.308717 0.268136
O O2 0.547308 0.323209 0.998333
O O3 0.329129 0.335917 0.021455
O O4 0.399095 0.250484 0.038363
O O5 0.204730 0.849945 0.720476
O O6 0.278864 0.834931 0.935399
O O7 0.148643 0.906580 0.951146
O O8 0.774633 0.917830 0.965050
O O9 0.609110 0.839313 0.045103
O O10 0.000000 0.275163 0.250000
O O11 0.100013 0.298478 0.424458
O O12 0.750000 0.250000 0.000000
O O13 0.500000 0.580048 0.750000
O O14 0.623755 0.509533 0.584783
O O15 0.445067 0.551069 0.540129
O O16 0.000000 0.939546 0.750000
#
# Coordination Sequence:
#
# PCOD9266061 Si02
#       7
#     8   8   8   8   8   8   8
#     4  12  23  40  63  89 124 164 207 257 307 366
#     4  12  23  38  63  94 126 160 199 261 321 364
#     4  12  23  40  63  87 126 164 205 250 307 378
#     4  12  26  42  62  88 122 170 215 244 302 373
#     4  12  26  42  59  89 127 166 210 256 301 363
#     4  10  20  33  59  93 128 155 193 256 323 365
#     4  10  19  37  59  92 125 156 198 255 318 367
#
# _framework density 18.672402000000002
#
# number of rings (size 3 to 8) (size 9 to 14) (size 15 to 20)
#    0.000    0.571    5.714    3.857    0.000    1.714 
#    0.000    0.000    0.000    0.857    0.000    0.000 
#    0.000    0.000    0.000    0.000    0.000    0.000 
#
# Total GULP energy -156374.546714 kJ/mol
# GULP energy per Si atom -5584.805240 kJ/mol
# Density = 1.862990 g / cm^3
# Si number density = 18.672402 Si / 1000 Ang^3
#
#
#
# Elastic Constant Matrix: (Units=GPa)
#
#
# Indices 1 2 3 4 5 6 
#
# 1 88.7311 20.1258 9.5545 0.0000 19.2500 0.0000
# 2 20.1258 76.0440 4.6243 0.0000 -1.6240 0.0000
# 3 9.5545 4.6243 95.5762 0.0000 28.4429 0.0000
# 4 0.0000 0.0000 0.0000 28.4753 0.0000 6.1157
# 5 19.2500 -1.6240 28.4429 0.0000 28.8575 0.0000
# 6 0.0000 0.0000 0.0000 6.1157 0.0000 23.5352
#
#
#
# Elastic Compliance Matrix: (Units=1/GPa)
#
#
# Indices 1 2 3 4 5 6 
#
# 1 0.014682 -0.004300 0.002444 0.000000 -0.012445 0.000000
# 2 -0.004300 0.014526 -0.001938 0.000000 0.005597 0.000000
# 3 0.002444 -0.001938 0.015325 0.000000 -0.016844 0.000000
# 4 0.000000 0.000000 0.000000 0.037194 0.000000 -0.009665
# 5 -0.012445 0.005597 -0.016844 0.000000 0.059872 0.000000
# 6 0.000000 0.000000 0.000000 -0.009665 0.000000 0.045001
#
#
# Mechanical properties :
#
#
# Convention : Reuss Voigt Hill
#
# Bulk Modulus (GPa) = 27.06849 36.55117 31.80983
# Shear Modulus (GPa) = 24.21265 31.24337 27.72801
#
# Velocity S-wave (km/s) = 3.60489 4.09496 3.85772
# Velocity P-wave (km/s) = 5.64402 6.47887 6.07580
#
# Compressibility (1/GPa) = 0.03694332
#
# Stress axis : x y z
#
# Youngs Moduli (GPa) = 68.11040 68.84325 65.25246
#
# Poissons Ratio (x) = 0.29603 -0.15946
# Poissons Ratio (y) = 0.29288 0.12649
# Poissons Ratio (z) = -0.16645 0.13345
#
# Static dielectric constant tensor:
#      x y z
#    x 1.635570 0.000000 -0.024650 
#    y 0.000000 1.705360 0.000000 
#    z -0.024650 0.000000 1.585150 
# 
# From -- ./inp_files/34332.got.cif
#   From: 2010.05.17/outbox.cif.g08.bks.cpg/sg15_18_cif.got.tgz:34332.got - 2010.06.03 18:47:42.
