data_PCOD9266951
_publ_section_title
;
Structure prediction by ZEFSAII (Michael W. Deem and Ramdas Pophale) SiO2 
 PCOD9266951
Probable space group: C 2/C
;
_chemical_formula_sum "Si O2"
_cell_formula_units_Z 64
_cell_length_a 12.533637
_cell_length_b 14.575737
_cell_length_c 17.460064
_cell_angle_alpha 90.000000
_cell_angle_beta 86.189304
_cell_angle_gamma 90.000000
_cell_volume 3182.674418
_symmetry_space_group_name_H-M "C 2/C"
_symmetry_group_IT_number 15
_symmetry_cell_setting 'monoclinic'
loop_
_space_group_symop_operation_xyz
x,y,z
-x,y,1/2-z
-x,-y,-z
x,-y,1/2+z
1/2+x,1/2+y,z
1/2-x,1/2+y,1/2-z
1/2-x,1/2-y,-z
1/2+x,1/2-y,1/2+z
loop_
_atom_site_type_symbol
_atom_site_label
_atom_site_fract_x
_atom_site_fract_y
_atom_site_fract_z
Si Si1 0.430491 0.698834 0.436934
Si Si2 0.342721 0.413637 0.365427
Si Si3 0.807858 0.097577 0.696782
Si Si4 0.605883 0.900334 0.094670
Si Si5 0.724671 0.071948 0.429266
Si Si6 0.983375 0.225300 0.609964
Si Si7 0.531272 0.561372 0.328608
Si Si8 0.970222 0.430513 0.662440
O O1 0.444123 0.798998 0.400508
O O2 0.316893 0.649585 0.423057
O O3 0.437159 0.710454 0.527490
O O4 0.519106 0.630136 0.399197
O O5 0.284732 0.393523 0.288033
O O6 0.275295 0.470552 0.429649
O O7 0.403382 0.325238 0.391610
O O8 0.438787 0.484513 0.340759
O O9 0.704832 0.102715 0.648741
O O10 0.897085 0.174291 0.669449
O O11 0.861447 0.997601 0.680183
O O12 0.527569 0.983891 0.118467
O O13 0.652280 0.912108 0.006750
O O14 0.654669 0.070316 0.355326
O O15 0.002727 0.330299 0.630339
O O16 0.500000 0.609615 0.250000
O O17 0.000000 0.436872 0.750000
#
# Coordination Sequence:
#
# PCOD9266951 Si02
#       8
#     8   8   8   8   8   8   8   8
#     4  11  22  37  63  91 116 155 196 240 287 349
#     4   9  20  36  62  91 119 149 192 246 289 344
#     4  10  19  38  63  91 116 150 196 242 290 342
#     4  12  24  39  60  86 118 155 199 241 288 345
#     4  11  22  41  62  88 118 153 197 240 291 344
#     4  11  21  38  64  91 118 151 196 238 292 347
#     4   8  18  35  59  89 121 149 189 245 293 337
#     4  12  26  43  61  83 118 160 196 239 293 347
#
# _framework density 20.108875000000001
#
# number of rings (size 3 to 8) (size 9 to 14) (size 15 to 20)
#    0.000    1.500    2.500    4.125    1.750    2.000 
#    0.000    1.875    0.000    0.000    0.000    0.000 
#    0.000    0.000    0.000    0.000    0.000    0.000 
#
# Total GULP energy -178620.961702 kJ/mol
# GULP energy per Si atom -5581.905053 kJ/mol
# Density = 2.006311 g / cm^3
# Si number density = 20.108875 Si / 1000 Ang^3
#
#
#
# Elastic Constant Matrix: (Units=GPa)
#
#
# Indices 1 2 3 4 5 6 
#
# 1 32.4623 25.8875 14.1216 0.0000 17.3202 0.0000
# 2 25.8875 139.6056 30.4297 0.0000 -3.6623 0.0000
# 3 14.1216 30.4297 57.6176 0.0000 16.1266 0.0000
# 4 0.0000 0.0000 0.0000 20.6703 0.0000 2.4089
# 5 17.3202 -3.6623 16.1266 0.0000 24.1802 0.0000
# 6 0.0000 0.0000 0.0000 2.4089 0.0000 25.9849
#
#
#
# Elastic Compliance Matrix: (Units=1/GPa)
#
#
# Indices 1 2 3 4 5 6 
#
# 1 0.072647 -0.016727 0.007750 0.000000 -0.059739 0.000000
# 2 -0.016727 0.012473 -0.007832 0.000000 0.019094 0.000000
# 3 0.007750 -0.007832 0.026408 0.000000 -0.024350 0.000000
# 4 0.000000 0.000000 0.000000 0.048907 0.000000 -0.004534
# 5 -0.059739 0.019094 -0.024350 0.000000 0.103279 0.000000
# 6 0.000000 0.000000 0.000000 -0.004534 0.000000 0.038904
#
#
# Mechanical properties :
#
#
# Convention : Reuss Voigt Hill
#
# Bulk Modulus (GPa) = 12.83561 41.17364 27.00462
# Shear Modulus (GPa) = 13.80426 24.78353 19.29389
#
# Velocity S-wave (km/s) = 2.62291 3.51446 3.10089
# Velocity P-wave (km/s) = 3.94586 6.08181 5.12631
#
# Compressibility (1/GPa) = 0.07790827
#
# Stress axis : x y z
#
# Youngs Moduli (GPa) = 13.76516 80.17388 37.86736
#
# Poissons Ratio (x) = 1.34111 -0.29345
# Poissons Ratio (y) = 0.23026 0.29657
# Poissons Ratio (z) = -0.10667 0.62791
#
# Static dielectric constant tensor:
#      x y z
#    x 1.732640 0.000000 -0.006910 
#    y 0.000000 1.709600 0.000000 
#    z -0.006910 0.000000 1.740630 
# 
# From -- ./inp_files/198365.got.cif
#   From: 2010.05.17/outbox.cif.g08.bks.cpg/sg15_100_cif.got.tgz:198365.got - 2010.06.03 18:47:42.
