data_PCOD9266953
_publ_section_title
;
Structure prediction by ZEFSAII (Michael W. Deem and Ramdas Pophale) SiO2 
 PCOD9266953
Probable space group: C 2/C
;
_chemical_formula_sum "Si O2"
_cell_formula_units_Z 44
_cell_length_a 12.857510
_cell_length_b 12.443193
_cell_length_c 26.333928
_cell_angle_alpha 90.000000
_cell_angle_beta 29.459417
_cell_angle_gamma 90.000000
_cell_volume 2072.044224
_symmetry_space_group_name_H-M "C 2/C"
_symmetry_group_IT_number 15
_symmetry_cell_setting 'monoclinic'
loop_
_space_group_symop_operation_xyz
x,y,z
-x,y,1/2-z
-x,-y,-z
x,-y,1/2+z
1/2+x,1/2+y,z
1/2-x,1/2+y,1/2-z
1/2-x,1/2-y,-z
1/2+x,1/2-y,1/2+z
loop_
_atom_site_type_symbol
_atom_site_label
_atom_site_fract_x
_atom_site_fract_y
_atom_site_fract_z
Si Si1 0.926692 0.087103 0.335499
Si Si2 0.600860 0.336723 0.035475
Si Si3 0.308831 0.945593 0.467993
Si Si4 0.195014 0.188794 0.930212
Si Si5 0.756644 0.479244 0.260792
Si Si6 0.000000 0.514998 0.750000
O O1 0.745099 0.039397 0.449729
O O2 0.840163 0.206486 0.364711
O O3 0.000000 0.041733 0.250000
O O4 0.131907 0.067788 0.282399
O O5 0.506398 0.299669 0.021219
O O6 0.401310 0.384064 0.153179
O O7 0.750000 0.250000 0.000000
O O8 0.739022 0.443935 0.971081
O O9 0.174551 0.850745 0.497345
O O10 0.555055 0.929273 0.352575
O O11 0.332674 0.092422 0.848545
O O12 0.861952 0.536975 0.264793
#
# Coordination Sequence:
#
# PCOD9266953 Si02
#       6
#     8   8   8   8   8   4
#     4  11  23  38  63  93 127 171 207 259 328 388
#     4  10  22  40  66  96 130 169 211 259 323 380
#     4  10  22  40  64  92 124 165 216 273 304 378
#     4  10  19  38  63  91 123 162 214 258 314 375
#     4   9  21  39  62  96 128 162 218 257 321 374
#     4   8  16  36  64  84 118 168 202 266 302 368
#
# _framework density 21.235067999999998
#
# number of rings (size 3 to 8) (size 9 to 14) (size 15 to 20)
#    0.000    2.182    0.909    1.091    2.545    2.182 
#    3.273    0.000    0.000    4.364    0.000    0.000 
#    0.000    0.000    0.000    0.000    0.000    0.000 
#
# Total GULP energy -122470.323702 kJ/mol
# GULP energy per Si atom -5566.832896 kJ/mol
# Density = 2.118674 g / cm^3
# Si number density = 21.235068 Si / 1000 Ang^3
#
#
#
# Elastic Constant Matrix: (Units=GPa)
#
#
# Indices 1 2 3 4 5 6 
#
# 1 133.6959 58.5903 48.9918 -0.0001 -10.7624 0.0001
# 2 58.5903 58.1803 18.3046 -0.0002 -17.0125 -0.0001
# 3 48.9918 18.3046 120.5693 -0.0002 3.0242 -0.0009
# 4 -0.0001 -0.0002 -0.0002 12.1010 -0.0001 -1.2199
# 5 -10.7624 -17.0125 3.0242 -0.0001 32.2789 -0.0001
# 6 0.0001 -0.0001 -0.0009 -1.2199 -0.0001 -10.3121
#
#
#
# Elastic Compliance Matrix: (Units=1/GPa)
#
#
# Indices 1 2 3 4 5 6 
#
# 1 0.015171 -0.014749 -0.003866 0.000000 -0.002353 0.000001
# 2 -0.014749 0.036116 0.000156 0.000000 0.014102 -0.000001
# 3 -0.003866 0.000156 0.009895 0.000000 -0.002134 -0.000001
# 4 0.000000 0.000000 0.000000 0.081664 0.000000 -0.009660
# 5 -0.002353 0.014102 -0.002134 0.000000 0.037828 0.000000
# 6 0.000001 -0.000001 -0.000001 -0.009660 0.000000 -0.095831
#
#
# Mechanical properties :
#
#
# Convention : Reuss Voigt Hill
#
# Bulk Modulus (GPa) = 41.21505 62.69098 51.95301
# Shear Modulus (GPa) = 38.50666 19.25080 28.87873
#
# Velocity S-wave (km/s) = 4.26297 3.01418 3.69176
# Velocity P-wave (km/s) = 6.60921 6.45756 6.53383
#
# Compressibility (1/GPa) = 0.02426298
#
# Stress axis : x y z
#
# Youngs Moduli (GPa) = 65.91711 27.68894 101.06401
#
# Poissons Ratio (x) = 0.40839 0.39073
# Poissons Ratio (y) = 0.97222 -0.01581
# Poissons Ratio (z) = 0.25485 -0.00433
#
# Static dielectric constant tensor:
#      x y z
#    x 1.874470 0.000000 0.055320 
#    y 0.000000 1.739230 0.000000 
#    z 0.055320 0.000000 1.857720 
# 
# From -- ./inp_files/292800.got.cif
#   From: 2010.05.17/outbox.cif.g08.bks.cpg/sg15_147_cif.got.tgz:292800.got - 2010.06.03 18:47:42.
