data_PCOD9266824
_publ_section_title
;
Structure prediction by ZEFSAII (Michael W. Deem and Ramdas Pophale) SiO2 
 PCOD9266824
Probable space group: C 2/C
;
_chemical_formula_sum "Si O2"
_cell_formula_units_Z 48
_cell_length_a 27.388295
_cell_length_b 9.587484
_cell_length_c 13.945646
_cell_angle_alpha 90.000000
_cell_angle_beta 147.739151
_cell_angle_gamma 90.000000
_cell_volume 1954.637501
_symmetry_space_group_name_H-M "C 2/C"
_symmetry_group_IT_number 15
_symmetry_cell_setting 'monoclinic'
loop_
_space_group_symop_operation_xyz
x,y,z
-x,y,1/2-z
-x,-y,-z
x,-y,1/2+z
1/2+x,1/2+y,z
1/2-x,1/2+y,1/2-z
1/2-x,1/2-y,-z
1/2+x,1/2-y,1/2+z
loop_
_atom_site_type_symbol
_atom_site_label
_atom_site_fract_x
_atom_site_fract_y
_atom_site_fract_z
Si Si1 0.753022 0.233168 0.119399
Si Si2 0.496524 0.487982 0.381208
Si Si3 0.110311 0.238478 0.551354
Si Si4 0.673592 0.019688 0.250235
Si Si5 0.234875 0.411398 0.070199
Si Si6 0.138675 0.149603 0.979581
O O1 0.667751 0.268152 0.047948
O O2 0.827763 0.353669 0.265686
O O3 0.750000 0.250000 0.000000
O O4 0.758854 0.067856 0.139419
O O5 0.500000 0.500000 0.500000
O O6 0.594199 0.893574 0.565758
O O7 0.521494 0.644627 0.391567
O O8 0.571966 0.389282 0.455560
O O9 0.264227 0.424435 0.846614
O O10 0.173681 0.169697 0.741321
O O11 0.696713 0.068449 0.397852
O O12 0.903964 0.073520 0.684493
O O13 0.158010 0.311982 0.991543
#
# Coordination Sequence:
#
# PCOD9266824 Si02
#       6
#     8   8   8   8   8   8
#     4  10  21  35  58  93 128 159 201 274 341 384
#     4  11  22  37  62  89 124 176 223 263 319 400
#     4  11  20  37  60  93 121 159 216 269 319 386
#     4  10  19  38  61  92 122 158 210 269 333 387
#     4  10  21  36  63  91 123 161 207 273 330 392
#     4  10  21  39  58  87 126 166 217 261 324 396
#
# _framework density 24.556981
#
# number of rings (size 3 to 8) (size 9 to 14) (size 15 to 20)
#    0.000    1.667    1.667    5.000    2.333    0.000 
#    0.000    0.000    7.333    1.000    0.000    0.000 
#    0.000    0.000    0.000    0.000    0.000    0.000 
#
# Total GULP energy -133847.157755 kJ/mol
# GULP energy per Si atom -5576.964906 kJ/mol
# Density = 2.450109 g / cm^3
# Si number density = 24.556981 Si / 1000 Ang^3
#
#
#
# Elastic Constant Matrix: (Units=GPa)
#
#
# Indices 1 2 3 4 5 6 
#
# 1 109.2038 23.1681 31.0233 0.0000 -57.3359 0.0000
# 2 23.1681 222.4040 34.5711 0.0000 -11.7500 0.0000
# 3 31.0233 34.5711 87.5603 0.0000 -34.5658 0.0000
# 4 0.0000 0.0000 0.0000 21.8782 0.0000 2.6971
# 5 -57.3359 -11.7500 -34.5658 0.0000 44.6012 0.0000
# 6 0.0000 0.0000 0.0000 2.6971 0.0000 37.4848
#
#
#
# Elastic Compliance Matrix: (Units=1/GPa)
#
#
# Indices 1 2 3 4 5 6 
#
# 1 0.031606 -0.002073 0.007844 0.000000 0.046163 0.000000
# 2 -0.002073 0.004929 -0.002523 0.000000 -0.003321 0.000000
# 3 0.007844 -0.002523 0.019243 0.000000 0.024332 0.000000
# 4 0.000000 0.000000 0.000000 0.046117 0.000000 -0.003318
# 5 0.046163 -0.003321 0.024332 0.000000 0.099746 0.000000
# 6 0.000000 0.000000 0.000000 -0.003318 0.000000 0.026916
#
#
# Mechanical properties :
#
#
# Convention : Reuss Voigt Hill
#
# Bulk Modulus (GPa) = 16.05805 66.29923 41.17864
# Shear Modulus (GPa) = 20.59146 42.81987 31.70567
#
# Velocity S-wave (km/s) = 2.89886 4.18029 3.59709
# Velocity P-wave (km/s) = 4.21400 7.09623 5.83585
#
# Compressibility (1/GPa) = 0.06227406
#
# Stress axis : x y z
#
# Youngs Moduli (GPa) = 31.63984 202.88384 51.96649
#
# Poissons Ratio (x) = 0.42054 -0.40761
# Poissons Ratio (y) = 0.06558 0.13110
# Poissons Ratio (z) = -0.24817 0.51183
#
# Static dielectric constant tensor:
#      x y z
#    x 2.014910 0.000000 -0.019280 
#    y 0.000000 2.022570 0.000000 
#    z -0.019280 0.000000 2.059850 
# 
# From -- ./inp_files/172779.got.cif
#   From: 2010.05.17/outbox.cif.g08.bks.cpg/sg15_87_cif.got.tgz:172779.got - 2010.06.03 18:47:42.
