data_PCOD9266196
_publ_section_title
;
Structure prediction by ZEFSAII (Michael W. Deem and Ramdas Pophale) SiO2 
 PCOD9266196
Probable space group: C 2/C
;
_chemical_formula_sum "Si O2"
_cell_formula_units_Z 44
_cell_length_a 6.439762
_cell_length_b 12.940185
_cell_length_c 21.469614
_cell_angle_alpha 90.000000
_cell_angle_beta 121.737270
_cell_angle_gamma 90.000000
_cell_volume 1521.574030
_symmetry_space_group_name_H-M "C 2/C"
_symmetry_group_IT_number 15
_symmetry_cell_setting 'monoclinic'
loop_
_space_group_symop_operation_xyz
x,y,z
-x,y,1/2-z
-x,-y,-z
x,-y,1/2+z
1/2+x,1/2+y,z
1/2-x,1/2+y,1/2-z
1/2-x,1/2-y,-z
1/2+x,1/2-y,1/2+z
loop_
_atom_site_type_symbol
_atom_site_label
_atom_site_fract_x
_atom_site_fract_y
_atom_site_fract_z
Si Si1 0.500000 0.869687 0.250000
Si Si2 0.517811 0.952733 0.434180
Si Si3 0.780036 0.636759 0.116724
Si Si4 0.417754 0.701256 0.959926
Si Si5 0.204935 0.178615 0.325728
Si Si6 0.022913 0.033995 0.641759
O O1 0.554532 0.786807 0.311935
O O2 0.742234 0.933341 0.282115
O O3 0.687664 0.852650 0.457693
O O4 0.237321 0.951545 0.367733
O O5 0.500000 0.000000 0.500000
O O6 0.644414 0.031941 0.407023
O O7 0.584179 0.585903 0.133857
O O8 0.044840 0.681644 0.177974
O O9 0.635654 0.705852 0.044407
O O10 0.353864 0.807689 0.914490
O O11 0.492060 0.613526 0.919466
O O12 0.000000 0.121785 0.250000
#
# Coordination Sequence:
#
# PCOD9266196 Si02
#       6
#     4   8   8   8   8   8
#     4   8  20  40  60  74 124 172 198 246 314 376
#     4  11  19  34  61  93 121 145 213 268 307 376
#     4  11  20  34  64  91 119 158 207 266 324 364
#     4  10  19  37  62  88 118 163 201 259 327 370
#     4   9  21  39  58  83 129 170 209 252 324 389
#     4  10  19  37  61  88 116 158 206 263 306 372
#
# _framework density 28.917421000000001
#
# number of rings (size 3 to 8) (size 9 to 14) (size 15 to 20)
#    0.545    1.455    3.636    1.636    0.000    1.455 
#    0.000   11.818    4.000    0.000    0.000    0.000 
#    0.000    0.000    0.000    0.000    0.000    0.000 
#
# Total GULP energy -122744.817809 kJ/mol
# GULP energy per Si atom -5579.309900 kJ/mol
# Density = 2.885160 g / cm^3
# Si number density = 28.917421 Si / 1000 Ang^3
#
#
#
# Elastic Constant Matrix: (Units=GPa)
#
#
# Indices 1 2 3 4 5 6 
#
# 1 78.8315 30.0584 57.4541 0.0000 28.5453 0.0000
# 2 30.0584 94.8693 43.8892 0.0000 21.9528 0.0000
# 3 57.4541 43.8892 192.7519 0.0000 53.1341 0.0000
# 4 0.0000 0.0000 0.0000 53.8540 0.0000 16.1931
# 5 28.5453 21.9528 53.1341 0.0000 73.4174 0.0000
# 6 0.0000 0.0000 0.0000 16.1931 0.0000 63.4543
#
#
#
# Elastic Compliance Matrix: (Units=1/GPa)
#
#
# Indices 1 2 3 4 5 6 
#
# 1 0.017759 -0.003168 -0.003660 0.000000 -0.003309 0.000000
# 2 -0.003168 0.012581 -0.001528 0.000000 -0.001425 0.000000
# 3 -0.003660 -0.001528 0.007631 0.000000 -0.003643 0.000000
# 4 0.000000 0.000000 0.000000 0.020112 0.000000 -0.005132
# 5 -0.003309 -0.001425 -0.003643 0.000000 0.017970 0.000000
# 6 0.000000 0.000000 0.000000 -0.005132 0.000000 0.017069
#
#
# Mechanical properties :
#
#
# Convention : Reuss Voigt Hill
#
# Bulk Modulus (GPa) = 47.03758 69.91734 58.47746
# Shear Modulus (GPa) = 42.76460 53.81520 48.28990
#
# Velocity S-wave (km/s) = 3.84976 4.31861 4.09090
# Velocity P-wave (km/s) = 6.00519 7.00699 6.52534
#
# Compressibility (1/GPa) = 0.02125960
#
# Stress axis : x y z
#
# Youngs Moduli (GPa) = 56.31016 79.48547 131.04379
#
# Poissons Ratio (x) = 0.25180 0.47962
# Poissons Ratio (y) = 0.17838 0.20020
# Poissons Ratio (z) = 0.20610 0.12143
#
# Static dielectric constant tensor:
#      x y z
#    x 2.539280 0.000000 -0.055360 
#    y 0.000000 2.366710 0.000000 
#    z -0.055360 0.000000 2.358050 
# 
# From -- ./inp_files/305735.got.cif
#   From: 2010.05.17/outbox.cif.g08.bks.cpg/sg15_153_cif.got.tgz:305735.got - 2010.06.03 18:47:42.
