data_PCOD9266189
_publ_section_title
;
Structure prediction by ZEFSAII (Michael W. Deem and Ramdas Pophale) SiO2 
 PCOD9266189
Probable space group: C 2/C
;
_chemical_formula_sum "Si O2"
_cell_formula_units_Z 56
_cell_length_a 10.003370
_cell_length_b 28.064791
_cell_length_c 18.061875
_cell_angle_alpha 90.000000
_cell_angle_beta 33.195067
_cell_angle_gamma 90.000000
_cell_volume 2776.183082
_symmetry_space_group_name_H-M "C 2/C"
_symmetry_group_IT_number 15
_symmetry_cell_setting 'monoclinic'
loop_
_space_group_symop_operation_xyz
x,y,z
-x,y,1/2-z
-x,-y,-z
x,-y,1/2+z
1/2+x,1/2+y,z
1/2-x,1/2+y,1/2-z
1/2-x,1/2-y,-z
1/2+x,1/2-y,1/2+z
loop_
_atom_site_type_symbol
_atom_site_label
_atom_site_fract_x
_atom_site_fract_y
_atom_site_fract_z
Si Si1 0.596807 0.041764 0.401471
Si Si2 0.958755 0.728076 0.955095
Si Si3 0.466113 0.447334 0.610442
Si Si4 0.691409 0.457063 0.971182
Si Si5 0.743000 0.713518 0.823916
Si Si6 0.711577 0.896619 0.212051
Si Si7 0.667160 0.881394 0.989096
O O1 0.830387 0.029615 0.243233
O O2 0.389837 0.057016 0.439104
O O3 0.674026 0.086809 0.413700
O O4 0.500000 0.000000 0.500000
O O5 0.868487 0.674001 0.009770
O O6 0.195116 0.727871 0.790302
O O7 0.750000 0.750000 0.000000
O O8 0.949189 0.756584 0.037437
O O9 0.280472 0.443748 0.627987
O O10 0.665818 0.485844 0.491414
O O11 0.598893 0.398268 0.570973
O O12 0.431667 0.433082 0.109411
O O13 0.690735 0.656991 0.848174
O O14 0.000000 0.718290 0.750000
O O15 0.500000 0.906455 0.250000
O O16 0.571445 0.896402 0.354333
#
# Coordination Sequence:
#
# PCOD9266189 Si02
#       7
#     8   8   8   8   8   8   8
#     4  12  25  41  57  87 126 155 201 248 305 357
#     4   9  18  32  55  89 121 152 196 257 307 352
#     4  11  24  39  60  85 116 160 206 245 296 359
#     4  11  24  39  62  84 118 166 197 245 299 361
#     4   8  16  30  52  84 119 150 193 247 304 352
#     4  10  19  37  61  87 118 157 205 243 294 363
#     4  11  22  38  62  92 122 157 200 258 303 353
#
# _framework density 20.171579999999999
#
# number of rings (size 3 to 8) (size 9 to 14) (size 15 to 20)
#    0.000    1.714    2.857    2.571    0.000    5.143 
#    0.000    0.000    0.000    0.857    0.000    0.000 
#    0.000    0.000    0.000    0.000    0.000    0.000 
#
# Total GULP energy -156167.849717 kJ/mol
# GULP energy per Si atom -5577.423204 kJ/mol
# Density = 2.012567 g / cm^3
# Si number density = 20.171580 Si / 1000 Ang^3
#
#
#
# Elastic Constant Matrix: (Units=GPa)
#
#
# Indices 1 2 3 4 5 6 
#
# 1 95.8587 31.5674 23.7143 0.0000 17.8776 0.0000
# 2 31.5674 87.8797 47.1869 0.0000 18.1277 0.0000
# 3 23.7143 47.1869 81.6832 0.0000 30.5406 0.0000
# 4 0.0000 0.0000 0.0000 25.8940 0.0000 10.8303
# 5 17.8776 18.1277 30.5406 0.0000 29.9408 0.0000
# 6 0.0000 0.0000 0.0000 10.8303 0.0000 18.8634
#
#
#
# Elastic Compliance Matrix: (Units=1/GPa)
#
#
# Indices 1 2 3 4 5 6 
#
# 1 0.012585 -0.003661 0.000715 0.000000 -0.006027 0.000000
# 2 -0.003661 0.017565 -0.009578 0.000000 0.001321 0.000000
# 3 0.000715 -0.009578 0.025152 0.000000 -0.020283 0.000000
# 4 0.000000 0.000000 0.000000 0.050824 0.000000 -0.029180
# 5 -0.006027 0.001321 -0.020283 0.000000 0.056887 0.000000
# 6 0.000000 0.000000 0.000000 -0.029180 0.000000 0.069767
#
#
# Mechanical properties :
#
#
# Convention : Reuss Voigt Hill
#
# Bulk Modulus (GPa) = 33.05524 52.26208 42.65866
# Shear Modulus (GPa) = 18.66288 25.80317 22.23302
#
# Velocity S-wave (km/s) = 3.04502 3.58045 3.32353
# Velocity P-wave (km/s) = 5.36521 6.56185 5.99347
#
# Compressibility (1/GPa) = 0.03025239
#
# Stress axis : x y z
#
# Youngs Moduli (GPa) = 79.46048 56.93278 39.75889
#
# Poissons Ratio (x) = 0.20844 -0.02842
# Poissons Ratio (y) = 0.29092 0.38080
# Poissons Ratio (z) = -0.05679 0.54529
#
# Static dielectric constant tensor:
#      x y z
#    x 1.471450 0.000000 0.052610 
#    y 0.000000 1.715390 0.000000 
#    z 0.052610 0.000000 1.767930 
# 
# From -- ./inp_files/193823.got.cif
#   From: 2010.05.17/outbox.cif.g08.bks.cpg/sg15_97_cif.got.tgz:193823.got - 2010.06.03 18:47:42.
