data_PCOD9266603
_publ_section_title
;
Structure prediction by ZEFSAII (Michael W. Deem and Ramdas Pophale) SiO2 
 PCOD9266603
Probable space group: C 2/C
;
_chemical_formula_sum "Si O2"
_cell_formula_units_Z 48
_cell_length_a 17.234097
_cell_length_b 19.051284
_cell_length_c 16.750858
_cell_angle_alpha 90.000000
_cell_angle_beta 153.641918
_cell_angle_gamma 90.000000
_cell_volume 2441.816391
_symmetry_space_group_name_H-M "C 2/C"
_symmetry_group_IT_number 15
_symmetry_cell_setting 'monoclinic'
loop_
_space_group_symop_operation_xyz
x,y,z
-x,y,1/2-z
-x,-y,-z
x,-y,1/2+z
1/2+x,1/2+y,z
1/2-x,1/2+y,1/2-z
1/2-x,1/2-y,-z
1/2+x,1/2-y,1/2+z
loop_
_atom_site_type_symbol
_atom_site_label
_atom_site_fract_x
_atom_site_fract_y
_atom_site_fract_z
Si Si1 0.712768 0.689259 0.188069
Si Si2 0.556247 0.984647 0.144134
Si Si3 0.586519 0.154714 0.593353
Si Si4 0.741613 0.572426 0.897776
Si Si5 0.926334 0.945678 0.994325
Si Si6 0.699468 0.176451 0.416472
O O1 0.656376 0.765835 0.165212
O O2 0.770506 0.688736 0.148682
O O3 0.878117 0.661754 0.389320
O O4 0.565761 0.629507 0.043970
O O5 0.610732 0.902752 0.186100
O O6 0.724532 0.031536 0.322851
O O7 0.500000 0.000000 0.000000
O O8 0.385902 0.009927 0.036537
O O9 0.671573 0.124315 0.589571
O O10 0.558308 0.551196 0.689760
O O11 0.710984 0.614702 0.950920
O O12 0.000000 0.000000 0.000000
O O13 0.500000 0.161896 0.250000
O O14 0.750000 0.250000 0.500000
#
# Coordination Sequence:
#
# PCOD9266603 Si02
#       6
#     8   8   8   8   8   8
#     4  12  22  34  50  81 112 149 186 224 276 334
#     4  10  19  38  53  73  98 140 197 244 270 316
#     4  11  20  34  52  74 110 142 190 234 269 327
#     4  11  21  36  52  75 101 151 195 227 273 316
#     4  12  21  34  58  73 102 148 191 234 281 326
#     4  12  23  35  49  74 118 157 187 225 263 331
#
# _framework density 19.657499000000001
#
# number of rings (size 3 to 8) (size 9 to 14) (size 15 to 20)
#    0.000    0.667   10.000    1.000    2.333    0.000 
#    0.000    0.000    0.000    0.000    0.000    0.000 
#    0.000    1.333    7.667    6.500    2.000    0.333 
#
# Total GULP energy -133891.507712 kJ/mol
# GULP energy per Si atom -5578.812821 kJ/mol
# Density = 1.961276 g / cm^3
# Si number density = 19.657499 Si / 1000 Ang^3
#
#
#
# Elastic Constant Matrix: (Units=GPa)
#
#
# Indices 1 2 3 4 5 6 
#
# 1 27.2091 24.7374 13.0678 0.0036 7.0334 -0.0003
# 2 24.7374 135.6893 32.6785 0.0024 7.4942 -0.0003
# 3 13.0678 32.6785 130.4420 0.0138 2.4650 0.0018
# 4 0.0036 0.0024 0.0138 21.5697 0.0073 19.2704
# 5 7.0334 7.4942 2.4650 0.0073 20.4694 0.0009
# 6 -0.0003 -0.0003 0.0018 19.2704 0.0009 27.7590
#
#
#
# Elastic Compliance Matrix: (Units=1/GPa)
#
#
# Indices 1 2 3 4 5 6 
#
# 1 0.048293 -0.007399 -0.002728 -0.000005 -0.013557 0.000004
# 2 -0.007399 0.009121 -0.001532 0.000003 -0.000613 -0.000002
# 3 -0.002728 -0.001532 0.008314 -0.000011 0.000497 0.000007
# 4 -0.000005 0.000003 -0.000011 0.122070 -0.000038 -0.084741
# 5 -0.013557 -0.000613 0.000497 -0.000038 0.053676 0.000024
# 6 0.000004 -0.000002 0.000007 -0.084741 0.000024 0.094852
#
#
# Mechanical properties :
#
#
# Convention : Reuss Voigt Hill
#
# Bulk Modulus (GPa) = 23.57910 48.25644 35.91777
# Shear Modulus (GPa) = 13.37677 28.81674 21.09675
#
# Velocity S-wave (km/s) = 2.61145 3.83291 3.27955
# Velocity P-wave (km/s) = 4.59499 6.64757 5.71420
#
# Compressibility (1/GPa) = 0.04241045
#
# Stress axis : x y z
#
# Youngs Moduli (GPa) = 20.70674 109.63130 120.27805
#
# Poissons Ratio (x) = 0.81111 0.32817
# Poissons Ratio (y) = 0.15320 0.18431
# Poissons Ratio (z) = 0.05650 0.16799
#
# Static dielectric constant tensor:
#      x y z
#    x 1.672700 0.000000 0.020970 
#    y 0.000000 1.784080 0.000000 
#    z 0.020970 0.000000 1.722480 
# 
# From -- ./inp_files/216301.got.cif
#   From: 2010.05.17/outbox.cif.g08.bks.cpg/sg15_109_cif.got.tgz:216301.got - 2010.06.03 18:47:42.
