data_PCOD9266259
_publ_section_title
;
Structure prediction by ZEFSAII (Michael W. Deem and Ramdas Pophale) SiO2 
 PCOD9266259
Probable space group: C 2/C
;
_chemical_formula_sum "Si O2"
_cell_formula_units_Z 36
_cell_length_a 30.995132
_cell_length_b 9.094214
_cell_length_c 17.806077
_cell_angle_alpha 90.000000
_cell_angle_beta 16.481252
_cell_angle_gamma 90.000000
_cell_volume 1423.930120
_symmetry_space_group_name_H-M "C 2/C"
_symmetry_group_IT_number 15
_symmetry_cell_setting 'monoclinic'
loop_
_space_group_symop_operation_xyz
x,y,z
-x,y,1/2-z
-x,-y,-z
x,-y,1/2+z
1/2+x,1/2+y,z
1/2-x,1/2+y,1/2-z
1/2-x,1/2-y,-z
1/2+x,1/2-y,1/2+z
loop_
_atom_site_type_symbol
_atom_site_label
_atom_site_fract_x
_atom_site_fract_y
_atom_site_fract_z
Si Si1 0.596895 0.388578 0.744040
Si Si2 0.411105 0.673427 0.078952
Si Si3 0.332674 0.669070 0.052707
Si Si4 0.500000 0.374616 0.750000
Si Si5 0.635563 0.893885 0.749170
O O1 0.459537 0.503751 0.989617
O O2 0.549787 0.304617 0.745962
O O3 0.735321 0.500858 0.498665
O O4 0.632350 0.303812 0.761729
O O5 0.559400 0.776132 0.821211
O O6 0.302180 0.705687 0.190451
O O7 0.203885 0.694342 0.206632
O O8 0.500000 0.731199 0.750000
O O9 0.364645 0.493083 0.992968
O O10 0.500000 0.000000 0.000000
#
# Coordination Sequence:
#
# PCOD9266259 Si02
#       5
#     8   8   8   4   8
#     4   9  18  35  62  83 116 152 207 247 300 359
#     4  10  19  37  62  87 112 161 205 247 299 372
#     4   8  17  36  56  83 118 152 201 239 301 361
#     4   6  12  30  54  76 106 148 182 244 288 350
#     4  11  22  38  58  89 127 158 200 256 307 366
#
# _framework density 25.282139999999998
#
# number of rings (size 3 to 8) (size 9 to 14) (size 15 to 20)
#    0.667    2.222    2.222    0.667    0.000    0.889 
#   16.000    1.111    0.000    0.000    0.000    0.000 
#    0.000    0.000    0.000    0.000    0.000    0.000 
#
# Total GULP energy -100416.422703 kJ/mol
# GULP energy per Si atom -5578.690150 kJ/mol
# Density = 2.522460 g / cm^3
# Si number density = 25.282140 Si / 1000 Ang^3
#
#
#
# Elastic Constant Matrix: (Units=GPa)
#
#
# Indices 1 2 3 4 5 6 
#
# 1 236.8009 18.2405 50.5910 0.0000 4.2174 0.0000
# 2 18.2405 65.5448 16.3024 0.0000 -2.1269 0.0000
# 3 50.5910 16.3024 57.7837 0.0000 -5.4303 0.0000
# 4 0.0000 0.0000 0.0000 35.2119 0.0000 -2.9411
# 5 4.2174 -2.1269 -5.4303 0.0000 44.6329 0.0000
# 6 0.0000 0.0000 0.0000 -2.9411 0.0000 21.3381
#
#
#
# Elastic Compliance Matrix: (Units=1/GPa)
#
#
# Indices 1 2 3 4 5 6 
#
# 1 0.005252 -0.000352 -0.004600 0.000000 -0.001073 0.000000
# 2 -0.000352 0.016434 -0.004300 0.000000 0.000293 0.000000
# 3 -0.004600 -0.004300 0.022829 0.000000 0.003007 0.000000
# 4 0.000000 0.000000 0.000000 0.028730 0.000000 0.003960
# 5 -0.001073 0.000293 0.003007 0.000000 0.022886 0.000000
# 6 0.000000 0.000000 0.000000 0.003960 0.000000 0.047410
#
#
# Mechanical properties :
#
#
# Convention : Reuss Voigt Hill
#
# Bulk Modulus (GPa) = 38.44680 58.93303 48.68991
# Shear Modulus (GPa) = 29.28841 38.56961 33.92901
#
# Velocity S-wave (km/s) = 3.40731 3.91009 3.66733
# Velocity P-wave (km/s) = 5.54255 6.61406 6.10187
#
# Compressibility (1/GPa) = 0.02600997
#
# Stress axis : x y z
#
# Youngs Moduli (GPa) = 190.40860 60.84976 43.80430
#
# Poissons Ratio (x) = 0.02144 0.20148
# Poissons Ratio (y) = 0.06709 0.18838
# Poissons Ratio (z) = 0.87579 0.26168
#
# Static dielectric constant tensor:
#      x y z
#    x 2.064780 0.000000 0.041030 
#    y 0.000000 1.940220 0.000000 
#    z 0.041030 0.000000 2.089010 
# 
# From -- ./inp_files/224854.got.cif
#   From: 2010.05.17/outbox.cif.g08.bks.cpg/sg15_113_cif.got.tgz:224854.got - 2010.06.03 18:47:42.
