data_PCOD9266664
_publ_section_title
;
Structure prediction by ZEFSAII (Michael W. Deem and Ramdas Pophale) SiO2 
 PCOD9266664
Probable space group: C 2/C
;
_chemical_formula_sum "Si O2"
_cell_formula_units_Z 56
_cell_length_a 21.081185
_cell_length_b 25.611448
_cell_length_c 12.019750
_cell_angle_alpha 90.000000
_cell_angle_beta 152.275261
_cell_angle_gamma 90.000000
_cell_volume 3019.165872
_symmetry_space_group_name_H-M "C 2/C"
_symmetry_group_IT_number 15
_symmetry_cell_setting 'monoclinic'
loop_
_space_group_symop_operation_xyz
x,y,z
-x,y,1/2-z
-x,-y,-z
x,-y,1/2+z
1/2+x,1/2+y,z
1/2-x,1/2+y,1/2-z
1/2-x,1/2-y,-z
1/2+x,1/2-y,1/2+z
loop_
_atom_site_type_symbol
_atom_site_label
_atom_site_fract_x
_atom_site_fract_y
_atom_site_fract_z
Si Si1 0.598437 0.358691 0.180032
Si Si2 0.585650 0.716755 0.997249
Si Si3 0.987889 0.580171 0.444966
Si Si4 0.595959 0.549149 0.123882
Si Si5 0.610679 0.015982 0.829539
Si Si6 0.130924 0.668123 0.534938
Si Si7 0.703948 0.386638 0.591928
O O1 0.520322 0.303724 0.075215
O O2 0.734804 0.350131 0.322002
O O3 0.638768 0.378318 0.367992
O O4 0.491140 0.401099 0.967399
O O5 0.500000 0.720475 0.750000
O O6 0.648646 0.773588 0.111763
O O7 0.684202 0.667581 0.128035
O O8 0.916868 0.545321 0.237839
O O9 0.861683 0.601986 0.318865
O O10 0.077685 0.543397 0.662142
O O11 0.084072 0.625509 0.550420
O O12 0.740244 0.533234 0.401259
O O13 0.634889 0.567365 0.057844
O O14 0.500000 0.500000 0.000000
O O15 0.500000 0.031891 0.750000
O O16 0.000000 0.670248 0.250000
#
# Coordination Sequence:
#
# PCOD9266664 Si02
#       7
#     8   8   8   8   8   8   8
#     4  10  21  37  57  91 128 149 198 244 298 361
#     4   8  19  32  54  89 122 153 191 240 303 350
#     4  11  23  37  61  87 119 153 203 244 284 357
#     4  11  23  38  62  83 116 159 195 247 297 351
#     4  11  24  41  58  85 118 156 202 237 295 353
#     4  11  21  33  61  89 123 159 191 247 300 349
#     4  10  19  38  58  88 120 155 196 242 295 357
#
# _framework density 18.548169000000001
#
# number of rings (size 3 to 8) (size 9 to 14) (size 15 to 20)
#    0.000    1.714    2.857    2.571    4.000    1.714 
#    0.000    2.143    0.000    3.429    7.429    0.000 
#    0.000    0.000    0.000    0.000    0.000    0.000 
#
# Total GULP energy -156054.670230 kJ/mol
# GULP energy per Si atom -5573.381080 kJ/mol
# Density = 1.850595 g / cm^3
# Si number density = 18.548169 Si / 1000 Ang^3
#
#
#
# Elastic Constant Matrix: (Units=GPa)
#
#
# Indices 1 2 3 4 5 6 
#
# 1 116.5520 70.1898 42.8188 0.0000 40.5835 0.0000
# 2 70.1898 136.1391 45.3700 0.0000 15.2068 0.0000
# 3 42.8188 45.3700 97.7629 0.0000 30.5275 0.0000
# 4 0.0000 0.0000 0.0000 18.0332 0.0000 1.0657
# 5 40.5835 15.2068 30.5275 0.0000 34.0012 0.0000
# 6 0.0000 0.0000 0.0000 1.0657 0.0000 39.7516
#
#
#
# Elastic Compliance Matrix: (Units=1/GPa)
#
#
# Indices 1 2 3 4 5 6 
#
# 1 0.021494 -0.009186 0.002191 0.000000 -0.023515 0.000000
# 2 -0.009186 0.012618 -0.004855 0.000000 0.009680 0.000000
# 3 0.002191 -0.004855 0.016204 0.000000 -0.014993 0.000000
# 4 0.000000 0.000000 0.000000 0.055541 0.000000 -0.001489
# 5 -0.023515 0.009680 -0.014993 0.000000 0.066609 0.000000
# 6 0.000000 0.000000 0.000000 -0.001489 0.000000 0.025196
#
#
# Mechanical properties :
#
#
# Convention : Reuss Voigt Hill
#
# Bulk Modulus (GPa) = 37.56945 74.13458 55.85201
# Shear Modulus (GPa) = 21.71695 31.16224 26.43960
#
# Velocity S-wave (km/s) = 3.42547 4.10331 3.77962
# Velocity P-wave (km/s) = 5.99534 7.90601 7.01602
#
# Compressibility (1/GPa) = 0.02661737
#
# Stress axis : x y z
#
# Youngs Moduli (GPa) = 46.52361 79.25080 61.71368
#
# Poissons Ratio (x) = 0.72797 -0.13524
# Poissons Ratio (y) = 0.42735 0.29964
# Poissons Ratio (z) = -0.10195 0.38479
#
# Static dielectric constant tensor:
#      x y z
#    x 1.653450 0.000000 -0.008030 
#    y 0.000000 1.685080 0.000000 
#    z -0.008030 0.000000 1.639230 
# 
# From -- ./inp_files/114765.got.cif
#   From: 2010.05.17/outbox.cif.g08.bks.cpg/sg15_58_cif.got.tgz:114765.got - 2010.06.03 18:47:42.
