data_PCOD9266033
_publ_section_title
;
Structure prediction by ZEFSAII (Michael W. Deem and Ramdas Pophale) SiO2 
 PCOD9266033
Probable space group: C 2/C
;
_chemical_formula_sum "Si O2"
_cell_formula_units_Z 48
_cell_length_a 32.166966
_cell_length_b 14.811410
_cell_length_c 16.037044
_cell_angle_alpha 90.000000
_cell_angle_beta 17.116909
_cell_angle_gamma 90.000000
_cell_volume 2248.817008
_symmetry_space_group_name_H-M "C 2/C"
_symmetry_group_IT_number 15
_symmetry_cell_setting 'monoclinic'
loop_
_space_group_symop_operation_xyz
x,y,z
-x,y,1/2-z
-x,-y,-z
x,-y,1/2+z
1/2+x,1/2+y,z
1/2-x,1/2+y,1/2-z
1/2-x,1/2-y,-z
1/2+x,1/2-y,1/2+z
loop_
_atom_site_type_symbol
_atom_site_label
_atom_site_fract_x
_atom_site_fract_y
_atom_site_fract_z
Si Si1 0.498002 0.675694 0.052260
Si Si2 0.716381 0.325975 0.384422
Si Si3 0.008174 0.620878 0.547348
Si Si4 0.203502 0.860718 0.712510
Si Si5 0.009763 0.560748 0.105516
Si Si6 0.301970 0.439333 0.237192
O O1 0.377928 0.659025 0.352564
O O2 0.556606 0.776023 0.958847
O O3 0.421581 0.671913 0.109135
O O4 0.618487 0.601631 0.834943
O O5 0.745275 0.218873 0.324558
O O6 0.653589 0.375503 0.424409
O O7 0.867162 0.372097 0.107900
O O8 0.065461 0.542787 0.498219
O O9 0.032980 0.586568 0.406729
O O10 0.840247 0.621894 0.890918
O O11 0.164991 0.954494 0.830491
O O12 0.867070 0.567523 0.431052
#
# Coordination Sequence:
#
# PCOD9266033 Si02
#       6
#     8   8   8   8   8   8
#     4  11  20  40  62  87 113 158 199 236 282 357
#     4  11  21  41  62  82 118 162 195 233 291 354
#     4   9  18  35  65  87 105 155 202 234 270 348
#     4  10  20  41  63  82 116 161 196 230 292 357
#     4  10  19  37  59  88 118 146 195 239 289 335
#     4  11  25  35  58  93 122 146 190 251 298 332
#
# _framework density 21.344556999999998
#
# number of rings (size 3 to 8) (size 9 to 14) (size 15 to 20)
#    0.000    1.667    3.333    2.500    0.000    2.000 
#    0.000    8.333    0.000    0.000    0.000    0.000 
#    0.000    0.000    0.000    0.000    0.000    0.000 
#
# Total GULP energy -133964.161572 kJ/mol
# GULP energy per Si atom -5581.840065 kJ/mol
# Density = 2.129598 g / cm^3
# Si number density = 21.344557 Si / 1000 Ang^3
#
#
#
# Elastic Constant Matrix: (Units=GPa)
#
#
# Indices 1 2 3 4 5 6 
#
# 1 52.1400 29.9775 5.8117 0.0000 14.9104 0.0000
# 2 29.9775 161.2636 32.1232 0.0000 5.9262 -0.0001
# 3 5.8117 32.1232 34.6349 0.0000 -1.2969 0.0000
# 4 0.0000 0.0000 0.0000 15.9639 0.0000 4.7581
# 5 14.9104 5.9262 -1.2969 0.0000 22.0322 0.0000
# 6 0.0000 -0.0001 0.0000 4.7581 0.0000 19.0838
#
#
#
# Elastic Compliance Matrix: (Units=1/GPa)
#
#
# Indices 1 2 3 4 5 6 
#
# 1 0.026486 -0.004036 -0.001335 0.000000 -0.016918 0.000000
# 2 -0.004036 0.008357 -0.007072 0.000000 0.000067 0.000000
# 3 -0.001335 -0.007072 0.035839 0.000000 0.004915 0.000000
# 4 0.000000 0.000000 0.000000 0.067670 0.000000 -0.016872
# 5 -0.016918 0.000067 0.004915 0.000000 0.057109 0.000000
# 6 0.000000 0.000000 0.000000 -0.016872 0.000000 0.056607
#
#
# Mechanical properties :
#
#
# Convention : Reuss Voigt Hill
#
# Bulk Modulus (GPa) = 21.83465 42.65149 32.24307
# Shear Modulus (GPa) = 17.11043 23.42439 20.26741
#
# Velocity S-wave (km/s) = 2.83438 3.31636 3.08480
# Velocity P-wave (km/s) = 4.57858 5.88983 5.27511
#
# Compressibility (1/GPa) = 0.04579876
#
# Stress axis : x y z
#
# Youngs Moduli (GPa) = 37.75532 119.65335 27.90227
#
# Poissons Ratio (x) = 0.48293 0.03724
# Poissons Ratio (y) = 0.15238 0.19731
# Poissons Ratio (z) = 0.05039 0.84615
#
# Static dielectric constant tensor:
#      x y z
#    x 1.823320 0.000000 -0.007060 
#    y 0.000000 1.804950 0.000000 
#    z -0.007060 0.000000 1.738080 
# 
# From -- ./inp_files/143564.got.cif
#   From: 2010.05.17/outbox.cif.g08.bks.cpg/sg15_72_cif.got.tgz:143564.got - 2010.06.03 18:47:42.
