data_PCOD9266103
_publ_section_title
;
Structure prediction by ZEFSAII (Michael W. Deem and Ramdas Pophale) SiO2 
 PCOD9266103
Probable space group: C 2/C
;
_chemical_formula_sum "Si O2"
_cell_formula_units_Z 64
_cell_length_a 15.936074
_cell_length_b 23.756006
_cell_length_c 17.539049
_cell_angle_alpha 90.000000
_cell_angle_beta 30.070262
_cell_angle_gamma 90.000000
_cell_volume 3326.993523
_symmetry_space_group_name_H-M "C 2/C"
_symmetry_group_IT_number 15
_symmetry_cell_setting 'monoclinic'
loop_
_space_group_symop_operation_xyz
x,y,z
-x,y,1/2-z
-x,-y,-z
x,-y,1/2+z
1/2+x,1/2+y,z
1/2-x,1/2+y,1/2-z
1/2-x,1/2-y,-z
1/2+x,1/2-y,1/2+z
loop_
_atom_site_type_symbol
_atom_site_label
_atom_site_fract_x
_atom_site_fract_y
_atom_site_fract_z
Si Si1 0.656071 0.295678 0.925980
Si Si2 0.651066 0.534275 0.491390
Si Si3 0.124576 0.423801 0.918368
Si Si4 0.505124 0.578527 0.334129
Si Si5 0.515853 0.823049 0.563888
Si Si6 0.678379 0.647256 0.565993
Si Si7 0.625574 0.024493 0.795301
Si Si8 0.925304 0.896558 0.056712
O O1 0.592790 0.232488 0.964748
O O2 0.679732 0.307091 0.997343
O O3 0.505968 0.338058 0.019577
O O4 0.835149 0.309185 0.745504
O O5 0.533993 0.488024 0.623904
O O6 0.686357 0.586412 0.518468
O O7 0.813787 0.502156 0.331364
O O8 0.560519 0.559247 0.486626
O O9 0.311716 0.405229 0.782466
O O10 0.019175 0.372960 0.967268
O O11 0.127195 0.474047 0.854939
O O12 0.054882 0.447849 0.052851
O O13 0.500000 0.593583 0.250000
O O14 0.398789 0.605513 0.486315
O O15 0.659215 0.843699 0.509699
O O16 0.500000 0.651026 0.750000
O O17 0.755101 0.073726 0.718233
#
# Coordination Sequence:
#
# PCOD9266103 Si02
#       8
#     8   8   8   8   8   8   8   8
#     4  11  24  41  66  87 132 172 219 267 318 380
#     4  10  19  37  60  85 129 169 206 243 326 391
#     4  11  22  37  59  93 122 159 214 268 316 378
#     4  11  20  37  60  88 118 158 211 263 319 384
#     4  12  25  42  62  96 129 171 221 266 320 379
#     4  11  24  39  62  94 136 174 217 260 307 380
#     4  10  20  34  62  83 127 161 206 261 312 381
#     4  10  19  40  60  87 121 168 208 255 325 383
#
# _framework density 19.236587
#
# number of rings (size 3 to 8) (size 9 to 14) (size 15 to 20)
#    0.000    1.250    3.750    3.375    5.250    2.000 
#    0.000    6.250    0.000    0.750    0.000    0.000 
#    0.000    0.000    0.000    0.000    0.000    0.000 
#
# Total GULP energy -178362.615132 kJ/mol
# GULP energy per Si atom -5573.831723 kJ/mol
# Density = 1.919280 g / cm^3
# Si number density = 19.236587 Si / 1000 Ang^3
#
#
#
# Elastic Constant Matrix: (Units=GPa)
#
#
# Indices 1 2 3 4 5 6 
#
# 1 546.4852 -638.7359 600.5476 -0.3163 89.8871 -0.0430
# 2 -638.7359 1021.6671 -799.9957 0.5311 -115.9281 0.0768
# 3 600.5476 -799.9957 832.2799 -0.3973 110.8563 -0.0432
# 4 -0.3163 0.5311 -0.3973 50.2199 -0.0020 1.6390
# 5 89.8871 -115.9281 110.8563 -0.0020 34.6428 0.0059
# 6 -0.0430 0.0768 -0.0432 1.6390 0.0059 24.2482
#
#
#
# Elastic Compliance Matrix: (Units=1/GPa)
#
#
# Indices 1 2 3 4 5 6 
#
# 1 0.010502 0.002403 -0.004722 0.000003 -0.004096 0.000003
# 2 0.002403 0.004578 0.002538 -0.000013 0.000962 -0.000005
# 3 -0.004722 0.002538 0.007468 0.000002 -0.003153 -0.000003
# 4 0.000003 -0.000013 0.000002 0.019957 -0.000058 -0.001349
# 5 -0.004096 0.000962 -0.003153 -0.000058 0.052802 -0.000025
# 6 0.000003 -0.000005 -0.000003 -0.001349 -0.000025 0.041331
#
#
# Mechanical properties :
#
#
# Convention : Reuss Voigt Hill
#
# Bulk Modulus (GPa) = 43.50561 80.45157 61.97859
# Shear Modulus (GPa) = 34.75543 237.72992 136.24267
#
# Velocity S-wave (km/s) = 4.25518 11.12881 8.42487
# Velocity P-wave (km/s) = 6.84158 14.38912 11.26619
#
# Compressibility (1/GPa) = 0.02298554
#
# Stress axis : x y z
#
# Youngs Moduli (GPa) = 95.21897 218.45421 133.89762
#
# Poissons Ratio (x) = -0.52501 0.63232
# Poissons Ratio (y) = -0.22884 -0.33980
# Poissons Ratio (z) = 0.44966 -0.55439
#
# Static dielectric constant tensor:
#      x y z
#    x 1.669590 -0.000010 0.024390 
#    y -0.000010 1.690350 0.000020 
#    z 0.024390 0.000020 1.739600 
# 
# From -- ./inp_files/207310.got.cif
#   From: 2010.05.17/outbox.cif.g08.bks.cpg/sg15_104_cif.got.tgz:207310.got - 2010.06.03 18:47:42.
