data_PCOD9266517
_publ_section_title
;
Structure prediction by ZEFSAII (Michael W. Deem and Ramdas Pophale) SiO2 
 PCOD9266517
Probable space group: C 2/C
;
_chemical_formula_sum "Si O2"
_cell_formula_units_Z 56
_cell_length_a 9.730831
_cell_length_b 14.017186
_cell_length_c 18.633876
_cell_angle_alpha 90.000000
_cell_angle_beta 119.236357
_cell_angle_gamma 90.000000
_cell_volume 2217.866049
_symmetry_space_group_name_H-M "C 2/C"
_symmetry_group_IT_number 15
_symmetry_cell_setting 'monoclinic'
loop_
_space_group_symop_operation_xyz
x,y,z
-x,y,1/2-z
-x,-y,-z
x,-y,1/2+z
1/2+x,1/2+y,z
1/2-x,1/2+y,1/2-z
1/2-x,1/2-y,-z
1/2+x,1/2-y,1/2+z
loop_
_atom_site_type_symbol
_atom_site_label
_atom_site_fract_x
_atom_site_fract_y
_atom_site_fract_z
Si Si1 0.853041 0.479117 0.100425
Si Si2 0.315766 0.471276 0.798226
Si Si3 0.255822 0.706865 0.194483
Si Si4 0.990491 0.834901 0.323311
Si Si5 0.460827 0.627225 0.032361
Si Si6 0.998626 0.712462 0.638603
Si Si7 0.231667 0.137838 0.987188
O O1 0.810622 0.515249 0.169664
O O2 0.988580 0.401055 0.137149
O O3 0.705528 0.415115 0.033162
O O4 0.866684 0.568275 0.050012
O O5 0.260514 0.403490 0.719087
O O6 0.378607 0.573553 0.790795
O O7 0.464377 0.422283 0.877851
O O8 0.088388 0.758009 0.143872
O O9 0.337602 0.755272 0.285213
O O10 0.365896 0.740592 0.157293
O O11 0.000000 0.784262 0.250000
O O12 0.161118 0.872228 0.390463
O O13 0.465942 0.738793 0.053954
O O14 0.584880 0.608220 0.001039
O O15 0.250000 0.250000 0.000000
#
# Coordination Sequence:
#
# PCOD9266517 Si02
#       7
#     8   8   8   8   8   8   8
#     4  11  19  40  66  90 119 168 213 253 319 372
#     4  10  20  38  62  88 124 170 207 252 309 382
#     4  10  23  41  59  94 132 163 213 260 319 367
#     4  12  25  41  63  92 128 167 212 258 315 388
#     4  10  19  37  66  89 119 164 215 254 306 372
#     4  10  21  37  67  93 127 158 212 272 308 367
#     4  11  24  42  63  91 129 167 214 258 314 387
#
# _framework density 25.249497000000002
#
# number of rings (size 3 to 8) (size 9 to 14) (size 15 to 20)
#    0.000    1.429    4.286    1.286   10.000    0.000 
#    2.571    0.714    0.000    0.000    0.000    0.000 
#    0.000    0.000    0.000    0.000    0.000    0.000 
#
# Total GULP energy -156636.955775 kJ/mol
# GULP energy per Si atom -5594.176992 kJ/mol
# Density = 2.519203 g / cm^3
# Si number density = 25.249497 Si / 1000 Ang^3
#
#
#
# Elastic Constant Matrix: (Units=GPa)
#
#
# Indices 1 2 3 4 5 6 
#
# 1 31.2071 2.3139 10.7311 0.0000 5.3594 0.0000
# 2 2.3139 142.8625 16.6176 0.0000 11.1547 0.0000
# 3 10.7311 16.6176 70.2241 0.0000 -3.6335 0.0000
# 4 0.0000 0.0000 0.0000 43.4715 0.0000 -1.6215
# 5 5.3594 11.1547 -3.6335 0.0000 25.7137 0.0000
# 6 0.0000 0.0000 0.0000 -1.6215 0.0000 32.9738
#
#
#
# Elastic Compliance Matrix: (Units=1/GPa)
#
#
# Indices 1 2 3 4 5 6 
#
# 1 0.035551 0.000803 -0.006068 0.000000 -0.008616 0.000000
# 2 0.000803 0.007521 -0.002095 0.000000 -0.003726 0.000000
# 3 -0.006068 -0.002095 0.015892 0.000000 0.004419 0.000000
# 4 0.000000 0.000000 0.000000 0.023046 0.000000 0.001133
# 5 -0.008616 -0.003726 0.004419 0.000000 0.042926 0.000000
# 6 0.000000 0.000000 0.000000 0.001133 0.000000 0.030383
#
#
# Mechanical properties :
#
#
# Convention : Reuss Voigt Hill
#
# Bulk Modulus (GPa) = 22.60279 33.73544 28.16911
# Shear Modulus (GPa) = 27.05796 34.74055 30.89925
#
# Velocity S-wave (km/s) = 3.27712 3.71332 3.50202
# Velocity P-wave (km/s) = 4.82603 5.63692 5.24716
#
# Compressibility (1/GPa) = 0.04424233
#
# Stress axis : x y z
#
# Youngs Moduli (GPa) = 28.12875 132.95398 62.92498
#
# Poissons Ratio (x) = -0.10673 0.38185
# Poissons Ratio (y) = -0.02258 0.13185
# Poissons Ratio (z) = 0.17070 0.27858
#
# Static dielectric constant tensor:
#      x y z
#    x 2.002280 0.000000 0.036730 
#    y 0.000000 2.027420 0.000000 
#    z 0.036730 0.000000 2.051790 
# 
# From -- ./inp_files/237612.got.cif
#   From: 2010.05.17/outbox.cif.g08.bks.cpg/sg15_119_cif.got.tgz:237612.got - 2010.06.03 18:47:42.
