data_PCOD9266540
_publ_section_title
;
Structure prediction by ZEFSAII (Michael W. Deem and Ramdas Pophale) SiO2 
 PCOD9266540
Probable space group: C 2/C
;
_chemical_formula_sum "Si O2"
_cell_formula_units_Z 60
_cell_length_a 13.483160
_cell_length_b 15.909080
_cell_length_c 11.808044
_cell_angle_alpha 90.000000
_cell_angle_beta 86.862880
_cell_angle_gamma 90.000000
_cell_volume 2529.084883
_symmetry_space_group_name_H-M "C 2/C"
_symmetry_group_IT_number 15
_symmetry_cell_setting 'monoclinic'
loop_
_space_group_symop_operation_xyz
x,y,z
-x,y,1/2-z
-x,-y,-z
x,-y,1/2+z
1/2+x,1/2+y,z
1/2-x,1/2+y,1/2-z
1/2-x,1/2-y,-z
1/2+x,1/2-y,1/2+z
loop_
_atom_site_type_symbol
_atom_site_label
_atom_site_fract_x
_atom_site_fract_y
_atom_site_fract_z
Si Si1 0.538411 0.751069 0.910896
Si Si2 0.779883 0.658582 0.213798
Si Si3 0.880572 0.286738 0.065966
Si Si4 0.213718 0.876181 0.953405
Si Si5 0.195551 0.996026 0.143472
Si Si6 0.000000 0.904082 0.250000
Si Si7 0.893318 0.421296 0.249462
Si Si8 0.169246 0.718175 0.597347
O O1 0.613851 0.812470 0.839903
O O2 0.527371 0.662413 0.848675
O O3 0.435080 0.796219 0.941000
O O4 0.574413 0.744878 0.039415
O O5 0.777250 0.616594 0.336371
O O6 0.714568 0.595105 0.142072
O O7 0.715032 0.743896 0.209264
O O8 0.873510 0.186278 0.078476
O O9 0.922286 0.344659 0.162201
O O10 0.771486 0.325328 0.047907
O O11 0.186337 0.961522 0.016279
O O12 0.097296 0.959746 0.212775
O O13 0.299011 0.965409 0.196445
O O14 0.854434 0.378133 0.368540
O O15 0.000000 0.468879 0.250000
O O16 0.250000 0.750000 0.500000
#
# Coordination Sequence:
#
# PCOD9266540 Si02
#       8
#     8   8   8   8   8   4   8   8
#     4  11  22  39  68  98 124 175 236 281 332 401
#     4  11  24  43  64  99 139 175 222 288 338 407
#     4  10  19  37  66  97 122 170 238 279 324 396
#     4  10  21  40  65  93 134 176 220 280 335 406
#     4  11  26  44  65  98 142 181 219 280 353 405
#     4  12  24  46  70  98 132 188 236 282 332 412
#     4  11  21  41  67  97 134 177 222 282 346 400
#     4  10  21  37  64  94 129 173 224 278 330 404
#
# _framework density 23.723996
#
# number of rings (size 3 to 8) (size 9 to 14) (size 15 to 20)
#    0.000    1.333    4.000    2.400    1.867    3.200 
#    7.200    2.667    0.000    0.000    0.000    0.000 
#    0.000    0.000    0.000    0.000    0.000    0.000 
#
# Total GULP energy -167002.977625 kJ/mol
# GULP energy per Si atom -5566.765921 kJ/mol
# Density = 2.367000 g / cm^3
# Si number density = 23.723996 Si / 1000 Ang^3
#
#
#
# Elastic Constant Matrix: (Units=GPa)
#
#
# Indices 1 2 3 4 5 6 
#
# 1 89.4046 12.7233 22.1806 0.0000 -23.2637 0.0000
# 2 12.7233 49.9035 7.9188 0.0000 -13.0882 0.0000
# 3 22.1806 7.9188 66.7568 0.0000 -16.2238 0.0000
# 4 0.0000 0.0000 0.0000 28.5419 0.0000 8.0855
# 5 -23.2637 -13.0882 -16.2238 0.0000 31.7709 0.0000
# 6 0.0000 0.0000 0.0000 8.0855 0.0000 22.0859
#
#
#
# Elastic Compliance Matrix: (Units=1/GPa)
#
#
# Indices 1 2 3 4 5 6 
#
# 1 0.014212 -0.000934 -0.002484 0.000000 0.008753 0.000000
# 2 -0.000934 0.022541 -0.000312 0.000000 0.008443 0.000000
# 3 -0.002484 -0.000312 0.017546 0.000000 0.007013 0.000000
# 4 0.000000 0.000000 0.000000 0.039090 0.000000 -0.014311
# 5 0.008753 0.008443 0.007013 0.000000 0.044944 0.000000
# 6 0.000000 0.000000 0.000000 -0.014311 0.000000 0.050517
#
#
# Mechanical properties :
#
#
# Convention : Reuss Voigt Hill
#
# Bulk Modulus (GPa) = 21.34914 32.41224 26.88069
# Shear Modulus (GPa) = 23.59363 27.36255 25.47809
#
# Velocity S-wave (km/s) = 3.15700 3.39981 3.28065
# Velocity P-wave (km/s) = 4.72307 5.39477 5.07005
#
# Compressibility (1/GPa) = 0.04684029
#
# Stress axis : x y z
#
# Youngs Moduli (GPa) = 70.36352 44.36458 56.99188
#
# Poissons Ratio (x) = 0.04142 0.14157
# Poissons Ratio (y) = 0.06569 0.01777
# Poissons Ratio (z) = 0.17478 0.01383
#
# Static dielectric constant tensor:
#      x y z
#    x 2.163400 0.000000 -0.028960 
#    y 0.000000 1.938650 0.000000 
#    z -0.028960 0.000000 2.025520 
# 
# From -- ./inp_files/98302.got.cif
#   From: 2010.05.17/outbox.cif.g08.bks.cpg/sg15_50_cif.got.tgz:98302.got - 2010.06.03 18:47:42.
