data_PCOD9266741
_publ_section_title
;
Structure prediction by ZEFSAII (Michael W. Deem and Ramdas Pophale) SiO2 
 PCOD9266741
Probable space group: C 2/C
;
_chemical_formula_sum "Si O2"
_cell_formula_units_Z 48
_cell_length_a 10.845552
_cell_length_b 9.045140
_cell_length_c 24.256052
_cell_angle_alpha 90.000000
_cell_angle_beta 66.142672
_cell_angle_gamma 90.000000
_cell_volume 2176.191479
_symmetry_space_group_name_H-M "C 2/C"
_symmetry_group_IT_number 15
_symmetry_cell_setting 'monoclinic'
loop_
_space_group_symop_operation_xyz
x,y,z
-x,y,1/2-z
-x,-y,-z
x,-y,1/2+z
1/2+x,1/2+y,z
1/2-x,1/2+y,1/2-z
1/2-x,1/2-y,-z
1/2+x,1/2-y,1/2+z
loop_
_atom_site_type_symbol
_atom_site_label
_atom_site_fract_x
_atom_site_fract_y
_atom_site_fract_z
Si Si1 0.851770 0.490947 0.209147
Si Si2 0.745177 0.868387 0.077994
Si Si3 0.004179 0.210962 0.314264
Si Si4 0.843188 0.046436 0.848922
Si Si5 0.142022 0.579968 0.473272
Si Si6 0.851116 0.394722 0.834017
O O1 0.732502 0.532070 0.189467
O O2 0.831078 0.539543 0.276050
O O3 0.871283 0.315402 0.193396
O O4 0.999737 0.558006 0.170746
O O5 0.625176 0.781244 0.131538
O O6 0.862276 0.746139 0.051666
O O7 0.758620 0.021631 0.108301
O O8 0.696925 0.903587 0.025144
O O9 0.000000 0.236135 0.250000
O O10 0.986071 0.037785 0.329229
O O11 0.856230 0.219076 0.836311
O O12 0.747334 0.013719 0.917967
O O13 0.000000 0.500000 0.500000
#
# Coordination Sequence:
#
# PCOD9266741 Si02
#       6
#     8   8   8   8   8   8
#     4  10  21  40  58  83 128 157 185 245 301 359
#     4   9  19  38  60  81 121 159 189 247 300 339
#     4  10  19  38  60  86 118 153 194 241 298 358
#     4  11  25  36  62  93 115 156 204 244 296 356
#     4  10  20  38  61  85 116 160 205 239 289 354
#     4  10  21  39  60  91 121 155 198 245 301 354
#
# _framework density 22.056884
#
# number of rings (size 3 to 8) (size 9 to 14) (size 15 to 20)
#    0.000    2.000    3.333    2.000    4.667    0.667 
#    0.000    7.500    0.000    0.000    0.000    0.000 
#    0.000    0.000    0.000    0.000    0.000    0.000 
#
# Total GULP energy -133872.845821 kJ/mol
# GULP energy per Si atom -5578.035243 kJ/mol
# Density = 2.200668 g / cm^3
# Si number density = 22.056884 Si / 1000 Ang^3
#
#
#
# Elastic Constant Matrix: (Units=GPa)
#
#
# Indices 1 2 3 4 5 6 
#
# 1 65.0467 44.9227 21.3426 0.0000 -3.5448 0.0000
# 2 44.9227 168.9574 45.4811 0.0000 1.4324 0.0000
# 3 21.3426 45.4811 100.8608 0.0000 -3.2585 0.0000
# 4 0.0000 0.0000 0.0000 14.0589 0.0000 2.0005
# 5 -3.5448 1.4324 -3.2585 0.0000 14.5798 0.0000
# 6 0.0000 0.0000 0.0000 2.0005 0.0000 24.8417
#
#
#
# Elastic Compliance Matrix: (Units=1/GPa)
#
#
# Indices 1 2 3 4 5 6 
#
# 1 0.019506 -0.004732 -0.001839 0.000000 0.004797 0.000000
# 2 -0.004732 0.007911 -0.002647 0.000000 -0.002519 0.000000
# 3 -0.001839 -0.002647 0.011575 0.000000 0.002400 0.000000
# 4 0.000000 0.000000 0.000000 0.071954 0.000000 -0.005794
# 5 0.004797 -0.002519 0.002400 0.000000 0.070538 0.000000
# 6 0.000000 0.000000 0.000000 -0.005794 0.000000 0.040722
#
#
# Mechanical properties :
#
#
# Convention : Reuss Voigt Hill
#
# Bulk Modulus (GPa) = 48.64801 62.03975 55.34388
# Shear Modulus (GPa) = 20.20251 25.57064 22.88657
#
# Velocity S-wave (km/s) = 3.02971 3.40855 3.22470
# Velocity P-wave (km/s) = 5.86024 6.60902 6.24586
#
# Compressibility (1/GPa) = 0.02055583
#
# Stress axis : x y z
#
# Youngs Moduli (GPa) = 51.26530 126.40955 86.39291
#
# Poissons Ratio (x) = 0.59818 0.15886
# Poissons Ratio (y) = 0.24259 0.22871
# Poissons Ratio (z) = 0.09427 0.33464
#
# Static dielectric constant tensor:
#      x y z
#    x 1.848520 0.000000 -0.042720 
#    y 0.000000 1.906780 0.000000 
#    z -0.042720 0.000000 1.800140 
# 
# From -- ./inp_files/268035.got.cif
#   From: 2010.05.17/outbox.cif.g08.bks.cpg/sg15_135_cif.got.tgz:268035.got - 2010.06.03 18:47:42.
