data_PCOD9266728
_publ_section_title
;
Structure prediction by ZEFSAII (Michael W. Deem and Ramdas Pophale) SiO2 
 PCOD9266728
Probable space group: C 2/C
;
_chemical_formula_sum "Si O2"
_cell_formula_units_Z 48
_cell_length_a 14.808834
_cell_length_b 9.106506
_cell_length_c 29.007797
_cell_angle_alpha 90.000000
_cell_angle_beta 144.914602
_cell_angle_gamma 90.000000
_cell_volume 2248.545478
_symmetry_space_group_name_H-M "C 2/C"
_symmetry_group_IT_number 15
_symmetry_cell_setting 'monoclinic'
loop_
_space_group_symop_operation_xyz
x,y,z
-x,y,1/2-z
-x,-y,-z
x,-y,1/2+z
1/2+x,1/2+y,z
1/2-x,1/2+y,1/2-z
1/2-x,1/2-y,-z
1/2+x,1/2-y,1/2+z
loop_
_atom_site_type_symbol
_atom_site_label
_atom_site_fract_x
_atom_site_fract_y
_atom_site_fract_z
Si Si1 0.693149 0.613410 0.142494
Si Si2 0.073863 0.243061 0.697140
Si Si3 0.666606 0.259115 0.880034
Si Si4 0.745736 0.075483 0.433110
Si Si5 0.918614 0.019048 0.088583
Si Si6 0.703375 0.223323 0.794623
O O1 0.818532 0.729321 0.213597
O O2 0.667277 0.626208 0.077178
O O3 0.536104 0.616770 0.106973
O O4 0.766088 0.451132 0.183740
O O5 0.181594 0.276424 0.697449
O O6 0.922239 0.346489 0.636070
O O7 0.015753 0.077497 0.665640
O O8 0.699108 0.379977 0.932158
O O9 0.730687 0.294911 0.855992
O O10 0.477033 0.246404 0.795143
O O11 0.723451 0.099256 0.918811
O O12 0.840650 0.093311 0.519898
#
# Coordination Sequence:
#
# PCOD9266728 Si02
#       6
#     8   8   8   8   8   8
#     4  10  20  39  62  85 111 163 201 231 282 361
#     4  11  21  38  60  86 120 152 197 245 290 344
#     4  10  19  38  60  83 114 152 200 237 292 345
#     4  11  22  39  62  86 122 157 194 240 299 358
#     4  11  23  38  59  93 122 149 192 254 300 338
#     4   9  19  36  60  82 109 153 200 242 274 352
#
# _framework density 21.347132999999999
#
# number of rings (size 3 to 8) (size 9 to 14) (size 15 to 20)
#    0.000    1.667    3.333    2.000    0.000    0.000 
#    6.000    0.833    0.000    0.000    0.000    0.000 
#    0.000    0.000    0.000    0.000    0.000    0.000 
#
# Total GULP energy -134116.546214 kJ/mol
# GULP energy per Si atom -5588.189426 kJ/mol
# Density = 2.129855 g / cm^3
# Si number density = 21.347133 Si / 1000 Ang^3
#
#
#
# Elastic Constant Matrix: (Units=GPa)
#
#
# Indices 1 2 3 4 5 6 
#
# 1 70.0669 23.7547 -1.3642 0.0000 -23.4255 0.0000
# 2 23.7547 36.1885 12.0092 0.0000 -15.4777 0.0000
# 3 -1.3642 12.0092 44.9078 0.0000 -12.0321 0.0000
# 4 0.0000 0.0000 0.0000 21.7691 0.0000 -3.9505
# 5 -23.4255 -15.4777 -12.0321 0.0000 31.2233 0.0000
# 6 0.0000 0.0000 0.0000 -3.9505 0.0000 26.8935
#
#
#
# Elastic Compliance Matrix: (Units=1/GPa)
#
#
# Indices 1 2 3 4 5 6 
#
# 1 0.023250 -0.011539 0.007732 0.000000 0.014703 0.000000
# 2 -0.011539 0.041947 -0.009274 0.000000 0.008562 0.000000
# 3 0.007732 -0.009274 0.028219 0.000000 0.012078 0.000000
# 4 0.000000 0.000000 0.000000 0.047195 0.000000 0.006933
# 5 0.014703 0.008562 0.012078 0.000000 0.051957 0.000000
# 6 0.000000 0.000000 0.000000 0.006933 0.000000 0.038202
#
#
# Mechanical properties :
#
#
# Convention : Reuss Voigt Hill
#
# Bulk Modulus (GPa) = 14.86919 24.44030 19.65475
# Shear Modulus (GPa) = 17.89860 23.76141 20.83000
#
# Velocity S-wave (km/s) = 2.89875 3.33993 3.12713
# Velocity P-wave (km/s) = 4.26429 5.13297 4.71866
#
# Compressibility (1/GPa) = 0.06725316
#
# Stress axis : x y z
#
# Youngs Moduli (GPa) = 43.00993 23.83943 35.43748
#
# Poissons Ratio (x) = 0.27509 -0.27399
# Poissons Ratio (y) = 0.49630 0.32864
# Poissons Ratio (z) = -0.33253 0.22109
#
# Static dielectric constant tensor:
#      x y z
#    x 1.766140 0.000000 -0.023320 
#    y 0.000000 1.748910 0.000000 
#    z -0.023320 0.000000 1.809700 
# 
# From -- ./inp_files/242568.got.cif
#   From: 2010.05.17/outbox.cif.g08.bks.cpg/sg15_122_cif.got.tgz:242568.got - 2010.06.03 18:47:42.
