data_PCOD9266860
_publ_section_title
;
Structure prediction by ZEFSAII (Michael W. Deem and Ramdas Pophale) SiO2 
 PCOD9266860
Probable space group: C 2/C
;
_chemical_formula_sum "Si O2"
_cell_formula_units_Z 48
_cell_length_a 10.802615
_cell_length_b 14.287858
_cell_length_c 18.379335
_cell_angle_alpha 90.000000
_cell_angle_beta 50.408309
_cell_angle_gamma 90.000000
_cell_volume 2186.039573
_symmetry_space_group_name_H-M "C 2/C"
_symmetry_group_IT_number 15
_symmetry_cell_setting 'monoclinic'
loop_
_space_group_symop_operation_xyz
x,y,z
-x,y,1/2-z
-x,-y,-z
x,-y,1/2+z
1/2+x,1/2+y,z
1/2-x,1/2+y,1/2-z
1/2-x,1/2-y,-z
1/2+x,1/2-y,1/2+z
loop_
_atom_site_type_symbol
_atom_site_label
_atom_site_fract_x
_atom_site_fract_y
_atom_site_fract_z
Si Si1 0.888989 0.644635 0.153590
Si Si2 0.653241 0.766623 0.150436
Si Si3 0.126935 0.128229 0.032661
Si Si4 0.619035 0.294652 0.140822
Si Si5 0.182186 0.544342 0.012728
Si Si6 0.770363 0.110665 0.137302
O O1 0.738708 0.689554 0.169084
O O2 0.830049 0.599561 0.251354
O O3 0.009684 0.730631 0.128518
O O4 0.997048 0.570734 0.069285
O O5 0.500000 0.806568 0.250000
O O6 0.787737 0.838535 0.073180
O O7 0.598214 0.715873 0.096789
O O8 0.247336 0.057433 0.027504
O O9 0.954230 0.085054 0.081598
O O10 0.500000 0.325897 0.250000
O O11 0.747704 0.221044 0.125732
O O12 0.706950 0.379063 0.068555
O O13 0.204992 0.557912 0.091411
#
# Coordination Sequence:
#
# PCOD9266860 Si02
#       6
#     8   8   8   8   8   8
#     4  10  20  38  63  86 116 158 199 243 291 358
#     4  11  23  42  61  81 117 165 206 237 289 364
#     4  11  24  38  61  88 119 159 198 244 300 353
#     4   9  19  35  60  89 116 157 199 243 296 352
#     4  11  21  36  60  93 123 146 194 257 301 345
#     4  10  19  38  62  88 117 156 197 238 301 357
#
# _framework density 21.957516999999999
#
# number of rings (size 3 to 8) (size 9 to 14) (size 15 to 20)
#    0.000    1.667    1.667    6.000    0.000    2.667 
#    0.000    0.000    0.000    0.000    0.000    0.000 
#    0.000    0.000    0.000    0.000    0.000    0.000 
#
# Total GULP energy -134109.107045 kJ/mol
# GULP energy per Si atom -5587.879460 kJ/mol
# Density = 2.190754 g / cm^3
# Si number density = 21.957517 Si / 1000 Ang^3
#
#
#
# Elastic Constant Matrix: (Units=GPa)
#
#
# Indices 1 2 3 4 5 6 
#
# 1 58.0755 -20.1285 7.4242 0.0000 -7.9243 0.0000
# 2 -20.1285 29.2126 29.5273 0.0000 4.6133 0.0000
# 3 7.4242 29.5273 140.5937 0.0000 -3.0505 0.0000
# 4 0.0000 0.0000 0.0000 6.6993 0.0000 3.2836
# 5 -7.9243 4.6133 -3.0505 0.0000 27.8561 0.0000
# 6 0.0000 0.0000 0.0000 3.2836 0.0000 12.4278
#
#
#
# Elastic Compliance Matrix: (Units=1/GPa)
#
#
# Indices 1 2 3 4 5 6 
#
# 1 0.027067 0.024856 -0.006587 0.000000 0.002862 0.000000
# 2 0.024856 0.068244 -0.015774 0.000000 -0.005958 0.000000
# 3 -0.006587 -0.015774 0.010815 0.000000 0.001923 0.000000
# 4 0.000000 0.000000 0.000000 0.171476 0.000000 -0.045306
# 5 0.002862 -0.005958 0.001923 0.000000 0.037910 0.000000
# 6 0.000000 0.000000 0.000000 -0.045306 0.000000 0.092435
#
#
# Mechanical properties :
#
#
# Convention : Reuss Voigt Hill
#
# Bulk Modulus (GPa) = 8.99971 29.05863 19.02917
# Shear Modulus (GPa) = 11.36374 23.46723 17.41548
#
# Velocity S-wave (km/s) = 2.27740 3.27273 2.81934
# Velocity P-wave (km/s) = 3.32009 5.24822 4.39129
#
# Compressibility (1/GPa) = 0.11111472
#
# Stress axis : x y z
#
# Youngs Moduli (GPa) = 36.94588 14.65334 92.46271
#
# Poissons Ratio (x) = -0.36423 0.60910
# Poissons Ratio (y) = -0.91834 1.45854
# Poissons Ratio (z) = 0.24338 0.23115
#
# Static dielectric constant tensor:
#      x y z
#    x 1.800470 0.000000 0.007020 
#    y 0.000000 1.804780 0.000000 
#    z 0.007020 0.000000 1.793640 
# 
# From -- ./inp_files/143751.got.cif
#   From: 2010.05.17/outbox.cif.g08.bks.cpg/sg15_72_cif.got.tgz:143751.got - 2010.06.03 18:47:42.
