data_PCOD9266334
_publ_section_title
;
Structure prediction by ZEFSAII (Michael W. Deem and Ramdas Pophale) SiO2 
 PCOD9266334
Probable space group: C 2/C
;
_chemical_formula_sum "Si O2"
_cell_formula_units_Z 44
_cell_length_a 26.012887
_cell_length_b 13.875315
_cell_length_c 16.109350
_cell_angle_alpha 90.000000
_cell_angle_beta 20.626311
_cell_angle_gamma 90.000000
_cell_volume 2048.268497
_symmetry_space_group_name_H-M "C 2/C"
_symmetry_group_IT_number 15
_symmetry_cell_setting 'monoclinic'
loop_
_space_group_symop_operation_xyz
x,y,z
-x,y,1/2-z
-x,-y,-z
x,-y,1/2+z
1/2+x,1/2+y,z
1/2-x,1/2+y,1/2-z
1/2-x,1/2-y,-z
1/2+x,1/2-y,1/2+z
loop_
_atom_site_type_symbol
_atom_site_label
_atom_site_fract_x
_atom_site_fract_y
_atom_site_fract_z
Si Si1 0.026257 0.785774 0.807784
Si Si2 0.500000 0.686418 0.750000
Si Si3 0.167968 0.382619 0.182845
Si Si4 0.946500 0.720245 0.494563
Si Si5 0.567428 0.394393 0.403767
Si Si6 0.235197 0.399955 0.547194
O O1 0.045911 0.680208 0.818921
O O2 0.178938 0.843363 0.583153
O O3 0.000000 0.776933 0.750000
O O4 0.916836 0.850394 0.028116
O O5 0.579677 0.752317 0.560848
O O6 0.622382 0.623199 0.612085
O O7 0.150525 0.352118 0.305282
O O8 0.168106 0.496145 0.169601
O O9 0.952185 0.820827 0.535467
O O10 0.110679 0.678411 0.249454
O O11 0.500000 0.500000 0.500000
O O12 0.709473 0.395957 0.131163
#
# Coordination Sequence:
#
# PCOD9266334 Si02
#       6
#     8   4   8   8   8   8
#     4  10  22  39  64  93 125 165 213 258 309 374
#     4  10  22  40  62  94 120 172 214 248 304 382
#     4  10  22  40  64  93 127 164 203 264 317 362
#     4  10  23  40  61  91 131 161 202 262 318 366
#     4  10  19  37  63  88 121 162 204 257 302 362
#     4  11  22  41  67  91 129 162 213 259 314 371
#
# _framework density 21.481559000000001
#
# number of rings (size 3 to 8) (size 9 to 14) (size 15 to 20)
#    0.000    1.818    1.818    2.727    1.273    4.364 
#    1.636    0.000    8.000    0.000    0.000    0.000 
#    0.000    0.000    0.000    0.000    0.000    0.000 
#
# Total GULP energy -122865.626508 kJ/mol
# GULP energy per Si atom -5584.801205 kJ/mol
# Density = 2.143267 g / cm^3
# Si number density = 21.481559 Si / 1000 Ang^3
#
#
#
# Elastic Constant Matrix: (Units=GPa)
#
#
# Indices 1 2 3 4 5 6 
#
# 1 129.6936 57.9400 32.2769 0.0000 36.9863 0.0000
# 2 57.9400 155.5554 41.2959 0.0000 12.3874 0.0000
# 3 32.2769 41.2959 97.9280 -0.0001 32.4605 0.0001
# 4 0.0000 0.0000 -0.0001 33.8503 0.0000 12.6208
# 5 36.9863 12.3874 32.4605 0.0000 44.6786 0.0000
# 6 0.0000 0.0000 0.0001 12.6208 0.0000 14.2951
#
#
#
# Elastic Compliance Matrix: (Units=1/GPa)
#
#
# Indices 1 2 3 4 5 6 
#
# 1 0.011934 -0.003918 0.000834 0.000000 -0.009399 0.000000
# 2 -0.003918 0.008528 -0.003420 0.000000 0.003364 0.000000
# 3 0.000834 -0.003420 0.014876 0.000000 -0.010550 0.000000
# 4 0.000000 0.000000 0.000000 0.044038 0.000000 -0.038880
# 5 -0.009399 0.003364 -0.010550 0.000000 0.036895 0.000000
# 6 0.000000 0.000000 0.000000 -0.038880 0.000000 0.104280
#
#
# Mechanical properties :
#
#
# Convention : Reuss Voigt Hill
#
# Bulk Modulus (GPa) = 44.78149 71.80028 58.29089
# Shear Modulus (GPa) = 20.74679 35.34243 28.04461
#
# Velocity S-wave (km/s) = 3.11110 4.06056 3.61712
# Velocity P-wave (km/s) = 5.81352 7.44855 6.68124
#
# Compressibility (1/GPa) = 0.02233066
#
# Stress axis : x y z
#
# Youngs Moduli (GPa) = 83.79730 117.26202 67.22305
#
# Poissons Ratio (x) = 0.45943 -0.05609
# Poissons Ratio (y) = 0.32831 0.22989
# Poissons Ratio (z) = -0.06992 0.40101
#
# Static dielectric constant tensor:
#      x y z
#    x 1.838680 0.000000 0.001340 
#    y 0.000000 1.745960 0.000000 
#    z 0.001340 0.000000 1.809650 
# 
# From -- ./inp_files/225374.got.cif
#   From: 2010.05.17/outbox.cif.g08.bks.cpg/sg15_113_cif.got.tgz:225374.got - 2010.06.03 18:47:42.
