data_PCOD9266032
_publ_section_title
;
Structure prediction by ZEFSAII (Michael W. Deem and Ramdas Pophale) SiO2 
 PCOD9266032
Probable space group: C 2/C
;
_chemical_formula_sum "Si O2"
_cell_formula_units_Z 44
_cell_length_a 27.868721
_cell_length_b 12.224896
_cell_length_c 21.680532
_cell_angle_alpha 90.000000
_cell_angle_beta 163.013846
_cell_angle_gamma 90.000000
_cell_volume 2157.863944
_symmetry_space_group_name_H-M "C 2/C"
_symmetry_group_IT_number 15
_symmetry_cell_setting 'monoclinic'
loop_
_space_group_symop_operation_xyz
x,y,z
-x,y,1/2-z
-x,-y,-z
x,-y,1/2+z
1/2+x,1/2+y,z
1/2-x,1/2+y,1/2-z
1/2-x,1/2-y,-z
1/2+x,1/2-y,1/2+z
loop_
_atom_site_type_symbol
_atom_site_label
_atom_site_fract_x
_atom_site_fract_y
_atom_site_fract_z
Si Si1 0.881014 0.842751 0.153437
Si Si2 0.538824 0.333188 0.925686
Si Si3 0.523120 0.292977 0.098353
Si Si4 0.745986 0.372660 0.829395
Si Si5 0.000000 0.953695 0.750000
Si Si6 0.287831 0.115682 0.839530
O O1 0.000000 0.789637 0.250000
O O2 0.959064 0.858709 0.316421
O O3 0.750000 0.750000 0.000000
O O4 0.854025 0.961537 0.090050
O O5 0.362202 0.347060 0.742290
O O6 0.539497 0.385930 0.859118
O O7 0.601428 0.208666 0.993277
O O8 0.673837 0.387231 0.137985
O O9 0.690483 0.302300 0.265792
O O10 0.383335 0.345754 0.884076
O O11 0.461117 0.170925 0.036762
O O12 0.793863 0.498855 0.879949
#
# Coordination Sequence:
#
# PCOD9266032 Si02
#       6
#     8   8   8   8   4   8
#     4  10  21  35  57  87 117 151 194 232 296 350
#     4  10  21  40  60  87 115 160 198 234 301 344
#     4  10  19  37  59  88 117 153 196 245 297 341
#     4  10  21  39  61  86 119 154 201 244 287 352
#     4  10  22  38  64  78 126 158 186 240 292 356
#     4  10  20  37  64  86 119 149 197 253 289 343
#
# _framework density 20.390533000000001
#
# number of rings (size 3 to 8) (size 9 to 14) (size 15 to 20)
#    0.545    1.455    0.000    5.455    0.000    0.727 
#    3.273    9.091    2.000    0.000    0.000    0.000 
#    0.000    0.000    0.000    0.000    0.000    0.000 
#
# Total GULP energy -122623.008944 kJ/mol
# GULP energy per Si atom -5573.773134 kJ/mol
# Density = 2.034412 g / cm^3
# Si number density = 20.390533 Si / 1000 Ang^3
#
#
#
# Elastic Constant Matrix: (Units=GPa)
#
#
# Indices 1 2 3 4 5 6 
#
# 1 163.6701 60.9931 41.2291 0.0002 -12.3152 0.0001
# 2 60.9931 143.0370 44.9567 0.0002 22.3377 0.0002
# 3 41.2291 44.9567 22.8633 0.0003 4.5931 0.0003
# 4 0.0002 0.0002 0.0003 17.1706 0.0002 0.8632
# 5 -12.3152 22.3377 4.5931 0.0002 18.3774 0.0001
# 6 0.0001 0.0002 0.0003 0.8632 0.0001 35.7408
#
#
#
# Elastic Compliance Matrix: (Units=1/GPa)
#
#
# Indices 1 2 3 4 5 6 
#
# 1 0.015483 0.001522 -0.034352 0.000000 0.017111 0.000000
# 2 0.001522 0.022625 -0.044129 0.000001 -0.015451 0.000000
# 3 -0.034352 -0.044129 0.196154 -0.000002 -0.018406 -0.000001
# 4 0.000000 0.000001 -0.000002 0.058310 -0.000001 -0.001408
# 5 0.017111 -0.015451 -0.018406 -0.000001 0.089263 0.000000
# 6 0.000000 0.000000 -0.000001 -0.001408 0.000000 0.028013
#
#
# Mechanical properties :
#
#
# Convention : Reuss Voigt Hill
#
# Bulk Modulus (GPa) = 12.44627 69.32537 40.88582
# Shear Modulus (GPa) = 8.46673 26.41719 17.44196
#
# Velocity S-wave (km/s) = 2.03993 3.60330 2.92789
# Velocity P-wave (km/s) = 3.41549 7.16828 5.61471
#
# Compressibility (1/GPa) = 0.08034535
#
# Stress axis : x y z
#
# Youngs Moduli (GPa) = 64.58504 44.19931 5.09803
#
# Poissons Ratio (x) = -0.06728 0.17513
# Poissons Ratio (y) = -0.09832 0.22497
# Poissons Ratio (z) = 2.21862 1.95046
#
# Static dielectric constant tensor:
#      x y z
#    x 1.735420 0.000000 -0.000530 
#    y 0.000000 1.749580 0.000000 
#    z -0.000530 0.000000 1.747970 
# 
# From -- ./inp_files/257560.got.cif
#   From: 2010.05.17/outbox.cif.g08.bks.cpg/sg15_129_cif.got.tgz:257560.got - 2010.06.03 18:47:42.
