data_PCOD9266883
_publ_section_title
;
Structure prediction by ZEFSAII (Michael W. Deem and Ramdas Pophale) SiO2 
 PCOD9266883
Probable space group: C 2/C
;
_chemical_formula_sum "Si O2"
_cell_formula_units_Z 40
_cell_length_a 15.557605
_cell_length_b 20.177982
_cell_length_c 5.341178
_cell_angle_alpha 90.000000
_cell_angle_beta 63.217462
_cell_angle_gamma 90.000000
_cell_volume 1496.836412
_symmetry_space_group_name_H-M "C 2/C"
_symmetry_group_IT_number 15
_symmetry_cell_setting 'monoclinic'
loop_
_space_group_symop_operation_xyz
x,y,z
-x,y,1/2-z
-x,-y,-z
x,-y,1/2+z
1/2+x,1/2+y,z
1/2-x,1/2+y,1/2-z
1/2-x,1/2-y,-z
1/2+x,1/2-y,1/2+z
loop_
_atom_site_type_symbol
_atom_site_label
_atom_site_fract_x
_atom_site_fract_y
_atom_site_fract_z
Si Si1 0.500000 0.136682 0.750000
Si Si2 0.899941 0.789116 0.254170
Si Si3 0.000000 0.110659 0.250000
Si Si4 0.320346 0.593832 0.193349
Si Si5 0.317227 0.191996 0.997987
Si Si6 0.868045 0.463618 0.731971
O O1 0.419315 0.182404 0.730319
O O2 0.565546 0.095056 0.469211
O O3 0.842672 0.839059 0.509551
O O4 0.000000 0.773271 0.250000
O O5 0.930927 0.839610 0.991415
O O6 0.848843 0.722944 0.226145
O O7 0.077564 0.071760 0.323553
O O8 0.240607 0.624353 0.484532
O O9 0.248699 0.547524 0.128917
O O10 0.250000 0.250000 0.000000
O O11 0.889624 0.518827 0.490076
#
# Coordination Sequence:
#
# PCOD9266883 Si02
#       6
#     4   8   4   8   8   8
#     4  10  25  44  68 110 140 188 236 293 356 426
#     4  10  21  37  61  95 140 187 224 278 354 430
#     4  10  19  38  62  90 140 168 222 283 356 418
#     4  10  23  39  65  98 132 185 233 296 352 420
#     4  11  21  38  65  99 142 185 229 274 348 438
#     4  11  26  50  76 101 136 187 251 312 363 408
#
# _framework density 26.723029
#
# number of rings (size 3 to 8) (size 9 to 14) (size 15 to 20)
#    0.000    1.600    2.000    1.800    5.600    0.000 
#    7.200    1.000    0.000    0.000    0.000    0.000 
#    0.000    0.000    0.000    0.000    0.000    0.000 
#
# Total GULP energy -111575.926723 kJ/mol
# GULP energy per Si atom -5578.796336 kJ/mol
# Density = 2.666221 g / cm^3
# Si number density = 26.723029 Si / 1000 Ang^3
#
#
#
# Elastic Constant Matrix: (Units=GPa)
#
#
# Indices 1 2 3 4 5 6 
#
# 1 196.3104 25.6011 13.7613 0.0000 -19.9240 0.0000
# 2 25.6011 43.0603 18.4830 0.0000 -7.5412 0.0000
# 3 13.7613 18.4830 81.1754 0.0000 -9.6795 0.0000
# 4 0.0000 0.0000 0.0000 36.2706 0.0000 -6.1583
# 5 -19.9240 -7.5412 -9.6795 0.0000 37.7138 0.0000
# 6 0.0000 0.0000 0.0000 -6.1583 0.0000 48.9523
#
#
#
# Elastic Compliance Matrix: (Units=1/GPa)
#
#
# Indices 1 2 3 4 5 6 
#
# 1 0.005729 -0.002979 -0.000003 0.000000 0.002430 0.000000
# 2 -0.002979 0.027815 -0.005522 0.000000 0.002571 0.000000
# 3 -0.000003 -0.005522 0.013869 0.000000 0.002454 0.000000
# 4 0.000000 0.000000 0.000000 0.028172 0.000000 0.003544
# 5 0.002430 0.002571 0.002454 0.000000 0.028943 0.000000
# 6 0.000000 0.000000 0.000000 0.003544 0.000000 0.020874
#
#
# Mechanical properties :
#
#
# Convention : Reuss Voigt Hill
#
# Bulk Modulus (GPa) = 32.88889 48.47075 40.67982
# Shear Modulus (GPa) = 32.77689 42.10073 37.43881
#
# Velocity S-wave (km/s) = 3.50600 3.97350 3.74705
# Velocity P-wave (km/s) = 5.35942 6.26332 5.82892
#
# Compressibility (1/GPa) = 0.03040541
#
# Stress axis : x y z
#
# Youngs Moduli (GPa) = 174.53856 35.95192 72.10130
#
# Poissons Ratio (x) = 0.10712 0.00022
# Poissons Ratio (y) = 0.52002 0.39812
# Poissons Ratio (z) = 0.00054 0.19851
#
# Static dielectric constant tensor:
#      x y z
#    x 2.186590 0.000000 0.038930 
#    y 0.000000 2.142400 0.000000 
#    z 0.038930 0.000000 2.188440 
# 
# From -- ./inp_files/7516.got.cif
#   From: 2010.05.17/outbox.cif.g08.bks.cpg/sg15_4_cif.got.tgz:7516.got - 2010.06.03 18:47:42.
