data_PCOD9266906
_publ_section_title
;
Structure prediction by ZEFSAII (Michael W. Deem and Ramdas Pophale) SiO2 
 PCOD9266906
Probable space group: C 2/C
;
_chemical_formula_sum "Si O2"
_cell_formula_units_Z 64
_cell_length_a 11.259947
_cell_length_b 16.336596
_cell_length_c 25.013704
_cell_angle_alpha 90.000000
_cell_angle_beta 40.362973
_cell_angle_gamma 90.000000
_cell_volume 2979.897245
_symmetry_space_group_name_H-M "C 2/C"
_symmetry_group_IT_number 15
_symmetry_cell_setting 'monoclinic'
loop_
_space_group_symop_operation_xyz
x,y,z
-x,y,1/2-z
-x,-y,-z
x,-y,1/2+z
1/2+x,1/2+y,z
1/2-x,1/2+y,1/2-z
1/2-x,1/2-y,-z
1/2+x,1/2-y,1/2+z
loop_
_atom_site_type_symbol
_atom_site_label
_atom_site_fract_x
_atom_site_fract_y
_atom_site_fract_z
Si Si1 0.922381 0.855985 0.336157
Si Si2 0.455730 0.712868 0.932470
Si Si3 0.001664 0.695082 0.886004
Si Si4 0.159794 0.064919 0.455658
Si Si5 0.512115 0.985977 0.090119
Si Si6 0.260483 0.464628 0.899211
Si Si7 0.215087 0.296880 0.664534
Si Si8 0.278129 0.211839 0.075089
O O1 0.027923 0.815365 0.349514
O O2 0.771951 0.783494 0.378888
O O3 0.000000 0.860542 0.250000
O O4 0.865297 0.948963 0.367924
O O5 0.589172 0.770526 0.920687
O O6 0.250000 0.750000 0.000000
O O7 0.425582 0.628643 0.973722
O O8 0.160209 0.763115 0.830674
O O9 0.060837 0.600926 0.863627
O O10 0.858495 0.713561 0.888394
O O11 0.894567 0.706530 0.979677
O O12 0.208104 0.121252 0.388104
O O13 0.346870 0.027723 0.417081
O O14 0.000000 0.000000 0.500000
O O15 0.341999 0.034406 0.123171
O O16 0.626632 0.968895 0.996538
O O17 0.334621 0.372683 0.879255
O O18 0.000000 0.308884 0.750000
#
# Coordination Sequence:
#
# PCOD9266906 Si02
#       8
#     8   8   8   8   8   8   8   8
#     4  11  23  41  66  92 129 176 226 270 339 408
#     4  12  21  39  66 100 132 173 230 279 328 409
#     4  10  19  38  62  98 136 172 213 273 344 404
#     4  12  24  38  65 103 134 171 227 286 333 398
#     4  10  20  34  59  93 129 160 212 281 327 376
#     4  10  20  35  58  93 124 162 212 270 328 379
#     4  11  24  43  67  92 134 187 227 267 350 426
#     4  10  21  33  64 101 134 163 218 288 334 380
#
# _framework density 21.477250000000002
#
# number of rings (size 3 to 8) (size 9 to 14) (size 15 to 20)
#    0.000    1.250    5.000    1.500    5.250    0.000 
#    0.000    2.500    0.000    0.000    0.000    0.000 
#    0.000    0.000    0.000    0.000    0.000    0.000 
#
# Total GULP energy -178232.928942 kJ/mol
# GULP energy per Si atom -5569.779029 kJ/mol
# Density = 2.142837 g / cm^3
# Si number density = 21.477250 Si / 1000 Ang^3
#
#
#
# Elastic Constant Matrix: (Units=GPa)
#
#
# Indices 1 2 3 4 5 6 
#
# 1 73.8838 43.0498 11.4681 0.0001 0.7839 0.0000
# 2 43.0498 136.3050 32.0390 -0.0003 -2.3654 0.0000
# 3 11.4681 32.0390 53.2155 -0.0019 6.2066 0.0000
# 4 0.0001 -0.0003 -0.0019 16.1803 -0.0003 0.6358
# 5 0.7839 -2.3654 6.2066 -0.0003 14.0985 0.0001
# 6 0.0000 0.0000 0.0000 0.6358 0.0001 41.8971
#
#
#
# Elastic Compliance Matrix: (Units=1/GPa)
#
#
# Indices 1 2 3 4 5 6 
#
# 1 0.016636 -0.005227 -0.000240 0.000000 -0.001696 0.000000
# 2 -0.005227 0.010397 -0.005661 0.000000 0.004527 0.000000
# 3 -0.000240 -0.005661 0.023571 0.000003 -0.011313 0.000000
# 4 0.000000 0.000000 0.000003 0.061840 0.000000 -0.000938
# 5 -0.001696 0.004527 -0.011313 0.000000 0.076764 0.000000
# 6 0.000000 0.000000 0.000000 -0.000938 0.000000 0.023882
#
#
# Mechanical properties :
#
#
# Convention : Reuss Voigt Hill
#
# Bulk Modulus (GPa) = 35.27729 48.50202 41.88965
# Shear Modulus (GPa) = 20.42524 26.22500 23.32512
#
# Velocity S-wave (km/s) = 3.08720 3.49816 3.29908
# Velocity P-wave (km/s) = 5.40082 6.24084 5.83596
#
# Compressibility (1/GPa) = 0.02834685
#
# Stress axis : x y z
#
# Youngs Moduli (GPa) = 60.11155 96.18545 42.42511
#
# Poissons Ratio (x) = 0.50277 0.01019
# Poissons Ratio (y) = 0.31421 0.24017
# Poissons Ratio (z) = 0.01444 0.54450
#
# Static dielectric constant tensor:
#      x y z
#    x 1.840710 0.000000 0.002510 
#    y 0.000000 1.771760 0.000000 
#    z 0.002510 0.000000 1.816350 
# 
# From -- ./inp_files/293031.got.cif
#   From: 2010.05.17/outbox.cif.g08.bks.cpg/sg15_147_cif.got.tgz:293031.got - 2010.06.03 18:47:42.
