data_PCOD9266851
_publ_section_title
;
Structure prediction by ZEFSAII (Michael W. Deem and Ramdas Pophale) SiO2 
 PCOD9266851
Probable space group: C 2/C
;
_chemical_formula_sum "Si O2"
_cell_formula_units_Z 40
_cell_length_a 7.161011
_cell_length_b 24.057171
_cell_length_c 15.986200
_cell_angle_alpha 90.000000
_cell_angle_beta 141.871312
_cell_angle_gamma 90.000000
_cell_volume 1700.402505
_symmetry_space_group_name_H-M "C 2/C"
_symmetry_group_IT_number 15
_symmetry_cell_setting 'monoclinic'
loop_
_space_group_symop_operation_xyz
x,y,z
-x,y,1/2-z
-x,-y,-z
x,-y,1/2+z
1/2+x,1/2+y,z
1/2-x,1/2+y,1/2-z
1/2-x,1/2-y,-z
1/2+x,1/2-y,1/2+z
loop_
_atom_site_type_symbol
_atom_site_label
_atom_site_fract_x
_atom_site_fract_y
_atom_site_fract_z
Si Si1 0.953855 0.243412 0.835571
Si Si2 0.684770 0.553909 0.990643
Si Si3 0.163566 0.635115 0.214880
Si Si4 0.837130 0.067654 0.033992
Si Si5 0.756802 0.875695 0.239143
O O1 0.783886 0.301246 0.791003
O O2 0.792828 0.184374 0.795635
O O3 0.000000 0.242021 0.750000
O O4 0.250000 0.250000 0.000000
O O5 0.593638 0.552933 0.055378
O O6 0.379801 0.574793 0.839766
O O7 0.785008 0.494174 0.992773
O O8 0.935592 0.602075 0.073576
O O9 0.468929 0.600533 0.330612
O O10 0.000000 0.638126 0.250000
O O11 0.574376 0.107930 0.908387
O O12 0.000000 0.875512 0.250000
#
# Coordination Sequence:
#
# PCOD9266851 Si02
#       5
#     8   8   8   8   8
#     4  10  20  38  63  87 122 168 210 256 317 373
#     4  10  19  38  62  86 118 154 204 259 308 369
#     4   9  18  34  59  83 115 153 202 258 308 351
#     4  10  21  36  61  92 114 155 209 259 304 370
#     4  11  23  37  58  86 125 161 202 251 315 377
#
# _framework density 23.523841999999998
#
# number of rings (size 3 to 8) (size 9 to 14) (size 15 to 20)
#    0.000    2.000    2.000    1.800    0.000    4.800 
#    0.000    1.000    0.000    0.000    0.000    0.000 
#    0.000    0.000    0.000    0.000    0.000    0.000 
#
# Total GULP energy -111620.554846 kJ/mol
# GULP energy per Si atom -5581.027742 kJ/mol
# Density = 2.347030 g / cm^3
# Si number density = 23.523842 Si / 1000 Ang^3
#
#
#
# Elastic Constant Matrix: (Units=GPa)
#
#
# Indices 1 2 3 4 5 6 
#
# 1 81.9980 17.8369 13.5129 0.0000 2.9769 0.0000
# 2 17.8369 194.1071 49.6085 0.0001 5.2076 0.0001
# 3 13.5129 49.6085 139.7763 -0.0006 1.1802 -0.0007
# 4 0.0000 0.0001 -0.0006 23.8761 -0.0001 3.7893
# 5 2.9769 5.2076 1.1802 -0.0001 26.3818 -0.0001
# 6 0.0000 0.0001 -0.0007 3.7893 -0.0001 45.7121
#
#
#
# Elastic Compliance Matrix: (Units=1/GPa)
#
#
# Indices 1 2 3 4 5 6 
#
# 1 0.012580 -0.000897 -0.000888 0.000000 -0.001203 0.000000
# 2 -0.000897 0.005758 -0.001949 0.000000 -0.000948 0.000000
# 3 -0.000888 -0.001949 0.007931 0.000000 0.000130 0.000000
# 4 0.000000 0.000000 0.000000 0.042441 0.000000 -0.003518
# 5 -0.001203 -0.000948 0.000130 0.000000 0.038222 0.000000
# 6 0.000000 0.000000 0.000000 -0.003518 0.000000 0.022168
#
#
# Mechanical properties :
#
#
# Convention : Reuss Voigt Hill
#
# Bulk Modulus (GPa) = 53.18575 64.19976 58.69276
# Shear Modulus (GPa) = 35.00571 41.52222 38.26396
#
# Velocity S-wave (km/s) = 3.86177 4.20588 4.03749
# Velocity P-wave (km/s) = 6.52248 7.13698 6.83664
#
# Compressibility (1/GPa) = 0.01880203
#
# Stress axis : x y z
#
# Youngs Moduli (GPa) = 79.48815 173.68040 126.09289
#
# Poissons Ratio (x) = 0.15577 0.11194
# Poissons Ratio (y) = 0.07129 0.24573
# Poissons Ratio (z) = 0.07057 0.33846
#
# Static dielectric constant tensor:
#      x y z
#    x 3.076460 0.000000 -0.640540 
#    y 0.000000 1.907970 0.000000 
#    z -0.640540 0.000000 2.153080 
# 
# From -- ./inp_files/23453.got.cif
#   From: 2010.05.17/outbox.cif.g08.bks.cpg/sg15_12_cif.got.tgz:23453.got - 2010.06.03 18:47:42.
