data_PCOD9266136
_publ_section_title
;
Structure prediction by ZEFSAII (Michael W. Deem and Ramdas Pophale) SiO2 
 PCOD9266136
Probable space group: C 2/C
;
_chemical_formula_sum "Si O2"
_cell_formula_units_Z 60
_cell_length_a 17.114129
_cell_length_b 5.928740
_cell_length_c 27.886738
_cell_angle_alpha 90.000000
_cell_angle_beta 83.957721
_cell_angle_gamma 90.000000
_cell_volume 2813.814541
_symmetry_space_group_name_H-M "C 2/C"
_symmetry_group_IT_number 15
_symmetry_cell_setting 'monoclinic'
loop_
_space_group_symop_operation_xyz
x,y,z
-x,y,1/2-z
-x,-y,-z
x,-y,1/2+z
1/2+x,1/2+y,z
1/2-x,1/2+y,1/2-z
1/2-x,1/2-y,-z
1/2+x,1/2-y,1/2+z
loop_
_atom_site_type_symbol
_atom_site_label
_atom_site_fract_x
_atom_site_fract_y
_atom_site_fract_z
Si Si1 0.000000 0.819777 0.250000
Si Si2 0.634695 0.178594 0.043657
Si Si3 0.649852 0.316748 0.877318
Si Si4 0.214192 0.619560 0.615379
Si Si5 0.990047 0.863747 0.093005
Si Si6 0.081999 0.872468 0.668521
Si Si7 0.047485 0.502365 0.827082
Si Si8 0.721679 0.992637 0.952727
O O1 0.948480 0.665628 0.217743
O O2 0.941845 0.973504 0.285310
O O3 0.545840 0.268579 0.047789
O O4 0.696955 0.384976 0.037136
O O5 0.652887 0.046970 0.092394
O O6 0.659738 0.010716 0.999647
O O7 0.721039 0.481452 0.860069
O O8 0.581381 0.462169 0.908002
O O9 0.613091 0.188261 0.834364
O O10 0.685615 0.140420 0.912263
O O11 0.169991 0.799175 0.651341
O O12 0.258894 0.749575 0.569597
O O13 0.958048 0.651657 0.125201
O O14 0.050535 0.995071 0.124001
O O15 0.031696 0.644199 0.675808
#
# Coordination Sequence:
#
# PCOD9266136 Si02
#       8
#     4   8   8   8   8   8   8   8
#     4  10  22  36  68 106 108 142 204 268 304 366
#     4  10  20  35  61  88 127 167 217 251 291 345
#     4  10  23  36  59  92 126 166 197 246 317 354
#     4  11  20  38  61  94 124 168 202 248 304 364
#     4  10  19  37  60  90 119 166 202 250 299 359
#     4  10  20  36  65  98 115 151 206 252 306 364
#     4  10  20  40  61  96 120 150 199 257 304 372
#     4  10  21  37  55  93 128 167 210 256 291 351
#
# _framework density 21.323367999999999
#
# number of rings (size 3 to 8) (size 9 to 14) (size 15 to 20)
#    0.000    1.867    2.667    1.600    0.000    0.533 
#    0.000    2.667    0.000    0.000  156.000    0.000 
#    0.000    0.000    0.000    0.000    0.000    0.000 
#
# Total GULP energy -167561.580489 kJ/mol
# GULP energy per Si atom -5585.386016 kJ/mol
# Density = 2.127484 g / cm^3
# Si number density = 21.323368 Si / 1000 Ang^3
#
#
#
# Elastic Constant Matrix: (Units=GPa)
#
#
# Indices 1 2 3 4 5 6 
#
# 1 74.5902 22.3844 13.0472 0.0000 -7.6256 0.0000
# 2 22.3844 72.3431 5.5980 0.0000 -5.7915 0.0000
# 3 13.0472 5.5980 50.9270 0.0000 -12.4248 0.0000
# 4 0.0000 0.0000 0.0000 22.1329 0.0000 3.2231
# 5 -7.6256 -5.7915 -12.4248 0.0000 12.1626 0.0000
# 6 0.0000 0.0000 0.0000 3.2231 0.0000 30.7600
#
#
#
# Elastic Compliance Matrix: (Units=1/GPa)
#
#
# Indices 1 2 3 4 5 6 
#
# 1 0.015623 -0.004220 -0.002183 0.000000 0.005555 0.000000
# 2 -0.004220 0.015511 0.000709 0.000000 0.005465 0.000000
# 3 -0.002183 0.000709 0.026461 0.000000 0.026000 0.000000
# 4 0.000000 0.000000 0.000000 0.045882 0.000000 -0.004808
# 5 0.005555 0.005465 0.026000 0.000000 0.114865 0.000000
# 6 0.000000 0.000000 0.000000 -0.004808 0.000000 0.033013
#
#
# Mechanical properties :
#
#
# Convention : Reuss Voigt Hill
#
# Bulk Modulus (GPa) = 21.64192 31.10217 26.37205
# Shear Modulus (GPa) = 17.97619 23.46649 20.72134
#
# Velocity S-wave (km/s) = 2.90664 3.32099 3.12070
# Velocity P-wave (km/s) = 4.62992 5.41506 5.03781
#
# Compressibility (1/GPa) = 0.04620661
#
# Stress axis : x y z
#
# Youngs Moduli (GPa) = 64.00843 64.46843 37.79200
#
# Poissons Ratio (x) = 0.27208 0.08251
# Poissons Ratio (y) = 0.27014 -0.02681
# Poissons Ratio (z) = 0.13975 -0.04574
#
# Static dielectric constant tensor:
#      x y z
#    x 1.773500 0.000000 -0.008580 
#    y 0.000000 1.811220 0.000000 
#    z -0.008580 0.000000 1.774530 
# 
# From -- ./inp_files/314880.got.cif
#   From: 2010.05.17/outbox.cif.g08.bks.cpg/sg15_158_cif.got.tgz:314880.got - 2010.06.03 18:47:42.
