data_PCOD9266363
_publ_section_title
;
Structure prediction by ZEFSAII (Michael W. Deem and Ramdas Pophale) SiO2 
 PCOD9266363
Probable space group: C 2/C
;
_chemical_formula_sum "Si O2"
_cell_formula_units_Z 56
_cell_length_a 17.767251
_cell_length_b 10.274909
_cell_length_c 17.186129
_cell_angle_alpha 90.000000
_cell_angle_beta 124.924750
_cell_angle_gamma 90.000000
_cell_volume 2572.406740
_symmetry_space_group_name_H-M "C 2/C"
_symmetry_group_IT_number 15
_symmetry_cell_setting 'monoclinic'
loop_
_space_group_symop_operation_xyz
x,y,z
-x,y,1/2-z
-x,-y,-z
x,-y,1/2+z
1/2+x,1/2+y,z
1/2-x,1/2+y,1/2-z
1/2-x,1/2-y,-z
1/2+x,1/2-y,1/2+z
loop_
_atom_site_type_symbol
_atom_site_label
_atom_site_fract_x
_atom_site_fract_y
_atom_site_fract_z
Si Si1 0.893722 0.868148 0.199525
Si Si2 0.955761 0.861740 0.953933
Si Si3 0.635259 0.771058 0.544307
Si Si4 0.754369 0.515246 0.464668
Si Si5 0.722027 0.500787 0.128350
Si Si6 0.607934 0.131086 0.193522
Si Si7 0.589303 0.820522 0.929548
O O1 0.828501 0.989022 0.143946
O O2 0.880265 0.780335 0.267820
O O3 0.873923 0.762364 0.120460
O O4 0.000000 0.904645 0.250000
O O5 0.851720 0.904006 0.872163
O O6 0.944102 0.778404 0.024874
O O7 0.035911 0.783227 0.955774
O O8 0.000000 0.000000 0.000000
O O9 0.689271 0.648087 0.612562
O O10 0.619959 0.867925 0.607990
O O11 0.696247 0.846814 0.517914
O O12 0.723700 0.483951 0.534999
O O13 0.832272 0.410492 0.491540
O O14 0.820137 0.537685 0.221737
O O15 0.501576 0.100841 0.149383
#
# Coordination Sequence:
#
# PCOD9266363 Si02
#       7
#     8   8   8   8   8   8   8
#     4  10  20  36  63  89 116 156 213 259 291 371
#     4   9  19  38  60  85 120 162 204 249 304 371
#     4  10  25  40  57  93 127 160 206 262 313 368
#     4  12  22  38  66  92 121 163 211 260 311 374
#     4  11  21  41  65  85 125 168 204 248 319 375
#     4  10  22  38  60  88 122 157 205 260 304 364
#     4  10  19  37  63  92 117 159 211 255 303 365
#
# _framework density 21.769497999999999
#
# number of rings (size 3 to 8) (size 9 to 14) (size 15 to 20)
#    0.000    1.714    2.857    1.714    2.000    2.286 
#    2.571    0.000    3.143    0.000    0.000    0.000 
#    0.000    0.000    0.000    0.000    0.000    0.000 
#
# Total GULP energy -156159.118564 kJ/mol
# GULP energy per Si atom -5577.111377 kJ/mol
# Density = 2.171995 g / cm^3
# Si number density = 21.769498 Si / 1000 Ang^3
#
#
#
# Elastic Constant Matrix: (Units=GPa)
#
#
# Indices 1 2 3 4 5 6 
#
# 1 83.6152 43.6686 20.1856 0.0000 15.2538 0.0000
# 2 43.6686 60.6130 15.4617 0.0000 15.9923 0.0000
# 3 20.1856 15.4617 37.4048 0.0000 18.2817 0.0000
# 4 0.0000 0.0000 0.0000 15.0220 0.0000 5.1336
# 5 15.2538 15.9923 18.2817 0.0000 23.9205 0.0000
# 6 0.0000 0.0000 0.0000 5.1336 0.0000 21.8624
#
#
#
# Elastic Compliance Matrix: (Units=1/GPa)
#
#
# Indices 1 2 3 4 5 6 
#
# 1 0.020118 -0.013131 -0.005506 0.000000 0.000158 0.000000
# 2 -0.013131 0.028784 0.000800 0.000000 -0.011481 0.000000
# 3 -0.005506 0.000800 0.044568 0.000000 -0.031086 0.000000
# 4 0.000000 0.000000 0.000000 0.072377 0.000000 -0.016995
# 5 0.000158 -0.011481 -0.031086 0.000000 0.073138 0.000000
# 6 0.000000 0.000000 0.000000 -0.016995 0.000000 0.049731
#
#
# Mechanical properties :
#
#
# Convention : Reuss Voigt Hill
#
# Bulk Modulus (GPa) = 17.30255 37.80719 27.55487
# Shear Modulus (GPa) = 14.54947 18.98213 16.76580
#
# Velocity S-wave (km/s) = 2.58804 2.95610 2.77817
# Velocity P-wave (km/s) = 4.11046 5.39037 4.79333
#
# Compressibility (1/GPa) = 0.05779496
#
# Stress axis : x y z
#
# Youngs Moduli (GPa) = 49.70756 34.74204 22.43741
#
# Poissons Ratio (x) = 0.45620 0.12354
# Poissons Ratio (y) = 0.65271 -0.01794
# Poissons Ratio (z) = 0.27369 -0.02778
#
# Static dielectric constant tensor:
#      x y z
#    x 1.859900 0.000000 0.017520 
#    y 0.000000 1.805800 0.000000 
#    z 0.017520 0.000000 1.790750 
# 
# From -- ./inp_files/251960.got.cif
#   From: 2010.05.17/outbox.cif.g08.bks.cpg/sg15_126_cif.got.tgz:251960.got - 2010.06.03 18:47:42.
