data_PCOD9266656
_publ_section_title
;
Structure prediction by ZEFSAII (Michael W. Deem and Ramdas Pophale) SiO2 
 PCOD9266656
Probable space group: C 2/C
;
_chemical_formula_sum "Si O2"
_cell_formula_units_Z 56
_cell_length_a 16.996990
_cell_length_b 28.113805
_cell_length_c 8.236083
_cell_angle_alpha 90.000000
_cell_angle_beta 51.278128
_cell_angle_gamma 90.000000
_cell_volume 3070.532309
_symmetry_space_group_name_H-M "C 2/C"
_symmetry_group_IT_number 15
_symmetry_cell_setting 'monoclinic'
loop_
_space_group_symop_operation_xyz
x,y,z
-x,y,1/2-z
-x,-y,-z
x,-y,1/2+z
1/2+x,1/2+y,z
1/2-x,1/2+y,1/2-z
1/2-x,1/2-y,-z
1/2+x,1/2-y,1/2+z
loop_
_atom_site_type_symbol
_atom_site_label
_atom_site_fract_x
_atom_site_fract_y
_atom_site_fract_z
Si Si1 0.353279 0.872627 0.620799
Si Si2 0.000000 0.511765 0.750000
Si Si3 0.382173 0.842997 0.939530
Si Si4 0.188200 0.820042 0.700794
Si Si5 0.552531 0.930601 0.441527
Si Si6 0.500000 0.198988 0.750000
Si Si7 0.003756 0.229206 0.939082
Si Si8 0.780758 0.779092 0.193137
O O1 0.334723 0.853369 0.826416
O O2 0.243657 0.869119 0.678104
O O3 0.436522 0.913254 0.558430
O O4 0.415050 0.837184 0.422045
O O5 0.919899 0.545976 0.764374
O O6 0.052767 0.475085 0.561275
O O7 0.500000 0.834329 0.750000
O O8 0.387450 0.887408 0.057599
O O9 0.317472 0.801791 0.100655
O O10 0.192460 0.808179 0.504454
O O11 0.252141 0.775282 0.691423
O O12 0.076030 0.812221 0.914889
O O13 0.479162 0.231378 0.616324
O O14 0.120692 0.218676 0.823594
O O15 0.000000 0.238673 0.750000
#
# Coordination Sequence:
#
# PCOD9266656 Si02
#       8
#     8   4   8   8   8   4   8   8
#     4  11  22  36  52  84 113 154 197 234 287 343
#     4  10  19  38  58  84 118 148 184 232 312 355
#     4  10  23  35  54  84 114 155 197 234 283 343
#     4  11  23  36  57  79 115 154 201 249 287 333
#     4  10  21  36  58  85 119 153 184 241 290 367
#     4  12  23  38  52  80 114 148 208 246 282 335
#     4  12  25  40  58  78 108 160 206 256 291 325
#     4  11  23  39  55  80 114 156 202 247 287 336
#
# _framework density 18.237879
#
# number of rings (size 3 to 8) (size 9 to 14) (size 15 to 20)
#    0.000    1.143    5.000    2.143   12.000    1.143 
#    0.000    0.000    0.000    0.000    0.000    0.000 
#    0.000    6.857    0.000    0.286    0.000    0.000 
#
# Total GULP energy -155961.302234 kJ/mol
# GULP energy per Si atom -5570.046508 kJ/mol
# Density = 1.819637 g / cm^3
# Si number density = 18.237879 Si / 1000 Ang^3
#
#
#
# Elastic Constant Matrix: (Units=GPa)
#
#
# Indices 1 2 3 4 5 6 
#
# 1 119.9265 27.4260 33.0432 0.0000 12.7677 0.0000
# 2 27.4260 54.7502 25.0477 0.0000 4.5467 0.0000
# 3 33.0432 25.0477 82.5963 0.0000 14.9323 0.0000
# 4 0.0000 0.0000 0.0000 5.4027 0.0000 11.2440
# 5 12.7677 4.5467 14.9323 0.0000 38.0145 0.0000
# 6 0.0000 0.0000 0.0000 11.2440 0.0000 23.1719
#
#
#
# Elastic Compliance Matrix: (Units=1/GPa)
#
#
# Indices 1 2 3 4 5 6 
#
# 1 0.010103 -0.003729 -0.002560 0.000000 -0.001942 0.000000
# 2 -0.003729 0.022583 -0.005484 0.000000 0.000706 0.000000
# 3 -0.002560 -0.005484 0.015630 0.000000 -0.004624 0.000000
# 4 0.000000 0.000000 0.000000-18.745878 0.000000 9.096275
# 5 -0.001942 0.000706 -0.004624 0.000000 0.028690 0.000000
# 6 0.000000 0.000000 0.000000 9.096275 0.000000 -4.370733
#
#
# Mechanical properties :
#
#
# Convention : Reuss Voigt Hill
#
# Bulk Modulus (GPa) = 40.37045 47.58966 43.98005
# Shear Modulus (GPa) = -0.21732 24.76823 12.27545
#
# Velocity S-wave (km/s) = -0.34557 3.68919 2.59718
# Velocity P-wave (km/s) = 4.69301 6.65563 5.75854
#
# Compressibility (1/GPa) = 0.02477059
#
# Stress axis : x y z
#
# Youngs Moduli (GPa) = 98.97822 44.28121 63.97806
#
# Poissons Ratio (x) = 0.16510 0.16379
# Poissons Ratio (y) = 0.36904 0.35088
# Poissons Ratio (z) = 0.25340 0.24285
#
# Static dielectric constant tensor:
#      x y z
#    x 1.702210 0.000000 0.042170 
#    y 0.000000 1.664400 0.000000 
#    z 0.042170 0.000000 1.726870 
# 
# From -- ./inp_files/52015.got.cif
#   From: 2010.05.17/outbox.cif.g08.bks.cpg/sg15_27_cif.got.tgz:52015.got - 2010.06.03 18:47:42.
