data_PCOD9266423
_publ_section_title
;
Structure prediction by ZEFSAII (Michael W. Deem and Ramdas Pophale) SiO2 
 PCOD9266423
Probable space group: C 2/C
;
_chemical_formula_sum "Si O2"
_cell_formula_units_Z 40
_cell_length_a 9.309314
_cell_length_b 16.483154
_cell_length_c 12.362422
_cell_angle_alpha 90.000000
_cell_angle_beta 107.520393
_cell_angle_gamma 90.000000
_cell_volume 1808.973869
_symmetry_space_group_name_H-M "C 2/C"
_symmetry_group_IT_number 15
_symmetry_cell_setting 'monoclinic'
loop_
_space_group_symop_operation_xyz
x,y,z
-x,y,1/2-z
-x,-y,-z
x,-y,1/2+z
1/2+x,1/2+y,z
1/2-x,1/2+y,1/2-z
1/2-x,1/2-y,-z
1/2+x,1/2-y,1/2+z
loop_
_atom_site_type_symbol
_atom_site_label
_atom_site_fract_x
_atom_site_fract_y
_atom_site_fract_z
Si Si1 0.824625 0.542153 0.717921
Si Si2 0.830337 0.825895 0.462407
Si Si3 0.094282 0.071993 0.074362
Si Si4 0.461569 0.224209 0.129910
Si Si5 0.211567 0.646306 0.575066
O O1 0.777585 0.602933 0.608117
O O2 0.706905 0.467177 0.686835
O O3 0.803291 0.591774 0.823866
O O4 0.000000 0.519371 0.750000
O O5 0.750000 0.750000 0.500000
O O6 0.965003 0.861611 0.568880
O O7 0.917391 0.791813 0.375988
O O8 0.197392 0.103979 0.000628
O O9 0.000000 0.000000 0.000000
O O10 0.500000 0.180883 0.250000
O O11 0.305071 0.271370 0.117963
O O12 0.442699 0.170177 0.019387
#
# Coordination Sequence:
#
# PCOD9266423 Si02
#       5
#     8   8   8   8   8
#     4  11  22  39  65  92 132 176 218 276 338 403
#     4  10  20  39  65  94 129 166 222 283 330 391
#     4   9  22  40  62  89 124 176 220 261 339 403
#     4  10  19  37  64  92 124 169 218 272 334 398
#     4  10  21  38  64  90 127 172 220 271 333 402
#
# _framework density 22.111984
#
# number of rings (size 3 to 8) (size 9 to 14) (size 15 to 20)
#    0.000    2.000    2.000    1.200    0.000    1.600 
#    0.000    6.000    4.400    0.000    0.000    0.000 
#    0.000    0.000    0.000    0.000    0.000    0.000 
#
# Total GULP energy -111562.281924 kJ/mol
# GULP energy per Si atom -5578.114096 kJ/mol
# Density = 2.206166 g / cm^3
# Si number density = 22.111984 Si / 1000 Ang^3
#
#
#
# Elastic Constant Matrix: (Units=GPa)
#
#
# Indices 1 2 3 4 5 6 
#
# 1 83.4927 43.3191 35.8943 0.0000 31.5809 0.0000
# 2 43.3191 89.4395 48.7179 0.0000 14.9996 0.0000
# 3 35.8943 48.7179 134.4220 0.0000 21.4914 0.0000
# 4 0.0000 0.0000 0.0000 44.2065 0.0000 9.4497
# 5 31.5809 14.9996 21.4914 0.0000 26.2226 0.0000
# 6 0.0000 0.0000 0.0000 9.4497 0.0000 50.2442
#
#
#
# Elastic Compliance Matrix: (Units=1/GPa)
#
#
# Indices 1 2 3 4 5 6 
#
# 1 0.026629 -0.008480 0.000362 0.000000 -0.027517 0.000000
# 2 -0.008480 0.017089 -0.004602 0.000000 0.004210 0.000000
# 3 0.000362 -0.004602 0.009965 0.000000 -0.005971 0.000000
# 4 0.000000 0.000000 0.000000 0.023569 0.000000 -0.004433
# 5 -0.027517 0.004210 -0.005971 0.000000 0.073760 0.000000
# 6 0.000000 0.000000 0.000000 -0.004433 0.000000 0.020736
#
#
# Mechanical properties :
#
#
# Convention : Reuss Voigt Hill
#
# Bulk Modulus (GPa) = 35.40691 62.57964 48.99328
# Shear Modulus (GPa) = 24.20100 36.09620 30.14860
#
# Velocity S-wave (km/s) = 3.31187 4.04471 3.69650
# Velocity P-wave (km/s) = 5.53823 7.08347 6.35797
#
# Compressibility (1/GPa) = 0.02824307
#
# Stress axis : x y z
#
# Youngs Moduli (GPa) = 37.55242 58.51813 100.35044
#
# Poissons Ratio (x) = 0.49624 -0.03633
# Poissons Ratio (y) = 0.31845 0.46181
# Poissons Ratio (z) = -0.01360 0.26930
#
# Static dielectric constant tensor:
#      x y z
#    x 1.471330 0.000000 -0.145270 
#    y 0.000000 1.742520 0.000000 
#    z -0.145270 0.000000 1.710530 
# 
# From -- ./inp_files/77952.got.cif
#   From: 2010.05.17/outbox.cif.g08.bks.cpg/sg15_39_cif.got.tgz:77952.got - 2010.06.03 18:47:42.
