data_PCOD9266246
_publ_section_title
;
Structure prediction by ZEFSAII (Michael W. Deem and Ramdas Pophale) SiO2 
 PCOD9266246
Probable space group: C 2/C
;
_chemical_formula_sum "Si O2"
_cell_formula_units_Z 44
_cell_length_a 28.294011
_cell_length_b 17.359148
_cell_length_c 5.725524
_cell_angle_alpha 90.000000
_cell_angle_beta 43.884781
_cell_angle_gamma 90.000000
_cell_volume 1949.410223
_symmetry_space_group_name_H-M "C 2/C"
_symmetry_group_IT_number 15
_symmetry_cell_setting 'monoclinic'
loop_
_space_group_symop_operation_xyz
x,y,z
-x,y,1/2-z
-x,-y,-z
x,-y,1/2+z
1/2+x,1/2+y,z
1/2-x,1/2+y,1/2-z
1/2-x,1/2-y,-z
1/2+x,1/2-y,1/2+z
loop_
_atom_site_type_symbol
_atom_site_label
_atom_site_fract_x
_atom_site_fract_y
_atom_site_fract_z
Si Si1 0.500000 0.710427 0.750000
Si Si2 0.247947 0.076600 0.925620
Si Si3 0.703191 0.906019 0.748958
Si Si4 0.067716 0.320272 0.127165
Si Si5 0.423417 0.333337 0.125710
Si Si6 0.104349 0.987441 0.445986
O O1 0.538607 0.767216 0.437417
O O2 0.558653 0.660425 0.665497
O O3 0.260356 0.116135 0.629291
O O4 0.293700 0.998988 0.756256
O O5 0.265801 0.118429 0.107291
O O6 0.172367 0.039522 0.209043
O O7 0.626404 0.876013 0.999689
O O8 0.000000 0.356039 0.250000
O O9 0.097536 0.254434 0.846695
O O10 0.379278 0.397043 0.155941
O O11 0.500000 0.344666 0.750000
O O12 0.070117 0.993809 0.819964
#
# Coordination Sequence:
#
# PCOD9266246 Si02
#       6
#     4   8   8   8   8   8
#     4   8  18  40  56  86 120 156 194 252 300 362
#     4  10  20  39  58  84 119 162 201 245 291 353
#     4  10  19  37  62  84 117 161 197 247 301 346
#     4   9  20  37  61  89 120 160 196 248 302 358
#     4   9  22  39  59  90 123 155 202 248 299 359
#     4  12  23  40  64  86 120 163 201 249 300 353
#
# _framework density 22.570929
#
# number of rings (size 3 to 8) (size 9 to 14) (size 15 to 20)
#    0.000    2.545    3.636    0.000   10.182    0.727 
#    0.000    4.545    0.000    3.273    0.000    0.000 
#    0.000    0.000    0.000    0.000    0.000    0.000 
#
# Total GULP energy -122487.524504 kJ/mol
# GULP energy per Si atom -5567.614750 kJ/mol
# Density = 2.251956 g / cm^3
# Si number density = 22.570929 Si / 1000 Ang^3
#
#
#
# Elastic Constant Matrix: (Units=GPa)
#
#
# Indices 1 2 3 4 5 6 
#
# 1 180.4285 37.4420 69.9610 0.0000 17.7353 0.0000
# 2 37.4420 31.9473 14.3013 0.0000 -8.4162 0.0000
# 3 69.9610 14.3013 83.2405 0.0000 26.0695 0.0000
# 4 0.0000 0.0000 0.0000 29.4444 0.0000 -18.1205
# 5 17.7353 -8.4162 26.0695 0.0000 54.1995 0.0000
# 6 0.0000 0.0000 0.0000 -18.1205 0.0000 53.6584
#
#
#
# Elastic Compliance Matrix: (Units=1/GPa)
#
#
# Indices 1 2 3 4 5 6 
#
# 1 0.010150 -0.009513 -0.006350 0.000000 -0.001744 0.000000
# 2 -0.009513 0.047558 -0.004078 0.000000 0.012459 0.000000
# 3 -0.006350 -0.004078 0.020720 0.000000 -0.008521 0.000000
# 4 0.000000 0.000000 0.000000 0.042872 0.000000 0.014478
# 5 -0.001744 0.012459 -0.008521 0.000000 0.025054 0.000000
# 6 0.000000 0.000000 0.000000 0.014478 0.000000 0.023526
#
#
# Mechanical properties :
#
#
# Convention : Reuss Voigt Hill
#
# Bulk Modulus (GPa) = 25.94252 59.89166 42.91709
# Shear Modulus (GPa) = 22.46073 39.05459 30.75766
#
# Velocity S-wave (km/s) = 3.15797 4.16421 3.69550
# Velocity P-wave (km/s) = 4.98154 7.05077 6.10447
#
# Compressibility (1/GPa) = 0.03854676
#
# Stress axis : x y z
#
# Youngs Moduli (GPa) = 98.52044 21.02696 48.26265
#
# Poissons Ratio (x) = 0.20002 0.30648
# Poissons Ratio (y) = 0.93719 0.19680
# Poissons Ratio (z) = 0.62564 0.08574
#
# Static dielectric constant tensor:
#      x y z
#    x 1.933460 0.000000 0.098900 
#    y 0.000000 1.841680 0.000000 
#    z 0.098900 0.000000 1.932100 
# 
# From -- ./inp_files/17141.got.cif
#   From: 2010.05.17/outbox.cif.g08.bks.cpg/sg15_9_cif.got.tgz:17141.got - 2010.06.03 18:47:42.
