data_PCOD9266515
_publ_section_title
;
Structure prediction by ZEFSAII (Michael W. Deem and Ramdas Pophale) SiO2 
 PCOD9266515
Probable space group: C 2/C
;
_chemical_formula_sum "Si O2"
_cell_formula_units_Z 60
_cell_length_a 9.063971
_cell_length_b 17.390317
_cell_length_c 23.783534
_cell_angle_alpha 90.000000
_cell_angle_beta 133.854845
_cell_angle_gamma 90.000000
_cell_volume 2703.312787
_symmetry_space_group_name_H-M "C 2/C"
_symmetry_group_IT_number 15
_symmetry_cell_setting 'monoclinic'
loop_
_space_group_symop_operation_xyz
x,y,z
-x,y,1/2-z
-x,-y,-z
x,-y,1/2+z
1/2+x,1/2+y,z
1/2-x,1/2+y,1/2-z
1/2-x,1/2-y,-z
1/2+x,1/2-y,1/2+z
loop_
_atom_site_type_symbol
_atom_site_label
_atom_site_fract_x
_atom_site_fract_y
_atom_site_fract_z
Si Si1 0.500000 0.509801 0.750000
Si Si2 0.009148 0.114403 0.950580
Si Si3 0.788175 0.268268 0.075430
Si Si4 0.077908 0.202742 0.863125
Si Si5 0.995114 0.115343 0.336991
Si Si6 0.455303 0.853177 0.801890
Si Si7 0.711389 0.148983 0.693826
Si Si8 0.791700 0.963128 0.890776
O O1 0.433461 0.456783 0.680452
O O2 0.307827 0.563604 0.716201
O O3 0.908152 0.189417 0.951472
O O4 0.121999 0.145964 0.925601
O O5 0.834992 0.051511 0.889040
O O6 0.136218 0.065214 0.028975
O O7 0.852570 0.186645 0.119028
O O8 0.976158 0.327706 0.135763
O O9 0.750000 0.250000 0.000000
O O10 0.072935 0.293742 0.873113
O O11 0.847066 0.186302 0.779367
O O12 0.222238 0.184595 0.848828
O O13 0.784192 0.142765 0.252113
O O14 0.920134 0.086307 0.378669
O O15 0.500000 0.823662 0.750000
O O16 0.557549 0.936605 0.827920
#
# Coordination Sequence:
#
# PCOD9266515 Si02
#       8
#     4   8   8   8   8   8   8   8
#     4  10  24  38  68  96 124 164 212 280 314 380
#     4  11  25  39  66  95 128 167 216 263 312 392
#     4  12  25  44  65  92 134 177 206 261 332 385
#     4  10  19  39  66  94 117 168 215 265 308 384
#     4  11  22  42  62  92 128 165 212 265 327 376
#     4  10  19  37  66  88 121 167 207 259 321 378
#     4  10  21  43  66  89 131 164 210 261 332 372
#     4  10  22  44  61  89 132 169 207 260 326 384
#
# _framework density 22.194990000000001
#
# number of rings (size 3 to 8) (size 9 to 14) (size 15 to 20)
#    0.000    1.600    4.000    2.400    3.733    1.067 
#    2.400    0.667    0.000    0.000    0.000    0.000 
#    0.000    0.000    0.000    0.000    0.000    0.000 
#
# Total GULP energy -167496.380495 kJ/mol
# GULP energy per Si atom -5583.212683 kJ/mol
# Density = 2.214447 g / cm^3
# Si number density = 22.194990 Si / 1000 Ang^3
#
#
#
# Elastic Constant Matrix: (Units=GPa)
#
#
# Indices 1 2 3 4 5 6 
#
# 1 15.5965 0.9023 -0.6444 0.0000 -9.0549 0.0000
# 2 0.9023 114.6208 -0.3707 0.0000 -4.7277 0.0000
# 3 -0.6444 -0.3707 34.4313 0.0000 -4.9283 0.0000
# 4 0.0000 0.0000 0.0000 36.2004 0.0000 -0.4159
# 5 -9.0549 -4.7277 -4.9283 0.0000 23.6063 0.0000
# 6 0.0000 0.0000 0.0000 -0.4159 0.0000 30.6230
#
#
#
# Elastic Compliance Matrix: (Units=1/GPa)
#
#
# Indices 1 2 3 4 5 6 
#
# 1 0.083880 0.000749 0.006396 0.000000 0.033660 0.000000
# 2 0.000749 0.008808 0.000415 0.000000 0.002138 0.000000
# 3 0.006396 0.000415 0.030440 0.000000 0.008891 0.000000
# 4 0.000000 0.000000 0.000000 0.027628 0.000000 0.000375
# 5 0.033660 0.002138 0.008891 0.000000 0.057557 0.000000
# 6 0.000000 0.000000 0.000000 0.000375 0.000000 0.032660
#
#
# Mechanical properties :
#
#
# Convention : Reuss Voigt Hill
#
# Bulk Modulus (GPa) = 7.23342 18.26924 12.75133
# Shear Modulus (GPa) = 18.38656 29.07003 23.72829
#
# Velocity S-wave (km/s) = 2.88133 3.62298 3.27323
# Velocity P-wave (km/s) = 3.78623 5.07449 4.47694
#
# Compressibility (1/GPa) = 0.13824720
#
# Stress axis : x y z
#
# Youngs Moduli (GPa) = 11.92178 113.53258 32.85132
#
# Poissons Ratio (x) = -0.08500 -0.21011
# Poissons Ratio (y) = -0.00893 -0.01363
# Poissons Ratio (z) = -0.07625 -0.04710
#
# Static dielectric constant tensor:
#      x y z
#    x 1.852100 0.000000 0.014410 
#    y 0.000000 1.863490 0.000000 
#    z 0.014410 0.000000 1.883300 
# 
# From -- ./inp_files/289607.got.cif
#   From: 2010.05.17/outbox.cif.g08.bks.cpg/sg15_145_cif.got.tgz:289607.got - 2010.06.03 18:47:42.
