data_PCOD9266920
_publ_section_title
;
Structure prediction by ZEFSAII (Michael W. Deem and Ramdas Pophale) SiO2 
 PCOD9266920
Probable space group: C 2/C
;
_chemical_formula_sum "Si O2"
_cell_formula_units_Z 52
_cell_length_a 7.886575
_cell_length_b 16.267594
_cell_length_c 20.419204
_cell_angle_alpha 90.000000
_cell_angle_beta 117.964400
_cell_angle_gamma 90.000000
_cell_volume 2313.816258
_symmetry_space_group_name_H-M "C 2/C"
_symmetry_group_IT_number 15
_symmetry_cell_setting 'monoclinic'
loop_
_space_group_symop_operation_xyz
x,y,z
-x,y,1/2-z
-x,-y,-z
x,-y,1/2+z
1/2+x,1/2+y,z
1/2-x,1/2+y,1/2-z
1/2-x,1/2-y,-z
1/2+x,1/2-y,1/2+z
loop_
_atom_site_type_symbol
_atom_site_label
_atom_site_fract_x
_atom_site_fract_y
_atom_site_fract_z
Si Si1 0.000000 0.728780 0.750000
Si Si2 0.730584 0.191820 0.673339
Si Si3 0.807069 0.494969 0.549808
Si Si4 0.406065 0.130384 0.170146
Si Si5 0.656403 0.163071 0.974373
Si Si6 0.742826 0.362124 0.862630
Si Si7 0.233158 0.033411 0.887056
O O1 0.841960 0.681707 0.764842
O O2 0.900915 0.788383 0.678575
O O3 0.815686 0.282692 0.676443
O O4 0.544544 0.182514 0.594134
O O5 0.844107 0.113622 0.664423
O O6 0.776586 0.430821 0.602973
O O7 0.734128 0.589292 0.543601
O O8 0.732828 0.461269 0.466303
O O9 0.038777 0.514609 0.588641
O O10 0.500000 0.086831 0.250000
O O11 0.589410 0.149563 0.158803
O O12 0.750000 0.250000 0.000000
O O13 0.651235 0.134917 0.048428
O O14 0.635915 0.449737 0.843540
#
# Coordination Sequence:
#
# PCOD9266920 Si02
#       7
#     4   8   8   8   8   8   8
#     4  12  22  38  56  88 118 156 186 238 308 348
#     4  11  22  37  61  88 115 153 198 245 288 350
#     4   8  17  34  59  83 109 155 194 228 287 353
#     4  11  21  37  58  85 120 152 191 246 297 344
#     4  10  19  38  63  86 117 155 201 243 280 345
#     4  10  21  40  61  81 119 159 189 238 296 347
#     4   8  17  37  59  81 109 151 199 231 281 349
#
# _framework density 22.473694999999999
#
# number of rings (size 3 to 8) (size 9 to 14) (size 15 to 20)
#    0.000    2.154    3.077    2.769    0.000    2.462 
#   13.846    0.769    3.385    0.000    0.000    0.000 
#    0.000    0.000    0.000    0.000    0.000    0.000 
#
# Total GULP energy -144791.716109 kJ/mol
# GULP energy per Si atom -5568.912158 kJ/mol
# Density = 2.242254 g / cm^3
# Si number density = 22.473695 Si / 1000 Ang^3
#
#
#
# Elastic Constant Matrix: (Units=GPa)
#
#
# Indices 1 2 3 4 5 6 
#
# 1 24.9927 18.3325 16.2004 0.0000 -10.9938 0.0000
# 2 18.3325 129.6095 47.4505 0.0000 -16.3420 0.0000
# 3 16.2004 47.4505 118.0072 0.0000 -8.3041 0.0000
# 4 0.0000 0.0000 0.0000 226.3069 0.0000 -71.6969
# 5 -10.9938 -16.3420 -8.3041 0.0000 27.3029 0.0000
# 6 0.0000 0.0000 0.0000 -71.6969 0.0000 43.4237
#
#
#
# Elastic Compliance Matrix: (Units=1/GPa)
#
#
# Indices 1 2 3 4 5 6 
#
# 1 0.053587 -0.003612 -0.004637 0.000000 0.018005 0.000000
# 2 -0.003612 0.009840 -0.003218 0.000000 0.003457 0.000000
# 3 -0.004637 -0.003218 0.010359 0.000000 -0.000642 0.000000
# 4 0.000000 0.000000 0.000000 0.009265 0.000000 0.015298
# 5 0.018005 0.003457 -0.000642 0.000000 0.045750 0.000000
# 6 0.000000 0.000000 0.000000 0.015298 0.000000 0.048288
#
#
# Mechanical properties :
#
#
# Convention : Reuss Voigt Hill
#
# Bulk Modulus (GPa) = 19.66441 48.50846 34.08644
# Shear Modulus (GPa) = 23.04427 72.11511 47.57969
#
# Velocity S-wave (km/s) = 3.20564 5.67083 4.60622
# Velocity P-wave (km/s) = 4.74031 8.03176 6.59468
#
# Compressibility (1/GPa) = 0.05085329
#
# Stress axis : x y z
#
# Youngs Moduli (GPa) = 18.66125 101.62407 96.53167
#
# Poissons Ratio (x) = 0.36703 0.44765
# Poissons Ratio (y) = 0.06740 0.31061
# Poissons Ratio (z) = 0.08654 0.32699
#
# Static dielectric constant tensor:
#      x y z
#    x 1.858060 0.000000 -0.048440 
#    y 0.000000 2.091540 0.000000 
#    z -0.048440 0.000000 1.905800 
# 
# From -- ./inp_files/190580.got.cif
#   From: 2010.05.17/outbox.cif.g08.bks.cpg/sg15_96_cif.got.tgz:190580.got - 2010.06.03 18:47:42.
