data_PCOD9266073
_publ_section_title
;
Structure prediction by ZEFSAII (Michael W. Deem and Ramdas Pophale) SiO2 
 PCOD9266073
Probable space group: C 2/C
;
_chemical_formula_sum "Si O2"
_cell_formula_units_Z 48
_cell_length_a 13.882731
_cell_length_b 10.919587
_cell_length_c 27.331117
_cell_angle_alpha 90.000000
_cell_angle_beta 144.997147
_cell_angle_gamma 90.000000
_cell_volume 2376.625139
_symmetry_space_group_name_H-M "C 2/C"
_symmetry_group_IT_number 15
_symmetry_cell_setting 'monoclinic'
loop_
_space_group_symop_operation_xyz
x,y,z
-x,y,1/2-z
-x,-y,-z
x,-y,1/2+z
1/2+x,1/2+y,z
1/2-x,1/2+y,1/2-z
1/2-x,1/2-y,-z
1/2+x,1/2-y,1/2+z
loop_
_atom_site_type_symbol
_atom_site_label
_atom_site_fract_x
_atom_site_fract_y
_atom_site_fract_z
Si Si1 0.027727 0.578621 0.106129
Si Si2 0.088483 0.557276 0.338725
Si Si3 0.390696 0.593950 0.985669
Si Si4 0.184357 0.986905 0.845670
Si Si5 0.734864 0.615769 0.469410
Si Si6 0.866029 0.269631 0.460266
O O1 0.201592 0.567704 0.149965
O O2 0.037456 0.578108 0.168545
O O3 0.906358 0.462306 0.044342
O O4 0.933431 0.694145 0.042021
O O5 0.197705 0.432436 0.390355
O O6 0.225194 0.665424 0.401211
O O7 0.000000 0.561499 0.250000
O O8 0.500000 0.500000 0.000000
O O9 0.395216 0.559497 0.044875
O O10 0.477043 0.722114 0.007189
O O11 0.282450 0.108519 0.903848
O O12 0.000000 0.016510 0.750000
O O13 0.173987 0.898969 0.888827
O O14 0.750000 0.750000 0.500000
#
# Coordination Sequence:
#
# PCOD9266073 Si02
#       6
#     8   8   8   8   8   8
#     4  10  21  38  58  81 115 154 194 234 285 358
#     4  10  21  37  58  89 120 146 189 247 293 335
#     4   9  19  34  58  85 112 153 191 225 280 354
#     4  11  23  37  57  88 117 147 196 252 288 328
#     4  10  19  37  60  80 110 153 191 226 285 356
#     4  10  19  39  63  83 111 157 197 228 287 357
#
# _framework density 20.196707
#
# number of rings (size 3 to 8) (size 9 to 14) (size 15 to 20)
#    0.000    2.000    0.000    5.000    0.000    4.000 
#    0.000   10.833    0.000    0.000    0.000    0.000 
#    0.000    0.000    0.000    0.000    0.000    0.000 
#
# Total GULP energy -133821.774624 kJ/mol
# GULP energy per Si atom -5575.907276 kJ/mol
# Density = 2.015074 g / cm^3
# Si number density = 20.196707 Si / 1000 Ang^3
#
#
#
# Elastic Constant Matrix: (Units=GPa)
#
#
# Indices 1 2 3 4 5 6 
#
# 1 190.4151 31.3516 70.6098 0.0000 -22.4675 0.0000
# 2 31.3516 80.3469 30.9126 0.0000 -1.8783 0.0000
# 3 70.6098 30.9126 90.1321 0.0000 -22.5020 0.0000
# 4 0.0000 0.0000 0.0000 19.2989 0.0000 4.8826
# 5 -22.4675 -1.8783 -22.5020 0.0000 30.1383 0.0000
# 6 0.0000 0.0000 0.0000 4.8826 0.0000 33.9992
#
#
#
# Elastic Compliance Matrix: (Units=1/GPa)
#
#
# Indices 1 2 3 4 5 6 
#
# 1 0.007511 -0.000911 -0.005148 0.000000 0.001699 0.000000
# 2 -0.000911 0.014740 -0.005263 0.000000 -0.003690 0.000000
# 3 -0.005148 -0.005263 0.019534 0.000000 0.010419 0.000000
# 4 0.000000 0.000000 0.000000 0.053770 0.000000 -0.007722
# 5 0.001699 -0.003690 0.010419 0.000000 0.041996 0.000000
# 6 0.000000 0.000000 0.000000 -0.007722 0.000000 0.030521
#
#
# Mechanical properties :
#
#
# Convention : Reuss Voigt Hill
#
# Bulk Modulus (GPa) = 52.24134 69.62688 60.93411
# Shear Modulus (GPa) = 25.36842 31.88865 28.62853
#
# Velocity S-wave (km/s) = 3.54795 3.97785 3.76903
# Velocity P-wave (km/s) = 6.53501 7.45969 7.01261
#
# Compressibility (1/GPa) = 0.01914193
#
# Stress axis : x y z
#
# Youngs Moduli (GPa) = 133.13938 67.84239 51.19363
#
# Poissons Ratio (x) = 0.06178 0.26352
# Poissons Ratio (y) = 0.12124 0.26944
# Poissons Ratio (z) = 0.68534 0.35707
#
# Static dielectric constant tensor:
#      x y z
#    x 1.789710 0.000000 -0.007200 
#    y 0.000000 1.822060 0.000000 
#    z -0.007200 0.000000 1.688390 
# 
# From -- ./inp_files/296191.got.cif
#   From: 2010.05.17/outbox.cif.g08.bks.cpg/sg15_149_cif.got.tgz:296191.got - 2010.06.03 18:47:42.
