data_PCOD9266276
_publ_section_title
;
Structure prediction by ZEFSAII (Michael W. Deem and Ramdas Pophale) SiO2 
 PCOD9266276
Probable space group: C 2/C
;
_chemical_formula_sum "Si O2"
_cell_formula_units_Z 48
_cell_length_a 21.114124
_cell_length_b 16.397706
_cell_length_c 8.720840
_cell_angle_alpha 90.000000
_cell_angle_beta 51.797790
_cell_angle_gamma 90.000000
_cell_volume 2372.710577
_symmetry_space_group_name_H-M "C 2/C"
_symmetry_group_IT_number 15
_symmetry_cell_setting 'monoclinic'
loop_
_space_group_symop_operation_xyz
x,y,z
-x,y,1/2-z
-x,-y,-z
x,-y,1/2+z
1/2+x,1/2+y,z
1/2-x,1/2+y,1/2-z
1/2-x,1/2-y,-z
1/2+x,1/2-y,1/2+z
loop_
_atom_site_type_symbol
_atom_site_label
_atom_site_fract_x
_atom_site_fract_y
_atom_site_fract_z
Si Si1 0.445011 0.560688 0.689752
Si Si2 0.662488 0.938286 0.619982
Si Si3 0.198191 0.938395 0.541393
Si Si4 0.728766 0.190324 0.391927
Si Si5 0.087107 0.423985 0.049890
Si Si6 0.695837 0.664847 0.737075
O O1 0.500000 0.587187 0.750000
O O2 0.500000 0.500000 0.500000
O O3 0.376016 0.498266 0.844138
O O4 0.390229 0.637236 0.708798
O O5 0.725782 0.871356 0.465937
O O6 0.722622 0.007091 0.596508
O O7 0.615713 0.985371 0.555755
O O8 0.601581 0.914131 0.846467
O O9 0.207441 0.883927 0.682766
O O10 0.190710 0.881471 0.406971
O O11 0.750000 0.250000 0.500000
O O12 0.645044 0.143359 0.539512
O O13 0.717726 0.242896 0.254733
O O14 0.000000 0.412072 0.250000
#
# Coordination Sequence:
#
# PCOD9266276 Si02
#       6
#     8   8   8   8   8   8
#     4  11  21  34  57  92 127 161 205 262 313 363
#     4  10  20  36  64  91 119 153 211 258 303 373
#     4   9  18  36  61  87 120 170 207 249 309 379
#     4   9  21  40  61  88 122 168 206 248 308 387
#     4  11  22  39  63  91 122 157 201 261 319 364
#     4  10  19  37  62  89 123 166 213 250 309 376
#
# _framework density 20.230028000000001
#
# number of rings (size 3 to 8) (size 9 to 14) (size 15 to 20)
#    0.000    2.000    3.333    0.500    0.000    0.667 
#    6.000    0.000    0.000    1.000    0.000    0.000 
#    0.000    0.000    0.000    0.000    0.000    0.000 
#
# Total GULP energy -133606.586940 kJ/mol
# GULP energy per Si atom -5566.941123 kJ/mol
# Density = 2.018398 g / cm^3
# Si number density = 20.230028 Si / 1000 Ang^3
#
#
#
# Elastic Constant Matrix: (Units=GPa)
#
#
# Indices 1 2 3 4 5 6 
#
# 1 105.1806 51.2808 46.8833 0.0000 3.3911 0.0000
# 2 51.2808 78.0441 33.4209 0.0000 3.2562 0.0000
# 3 46.8833 33.4209 102.2801 0.0000 -3.6207 0.0000
# 4 0.0000 0.0000 0.0000 12.1681 0.0000 15.6698
# 5 3.3911 3.2562 -3.6207 0.0000 21.1736 0.0000
# 6 0.0000 0.0000 0.0000 15.6698 0.0000 34.8869
#
#
#
# Elastic Compliance Matrix: (Units=1/GPa)
#
#
# Indices 1 2 3 4 5 6 
#
# 1 0.015606 -0.008228 -0.004536 0.000000 -0.002010 0.000000
# 2 -0.008228 0.019447 -0.002658 0.000000 -0.002127 0.000000
# 3 -0.004536 -0.002658 0.012843 0.000000 0.003331 0.000000
# 4 0.000000 0.000000 0.000000 0.194935 0.000000 -0.087557
# 5 -0.002010 -0.002127 0.003331 0.000000 0.048447 0.000000
# 6 0.000000 0.000000 0.000000 -0.087557 0.000000 0.067991
#
#
# Mechanical properties :
#
#
# Convention : Reuss Voigt Hill
#
# Bulk Modulus (GPa) = 58.64709 60.96386 59.80547
# Shear Modulus (GPa) = 12.63278 23.90704 18.26991
#
# Velocity S-wave (km/s) = 2.50162 3.44140 3.00844
# Velocity P-wave (km/s) = 6.11533 6.78172 6.45713
#
# Compressibility (1/GPa) = 0.01705115
#
# Stress axis : x y z
#
# Youngs Moduli (GPa) = 64.07977 51.42287 77.86461
#
# Poissons Ratio (x) = 0.42309 0.35319
# Poissons Ratio (y) = 0.52723 0.20698
# Poissons Ratio (z) = 0.29066 0.13669
#
# Static dielectric constant tensor:
#      x y z
#    x 1.761670 0.000000 0.043710 
#    y 0.000000 1.788280 0.000000 
#    z 0.043710 0.000000 1.723020 
# 
# From -- ./inp_files/56416.got.cif
#   From: 2010.05.17/outbox.cif.g08.bks.cpg/sg15_29_cif.got.tgz:56416.got - 2010.06.03 18:47:42.
