data_PCOD9266392
_publ_section_title
;
Structure prediction by ZEFSAII (Michael W. Deem and Ramdas Pophale) SiO2 
 PCOD9266392
Probable space group: C 2/C
;
_chemical_formula_sum "Si O2"
_cell_formula_units_Z 56
_cell_length_a 29.290666
_cell_length_b 8.371424
_cell_length_c 15.341852
_cell_angle_alpha 90.000000
_cell_angle_beta 135.142373
_cell_angle_gamma 90.000000
_cell_volume 2653.441528
_symmetry_space_group_name_H-M "C 2/C"
_symmetry_group_IT_number 15
_symmetry_cell_setting 'monoclinic'
loop_
_space_group_symop_operation_xyz
x,y,z
-x,y,1/2-z
-x,-y,-z
x,-y,1/2+z
1/2+x,1/2+y,z
1/2-x,1/2+y,1/2-z
1/2-x,1/2-y,-z
1/2+x,1/2-y,1/2+z
loop_
_atom_site_type_symbol
_atom_site_label
_atom_site_fract_x
_atom_site_fract_y
_atom_site_fract_z
Si Si1 0.235949 0.682599 0.111651
Si Si2 0.150670 0.181968 0.362807
Si Si3 0.778697 0.634009 0.824610
Si Si4 0.564649 0.875157 0.805017
Si Si5 0.812385 0.177414 0.535324
Si Si6 0.410836 0.001905 0.967772
Si Si7 0.532691 0.159508 0.625586
O O1 0.298528 0.737212 0.142205
O O2 0.251044 0.500262 0.154498
O O3 0.232076 0.789962 0.191460
O O4 0.170535 0.701215 0.968568
O O5 0.077987 0.203185 0.228615
O O6 0.173355 0.007472 0.425763
O O7 0.834885 0.532452 0.851278
O O8 0.803737 0.776566 0.921242
O O9 0.500000 0.782948 0.750000
O O10 0.623034 0.770876 0.848986
O O11 0.547943 0.008505 0.710322
O O12 0.584279 0.950988 0.924218
O O13 0.750000 0.250000 0.500000
O O14 0.443680 0.118298 0.940091
O O15 0.454106 0.840590 0.017386
#
# Coordination Sequence:
#
# PCOD9266392 Si02
#       7
#     8   8   8   8   8   8   8
#     4  11  23  36  59  86 126 160 205 260 324 377
#     4  11  22  38  57  91 122 161 207 263 320 384
#     4  11  21  40  59  91 128 167 213 265 315 393
#     4   9  20  38  60  87 118 162 212 259 312 387
#     4  11  22  37  60  88 126 167 206 255 327 386
#     4   9  19  35  61  88 112 161 217 256 306 375
#     4  10  19  37  64  84 117 161 212 267 310 371
#
# _framework density 21.104666999999999
#
# number of rings (size 3 to 8) (size 9 to 14) (size 15 to 20)
#    0.000    1.714    2.857    2.571    2.000    1.143 
#    0.000    3.571    0.000    7.714    0.000    0.000 
#    0.000    0.000    0.000    0.000    0.000    0.000 
#
# Total GULP energy -155877.328240 kJ/mol
# GULP energy per Si atom -5567.047437 kJ/mol
# Density = 2.105663 g / cm^3
# Si number density = 21.104667 Si / 1000 Ang^3
#
#
#
# Elastic Constant Matrix: (Units=GPa)
#
#
# Indices 1 2 3 4 5 6 
#
# 1 92.6722 25.6382 25.9592 0.0000 11.8583 0.0000
# 2 25.6382 75.1215 43.6563 0.0000 -7.7166 0.0000
# 3 25.9592 43.6563 63.1323 0.0000 -11.0488 0.0000
# 4 0.0000 0.0000 0.0000 34.5779 0.0000 7.3024
# 5 11.8583 -7.7166 -11.0488 0.0000 36.0198 0.0000
# 6 0.0000 0.0000 0.0000 7.3024 0.0000 24.1057
#
#
#
# Elastic Compliance Matrix: (Units=1/GPa)
#
#
# Indices 1 2 3 4 5 6 
#
# 1 0.013740 -0.002362 -0.005175 0.000000 -0.006617 0.000000
# 2 -0.002362 0.022661 -0.014492 0.000000 0.001187 0.000000
# 3 -0.005175 -0.014492 0.029317 0.000000 0.007592 0.000000
# 4 0.000000 0.000000 0.000000 0.030897 0.000000 -0.009360
# 5 -0.006617 0.001187 0.007592 0.000000 0.032524 0.000000
# 6 0.000000 0.000000 0.000000 -0.009360 0.000000 0.044319
#
#
# Mechanical properties :
#
#
# Convention : Reuss Voigt Hill
#
# Bulk Modulus (GPa) = 46.16211 46.82592 46.49402
# Shear Modulus (GPa) = 22.24834 27.98551 25.11692
#
# Velocity S-wave (km/s) = 3.25035 3.64543 3.45354
# Velocity P-wave (km/s) = 6.00057 6.32096 6.16284
#
# Compressibility (1/GPa) = 0.02166279
#
# Stress axis : x y z
#
# Youngs Moduli (GPa) = 72.77840 44.12777 34.10983
#
# Poissons Ratio (x) = 0.10423 0.17650
# Poissons Ratio (y) = 0.17190 0.49430
# Poissons Ratio (z) = 0.37659 0.63948
#
# Static dielectric constant tensor:
#      x y z
#    x 1.813640 0.000000 0.020350 
#    y 0.000000 1.785040 0.000000 
#    z 0.020350 0.000000 1.834980 
# 
# From -- ./inp_files/180862.got.cif
#   From: 2010.05.17/outbox.cif.g08.bks.cpg/sg15_91_cif.got.tgz:180862.got - 2010.06.03 18:47:42.
