data_PCOD9266587
_publ_section_title
;
Structure prediction by ZEFSAII (Michael W. Deem and Ramdas Pophale) SiO2 
 PCOD9266587
Probable space group: C 2/C
;
_chemical_formula_sum "Si O2"
_cell_formula_units_Z 64
_cell_length_a 8.377186
_cell_length_b 30.827600
_cell_length_c 17.779350
_cell_angle_alpha 90.000000
_cell_angle_beta 142.522290
_cell_angle_gamma 90.000000
_cell_volume 2793.705387
_symmetry_space_group_name_H-M "C 2/C"
_symmetry_group_IT_number 15
_symmetry_cell_setting 'monoclinic'
loop_
_space_group_symop_operation_xyz
x,y,z
-x,y,1/2-z
-x,-y,-z
x,-y,1/2+z
1/2+x,1/2+y,z
1/2-x,1/2+y,1/2-z
1/2-x,1/2-y,-z
1/2+x,1/2-y,1/2+z
loop_
_atom_site_type_symbol
_atom_site_label
_atom_site_fract_x
_atom_site_fract_y
_atom_site_fract_z
Si Si1 0.161618 0.332927 0.530405
Si Si2 0.346120 0.630040 0.353456
Si Si3 0.750560 0.218831 0.712257
Si Si4 0.572663 0.072993 0.588443
Si Si5 0.928101 0.306455 0.835731
Si Si6 0.524842 0.673758 0.943692
Si Si7 0.034230 0.917320 0.380454
Si Si8 0.573601 0.452379 0.998195
O O1 0.454198 0.350984 0.633308
O O2 0.143128 0.313162 0.605622
O O3 0.020122 0.298211 0.423185
O O4 0.008261 0.377433 0.455714
O O5 0.083916 0.648096 0.215004
O O6 0.488760 0.652351 0.479292
O O7 0.363725 0.578669 0.375642
O O8 0.766628 0.270260 0.731491
O O9 0.000000 0.207897 0.750000
O O10 0.800302 0.197481 0.812980
O O11 0.806024 0.074424 0.735658
O O12 0.327733 0.049500 0.538255
O O13 0.707274 0.059376 0.558757
O O14 0.233683 0.293774 0.953493
O O15 0.598653 0.633417 0.916774
O O16 0.909854 0.930135 0.413777
O O17 0.500000 0.500000 0.000000
#
# Coordination Sequence:
#
# PCOD9266587 Si02
#       8
#     8   8   8   8   8   8   8   8
#     4  11  23  42  64  91 128 179 230 282 334 399
#     4  10  25  43  63  93 131 171 223 270 357 413
#     4  12  23  38  64  93 127 175 240 291 328 389
#     4  10  19  39  69  95 128 168 225 278 331 407
#     4  12  24  40  63  90 135 182 224 282 337 414
#     4  11  21  40  64  92 127 174 234 278 340 395
#     4  10  19  37  69  98 125 172 223 278 336 406
#     4  10  23  42  67  99 135 168 217 282 351 427
#
# _framework density 22.908643999999999
#
# number of rings (size 3 to 8) (size 9 to 14) (size 15 to 20)
#    0.000    1.250    3.750    2.250    1.750    1.500 
#    2.250    5.000   11.000    0.000    0.000    0.000 
#    0.000    0.000    0.000    0.000    0.000    0.000 
#
# Total GULP energy -178183.509268 kJ/mol
# GULP energy per Si atom -5568.234665 kJ/mol
# Density = 2.285650 g / cm^3
# Si number density = 22.908644 Si / 1000 Ang^3
#
#
#
# Elastic Constant Matrix: (Units=GPa)
#
#
# Indices 1 2 3 4 5 6 
#
# 1 68.0444 3.0037 -2.2965 0.0000 -9.5081 0.0000
# 2 3.0037 91.8477 26.9072 0.0000 -2.9967 0.0000
# 3 -2.2965 26.9072 92.0153 0.0000 -19.2415 0.0000
# 4 0.0000 0.0000 0.0000 13.3228 0.0000 -4.6836
# 5 -9.5081 -2.9967 -19.2415 0.0000 17.4417 0.0000
# 6 0.0000 0.0000 0.0000 -4.6836 0.0000 19.1904
#
#
#
# Elastic Compliance Matrix: (Units=1/GPa)
#
#
# Indices 1 2 3 4 5 6 
#
# 1 0.016619 -0.001122 0.003376 0.000000 0.012591 0.000000
# 2 -0.001122 0.012057 -0.004222 0.000000 -0.003198 0.000000
# 3 0.003376 -0.004222 0.016144 0.000000 0.018925 0.000000
# 4 0.000000 0.000000 0.000000 0.082104 0.000000 0.020038
# 5 0.012591 -0.003198 0.018925 0.000000 0.084526 0.000000
# 6 0.000000 0.000000 0.000000 0.020038 0.000000 0.057000
#
#
# Mechanical properties :
#
#
# Convention : Reuss Voigt Hill
#
# Bulk Modulus (GPa) = 24.45976 34.12625 29.29300
# Shear Modulus (GPa) = 17.48165 24.94384 21.21274
#
# Velocity S-wave (km/s) = 2.76543 3.30334 3.04628
# Velocity P-wave (km/s) = 4.57133 5.42940 5.01874
#
# Compressibility (1/GPa) = 0.04088348
#
# Stress axis : x y z
#
# Youngs Moduli (GPa) = 60.17162 82.94000 61.94195
#
# Poissons Ratio (x) = 0.09303 -0.20910
# Poissons Ratio (y) = 0.06749 0.26155
# Poissons Ratio (z) = -0.20312 0.35021
#
# Static dielectric constant tensor:
#      x y z
#    x 2.221930 0.000000 0.454640 
#    y 0.000000 1.935150 0.000000 
#    z 0.454640 0.000000 2.710650 
# 
# From -- ./inp_files/194267.got.cif
#   From: 2010.05.17/outbox.cif.g08.bks.cpg/sg15_98_cif.got.tgz:194267.got - 2010.06.03 18:47:42.
