data_PCOD9266508
_publ_section_title
;
Structure prediction by ZEFSAII (Michael W. Deem and Ramdas Pophale) SiO2 
 PCOD9266508
Probable space group: C 2/C
;
_chemical_formula_sum "Si O2"
_cell_formula_units_Z 60
_cell_length_a 11.721722
_cell_length_b 32.885380
_cell_length_c 7.740252
_cell_angle_alpha 90.000000
_cell_angle_beta 87.019711
_cell_angle_gamma 90.000000
_cell_volume 2979.624885
_symmetry_space_group_name_H-M "C 2/C"
_symmetry_group_IT_number 15
_symmetry_cell_setting 'monoclinic'
loop_
_space_group_symop_operation_xyz
x,y,z
-x,y,1/2-z
-x,-y,-z
x,-y,1/2+z
1/2+x,1/2+y,z
1/2-x,1/2+y,1/2-z
1/2-x,1/2-y,-z
1/2+x,1/2-y,1/2+z
loop_
_atom_site_type_symbol
_atom_site_label
_atom_site_fract_x
_atom_site_fract_y
_atom_site_fract_z
Si Si1 0.627455 0.049612 0.013847
Si Si2 0.544299 0.220725 0.981119
Si Si3 0.614526 0.692823 0.324213
Si Si4 0.212991 0.602638 0.688868
Si Si5 0.178892 0.732881 0.317573
Si Si6 0.500000 0.848952 0.250000
Si Si7 0.645078 0.956292 0.915511
Si Si8 0.637274 0.323744 0.210895
O O1 0.488679 0.051647 0.024690
O O2 0.661545 0.054239 0.212328
O O3 0.682633 0.081050 0.874423
O O4 0.659562 0.004434 0.945698
O O5 0.611169 0.218528 0.153339
O O6 0.409377 0.226287 0.021667
O O7 0.584651 0.261411 0.887128
O O8 0.565577 0.180458 0.874444
O O9 0.500000 0.674691 0.250000
O O10 0.714289 0.702654 0.181093
O O11 0.652782 0.672825 0.501470
O O12 0.225311 0.569078 0.538574
O O13 0.310599 0.636393 0.704370
O O14 0.096008 0.625669 0.648148
O O15 0.191608 0.781276 0.277897
O O16 0.500000 0.319415 0.250000
#
# Coordination Sequence:
#
# PCOD9266508 Si02
#       8
#     8   8   8   8   8   4   8   8
#     4  10  19  37  65  99 132 163 199 233 308 402
#     4  10  20  37  57  79 117 161 211 255 310 382
#     4  11  21  37  60  84 110 157 219 266 314 377
#     4  12  23  39  60  95 136 159 204 260 319 373
#     4  10  20  41  61  79 110 166 218 262 314 378
#     4  12  22  36  54  98 126 154 196 274 328 346
#     4  10  19  37  67  95 134 167 192 238 308 400
#     4  11  23  43  60  80 123 167 207 267 319 364
#
# _framework density 20.136762000000001
#
# number of rings (size 3 to 8) (size 9 to 14) (size 15 to 20)
#    0.000    1.333    6.000    3.200    0.000    1.600 
#    9.600    0.000    0.000    0.800    0.000    0.000 
#    0.000    0.000    0.000    0.000    0.000    0.000 
#
# Total GULP energy -167531.441158 kJ/mol
# GULP energy per Si atom -5584.381372 kJ/mol
# Density = 2.009093 g / cm^3
# Si number density = 20.136762 Si / 1000 Ang^3
#
#
#
# Elastic Constant Matrix: (Units=GPa)
#
#
# Indices 1 2 3 4 5 6 
#
# 1 61.0025 11.7710 7.0403 0.0000 5.3003 0.0000
# 2 11.7710 79.5880 23.3669 0.0000 9.7129 0.0000
# 3 7.0403 23.3669 79.8497 0.0000 12.1006 0.0000
# 4 0.0000 0.0000 0.0000 24.2146 0.0000 9.9104
# 5 5.3003 9.7129 12.1006 0.0000 25.9648 0.0000
# 6 0.0000 0.0000 0.0000 9.9104 0.0000 20.4755
#
#
#
# Elastic Compliance Matrix: (Units=1/GPa)
#
#
# Indices 1 2 3 4 5 6 
#
# 1 0.017067 -0.002069 -0.000526 0.000000 -0.002465 0.000000
# 2 -0.002069 0.014301 -0.003503 0.000000 -0.003295 0.000000
# 3 -0.000526 -0.003503 0.014397 0.000000 -0.005292 0.000000
# 4 0.000000 0.000000 0.000000 0.051499 0.000000 -0.024926
# 5 -0.002465 -0.003295 -0.005292 0.000000 0.042716 0.000000
# 6 0.000000 0.000000 0.000000 -0.024926 0.000000 0.060904
#
#
# Mechanical properties :
#
#
# Convention : Reuss Voigt Hill
#
# Bulk Modulus (GPa) = 29.78940 33.86628 31.82784
# Shear Modulus (GPa) = 22.29463 26.01511 24.15487
#
# Velocity S-wave (km/s) = 3.33101 3.59823 3.46720
# Velocity P-wave (km/s) = 5.44241 5.84103 5.64524
#
# Compressibility (1/GPa) = 0.03356899
#
# Stress axis : x y z
#
# Youngs Moduli (GPa) = 58.59312 69.92323 69.45877
#
# Poissons Ratio (x) = 0.14467 0.03652
# Poissons Ratio (y) = 0.12123 0.24334
# Poissons Ratio (z) = 0.03081 0.24497
#
# Static dielectric constant tensor:
#      x y z
#    x 1.757240 0.000000 0.004900 
#    y 0.000000 1.686980 0.000000 
#    z 0.004900 0.000000 1.776750 
# 
# From -- ./inp_files/35265.got.cif
#   From: 2010.05.17/outbox.cif.g08.bks.cpg/sg15_18_cif.got.tgz:35265.got - 2010.06.03 18:47:42.
