data_PCOD9266794
_publ_section_title
;
Structure prediction by ZEFSAII (Michael W. Deem and Ramdas Pophale) SiO2 
 PCOD9266794
Probable space group: C 2/C
;
_chemical_formula_sum "Si O2"
_cell_formula_units_Z 48
_cell_length_a 16.282549
_cell_length_b 14.626548
_cell_length_c 21.145049
_cell_angle_alpha 90.000000
_cell_angle_beta 26.798417
_cell_angle_gamma 90.000000
_cell_volume 2270.428231
_symmetry_space_group_name_H-M "C 2/C"
_symmetry_group_IT_number 15
_symmetry_cell_setting 'monoclinic'
loop_
_space_group_symop_operation_xyz
x,y,z
-x,y,1/2-z
-x,-y,-z
x,-y,1/2+z
1/2+x,1/2+y,z
1/2-x,1/2+y,1/2-z
1/2-x,1/2-y,-z
1/2+x,1/2-y,1/2+z
loop_
_atom_site_type_symbol
_atom_site_label
_atom_site_fract_x
_atom_site_fract_y
_atom_site_fract_z
Si Si1 0.801230 0.316275 0.408798
Si Si2 0.418680 0.415318 0.177732
Si Si3 0.034833 0.790590 0.474213
Si Si4 0.430378 0.088430 0.509504
Si Si5 0.755088 0.564140 0.292322
Si Si6 0.799110 0.477895 0.899528
O O1 0.750000 0.250000 0.500000
O O2 0.667782 0.306061 0.441393
O O3 0.811701 0.422643 0.421996
O O4 0.000000 0.289505 0.250000
O O5 0.285418 0.404405 0.329145
O O6 0.350611 0.508990 0.189872
O O7 0.397465 0.338053 0.137696
O O8 0.633838 0.422316 0.043874
O O9 0.009129 0.683185 0.482068
O O10 0.846639 0.841462 0.622345
O O11 0.533514 0.076393 0.371947
O O12 0.500000 0.000000 0.500000
O O13 0.737295 0.507315 0.368952
O O14 0.000000 0.436489 0.750000
#
# Coordination Sequence:
#
# PCOD9266794 Si02
#       6
#     8   8   8   8   8   8
#     4  11  25  36  56  91 130 167 195 237 312 384
#     4  10  19  38  62  88 115 162 214 249 298 364
#     4  11  20  38  61  85 124 163 206 254 301 374
#     4  10  23  32  58  89 118 151 211 263 304 344
#     4  10  19  38  61  86 115 162 211 248 298 366
#     4  10  20  39  62  85 120 160 203 243 306 370
#
# _framework density 21.141386000000001
#
# number of rings (size 3 to 8) (size 9 to 14) (size 15 to 20)
#    0.000    1.667    3.333    2.000    4.667    1.333 
#    0.000    0.833    0.000   16.000    0.000    0.000 
#    0.000    0.000    0.000    0.000    0.000    0.000 
#
# Total GULP energy -133870.475138 kJ/mol
# GULP energy per Si atom -5577.936464 kJ/mol
# Density = 2.109327 g / cm^3
# Si number density = 21.141386 Si / 1000 Ang^3
#
#
#
# Elastic Constant Matrix: (Units=GPa)
#
#
# Indices 1 2 3 4 5 6 
#
# 1 26.6619 13.3340 40.0687 -0.0051 3.5311 -0.0016
# 2 13.3340 115.8150 33.3557 -0.0118 11.3293 -0.0036
# 3 40.0687 33.3557 202.9769 -0.0197 5.4205 -0.0107
# 4 -0.0051 -0.0118 -0.0197 28.4205 0.0015 -0.9605
# 5 3.5311 11.3293 5.4205 0.0015 26.3357 0.0001
# 6 -0.0016 -0.0036 -0.0107 -0.9605 0.0001 29.4475
#
#
#
# Elastic Compliance Matrix: (Units=1/GPa)
#
#
# Indices 1 2 3 4 5 6 
#
# 1 0.054922 -0.002984 -0.010246 0.000002 -0.003972 -0.000001
# 2 -0.002984 0.009581 -0.000891 0.000003 -0.003538 0.000001
# 3 -0.010246 -0.000891 0.007088 0.000003 0.000298 0.000002
# 4 0.000002 0.000003 0.000003 0.035225 -0.000004 0.001149
# 5 -0.003972 -0.003538 0.000298 -0.000004 0.039964 -0.000001
# 6 -0.000001 0.000001 0.000002 0.001149 -0.000001 0.033996
#
#
# Mechanical properties :
#
#
# Convention : Reuss Voigt Hill
#
# Bulk Modulus (GPa) = 23.06809 57.66339 40.36574
# Shear Modulus (GPa) = 22.37468 34.08711 28.23090
#
# Velocity S-wave (km/s) = 3.25674 4.01975 3.65819
# Velocity P-wave (km/s) = 5.00767 6.99134 6.08094
#
# Compressibility (1/GPa) = 0.04334993
#
# Stress axis : x y z
#
# Youngs Moduli (GPa) = 18.20748 104.37657 141.09085
#
# Poissons Ratio (x) = 0.31146 1.44555
# Poissons Ratio (y) = 0.05433 0.12569
# Poissons Ratio (z) = 0.18655 0.09299
#
# Static dielectric constant tensor:
#      x y z
#    x 1.219890 -0.000090 0.067840 
#    y -0.000090 1.748750 0.000030 
#    z 0.067840 0.000030 1.793550 
# 
# From -- ./inp_files/301072.got.cif
#   From: 2010.05.17/outbox.cif.g08.bks.cpg/sg15_151_cif.got.tgz:301072.got - 2010.06.03 18:47:42.
