data_PCOD9266045
_publ_section_title
;
Structure prediction by ZEFSAII (Michael W. Deem and Ramdas Pophale) SiO2 
 PCOD9266045
Probable space group: C 2/C
;
_chemical_formula_sum "Si O2"
_cell_formula_units_Z 52
_cell_length_a 14.479288
_cell_length_b 13.524353
_cell_length_c 12.685621
_cell_angle_alpha 90.000000
_cell_angle_beta 113.716918
_cell_angle_gamma 90.000000
_cell_volume 2274.335838
_symmetry_space_group_name_H-M "C 2/C"
_symmetry_group_IT_number 15
_symmetry_cell_setting 'monoclinic'
loop_
_space_group_symop_operation_xyz
x,y,z
-x,y,1/2-z
-x,-y,-z
x,-y,1/2+z
1/2+x,1/2+y,z
1/2-x,1/2+y,1/2-z
1/2-x,1/2-y,-z
1/2+x,1/2-y,1/2+z
loop_
_atom_site_type_symbol
_atom_site_label
_atom_site_fract_x
_atom_site_fract_y
_atom_site_fract_z
Si Si1 0.942364 0.331110 0.070039
Si Si2 0.770032 0.883870 0.920614
Si Si3 0.905797 0.695239 0.028531
Si Si4 0.000000 0.815629 0.250000
Si Si5 0.162475 0.427069 0.663527
Si Si6 0.000000 0.488086 0.250000
Si Si7 0.000000 0.846199 0.750000
Si Si8 0.840831 0.982536 0.145072
O O1 0.926756 0.412708 0.153065
O O2 0.968128 0.227511 0.139273
O O3 0.859287 0.349150 0.940837
O O4 0.042336 0.353459 0.047380
O O5 0.663000 0.872045 0.930129
O O6 0.740891 0.893025 0.787505
O O7 0.833636 0.784273 0.960437
O O8 0.829894 0.968078 0.013079
O O9 0.987690 0.748288 0.141770
O O10 0.097471 0.886185 0.288796
O O11 0.063647 0.456733 0.687440
O O12 0.228599 0.513233 0.639744
O O13 0.093995 0.922714 0.790007
#
# Coordination Sequence:
#
# PCOD9266045 Si02
#       8
#     8   8   8   4   8   4   4   8
#     4  11  23  39  61  86 123 165 207 263 317 369
#     4  10  21  35  60  91 121 159 208 256 308 378
#     4  10  19  37  59  89 123 159 206 258 313 369
#     4   9  20  38  64  91 124 168 212 259 312 382
#     4  12  22  38  62  88 120 161 206 259 317 374
#     4  11  24  40  60  89 122 162 208 255 318 388
#     4  10  24  44  62  90 126 166 216 260 314 382
#     4  10  22  41  62  90 128 167 210 261 317 376
#
# _framework density 22.863817000000001
#
# number of rings (size 3 to 8) (size 9 to 14) (size 15 to 20)
#    0.000    1.538    0.000    5.077    0.000    1.846 
#    0.000    9.231    0.000    0.000    0.000    0.000 
#    0.000    0.000    0.000    0.000    0.000    0.000 
#
# Total GULP energy -145017.391380 kJ/mol
# GULP energy per Si atom -5577.591976 kJ/mol
# Density = 2.281178 g / cm^3
# Si number density = 22.863817 Si / 1000 Ang^3
#
#
#
# Elastic Constant Matrix: (Units=GPa)
#
#
# Indices 1 2 3 4 5 6 
#
# 1 79.6462 27.1305 21.7331 0.0000 1.7587 0.0000
# 2 27.1305 96.9999 59.5674 0.0000 3.0124 0.0000
# 3 21.7331 59.5674 174.7879 0.0000 11.1539 0.0000
# 4 0.0000 0.0000 0.0000 25.7326 0.0000 16.1917
# 5 1.7587 3.0124 11.1539 0.0000 30.5231 0.0000
# 6 0.0000 0.0000 0.0000 16.1917 0.0000 0.2809
#
#
#
# Elastic Compliance Matrix: (Units=1/GPa)
#
#
# Indices 1 2 3 4 5 6 
#
# 1 0.013916 -0.003581 -0.000493 0.000000 -0.000268 0.000000
# 2 -0.003581 0.013963 -0.004340 0.000000 0.000414 0.000000
# 3 -0.000493 -0.004340 0.007405 0.000000 -0.002249 0.000000
# 4 0.000000 0.000000 0.000000 -0.001102 0.000000 0.063511
# 5 -0.000268 0.000414 -0.002249 0.000000 0.033559 0.000000
# 6 0.000000 0.000000 0.000000 0.063511 0.000000 -0.100936
#
#
# Mechanical properties :
#
#
# Convention : Reuss Voigt Hill
#
# Bulk Modulus (GPa) = 54.18148 63.14401 58.66275
# Shear Modulus (GPa) = -489.45761 27.50752 -230.97505
#
# Velocity S-wave (km/s) = -14.64718 3.47234 -10.06188
# Velocity P-wave (km/s) = 16.19581 6.61465 10.45349
#
# Compressibility (1/GPa) = 0.01845649
#
# Stress axis : x y z
#
# Youngs Moduli (GPa) = 71.86061 71.61722 135.04421
#
# Poissons Ratio (x) = 0.25649 0.06653
# Poissons Ratio (y) = 0.25736 0.58606
# Poissons Ratio (z) = 0.03540 0.31080
#
# Static dielectric constant tensor:
#      x y z
#    x 1.866970 0.000000 0.010130 
#    y 0.000000 1.857580 0.000000 
#    z 0.010130 0.000000 1.919380 
# 
# From -- ./inp_files/96999.got.cif
#   From: 2010.05.17/outbox.cif.g08.bks.cpg/sg15_49_cif.got.tgz:96999.got - 2010.06.03 18:47:42.
