data_PCOD9266585
_publ_section_title
;
Structure prediction by ZEFSAII (Michael W. Deem and Ramdas Pophale) SiO2 
 PCOD9266585
Probable space group: C 2/C
;
_chemical_formula_sum "Si O2"
_cell_formula_units_Z 64
_cell_length_a 19.127426
_cell_length_b 10.112936
_cell_length_c 15.109246
_cell_angle_alpha 90.000000
_cell_angle_beta 112.142582
_cell_angle_gamma 90.000000
_cell_volume 2707.099534
_symmetry_space_group_name_H-M "C 2/C"
_symmetry_group_IT_number 15
_symmetry_cell_setting 'monoclinic'
loop_
_space_group_symop_operation_xyz
x,y,z
-x,y,1/2-z
-x,-y,-z
x,-y,1/2+z
1/2+x,1/2+y,z
1/2-x,1/2+y,1/2-z
1/2-x,1/2-y,-z
1/2+x,1/2-y,1/2+z
loop_
_atom_site_type_symbol
_atom_site_label
_atom_site_fract_x
_atom_site_fract_y
_atom_site_fract_z
Si Si1 0.895320 0.989741 0.276827
Si Si2 0.566530 0.538359 0.904802
Si Si3 0.148128 0.287589 0.020192
Si Si4 0.419343 0.204078 0.834399
Si Si5 0.305234 0.824625 0.133642
Si Si6 0.913561 0.250593 0.031877
Si Si7 0.292118 0.889011 0.624119
Si Si8 0.670941 0.232048 0.177185
O O1 0.889575 0.987975 0.167076
O O2 0.839840 0.882363 0.291856
O O3 0.979808 0.940994 0.338335
O O4 0.895990 0.139302 0.314011
O O5 0.596394 0.664114 0.969681
O O6 0.574086 0.407011 0.966177
O O7 0.154072 0.374558 0.935270
O O8 0.116133 0.352516 0.092890
O O9 0.228748 0.223236 0.082121
O O10 0.378178 0.145150 0.729920
O O11 0.509535 0.196793 0.886526
O O12 0.341336 0.775283 0.060064
O O13 0.249604 0.728324 0.160605
O O14 0.261574 0.962807 0.102147
O O15 0.893997 0.299469 0.924767
O O16 0.327828 0.859041 0.736155
#
# Coordination Sequence:
#
# PCOD9266585 Si02
#       8
#     8   8   8   8   8   8   8   8
#     4  10  20  37  66 102 125 160 215 274 324 379
#     4  10  19  37  69  96 127 163 211 274 329 373
#     4  11  22  44  66  93 128 169 215 275 328 376
#     4  11  22  43  69  94 131 173 215 262 330 382
#     4  12  25  43  65  94 132 173 213 264 327 392
#     4  11  24  42  65  98 130 170 218 267 319 390
#     4  11  26  43  63  96 128 170 217 265 323 393
#     4  12  24  43  66  96 129 167 220 267 327 380
#
# _framework density 23.641539000000002
#
# number of rings (size 3 to 8) (size 9 to 14) (size 15 to 20)
#    0.000    1.000    3.750    3.750    0.000    3.000 
#    0.000    6.250    0.000    0.000    0.000    0.000 
#    0.000    0.000    0.000    0.000    0.000    0.000 
#
# Total GULP energy -179067.052198 kJ/mol
# GULP energy per Si atom -5595.845381 kJ/mol
# Density = 2.358773 g / cm^3
# Si number density = 23.641539 Si / 1000 Ang^3
#
#
#
# Elastic Constant Matrix: (Units=GPa)
#
#
# Indices 1 2 3 4 5 6 
#
# 1 52.6232 -9.6062 -4.9522 0.0000 -5.2043 0.0000
# 2 -9.6062 34.1820 -1.2642 0.0000 -1.1853 0.0000
# 3 -4.9522 -1.2642 116.7931 0.0000 0.2601 0.0000
# 4 0.0000 0.0000 0.0000 0.0265 0.0000 -5.6670
# 5 -5.2043 -1.1853 0.2601 0.0000 41.1006 0.0000
# 6 0.0000 0.0000 0.0000 -5.6670 0.0000 23.2987
#
#
#
# Elastic Compliance Matrix: (Units=1/GPa)
#
#
# Indices 1 2 3 4 5 6 
#
# 1 0.020434 0.005872 0.000924 0.000000 0.002751 0.000000
# 2 0.005872 0.030984 0.000581 0.000000 0.001633 0.000000
# 3 0.000924 0.000581 0.008607 0.000000 0.000079 0.000000
# 4 0.000000 0.000000 0.000000 -0.739675 0.000000 -0.179914
# 5 0.002751 0.001633 0.000079 0.000000 0.024726 0.000000
# 6 0.000000 0.000000 0.000000 -0.179914 0.000000 -0.000840
#
#
# Mechanical properties :
#
#
# Convention : Reuss Voigt Hill
#
# Bulk Modulus (GPa) = 13.37284 19.10590 16.23937
# Shear Modulus (GPa) = -7.74482 27.51320 9.88419
#
# Velocity S-wave (km/s) = -1.81192 3.41510 2.04693
# Velocity P-wave (km/s) = 1.13639 4.86308 3.53136
#
# Compressibility (1/GPa) = 0.07477842
#
# Stress axis : x y z
#
# Youngs Moduli (GPa) = 48.93809 32.27520 116.17869
#
# Poissons Ratio (x) = -0.18952 -0.10733
# Poissons Ratio (y) = -0.28737 -0.06747
# Poissons Ratio (z) = -0.04521 -0.01874
#
# Static dielectric constant tensor:
#      x y z
#    x 1.910700 0.000000 -0.018260 
#    y 0.000000 1.873190 0.000000 
#    z -0.018260 0.000000 1.900540 
# 
# From -- ./inp_files/168130.got.cif
#   From: 2010.05.17/outbox.cif.g08.bks.cpg/sg15_85_cif.got.tgz:168130.got - 2010.06.03 18:47:42.
