data_PCOD9266549
_publ_section_title
;
Structure prediction by ZEFSAII (Michael W. Deem and Ramdas Pophale) SiO2 
 PCOD9266549
Probable space group: C 2/C
;
_chemical_formula_sum "Si O2"
_cell_formula_units_Z 44
_cell_length_a 11.057594
_cell_length_b 9.603789
_cell_length_c 24.269008
_cell_angle_alpha 90.000000
_cell_angle_beta 136.546416
_cell_angle_gamma 90.000000
_cell_volume 1772.541569
_symmetry_space_group_name_H-M "C 2/C"
_symmetry_group_IT_number 15
_symmetry_cell_setting 'monoclinic'
loop_
_space_group_symop_operation_xyz
x,y,z
-x,y,1/2-z
-x,-y,-z
x,-y,1/2+z
1/2+x,1/2+y,z
1/2-x,1/2+y,1/2-z
1/2-x,1/2-y,-z
1/2+x,1/2-y,1/2+z
loop_
_atom_site_type_symbol
_atom_site_label
_atom_site_fract_x
_atom_site_fract_y
_atom_site_fract_z
Si Si1 0.347568 0.638307 0.634119
Si Si2 0.724896 0.650935 0.358771
Si Si3 0.558911 0.101352 0.178818
Si Si4 0.807921 0.035429 0.499175
Si Si5 0.000000 0.399525 0.250000
Si Si6 0.001872 0.774082 0.974116
O O1 0.389633 0.483990 0.666930
O O2 0.499056 0.752143 0.685365
O O3 0.300035 0.614474 0.554232
O O4 0.172163 0.697844 0.605871
O O5 0.623406 0.796069 0.324799
O O6 0.807982 0.630204 0.326090
O O7 0.872482 0.662776 0.454950
O O8 0.382966 0.037465 0.092223
O O9 0.609081 0.997369 0.244593
O O10 0.892853 0.881032 0.529979
O O11 0.931041 0.127687 0.500116
#
# Coordination Sequence:
#
# PCOD9266549 Si02
#       6
#     8   8   8   8   4   8
#     4  11  23  39  72 104 126 160 212 281 336 377
#     4  12  25  44  67  97 131 170 224 264 316 395
#     4  11  24  46  68  91 133 175 216 266 321 387
#     4  10  19  38  71 103 131 163 204 271 343 385
#     4  12  30  46  62  88 132 188 222 256 312 388
#     4  10  19  37  67 103 133 160 204 268 336 385
#
# _framework density 24.823114
#
# number of rings (size 3 to 8) (size 9 to 14) (size 15 to 20)
#    0.000    1.091    5.455    1.636    0.000    5.818 
#    0.000    0.000    0.000    0.000    0.000    0.000 
#    0.000    0.000    0.000    0.000    0.000    0.000 
#
# Total GULP energy -123251.986401 kJ/mol
# GULP energy per Si atom -5602.363018 kJ/mol
# Density = 2.476662 g / cm^3
# Si number density = 24.823114 Si / 1000 Ang^3
#
#
#
# Elastic Constant Matrix: (Units=GPa)
#
#
# Indices 1 2 3 4 5 6 
#
# 1 66.3151 36.0013 -5.6994 0.0000 -4.6710 0.0000
# 2 36.0013 158.8941 16.8145 0.0000 -10.2247 0.0000
# 3 -5.6994 16.8145 42.8934 0.0000 -1.9842 0.0000
# 4 0.0000 0.0000 0.0000 8.0651 0.0000 -18.8715
# 5 -4.6710 -10.2247 -1.9842 0.0000 17.8235 0.0000
# 6 0.0000 0.0000 0.0000 -18.8715 0.0000 28.2521
#
#
#
# Elastic Compliance Matrix: (Units=1/GPa)
#
#
# Indices 1 2 3 4 5 6 
#
# 1 0.017993 -0.004350 0.004221 0.000000 0.002690 0.000000
# 2 -0.004350 0.007842 -0.003515 0.000000 0.002967 0.000000
# 3 0.004221 -0.003515 0.025341 0.000000 0.001911 0.000000
# 4 0.000000 0.000000 0.000000 -0.220244 0.000000 -0.147116
# 5 0.002690 0.002967 0.001911 0.000000 0.058725 0.000000
# 6 0.000000 0.000000 0.000000 -0.147116 0.000000 -0.062873
#
#
# Mechanical properties :
#
#
# Convention : Reuss Voigt Hill
#
# Bulk Modulus (GPa) = 22.78587 40.25950 31.52268
# Shear Modulus (GPa) = -33.04759 25.56057 -3.74351
#
# Velocity S-wave (km/s) = -3.65269 3.21239 -1.22937
# Velocity P-wave (km/s) = 2.93092 5.47841 3.27282
#
# Compressibility (1/GPa) = 0.04388685
#
# Stress axis : x y z
#
# Youngs Moduli (GPa) = 55.57570 127.51695 39.46225
#
# Poissons Ratio (x) = 0.55475 -0.16656
# Poissons Ratio (y) = 0.24178 0.13871
# Poissons Ratio (z) = -0.23457 0.44821
#
# Static dielectric constant tensor:
#      x y z
#    x 1.918670 0.000000 0.010260 
#    y 0.000000 1.957390 0.000000 
#    z 0.010260 0.000000 2.043940 
# 
# From -- ./inp_files/236051.got.cif
#   From: 2010.05.17/outbox.cif.g08.bks.cpg/sg15_119_cif.got.tgz:236051.got - 2010.06.03 18:47:42.
