data_PCOD9266888
_publ_section_title
;
Structure prediction by ZEFSAII (Michael W. Deem and Ramdas Pophale) SiO2 
 PCOD9266888
Probable space group: C 2/C
;
_chemical_formula_sum "Si O2"
_cell_formula_units_Z 56
_cell_length_a 8.614464
_cell_length_b 22.917111
_cell_length_c 16.112427
_cell_angle_alpha 90.000000
_cell_angle_beta 51.318211
_cell_angle_gamma 90.000000
_cell_volume 2483.097805
_symmetry_space_group_name_H-M "C 2/C"
_symmetry_group_IT_number 15
_symmetry_cell_setting 'monoclinic'
loop_
_space_group_symop_operation_xyz
x,y,z
-x,y,1/2-z
-x,-y,-z
x,-y,1/2+z
1/2+x,1/2+y,z
1/2-x,1/2+y,1/2-z
1/2-x,1/2-y,-z
1/2+x,1/2-y,1/2+z
loop_
_atom_site_type_symbol
_atom_site_label
_atom_site_fract_x
_atom_site_fract_y
_atom_site_fract_z
Si Si1 0.233042 0.084649 0.180381
Si Si2 0.862089 0.115346 0.976629
Si Si3 0.067979 0.485456 0.631746
Si Si4 0.271639 0.821639 0.538762
Si Si5 0.195743 0.388017 0.132799
Si Si6 0.674015 0.317044 0.834072
Si Si7 0.303887 0.217117 0.566372
O O1 0.364764 0.028310 0.151657
O O2 0.267597 0.135381 0.239878
O O3 0.000000 0.071801 0.250000
O O4 0.297005 0.117038 0.076345
O O5 0.731882 0.058293 0.039555
O O6 0.844498 0.150290 0.070852
O O7 0.777735 0.152740 0.927409
O O8 0.097156 0.105088 0.887752
O O9 0.153473 0.550168 0.602695
O O10 0.000000 0.473264 0.750000
O O11 0.285639 0.835454 0.437655
O O12 0.456485 0.783896 0.506151
O O13 0.044417 0.803973 0.631138
O O14 0.000000 0.376490 0.250000
O O15 0.766828 0.254804 0.830053
O O16 0.250000 0.250000 0.500000
#
# Coordination Sequence:
#
# PCOD9266888 Si02
#       7
#     8   8   8   8   8   8   8
#     4  10  20  36  60  93 128 157 203 264 307 372
#     4  10  19  38  62  91 126 158 209 251 304 372
#     4  11  20  37  66  93 124 163 204 258 313 371
#     4  10  20  39  60  84 129 162 206 252 308 372
#     4  10  24  42  60  84 122 173 211 253 312 369
#     4   9  19  35  60  92 127 159 199 249 311 367
#     4  10  20  36  60  91 120 163 197 256 306 366
#
# _framework density 22.552474
#
# number of rings (size 3 to 8) (size 9 to 14) (size 15 to 20)
#    0.000    2.000    2.857    0.857    0.000    0.571 
#    0.000    8.571    0.000    0.000    0.000    0.000 
#    0.000    0.000    0.000    0.000    0.000    0.000 
#
# Total GULP energy -156192.715723 kJ/mol
# GULP energy per Si atom -5578.311276 kJ/mol
# Density = 2.250114 g / cm^3
# Si number density = 22.552474 Si / 1000 Ang^3
#
#
#
# Elastic Constant Matrix: (Units=GPa)
#
#
# Indices 1 2 3 4 5 6 
#
# 1 100.5639 32.5139 19.1783 0.0000 -16.6195 0.0000
# 2 32.5139 47.0683 20.7324 0.0000 -5.0812 0.0000
# 3 19.1783 20.7324 53.4207 0.0000 -16.6661 0.0000
# 4 0.0000 0.0000 0.0000 6.6164 0.0000 -14.5555
# 5 -16.6195 -5.0812 -16.6661 0.0000 26.6559 0.0000
# 6 0.0000 0.0000 0.0000 -14.5555 0.0000 -15.8221
#
#
#
# Elastic Compliance Matrix: (Units=1/GPa)
#
#
# Indices 1 2 3 4 5 6 
#
# 1 0.014013 -0.009271 0.000921 0.000000 0.007546 0.000000
# 2 -0.009271 0.031819 -0.011096 0.000000 -0.006652 0.000000
# 3 0.000921 -0.011096 0.027597 0.000000 0.015714 0.000000
# 4 0.000000 0.000000 0.000000 0.049983 0.000000 -0.045982
# 5 0.007546 -0.006652 0.015714 0.000000 0.050777 0.000000
# 6 0.000000 0.000000 0.000000 -0.045982 0.000000 -0.020902
#
#
# Mechanical properties :
#
#
# Convention : Reuss Voigt Hill
#
# Bulk Modulus (GPa) = 28.95350 38.43357 33.69354
# Shear Modulus (GPa) = 24.54694 12.06526 18.30610
#
# Velocity S-wave (km/s) = 3.30273 2.31549 2.85215
# Velocity P-wave (km/s) = 5.23547 4.92214 5.08122
#
# Compressibility (1/GPa) = 0.03453814
#
# Stress axis : x y z
#
# Youngs Moduli (GPa) = 71.36409 31.42749 36.23538
#
# Poissons Ratio (x) = 0.29136 -0.03339
# Poissons Ratio (y) = 0.66162 0.40207
# Poissons Ratio (z) = -0.06576 0.34872
#
# Static dielectric constant tensor:
#      x y z
#    x 1.847070 0.000000 -0.002980 
#    y 0.000000 1.888340 0.000000 
#    z -0.002980 0.000000 1.838030 
# 
# From -- ./inp_files/193178.got.cif
#   From: 2010.05.17/outbox.cif.g08.bks.cpg/sg15_97_cif.got.tgz:193178.got - 2010.06.03 18:47:42.
