data_PCOD9266912
_publ_section_title
;
Structure prediction by ZEFSAII (Michael W. Deem and Ramdas Pophale) SiO2 
 PCOD9266912
Probable space group: C 2/C
;
_chemical_formula_sum "Si O2"
_cell_formula_units_Z 40
_cell_length_a 19.736683
_cell_length_b 6.818445
_cell_length_c 13.331200
_cell_angle_alpha 90.000000
_cell_angle_beta 65.703296
_cell_angle_gamma 90.000000
_cell_volume 1635.123712
_symmetry_space_group_name_H-M "C 2/C"
_symmetry_group_IT_number 15
_symmetry_cell_setting 'monoclinic'
loop_
_space_group_symop_operation_xyz
x,y,z
-x,y,1/2-z
-x,-y,-z
x,-y,1/2+z
1/2+x,1/2+y,z
1/2-x,1/2+y,1/2-z
1/2-x,1/2-y,-z
1/2+x,1/2-y,1/2+z
loop_
_atom_site_type_symbol
_atom_site_label
_atom_site_fract_x
_atom_site_fract_y
_atom_site_fract_z
Si Si1 0.817672 0.878218 0.185615
Si Si2 0.161730 0.748099 0.541701
Si Si3 0.432174 0.725427 0.093648
Si Si4 0.047514 0.064295 0.626427
Si Si5 0.151662 0.488632 0.729559
O O1 0.836288 0.742334 0.268339
O O2 0.731150 0.924930 0.220725
O O3 0.862838 0.078896 0.156113
O O4 0.847485 0.752037 0.072203
O O5 0.250000 0.750000 0.500000
O O6 0.123720 0.948994 0.603099
O O7 0.136180 0.571124 0.628078
O O8 0.500160 0.614378 0.105007
O O9 0.412198 0.925718 0.160077
O O10 0.443254 0.721981 0.967499
O O11 0.000000 0.133274 0.750000
#
# Coordination Sequence:
#
# PCOD9266912 Si02
#       5
#     8   8   8   8   8
#     4  10  21  37  59  93 121 159 211 247 303 365
#     4   9  20  37  60  88 119 160 202 250 305 359
#     4  10  21  37  62  89 117 167 203 250 307 363
#     4  10  19  38  63  83 123 163 200 249 314 356
#     4  11  19  38  62  87 127 161 200 258 303 356
#
# _framework density 24.462982
#
# number of rings (size 3 to 8) (size 9 to 14) (size 15 to 20)
#    0.000    2.000    4.000    0.000    0.000    0.000 
#    3.600   10.000    0.000    0.000    0.000    0.000 
#    0.000    0.000    0.000    0.000    0.000    0.000 
#
# Total GULP energy -111847.981349 kJ/mol
# GULP energy per Si atom -5592.399067 kJ/mol
# Density = 2.440730 g / cm^3
# Si number density = 24.462982 Si / 1000 Ang^3
#
#
#
# Elastic Constant Matrix: (Units=GPa)
#
#
# Indices 1 2 3 4 5 6 
#
# 1 67.6563 26.0527 18.9941 0.0000 -13.6787 0.0000
# 2 26.0527 58.4351 32.6884 0.0000 11.2510 -0.0001
# 3 18.9941 32.6884 121.7911 0.0000 -7.4509 0.0000
# 4 0.0000 0.0000 0.0000 25.9787 0.0000 3.9049
# 5 -13.6787 11.2510 -7.4509 0.0000 31.5941 0.0000
# 6 0.0000 -0.0001 0.0000 3.9049 0.0000 34.7859
#
#
#
# Elastic Compliance Matrix: (Units=1/GPa)
#
#
# Indices 1 2 3 4 5 6 
#
# 1 0.022741 -0.013576 0.001010 0.000000 0.014919 0.000000
# 2 -0.013576 0.030820 -0.007291 0.000000 -0.018573 0.000000
# 3 0.001010 -0.007291 0.010345 0.000000 0.005473 0.000000
# 4 0.000000 0.000000 0.000000 0.039154 0.000000 -0.004395
# 5 0.014919 -0.018573 0.005473 0.000000 0.046015 0.000000
# 6 0.000000 0.000000 0.000000 -0.004395 0.000000 0.029241
#
#
# Mechanical properties :
#
#
# Convention : Reuss Voigt Hill
#
# Bulk Modulus (GPa) = 41.33639 44.81700 43.07669
# Shear Modulus (GPa) = 22.11458 29.81489 25.96473
#
# Velocity S-wave (km/s) = 3.00992 3.49488 3.26143
# Velocity P-wave (km/s) = 5.38644 5.88606 5.64178
#
# Compressibility (1/GPa) = 0.02419176
#
# Stress axis : x y z
#
# Youngs Moduli (GPa) = 43.97303 32.44604 96.66491
#
# Poissons Ratio (x) = 0.44050 -0.09762
# Poissons Ratio (y) = 0.59699 0.70479
# Poissons Ratio (z) = -0.04441 0.23657
#
# Static dielectric constant tensor:
#      x y z
#    x 1.981780 0.000000 0.015960 
#    y 0.000000 1.945560 0.000000 
#    z 0.015960 0.000000 1.966270 
# 
# From -- ./inp_files/165478.got.cif
#   From: 2010.05.17/outbox.cif.g08.bks.cpg/sg15_83_cif.got.tgz:165478.got - 2010.06.03 18:47:42.
