data_PCOD9266536
_publ_section_title
;
Structure prediction by ZEFSAII (Michael W. Deem and Ramdas Pophale) SiO2 
 PCOD9266536
Probable space group: C 2/C
;
_chemical_formula_sum "Si O2"
_cell_formula_units_Z 40
_cell_length_a 15.397697
_cell_length_b 9.121109
_cell_length_c 25.638866
_cell_angle_alpha 90.000000
_cell_angle_beta 26.515810
_cell_angle_gamma 90.000000
_cell_volume 1607.570171
_symmetry_space_group_name_H-M "C 2/C"
_symmetry_group_IT_number 15
_symmetry_cell_setting 'monoclinic'
loop_
_space_group_symop_operation_xyz
x,y,z
-x,y,1/2-z
-x,-y,-z
x,-y,1/2+z
1/2+x,1/2+y,z
1/2-x,1/2+y,1/2-z
1/2-x,1/2-y,-z
1/2+x,1/2-y,1/2+z
loop_
_atom_site_type_symbol
_atom_site_label
_atom_site_fract_x
_atom_site_fract_y
_atom_site_fract_z
Si Si1 0.500000 0.297710 0.750000
Si Si2 0.136179 0.090223 0.386834
Si Si3 0.313935 0.113400 0.532045
Si Si4 0.384476 0.397882 0.922762
Si Si5 0.000000 0.671519 0.250000
Si Si6 0.608231 0.174821 0.441965
O O1 0.492721 0.381311 0.809088
O O2 0.707954 0.222635 0.643713
O O3 0.358961 0.084450 0.285778
O O4 0.047197 0.063881 0.377715
O O5 0.072269 0.260331 0.429298
O O6 0.000000 0.000000 0.500000
O O7 0.146659 0.225973 0.637818
O O8 0.529787 0.177936 0.425146
O O9 0.262008 0.033997 0.506452
O O10 0.328713 0.979547 0.566802
O O11 0.250000 0.250000 0.000000
#
# Coordination Sequence:
#
# PCOD9266536 Si02
#       6
#     4   8   8   8   4   8
#     4  10  19  37  66  94 130 177 229 266 334 422
#     4  11  24  46  65  98 150 181 221 301 359 413
#     4   9  17  36  68  92 127 174 228 285 320 412
#     4  11  21  43  68 100 139 181 229 287 352 416
#     4  10  23  45  68  98 132 185 245 274 348 438
#     4   9  18  36  64  96 131 175 226 274 338 406
#
# _framework density 24.882270999999999
#
# number of rings (size 3 to 8) (size 9 to 14) (size 15 to 20)
#    0.000    2.000    4.000    2.400    0.000    0.800 
#    7.200    2.000    0.000    0.000    0.000    0.000 
#    0.000    0.000    0.000    0.000    0.000    0.000 
#
# Total GULP energy -111336.144916 kJ/mol
# GULP energy per Si atom -5566.807246 kJ/mol
# Density = 2.482564 g / cm^3
# Si number density = 24.882271 Si / 1000 Ang^3
#
#
#
# Elastic Constant Matrix: (Units=GPa)
#
#
# Indices 1 2 3 4 5 6 
#
# 1 276.9190 42.6470 68.8502 0.0001 -52.3401 0.0000
# 2 42.6470 69.8184 10.7936 0.0000 -1.9285 -0.0001
# 3 68.8502 10.7936 69.6719 -0.0036 -22.9991 0.0003
# 4 0.0001 0.0000 -0.0036 33.1598 0.0002 -11.7096
# 5 -52.3401 -1.9285 -22.9991 0.0002 63.5895 0.0001
# 6 0.0000 -0.0001 0.0003 -11.7096 0.0001 21.1299
#
#
#
# Elastic Compliance Matrix: (Units=1/GPa)
#
#
# Indices 1 2 3 4 5 6 
#
# 1 0.005638 -0.002719 -0.004140 -0.000001 0.003061 0.000000
# 2 -0.002719 0.015996 -0.000420 0.000000 -0.001905 0.000000
# 3 -0.004140 -0.000420 0.019736 0.000003 0.003718 0.000001
# 4 -0.000001 0.000000 0.000003 0.037494 0.000000 0.020778
# 5 0.003061 -0.001905 0.003718 0.000000 0.019532 0.000000
# 6 0.000000 0.000000 0.000001 0.020778 0.000000 0.058841
#
#
# Mechanical properties :
#
#
# Convention : Reuss Voigt Hill
#
# Bulk Modulus (GPa) = 37.29563 73.44343 55.36953
# Shear Modulus (GPa) = 27.66528 43.18374 35.42451
#
# Velocity S-wave (km/s) = 3.33805 4.17048 3.77727
# Velocity P-wave (km/s) = 5.46609 7.26436 6.42842
#
# Compressibility (1/GPa) = 0.02681279
#
# Stress axis : x y z
#
# Youngs Moduli (GPa) = 177.37968 62.51535 50.66842
#
# Poissons Ratio (x) = 0.16999 0.20974
# Poissons Ratio (y) = 0.48232 0.02127
# Poissons Ratio (z) = 0.73427 0.02625
#
# Static dielectric constant tensor:
#      x y z
#    x 2.177410 0.000000 -0.123450 
#    y 0.000000 2.149950 0.000000 
#    z -0.123450 0.000000 2.138640 
# 
# From -- ./inp_files/273760.got.cif
#   From: 2010.05.17/outbox.cif.g08.bks.cpg/sg15_137_cif.got.tgz:273760.got - 2010.06.03 18:47:42.
