data_PCOD9266927
_publ_section_title
;
Structure prediction by ZEFSAII (Michael W. Deem and Ramdas Pophale) SiO2 
 PCOD9266927
Probable space group: C 2/C
;
_chemical_formula_sum "Si O2"
_cell_formula_units_Z 36
_cell_length_a 16.744231
_cell_length_b 7.331090
_cell_length_c 29.154341
_cell_angle_alpha 90.000000
_cell_angle_beta 155.411051
_cell_angle_gamma 90.000000
_cell_volume 1489.156543
_symmetry_space_group_name_H-M "C 2/C"
_symmetry_group_IT_number 15
_symmetry_cell_setting 'monoclinic'
loop_
_space_group_symop_operation_xyz
x,y,z
-x,y,1/2-z
-x,-y,-z
x,-y,1/2+z
1/2+x,1/2+y,z
1/2-x,1/2+y,1/2-z
1/2-x,1/2-y,-z
1/2+x,1/2-y,1/2+z
loop_
_atom_site_type_symbol
_atom_site_label
_atom_site_fract_x
_atom_site_fract_y
_atom_site_fract_z
Si Si1 0.500000 0.920464 0.750000
Si Si2 0.754660 0.410908 0.965526
Si Si3 0.045958 0.396952 0.675200
Si Si4 0.164529 0.189376 0.251900
Si Si5 0.137748 0.826638 0.060666
O O1 0.531079 0.812396 0.718523
O O2 0.673601 0.056118 0.852086
O O3 0.525014 0.431178 0.836859
O O4 0.878482 0.318808 0.989213
O O5 0.750000 0.250000 0.000000
O O6 0.861717 0.581434 0.045335
O O7 0.093577 0.604272 0.712924
O O8 0.227078 0.339492 0.739345
O O9 0.320853 0.198913 0.373917
O O10 0.000000 0.000000 0.000000
#
# Coordination Sequence:
#
# PCOD9266927 Si02
#       5
#     4   8   8   8   8
#     4  10  20  38  58  90 122 164 212 246 312 372
#     4  10  19  38  63  87 124 168 208 254 317 373
#     4  10  22  37  66  89 124 171 213 257 314 375
#     4  10  22  40  63  92 124 166 213 260 316 377
#     4  11  21  38  67  89 120 168 213 251 315 383
#
# _framework density 24.174758000000001
#
# number of rings (size 3 to 8) (size 9 to 14) (size 15 to 20)
#    0.000    1.778    6.667    0.000   12.444    0.889 
#    0.000    4.444    4.889    0.000    0.000    0.000 
#    0.000    0.000    0.000    0.000    0.000    0.000 
#
# Total GULP energy -100206.893867 kJ/mol
# GULP energy per Si atom -5567.049659 kJ/mol
# Density = 2.411973 g / cm^3
# Si number density = 24.174758 Si / 1000 Ang^3
#
#
#
# Elastic Constant Matrix: (Units=GPa)
#
#
# Indices 1 2 3 4 5 6 
#
# 1 186.5138 42.2264 53.2525 0.0000 -9.4217 -0.0001
# 2 42.2264 70.8236 32.2640 -0.0001 1.3163 -0.0002
# 3 53.2525 32.2640 86.5204 0.0004 -0.1941 0.0000
# 4 0.0000 -0.0001 0.0004 1.3453 0.0000 8.0766
# 5 -9.4217 1.3163 -0.1941 0.0000 45.9174 0.0000
# 6 -0.0001 -0.0002 0.0000 8.0766 0.0000 38.1986
#
#
#
# Elastic Compliance Matrix: (Units=1/GPa)
#
#
# Indices 1 2 3 4 5 6 
#
# 1 0.006987 -0.002694 -0.003293 -0.000004 0.001497 0.000001
# 2 -0.002694 0.018060 -0.005079 -0.000007 -0.001092 0.000002
# 3 -0.003293 -0.005079 0.015478 0.000018 -0.000465 -0.000004
# 4 -0.000004 -0.000007 0.000018 -2.759742 -0.000001 0.583509
# 5 0.001497 -0.001092 -0.000465 -0.000001 0.022115 0.000000
# 6 0.000001 0.000002 -0.000004 0.583509 0.000000 -0.097196
#
#
# Mechanical properties :
#
#
# Convention : Reuss Voigt Hill
#
# Bulk Modulus (GPa) = 54.36697 66.59372 60.48035
# Shear Modulus (GPa) = -1.80764 31.49992 14.84614
#
# Velocity S-wave (km/s) = -0.86566 3.61364 2.48083
# Velocity P-wave (km/s) = 4.64099 6.70953 5.76873
#
# Compressibility (1/GPa) = 0.01839352
#
# Stress axis : x y z
#
# Youngs Moduli (GPa) = 143.12088 55.37188 64.60971
#
# Poissons Ratio (x) = 0.14915 0.21274
# Poissons Ratio (y) = 0.38552 0.32816
# Poissons Ratio (z) = 0.47125 0.28124
#
# Static dielectric constant tensor:
#      x y z
#    x 2.436160 0.000000 0.138180 
#    y 0.000000 1.943040 0.000000 
#    z 0.138180 0.000000 2.332830 
# 
# From -- ./inp_files/158907.got.cif
#   From: 2010.05.17/outbox.cif.g08.bks.cpg/sg15_80_cif.got.tgz:158907.got - 2010.06.03 18:47:42.
