data_PCOD9266538
_publ_section_title
;
Structure prediction by ZEFSAII (Michael W. Deem and Ramdas Pophale) SiO2 
 PCOD9266538
Probable space group: C 2/C
;
_chemical_formula_sum "Si O2"
_cell_formula_units_Z 60
_cell_length_a 17.153612
_cell_length_b 9.242456
_cell_length_c 20.691460
_cell_angle_alpha 90.000000
_cell_angle_beta 62.137054
_cell_angle_gamma 90.000000
_cell_volume 2900.145664
_symmetry_space_group_name_H-M "C 2/C"
_symmetry_group_IT_number 15
_symmetry_cell_setting 'monoclinic'
loop_
_space_group_symop_operation_xyz
x,y,z
-x,y,1/2-z
-x,-y,-z
x,-y,1/2+z
1/2+x,1/2+y,z
1/2-x,1/2+y,1/2-z
1/2-x,1/2-y,-z
1/2+x,1/2-y,1/2+z
loop_
_atom_site_type_symbol
_atom_site_label
_atom_site_fract_x
_atom_site_fract_y
_atom_site_fract_z
Si Si1 0.012645 0.377473 0.441621
Si Si2 0.739680 0.750234 0.790150
Si Si3 0.305561 0.002273 0.850943
Si Si4 0.650066 0.234080 0.562508
Si Si5 0.500000 0.320040 0.250000
Si Si6 0.931118 0.403873 0.687620
Si Si7 0.837284 0.974950 0.839668
Si Si8 0.294383 0.783856 0.119508
O O1 0.033294 0.463775 0.367252
O O2 0.100530 0.289161 0.425878
O O3 0.000000 0.500000 0.500000
O O4 0.923956 0.287476 0.463087
O O5 0.743275 0.610068 0.833845
O O6 0.644322 0.823275 0.824261
O O7 0.806200 0.866171 0.795521
O O8 0.769032 0.714254 0.705890
O O9 0.381835 0.959816 0.770946
O O10 0.251386 0.859701 0.890413
O O11 0.345856 0.092306 0.893706
O O12 0.750000 0.250000 0.500000
O O13 0.630651 0.373605 0.614466
O O14 0.502266 0.217219 0.312137
O O15 0.586476 0.418586 0.213988
O O16 0.753058 0.073909 0.890668
#
# Coordination Sequence:
#
# PCOD9266538 Si02
#       8
#     8   8   8   8   4   8   8   8
#     4  12  26  44  67  94 132 181 221 269 332 405
#     4  10  19  37  66  95 133 166 207 276 324 384
#     4  10  21  40  72  96 130 171 215 275 325 390
#     4  11  27  47  64  92 136 176 217 268 333 391
#     4  12  24  36  66 108 136 158 220 278 336 374
#     4  11  22  40  67 101 133 164 222 271 336 381
#     4  11  23  39  64  96 136 168 209 272 326 389
#     4  11  20  41  64 100 125 171 222 259 329 386
#
# _framework density 20.688617000000001
#
# number of rings (size 3 to 8) (size 9 to 14) (size 15 to 20)
#    0.000    1.067    5.333    2.400    3.733    0.000 
#    2.400    2.000    0.000    0.000    0.000    0.000 
#    0.000    0.000    0.000    0.000    0.000    0.000 
#
# Total GULP energy -167732.678007 kJ/mol
# GULP energy per Si atom -5591.089267 kJ/mol
# Density = 2.064153 g / cm^3
# Si number density = 20.688617 Si / 1000 Ang^3
#
#
#
# Elastic Constant Matrix: (Units=GPa)
#
#
# Indices 1 2 3 4 5 6 
#
# 1 110.3403 31.2884 15.2098 0.0000 -9.6750 0.0000
# 2 31.2884 93.4404 9.9524 0.0000 -0.5202 0.0000
# 3 15.2098 9.9524 23.6348 0.0000 -10.4706 0.0000
# 4 0.0000 0.0000 0.0000 7.7221 0.0000 3.5613
# 5 -9.6750 -0.5202 -10.4706 0.0000 23.5540 0.0000
# 6 0.0000 0.0000 0.0000 3.5613 0.0000 38.2394
#
#
#
# Elastic Compliance Matrix: (Units=1/GPa)
#
#
# Indices 1 2 3 4 5 6 
#
# 1 0.010781 -0.003107 -0.004605 0.000000 0.002313 0.000000
# 2 -0.003107 0.012201 -0.004463 0.000000 -0.002991 0.000000
# 3 -0.004605 -0.004463 0.057619 0.000000 0.023624 0.000000
# 4 0.000000 0.000000 0.000000 0.135310 0.000000 -0.012602
# 5 0.002313 -0.002991 0.023624 0.000000 0.053841 0.000000
# 6 0.000000 0.000000 0.000000 -0.012602 0.000000 0.027325
#
#
# Mechanical properties :
#
#
# Convention : Reuss Voigt Hill
#
# Bulk Modulus (GPa) = 17.77758 37.81297 27.79527
# Shear Modulus (GPa) = 14.69812 25.30077 19.99944
#
# Velocity S-wave (km/s) = 2.66831 3.50084 3.11253
# Velocity P-wave (km/s) = 4.25497 5.88711 5.13628
#
# Compressibility (1/GPa) = 0.05625064
#
# Stress axis : x y z
#
# Youngs Moduli (GPa) = 92.75193 81.96014 17.35525
#
# Poissons Ratio (x) = 0.25463 0.07993
# Poissons Ratio (y) = 0.28816 0.07746
# Poissons Ratio (z) = 0.42717 0.36582
#
# Static dielectric constant tensor:
#      x y z
#    x 1.767740 0.000000 -0.003000 
#    y 0.000000 1.766850 0.000000 
#    z -0.003000 0.000000 1.738630 
# 
# From -- ./inp_files/247808.got.cif
#   From: 2010.05.17/outbox.cif.g08.bks.cpg/sg15_124_cif.got.tgz:247808.got - 2010.06.03 18:47:42.
