data_PCOD9266369
_publ_section_title
;
Structure prediction by ZEFSAII (Michael W. Deem and Ramdas Pophale) SiO2 
 PCOD9266369
Probable space group: C 2/C
;
_chemical_formula_sum "Si O2"
_cell_formula_units_Z 56
_cell_length_a 8.756455
_cell_length_b 25.470053
_cell_length_c 15.368089
_cell_angle_alpha 90.000000
_cell_angle_beta 128.038447
_cell_angle_gamma 90.000000
_cell_volume 2699.493820
_symmetry_space_group_name_H-M "C 2/C"
_symmetry_group_IT_number 15
_symmetry_cell_setting 'monoclinic'
loop_
_space_group_symop_operation_xyz
x,y,z
-x,y,1/2-z
-x,-y,-z
x,-y,1/2+z
1/2+x,1/2+y,z
1/2-x,1/2+y,1/2-z
1/2-x,1/2-y,-z
1/2+x,1/2-y,1/2+z
loop_
_atom_site_type_symbol
_atom_site_label
_atom_site_fract_x
_atom_site_fract_y
_atom_site_fract_z
Si Si1 0.096775 0.860033 0.875460
Si Si2 0.797716 0.823602 0.131503
Si Si3 0.237741 0.969960 0.976723
Si Si4 0.807409 0.442998 0.374180
Si Si5 0.268361 0.066983 0.672852
Si Si6 0.898498 0.274908 0.983926
Si Si7 0.481556 0.669814 0.956903
O O1 0.115457 0.922291 0.894158
O O2 0.000000 0.846751 0.750000
O O3 0.306644 0.832172 0.939323
O O4 0.999772 0.839170 0.931992
O O5 0.739067 0.881795 0.140325
O O6 0.621246 0.784312 0.087967
O O7 0.000000 0.809997 0.250000
O O8 0.832363 0.829349 0.039759
O O9 0.212598 0.024634 0.919018
O O10 0.462769 0.953121 0.041348
O O11 0.211902 0.969005 0.071362
O O12 0.735639 0.460397 0.253711
O O13 0.500000 0.078004 0.750000
O O14 0.156176 0.122185 0.622427
O O15 0.750000 0.250000 0.000000
O O16 0.896831 0.228512 0.912427
#
# Coordination Sequence:
#
# PCOD9266369 Si02
#       7
#     8   8   8   8   8   8   8
#     4  10  21  41  61  88 123 173 219 255 319 403
#     4  12  23  39  64  99 133 163 216 276 336 387
#     4   9  19  37  62  88 128 165 218 272 315 384
#     4  10  19  37  63  92 127 171 209 270 330 381
#     4   9  18  35  62  94 123 166 225 263 319 397
#     4  10  23  42  66  92 127 172 218 266 326 395
#     4  10  22  38  59  91 127 159 208 278 317 379
#
# _framework density 20.744630000000001
#
# number of rings (size 3 to 8) (size 9 to 14) (size 15 to 20)
#    0.000    2.000    2.857    0.429    2.000    3.429 
#    2.571    2.143    0.000    0.000    0.000    0.000 
#    0.000    0.000    0.000    0.000    0.000    0.000 
#
# Total GULP energy -156029.052135 kJ/mol
# GULP energy per Si atom -5572.466148 kJ/mol
# Density = 2.069741 g / cm^3
# Si number density = 20.744630 Si / 1000 Ang^3
#
#
#
# Elastic Constant Matrix: (Units=GPa)
#
#
# Indices 1 2 3 4 5 6 
#
# 1 84.3236 15.4797 51.2813 0.0000 -1.8523 0.0000
# 2 15.4797 65.8630 26.5875 0.0000 -6.9536 0.0000
# 3 51.2813 26.5875 94.2053 0.0000 -6.2792 0.0000
# 4 0.0000 0.0000 0.0000 10.6751 0.0000 2.6201
# 5 -1.8523 -6.9536 -6.2792 0.0000 43.3154 0.0000
# 6 0.0000 0.0000 0.0000 2.6201 0.0000 30.1969
#
#
#
# Elastic Compliance Matrix: (Units=1/GPa)
#
#
# Indices 1 2 3 4 5 6 
#
# 1 0.017754 -0.000368 -0.009607 0.000000 -0.000692 0.000000
# 2 -0.000368 0.017329 -0.004550 0.000000 0.002107 0.000000
# 3 -0.009607 -0.004550 0.017219 0.000000 0.001355 0.000000
# 4 0.000000 0.000000 0.000000 0.095715 0.000000 -0.008305
# 5 -0.000692 0.002107 0.001355 0.000000 0.023591 0.000000
# 6 0.000000 0.000000 0.000000 -0.008305 0.000000 0.033837
#
#
# Mechanical properties :
#
#
# Convention : Reuss Voigt Hill
#
# Bulk Modulus (GPa) = 43.00634 47.89876 45.45255
# Shear Modulus (GPa) = 20.64034 26.90702 23.77368
#
# Velocity S-wave (km/s) = 3.15774 3.60538 3.38896
# Velocity P-wave (km/s) = 5.83707 6.36172 6.10504
#
# Compressibility (1/GPa) = 0.02325238
#
# Stress axis : x y z
#
# Youngs Moduli (GPa) = 56.32629 57.70803 58.07509
#
# Poissons Ratio (x) = 0.02122 0.55791
# Poissons Ratio (y) = 0.02071 0.26425
# Poissons Ratio (z) = 0.54111 0.26258
#
# Static dielectric constant tensor:
#      x y z
#    x 1.862860 0.000000 -0.022610 
#    y 0.000000 1.768820 0.000000 
#    z -0.022610 0.000000 1.766570 
# 
# From -- ./inp_files/139578.got.cif
#   From: 2010.05.17/outbox.cif.g08.bks.cpg/sg15_70_cif.got.tgz:139578.got - 2010.06.03 18:47:42.
