data_PCOD9266998
_publ_section_title
;
Structure prediction by ZEFSAII (Michael W. Deem and Ramdas Pophale) SiO2 
 PCOD9266998
Probable space group: C 2/C
;
_chemical_formula_sum "Si O2"
_cell_formula_units_Z 48
_cell_length_a 19.753970
_cell_length_b 7.618841
_cell_length_c 15.151711
_cell_angle_alpha 90.000000
_cell_angle_beta 105.748280
_cell_angle_gamma 90.000000
_cell_volume 2194.770907
_symmetry_space_group_name_H-M "C 2/C"
_symmetry_group_IT_number 15
_symmetry_cell_setting 'monoclinic'
loop_
_space_group_symop_operation_xyz
x,y,z
-x,y,1/2-z
-x,-y,-z
x,-y,1/2+z
1/2+x,1/2+y,z
1/2-x,1/2+y,1/2-z
1/2-x,1/2-y,-z
1/2+x,1/2-y,1/2+z
loop_
_atom_site_type_symbol
_atom_site_label
_atom_site_fract_x
_atom_site_fract_y
_atom_site_fract_z
Si Si1 0.178470 0.897211 0.572722
Si Si2 0.283805 0.795456 0.918819
Si Si3 0.802243 0.881168 0.131046
Si Si4 0.559944 0.299156 0.211668
Si Si5 0.026278 0.115364 0.091526
Si Si6 0.065076 0.371510 0.519806
O O1 0.174219 0.897443 0.463846
O O2 0.241883 0.766444 0.616988
O O3 0.105205 0.830733 0.589794
O O4 0.194041 0.100601 0.608174
O O5 0.353506 0.910753 0.964714
O O6 0.230277 0.929041 0.852127
O O7 0.250000 0.750000 0.000000
O O8 0.867865 0.817838 0.211036
O O9 0.500000 0.211286 0.250000
O O10 0.533731 0.493593 0.177518
O O11 0.566490 0.207865 0.119296
O O12 0.962303 0.250791 0.070622
O O13 0.000000 0.000000 0.000000
O O14 0.000000 0.500000 0.500000
#
# Coordination Sequence:
#
# PCOD9266998 Si02
#       6
#     8   8   8   8   8   8
#     4  10  19  40  63  89 124 175 204 257 322 398
#     4  10  21  37  64  93 119 169 216 261 315 403
#     4  10  22  37  62  94 129 159 213 264 324 377
#     4  11  24  40  64  93 125 167 216 276 323 382
#     4  10  19  38  64  81 120 167 210 244 318 385
#     4  11  23  43  66  93 128 172 221 264 333 403
#
# _framework density 21.870165
#
# number of rings (size 3 to 8) (size 9 to 14) (size 15 to 20)
#    0.000    1.667    3.333    3.000    2.333    4.000 
#    3.000    0.833    0.000    0.000    0.000    0.000 
#    0.000    0.000    0.000    0.000    0.000    0.000 
#
# Total GULP energy -133751.204912 kJ/mol
# GULP energy per Si atom -5572.966871 kJ/mol
# Density = 2.182039 g / cm^3
# Si number density = 21.870165 Si / 1000 Ang^3
#
#
#
# Elastic Constant Matrix: (Units=GPa)
#
#
# Indices 1 2 3 4 5 6 
#
# 1 114.0401 8.4742 45.4096 0.0000 12.0540 0.0000
# 2 8.4742 55.3849 33.3302 0.0000 17.1974 0.0000
# 3 45.4096 33.3302 111.2878 0.0000 28.6477 0.0000
# 4 0.0000 0.0000 0.0000 22.3695 0.0000 9.2795
# 5 12.0540 17.1974 28.6477 0.0000 38.0170 0.0000
# 6 0.0000 0.0000 0.0000 9.2795 0.0000 29.6215
#
#
#
# Elastic Compliance Matrix: (Units=1/GPa)
#
#
# Indices 1 2 3 4 5 6 
#
# 1 0.010541 0.001282 -0.004560 0.000000 -0.000486 0.000000
# 2 0.001282 0.023423 -0.005839 0.000000 -0.006602 0.000000
# 3 -0.004560 -0.005839 0.014321 0.000000 -0.006704 0.000000
# 4 0.000000 0.000000 0.000000 0.051381 0.000000 -0.016096
# 5 -0.000486 -0.006602 -0.006704 0.000000 0.034497 0.000000
# 6 0.000000 0.000000 0.000000 -0.016096 0.000000 0.038802
#
#
# Mechanical properties :
#
#
# Convention : Reuss Voigt Hill
#
# Bulk Modulus (GPa) = 33.27581 50.57121 41.92351
# Shear Modulus (GPa) = 24.84917 30.90152 27.87535
#
# Velocity S-wave (km/s) = 3.37443 3.76300 3.57400
# Velocity P-wave (km/s) = 5.51639 6.48489 6.02015
#
# Compressibility (1/GPa) = 0.03005186
#
# Stress axis : x y z
#
# Youngs Moduli (GPa) = 94.87093 42.69293 69.82827
#
# Poissons Ratio (x) = -0.05474 0.31841
# Poissons Ratio (y) = -0.12165 0.40771
# Poissons Ratio (z) = 0.43260 0.24927
#
# Static dielectric constant tensor:
#      x y z
#    x 1.937650 0.000000 0.035930 
#    y 0.000000 2.090500 0.000000 
#    z 0.035930 0.000000 1.782420 
# 
# From -- ./inp_files/213539.got.cif
#   From: 2010.05.17/outbox.cif.g08.bks.cpg/sg15_107_cif.got.tgz:213539.got - 2010.06.03 18:47:42.
