data_PCOD9266792
_publ_section_title
;
Structure prediction by ZEFSAII (Michael W. Deem and Ramdas Pophale) SiO2 
 PCOD9266792
Probable space group: C 2/C
;
_chemical_formula_sum "Si O2"
_cell_formula_units_Z 56
_cell_length_a 14.013351
_cell_length_b 13.114535
_cell_length_c 22.998074
_cell_angle_alpha 90.000000
_cell_angle_beta 143.085496
_cell_angle_gamma 90.000000
_cell_volume 2538.563682
_symmetry_space_group_name_H-M "C 2/C"
_symmetry_group_IT_number 15
_symmetry_cell_setting 'monoclinic'
loop_
_space_group_symop_operation_xyz
x,y,z
-x,y,1/2-z
-x,-y,-z
x,-y,1/2+z
1/2+x,1/2+y,z
1/2-x,1/2+y,1/2-z
1/2-x,1/2-y,-z
1/2+x,1/2-y,1/2+z
loop_
_atom_site_type_symbol
_atom_site_label
_atom_site_fract_x
_atom_site_fract_y
_atom_site_fract_z
Si Si1 0.837316 0.905043 0.475104
Si Si2 0.028327 0.404387 0.170403
Si Si3 0.232742 0.265160 0.891475
Si Si4 0.000000 0.560405 0.250000
Si Si5 0.000000 0.091370 0.750000
Si Si6 0.372431 0.702723 0.329355
Si Si7 0.012304 0.121238 0.572275
Si Si8 0.776720 0.992940 0.230912
O O1 0.658334 0.899792 0.409693
O O2 0.952335 0.838007 0.570758
O O3 0.873937 0.866917 0.428002
O O4 0.904697 0.020104 0.510181
O O5 0.086290 0.484184 0.247647
O O6 0.102163 0.292631 0.204025
O O7 0.096061 0.453941 0.144182
O O8 0.292805 0.265451 0.852626
O O9 0.119992 0.364387 0.840663
O O10 0.116341 0.168616 0.842809
O O11 0.385781 0.285374 0.007112
O O12 0.874181 0.018872 0.720067
O O13 0.282718 0.606282 0.258959
O O14 0.121961 0.087294 0.679328
#
# Coordination Sequence:
#
# PCOD9266792 Si02
#       8
#     8   8   8   4   4   8   8   8
#     4   9  18  33  58  91 121 145 189 247 296 337
#     4  12  20  34  58  93 115 155 191 242 292 349
#     4  10  19  38  61  86 111 153 199 242 286 341
#     4  11  20  31  62  94 112 139 204 251 278 336
#     4  11  24  39  58  82 118 163 194 231 294 358
#     4  10  21  37  58  87 121 154 191 238 296 347
#     4   9  18  36  59  89 118 146 189 252 290 334
#     4  11  23  38  58  85 123 154 192 241 295 345
#
# _framework density 22.059719000000001
#
# number of rings (size 3 to 8) (size 9 to 14) (size 15 to 20)
#    0.000    1.714    4.286    2.143    0.000    1.143 
#    0.000    0.000    0.000    3.429    0.000    0.000 
#    0.000    0.000    0.000    0.000    0.000    0.000 
#
# Total GULP energy -156116.133988 kJ/mol
# GULP energy per Si atom -5575.576214 kJ/mol
# Density = 2.200951 g / cm^3
# Si number density = 22.059719 Si / 1000 Ang^3
#
#
#
# Elastic Constant Matrix: (Units=GPa)
#
#
# Indices 1 2 3 4 5 6 
#
# 1 96.7338 37.5816 -2.0093 0.0000 34.6604 0.0000
# 2 37.5816 70.4452 -0.2451 0.0000 9.8456 0.0000
# 3 -2.0093 -0.2451 31.5386 0.0000 24.2549 0.0000
# 4 0.0000 0.0000 0.0000 15.6959 0.0000 7.1487
# 5 34.6604 9.8456 24.2549 0.0000 35.6664 0.0000
# 6 0.0000 0.0000 0.0000 7.1487 0.0000 28.6072
#
#
#
# Elastic Compliance Matrix: (Units=1/GPa)
#
#
# Indices 1 2 3 4 5 6 
#
# 1 0.064591 -0.016229 0.102340 0.000000 -0.127886 0.000000
# 2 -0.016229 0.019575 -0.018563 0.000000 0.022991 0.000000
# 3 0.102340 -0.018563 0.231922 0.000000 -0.252048 0.000000
# 4 0.000000 0.000000 0.000000 0.071893 0.000000 -0.017965
# 5 -0.127886 0.022991 -0.252048 0.000000 0.317375 0.000000
# 6 0.000000 0.000000 0.000000 -0.017965 0.000000 0.039446
#
#
# Mechanical properties :
#
#
# Convention : Reuss Voigt Hill
#
# Bulk Modulus (GPa) = 2.21639 29.93023 16.07331
# Shear Modulus (GPa) = 6.57807 26.88660 16.73234
#
# Velocity S-wave (km/s) = 1.72870 3.49493 2.75708
# Velocity P-wave (km/s) = 2.23416 5.46657 4.17581
#
# Compressibility (1/GPa) = 0.45118411
#
# Stress axis : x y z
#
# Youngs Moduli (GPa) = 15.48208 51.08477 4.31180
#
# Poissons Ratio (x) = 0.82904 -0.44127
# Poissons Ratio (y) = 0.25125 0.08004
# Poissons Ratio (z) = -1.58444 0.94831
#
# Static dielectric constant tensor:
#      x y z
#    x 1.872760 0.000000 -0.008170 
#    y 0.000000 1.806510 0.000000 
#    z -0.008170 0.000000 1.862630 
# 
# From -- ./inp_files/205045.got.cif
#   From: 2010.05.17/outbox.cif.g08.bks.cpg/sg15_103_cif.got.tgz:205045.got - 2010.06.03 18:47:42.
