data_PCOD9266055
_publ_section_title
;
Structure prediction by ZEFSAII (Michael W. Deem and Ramdas Pophale) SiO2 
 PCOD9266055
Probable space group: C 2/C
;
_chemical_formula_sum "Si O2"
_cell_formula_units_Z 60
_cell_length_a 28.340991
_cell_length_b 20.684720
_cell_length_c 14.604433
_cell_angle_alpha 90.000000
_cell_angle_beta 21.719749
_cell_angle_gamma 90.000000
_cell_volume 3168.325050
_symmetry_space_group_name_H-M "C 2/C"
_symmetry_group_IT_number 15
_symmetry_cell_setting 'monoclinic'
loop_
_space_group_symop_operation_xyz
x,y,z
-x,y,1/2-z
-x,-y,-z
x,-y,1/2+z
1/2+x,1/2+y,z
1/2-x,1/2+y,1/2-z
1/2-x,1/2-y,-z
1/2+x,1/2-y,1/2+z
loop_
_atom_site_type_symbol
_atom_site_label
_atom_site_fract_x
_atom_site_fract_y
_atom_site_fract_z
Si Si1 0.000000 0.464672 0.750000
Si Si2 0.465043 0.176344 0.707089
Si Si3 0.063461 0.452814 0.958344
Si Si4 0.052888 0.047801 0.552385
Si Si5 0.310695 0.630836 0.335653
Si Si6 0.298659 0.523022 0.488836
Si Si7 0.225155 0.926519 0.266910
Si Si8 0.519969 0.678273 0.104088
O O1 0.029521 0.511962 0.613518
O O2 0.128493 0.422951 0.527177
O O3 0.500000 0.161540 0.750000
O O4 0.520279 0.120385 0.543018
O O5 0.528688 0.245211 0.570544
O O6 0.310700 0.174491 0.972647
O O7 0.212094 0.461755 0.668824
O O8 0.000000 0.500000 0.000000
O O9 0.101593 0.108870 0.407621
O O10 0.000000 0.062469 0.750000
O O11 0.169198 0.997071 0.344147
O O12 0.938206 0.004712 0.718091
O O13 0.255181 0.564878 0.480901
O O14 0.404093 0.656891 0.246896
O O15 0.289358 0.569392 0.595606
O O16 0.138991 0.870488 0.377855
O O17 0.500000 0.673427 0.250000
#
# Coordination Sequence:
#
# PCOD9266055 Si02
#       8
#     4   8   8   8   8   8   8   8
#     4  10  22  34  58  98 122 158 198 260 316 366
#     4  11  25  40  60  92 127 167 205 256 310 365
#     4  11  21  36  59  91 124 153 203 257 315 363
#     4  10  21  34  58  95 129 158 204 262 313 368
#     4  12  21  38  63  95 120 164 210 258 314 358
#     4  10  20  33  59  92 123 157 199 261 308 365
#     4  10  19  37  59  90 131 157 203 252 312 364
#     4  11  22  40  64  91 124 163 211 257 296 375
#
# _framework density 18.937450999999999
#
# number of rings (size 3 to 8) (size 9 to 14) (size 15 to 20)
#    0.000    1.333    4.667    2.000    3.733    0.000 
#    0.000    0.000    0.000    6.400    1.733    0.000 
#    0.000    0.000    0.000    0.000    0.000    0.000 
#
# Total GULP energy -167212.097195 kJ/mol
# GULP energy per Si atom -5573.736573 kJ/mol
# Density = 1.889435 g / cm^3
# Si number density = 18.937451 Si / 1000 Ang^3
#
#
#
# Elastic Constant Matrix: (Units=GPa)
#
#
# Indices 1 2 3 4 5 6 
#
# 1 69.8238 25.0019 36.6820 0.0005 -9.1903 -0.0002
# 2 25.0019 92.1993 38.0675 0.0008 -3.3787 -0.0005
# 3 36.6820 38.0675 86.7985 0.0010 -21.8811 -0.0007
# 4 0.0005 0.0008 0.0010 16.8948 -0.0006 0.5030
# 5 -9.1903 -3.3787 -21.8811 -0.0006 31.7886 0.0004
# 6 -0.0002 -0.0005 -0.0007 0.5030 0.0004 22.7851
#
#
#
# Elastic Compliance Matrix: (Units=1/GPa)
#
#
# Indices 1 2 3 4 5 6 
#
# 1 0.018779 -0.002258 -0.006822 0.000000 0.000494 0.000000
# 2 -0.002258 0.013779 -0.005910 0.000000 -0.003256 0.000000
# 3 -0.006822 -0.005910 0.019771 0.000000 0.011009 0.000000
# 4 0.000000 0.000000 0.000000 0.059229 0.000001 -0.001307
# 5 0.000494 -0.003256 0.011009 0.000001 0.038832 0.000000
# 6 0.000000 0.000000 0.000000 -0.001307 0.000000 0.043917
#
#
# Mechanical properties :
#
#
# Convention : Reuss Voigt Hill
#
# Bulk Modulus (GPa) = 44.74149 49.81381 47.27765
# Shear Modulus (GPa) = 21.57637 24.23172 22.90405
#
# Velocity S-wave (km/s) = 3.37909 3.58098 3.48150
# Velocity P-wave (km/s) = 6.23711 6.59238 6.41720
#
# Compressibility (1/GPa) = 0.02235062
#
# Stress axis : x y z
#
# Youngs Moduli (GPa) = 53.25137 72.57400 50.57951
#
# Poissons Ratio (x) = 0.16385 0.34503
# Poissons Ratio (y) = 0.12023 0.29892
# Poissons Ratio (z) = 0.36326 0.42890
#
# Static dielectric constant tensor:
#      x y z
#    x 1.728090 0.000000 -0.049210 
#    y 0.000000 1.660100 0.000000 
#    z -0.049210 0.000000 1.702540 
# 
# From -- ./inp_files/183053.got.cif
#   From: 2010.05.17/outbox.cif.g08.bks.cpg/sg15_92_cif.got.tgz:183053.got - 2010.06.03 18:47:42.
