data_PCOD9266208
_publ_section_title
;
Structure prediction by ZEFSAII (Michael W. Deem and Ramdas Pophale) SiO2 
 PCOD9266208
Probable space group: C 2/C
;
_chemical_formula_sum "Si O2"
_cell_formula_units_Z 60
_cell_length_a 14.260346
_cell_length_b 7.538442
_cell_length_c 23.315509
_cell_angle_alpha 90.000000
_cell_angle_beta 82.576759
_cell_angle_gamma 90.000000
_cell_volume 2485.428820
_symmetry_space_group_name_H-M "C 2/C"
_symmetry_group_IT_number 15
_symmetry_cell_setting 'monoclinic'
loop_
_space_group_symop_operation_xyz
x,y,z
-x,y,1/2-z
-x,-y,-z
x,-y,1/2+z
1/2+x,1/2+y,z
1/2-x,1/2+y,1/2-z
1/2-x,1/2-y,-z
1/2+x,1/2-y,1/2+z
loop_
_atom_site_type_symbol
_atom_site_label
_atom_site_fract_x
_atom_site_fract_y
_atom_site_fract_z
Si Si1 0.207612 0.019823 0.816127
Si Si2 0.041599 0.904062 0.411000
Si Si3 0.068313 0.493108 0.408310
Si Si4 0.500000 0.995071 0.750000
Si Si5 0.868612 0.917285 0.974362
Si Si6 0.889260 0.494721 0.864660
Si Si7 0.334625 0.008588 0.488359
Si Si8 0.684737 0.115956 0.800704
O O1 0.297945 0.092038 0.844927
O O2 0.208908 0.808780 0.821250
O O3 0.107898 0.073220 0.850422
O O4 0.231391 0.059297 0.748175
O O5 0.033052 0.693386 0.418091
O O6 0.097039 0.964341 0.463868
O O7 0.943604 0.008112 0.423059
O O8 0.095251 0.421459 0.468209
O O9 0.157542 0.497122 0.358654
O O10 0.980127 0.400446 0.383730
O O11 0.586862 0.104493 0.771289
O O12 0.443386 0.898323 0.806721
O O13 0.768565 0.012639 0.976845
O O14 0.853042 0.703936 0.976519
O O15 0.844920 0.406593 0.925011
#
# Coordination Sequence:
#
# PCOD9266208 Si02
#       8
#     8   8   8   4   8   8   8   8
#     4  11  22  40  66  87 123 158 208 250 310 370
#     4  10  20  38  58  87 121 163 202 254 304 356
#     4  10  22  38  60  90 128 157 203 254 305 364
#     4   8  20  38  60  82 116 154 208 242 298 372
#     4   9  20  35  58  86 123 162 207 247 298 361
#     4  10  20  38  60  89 121 164 194 252 315 357
#     4  10  19  37  61  90 121 165 206 252 300 370
#     4  10  22  41  61  92 116 163 203 256 308 371
#
# _framework density 24.140702999999998
#
# number of rings (size 3 to 8) (size 9 to 14) (size 15 to 20)
#    0.000    2.133    1.333    1.200    3.733    1.067 
#    2.400    2.667    0.000    0.000    0.000    0.000 
#    0.000    0.000    0.000    0.000    0.000    0.000 
#
# Total GULP energy -167227.850005 kJ/mol
# GULP energy per Si atom -5574.261667 kJ/mol
# Density = 2.408576 g / cm^3
# Si number density = 24.140703 Si / 1000 Ang^3
#
#
#
# Elastic Constant Matrix: (Units=GPa)
#
#
# Indices 1 2 3 4 5 6 
#
# 1 95.0869 12.3901 61.6786 0.0000 -33.5398 0.0000
# 2 12.3901 57.5935 16.4595 0.0000 -13.0003 0.0000
# 3 61.6786 16.4595 168.5705 0.0000 -37.3510 0.0000
# 4 0.0000 0.0000 0.0000 23.8433 0.0000 -11.6702
# 5 -33.5398 -13.0003 -37.3510 0.0000 53.5937 0.0000
# 6 0.0000 0.0000 0.0000 -11.6702 0.0000 15.9733
#
#
#
# Elastic Compliance Matrix: (Units=1/GPa)
#
#
# Indices 1 2 3 4 5 6 
#
# 1 0.015696 -0.000658 -0.004184 0.000000 0.006748 0.000000
# 2 -0.000658 0.018527 -0.000785 0.000000 0.003535 0.000000
# 3 -0.004184 -0.000785 0.008181 0.000000 0.002893 0.000000
# 4 0.000000 0.000000 0.000000 0.065287 0.000000 0.047699
# 5 0.006748 0.003535 0.002893 0.000000 0.025755 0.000000
# 6 0.000000 0.000000 0.000000 0.047699 0.000000 0.097453
#
#
# Mechanical properties :
#
#
# Convention : Reuss Voigt Hill
#
# Bulk Modulus (GPa) = 32.10220 55.81192 43.95706
# Shear Modulus (GPa) = 19.79915 34.06358 26.93136
#
# Velocity S-wave (km/s) = 2.86694 3.76046 3.34368
# Velocity P-wave (km/s) = 4.92808 6.48262 5.75805
#
# Compressibility (1/GPa) = 0.03115051
#
# Stress axis : x y z
#
# Youngs Moduli (GPa) = 63.70905 53.97539 122.23985
#
# Poissons Ratio (x) = 0.03551 0.51143
# Poissons Ratio (y) = 0.04192 0.09595
# Poissons Ratio (z) = 0.26655 0.04237
#
# Static dielectric constant tensor:
#      x y z
#    x 2.000320 0.000000 -0.006100 
#    y 0.000000 1.906590 0.000000 
#    z -0.006100 0.000000 1.979930 
# 
# From -- ./inp_files/273118.got.cif
#   From: 2010.05.17/outbox.cif.g08.bks.cpg/sg15_137_cif.got.tgz:273118.got - 2010.06.03 18:47:42.
