data_PCOD9266614
_publ_section_title
;
Structure prediction by ZEFSAII (Michael W. Deem and Ramdas Pophale) SiO2 
 PCOD9266614
Probable space group: C 2/C
;
_chemical_formula_sum "Si O2"
_cell_formula_units_Z 48
_cell_length_a 15.186737
_cell_length_b 18.602923
_cell_length_c 9.519911
_cell_angle_alpha 90.000000
_cell_angle_beta 79.476022
_cell_angle_gamma 90.000000
_cell_volume 2644.301350
_symmetry_space_group_name_H-M "C 2/C"
_symmetry_group_IT_number 15
_symmetry_cell_setting 'monoclinic'
loop_
_space_group_symop_operation_xyz
x,y,z
-x,y,1/2-z
-x,-y,-z
x,-y,1/2+z
1/2+x,1/2+y,z
1/2-x,1/2+y,1/2-z
1/2-x,1/2-y,-z
1/2+x,1/2-y,1/2+z
loop_
_atom_site_type_symbol
_atom_site_label
_atom_site_fract_x
_atom_site_fract_y
_atom_site_fract_z
Si Si1 0.932452 0.652110 0.394106
Si Si2 0.950104 0.412567 0.410518
Si Si3 0.707993 0.814258 0.101657
Si Si4 0.325928 0.742429 0.094831
Si Si5 0.260906 0.038827 0.024760
Si Si6 0.259107 0.590935 0.153965
O O1 0.910856 0.720894 0.497723
O O2 0.839862 0.622459 0.354607
O O3 0.000000 0.669652 0.250000
O O4 0.981329 0.596146 0.483097
O O5 0.892959 0.337848 0.412674
O O6 0.868406 0.465883 0.468178
O O7 0.000000 0.428153 0.250000
O O8 0.702523 0.789757 0.263246
O O9 0.761867 0.887903 0.054072
O O10 0.750000 0.750000 0.000000
O O11 0.325769 0.658895 0.136363
O O12 0.250000 0.750000 0.000000
O O13 0.218793 0.968145 0.970290
O O14 0.244384 0.053434 0.192966
#
# Coordination Sequence:
#
# PCOD9266614 Si02
#       6
#     8   8   8   8   8   8
#     4  11  20  37  54  82 115 147 191 232 285 329
#     4  10  20  34  53  80 110 147 184 224 285 333
#     4  10  19  38  55  76 109 147 192 235 271 332
#     4  10  21  35  57  77 113 147 195 234 271 330
#     4  10  23  34  53  80 116 147 189 217 288 336
#     4  11  23  37  52  83 118 155 182 227 281 347
#
# _framework density 18.152242000000001
#
# number of rings (size 3 to 8) (size 9 to 14) (size 15 to 20)
#    1.000    0.667    5.000    0.000    9.333    1.333 
#    0.000    0.000    0.000    0.000    0.000    5.833 
#    0.000    0.000    0.000    0.000    0.000    0.000 
#
# Total GULP energy -133713.469809 kJ/mol
# GULP energy per Si atom -5571.394575 kJ/mol
# Density = 1.811093 g / cm^3
# Si number density = 18.152242 Si / 1000 Ang^3
#
#
#
# Elastic Constant Matrix: (Units=GPa)
#
#
# Indices 1 2 3 4 5 6 
#
# 1 7.5185 6.9359 6.4808 0.0000 8.2869 0.0000
# 2 6.9359 73.5769 20.8296 0.0000 5.0596 0.0000
# 3 6.4808 20.8296 126.2569 0.0000 2.6069 0.0000
# 4 0.0000 0.0000 0.0000 27.9263 0.0000 8.7407
# 5 8.2869 5.0596 2.6069 0.0000 21.0162 0.0000
# 6 0.0000 0.0000 0.0000 8.7407 0.0000 22.6344
#
#
#
# Elastic Compliance Matrix: (Units=1/GPa)
#
#
# Indices 1 2 3 4 5 6 
#
# 1 0.264860 -0.015581 -0.008969 0.000000 -0.099573 0.000000
# 2 -0.015581 0.015385 -0.001793 0.000000 0.002662 0.000000
# 3 -0.008969 -0.001793 0.008617 0.000000 0.002899 0.000000
# 4 0.000000 0.000000 0.000000 0.040732 0.000000 -0.015729
# 5 -0.099573 0.002662 0.002899 0.000000 0.085844 0.000000
# 6 0.000000 0.000000 0.000000 -0.015729 0.000000 0.050255
#
#
# Mechanical properties :
#
#
# Convention : Reuss Voigt Hill
#
# Bulk Modulus (GPa) = 4.23415 30.64941 17.44178
# Shear Modulus (GPa) = 8.37375 25.85576 17.11476
#
# Velocity S-wave (km/s) = 2.15014 3.77820 3.07391
# Velocity P-wave (km/s) = 2.91578 5.99619 4.71466
#
# Compressibility (1/GPa) = 0.23617469
#
# Stress axis : x y z
#
# Youngs Moduli (GPa) = 3.77558 64.99998 116.05344
#
# Poissons Ratio (x) = 1.01278 1.04086
# Poissons Ratio (y) = 0.05883 0.20812
# Poissons Ratio (z) = 0.03386 0.11656
#
# Static dielectric constant tensor:
#      x y z
#    x 1.653250 0.000000 0.027150 
#    y 0.000000 1.703520 0.000000 
#    z 0.027150 0.000000 1.626140 
# 
# From -- ./inp_files/105904.got.cif
#   From: 2010.05.17/outbox.cif.g08.bks.cpg/sg15_53_cif.got.tgz:105904.got - 2010.06.03 18:47:42.
