data_PCOD9266837
_publ_section_title
;
Structure prediction by ZEFSAII (Michael W. Deem and Ramdas Pophale) SiO2 
 PCOD9266837
Probable space group: C 2/C
;
_chemical_formula_sum "Si O2"
_cell_formula_units_Z 32
_cell_length_a 10.565825
_cell_length_b 9.505216
_cell_length_c 18.624099
_cell_angle_alpha 90.000000
_cell_angle_beta 37.802832
_cell_angle_gamma 90.000000
_cell_volume 1146.470719
_symmetry_space_group_name_H-M "C 2/C"
_symmetry_group_IT_number 15
_symmetry_cell_setting 'monoclinic'
loop_
_space_group_symop_operation_xyz
x,y,z
-x,y,1/2-z
-x,-y,-z
x,-y,1/2+z
1/2+x,1/2+y,z
1/2-x,1/2+y,1/2-z
1/2-x,1/2-y,-z
1/2+x,1/2-y,1/2+z
loop_
_atom_site_type_symbol
_atom_site_label
_atom_site_fract_x
_atom_site_fract_y
_atom_site_fract_z
Si Si1 0.250000 0.250000 0.500000
Si Si2 0.500000 0.207645 0.250000
Si Si3 0.974298 0.551644 0.910210
Si Si4 0.825999 0.190726 0.549344
Si Si5 0.345356 0.492973 0.666821
O O1 0.389857 0.288259 0.364198
O O2 0.132068 0.402274 0.548305
O O3 0.319572 0.105247 0.301013
O O4 0.902595 0.645462 0.871957
O O5 0.220894 0.534729 0.793087
O O6 0.896725 0.649993 0.009404
O O7 0.954160 0.102077 0.431670
O O8 0.891266 0.129893 0.596964
#
# Coordination Sequence:
#
# PCOD9266837 Si02
#       5
#     4   4   8   8   8
#     4  10  20  40  62  86 128 166 208 268 334 386
#     4  10  20  40  60  88 128 178 206 272 338 396
#     4  10  21  39  62  90 122 168 216 268 326 397
#     4  10  20  37  62  88 115 170 220 258 332 391
#     4  10  19  38  62  83 130 169 210 273 335 386
#
# _framework density 27.911747999999999
#
# number of rings (size 3 to 8) (size 9 to 14) (size 15 to 20)
#    0.000    2.000    5.000    0.000    0.000    4.000 
#    9.000    1.250    0.000    0.000    0.000    0.000 
#    0.000    0.000    0.000    0.000    0.000    0.000 
#
# Total GULP energy -89143.293364 kJ/mol
# GULP energy per Si atom -5571.455835 kJ/mol
# Density = 2.784822 g / cm^3
# Si number density = 27.911748 Si / 1000 Ang^3
#
#
#
# Elastic Constant Matrix: (Units=GPa)
#
#
# Indices 1 2 3 4 5 6 
#
# 1 52.5383 5.0099 12.3171 0.0000 13.5391 0.0000
# 2 5.0099 168.5145 74.8531 0.0000 15.3322 0.0000
# 3 12.3171 74.8531 205.7490 0.0000 18.9680 0.0000
# 4 0.0000 0.0000 0.0000 42.8962 0.0000 18.3545
# 5 13.5391 15.3322 18.9680 0.0000 38.3143 0.0000
# 6 0.0000 0.0000 0.0000 18.3545 0.0000 28.2116
#
#
#
# Elastic Compliance Matrix: (Units=1/GPa)
#
#
# Indices 1 2 3 4 5 6 
#
# 1 0.021029 0.000352 -0.000722 0.000000 -0.007214 0.000000
# 2 0.000352 0.007183 -0.002470 0.000000 -0.001776 0.000000
# 3 -0.000722 -0.002470 0.005960 0.000000 -0.001707 0.000000
# 4 0.000000 0.000000 0.000000 0.032305 0.000000 -0.021018
# 5 -0.007214 -0.001776 -0.001707 0.000000 0.030205 0.000000
# 6 0.000000 0.000000 0.000000 -0.021018 0.000000 0.049120
#
#
# Mechanical properties :
#
#
# Convention : Reuss Voigt Hill
#
# Bulk Modulus (GPa) = 35.10014 67.90690 51.50352
# Shear Modulus (GPa) = 31.06003 44.19255 37.62629
#
# Velocity S-wave (km/s) = 3.33948 3.98338 3.67556
# Velocity P-wave (km/s) = 5.24139 6.74821 6.04196
#
# Compressibility (1/GPa) = 0.02848991
#
# Stress axis : x y z
#
# Youngs Moduli (GPa) = 47.55450 139.22410 167.79582
#
# Poissons Ratio (x) = -0.04898 0.12111
# Poissons Ratio (y) = -0.01673 0.41454
# Poissons Ratio (z) = 0.03432 0.34395
#
# Static dielectric constant tensor:
#      x y z
#    x 2.429920 0.000000 -0.071060 
#    y 0.000000 1.929300 0.000000 
#    z -0.071060 0.000000 2.273190 
# 
# From -- ./inp_files/93473.got.cif
#   From: 2010.05.17/outbox.cif.g08.bks.cpg/sg15_47_cif.got.tgz:93473.got - 2010.06.03 18:47:42.
