data_PCOD9266323
_publ_section_title
;
Structure prediction by ZEFSAII (Michael W. Deem and Ramdas Pophale) SiO2 
 PCOD9266323
Probable space group: C 2/C
;
_chemical_formula_sum "Si O2"
_cell_formula_units_Z 52
_cell_length_a 16.480359
_cell_length_b 14.556688
_cell_length_c 25.270343
_cell_angle_alpha 90.000000
_cell_angle_beta 23.057706
_cell_angle_gamma 90.000000
_cell_volume 2374.364599
_symmetry_space_group_name_H-M "C 2/C"
_symmetry_group_IT_number 15
_symmetry_cell_setting 'monoclinic'
loop_
_space_group_symop_operation_xyz
x,y,z
-x,y,1/2-z
-x,-y,-z
x,-y,1/2+z
1/2+x,1/2+y,z
1/2-x,1/2+y,1/2-z
1/2-x,1/2-y,-z
1/2+x,1/2-y,1/2+z
loop_
_atom_site_type_symbol
_atom_site_label
_atom_site_fract_x
_atom_site_fract_y
_atom_site_fract_z
Si Si1 0.046367 0.599010 0.521602
Si Si2 0.000000 0.360099 0.250000
Si Si3 0.978643 0.993133 0.427470
Si Si4 0.359834 0.522607 0.785192
Si Si5 0.695164 0.853262 0.660998
Si Si6 0.429807 0.012521 0.695255
Si Si7 0.057820 0.798161 0.512082
O O1 0.252695 0.575271 0.364879
O O2 0.030502 0.700115 0.556298
O O3 0.843873 0.582040 0.607117
O O4 0.039579 0.526859 0.573781
O O5 0.028707 0.425272 0.181538
O O6 0.800881 0.301394 0.354345
O O7 0.972898 0.102304 0.442488
O O8 0.005878 0.980291 0.348805
O O9 0.190353 0.958577 0.328773
O O10 0.797886 0.933111 0.562612
O O11 0.500000 0.552968 0.750000
O O12 0.500000 0.805831 0.750000
O O13 0.889580 0.796878 0.565883
O O14 0.591051 0.908805 0.772098
#
# Coordination Sequence:
#
# PCOD9266323 Si02
#       7
#     8   4   8   8   8   8   8
#     4  10  25  43  59  91 126 162 202 251 300 376
#     4  12  20  34  62  94 126 156 198 262 302 362
#     4  10  20  41  62  91 122 160 207 255 303 360
#     4  10  24  44  66  82 120 172 209 238 303 376
#     4  11  20  38  67  94 118 158 208 258 308 357
#     4  10  19  37  63  85 126 159 198 250 308 359
#     4  11  23  38  62  97 123 155 202 259 313 350
#
# _framework density 21.900597000000001
#
# number of rings (size 3 to 8) (size 9 to 14) (size 15 to 20)
#    0.000    1.538    3.846    0.923    5.385    2.462 
#    0.000    0.000    0.000    2.769    0.000    0.000 
#    0.000    0.000    0.000    0.000    0.000    0.000 
#
# Total GULP energy -144974.073270 kJ/mol
# GULP energy per Si atom -5575.925895 kJ/mol
# Density = 2.185075 g / cm^3
# Si number density = 21.900597 Si / 1000 Ang^3
#
#
#
# Elastic Constant Matrix: (Units=GPa)
#
#
# Indices 1 2 3 4 5 6 
#
# 1 121.8280 10.4440 41.6256 0.0289 -16.3119 0.0012
# 2 10.4440 61.0862 17.7541 0.0461 8.9249 0.0000
# 3 41.6256 17.7541 64.0696 -0.0394 -24.4494 -0.0033
# 4 0.0289 0.0461 -0.0394 -0.7819 0.0226 3.3666
# 5 -16.3119 8.9249 -24.4494 0.0226 50.7248 0.0064
# 6 0.0012 0.0000 -0.0033 3.3666 0.0064 6.0684
#
#
#
# Elastic Compliance Matrix: (Units=1/GPa)
#
#
# Indices 1 2 3 4 5 6 
#
# 1 0.010553 0.000195 -0.006896 0.000214 0.000035 -0.000124
# 2 0.000195 0.019919 -0.008528 0.000415 -0.007553 -0.000227
# 3 -0.006896 -0.008528 0.027177 -0.000518 0.012382 0.000290
# 4 0.000214 0.000415 -0.000518 -0.377396 -0.000112 0.209373
# 5 0.000035 -0.007553 0.012382 -0.000112 0.027023 0.000040
# 6 -0.000124 -0.000227 0.000290 0.209373 0.000040 0.048631
#
#
# Mechanical properties :
#
#
# Convention : Reuss Voigt Hill
#
# Bulk Modulus (GPa) = 36.78026 42.95903 39.86964
# Shear Modulus (GPa) = -24.44124 23.01294 -0.71415
#
# Velocity S-wave (km/s) = -3.34429 3.24511 -0.57166
# Velocity P-wave (km/s) = 1.38500 5.80508 4.22003
#
# Compressibility (1/GPa) = 0.02718850
#
# Stress axis : x y z
#
# Youngs Moduli (GPa) = 94.76372 50.20391 36.79635
#
# Poissons Ratio (x) = -0.00979 0.25376
# Poissons Ratio (y) = -0.01847 0.31381
# Poissons Ratio (z) = 0.65353 0.42815
#
# Static dielectric constant tensor:
#      x y z
#    x 1.816190 -0.000020 -0.030780 
#    y -0.000020 1.798190 0.000110 
#    z -0.030780 0.000110 1.878900 
# 
# From -- ./inp_files/316424.got.cif
#   From: 2010.05.17/outbox.cif.g08.bks.cpg/sg15_159_cif.got.tgz:316424.got - 2010.06.03 18:47:42.
