data_PCOD9266548
_publ_section_title
;
Structure prediction by ZEFSAII (Michael W. Deem and Ramdas Pophale) SiO2 
 PCOD9266548
Probable space group: C 2/C
;
_chemical_formula_sum "Si O2"
_cell_formula_units_Z 48
_cell_length_a 17.225165
_cell_length_b 7.925417
_cell_length_c 31.589094
_cell_angle_alpha 90.000000
_cell_angle_beta 150.167502
_cell_angle_gamma 90.000000
_cell_volume 2145.290711
_symmetry_space_group_name_H-M "C 2/C"
_symmetry_group_IT_number 15
_symmetry_cell_setting 'monoclinic'
loop_
_space_group_symop_operation_xyz
x,y,z
-x,y,1/2-z
-x,-y,-z
x,-y,1/2+z
1/2+x,1/2+y,z
1/2-x,1/2+y,1/2-z
1/2-x,1/2-y,-z
1/2+x,1/2-y,1/2+z
loop_
_atom_site_type_symbol
_atom_site_label
_atom_site_fract_x
_atom_site_fract_y
_atom_site_fract_z
Si Si1 0.122422 0.789170 0.474573
Si Si2 0.189017 0.976559 0.587729
Si Si3 0.246919 0.312073 0.794522
Si Si4 0.850065 0.738712 0.608532
Si Si5 0.571063 0.488537 0.180830
Si Si6 0.046457 0.577332 0.926626
O O1 0.250000 0.750000 0.500000
O O2 0.199257 0.840264 0.554929
O O3 0.028391 0.614456 0.433346
O O4 0.026962 0.943039 0.408176
O O5 0.255140 0.915441 0.663500
O O6 0.287348 0.139154 0.619338
O O7 0.000000 0.000000 0.500000
O O8 0.274410 0.429059 0.766461
O O9 0.104763 0.186473 0.719606
O O10 0.399355 0.192007 0.868285
O O11 0.912901 0.602018 0.603894
O O12 0.698325 0.838574 0.519941
O O13 0.984652 0.880263 0.670446
#
# Coordination Sequence:
#
# PCOD9266548 Si02
#       6
#     8   8   8   8   8   8
#     4  12  21  38  73 102 135 185 233 278 346 428
#     4  12  22  42  71 109 138 175 242 304 342 410
#     4  11  24  43  71 102 141 183 244 299 352 417
#     4  10  19  38  68  99 137 180 227 286 350 420
#     4  11  23  43  70  98 141 191 231 287 372 427
#     4  10  19  37  67 101 132 183 231 278 344 426
#
# _framework density 22.374590999999999
#
# number of rings (size 3 to 8) (size 9 to 14) (size 15 to 20)
#    0.000    1.000    6.667    2.000    0.000    0.667 
#    0.000    0.833    3.667    0.000    0.000    0.000 
#    0.000    0.000    0.000    0.000    0.000    0.000 
#
# Total GULP energy -134148.126699 kJ/mol
# GULP energy per Si atom -5589.505279 kJ/mol
# Density = 2.232367 g / cm^3
# Si number density = 22.374591 Si / 1000 Ang^3
#
#
#
# Elastic Constant Matrix: (Units=GPa)
#
#
# Indices 1 2 3 4 5 6 
#
# 1 110.7590 47.4106 30.4444 0.0000 -12.2618 0.0002
# 2 47.4106 119.3864 23.4200 -0.0001 -9.0198 0.0003
# 3 30.4444 23.4200 51.3325 0.0000 -11.2800 0.0000
# 4 0.0000 -0.0001 0.0000 45.5800 0.0000 0.7128
# 5 -12.2618 -9.0198 -11.2800 0.0000 15.6010 0.0000
# 6 0.0002 0.0003 0.0000 0.7128 0.0000 46.1005
#
#
#
# Elastic Compliance Matrix: (Units=1/GPa)
#
#
# Indices 1 2 3 4 5 6 
#
# 1 0.012362 -0.003664 -0.004745 0.000000 0.004168 0.000000
# 2 -0.003664 0.010383 -0.002233 0.000000 0.001509 0.000000
# 3 -0.004745 -0.002233 0.026406 0.000000 0.014072 0.000000
# 4 0.000000 0.000000 0.000000 0.021945 0.000000 -0.000339
# 5 0.004168 0.001509 0.014072 0.000000 0.078421 0.000000
# 6 0.000000 0.000000 0.000000 -0.000339 0.000000 0.021697
#
#
# Mechanical properties :
#
#
# Convention : Reuss Voigt Hill
#
# Bulk Modulus (GPa) = 35.88183 53.78088 44.83135
# Shear Modulus (GPa) = 24.77873 33.46981 29.12427
#
# Velocity S-wave (km/s) = 3.33145 3.87186 3.61178
# Velocity P-wave (km/s) = 5.55605 6.63907 6.12156
#
# Compressibility (1/GPa) = 0.02786926
#
# Stress axis : x y z
#
# Youngs Moduli (GPa) = 80.89032 96.31028 37.87071
#
# Poissons Ratio (x) = 0.35285 0.17968
# Poissons Ratio (y) = 0.29636 0.08455
# Poissons Ratio (z) = 0.38379 0.21503
#
# Static dielectric constant tensor:
#      x y z
#    x 1.833090 0.000000 0.027830 
#    y 0.000000 1.977120 0.000000 
#    z 0.027830 0.000000 1.865440 
# 
# From -- ./inp_files/315776.got.cif
#   From: 2010.05.17/outbox.cif.g08.bks.cpg/sg15_158_cif.got.tgz:315776.got - 2010.06.03 18:47:42.
