data_PCOD9266096
_publ_section_title
;
Structure prediction by ZEFSAII (Michael W. Deem and Ramdas Pophale) SiO2 
 PCOD9266096
Probable space group: C 2/C
;
_chemical_formula_sum "Si O2"
_cell_formula_units_Z 56
_cell_length_a 13.676889
_cell_length_b 6.876906
_cell_length_c 23.241142
_cell_angle_alpha 90.000000
_cell_angle_beta 82.329382
_cell_angle_gamma 90.000000
_cell_volume 2166.377917
_symmetry_space_group_name_H-M "C 2/C"
_symmetry_group_IT_number 15
_symmetry_cell_setting 'monoclinic'
loop_
_space_group_symop_operation_xyz
x,y,z
-x,y,1/2-z
-x,-y,-z
x,-y,1/2+z
1/2+x,1/2+y,z
1/2-x,1/2+y,1/2-z
1/2-x,1/2-y,-z
1/2+x,1/2-y,1/2+z
loop_
_atom_site_type_symbol
_atom_site_label
_atom_site_fract_x
_atom_site_fract_y
_atom_site_fract_z
Si Si1 0.396114 0.812292 0.287415
Si Si2 0.186869 0.139863 0.384238
Si Si3 0.819016 0.201325 0.708355
Si Si4 0.882552 0.228731 0.822609
Si Si5 0.963051 0.249660 0.401821
Si Si6 0.958814 0.657472 0.112811
Si Si7 0.345908 0.357187 0.017012
O O1 0.500000 0.767588 0.250000
O O2 0.293851 0.758110 0.264733
O O3 0.397933 0.716193 0.350480
O O4 0.397258 0.044832 0.300709
O O5 0.278647 0.277478 0.363706
O O6 0.078391 0.219330 0.382822
O O7 0.193624 0.959557 0.339748
O O8 0.187260 0.053644 0.448663
O O9 0.876252 0.132051 0.760634
O O10 0.877495 0.373151 0.670343
O O11 0.970994 0.188365 0.859431
O O12 0.967817 0.483993 0.411230
O O13 0.921815 0.131490 0.458523
O O14 0.901543 0.733400 0.062019
O O15 0.250000 0.250000 0.000000
#
# Coordination Sequence:
#
# PCOD9266096 Si02
#       7
#     8   8   8   8   8   8   8
#     4  10  20  36  60  88 117 157 200 242 295 353
#     4  10  23  39  59  92 123 153 198 252 302 344
#     4  10  20  37  60  87 121 159 195 243 300 357
#     4  10  19  37  60  84 119 159 198 240 289 361
#     4  11  21  39  63  89 121 158 200 249 298 355
#     4  10  21  38  62  89 114 160 206 238 295 365
#     4  11  22  42  64  85 119 160 202 250 299 355
#
# _framework density 25.849599000000001
#
# number of rings (size 3 to 8) (size 9 to 14) (size 15 to 20)
#    0.000    1.714    0.000    7.286    0.000    1.143 
#    0.000   21.429    0.000    0.000    0.000    0.000 
#    0.000    0.000    0.000    0.000    0.000    0.000 
#
# Total GULP energy -156736.306187 kJ/mol
# GULP energy per Si atom -5597.725221 kJ/mol
# Density = 2.579076 g / cm^3
# Si number density = 25.849599 Si / 1000 Ang^3
#
#
#
# Elastic Constant Matrix: (Units=GPa)
#
#
# Indices 1 2 3 4 5 6 
#
# 1 167.3360 -3.2030 52.1399 0.0000 7.6087 0.0000
# 2 -3.2030 34.2618 -6.0313 0.0000 -0.3452 0.0000
# 3 52.1399 -6.0313 139.2014 0.0000 3.2377 0.0000
# 4 0.0000 0.0000 0.0000 23.5101 0.0000 -2.8004
# 5 7.6087 -0.3452 3.2377 0.0000 58.0688 0.0000
# 6 0.0000 0.0000 0.0000 -2.8004 0.0000 35.4618
#
#
#
# Elastic Compliance Matrix: (Units=1/GPa)
#
#
# Indices 1 2 3 4 5 6 
#
# 1 0.006799 0.000184 -0.002521 0.000000 -0.000749 0.000000
# 2 0.000184 0.029417 0.001204 0.000000 0.000084 0.000000
# 3 -0.002521 0.001204 0.008183 0.000000 -0.000119 0.000000
# 4 0.000000 0.000000 0.000000 0.042939 0.000000 0.003391
# 5 -0.000749 0.000084 -0.000119 0.000000 0.017326 0.000000
# 6 0.000000 0.000000 0.000000 0.003391 0.000000 0.028467
#
#
# Mechanical properties :
#
#
# Convention : Reuss Voigt Hill
#
# Bulk Modulus (GPa) = 23.73469 47.40115 35.56792
# Shear Modulus (GPa) = 33.45767 43.26773 38.36270
#
# Velocity S-wave (km/s) = 3.60157 4.09568 3.85655
# Velocity P-wave (km/s) = 5.14751 6.38304 5.79828
#
# Compressibility (1/GPa) = 0.04213243
#
# Stress axis : x y z
#
# Youngs Moduli (GPa) = 147.07592 33.99394 122.20227
#
# Poissons Ratio (x) = -0.00626 0.30811
# Poissons Ratio (y) = -0.02710 -0.14709
# Poissons Ratio (z) = 0.37083 -0.04092
#
# Static dielectric constant tensor:
#      x y z
#    x 2.038670 0.000000 -0.035760 
#    y 0.000000 2.211520 0.000000 
#    z -0.035760 0.000000 1.990740 
# 
# From -- ./inp_files/236989.got.cif
#   From: 2010.05.17/outbox.cif.g08.bks.cpg/sg15_119_cif.got.tgz:236989.got - 2010.06.03 18:47:42.
