data_PCOD9266187
_publ_section_title
;
Structure prediction by ZEFSAII (Michael W. Deem and Ramdas Pophale) SiO2 
 PCOD9266187
Probable space group: C 2/C
;
_chemical_formula_sum "Si O2"
_cell_formula_units_Z 56
_cell_length_a 16.718188
_cell_length_b 12.966957
_cell_length_c 12.959223
_cell_angle_alpha 90.000000
_cell_angle_beta 123.667350
_cell_angle_gamma 90.000000
_cell_volume 2338.140287
_symmetry_space_group_name_H-M "C 2/C"
_symmetry_group_IT_number 15
_symmetry_cell_setting 'monoclinic'
loop_
_space_group_symop_operation_xyz
x,y,z
-x,y,1/2-z
-x,-y,-z
x,-y,1/2+z
1/2+x,1/2+y,z
1/2-x,1/2+y,1/2-z
1/2-x,1/2-y,-z
1/2+x,1/2-y,1/2+z
loop_
_atom_site_type_symbol
_atom_site_label
_atom_site_fract_x
_atom_site_fract_y
_atom_site_fract_z
Si Si1 0.593233 0.566500 0.048082
Si Si2 0.732182 0.052856 0.848896
Si Si3 0.108847 0.276716 0.297939
Si Si4 0.706532 0.340380 0.318718
Si Si5 0.580336 0.131083 0.216524
Si Si6 0.112400 0.050881 0.300152
Si Si7 0.917400 0.294400 0.468121
O O1 0.674133 0.505815 0.044002
O O2 0.631727 0.578056 0.192119
O O3 0.566878 0.676819 0.984645
O O4 0.500000 0.500000 0.000000
O O5 0.653031 0.965868 0.762239
O O6 0.677397 0.131842 0.883027
O O7 0.775745 0.121102 0.786346
O O8 0.139261 0.164658 0.361982
O O9 0.100229 0.289336 0.167003
O O10 0.000000 0.293934 0.250000
O O11 0.645881 0.234419 0.276676
O O12 0.654899 0.436524 0.334252
O O13 0.814598 0.328212 0.440873
O O14 0.500000 0.122422 0.250000
O O15 0.511010 0.142488 0.067282
O O16 0.000000 0.041435 0.250000
#
# Coordination Sequence:
#
# PCOD9266187 Si02
#       7
#     8   8   8   8   8   8   8
#     4  10  19  37  61  87 115 163 207 251 318 382
#     4  10  21  39  64  88 127 166 201 265 319 371
#     4   9  19  37  66  92 127 163 207 258 312 381
#     4  10  21  38  62  90 124 167 212 259 314 377
#     4  12  25  42  65  95 131 167 215 268 318 375
#     4   9  18  35  59  86 120 156 199 259 308 363
#     4  10  21  39  64  90 124 169 205 256 323 373
#
# _framework density 23.950659000000002
#
# number of rings (size 3 to 8) (size 9 to 14) (size 15 to 20)
#    0.000    2.000    1.429    2.571    2.000    2.857 
#    2.571    0.000    3.143    6.000    0.000    0.000 
#    0.000    0.000    0.000    0.000    0.000    0.000 
#
# Total GULP energy -156245.647274 kJ/mol
# GULP energy per Si atom -5580.201688 kJ/mol
# Density = 2.389615 g / cm^3
# Si number density = 23.950659 Si / 1000 Ang^3
#
#
#
# Elastic Constant Matrix: (Units=GPa)
#
#
# Indices 1 2 3 4 5 6 
#
# 1 87.0610 48.9735 16.3233 0.0000 21.9322 0.0000
# 2 48.9735 127.4754 9.9774 0.0000 37.5946 0.0000
# 3 16.3233 9.9774 52.3385 0.0000 29.5652 0.0000
# 4 0.0000 0.0000 0.0000 -9.1484 0.0000 -5.6740
# 5 21.9322 37.5946 29.5652 0.0000 49.2447 0.0000
# 6 0.0000 0.0000 0.0000 -5.6740 0.0000 33.9483
#
#
#
# Elastic Compliance Matrix: (Units=1/GPa)
#
#
# Indices 1 2 3 4 5 6 
#
# 1 0.015343 -0.005437 -0.003380 0.000000 -0.000653 0.000000
# 2 -0.005437 0.012544 0.005063 0.000000 -0.010194 0.000000
# 3 -0.003380 0.005063 0.031063 0.000000 -0.021010 0.000000
# 4 0.000000 0.000000 0.000000 -0.099042 0.000000 -0.016553
# 5 -0.000653 -0.010194 -0.021010 0.000000 0.040994 0.000000
# 6 0.000000 0.000000 0.000000 -0.016553 0.000000 0.026690
#
#
# Mechanical properties :
#
#
# Convention : Reuss Voigt Hill
#
# Bulk Modulus (GPa) = 19.43906 46.38037 32.90972
# Shear Modulus (GPa) = 95.70021 27.58231 61.64126
#
# Velocity S-wave (km/s) = 6.32803 3.39725 5.07865
# Velocity P-wave (km/s) = 7.84384 5.89876 6.93979
#
# Compressibility (1/GPa) = 0.05144281
#
# Stress axis : x y z
#
# Youngs Moduli (GPa) = 65.17625 79.72108 32.19228
#
# Poissons Ratio (x) = 0.43346 0.10880
# Poissons Ratio (y) = 0.35438 -0.16300
# Poissons Ratio (z) = 0.22027 -0.40364
#
# Static dielectric constant tensor:
#      x y z
#    x 2.073110 0.000000 -0.071420 
#    y 0.000000 1.975440 0.000000 
#    z -0.071420 0.000000 2.049350 
# 
# From -- ./inp_files/210686.got.cif
#   From: 2010.05.17/outbox.cif.g08.bks.cpg/sg15_106_cif.got.tgz:210686.got - 2010.06.03 18:47:42.
