data_PCOD9266930
_publ_section_title
;
Structure prediction by ZEFSAII (Michael W. Deem and Ramdas Pophale) SiO2 
 PCOD9266930
Probable space group: C 2/C
;
_chemical_formula_sum "Si O2"
_cell_formula_units_Z 56
_cell_length_a 8.422952
_cell_length_b 22.165274
_cell_length_c 20.108255
_cell_angle_alpha 90.000000
_cell_angle_beta 131.460987
_cell_angle_gamma 90.000000
_cell_volume 2813.386520
_symmetry_space_group_name_H-M "C 2/C"
_symmetry_group_IT_number 15
_symmetry_cell_setting 'monoclinic'
loop_
_space_group_symop_operation_xyz
x,y,z
-x,y,1/2-z
-x,-y,-z
x,-y,1/2+z
1/2+x,1/2+y,z
1/2-x,1/2+y,1/2-z
1/2-x,1/2-y,-z
1/2+x,1/2-y,1/2+z
loop_
_atom_site_type_symbol
_atom_site_label
_atom_site_fract_x
_atom_site_fract_y
_atom_site_fract_z
Si Si1 0.210615 0.245159 0.838649
Si Si2 0.656124 0.508702 0.734716
Si Si3 0.502134 0.939388 0.090899
Si Si4 0.119917 0.881644 0.380382
Si Si5 0.967686 0.044731 0.053543
Si Si6 0.444361 0.184764 0.656757
Si Si7 0.468958 0.331548 0.000544
O O1 0.132961 0.181147 0.845734
O O2 0.394305 0.229836 0.835972
O O3 0.309613 0.283673 0.925465
O O4 0.000000 0.274966 0.750000
O O5 0.500000 0.486725 0.750000
O O6 0.579273 0.577506 0.696929
O O7 0.614175 0.473956 0.655403
O O8 0.888539 0.512031 0.830183
O O9 0.674755 0.919809 0.084214
O O10 0.464579 0.880397 0.126586
O O11 0.281759 0.959853 0.998869
O O12 0.105653 0.864137 0.452945
O O13 0.005416 0.113646 0.043935
O O14 0.000000 0.000000 0.000000
O O15 0.500000 0.181101 0.750000
O O16 0.196146 0.199672 0.578061
#
# Coordination Sequence:
#
# PCOD9266930 Si02
#       7
#     8   8   8   8   8   8   8
#     4  11  22  38  57  89 124 157 195 246 312 378
#     4  10  20  38  60  88 115 152 206 254 302 354
#     4   9  21  36  62  86 115 155 205 255 307 348
#     4  10  19  38  63  88 112 151 206 263 296 354
#     4  11  23  40  58  87 124 157 203 253 302 373
#     4  10  20  36  63  87 114 154 206 256 299 351
#     4  11  22  39  59  88 122 155 202 248 312 367
#
# _framework density 19.904836
#
# number of rings (size 3 to 8) (size 9 to 14) (size 15 to 20)
#    0.000    1.714    1.429    4.714    2.000    2.286 
#    2.571    0.714    0.000    0.000    0.000    0.000 
#    0.000    0.000    0.000    0.000    0.000    0.000 
#
# Total GULP energy -156420.586299 kJ/mol
# GULP energy per Si atom -5586.449511 kJ/mol
# Density = 1.985953 g / cm^3
# Si number density = 19.904836 Si / 1000 Ang^3
#
#
#
# Elastic Constant Matrix: (Units=GPa)
#
#
# Indices 1 2 3 4 5 6 
#
# 1 60.7547 3.3523 44.2646 0.0000 -4.1680 0.0000
# 2 3.3523 41.7460 20.1736 0.0000 -0.3875 0.0000
# 3 44.2646 20.1736 102.3419 0.0000 2.5771 0.0000
# 4 0.0000 0.0000 0.0000 30.9209 0.0000 -10.6956
# 5 -4.1680 -0.3875 2.5771 0.0000 39.3201 0.0000
# 6 0.0000 0.0000 0.0000 -10.6956 0.0000 3.1489
#
#
#
# Elastic Compliance Matrix: (Units=1/GPa)
#
#
# Indices 1 2 3 4 5 6 
#
# 1 0.024938 0.003629 -0.011588 0.000000 0.003439 0.000000
# 2 0.003629 0.027019 -0.006923 0.000000 0.001105 0.000000
# 3 -0.011588 -0.006923 0.016207 0.000000 -0.002359 0.000000
# 4 0.000000 0.000000 0.000000 -0.184904 0.000000 -0.628052
# 5 0.003439 0.001105 -0.002359 0.000000 0.025962 0.000000
# 6 0.000000 0.000000 0.000000 -0.628052 0.000000 -1.815692
#
#
# Mechanical properties :
#
#
# Convention : Reuss Voigt Hill
#
# Bulk Modulus (GPa) = 26.04187 37.82484 31.93336
# Shear Modulus (GPa) = -2.68254 23.81477 10.56611
#
# Velocity S-wave (km/s) = -1.16216 3.46270 2.30648
# Velocity P-wave (km/s) = 3.36315 5.91871 4.81362
#
# Compressibility (1/GPa) = 0.03839969
#
# Stress axis : x y z
#
# Youngs Moduli (GPa) = 40.09919 37.01103 61.70021
#
# Poissons Ratio (x) = -0.13432 0.71499
# Poissons Ratio (y) = -0.14553 0.42718
# Poissons Ratio (z) = 0.46468 0.25625
#
# Static dielectric constant tensor:
#      x y z
#    x 1.738490 0.000000 0.018080 
#    y 0.000000 1.686640 0.000000 
#    z 0.018080 0.000000 1.710040 
# 
# From -- ./inp_files/193199.got.cif
#   From: 2010.05.17/outbox.cif.g08.bks.cpg/sg15_97_cif.got.tgz:193199.got - 2010.06.03 18:47:42.
