data_PCOD9266301
_publ_section_title
;
Structure prediction by ZEFSAII (Michael W. Deem and Ramdas Pophale) SiO2 
 PCOD9266301
Probable space group: C 2/C
;
_chemical_formula_sum "Si O2"
_cell_formula_units_Z 56
_cell_length_a 29.352696
_cell_length_b 7.464352
_cell_length_c 10.769701
_cell_angle_alpha 90.000000
_cell_angle_beta 77.330728
_cell_angle_gamma 90.000000
_cell_volume 2302.177635
_symmetry_space_group_name_H-M "C 2/C"
_symmetry_group_IT_number 15
_symmetry_cell_setting 'monoclinic'
loop_
_space_group_symop_operation_xyz
x,y,z
-x,y,1/2-z
-x,-y,-z
x,-y,1/2+z
1/2+x,1/2+y,z
1/2-x,1/2+y,1/2-z
1/2-x,1/2-y,-z
1/2+x,1/2-y,1/2+z
loop_
_atom_site_type_symbol
_atom_site_label
_atom_site_fract_x
_atom_site_fract_y
_atom_site_fract_z
Si Si1 0.485957 0.817292 0.883500
Si Si2 0.182304 0.415135 0.269114
Si Si3 0.977343 0.277009 0.139790
Si Si4 0.618460 0.032784 0.039888
Si Si5 0.284801 0.468799 0.655040
Si Si6 0.609500 0.287313 0.670514
Si Si7 0.831488 0.122225 0.872063
O O1 0.500000 0.721925 0.750000
O O2 0.430882 0.857711 0.925990
O O3 0.514702 0.006525 0.864678
O O4 0.497634 0.711650 0.999907
O O5 0.148429 0.492328 0.395024
O O6 0.229597 0.513742 0.205555
O O7 0.153022 0.350189 0.167136
O O8 0.199133 0.226030 0.313505
O O9 0.923165 0.235551 0.192032
O O10 0.000000 0.203834 0.250000
O O11 0.651061 0.180344 0.099477
O O12 0.592535 0.833513 0.068699
O O13 0.309678 0.596692 0.745537
O O14 0.298184 0.467124 0.500078
O O15 0.624758 0.487222 0.646738
#
# Coordination Sequence:
#
# PCOD9266301 Si02
#       7
#     8   8   8   8   8   8   8
#     4  10  19  37  62  93 126 156 205 264 304 372
#     4  10  24  38  63  93 127 167 213 267 312 374
#     4  10  19  37  62  93 126 156 205 264 304 372
#     4  11  22  40  66  91 125 172 211 254 322 378
#     4  10  24  44  62  93 132 162 217 267 310 370
#     4  11  22  40  66  91 125 172 211 254 322 378
#     4  10  26  44  61  94 134 164 211 270 304 380
#
# _framework density 24.324798000000001
#
# number of rings (size 3 to 8) (size 9 to 14) (size 15 to 20)
#    0.000    1.714    4.286    0.000    6.000    2.286 
#    2.571    0.714    0.000    1.714    0.000    0.000 
#    0.000    0.000    0.000    0.000    0.000    0.000 
#
# Total GULP energy -155871.891237 kJ/mol
# GULP energy per Si atom -5566.853258 kJ/mol
# Density = 2.426943 g / cm^3
# Si number density = 24.324798 Si / 1000 Ang^3
#
#
#
# Elastic Constant Matrix: (Units=GPa)
#
#
# Indices 1 2 3 4 5 6 
#
# 1 74.4169 -4.9681 10.3911 0.0000 -4.2766 0.0000
# 2 -4.9681 96.7384 10.2003 0.0000 -14.6205 0.0000
# 3 10.3911 10.2003 123.4928 0.0000 -21.2330 0.0000
# 4 0.0000 0.0000 0.0000 -10.0075 0.0000 -18.0631
# 5 -4.2766 -14.6205 -21.2330 0.0000 42.1834 0.0000
# 6 0.0000 0.0000 0.0000 -18.0631 0.0000 0.7874
#
#
#
# Elastic Compliance Matrix: (Units=1/GPa)
#
#
# Indices 1 2 3 4 5 6 
#
# 1 0.013718 0.000997 -0.001027 0.000000 0.001219 0.000000
# 2 0.000997 0.010990 -0.000350 0.000000 0.003734 0.000000
# 3 -0.001027 -0.000350 0.008949 0.000000 0.004279 0.000000
# 4 0.000000 0.000000 0.000000 -0.002356 0.000000 -0.054056
# 5 0.001219 0.003734 0.004279 0.000000 0.027278 0.000000
# 6 0.000000 0.000000 0.000000 -0.054056 0.000000 0.029949
#
#
# Mechanical properties :
#
#
# Convention : Reuss Voigt Hill
#
# Bulk Modulus (GPa) = 30.39785 36.21053 33.30419
# Shear Modulus (GPa) = 49.87497 25.19430 37.53464
#
# Velocity S-wave (km/s) = 4.53302 3.22179 3.93244
# Velocity P-wave (km/s) = 6.31834 5.36270 5.86003
#
# Compressibility (1/GPa) = 0.03289706
#
# Stress axis : x y z
#
# Youngs Moduli (GPa) = 72.89776 90.99544 111.74875
#
# Poissons Ratio (x) = -0.09073 0.11476
# Poissons Ratio (y) = -0.07268 0.03907
# Poissons Ratio (z) = 0.07486 0.03181
#
# Static dielectric constant tensor:
#      x y z
#    x 1.944380 0.000000 -0.021150 
#    y 0.000000 1.815250 0.000000 
#    z -0.021150 0.000000 1.914740 
# 
# From -- ./inp_files/121847.got.cif
#   From: 2010.05.17/outbox.cif.g08.bks.cpg/sg15_61_cif.got.tgz:121847.got - 2010.06.03 18:47:42.
