data_PCOD9266671
_publ_section_title
;
Structure prediction by ZEFSAII (Michael W. Deem and Ramdas Pophale) SiO2 
 PCOD9266671
Probable space group: C 2/C
;
_chemical_formula_sum "Si O2"
_cell_formula_units_Z 60
_cell_length_a 14.768009
_cell_length_b 20.971747
_cell_length_c 13.432279
_cell_angle_alpha 90.000000
_cell_angle_beta 137.875401
_cell_angle_gamma 90.000000
_cell_volume 2790.382751
_symmetry_space_group_name_H-M "C 2/C"
_symmetry_group_IT_number 15
_symmetry_cell_setting 'monoclinic'
loop_
_space_group_symop_operation_xyz
x,y,z
-x,y,1/2-z
-x,-y,-z
x,-y,1/2+z
1/2+x,1/2+y,z
1/2-x,1/2+y,1/2-z
1/2-x,1/2-y,-z
1/2+x,1/2-y,1/2+z
loop_
_atom_site_type_symbol
_atom_site_label
_atom_site_fract_x
_atom_site_fract_y
_atom_site_fract_z
Si Si1 0.781226 0.896645 0.127656
Si Si2 0.922678 0.066652 0.952352
Si Si3 0.160892 0.969458 0.902595
Si Si4 0.372948 0.805131 0.382653
Si Si5 0.000000 0.204825 0.750000
Si Si6 0.124390 0.712554 0.186615
Si Si7 0.146861 0.738309 0.829085
Si Si8 0.316269 0.371011 0.754799
O O1 0.852861 0.914328 0.291945
O O2 0.644858 0.862969 0.054851
O O3 0.873373 0.844015 0.146582
O O4 0.773166 0.961152 0.058021
O O5 0.833965 0.057978 0.980874
O O6 0.045867 0.113727 0.076194
O O7 0.000000 0.000000 0.000000
O O8 0.209728 0.922630 0.853642
O O9 0.000000 0.977641 0.750000
O O10 0.257094 0.754745 0.317509
O O11 0.528317 0.782670 0.510506
O O12 0.328124 0.816719 0.231996
O O13 0.980446 0.254613 0.823555
O O14 0.191838 0.642891 0.228119
O O15 0.155321 0.804567 0.776663
O O16 0.000000 0.727884 0.750000
O O17 0.250000 0.750000 0.000000
#
# Coordination Sequence:
#
# PCOD9266671 Si02
#       8
#     8   8   8   8   4   8   8   8
#     4  11  21  38  62  96 126 166 218 281 319 392
#     4  11  20  36  65  96 131 164 224 271 332 389
#     4  10  19  38  58  96 122 172 214 272 327 379
#     4  10  24  40  61  88 133 166 218 265 331 386
#     4  10  22  40  66  92 136 164 222 266 332 400
#     4  10  23  43  60  94 125 180 210 269 331 393
#     4  11  22  36  58  90 123 169 213 260 327 397
#     4  10  22  37  62  89 131 163 216 272 324 391
#
# _framework density 21.502427999999998
#
# number of rings (size 3 to 8) (size 9 to 14) (size 15 to 20)
#    0.000    1.600    3.333    2.800   11.200    2.133 
#    2.400    0.667    0.000    0.000    1.733    0.000 
#    0.000    0.000    0.000    0.000    0.000    0.000 
#
# Total GULP energy -167007.719652 kJ/mol
# GULP energy per Si atom -5566.923988 kJ/mol
# Density = 2.145349 g / cm^3
# Si number density = 21.502428 Si / 1000 Ang^3
#
#
#
# Elastic Constant Matrix: (Units=GPa)
#
#
# Indices 1 2 3 4 5 6 
#
# 1 86.4858 46.8934 9.8195 0.0000 -1.9105 0.0000
# 2 46.8934 92.6626 7.6385 0.0000 0.0406 0.0000
# 3 9.8195 7.6385 71.2301 0.0000 2.4699 0.0000
# 4 0.0000 0.0000 0.0000 9.8694 0.0000 -2.5468
# 5 -1.9105 0.0406 2.4699 0.0000 21.8931 0.0000
# 6 0.0000 0.0000 0.0000 -2.5468 0.0000 52.0775
#
#
#
# Elastic Compliance Matrix: (Units=1/GPa)
#
#
# Indices 1 2 3 4 5 6 
#
# 1 0.016118 -0.008041 -0.001414 0.000000 0.001581 0.000000
# 2 -0.008041 0.014900 -0.000466 0.000000 -0.000677 0.000000
# 3 -0.001414 -0.000466 0.014344 0.000000 -0.001741 0.000000
# 4 0.000000 0.000000 0.000000 0.102619 0.000000 0.005018
# 5 0.001581 -0.000677 -0.001741 0.000000 0.046012 0.000000
# 6 0.000000 0.000000 0.000000 0.005018 0.000000 0.019448
#
#
# Mechanical properties :
#
#
# Convention : Reuss Voigt Hill
#
# Bulk Modulus (GPa) = 39.18555 42.12015 40.65285
# Shear Modulus (GPa) = 20.67918 29.16981 24.92450
#
# Velocity S-wave (km/s) = 3.10452 3.68718 3.40832
# Velocity P-wave (km/s) = 5.57800 6.14476 5.86823
#
# Compressibility (1/GPa) = 0.02551961
#
# Stress axis : x y z
#
# Youngs Moduli (GPa) = 62.04274 67.11533 69.71394
#
# Poissons Ratio (x) = 0.53966 0.09861
# Poissons Ratio (y) = 0.49887 0.03248
# Poissons Ratio (z) = 0.08776 0.03127
#
# Static dielectric constant tensor:
#      x y z
#    x 1.905270 0.000000 -0.036110 
#    y 0.000000 1.806990 0.000000 
#    z -0.036110 0.000000 1.797410 
# 
# From -- ./inp_files/156390.got.cif
#   From: 2010.05.17/outbox.cif.g08.bks.cpg/sg15_79_cif.got.tgz:156390.got - 2010.06.03 18:47:42.
