data_PCOD9266167
_publ_section_title
;
Structure prediction by ZEFSAII (Michael W. Deem and Ramdas Pophale) SiO2 
 PCOD9266167
Probable space group: C 2/C
;
_chemical_formula_sum "Si O2"
_cell_formula_units_Z 40
_cell_length_a 16.082389
_cell_length_b 11.464706
_cell_length_c 22.845532
_cell_angle_alpha 90.000000
_cell_angle_beta 152.994310
_cell_angle_gamma 90.000000
_cell_volume 1912.696933
_symmetry_space_group_name_H-M "C 2/C"
_symmetry_group_IT_number 15
_symmetry_cell_setting 'monoclinic'
loop_
_space_group_symop_operation_xyz
x,y,z
-x,y,1/2-z
-x,-y,-z
x,-y,1/2+z
1/2+x,1/2+y,z
1/2-x,1/2+y,1/2-z
1/2-x,1/2-y,-z
1/2+x,1/2-y,1/2+z
loop_
_atom_site_type_symbol
_atom_site_label
_atom_site_fract_x
_atom_site_fract_y
_atom_site_fract_z
Si Si1 0.317048 0.467477 0.957389
Si Si2 0.504583 0.419891 0.322189
Si Si3 0.652201 0.070002 0.131509
Si Si4 0.444647 0.315581 0.474587
Si Si5 0.355512 0.831407 0.749558
O O1 0.096497 0.407056 0.663819
O O2 0.339636 0.600520 0.952771
O O3 0.165126 0.408953 0.821389
O O4 0.318597 0.451468 0.027670
O O5 0.500000 0.439798 0.250000
O O6 0.340354 0.499516 0.244309
O O7 0.502659 0.396418 0.454961
O O8 0.659385 0.200101 0.109057
O O9 0.500000 0.000000 0.000000
O O10 0.474192 0.282407 0.313409
O O11 0.644867 0.286145 0.626615
#
# Coordination Sequence:
#
# PCOD9266167 Si02
#       5
#     8   8   8   8   8
#     4   9  18  37  56  85 114 160 187 244 295 341
#     4  12  24  38  58  91 127 150 188 258 310 336
#     4  12  21  36  61  94 113 154 209 241 276 362
#     4   9  17  32  61  82 106 151 205 238 268 338
#     4  10  19  37  61  83 120 155 203 236 282 358
#
# _framework density 20.912880000000001
#
# number of rings (size 3 to 8) (size 9 to 14) (size 15 to 20)
#    1.200    0.400    6.000    0.000    0.000    0.800 
#    0.000    1.000    0.000    1.200    0.000    0.000 
#    0.000    0.000    0.000    0.000    0.000    0.000 
#
# Total GULP energy -111525.526148 kJ/mol
# GULP energy per Si atom -5576.276307 kJ/mol
# Density = 2.086528 g / cm^3
# Si number density = 20.912880 Si / 1000 Ang^3
#
#
#
# Elastic Constant Matrix: (Units=GPa)
#
#
# Indices 1 2 3 4 5 6 
#
# 1 60.0999 34.3522 36.7878 -0.0008 -26.3140 -0.0001
# 2 34.3522 100.4963 48.4905 -0.0003 -19.3836 -0.0004
# 3 36.7878 48.4905 140.9723 -0.0016 -51.2600 -0.0010
# 4 -0.0008 -0.0003 -0.0016 39.8681 -0.0006 -5.1352
# 5 -26.3140 -19.3836 -51.2600 -0.0006 33.7654 -0.0004
# 6 -0.0001 -0.0004 -0.0010 -5.1352 -0.0004 4.0541
#
#
#
# Elastic Compliance Matrix: (Units=1/GPa)
#
#
# Indices 1 2 3 4 5 6 
#
# 1 0.028940 -0.006991 0.003559 0.000002 0.023942 0.000006
# 2 -0.006991 0.013649 -0.004470 0.000000 -0.004399 -0.000001
# 3 0.003559 -0.004470 0.017362 0.000002 0.026565 0.000010
# 4 0.000002 0.000000 0.000002 0.029973 0.000006 0.037965
# 5 0.023942 -0.004399 0.026565 0.000006 0.086077 0.000023
# 6 0.000006 -0.000001 0.000010 0.037965 0.000023 0.294751
#
#
# Mechanical properties :
#
#
# Convention : Reuss Voigt Hill
#
# Bulk Modulus (GPa) = 22.65283 60.09216 41.37249
# Shear Modulus (GPa) = 9.97462 27.66673 18.82068
#
# Velocity S-wave (km/s) = 2.18631 3.64119 3.00318
# Velocity P-wave (km/s) = 4.15076 6.81722 5.64373
#
# Compressibility (1/GPa) = 0.04414459
#
# Stress axis : x y z
#
# Youngs Moduli (GPa) = 34.55475 73.26683 57.59749
#
# Poissons Ratio (x) = 0.51224 -0.20496
# Poissons Ratio (y) = 0.24159 0.25746
# Poissons Ratio (z) = -0.12296 0.32750
#
# Static dielectric constant tensor:
#      x y z
#    x 1.785730 0.000000 -0.004480 
#    y 0.000000 1.704260 0.000000 
#    z -0.004480 0.000000 1.815130 
# 
# From -- ./inp_files/211128.got.cif
#   From: 2010.05.17/outbox.cif.g08.bks.cpg/sg15_106_cif.got.tgz:211128.got - 2010.06.03 18:47:42.
