data_PCOD9266928
_publ_section_title
;
Structure prediction by ZEFSAII (Michael W. Deem and Ramdas Pophale) SiO2 
 PCOD9266928
Probable space group: C 2/C
;
_chemical_formula_sum "Si O2"
_cell_formula_units_Z 60
_cell_length_a 14.856161
_cell_length_b 12.518277
_cell_length_c 14.925639
_cell_angle_alpha 90.000000
_cell_angle_beta 53.891927
_cell_angle_gamma 90.000000
_cell_volume 2242.566770
_symmetry_space_group_name_H-M "C 2/C"
_symmetry_group_IT_number 15
_symmetry_cell_setting 'monoclinic'
loop_
_space_group_symop_operation_xyz
x,y,z
-x,y,1/2-z
-x,-y,-z
x,-y,1/2+z
1/2+x,1/2+y,z
1/2-x,1/2+y,1/2-z
1/2-x,1/2-y,-z
1/2+x,1/2-y,1/2+z
loop_
_atom_site_type_symbol
_atom_site_label
_atom_site_fract_x
_atom_site_fract_y
_atom_site_fract_z
Si Si1 0.000000 0.865615 0.250000
Si Si2 0.132798 0.440604 0.484998
Si Si3 0.125184 0.241040 0.037532
Si Si4 0.351087 0.592355 0.149988
Si Si5 0.439173 0.350178 0.093468
Si Si6 0.656129 0.436094 0.645944
Si Si7 0.438896 0.085531 0.660090
Si Si8 0.870199 0.409550 0.820279
O O1 0.032791 0.812199 0.323796
O O2 0.102269 0.946744 0.173307
O O3 0.212436 0.543623 0.434876
O O4 0.133726 0.387619 0.386276
O O5 0.171030 0.385529 0.554482
O O6 0.009808 0.482867 0.582763
O O7 0.101736 0.125416 0.095644
O O8 0.028303 0.321903 0.123002
O O9 0.250000 0.250000 0.000000
O O10 0.126641 0.231267 0.929932
O O11 0.374216 0.463405 0.134807
O O12 0.363458 0.619967 0.247353
O O13 0.228946 0.625699 0.186920
O O14 0.444803 0.636011 0.028326
O O15 0.379093 0.036001 0.782393
O O16 0.000000 0.376784 0.750000
#
# Coordination Sequence:
#
# PCOD9266928 Si02
#       8
#     4   8   8   8   8   8   8   8
#     4  10  22  42  72  90 122 172 244 266 316 414
#     4  10  19  38  63  87 126 175 228 261 318 413
#     4  12  24  40  65 103 146 171 211 288 365 404
#     4  10  20  40  64  97 128 166 242 276 321 408
#     4  10  22  40  65  93 129 179 219 280 335 403
#     4  11  20  38  65  98 125 174 218 279 329 396
#     4  10  22  39  59  93 135 171 217 272 340 404
#     4  10  20  34  62  94 120 173 225 277 323 396
#
# _framework density 26.755056
#
# number of rings (size 3 to 8) (size 9 to 14) (size 15 to 20)
#    0.000    1.600    2.667    4.000    1.867    0.000 
#   10.800    0.000   10.267    1.600    0.000    0.000 
#    0.000    0.000    0.000    0.000    0.000    0.000 
#
# Total GULP energy -167620.671786 kJ/mol
# GULP energy per Si atom -5587.355726 kJ/mol
# Density = 2.669416 g / cm^3
# Si number density = 26.755056 Si / 1000 Ang^3
#
#
#
# Elastic Constant Matrix: (Units=GPa)
#
#
# Indices 1 2 3 4 5 6 
#
# 1 191.1650 31.8748 64.1447 0.0000 28.5904 0.0000
# 2 31.8748 59.2486 15.8065 0.0000 13.9515 0.0000
# 3 64.1447 15.8065 95.8234 0.0000 23.9004 0.0000
# 4 0.0000 0.0000 0.0000 14.9820 0.0000 2.7335
# 5 28.5904 13.9515 23.9004 0.0000 59.7122 0.0000
# 6 0.0000 0.0000 0.0000 2.7335 0.0000 41.4205
#
#
#
# Elastic Compliance Matrix: (Units=1/GPa)
#
#
# Indices 1 2 3 4 5 6 
#
# 1 0.007209 -0.002494 -0.004109 0.000000 -0.001224 0.000000
# 2 -0.002494 0.019118 -0.000742 0.000000 -0.002976 0.000000
# 3 -0.004109 -0.000742 0.014192 0.000000 -0.003540 0.000000
# 4 0.000000 0.000000 0.000000 0.067560 0.000000 -0.004459
# 5 -0.001224 -0.002976 -0.003540 0.000000 0.019445 0.000000
# 6 0.000000 0.000000 0.000000 -0.004459 0.000000 0.024437
#
#
# Mechanical properties :
#
#
# Convention : Reuss Voigt Hill
#
# Bulk Modulus (GPa) = 38.71566 63.32102 51.01834
# Shear Modulus (GPa) = 28.52901 38.85033 33.68967
#
# Velocity S-wave (km/s) = 3.26897 3.81474 3.55235
# Velocity P-wave (km/s) = 5.36191 6.56668 5.99464
#
# Compressibility (1/GPa) = 0.02582934
#
# Stress axis : x y z
#
# Youngs Moduli (GPa) = 138.72144 52.30579 70.46421
#
# Poissons Ratio (x) = 0.13044 0.28952
# Poissons Ratio (y) = 0.34593 0.05229
# Poissons Ratio (z) = 0.56998 0.03882
#
# Static dielectric constant tensor:
#      x y z
#    x 2.158360 0.000000 -0.016900 
#    y 0.000000 2.237800 0.000000 
#    z -0.016900 0.000000 2.170440 
# 
# From -- ./inp_files/154233.got.cif
#   From: 2010.05.17/outbox.cif.g08.bks.cpg/sg15_78_cif.got.tgz:154233.got - 2010.06.03 18:47:42.
