data_PCOD9266106
_publ_section_title
;
Structure prediction by ZEFSAII (Michael W. Deem and Ramdas Pophale) SiO2 
 PCOD9266106
Probable space group: C 2/C
;
_chemical_formula_sum "Si O2"
_cell_formula_units_Z 60
_cell_length_a 9.364519
_cell_length_b 34.461834
_cell_length_c 10.480717
_cell_angle_alpha 90.000000
_cell_angle_beta 58.783760
_cell_angle_gamma 90.000000
_cell_volume 2892.619980
_symmetry_space_group_name_H-M "C 2/C"
_symmetry_group_IT_number 15
_symmetry_cell_setting 'monoclinic'
loop_
_space_group_symop_operation_xyz
x,y,z
-x,y,1/2-z
-x,-y,-z
x,-y,1/2+z
1/2+x,1/2+y,z
1/2-x,1/2+y,1/2-z
1/2-x,1/2-y,-z
1/2+x,1/2-y,1/2+z
loop_
_atom_site_type_symbol
_atom_site_label
_atom_site_fract_x
_atom_site_fract_y
_atom_site_fract_z
Si Si1 0.722363 0.850980 0.276138
Si Si2 0.215722 0.276775 0.892131
Si Si3 0.213721 0.555700 0.418738
Si Si4 0.824209 0.732595 0.595384
Si Si5 0.890599 0.511398 0.689575
Si Si6 0.500000 0.592769 0.750000
Si Si7 0.175079 0.640354 0.500899
Si Si8 0.427950 0.457404 0.052260
O O1 0.756308 0.807287 0.311668
O O2 0.524897 0.855878 0.390369
O O3 0.745758 0.859330 0.113720
O O4 0.841098 0.880274 0.295826
O O5 0.306257 0.261366 0.724201
O O6 0.250000 0.250000 0.000000
O O7 0.253119 0.321677 0.901247
O O8 0.016161 0.274807 0.971636
O O9 0.229498 0.522804 0.305501
O O10 0.193787 0.601277 0.409920
O O11 0.374573 0.555460 0.436292
O O12 0.034243 0.536710 0.551782
O O13 0.750000 0.750000 0.500000
O O14 0.757756 0.542055 0.800193
O O15 0.000000 0.492281 0.750000
O O16 0.469136 0.566837 0.891506
O O17 0.500000 0.500000 0.000000
#
# Coordination Sequence:
#
# PCOD9266106 Si02
#       8
#     8   8   8   8   8   4   8   8
#     4  10  22  36  62  91 122 158 213 268 309 374
#     4  11  22  41  68  95 126 174 219 259 321 395
#     4  10  19  37  60  86 115 158 209 256 306 373
#     4  11  24  42  66  97 134 167 210 273 325 391
#     4   9  20  36  60  86 112 161 210 254 305 378
#     4  12  22  36  58  92 120 164 210 256 318 374
#     4  10  20  39  62  89 120 163 212 265 311 371
#     4  11  22  35  55  82 125 159 200 254 314 371
#
# _framework density 20.742440999999999
#
# number of rings (size 3 to 8) (size 9 to 14) (size 15 to 20)
#    0.000    1.600    2.667    2.400    5.600    2.133 
#    0.000    4.000    2.933    0.000    0.000    0.000 
#    0.000    0.000    0.000    0.000    0.000    0.000 
#
# Total GULP energy -167010.457439 kJ/mol
# GULP energy per Si atom -5567.015248 kJ/mol
# Density = 2.069523 g / cm^3
# Si number density = 20.742441 Si / 1000 Ang^3
#
#
#
# Elastic Constant Matrix: (Units=GPa)
#
#
# Indices 1 2 3 4 5 6 
#
# 1 85.9879 27.5294 4.9186 0.0000 26.3152 0.0000
# 2 27.5294 132.4470 10.3958 0.0000 22.0137 0.0000
# 3 4.9186 10.3958 42.9886 0.0000 10.7351 0.0000
# 4 0.0000 0.0000 0.0000 33.8279 0.0000 9.7845
# 5 26.3152 22.0137 10.7351 0.0000 30.2354 0.0000
# 6 0.0000 0.0000 0.0000 9.7845 0.0000 40.4377
#
#
#
# Elastic Compliance Matrix: (Units=1/GPa)
#
#
# Indices 1 2 3 4 5 6 
#
# 1 0.016145 -0.001203 0.001903 0.000000 -0.013851 0.000000
# 2 -0.001203 0.008692 -0.000708 0.000000 -0.005030 0.000000
# 3 0.001903 -0.000708 0.025787 0.000000 -0.010296 0.000000
# 4 0.000000 0.000000 0.000000 0.031786 0.000000 -0.007691
# 5 -0.013851 -0.005030 -0.010296 0.000000 0.052447 0.000000
# 6 0.000000 0.000000 0.000000 -0.007691 0.000000 0.026590
#
#
# Mechanical properties :
#
#
# Convention : Reuss Voigt Hill
#
# Bulk Modulus (GPa) = 19.76047 38.56790 29.16418
# Shear Modulus (GPa) = 28.03761 35.47220 31.75491
#
# Velocity S-wave (km/s) = 3.68054 4.13985 3.91694
# Velocity P-wave (km/s) = 5.25444 6.44091 5.87768
#
# Compressibility (1/GPa) = 0.05060608
#
# Stress axis : x y z
#
# Youngs Moduli (GPa) = 61.93962 115.05083 38.77985
#
# Poissons Ratio (x) = 0.13839 -0.07378
# Poissons Ratio (y) = 0.07451 0.02747
# Poissons Ratio (z) = -0.11785 0.08148
#
# Static dielectric constant tensor:
#      x y z
#    x 1.750530 0.000000 -0.008520 
#    y 0.000000 1.776270 0.000000 
#    z -0.008520 0.000000 1.774750 
# 
# From -- ./inp_files/82545.got.cif
#   From: 2010.05.17/outbox.cif.g08.bks.cpg/sg15_42_cif.got.tgz:82545.got - 2010.06.03 18:47:42.
