data_PCOD9266554
_publ_section_title
;
Structure prediction by ZEFSAII (Michael W. Deem and Ramdas Pophale) SiO2 
 PCOD9266554
Probable space group: C 2/C
;
_chemical_formula_sum "Si O2"
_cell_formula_units_Z 56
_cell_length_a 14.980452
_cell_length_b 13.545350
_cell_length_c 11.192766
_cell_angle_alpha 90.000000
_cell_angle_beta 71.117030
_cell_angle_gamma 90.000000
_cell_volume 2148.953751
_symmetry_space_group_name_H-M "C 2/C"
_symmetry_group_IT_number 15
_symmetry_cell_setting 'monoclinic'
loop_
_space_group_symop_operation_xyz
x,y,z
-x,y,1/2-z
-x,-y,-z
x,-y,1/2+z
1/2+x,1/2+y,z
1/2-x,1/2+y,1/2-z
1/2-x,1/2-y,-z
1/2+x,1/2-y,1/2+z
loop_
_atom_site_type_symbol
_atom_site_label
_atom_site_fract_x
_atom_site_fract_y
_atom_site_fract_z
Si Si1 0.739349 0.380522 0.793389
Si Si2 0.368913 0.937549 0.954887
Si Si3 0.151605 0.133409 0.973158
Si Si4 0.264899 0.660217 0.819311
Si Si5 0.851552 0.638492 0.013741
Si Si6 0.937471 0.224823 0.893107
Si Si7 0.030351 0.883717 0.868892
O O1 0.789537 0.426701 0.886205
O O2 0.714152 0.263807 0.813543
O O3 0.825348 0.374759 0.662761
O O4 0.636764 0.424948 0.805873
O O5 0.436162 0.843393 0.909677
O O6 0.311116 0.917493 0.102541
O O7 0.412632 0.046778 0.940294
O O8 0.176972 0.131944 0.822967
O O9 0.123536 0.247890 0.017673
O O10 0.249815 0.120673 0.997176
O O11 0.068860 0.061189 0.054382
O O12 0.335076 0.688001 0.895975
O O13 0.000000 0.200504 0.750000
O O14 0.961678 0.175275 0.008144
O O15 0.000000 0.843414 0.750000
#
# Coordination Sequence:
#
# PCOD9266554 Si02
#       7
#     8   8   8   8   8   8   8
#     4  10  20  39  62  89 118 162 210 249 313 372
#     4  11  22  39  67  93 122 164 209 266 310 366
#     4  10  22  39  63  88 123 174 206 247 318 381
#     4  10  19  37  67  91 118 165 214 252 303 374
#     4  10  23  40  59  90 127 161 211 256 305 381
#     4  11  21  39  66  97 128 161 210 263 312 378
#     4  12  21  38  65  90 125 164 207 257 311 386
#
# _framework density 26.059191999999999
#
# number of rings (size 3 to 8) (size 9 to 14) (size 15 to 20)
#    0.000    1.429    5.714    0.857    2.000    0.000 
#    0.000    2.143    6.286    0.000    0.000    0.000 
#    0.000    0.000    0.000    0.000    0.000    0.000 
#
# Total GULP energy -156325.524917 kJ/mol
# GULP energy per Si atom -5583.054461 kJ/mol
# Density = 2.599988 g / cm^3
# Si number density = 26.059192 Si / 1000 Ang^3
#
#
#
# Elastic Constant Matrix: (Units=GPa)
#
#
# Indices 1 2 3 4 5 6 
#
# 1 61.3969 -14.8999 13.3898 0.0000 -0.4898 0.0000
# 2 -14.8999 107.1382 -0.1942 0.0000 10.2428 0.0000
# 3 13.3898 -0.1942 137.2513 0.0000 4.9611 0.0000
# 4 0.0000 0.0000 0.0000 14.6412 0.0000 -1.4270
# 5 -0.4898 10.2428 4.9611 0.0000 31.0485 0.0000
# 6 0.0000 0.0000 0.0000 -1.4270 0.0000 8.6774
#
#
#
# Elastic Compliance Matrix: (Units=1/GPa)
#
#
# Indices 1 2 3 4 5 6 
#
# 1 0.017236 0.002419 -0.001669 0.000000 -0.000259 0.000000
# 2 0.002419 0.009979 -0.000105 0.000000 -0.003237 0.000000
# 3 -0.001669 -0.000105 0.007492 0.000000 -0.001189 0.000000
# 4 0.000000 0.000000 0.000000 0.069413 0.000000 0.011415
# 5 -0.000259 -0.003237 -0.001189 0.000000 0.033462 0.000000
# 6 0.000000 0.000000 0.000000 0.011415 0.000000 0.117119
#
#
# Mechanical properties :
#
#
# Convention : Reuss Voigt Hill
#
# Bulk Modulus (GPa) = 27.77939 33.59752 30.68845
# Shear Modulus (GPa) = 18.83880 31.37278 25.10579
#
# Velocity S-wave (km/s) = 2.69164 3.47350 3.10726
# Velocity P-wave (km/s) = 4.51034 5.38588 4.96744
#
# Compressibility (1/GPa) = 0.03599792
#
# Stress axis : x y z
#
# Youngs Moduli (GPa) = 58.01696 100.20598 133.48423
#
# Poissons Ratio (x) = -0.24238 0.22275
# Poissons Ratio (y) = -0.14034 0.01399
# Poissons Ratio (z) = 0.09681 0.01051
#
# Static dielectric constant tensor:
#      x y z
#    x 2.065720 0.000000 0.000960 
#    y 0.000000 2.110080 0.000000 
#    z 0.000960 0.000000 2.065270 
# 
# From -- ./inp_files/105280.got.cif
#   From: 2010.05.17/outbox.cif.g08.bks.cpg/sg15_53_cif.got.tgz:105280.got - 2010.06.03 18:47:42.
