data_PCOD9266235
_publ_section_title
;
Structure prediction by ZEFSAII (Michael W. Deem and Ramdas Pophale) SiO2 
 PCOD9266235
Probable space group: C 2/C
;
_chemical_formula_sum "Si O2"
_cell_formula_units_Z 48
_cell_length_a 6.342768
_cell_length_b 12.715544
_cell_length_c 24.637234
_cell_angle_alpha 90.000000
_cell_angle_beta 111.037351
_cell_angle_gamma 90.000000
_cell_volume 1854.593245
_symmetry_space_group_name_H-M "C 2/C"
_symmetry_group_IT_number 15
_symmetry_cell_setting 'monoclinic'
loop_
_space_group_symop_operation_xyz
x,y,z
-x,y,1/2-z
-x,-y,-z
x,-y,1/2+z
1/2+x,1/2+y,z
1/2-x,1/2+y,1/2-z
1/2-x,1/2-y,-z
1/2+x,1/2-y,1/2+z
loop_
_atom_site_type_symbol
_atom_site_label
_atom_site_fract_x
_atom_site_fract_y
_atom_site_fract_z
Si Si1 0.949635 0.780493 0.419975
Si Si2 0.014598 0.856697 0.313495
Si Si3 0.564880 0.349422 0.903101
Si Si4 0.219629 0.090268 0.019457
Si Si5 0.306824 0.054303 0.190048
Si Si6 0.425732 0.018322 0.892076
O O1 0.702631 0.758526 0.421303
O O2 0.928062 0.780473 0.353132
O O3 0.080229 0.885051 0.452044
O O4 0.107613 0.686715 0.455493
O O5 0.000000 0.822333 0.250000
O O6 0.266245 0.887965 0.356849
O O7 0.852054 0.960007 0.302702
O O8 0.463447 0.391211 0.949965
O O9 0.356072 0.350695 0.842255
O O10 0.743289 0.431216 0.894187
O O11 0.378212 0.988462 0.043383
O O12 0.500000 0.080145 0.250000
O O13 0.431149 0.015716 0.147175
#
# Coordination Sequence:
#
# PCOD9266235 Si02
#       6
#     8   8   8   8   8   8
#     4  10  21  37  59  90 124 156 193 253 313 360
#     4  11  22  37  59  85 123 154 196 255 313 361
#     4   9  19  36  60  86 115 153 207 244 300 366
#     4   9  19  39  62  83 120 161 201 243 299 374
#     4  10  19  37  62  78 111 163 206 247 295 365
#     4   9  19  37  59  87 112 156 207 242 294 361
#
# _framework density 25.881688
#
# number of rings (size 3 to 8) (size 9 to 14) (size 15 to 20)
#    0.000    2.333    1.667    0.500    0.000    2.000 
#    0.000   16.667    0.000    0.000    0.000    0.000 
#    0.000    0.000    0.000    0.000    0.000    0.000 
#
# Total GULP energy -134250.856618 kJ/mol
# GULP energy per Si atom -5593.785692 kJ/mol
# Density = 2.582278 g / cm^3
# Si number density = 25.881688 Si / 1000 Ang^3
#
#
#
# Elastic Constant Matrix: (Units=GPa)
#
#
# Indices 1 2 3 4 5 6 
#
# 1 131.2502 19.6499 58.2946 0.0000 16.9245 0.0000
# 2 19.6499 79.7572 16.5576 0.0000 21.4114 0.0000
# 3 58.2946 16.5576 155.6377 0.0000 1.3829 0.0000
# 4 0.0000 0.0000 0.0000 25.0537 0.0000 -3.0889
# 5 16.9245 21.4114 1.3829 0.0000 51.2390 0.0000
# 6 0.0000 0.0000 0.0000 -3.0889 0.0000 17.5693
#
#
#
# Elastic Compliance Matrix: (Units=1/GPa)
#
#
# Indices 1 2 3 4 5 6 
#
# 1 0.009660 -0.000927 -0.003495 0.000000 -0.002709 0.000000
# 2 -0.000927 0.014546 -0.001149 0.000000 -0.005741 0.000000
# 3 -0.003495 -0.001149 0.007844 0.000000 0.001423 0.000000
# 4 0.000000 0.000000 0.000000 0.040799 0.000000 0.007173
# 5 -0.002709 -0.005741 0.001423 0.000000 0.022772 0.000000
# 6 0.000000 0.000000 0.000000 0.007173 0.000000 0.058178
#
#
# Mechanical properties :
#
#
# Convention : Reuss Voigt Hill
#
# Bulk Modulus (GPa) = 47.83168 61.73881 54.78525
# Shear Modulus (GPa) = 29.08481 36.91527 33.00004
#
# Velocity S-wave (km/s) = 3.35589 3.78075 3.57464
# Velocity P-wave (km/s) = 5.79112 6.55475 6.18473
#
# Compressibility (1/GPa) = 0.02090664
#
# Stress axis : x y z
#
# Youngs Moduli (GPa) = 103.52421 68.74590 127.48607
#
# Poissons Ratio (x) = 0.06373 0.44561
# Poissons Ratio (y) = 0.09597 0.14652
# Poissons Ratio (z) = 0.36185 0.07901
#
# Static dielectric constant tensor:
#      x y z
#    x 2.014290 0.000000 0.010930 
#    y 0.000000 2.091770 0.000000 
#    z 0.010930 0.000000 2.017740 
# 
# From -- ./inp_files/285765.got.cif
#   From: 2010.05.17/outbox.cif.g08.bks.cpg/sg15_143_cif.got.tgz:285765.got - 2010.06.03 18:47:42.
