data_PCOD9266306
_publ_section_title
;
Structure prediction by ZEFSAII (Michael W. Deem and Ramdas Pophale) SiO2 
 PCOD9266306
Probable space group: C 2/C
;
_chemical_formula_sum "Si O2"
_cell_formula_units_Z 64
_cell_length_a 16.025044
_cell_length_b 12.028807
_cell_length_c 29.877226
_cell_angle_alpha 90.000000
_cell_angle_beta 30.861717
_cell_angle_gamma 90.000000
_cell_volume 2954.283519
_symmetry_space_group_name_H-M "C 2/C"
_symmetry_group_IT_number 15
_symmetry_cell_setting 'monoclinic'
loop_
_space_group_symop_operation_xyz
x,y,z
-x,y,1/2-z
-x,-y,-z
x,-y,1/2+z
1/2+x,1/2+y,z
1/2-x,1/2+y,1/2-z
1/2-x,1/2-y,-z
1/2+x,1/2-y,1/2+z
loop_
_atom_site_type_symbol
_atom_site_label
_atom_site_fract_x
_atom_site_fract_y
_atom_site_fract_z
Si Si1 0.978428 0.826635 0.308121
Si Si2 0.857336 0.836431 0.136560
Si Si3 0.145884 0.348644 0.150426
Si Si4 0.171946 0.642070 0.812208
Si Si5 0.549846 0.316504 0.618608
Si Si6 0.691452 0.898452 0.805339
Si Si7 0.158520 0.949804 0.045023
Si Si8 0.938274 0.589243 0.350728
O O1 0.874808 0.895945 0.391349
O O2 0.909218 0.701394 0.336296
O O3 0.000000 0.880288 0.250000
O O4 0.159505 0.818858 0.244565
O O5 0.800401 0.853882 0.112206
O O6 0.716067 0.864945 0.238427
O O7 0.883067 0.705397 0.134040
O O8 0.011568 0.907642 0.080875
O O9 0.103443 0.473483 0.153673
O O10 0.000000 0.311038 0.250000
O O11 0.143713 0.258725 0.111633
O O12 0.026863 0.729385 0.881484
O O13 0.144752 0.520024 0.844207
O O14 0.386060 0.377591 0.713825
O O15 0.653305 0.417132 0.551211
O O16 0.618058 0.902990 0.788941
O O17 0.322329 0.907628 0.947390
#
# Coordination Sequence:
#
# PCOD9266306 Si02
#       8
#     8   8   8   8   8   8   8   8
#     4  11  23  39  65  97 125 166 227 276 315 391
#     4  10  21  38  64  89 131 171 213 264 329 382
#     4  12  23  38  65 104 126 166 229 279 312 384
#     4  10  19  37  62  95 119 170 221 273 316 387
#     4  11  21  37  66  92 129 169 221 271 319 392
#     4  11  18  38  65  90 119 172 222 264 322 390
#     4  11  25  43  65  95 138 178 210 267 350 398
#     4  12  24  40  68  95 134 174 216 272 338 394
#
# _framework density 21.663459
#
# number of rings (size 3 to 8) (size 9 to 14) (size 15 to 20)
#    0.000    1.000   10.000    0.750    0.000    3.500 
#    0.000    0.000    0.000    1.500    0.000    0.000 
#    0.000    0.000    0.000    0.000    0.000    0.000 
#
# Total GULP energy -178636.728480 kJ/mol
# GULP energy per Si atom -5582.397765 kJ/mol
# Density = 2.161415 g / cm^3
# Si number density = 21.663459 Si / 1000 Ang^3
#
#
#
# Elastic Constant Matrix: (Units=GPa)
#
#
# Indices 1 2 3 4 5 6 
#
# 1 80.5842 33.5862 16.1087 0.0000 15.0830 0.0000
# 2 33.5862 155.9009 14.3159 -0.0001 8.1736 0.0000
# 3 16.1087 14.3159 55.1231 0.0003 9.3227 0.0001
# 4 0.0000 -0.0001 0.0003 15.3519 -0.0001 3.0567
# 5 15.0830 8.1736 9.3227 -0.0001 12.5305 0.0000
# 6 0.0000 0.0000 0.0001 3.0567 0.0000 22.0581
#
#
#
# Elastic Compliance Matrix: (Units=1/GPa)
#
#
# Indices 1 2 3 4 5 6 
#
# 1 0.017119 -0.002630 -0.001287 0.000000 -0.017934 0.000000
# 2 -0.002630 0.007108 -0.000948 0.000000 -0.000766 0.000000
# 3 -0.001287 -0.000948 0.021045 0.000000 -0.013490 0.000000
# 4 0.000000 0.000000 0.000000 0.066987 0.000001 -0.009283
# 5 -0.017934 -0.000766 -0.013490 0.000001 0.111928 0.000000
# 6 0.000000 0.000000 0.000000 -0.009283 0.000000 0.046621
#
#
# Mechanical properties :
#
#
# Convention : Reuss Voigt Hill
#
# Bulk Modulus (GPa) = 28.13455 46.62550 37.38003
# Shear Modulus (GPa) = 17.10069 25.16125 21.13097
#
# Velocity S-wave (km/s) = 2.81264 3.41172 3.12656
# Velocity P-wave (km/s) = 4.85419 6.09008 5.50692
#
# Compressibility (1/GPa) = 0.03554348
#
# Stress axis : x y z
#
# Youngs Moduli (GPa) = 58.41365 140.68545 47.51718
#
# Poissons Ratio (x) = 0.36995 0.06114
# Poissons Ratio (y) = 0.15361 0.04505
# Poissons Ratio (z) = 0.07516 0.13337
#
# Static dielectric constant tensor:
#      x y z
#    x 1.859290 0.000000 -0.000400 
#    y 0.000000 1.849220 0.000000 
#    z -0.000400 0.000000 1.784750 
# 
# From -- ./inp_files/296125.got.cif
#   From: 2010.05.17/outbox.cif.g08.bks.cpg/sg15_149_cif.got.tgz:296125.got - 2010.06.03 18:47:42.
