data_PCOD9266132
_publ_section_title
;
Structure prediction by ZEFSAII (Michael W. Deem and Ramdas Pophale) SiO2 
 PCOD9266132
Probable space group: C 2/C
;
_chemical_formula_sum "Si O2"
_cell_formula_units_Z 64
_cell_length_a 9.417588
_cell_length_b 16.839095
_cell_length_c 19.764518
_cell_angle_alpha 90.000000
_cell_angle_beta 84.841162
_cell_angle_gamma 90.000000
_cell_volume 3121.633207
_symmetry_space_group_name_H-M "C 2/C"
_symmetry_group_IT_number 15
_symmetry_cell_setting 'monoclinic'
loop_
_space_group_symop_operation_xyz
x,y,z
-x,y,1/2-z
-x,-y,-z
x,-y,1/2+z
1/2+x,1/2+y,z
1/2-x,1/2+y,1/2-z
1/2-x,1/2-y,-z
1/2+x,1/2-y,1/2+z
loop_
_atom_site_type_symbol
_atom_site_label
_atom_site_fract_x
_atom_site_fract_y
_atom_site_fract_z
Si Si1 0.044470 0.381523 0.326991
Si Si2 0.552233 0.520082 0.174982
Si Si3 0.150259 0.853538 0.224027
Si Si4 0.253693 0.683168 0.641911
Si Si5 0.011607 0.468018 0.576348
Si Si6 0.158603 0.043668 0.441278
Si Si7 0.091139 0.127287 0.995350
Si Si8 0.731079 0.852765 0.885241
O O1 0.196587 0.334412 0.318206
O O2 0.000000 0.395610 0.250000
O O3 0.912160 0.333487 0.365161
O O4 0.044655 0.463522 0.369713
O O5 0.500000 0.548191 0.250000
O O6 0.599533 0.429646 0.184013
O O7 0.434493 0.528912 0.121968
O O8 0.683845 0.574925 0.150642
O O9 0.203873 0.872710 0.297584
O O10 0.000000 0.808619 0.250000
O O11 0.359242 0.666606 0.575822
O O12 0.272252 0.775000 0.660534
O O13 0.176699 0.448309 0.582700
O O14 0.000000 0.500000 0.500000
O O15 0.919788 0.388399 0.587770
O O16 0.076387 0.115310 0.482844
O O17 0.146278 0.964276 0.487722
O O18 0.175540 0.168470 0.052457
#
# Coordination Sequence:
#
# PCOD9266132 Si02
#       8
#     8   8   8   8   8   8   8   8
#     4  10  22  38  63  89 120 168 219 258 316 398
#     4  10  21  37  61  90 119 163 214 263 314 388
#     4  10  21  38  63  88 117 163 218 258 312 387
#     4  11  22  40  61  89 126 171 207 264 330 393
#     4  12  22  38  61  99 127 162 215 273 321 382
#     4  10  21  35  63  91 118 162 214 265 310 382
#     4  10  19  37  60  89 121 164 209 256 318 387
#     4  11  23  38  60  93 131 161 208 268 329 376
#
# _framework density 20.502088000000001
#
# number of rings (size 3 to 8) (size 9 to 14) (size 15 to 20)
#    0.000    1.500    3.750    1.875    3.500    2.500 
#    0.000    5.000    0.000    0.000    0.000    0.000 
#    0.000    0.000    0.000    0.000    0.000    0.000 
#
# Total GULP energy -178258.838285 kJ/mol
# GULP energy per Si atom -5570.588696 kJ/mol
# Density = 2.045542 g / cm^3
# Si number density = 20.502088 Si / 1000 Ang^3
#
#
#
# Elastic Constant Matrix: (Units=GPa)
#
#
# Indices 1 2 3 4 5 6 
#
# 1 152.8765 23.6308 17.3665 0.0000 -10.1678 0.0000
# 2 23.6308 46.3975 -1.4420 0.0000 3.0912 0.0000
# 3 17.3665 -1.4420 71.2679 0.0000 -1.7549 0.0000
# 4 0.0000 0.0000 0.0000 6.3294 0.0000 2.7876
# 5 -10.1678 3.0912 -1.7549 0.0000 19.3267 0.0000
# 6 0.0000 0.0000 0.0000 2.7876 0.0000 15.5875
#
#
#
# Elastic Compliance Matrix: (Units=1/GPa)
#
#
# Indices 1 2 3 4 5 6 
#
# 1 0.007721 -0.004295 -0.001855 0.000000 0.004580 0.000000
# 2 -0.004295 0.024183 0.001388 0.000000 -0.006002 0.000000
# 3 -0.001855 0.001388 0.014515 0.000000 0.000120 0.000000
# 4 0.000000 0.000000 0.000000 0.171500 0.000000 -0.030671
# 5 0.004580 -0.006002 0.000120 0.000000 0.055122 0.000000
# 6 0.000000 0.000000 0.000000 -0.030671 0.000000 0.069639
#
#
# Mechanical properties :
#
#
# Convention : Reuss Voigt Hill
#
# Bulk Modulus (GPa) = 27.10464 38.85027 32.97746
# Shear Modulus (GPa) = 13.71730 23.64783 18.68257
#
# Velocity S-wave (km/s) = 2.58944 3.39991 3.02197
# Velocity P-wave (km/s) = 4.71056 5.86541 5.31942
#
# Compressibility (1/GPa) = 0.03689405
#
# Stress axis : x y z
#
# Youngs Moduli (GPa) = 129.52475 41.35072 68.89552
#
# Poissons Ratio (x) = 0.17760 0.12783
# Poissons Ratio (y) = 0.55631 -0.09564
# Poissons Ratio (z) = 0.24033 -0.05740
#
# Static dielectric constant tensor:
#      x y z
#    x 1.795770 0.000000 -0.018590 
#    y 0.000000 1.726250 0.000000 
#    z -0.018590 0.000000 1.792570 
# 
# From -- ./inp_files/232702.got.cif
#   From: 2010.05.17/outbox.cif.g08.bks.cpg/sg15_117_cif.got.tgz:232702.got - 2010.06.03 18:47:42.
