data_PCOD9266046
_publ_section_title
;
Structure prediction by ZEFSAII (Michael W. Deem and Ramdas Pophale) SiO2 
 PCOD9266046
Probable space group: C 2/C
;
_chemical_formula_sum "Si O2"
_cell_formula_units_Z 52
_cell_length_a 15.788299
_cell_length_b 19.217790
_cell_length_c 15.487473
_cell_angle_alpha 90.000000
_cell_angle_beta 35.193992
_cell_angle_gamma 90.000000
_cell_volume 2708.339504
_symmetry_space_group_name_H-M "C 2/C"
_symmetry_group_IT_number 15
_symmetry_cell_setting 'monoclinic'
loop_
_space_group_symop_operation_xyz
x,y,z
-x,y,1/2-z
-x,-y,-z
x,-y,1/2+z
1/2+x,1/2+y,z
1/2-x,1/2+y,1/2-z
1/2-x,1/2-y,-z
1/2+x,1/2-y,1/2+z
loop_
_atom_site_type_symbol
_atom_site_label
_atom_site_fract_x
_atom_site_fract_y
_atom_site_fract_z
Si Si1 0.958381 0.792734 0.093613
Si Si2 0.329961 0.823292 0.419476
Si Si3 0.255432 0.896496 0.307579
Si Si4 0.426659 0.845057 0.520258
Si Si5 0.905995 0.533183 0.155615
Si Si6 0.284845 0.209532 0.383488
Si Si7 0.000000 0.412977 0.750000
O O1 0.878423 0.863407 0.133128
O O2 0.889859 0.757203 0.236425
O O3 0.924324 0.735508 0.048099
O O4 0.131225 0.801126 0.962673
O O5 0.500000 0.811466 0.250000
O O6 0.250000 0.750000 0.500000
O O7 0.257886 0.869110 0.403999
O O8 0.338128 0.858972 0.506521
O O9 0.403928 0.864755 0.140301
O O10 0.276140 0.979427 0.284670
O O11 0.368841 0.891242 0.647904
O O12 0.003793 0.541756 0.160116
O O13 0.000000 0.500000 0.000000
O O14 0.250000 0.250000 0.500000
O O15 0.363561 0.138378 0.346679
#
# Coordination Sequence:
#
# PCOD9266046 Si02
#       7
#     8   8   8   8   8   8   4
#     4  12  21  38  64  96 129 160 209 271 322 371
#     4  10  20  34  58  91 122 158 205 260 312 370
#     4  10  22  37  60  94 127 165 216 258 313 381
#     4  10  19  37  59  89 127 167 211 257 314 373
#     4  10  23  39  61  90 125 169 217 258 308 382
#     4  12  23  39  63  96 127 159 211 264 322 375
#     4  12  24  42  66  94 124 170 218 264 316 384
#
# _framework density 19.199956
#
# number of rings (size 3 to 8) (size 9 to 14) (size 15 to 20)
#    0.000    1.231    6.154    0.000    7.538    0.000 
#    0.000    0.769    0.000    0.000    4.000    0.000 
#    0.000    0.000    0.000    0.000    0.000    0.000 
#
# Total GULP energy -145114.798298 kJ/mol
# GULP energy per Si atom -5581.338396 kJ/mol
# Density = 1.915626 g / cm^3
# Si number density = 19.199956 Si / 1000 Ang^3
#
#
#
# Elastic Constant Matrix: (Units=GPa)
#
#
# Indices 1 2 3 4 5 6 
#
# 1 104.8903 51.4746 39.6558 0.0004 12.1449 0.0006
# 2 51.4746 78.0209 17.8331 0.0008 -2.2474 -0.0001
# 3 39.6558 17.8331 54.1330 0.0021 9.4204 -0.0003
# 4 0.0004 0.0008 0.0021 37.7020 -0.0007 1.3793
# 5 12.1449 -2.2474 9.4204 -0.0007 38.0833 -0.0001
# 6 0.0006 -0.0001 -0.0003 1.3793 -0.0001 35.3705
#
#
#
# Elastic Compliance Matrix: (Units=1/GPa)
#
#
# Indices 1 2 3 4 5 6 
#
# 1 0.018666 -0.010249 -0.009569 0.000000 -0.004191 0.000000
# 2 -0.010249 0.019640 0.000279 0.000000 0.004358 0.000000
# 3 -0.009569 0.000279 0.025975 -0.000001 -0.003357 0.000000
# 4 0.000000 0.000000 -0.000001 0.026562 0.000001 -0.001036
# 5 -0.004191 0.004358 -0.003357 0.000001 0.028682 0.000000
# 6 0.000000 0.000000 0.000000 -0.001036 0.000000 0.028313
#
#
# Mechanical properties :
#
#
# Convention : Reuss Voigt Hill
#
# Bulk Modulus (GPa) = 39.67433 50.55237 45.11335
# Shear Modulus (GPa) = 25.59958 30.76988 28.18473
#
# Velocity S-wave (km/s) = 3.65542 4.00759 3.83555
# Velocity P-wave (km/s) = 6.20683 6.91383 6.56984
#
# Compressibility (1/GPa) = 0.02520522
#
# Stress axis : x y z
#
# Youngs Moduli (GPa) = 53.57314 50.91550 38.49874
#
# Poissons Ratio (x) = 0.52181 0.36838
# Poissons Ratio (y) = 0.54905 -0.01075
# Poissons Ratio (z) = 0.51262 -0.01421
#
# Static dielectric constant tensor:
#      x y z
#    x 1.676300 0.000000 0.030860 
#    y 0.000000 1.720140 0.000000 
#    z 0.030860 0.000000 1.668440 
# 
# From -- ./inp_files/155421.got.cif
#   From: 2010.05.17/outbox.cif.g08.bks.cpg/sg15_78_cif.got.tgz:155421.got - 2010.06.03 18:47:42.
