data_PCOD9266892
_publ_section_title
;
Structure prediction by ZEFSAII (Michael W. Deem and Ramdas Pophale) SiO2 
 PCOD9266892
Probable space group: C 2/C
;
_chemical_formula_sum "Si O2"
_cell_formula_units_Z 56
_cell_length_a 14.773463
_cell_length_b 11.391879
_cell_length_c 16.976523
_cell_angle_alpha 90.000000
_cell_angle_beta 115.938977
_cell_angle_gamma 90.000000
_cell_volume 2569.282740
_symmetry_space_group_name_H-M "C 2/C"
_symmetry_group_IT_number 15
_symmetry_cell_setting 'monoclinic'
loop_
_space_group_symop_operation_xyz
x,y,z
-x,y,1/2-z
-x,-y,-z
x,-y,1/2+z
1/2+x,1/2+y,z
1/2-x,1/2+y,1/2-z
1/2-x,1/2-y,-z
1/2+x,1/2-y,1/2+z
loop_
_atom_site_type_symbol
_atom_site_label
_atom_site_fract_x
_atom_site_fract_y
_atom_site_fract_z
Si Si1 0.048464 0.455014 0.849900
Si Si2 0.972008 0.121991 0.445994
Si Si3 0.633863 0.436674 0.888940
Si Si4 0.000000 0.104293 0.750000
Si Si5 0.060717 0.737819 0.122893
Si Si6 0.000000 0.320894 0.250000
Si Si7 0.773611 0.965995 0.921319
Si Si8 0.776233 0.730088 0.659590
O O1 0.163057 0.415747 0.891556
O O2 0.000000 0.412299 0.750000
O O3 0.983955 0.392094 0.890128
O O4 0.033693 0.594132 0.835619
O O5 0.851012 0.111503 0.399363
O O6 0.032916 0.122007 0.387755
O O7 0.021500 0.213584 0.524584
O O8 0.000000 0.000000 0.500000
O O9 0.595203 0.518900 0.803792
O O10 0.713123 0.334145 0.900482
O O11 0.678856 0.516903 0.974676
O O12 0.018609 0.180067 0.677848
O O13 0.181117 0.735989 0.176111
O O14 0.107944 0.268475 0.266551
O O15 0.754068 0.097823 0.879360
#
# Coordination Sequence:
#
# PCOD9266892 Si02
#       8
#     8   8   8   4   8   4   8   8
#     4   9  21  39  62  85 122 163 207 245 306 364
#     4  10  19  38  62  92 120 159 205 248 312 357
#     4  11  22  38  63  98 119 160 209 254 303 367
#     4  12  22  40  60  88 130 150 214 258 288 368
#     4  12  22  39  63  90 121 165 204 257 306 365
#     4   8  20  42  56  86 120 162 198 248 306 362
#     4  10  19  40  65  83 125 164 195 253 306 362
#     4  11  21  38  65  85 122 159 201 249 310 363
#
# _framework density 21.795964999999999
#
# number of rings (size 3 to 8) (size 9 to 14) (size 15 to 20)
#    0.429    1.143    6.429    0.857    0.000    1.714 
#    5.143    0.714    0.000    0.000    0.000    0.000 
#    0.000    0.000    0.000    0.000    0.000    0.000 
#
# Total GULP energy -155952.583588 kJ/mol
# GULP energy per Si atom -5569.735128 kJ/mol
# Density = 2.174636 g / cm^3
# Si number density = 21.795965 Si / 1000 Ang^3
#
#
#
# Elastic Constant Matrix: (Units=GPa)
#
#
# Indices 1 2 3 4 5 6 
#
# 1 155.5839 24.9948 18.0068 0.0000 28.3634 0.0000
# 2 24.9948 33.6262 -3.2402 0.0000 -2.1458 0.0000
# 3 18.0068 -3.2402 41.3588 0.0000 18.8436 0.0000
# 4 0.0000 0.0000 0.0000 53.3955 0.0000 16.2106
# 5 28.3634 -2.1458 18.8436 0.0000 37.5073 0.0000
# 6 0.0000 0.0000 0.0000 16.2106 0.0000 41.8232
#
#
#
# Elastic Compliance Matrix: (Units=1/GPa)
#
#
# Indices 1 2 3 4 5 6 
#
# 1 0.008925 -0.007190 -0.001539 0.000000 -0.006387 0.000000
# 2 -0.007190 0.035771 0.003272 0.000000 0.005840 0.000000
# 3 -0.001539 0.003272 0.031759 0.000000 -0.014605 0.000000
# 4 0.000000 0.000000 0.000000 0.021226 0.000000 -0.008227
# 5 -0.006387 0.005840 -0.014605 0.000000 0.039163 0.000000
# 6 0.000000 0.000000 0.000000 -0.008227 0.000000 0.027099
#
#
# Mechanical properties :
#
#
# Convention : Reuss Voigt Hill
#
# Bulk Modulus (GPa) = 15.25739 34.45463 24.85601
# Shear Modulus (GPa) = 25.41888 39.26569 32.34228
#
# Velocity S-wave (km/s) = 3.41870 4.24903 3.85628
# Velocity P-wave (km/s) = 4.75380 6.31779 5.59075
#
# Compressibility (1/GPa) = 0.06554199
#
# Stress axis : x y z
#
# Youngs Moduli (GPa) = 112.04424 27.95547 31.48698
#
# Poissons Ratio (x) = 0.20100 0.04846
# Poissons Ratio (y) = 0.80560 -0.10303
# Poissons Ratio (z) = 0.17242 -0.09148
#
# Static dielectric constant tensor:
#      x y z
#    x 1.919660 0.000000 0.047710 
#    y 0.000000 1.899530 0.000000 
#    z 0.047710 0.000000 1.754820 
# 
# From -- ./inp_files/204147.got.cif
#   From: 2010.05.17/outbox.cif.g08.bks.cpg/sg15_103_cif.got.tgz:204147.got - 2010.06.03 18:47:42.
