data_PCOD9266053
_publ_section_title
;
Structure prediction by ZEFSAII (Michael W. Deem and Ramdas Pophale) SiO2 
 PCOD9266053
Probable space group: C 2/C
;
_chemical_formula_sum "Si O2"
_cell_formula_units_Z 48
_cell_length_a 12.369024
_cell_length_b 21.424806
_cell_length_c 26.956783
_cell_angle_alpha 90.000000
_cell_angle_beta 158.953589
_cell_angle_gamma 90.000000
_cell_volume 2565.457883
_symmetry_space_group_name_H-M "C 2/C"
_symmetry_group_IT_number 15
_symmetry_cell_setting 'monoclinic'
loop_
_space_group_symop_operation_xyz
x,y,z
-x,y,1/2-z
-x,-y,-z
x,-y,1/2+z
1/2+x,1/2+y,z
1/2-x,1/2+y,1/2-z
1/2-x,1/2-y,-z
1/2+x,1/2-y,1/2+z
loop_
_atom_site_type_symbol
_atom_site_label
_atom_site_fract_x
_atom_site_fract_y
_atom_site_fract_z
Si Si1 0.207421 0.669806 0.796104
Si Si2 0.161515 0.012347 0.870161
Si Si3 0.224608 0.368457 0.016747
Si Si4 0.037044 0.125468 0.184880
Si Si5 0.667479 0.308569 0.997759
Si Si6 0.579231 0.220673 0.047240
O O1 0.271219 0.740097 0.843349
O O2 0.000000 0.639266 0.750000
O O3 0.987425 0.666709 0.654874
O O4 0.533105 0.645318 0.921717
O O5 0.000000 0.031070 0.750000
O O6 0.172161 0.067257 0.914373
O O7 0.037472 0.946782 0.837165
O O8 0.500000 0.000000 0.000000
O O9 0.882248 0.367997 0.850183
O O10 0.203884 0.315748 0.051032
O O11 0.799978 0.169074 0.115250
O O12 0.997953 0.144663 0.110425
O O13 0.510164 0.276055 0.978114
O O14 0.750000 0.250000 0.000000
#
# Coordination Sequence:
#
# PCOD9266053 Si02
#       6
#     8   8   8   8   8   8
#     4  10  22  39  58  86 121 162 206 247 297 359
#     4  12  24  40  62  94 124 155 199 251 303 360
#     4  12  23  37  64  88 123 162 199 249 306 359
#     4  11  21  39  60  90 127 159 192 248 308 360
#     4   9  19  34  57  83 122 160 193 242 292 353
#     4  10  19  37  59  90 128 158 196 246 302 360
#
# _framework density 18.710111000000001
#
# number of rings (size 3 to 8) (size 9 to 14) (size 15 to 20)
#    0.000    1.333    3.333    5.000    2.333    0.000 
#    0.000    8.333    0.000    9.000    0.000    0.000 
#    0.000    0.000    0.000    0.000    0.000    0.000 
#
# Total GULP energy -133680.867957 kJ/mol
# GULP energy per Si atom -5570.036165 kJ/mol
# Density = 1.866753 g / cm^3
# Si number density = 18.710111 Si / 1000 Ang^3
#
#
#
# Elastic Constant Matrix: (Units=GPa)
#
#
# Indices 1 2 3 4 5 6 
#
# 1 80.9200 45.7248 56.8588 0.0234 12.5344 -0.0034
# 2 45.7248 90.7626 32.5693 -0.0127 3.2545 -0.0069
# 3 56.8588 32.5693 90.1912 0.0257 -2.9992 -0.0295
# 4 0.0234 -0.0127 0.0257 24.8310 -0.0133 -3.4291
# 5 12.5344 3.2545 -2.9992 -0.0133 46.4895 0.0046
# 6 -0.0034 -0.0069 -0.0295 -3.4291 0.0046 34.3829
#
#
#
# Elastic Compliance Matrix: (Units=1/GPa)
#
#
# Indices 1 2 3 4 5 6 
#
# 1 0.029980 -0.009095 -0.015897 -0.000023 -0.008472 -0.000014
# 2 -0.009095 0.015482 0.000189 0.000018 0.001380 0.000004
# 3 -0.015897 0.000189 0.021229 -0.000002 0.005643 0.000016
# 4 -0.000023 0.000018 -0.000002 0.040835 0.000016 0.004073
# 5 -0.008472 0.001380 0.005643 0.000016 0.024062 0.000003
# 6 -0.000014 0.000004 0.000016 0.004073 0.000003 0.029490
#
#
# Mechanical properties :
#
#
# Convention : Reuss Voigt Hill
#
# Bulk Modulus (GPa) = 58.53419 59.13104 58.83262
# Shear Modulus (GPa) = 23.10746 29.58874 26.34810
#
# Velocity S-wave (km/s) = 3.51811 3.98103 3.75671
# Velocity P-wave (km/s) = 6.91776 7.26663 7.09434
#
# Compressibility (1/GPa) = 0.01708403
#
# Stress axis : x y z
#
# Youngs Moduli (GPa) = 33.35586 64.58927 47.10494
#
# Poissons Ratio (x) = 0.58743 0.74885
# Poissons Ratio (y) = 0.30337 -0.00889
# Poissons Ratio (z) = 0.53027 -0.01218
#
# Static dielectric constant tensor:
#      x y z
#    x 1.759480 0.000830 -0.029730 
#    y 0.000830 2.429810 0.000040 
#    z -0.029730 0.000040 1.677260 
# 
# From -- ./inp_files/293820.got.cif
#   From: 2010.05.17/outbox.cif.g08.bks.cpg/sg15_147_cif.got.tgz:293820.got - 2010.06.03 18:47:42.
