data_PCOD9266937
_publ_section_title
;
Structure prediction by ZEFSAII (Michael W. Deem and Ramdas Pophale) SiO2 
 PCOD9266937
Probable space group: C 2/C
;
_chemical_formula_sum "Si O2"
_cell_formula_units_Z 60
_cell_length_a 15.545907
_cell_length_b 19.185157
_cell_length_c 8.931289
_cell_angle_alpha 90.000000
_cell_angle_beta 114.438766
_cell_angle_gamma 90.000000
_cell_volume 2425.100259
_symmetry_space_group_name_H-M "C 2/C"
_symmetry_group_IT_number 15
_symmetry_cell_setting 'monoclinic'
loop_
_space_group_symop_operation_xyz
x,y,z
-x,y,1/2-z
-x,-y,-z
x,-y,1/2+z
1/2+x,1/2+y,z
1/2-x,1/2+y,1/2-z
1/2-x,1/2-y,-z
1/2+x,1/2-y,1/2+z
loop_
_atom_site_type_symbol
_atom_site_label
_atom_site_fract_x
_atom_site_fract_y
_atom_site_fract_z
Si Si1 0.190686 0.846092 0.647570
Si Si2 0.283939 0.407392 0.376604
Si Si3 0.000000 0.484215 0.750000
Si Si4 0.180386 0.691292 0.017650
Si Si5 0.953652 0.734358 0.824622
Si Si6 0.605701 0.468144 0.787696
Si Si7 0.603637 0.916590 0.086118
Si Si8 0.104465 0.867649 0.275374
O O1 0.121312 0.784026 0.646463
O O2 0.153541 0.916446 0.702312
O O3 0.176449 0.852362 0.460807
O O4 0.292493 0.825427 0.792487
O O5 0.211739 0.374829 0.444609
O O6 0.338269 0.461898 0.516438
O O7 0.214049 0.430508 0.194741
O O8 0.351644 0.346791 0.353435
O O9 0.051046 0.533137 0.666203
O O10 0.928136 0.437302 0.602674
O O11 0.073240 0.706622 0.885837
O O12 0.250000 0.750000 0.000000
O O13 0.924898 0.662247 0.893244
O O14 0.000000 0.797389 0.750000
O O15 0.500000 0.447304 0.750000
O O16 0.598175 0.549397 0.739714
O O17 0.000000 0.843004 0.250000
#
# Coordination Sequence:
#
# PCOD9266937 Si02
#       8
#     8   8   4   8   8   8   8   8
#     4  10  20  37  60  84 113 165 203 238 296 348
#     4  10  21  36  59  86 121 154 202 240 291 357
#     4  10  22  44  68  88 128 148 190 250 320 356
#     4   8  18  37  58  79 110 150 201 242 288 349
#     4  10  19  38  63  89 115 150 206 249 295 362
#     4  10  20  37  58  83 118 162 204 242 285 347
#     4  10  22  42  64  94 118 155 192 252 304 368
#     4  11  23  37  53  88 129 157 198 250 294 338
#
# _framework density 24.741244999999999
#
# number of rings (size 3 to 8) (size 9 to 14) (size 15 to 20)
#    0.000    2.133    0.667    2.000    1.867    4.267 
#    6.000    6.000    0.000    0.000    0.000    0.000 
#    0.000    0.000    0.000    0.000    0.000    0.000 
#
# Total GULP energy -167076.033608 kJ/mol
# GULP energy per Si atom -5569.201120 kJ/mol
# Density = 2.468493 g / cm^3
# Si number density = 24.741245 Si / 1000 Ang^3
#
#
#
# Elastic Constant Matrix: (Units=GPa)
#
#
# Indices 1 2 3 4 5 6 
#
# 1 80.5076 2.2163 15.1613 0.0000 15.1489 0.0000
# 2 2.2163 94.8434 26.7834 0.0000 6.3664 0.0000
# 3 15.1613 26.7834 131.6628 0.0000 10.2014 0.0000
# 4 0.0000 0.0000 0.0000 9.4871 0.0000 -16.9154
# 5 15.1489 6.3664 10.2014 0.0000 43.9761 0.0000
# 6 0.0000 0.0000 0.0000 -16.9154 0.0000 19.7875
#
#
#
# Elastic Compliance Matrix: (Units=1/GPa)
#
#
# Indices 1 2 3 4 5 6 
#
# 1 0.013480 0.000342 -0.001281 0.000000 -0.004396 0.000000
# 2 0.000342 0.011249 -0.002232 0.000000 -0.001228 0.000000
# 3 -0.001281 -0.002232 0.008287 0.000000 -0.001158 0.000000
# 4 0.000000 0.000000 0.000000 -0.201080 0.000000 -0.171893
# 5 -0.004396 -0.001228 -0.001158 0.000000 0.024700 0.000000
# 6 0.000000 0.000000 0.000000 -0.171893 0.000000 -0.096407
#
#
# Mechanical properties :
#
#
# Convention : Reuss Voigt Hill
#
# Bulk Modulus (GPa) = 37.49275 43.92618 40.70947
# Shear Modulus (GPa) = -22.26810 32.17365 4.95277
#
# Velocity S-wave (km/s) = -3.00332 3.61003 1.41639
# Velocity P-wave (km/s) = 1.77771 5.93036 4.37775
#
# Compressibility (1/GPa) = 0.02667183
#
# Stress axis : x y z
#
# Youngs Moduli (GPa) = 74.18268 88.90000 120.67773
#
# Poissons Ratio (x) = -0.03039 0.15462
# Poissons Ratio (y) = -0.02536 0.26940
# Poissons Ratio (z) = 0.09505 0.19846
#
# Static dielectric constant tensor:
#      x y z
#    x 2.093370 0.000000 -0.001720 
#    y 0.000000 1.962770 0.000000 
#    z -0.001720 0.000000 1.947060 
# 
# From -- ./inp_files/50687.got.cif
#   From: 2010.05.17/outbox.cif.g08.bks.cpg/sg15_26_cif.got.tgz:50687.got - 2010.06.03 18:47:42.
