data_PCOD9266877
_publ_section_title
;
Structure prediction by ZEFSAII (Michael W. Deem and Ramdas Pophale) SiO2 
 PCOD9266877
Probable space group: C 2/C
;
_chemical_formula_sum "Si O2"
_cell_formula_units_Z 56
_cell_length_a 12.741626
_cell_length_b 12.960145
_cell_length_c 16.627797
_cell_angle_alpha 90.000000
_cell_angle_beta 126.764092
_cell_angle_gamma 90.000000
_cell_volume 2199.681252
_symmetry_space_group_name_H-M "C 2/C"
_symmetry_group_IT_number 15
_symmetry_cell_setting 'monoclinic'
loop_
_space_group_symop_operation_xyz
x,y,z
-x,y,1/2-z
-x,-y,-z
x,-y,1/2+z
1/2+x,1/2+y,z
1/2-x,1/2+y,1/2-z
1/2-x,1/2-y,-z
1/2+x,1/2-y,1/2+z
loop_
_atom_site_type_symbol
_atom_site_label
_atom_site_fract_x
_atom_site_fract_y
_atom_site_fract_z
Si Si1 0.715572 0.363740 0.211951
Si Si2 0.838731 0.084984 0.343560
Si Si3 0.591825 0.122588 0.449932
Si Si4 0.015114 0.598262 0.852367
Si Si5 0.818756 0.235819 0.641797
Si Si6 0.313807 0.150321 0.384407
Si Si7 0.420244 0.326012 0.628709
O O1 0.666330 0.464132 0.142917
O O2 0.642400 0.327470 0.259971
O O3 0.711788 0.269705 0.148346
O O4 0.864939 0.381360 0.309133
O O5 0.775500 0.168831 0.373432
O O6 0.746850 0.093986 0.221678
O O7 0.985672 0.117155 0.389835
O O8 0.729411 0.155724 0.551065
O O9 0.580512 0.203264 0.369996
O O10 0.468951 0.134752 0.454409
O O11 0.577792 0.005716 0.414376
O O12 0.088123 0.706496 0.899487
O O13 0.000000 0.581629 0.750000
O O14 0.216920 0.122976 0.412211
O O15 0.500000 0.325924 0.750000
#
# Coordination Sequence:
#
# PCOD9266877 Si02
#       7
#     8   8   8   8   8   8   8
#     4  11  20  36  64  92 113 157 215 252 296 364
#     4  10  19  38  62  90 121 156 198 265 302 343
#     4  11  24  40  60  89 129 165 198 251 317 361
#     4  11  18  34  65  91 112 161 211 250 288 366
#     4  10  24  42  59  89 132 158 200 263 308 362
#     4  10  20  37  58  90 116 158 207 248 301 374
#     4   9  17  35  57  86 124 145 200 259 302 347
#
# _framework density 25.458233
#
# number of rings (size 3 to 8) (size 9 to 14) (size 15 to 20)
#    0.000    1.714    7.143    0.857    2.000    0.571 
#    7.714    1.429    0.000    0.000    0.000    0.000 
#    0.000    0.000    0.000    0.000    0.000    0.000 
#
# Total GULP energy -156713.843073 kJ/mol
# GULP energy per Si atom -5596.922967 kJ/mol
# Density = 2.540029 g / cm^3
# Si number density = 25.458233 Si / 1000 Ang^3
#
#
#
# Elastic Constant Matrix: (Units=GPa)
#
#
# Indices 1 2 3 4 5 6 
#
# 1 96.3696 2.0524 12.7247 0.0000 4.3358 0.0000
# 2 2.0524 112.0699 11.5230 0.0000 7.0818 0.0000
# 3 12.7247 11.5230 56.7943 0.0000 11.8100 0.0000
# 4 0.0000 0.0000 0.0000 30.0409 0.0000 11.6492
# 5 4.3358 7.0818 11.8100 0.0000 18.8686 0.0000
# 6 0.0000 0.0000 0.0000 11.6492 0.0000 20.6593
#
#
#
# Elastic Compliance Matrix: (Units=1/GPa)
#
#
# Indices 1 2 3 4 5 6 
#
# 1 0.010714 0.000100 -0.002185 0.000000 -0.001132 0.000000
# 2 0.000100 0.009227 -0.001344 0.000000 -0.002644 0.000000
# 3 -0.002185 -0.001344 0.020878 0.000000 -0.012061 0.000000
# 4 0.000000 0.000000 0.000000 0.042603 0.000000 -0.024023
# 5 -0.001132 -0.002644 -0.012061 0.000000 0.061800 0.000000
# 6 0.000000 0.000000 0.000000 -0.024023 0.000000 0.061950
#
#
# Mechanical properties :
#
#
# Convention : Reuss Voigt Hill
#
# Bulk Modulus (GPa) = 29.44768 35.31489 32.38128
# Shear Modulus (GPa) = 22.18759 29.84266 26.01513
#
# Velocity S-wave (km/s) = 2.95537 3.42748 3.20015
# Velocity P-wave (km/s) = 4.82056 5.43740 5.13825
#
# Compressibility (1/GPa) = 0.03395854
#
# Stress axis : x y z
#
# Youngs Moduli (GPa) = 93.33523 108.38331 47.89769
#
# Poissons Ratio (x) = -0.01084 0.10468
# Poissons Ratio (y) = -0.00933 0.06440
# Poissons Ratio (z) = 0.20398 0.14572
#
# Static dielectric constant tensor:
#      x y z
#    x 2.081180 0.000000 -0.008840 
#    y 0.000000 1.954300 0.000000 
#    z -0.008840 0.000000 2.102100 
# 
# From -- ./inp_files/198409.got.cif
#   From: 2010.05.17/outbox.cif.g08.bks.cpg/sg15_100_cif.got.tgz:198409.got - 2010.06.03 18:47:42.
