data_PCOD9266988
_publ_section_title
;
Structure prediction by ZEFSAII (Michael W. Deem and Ramdas Pophale) SiO2 
 PCOD9266988
Probable space group: C 2/C
;
_chemical_formula_sum "Si O2"
_cell_formula_units_Z 60
_cell_length_a 13.856243
_cell_length_b 10.788342
_cell_length_c 21.777219
_cell_angle_alpha 90.000000
_cell_angle_beta 51.969571
_cell_angle_gamma 90.000000
_cell_volume 2564.215132
_symmetry_space_group_name_H-M "C 2/C"
_symmetry_group_IT_number 15
_symmetry_cell_setting 'monoclinic'
loop_
_space_group_symop_operation_xyz
x,y,z
-x,y,1/2-z
-x,-y,-z
x,-y,1/2+z
1/2+x,1/2+y,z
1/2-x,1/2+y,1/2-z
1/2-x,1/2-y,-z
1/2+x,1/2-y,1/2+z
loop_
_atom_site_type_symbol
_atom_site_label
_atom_site_fract_x
_atom_site_fract_y
_atom_site_fract_z
Si Si1 0.963675 0.497344 0.826549
Si Si2 0.732458 0.018489 0.749595
Si Si3 0.695272 0.229883 0.616541
Si Si4 0.065807 0.187689 0.040088
Si Si5 0.352127 0.777297 0.911173
Si Si6 0.985492 0.953692 0.127485
Si Si7 0.222172 0.243432 0.331036
Si Si8 0.000000 0.102785 0.250000
O O1 0.857967 0.593291 0.852883
O O2 0.915640 0.408386 0.897291
O O3 0.000000 0.425747 0.750000
O O4 0.092225 0.555832 0.793673
O O5 0.845150 0.059283 0.662383
O O6 0.740473 0.867082 0.733038
O O7 0.755574 0.115477 0.797399
O O8 0.841323 0.233028 0.549332
O O9 0.631923 0.267325 0.576497
O O10 0.624089 0.316528 0.692750
O O11 0.058248 0.038243 0.050340
O O12 0.924287 0.230850 0.097586
O O13 0.452915 0.673562 0.880731
O O14 0.292006 0.780086 0.867493
O O15 0.250000 0.750000 0.000000
O O16 0.984477 0.028134 0.192878
#
# Coordination Sequence:
#
# PCOD9266988 Si02
#       8
#     8   8   8   8   8   8   8   4
#     4  12  23  41  68 100 134 183 237 294 347 423
#     4  11  23  42  73 105 141 177 249 303 353 422
#     4  10  19  38  63  97 133 168 218 291 357 410
#     4   9  20  39  66  94 137 172 224 288 355 417
#     4  12  27  48  68 100 152 198 230 283 373 445
#     4  10  22  41  65  94 134 184 227 285 345 428
#     4  11  23  45  73 110 142 189 244 304 358 434
#     4  10  20  36  66  96 122 170 230 284 354 398
#
# _framework density 23.398972000000001
#
# number of rings (size 3 to 8) (size 9 to 14) (size 15 to 20)
#    0.000    1.333    3.333    2.400    0.933    0.000 
#    4.800    2.667    0.000    0.000    0.000    0.000 
#    0.000    0.000    0.000    0.000    0.000    0.000 
#
# Total GULP energy -167247.806180 kJ/mol
# GULP energy per Si atom -5574.926873 kJ/mol
# Density = 2.334572 g / cm^3
# Si number density = 23.398972 Si / 1000 Ang^3
#
#
#
# Elastic Constant Matrix: (Units=GPa)
#
#
# Indices 1 2 3 4 5 6 
#
# 1 82.9100 20.2618 23.7795 0.0000 -23.8020 0.0000
# 2 20.2618 88.4555 26.2356 0.0000 -9.3672 0.0000
# 3 23.7795 26.2356 72.0289 0.0000 -22.4152 0.0000
# 4 0.0000 0.0000 0.0000 11.8194 0.0000 1.7872
# 5 -23.8020 -9.3672 -22.4152 0.0000 45.8811 0.0000
# 6 0.0000 0.0000 0.0000 1.7872 0.0000 18.7542
#
#
#
# Elastic Compliance Matrix: (Units=1/GPa)
#
#
# Indices 1 2 3 4 5 6 
#
# 1 0.015019 -0.002113 -0.002239 0.000000 0.006266 0.000000
# 2 -0.002113 0.012978 -0.004182 0.000000 -0.000489 0.000000
# 3 -0.002239 -0.004182 0.018301 0.000000 0.006926 0.000000
# 4 0.000000 0.000000 0.000000 0.085843 0.000000 -0.008180
# 5 0.006266 -0.000489 0.006926 0.000000 0.028330 0.000000
# 6 0.000000 0.000000 0.000000 -0.008180 0.000000 0.054101
#
#
# Mechanical properties :
#
#
# Convention : Reuss Voigt Hill
#
# Bulk Modulus (GPa) = 34.21050 42.66093 38.43572
# Shear Modulus (GPa) = 20.71416 26.83212 23.77314
#
# Velocity S-wave (km/s) = 2.97856 3.39000 3.19092
# Velocity P-wave (km/s) = 5.14600 5.79606 5.48068
#
# Compressibility (1/GPa) = 0.02923079
#
# Stress axis : x y z
#
# Youngs Moduli (GPa) = 66.58432 77.05643 54.64243
#
# Poissons Ratio (x) = 0.16279 0.12233
# Poissons Ratio (y) = 0.14067 0.22850
# Poissons Ratio (z) = 0.14906 0.32223
#
# Static dielectric constant tensor:
#      x y z
#    x 1.932150 0.000000 0.032910 
#    y 0.000000 1.891070 0.000000 
#    z 0.032910 0.000000 1.885510 
# 
# From -- ./inp_files/273839.got.cif
#   From: 2010.05.17/outbox.cif.g08.bks.cpg/sg15_137_cif.got.tgz:273839.got - 2010.06.03 18:47:42.
