data_PCOD9266408
_publ_section_title
;
Structure prediction by ZEFSAII (Michael W. Deem and Ramdas Pophale) SiO2 
 PCOD9266408
Probable space group: C 2/C
;
_chemical_formula_sum "Si O2"
_cell_formula_units_Z 32
_cell_length_a 9.115157
_cell_length_b 16.073464
_cell_length_c 10.329818
_cell_angle_alpha 90.000000
_cell_angle_beta 53.599289
_cell_angle_gamma 90.000000
_cell_volume 1218.150400
_symmetry_space_group_name_H-M "C 2/C"
_symmetry_group_IT_number 15
_symmetry_cell_setting 'monoclinic'
loop_
_space_group_symop_operation_xyz
x,y,z
-x,y,1/2-z
-x,-y,-z
x,-y,1/2+z
1/2+x,1/2+y,z
1/2-x,1/2+y,1/2-z
1/2-x,1/2-y,-z
1/2+x,1/2-y,1/2+z
loop_
_atom_site_type_symbol
_atom_site_label
_atom_site_fract_x
_atom_site_fract_y
_atom_site_fract_z
Si Si1 0.285965 0.133124 0.674100
Si Si2 0.620734 0.427232 0.035994
Si Si3 0.698315 0.291198 0.661167
Si Si4 0.779772 0.540083 0.173037
O O1 0.253191 0.139445 0.537247
O O2 0.177027 0.006385 0.097264
O O3 0.392216 0.045331 0.646410
O O4 0.082373 0.107716 0.836327
O O5 0.666333 0.445266 0.865281
O O6 0.500000 0.331836 0.750000
O O7 0.750000 0.250000 0.500000
O O8 0.839049 0.364855 0.618019
O O9 0.671045 0.218413 0.779516
#
# Coordination Sequence:
#
# PCOD9266408 Si02
#       4
#     8   8   8   8
#     4   9  20  33  60  90 123 152 214 255 305 353
#     4   9  18  34  64  90 120 156 208 264 299 360
#     4  12  24  40  66  91 126 168 212 250 310 376
#     4  10  19  37  64  90 120 162 214 250 306 365
#
# _framework density 26.269334000000001
#
# number of rings (size 3 to 8) (size 9 to 14) (size 15 to 20)
#    1.500    0.500    0.000    5.250    0.000    1.000 
#    0.000    1.250    5.500    0.000    0.000    0.000 
#    0.000    0.000    0.000    0.000    0.000    0.000 
#
# Total GULP energy -89128.187112 kJ/mol
# GULP energy per Si atom -5570.511694 kJ/mol
# Density = 2.620954 g / cm^3
# Si number density = 26.269334 Si / 1000 Ang^3
#
#
#
# Elastic Constant Matrix: (Units=GPa)
#
#
# Indices 1 2 3 4 5 6 
#
# 1 77.3384 36.6169 25.4669 0.0000 8.3800 0.0000
# 2 36.6169 207.1853 38.2658 0.0000 15.4225 0.0000
# 3 25.4669 38.2658 94.3769 0.0000 37.3656 0.0000
# 4 0.0000 0.0000 0.0000 57.4132 0.0000 5.5118
# 5 8.3800 15.4225 37.3656 0.0000 46.0125 0.0000
# 6 0.0000 0.0000 0.0000 5.5118 0.0000 42.9513
#
#
#
# Elastic Compliance Matrix: (Units=1/GPa)
#
#
# Indices 1 2 3 4 5 6 
#
# 1 0.014978 -0.002056 -0.003539 0.000000 0.000835 0.000000
# 2 -0.002056 0.005500 -0.001612 0.000000 -0.000160 0.000000
# 3 -0.003539 -0.001612 0.017296 0.000000 -0.012861 0.000000
# 4 0.000000 0.000000 0.000000 0.017635 0.000000 -0.002263
# 5 0.000835 -0.000160 -0.012861 0.000000 0.032079 0.000000
# 6 0.000000 0.000000 0.000000 -0.002263 0.000000 0.023573
#
#
# Mechanical properties :
#
#
# Convention : Reuss Voigt Hill
#
# Bulk Modulus (GPa) = 42.80559 64.39998 53.60279
# Shear Modulus (GPa) = 37.52059 47.84546 42.68302
#
# Velocity S-wave (km/s) = 3.78339 4.27235 4.03528
# Velocity P-wave (km/s) = 5.95111 6.99327 6.49313
#
# Compressibility (1/GPa) = 0.02336143
#
# Stress axis : x y z
#
# Youngs Moduli (GPa) = 66.76302 181.83444 57.81630
#
# Poissons Ratio (x) = 0.37381 0.20460
# Poissons Ratio (y) = 0.13725 0.09318
# Poissons Ratio (z) = 0.23626 0.29306
#
# Static dielectric constant tensor:
#      x y z
#    x 2.281790 0.000000 -0.157020 
#    y 0.000000 2.188400 0.000000 
#    z -0.157020 0.000000 2.141060 
# 
# From -- ./inp_files/30052.got.cif
#   From: 2010.05.17/outbox.cif.g08.bks.cpg/sg15_16_cif.got.tgz:30052.got - 2010.06.03 18:47:42.
