data_PCOD9266698
_publ_section_title
;
Structure prediction by ZEFSAII (Michael W. Deem and Ramdas Pophale) SiO2 
 PCOD9266698
Probable space group: C 2/C
;
_chemical_formula_sum "Si O2"
_cell_formula_units_Z 48
_cell_length_a 13.973817
_cell_length_b 11.996820
_cell_length_c 14.175766
_cell_angle_alpha 90.000000
_cell_angle_beta 98.474111
_cell_angle_gamma 90.000000
_cell_volume 2350.500077
_symmetry_space_group_name_H-M "C 2/C"
_symmetry_group_IT_number 15
_symmetry_cell_setting 'monoclinic'
loop_
_space_group_symop_operation_xyz
x,y,z
-x,y,1/2-z
-x,-y,-z
x,-y,1/2+z
1/2+x,1/2+y,z
1/2-x,1/2+y,1/2-z
1/2-x,1/2-y,-z
1/2+x,1/2-y,1/2+z
loop_
_atom_site_type_symbol
_atom_site_label
_atom_site_fract_x
_atom_site_fract_y
_atom_site_fract_z
Si Si1 0.751315 0.944274 0.029985
Si Si2 0.077610 0.258844 0.693877
Si Si3 0.773482 0.732902 0.133886
Si Si4 0.100652 0.307264 0.234592
Si Si5 0.267869 0.660652 0.918855
Si Si6 0.562800 0.983106 0.601724
O O1 0.805080 0.859321 0.109050
O O2 0.672565 0.010180 0.080231
O O3 0.713777 0.850629 0.950951
O O4 0.789876 0.041516 0.969322
O O5 0.159959 0.309078 0.773091
O O6 0.136923 0.189929 0.626855
O O7 0.031098 0.365461 0.638127
O O8 0.000000 0.200982 0.750000
O O9 0.666159 0.745821 0.163859
O O10 0.174949 0.334353 0.332634
O O11 0.061078 0.418350 0.177048
O O12 0.000000 0.247754 0.250000
O O13 0.250000 0.750000 0.000000
O O14 0.500000 0.000000 0.500000
#
# Coordination Sequence:
#
# PCOD9266698 Si02
#       6
#     8   8   8   8   8   8
#     4  10  19  38  59  86 117 157 209 242 309 362
#     4  11  22  38  58  90 124 159 203 252 316 368
#     4   9  21  38  61  85 122 165 197 258 298 369
#     4  10  21  36  59  92 123 156 207 252 317 366
#     4  11  22  40  62  88 123 170 201 258 308 373
#     4  11  20  33  63  94 121 152 198 272 324 365
#
# _framework density 20.421188000000001
#
# number of rings (size 3 to 8) (size 9 to 14) (size 15 to 20)
#    0.000    1.667    1.667    3.500    0.000    0.000 
#    0.000    1.667    0.000    0.000    0.000    0.000 
#    0.000    0.000    0.000    0.000    0.000    0.000 
#
# Total GULP energy -133633.287389 kJ/mol
# GULP energy per Si atom -5568.053641 kJ/mol
# Density = 2.037471 g / cm^3
# Si number density = 20.421188 Si / 1000 Ang^3
#
#
#
# Elastic Constant Matrix: (Units=GPa)
#
#
# Indices 1 2 3 4 5 6 
#
# 1 92.0294 16.1702 26.9236 0.0000 -26.1203 0.0000
# 2 16.1702 71.1958 24.4364 0.0000 -3.8710 0.0000
# 3 26.9236 24.4364 100.8759 0.0000 -6.0268 0.0000
# 4 0.0000 0.0000 0.0000 26.8862 0.0000 0.6780
# 5 -26.1203 -3.8710 -6.0268 0.0000 40.6446 0.0000
# 6 0.0000 0.0000 0.0000 0.6780 0.0000 12.7913
#
#
#
# Elastic Compliance Matrix: (Units=1/GPa)
#
#
# Indices 1 2 3 4 5 6 
#
# 1 0.014513 -0.001823 -0.002911 0.000000 0.008722 0.000000
# 2 -0.001823 0.015582 -0.003299 0.000000 -0.000177 0.000000
# 3 -0.002911 -0.003299 0.011460 0.000000 -0.000486 0.000000
# 4 0.000000 0.000000 0.000000 0.037244 0.000000 -0.001974
# 5 0.008722 -0.000177 -0.000486 0.000000 0.030120 0.000000
# 6 0.000000 0.000000 0.000000 -0.001974 0.000000 0.078283
#
#
# Mechanical properties :
#
#
# Convention : Reuss Voigt Hill
#
# Bulk Modulus (GPa) = 39.22989 44.35128 41.79059
# Shear Modulus (GPa) = 23.61116 29.16915 26.39016
#
# Velocity S-wave (km/s) = 3.40400 3.78349 3.59875
# Velocity P-wave (km/s) = 5.89081 6.39154 6.14628
#
# Compressibility (1/GPa) = 0.02549077
#
# Stress axis : x y z
#
# Youngs Moduli (GPa) = 68.90138 64.17485 87.25872
#
# Poissons Ratio (x) = 0.11699 0.25400
# Poissons Ratio (y) = 0.12561 0.28784
# Poissons Ratio (z) = 0.20057 0.21169
#
# Static dielectric constant tensor:
#      x y z
#    x 1.780010 0.000000 -0.067600 
#    y 0.000000 1.803810 0.000000 
#    z -0.067600 0.000000 1.767610 
# 
# From -- ./inp_files/152119.got.cif
#   From: 2010.05.17/outbox.cif.g08.bks.cpg/sg15_77_cif.got.tgz:152119.got - 2010.06.03 18:47:42.
