data_PCOD9266164
_publ_section_title
;
Structure prediction by ZEFSAII (Michael W. Deem and Ramdas Pophale) SiO2 
 PCOD9266164
Probable space group: C 2/C
;
_chemical_formula_sum "Si O2"
_cell_formula_units_Z 52
_cell_length_a 13.932458
_cell_length_b 10.810794
_cell_length_c 19.502594
_cell_angle_alpha 90.000000
_cell_angle_beta 61.019877
_cell_angle_gamma 90.000000
_cell_volume 2569.688340
_symmetry_space_group_name_H-M "C 2/C"
_symmetry_group_IT_number 15
_symmetry_cell_setting 'monoclinic'
loop_
_space_group_symop_operation_xyz
x,y,z
-x,y,1/2-z
-x,-y,-z
x,-y,1/2+z
1/2+x,1/2+y,z
1/2-x,1/2+y,1/2-z
1/2-x,1/2-y,-z
1/2+x,1/2-y,1/2+z
loop_
_atom_site_type_symbol
_atom_site_label
_atom_site_fract_x
_atom_site_fract_y
_atom_site_fract_z
Si Si1 0.430505 0.331446 0.059651
Si Si2 0.217821 0.296602 0.348802
Si Si3 0.116191 0.411193 0.671270
Si Si4 0.500000 0.326598 0.750000
Si Si5 0.211872 0.344442 0.198075
Si Si6 0.478012 0.598460 0.107177
Si Si7 0.855785 0.667726 0.485192
O O1 0.317712 0.280408 0.128278
O O2 0.446593 0.463629 0.090992
O O3 0.536571 0.251103 0.041275
O O4 0.429981 0.353413 0.978032
O O5 0.326592 0.218924 0.329433
O O6 0.230318 0.364192 0.272583
O O7 0.178989 0.378283 0.427048
O O8 0.123556 0.192589 0.368917
O O9 0.189993 0.523709 0.671625
O O10 0.115225 0.418962 0.588847
O O11 0.000000 0.419912 0.750000
O O12 0.394386 0.239129 0.777910
O O13 0.490506 0.401608 0.824137
O O14 0.750000 0.750000 0.500000
#
# Coordination Sequence:
#
# PCOD9266164 Si02
#       7
#     8   8   8   4   8   8   8
#     4  10  19  37  61  83 106 153 187 225 284 331
#     4   9  19  38  57  80 112 149 184 233 279 331
#     4  11  20  36  57  85 113 146 189 233 281 332
#     4  10  22  40  54  84 118 146 184 236 280 326
#     4  11  21  36  60  81 114 153 184 226 287 336
#     4   9  19  36  60  80 111 142 192 231 269 332
#     4   9  20  37  59  85 114 143 187 238 275 328
#
# _framework density 20.235916
#
# number of rings (size 3 to 8) (size 9 to 14) (size 15 to 20)
#    0.000    2.154    2.308    0.923    2.154    0.615 
#    6.923    0.769    3.385    0.000    0.000    0.000 
#    0.000    0.000    0.000    0.000    0.000    0.000 
#
# Total GULP energy -145036.532551 kJ/mol
# GULP energy per Si atom -5578.328175 kJ/mol
# Density = 2.018986 g / cm^3
# Si number density = 20.235916 Si / 1000 Ang^3
#
#
#
# Elastic Constant Matrix: (Units=GPa)
#
#
# Indices 1 2 3 4 5 6 
#
# 1 78.3461 -0.0383 67.4823 0.0000 -2.7791 0.0000
# 2 -0.0383 23.1462 18.4447 0.0000 10.1992 0.0000
# 3 67.4823 18.4447 165.0329 0.0000 15.2026 0.0000
# 4 0.0000 0.0000 0.0000 17.3219 0.0000 7.4528
# 5 -2.7791 10.1992 15.2026 0.0000 50.6493 0.0000
# 6 0.0000 0.0000 0.0000 7.4528 0.0000 18.1894
#
#
#
# Elastic Compliance Matrix: (Units=1/GPa)
#
#
# Indices 1 2 3 4 5 6 
#
# 1 0.021161 0.006502 -0.009632 0.000000 0.002743 0.000000
# 2 0.006502 0.052972 -0.007846 0.000000 -0.007955 0.000000
# 3 -0.009632 -0.007846 0.011084 0.000000 -0.002276 0.000000
# 4 0.000000 0.000000 0.000000 0.070086 0.000000 -0.028716
# 5 0.002743 -0.007955 -0.002276 0.000000 0.022179 0.000000
# 6 0.000000 0.000000 0.000000 -0.028716 0.000000 0.066743
#
#
# Mechanical properties :
#
#
# Convention : Reuss Voigt Hill
#
# Bulk Modulus (GPa) = 15.80655 48.70026 32.25340
# Shear Modulus (GPa) = 17.40544 29.27454 23.33999
#
# Velocity S-wave (km/s) = 2.93597 3.80763 3.39985
# Velocity P-wave (km/s) = 4.39560 6.59160 5.60226
#
# Compressibility (1/GPa) = 0.06326493
#
# Stress axis : x y z
#
# Youngs Moduli (GPa) = 47.25727 18.87781 90.21608
#
# Poissons Ratio (x) = -0.12274 0.86896
# Poissons Ratio (y) = -0.30726 0.70785
# Poissons Ratio (z) = 0.45518 0.14812
#
# Static dielectric constant tensor:
#      x y z
#    x 1.725030 0.000000 0.001490 
#    y 0.000000 1.692560 0.000000 
#    z 0.001490 0.000000 1.766490 
# 
# From -- ./inp_files/243309.got.cif
#   From: 2010.05.17/outbox.cif.g08.bks.cpg/sg15_122_cif.got.tgz:243309.got - 2010.06.03 18:47:42.
