data_PCOD9266802
_publ_section_title
;
Structure prediction by ZEFSAII (Michael W. Deem and Ramdas Pophale) SiO2 
 PCOD9266802
Probable space group: C 2/C
;
_chemical_formula_sum "Si O2"
_cell_formula_units_Z 60
_cell_length_a 12.340873
_cell_length_b 15.835688
_cell_length_c 17.016182
_cell_angle_alpha 90.000000
_cell_angle_beta 127.084377
_cell_angle_gamma 90.000000
_cell_volume 2652.838863
_symmetry_space_group_name_H-M "C 2/C"
_symmetry_group_IT_number 15
_symmetry_cell_setting 'monoclinic'
loop_
_space_group_symop_operation_xyz
x,y,z
-x,y,1/2-z
-x,-y,-z
x,-y,1/2+z
1/2+x,1/2+y,z
1/2-x,1/2+y,1/2-z
1/2-x,1/2-y,-z
1/2+x,1/2-y,1/2+z
loop_
_atom_site_type_symbol
_atom_site_label
_atom_site_fract_x
_atom_site_fract_y
_atom_site_fract_z
Si Si1 0.794361 0.063238 0.379724
Si Si2 0.700848 0.331496 0.024819
Si Si3 0.012687 0.377279 0.926303
Si Si4 0.858070 0.731338 0.729127
Si Si5 0.500000 0.097621 0.250000
Si Si6 0.274845 0.496647 0.033787
Si Si7 0.207740 0.068638 0.300458
Si Si8 0.085856 0.233564 0.078969
O O1 0.634591 0.040864 0.312793
O O2 0.833073 0.042174 0.306395
O O3 0.800730 0.165164 0.392213
O O4 0.855723 0.029890 0.488925
O O5 0.745651 0.321081 0.133964
O O6 0.768248 0.409725 0.011478
O O7 0.750000 0.250000 0.000000
O O8 0.539011 0.327344 0.950192
O O9 0.148088 0.434165 0.989983
O O10 0.994586 0.350319 0.827680
O O11 0.873110 0.428216 0.881100
O O12 0.033704 0.297040 0.990658
O O13 0.833295 0.832436 0.709014
O O14 0.867322 0.714384 0.825025
O O15 0.000000 0.711655 0.750000
O O16 0.343714 0.513175 0.148593
#
# Coordination Sequence:
#
# PCOD9266802 Si02
#       8
#     8   8   8   8   4   8   8   8
#     4   9  22  38  60  93 119 170 209 258 311 388
#     4  12  22  40  60  94 123 160 209 269 311 377
#     4  10  20  38  63  90 119 165 206 262 307 381
#     4  11  21  37  62  93 120 163 206 258 316 378
#     4   8  18  38  58  86 126 158 204 256 320 360
#     4  11  22  37  61  87 127 165 201 262 322 368
#     4  10  19  38  61  87 126 160 201 258 321 367
#     4  11  22  39  67  90 124 169 220 249 319 386
#
# _framework density 22.617280000000001
#
# number of rings (size 3 to 8) (size 9 to 14) (size 15 to 20)
#    0.000    1.600    4.000    0.400    0.000    3.733 
#    7.200    0.000    2.933    3.200    0.000    0.000 
#    0.000    0.000    0.000    0.000    0.000    0.000 
#
# Total GULP energy -167358.936520 kJ/mol
# GULP energy per Si atom -5578.631217 kJ/mol
# Density = 2.256580 g / cm^3
# Si number density = 22.617280 Si / 1000 Ang^3
#
#
#
# Elastic Constant Matrix: (Units=GPa)
#
#
# Indices 1 2 3 4 5 6 
#
# 1 54.7734 15.2550 37.8302 0.0000 -18.0092 0.0000
# 2 15.2550 50.3924 20.4574 0.0000 -14.2846 0.0000
# 3 37.8302 20.4574 160.3377 0.0000 -48.0023 0.0000
# 4 0.0000 0.0000 0.0000 32.9735 0.0000 -6.8040
# 5 -18.0092 -14.2846 -48.0023 0.0000 58.4681 0.0000
# 6 0.0000 0.0000 0.0000 -6.8040 0.0000 19.3830
#
#
#
# Elastic Compliance Matrix: (Units=1/GPa)
#
#
# Indices 1 2 3 4 5 6 
#
# 1 0.023251 -0.004619 -0.004097 0.000000 0.002669 0.000000
# 2 -0.004619 0.022529 -0.000746 0.000000 0.003469 0.000000
# 3 -0.004097 -0.000746 0.009104 0.000000 0.006030 0.000000
# 4 0.000000 0.000000 0.000000 0.032696 0.000000 0.011477
# 5 0.002669 0.003469 0.006030 0.000000 0.023724 0.000000
# 6 0.000000 0.000000 0.000000 0.011477 0.000000 0.055620
#
#
# Mechanical properties :
#
#
# Convention : Reuss Voigt Hill
#
# Bulk Modulus (GPa) = 27.80918 45.84319 36.82618
# Shear Modulus (GPa) = 25.27367 34.96230 30.11798
#
# Velocity S-wave (km/s) = 3.34645 3.93596 3.65312
# Velocity P-wave (km/s) = 5.22053 6.40069 5.84049
#
# Compressibility (1/GPa) = 0.03595935
#
# Stress axis : x y z
#
# Youngs Moduli (GPa) = 43.00893 44.38793 109.84079
#
# Poissons Ratio (x) = 0.20501 0.45006
# Poissons Ratio (y) = 0.19864 0.08196
# Poissons Ratio (z) = 0.17623 0.03312
#
# Static dielectric constant tensor:
#      x y z
#    x 1.391590 0.000000 -0.254700 
#    y 0.000000 1.855240 0.000000 
#    z -0.254700 0.000000 1.783580 
# 
# From -- ./inp_files/206139.got.cif
#   From: 2010.05.17/outbox.cif.g08.bks.cpg/sg15_104_cif.got.tgz:206139.got - 2010.06.03 18:47:42.
