data_PCOD9266528
_publ_section_title
;
Structure prediction by ZEFSAII (Michael W. Deem and Ramdas Pophale) SiO2 
 PCOD9266528
Probable space group: C 2/C
;
_chemical_formula_sum "Si O2"
_cell_formula_units_Z 48
_cell_length_a 26.236426
_cell_length_b 9.120063
_cell_length_c 10.677481
_cell_angle_alpha 90.000000
_cell_angle_beta 65.312468
_cell_angle_gamma 90.000000
_cell_volume 2321.365981
_symmetry_space_group_name_H-M "C 2/C"
_symmetry_group_IT_number 15
_symmetry_cell_setting 'monoclinic'
loop_
_space_group_symop_operation_xyz
x,y,z
-x,y,1/2-z
-x,-y,-z
x,-y,1/2+z
1/2+x,1/2+y,z
1/2-x,1/2+y,1/2-z
1/2-x,1/2-y,-z
1/2+x,1/2-y,1/2+z
loop_
_atom_site_type_symbol
_atom_site_label
_atom_site_fract_x
_atom_site_fract_y
_atom_site_fract_z
Si Si1 0.866042 0.080502 0.468127
Si Si2 0.828815 0.243149 0.039815
Si Si3 0.265743 0.266497 0.172502
Si Si4 0.103623 0.722692 0.780460
Si Si5 0.508809 0.604698 0.106771
Si Si6 0.686923 0.959632 0.071607
O O1 0.822205 0.139480 0.615136
O O2 0.862895 0.148760 0.331098
O O3 0.925723 0.138251 0.455634
O O4 0.854755 0.908757 0.466199
O O5 0.769641 0.221290 0.171709
O O6 0.872447 0.292654 0.104465
O O7 0.816576 0.369203 0.952075
O O8 0.225264 0.378782 0.136466
O O9 0.286951 0.121186 0.077390
O O10 0.123775 0.586788 0.676026
O O11 0.038400 0.768435 0.848132
O O12 0.500000 0.526268 0.250000
O O13 0.500000 0.500000 0.000000
#
# Coordination Sequence:
#
# PCOD9266528 Si02
#       6
#     8   8   8   8   8   8
#     4  10  20  34  61  91 120 163 212 263 317 381
#     4  11  19  34  60  88 121 161 210 257 317 385
#     4   9  19  35  53  84 124 163 202 252 314 385
#     4   9  20  38  58  86 125 159 208 267 318 378
#     4  10  19  37  66  93 118 161 217 273 315 370
#     4   9  19  35  56  83 123 165 201 256 320 375
#
# _framework density 20.677479000000002
#
# number of rings (size 3 to 8) (size 9 to 14) (size 15 to 20)
#    0.000    2.333    1.667    2.000    0.000    0.667 
#    0.000    6.667    0.000   31.000    0.000    0.000 
#    0.000    0.000    0.000    0.000    0.000    0.000 
#
# Total GULP energy -133608.124093 kJ/mol
# GULP energy per Si atom -5567.005171 kJ/mol
# Density = 2.063042 g / cm^3
# Si number density = 20.677479 Si / 1000 Ang^3
#
#
#
# Elastic Constant Matrix: (Units=GPa)
#
#
# Indices 1 2 3 4 5 6 
#
# 1 111.2607 25.7036 45.0186 0.0000 -23.8995 0.0000
# 2 25.7036 46.2918 12.8479 0.0000 -10.8837 0.0000
# 3 45.0186 12.8479 55.2175 0.0000 -19.6122 0.0000
# 4 0.0000 0.0000 0.0000 14.4475 0.0000 -1.7974
# 5 -23.8995 -10.8837 -19.6122 0.0000 42.6233 0.0000
# 6 0.0000 0.0000 0.0000 -1.7974 0.0000 9.3226
#
#
#
# Elastic Compliance Matrix: (Units=1/GPa)
#
#
# Indices 1 2 3 4 5 6 
#
# 1 0.014648 -0.004801 -0.009973 0.000000 0.002398 0.000000
# 2 -0.004801 0.025281 -0.000754 0.000000 0.003416 0.000000
# 3 -0.009973 -0.000754 0.029122 0.000000 0.007615 0.000000
# 4 0.000000 0.000000 0.000000 0.070917 0.000000 0.013673
# 5 0.002398 0.003416 0.007615 0.000000 0.029182 0.000000
# 6 0.000000 0.000000 0.000000 0.013673 0.000000 0.109902
#
#
# Mechanical properties :
#
#
# Convention : Reuss Voigt Hill
#
# Bulk Modulus (GPa) = 26.32148 42.21225 34.26686
# Shear Modulus (GPa) = 15.49076 21.89201 18.69138
#
# Velocity S-wave (km/s) = 2.74005 3.25735 3.00984
# Velocity P-wave (km/s) = 4.77155 5.88269 5.35601
#
# Compressibility (1/GPa) = 0.03799178
#
# Stress axis : x y z
#
# Youngs Moduli (GPa) = 68.27048 39.55615 34.33884
#
# Poissons Ratio (x) = 0.18992 0.34247
# Poissons Ratio (y) = 0.32779 0.02591
# Poissons Ratio (z) = 0.68088 0.02984
#
# Static dielectric constant tensor:
#      x y z
#    x 1.797550 0.000000 -0.032200 
#    y 0.000000 1.745420 0.000000 
#    z -0.032200 0.000000 1.756940 
# 
# From -- ./inp_files/121377.got.cif
#   From: 2010.05.17/outbox.cif.g08.bks.cpg/sg15_61_cif.got.tgz:121377.got - 2010.06.03 18:47:42.
