data_PCOD9266238
_publ_section_title
;
Structure prediction by ZEFSAII (Michael W. Deem and Ramdas Pophale) SiO2 
 PCOD9266238
Probable space group: C 2/C
;
_chemical_formula_sum "Si O2"
_cell_formula_units_Z 40
_cell_length_a 7.563053
_cell_length_b 12.634024
_cell_length_c 25.773807
_cell_angle_alpha 90.000000
_cell_angle_beta 142.564907
_cell_angle_gamma 90.000000
_cell_volume 1497.002823
_symmetry_space_group_name_H-M "C 2/C"
_symmetry_group_IT_number 15
_symmetry_cell_setting 'monoclinic'
loop_
_space_group_symop_operation_xyz
x,y,z
-x,y,1/2-z
-x,-y,-z
x,-y,1/2+z
1/2+x,1/2+y,z
1/2-x,1/2+y,1/2-z
1/2-x,1/2-y,-z
1/2+x,1/2-y,1/2+z
loop_
_atom_site_type_symbol
_atom_site_label
_atom_site_fract_x
_atom_site_fract_y
_atom_site_fract_z
Si Si1 0.645120 0.796698 0.898462
Si Si2 0.810045 0.687905 0.654982
Si Si3 0.141441 0.656511 0.013319
Si Si4 0.207271 0.961789 0.646183
Si Si5 0.232072 0.369754 0.159241
O O1 0.361584 0.791754 0.867062
O O2 0.722440 0.909520 0.893326
O O3 0.614926 0.725765 0.838012
O O4 0.903464 0.730238 0.986060
O O5 0.615169 0.581933 0.612963
O O6 0.000000 0.670359 0.750000
O O7 0.013447 0.673930 0.652408
O O8 0.962571 0.579684 0.932118
O O9 0.250000 0.750000 0.000000
O O10 0.424415 0.600086 0.101418
O O11 0.500000 0.952541 0.750000
O O12 0.500000 0.427966 0.250000
#
# Coordination Sequence:
#
# PCOD9266238 Si02
#       5
#     8   8   8   8   8
#     4   9  20  39  59  82 116 158 190 233 306 345
#     4  11  21  35  61  90 112 154 204 235 294 364
#     4   8  18  34  59  82 115 156 192 236 298 348
#     4  10  21  37  60  88 120 151 197 252 288 351
#     4  10  19  37  62  80 118 154 188 246 294 344
#
# _framework density 26.720057000000001
#
# number of rings (size 3 to 8) (size 9 to 14) (size 15 to 20)
#    1.200    1.200    2.000    0.600    0.000    1.600 
#    0.000    7.000    0.000    0.000    0.000    0.000 
#    0.000    0.000    0.000    0.000    0.000    0.000 
#
# Total GULP energy -111348.082495 kJ/mol
# GULP energy per Si atom -5567.404125 kJ/mol
# Density = 2.665924 g / cm^3
# Si number density = 26.720057 Si / 1000 Ang^3
#
#
#
# Elastic Constant Matrix: (Units=GPa)
#
#
# Indices 1 2 3 4 5 6 
#
# 1 157.4747 11.6611 23.9617 0.0000 6.9984 0.0000
# 2 11.6611 53.5507 2.3096 0.0000 7.4277 0.0000
# 3 23.9617 2.3096 99.0354 -0.0001 1.6998 0.0001
# 4 0.0000 0.0000 -0.0001 10.4776 0.0000 19.3882
# 5 6.9984 7.4277 1.6998 0.0000 46.2686 0.0000
# 6 0.0000 0.0000 0.0001 19.3882 0.0000 17.7802
#
#
#
# Elastic Compliance Matrix: (Units=1/GPa)
#
#
# Indices 1 2 3 4 5 6 
#
# 1 0.006720 -0.001291 -0.001583 0.000000 -0.000751 0.000000
# 2 -0.001291 0.019362 -0.000089 0.000000 -0.002910 0.000000
# 3 -0.001583 -0.000089 0.010485 0.000000 -0.000131 0.000000
# 4 0.000000 0.000000 0.000000 -0.093773 0.000000 0.102254
# 5 -0.000751 -0.002910 -0.000131 0.000000 0.022198 0.000000
# 6 0.000000 0.000000 0.000000 0.102254 0.000000 -0.055259
#
#
# Mechanical properties :
#
#
# Convention : Reuss Voigt Hill
#
# Bulk Modulus (GPa) = 32.63601 42.88064 37.75832
# Shear Modulus (GPa) = -67.45185 33.04719 -17.20233
#
# Velocity S-wave (km/s) = -5.02978 3.52062 -2.54007
# Velocity P-wave (km/s) = 4.63584 5.71046 2.35778
#
# Compressibility (1/GPa) = 0.03064100
#
# Stress axis : x y z
#
# Youngs Moduli (GPa) = 148.80820 51.64642 95.37684
#
# Poissons Ratio (x) = 0.06667 0.15097
# Poissons Ratio (y) = 0.19210 0.00851
# Poissons Ratio (z) = 0.23555 0.00461
#
# Static dielectric constant tensor:
#      x y z
#    x 2.118040 0.000000 -0.009000 
#    y 0.000000 2.155660 0.000000 
#    z -0.009000 0.000000 2.399460 
# 
# From -- ./inp_files/133820.got.cif
#   From: 2010.05.17/outbox.cif.g08.bks.cpg/sg15_67_cif.got.tgz:133820.got - 2010.06.03 18:47:42.
