data_PCOD9266314
_publ_section_title
;
Structure prediction by ZEFSAII (Michael W. Deem and Ramdas Pophale) SiO2 
 PCOD9266314
Probable space group: C 2/C
;
_chemical_formula_sum "Si O2"
_cell_formula_units_Z 56
_cell_length_a 24.068209
_cell_length_b 15.113762
_cell_length_c 14.486240
_cell_angle_alpha 90.000000
_cell_angle_beta 150.933752
_cell_angle_gamma 90.000000
_cell_volume 2560.046946
_symmetry_space_group_name_H-M "C 2/C"
_symmetry_group_IT_number 15
_symmetry_cell_setting 'monoclinic'
loop_
_space_group_symop_operation_xyz
x,y,z
-x,y,1/2-z
-x,-y,-z
x,-y,1/2+z
1/2+x,1/2+y,z
1/2-x,1/2+y,1/2-z
1/2-x,1/2-y,-z
1/2+x,1/2-y,1/2+z
loop_
_atom_site_type_symbol
_atom_site_label
_atom_site_fract_x
_atom_site_fract_y
_atom_site_fract_z
Si Si1 0.832391 0.198639 0.992815
Si Si2 0.000000 0.391356 0.750000
Si Si3 0.500000 0.389588 0.250000
Si Si4 0.846959 0.457713 0.110780
Si Si5 0.033830 0.759770 0.445139
Si Si6 0.572153 0.216550 0.699068
Si Si7 0.784416 0.993272 0.392821
Si Si8 0.232380 0.634598 0.179367
O O1 0.915187 0.210007 0.201757
O O2 0.703658 0.210143 0.847964
O O3 0.853977 0.283021 0.958281
O O4 0.823499 0.106574 0.926522
O O5 0.903339 0.457114 0.647065
O O6 0.958566 0.328837 0.605374
O O7 0.458175 0.325724 0.272655
O O8 0.600886 0.452382 0.426928
O O9 0.938359 0.381702 0.272570
O O10 0.781293 0.485539 0.106666
O O11 0.764541 0.409598 0.917362
O O12 0.001856 0.738420 0.504258
O O13 0.152404 0.814763 0.623036
O O14 0.710964 0.052425 0.215708
#
# Coordination Sequence:
#
# PCOD9266314 Si02
#       8
#     8   4   4   8   8   8   8   8
#     4   8  15  30  56  84 106 153 192 236 280 357
#     4  11  24  36  59  88 126 148 203 250 303 346
#     4   9  20  36  57  88 114 152 199 240 283 360
#     4  10  22  37  58  91 114 153 202 250 284 363
#     4   9  18  37  57  79 119 160 181 244 306 350
#     4   8  15  32  56  77 111 150 194 229 302 338
#     4  10  19  37  63  82 119 155 195 243 296 346
#     4   9  19  36  61  83 116 157 203 233 301 353
#
# _framework density 21.874597999999999
#
# number of rings (size 3 to 8) (size 9 to 14) (size 15 to 20)
#    0.000    2.857    0.000    2.571    6.000    0.571 
#    0.000   15.714    3.143    0.000    0.000    0.000 
#    0.000    0.000    0.000    0.000    0.000    0.000 
#
# Total GULP energy -156064.307202 kJ/mol
# GULP energy per Si atom -5573.725257 kJ/mol
# Density = 2.182481 g / cm^3
# Si number density = 21.874598 Si / 1000 Ang^3
#
#
#
# Elastic Constant Matrix: (Units=GPa)
#
#
# Indices 1 2 3 4 5 6 
#
# 1 72.0502 53.7265 17.4391 0.0000 -26.6935 0.0000
# 2 53.7265 186.1449 46.6725 0.0000 -30.2738 0.0000
# 3 17.4391 46.6725 62.4781 0.0000 -28.2475 0.0000
# 4 0.0000 0.0000 0.0000 37.1935 0.0000 -16.2706
# 5 -26.6935 -30.2738 -28.2475 0.0000 33.3225 0.0000
# 6 0.0000 0.0000 0.0000 -16.2706 0.0000 21.5051
#
#
#
# Elastic Compliance Matrix: (Units=1/GPa)
#
#
# Indices 1 2 3 4 5 6 
#
# 1 0.023322 -0.005119 0.005932 0.000000 0.019060 0.000000
# 2 -0.005119 0.007918 -0.005006 0.000000 -0.001151 0.000000
# 3 0.005932 -0.005006 0.029480 0.000000 0.025194 0.000000
# 4 0.000000 0.000000 0.000000 0.040187 0.000000 0.030405
# 5 0.019060 -0.001151 0.025194 0.000000 0.065590 0.000000
# 6 0.000000 0.000000 0.000000 0.030405 0.000000 0.069505
#
#
# Mechanical properties :
#
#
# Convention : Reuss Voigt Hill
#
# Bulk Modulus (GPa) = 19.10834 61.81660 40.46247
# Shear Modulus (GPa) = 19.09613 31.92656 25.51134
#
# Velocity S-wave (km/s) = 2.95783 3.82452 3.41875
# Velocity P-wave (km/s) = 4.51878 6.91545 5.84136
#
# Compressibility (1/GPa) = 0.05233317
#
# Stress axis : x y z
#
# Youngs Moduli (GPa) = 42.87796 126.30099 33.92082
#
# Poissons Ratio (x) = 0.64650 -0.20120
# Poissons Ratio (y) = 0.21948 0.16982
# Poissons Ratio (z) = -0.25433 0.63230
#
# Static dielectric constant tensor:
#      x y z
#    x 1.880520 0.000000 0.063930 
#    y 0.000000 1.840820 0.000000 
#    z 0.063930 0.000000 1.976230 
# 
# From -- ./inp_files/178459.got.cif
#   From: 2010.05.17/outbox.cif.g08.bks.cpg/sg15_90_cif.got.tgz:178459.got - 2010.06.03 18:47:42.
