data_PCOD9266514
_publ_section_title
;
Structure prediction by ZEFSAII (Michael W. Deem and Ramdas Pophale) SiO2 
 PCOD9266514
Probable space group: C 2/C
;
_chemical_formula_sum "Si O2"
_cell_formula_units_Z 52
_cell_length_a 16.568396
_cell_length_b 9.622045
_cell_length_c 25.125734
_cell_angle_alpha 90.000000
_cell_angle_beta 138.568580
_cell_angle_gamma 90.000000
_cell_volume 2650.592178
_symmetry_space_group_name_H-M "C 2/C"
_symmetry_group_IT_number 15
_symmetry_cell_setting 'monoclinic'
loop_
_space_group_symop_operation_xyz
x,y,z
-x,y,1/2-z
-x,-y,-z
x,-y,1/2+z
1/2+x,1/2+y,z
1/2-x,1/2+y,1/2-z
1/2-x,1/2-y,-z
1/2+x,1/2-y,1/2+z
loop_
_atom_site_type_symbol
_atom_site_label
_atom_site_fract_x
_atom_site_fract_y
_atom_site_fract_z
Si Si1 0.028088 0.206759 0.202250
Si Si2 0.856081 0.146700 0.984055
Si Si3 0.000000 0.373849 0.750000
Si Si4 0.139368 0.405435 0.451750
Si Si5 0.049871 0.976813 0.132005
Si Si6 0.287670 0.928428 0.192748
Si Si7 0.107200 0.284177 0.915123
O O1 0.155060 0.285329 0.258601
O O2 0.000000 0.201160 0.250000
O O3 0.933980 0.308872 0.126040
O O4 0.027245 0.057369 0.175636
O O5 0.773478 0.088861 0.992180
O O6 0.791122 0.103812 0.898449
O O7 0.860806 0.312601 0.995322
O O8 0.984887 0.073336 0.055563
O O9 0.897112 0.469428 0.728371
O O10 0.929510 0.294545 0.666434
O O11 0.087911 0.559691 0.428072
O O12 0.192283 0.977585 0.189390
O O13 0.982422 0.828758 0.102452
O O14 0.250000 0.250000 0.000000
#
# Coordination Sequence:
#
# PCOD9266514 Si02
#       7
#     8   8   4   8   8   8   8
#     4  11  21  40  62  90 122 174 218 257 316 396
#     4  10  19  39  64  93 117 171 217 266 320 397
#     4  12  24  42  68  92 128 192 218 256 348 408
#     4  10  19  37  66  88 120 167 223 256 318 397
#     4  11  27  36  63  98 134 158 218 282 326 375
#     4  12  21  42  67  92 127 170 223 268 325 397
#     4  12  23  43  63  99 135 174 214 279 334 391
#
# _framework density 19.618257
#
# number of rings (size 3 to 8) (size 9 to 14) (size 15 to 20)
#    0.000    0.923    6.923    0.462    3.231    0.000 
#    0.000    0.769    0.000    0.000    0.000    0.000 
#    0.000    0.000    0.000    0.000    0.000    0.000 
#
# Total GULP energy -145033.284739 kJ/mol
# GULP energy per Si atom -5578.203259 kJ/mol
# Density = 1.957361 g / cm^3
# Si number density = 19.618257 Si / 1000 Ang^3
#
#
#
# Elastic Constant Matrix: (Units=GPa)
#
#
# Indices 1 2 3 4 5 6 
#
# 1 61.1094 35.3228 18.5201 0.0000 20.0049 0.0000
# 2 35.3228 107.5134 15.2074 0.0000 7.8008 0.0000
# 3 18.5201 15.2074 91.9408 0.0000 -0.0449 0.0000
# 4 0.0000 0.0000 0.0000 34.6710 0.0000 1.9964
# 5 20.0049 7.8008 -0.0449 0.0000 27.2086 0.0000
# 6 0.0000 0.0000 0.0000 1.9964 0.0000 26.5311
#
#
#
# Elastic Compliance Matrix: (Units=1/GPa)
#
#
# Indices 1 2 3 4 5 6 
#
# 1 0.027921 -0.007205 -0.004442 0.000000 -0.018471 0.000000
# 2 -0.007205 0.011591 -0.000465 0.000000 0.001973 0.000000
# 3 -0.004442 -0.000465 0.011850 0.000000 0.003419 0.000000
# 4 0.000000 0.000000 0.000000 0.028968 0.000000 -0.002180
# 5 -0.018471 0.001973 0.003419 0.000000 0.049773 0.000000
# 6 0.000000 0.000000 0.000000 -0.002180 0.000000 0.037856
#
#
# Mechanical properties :
#
#
# Convention : Reuss Voigt Hill
#
# Bulk Modulus (GPa) = 36.84716 44.29604 40.57160
# Shear Modulus (GPa) = 24.84738 30.44971 27.64854
#
# Velocity S-wave (km/s) = 3.56271 3.94396 3.75817
# Velocity P-wave (km/s) = 5.97886 6.58542 6.28946
#
# Compressibility (1/GPa) = 0.02713914
#
# Stress axis : x y z
#
# Youngs Moduli (GPa) = 35.81475 86.27478 84.38939
#
# Poissons Ratio (x) = 0.62161 0.37483
# Poissons Ratio (y) = 0.25804 0.03923
# Poissons Ratio (z) = 0.15908 0.04011
#
# Static dielectric constant tensor:
#      x y z
#    x 1.947620 0.000000 -1.047250 
#    y 0.000000 1.704660 0.000000 
#    z -1.047250 0.000000 6.133050 
# 
# From -- ./inp_files/298424.got.cif
#   From: 2010.05.17/outbox.cif.g08.bks.cpg/sg15_150_cif.got.tgz:298424.got - 2010.06.03 18:47:42.
