data_PCOD9266461
_publ_section_title
;
Structure prediction by ZEFSAII (Michael W. Deem and Ramdas Pophale) SiO2 
 PCOD9266461
Probable space group: C 2/C
;
_chemical_formula_sum "Si O2"
_cell_formula_units_Z 44
_cell_length_a 18.297436
_cell_length_b 8.835844
_cell_length_c 30.362054
_cell_angle_alpha 90.000000
_cell_angle_beta 25.525817
_cell_angle_gamma 90.000000
_cell_volume 2115.260253
_symmetry_space_group_name_H-M "C 2/C"
_symmetry_group_IT_number 15
_symmetry_cell_setting 'monoclinic'
loop_
_space_group_symop_operation_xyz
x,y,z
-x,y,1/2-z
-x,-y,-z
x,-y,1/2+z
1/2+x,1/2+y,z
1/2-x,1/2+y,1/2-z
1/2-x,1/2-y,-z
1/2+x,1/2-y,1/2+z
loop_
_atom_site_type_symbol
_atom_site_label
_atom_site_fract_x
_atom_site_fract_y
_atom_site_fract_z
Si Si1 0.930398 0.748196 0.377186
Si Si2 0.313763 0.020401 0.120006
Si Si3 0.657201 0.542488 0.115653
Si Si4 0.000000 0.429128 0.750000
Si Si5 0.388459 0.805287 0.256538
Si Si6 0.459196 0.973033 0.129719
O O1 0.750000 0.750000 0.500000
O O2 0.929174 0.664742 0.330031
O O3 0.043465 0.643292 0.347856
O O4 0.953695 0.924821 0.352633
O O5 0.191923 0.975501 0.145793
O O6 0.268458 0.195097 0.151958
O O7 0.332212 0.949822 0.158146
O O8 0.500000 0.000000 0.000000
O O9 0.556191 0.700153 0.173658
O O10 0.845239 0.556991 0.992067
O O11 0.127396 0.548577 0.703685
O O12 0.410687 0.863313 0.195314
#
# Coordination Sequence:
#
# PCOD9266461 Si02
#       6
#     8   8   8   4   8   8
#     4   9  20  37  58  87 119 154 197 250 302 359
#     4  10  21  37  57  85 123 154 191 245 306 357
#     4  10  19  37  65  85 114 157 207 244 303 365
#     4  10  20  34  60  90 116 154 210 254 288 362
#     4  11  20  37  60  90 112 162 209 244 297 367
#     4   9  21  38  58  88 124 150 195 263 301 351
#
# _framework density 20.801224000000001
#
# number of rings (size 3 to 8) (size 9 to 14) (size 15 to 20)
#    0.000    2.182    1.818    0.545    2.545    1.455 
#    3.273    0.000    0.000    3.273    0.000    0.000 
#    0.000    0.000    0.000    0.000    0.000    0.000 
#
# Total GULP energy -122514.676966 kJ/mol
# GULP energy per Si atom -5568.848953 kJ/mol
# Density = 2.075388 g / cm^3
# Si number density = 20.801224 Si / 1000 Ang^3
#
#
#
# Elastic Constant Matrix: (Units=GPa)
#
#
# Indices 1 2 3 4 5 6 
#
# 1 112.2817 5.6115 36.7126 0.0002 9.0156 -0.0005
# 2 5.6115 61.1132 26.0765 0.0000 2.7476 -0.0011
# 3 36.7126 26.0765 93.2426 -0.0010 10.3109 -0.0003
# 4 0.0002 0.0000 -0.0010 36.3711 0.0000 10.5289
# 5 9.0156 2.7476 10.3109 0.0000 36.9528 -0.0001
# 6 -0.0005 -0.0011 -0.0003 10.5289 -0.0001 25.6490
#
#
#
# Elastic Compliance Matrix: (Units=1/GPa)
#
#
# Indices 1 2 3 4 5 6 
#
# 1 0.010337 0.000891 -0.004161 0.000000 -0.001427 0.000000
# 2 0.000891 0.018657 -0.005563 0.000000 -0.000052 0.000001
# 3 -0.004161 -0.005563 0.014199 0.000001 -0.002533 0.000000
# 4 0.000000 0.000000 0.000001 0.031202 0.000000 -0.012808
# 5 -0.001427 -0.000052 -0.002533 0.000000 0.028120 0.000000
# 6 0.000000 0.000001 0.000000 -0.012808 0.000000 0.044246
#
#
# Mechanical properties :
#
#
# Convention : Reuss Voigt Hill
#
# Bulk Modulus (GPa) = 39.17507 44.82654 42.00080
# Shear Modulus (GPa) = 28.91236 33.01037 30.96137
#
# Velocity S-wave (km/s) = 3.73223 3.98797 3.86222
# Velocity P-wave (km/s) = 6.11937 6.54232 6.33437
#
# Compressibility (1/GPa) = 0.02552644
#
# Stress axis : x y z
#
# Youngs Moduli (GPa) = 96.74140 53.59878 70.42821
#
# Poissons Ratio (x) = -0.04773 0.29307
# Poissons Ratio (y) = -0.08615 0.39176
# Poissons Ratio (z) = 0.40256 0.29815
#
# Static dielectric constant tensor:
#      x y z
#    x 1.774130 0.000000 -0.000360 
#    y 0.000000 1.742700 0.000000 
#    z -0.000360 0.000000 1.734150 
# 
# From -- ./inp_files/315469.got.cif
#   From: 2010.05.17/outbox.cif.g08.bks.cpg/sg15_158_cif.got.tgz:315469.got - 2010.06.03 18:47:42.
