data_PCOD9266787
_publ_section_title
;
Structure prediction by ZEFSAII (Michael W. Deem and Ramdas Pophale) SiO2 
 PCOD9266787
Probable space group: C 2/C
;
_chemical_formula_sum "Si O2"
_cell_formula_units_Z 52
_cell_length_a 12.691390
_cell_length_b 12.274954
_cell_length_c 15.639077
_cell_angle_alpha 90.000000
_cell_angle_beta 113.036898
_cell_angle_gamma 90.000000
_cell_volume 2242.061079
_symmetry_space_group_name_H-M "C 2/C"
_symmetry_group_IT_number 15
_symmetry_cell_setting 'monoclinic'
loop_
_space_group_symop_operation_xyz
x,y,z
-x,y,1/2-z
-x,-y,-z
x,-y,1/2+z
1/2+x,1/2+y,z
1/2-x,1/2+y,1/2-z
1/2-x,1/2-y,-z
1/2+x,1/2-y,1/2+z
loop_
_atom_site_type_symbol
_atom_site_label
_atom_site_fract_x
_atom_site_fract_y
_atom_site_fract_z
Si Si1 0.396037 0.244589 0.480469
Si Si2 0.429537 0.951924 0.611085
Si Si3 0.615357 0.272556 0.453255
Si Si4 0.344287 0.987872 0.894862
Si Si5 0.821238 0.345658 0.141717
Si Si6 0.408349 0.524468 0.660166
Si Si7 0.500000 0.310519 0.750000
O O1 0.530050 0.258701 0.506291
O O2 0.351482 0.140837 0.412482
O O3 0.315063 0.337840 0.415296
O O4 0.367840 0.208091 0.567449
O O5 0.428812 0.822775 0.626026
O O6 0.554098 0.006610 0.639060
O O7 0.376850 0.962204 0.497901
O O8 0.358599 0.028920 0.650784
O O9 0.750000 0.250000 0.500000
O O10 0.603118 0.398147 0.423455
O O11 0.215290 0.019029 0.834047
O O12 0.891165 0.269447 0.230658
O O13 0.500000 0.580932 0.750000
O O14 0.457880 0.401671 0.666542
#
# Coordination Sequence:
#
# PCOD9266787 Si02
#       7
#     8   8   8   8   8   8   4
#     4   9  19  35  64  88 112 150 200 249 282 340
#     4   9  19  32  61  86 110 147 201 244 278 341
#     4  11  21  37  61  93 121 154 198 245 298 356
#     4   9  15  35  59  84 107 156 196 229 291 354
#     4  10  19  38  61  85 116 151 201 244 290 345
#     4  10  21  37  59  79 123 162 192 234 304 371
#     4  10  22  40  56  86 118 164 192 240 306 366
#
# _framework density 23.192945999999999
#
# number of rings (size 3 to 8) (size 9 to 14) (size 15 to 20)
#    0.462    1.846    3.077    0.923    0.000    0.000 
#    4.154    3.077    0.000    0.000    0.000    0.000 
#    0.000    0.000    0.000    0.000    0.000    0.000 
#
# Total GULP energy -144747.522220 kJ/mol
# GULP energy per Si atom -5567.212393 kJ/mol
# Density = 2.314016 g / cm^3
# Si number density = 23.192946 Si / 1000 Ang^3
#
#
#
# Elastic Constant Matrix: (Units=GPa)
#
#
# Indices 1 2 3 4 5 6 
#
# 1 110.0559 8.0860 35.1156 0.0000 41.9049 0.0000
# 2 8.0860 101.1112 5.3703 0.0000 -3.6543 0.0000
# 3 35.1156 5.3703 55.1492 0.0000 25.4938 0.0000
# 4 0.0000 0.0000 0.0000 28.6569 0.0000 4.9735
# 5 41.9049 -3.6543 25.4938 0.0000 23.6881 0.0000
# 6 0.0000 0.0000 0.0000 4.9735 0.0000 27.0930
#
#
#
# Elastic Compliance Matrix: (Units=1/GPa)
#
#
# Indices 1 2 3 4 5 6 
#
# 1 0.034437 -0.006328 0.014531 0.000000 -0.077536 0.000000
# 2 -0.006328 0.011427 -0.006116 0.000000 0.019540 0.000000
# 3 0.014531 -0.006116 0.043374 0.000000 -0.073330 0.000000
# 4 0.000000 0.000000 0.000000 0.036044 0.000000 -0.006617
# 5 -0.077536 0.019540 -0.073330 0.000000 0.261312 0.000000
# 6 0.000000 0.000000 0.000000 -0.006617 0.000000 0.038125
#
#
# Mechanical properties :
#
#
# Convention : Reuss Voigt Hill
#
# Bulk Modulus (GPa) = 10.70522 40.38446 25.54484
# Shear Modulus (GPa) = 11.06972 30.40388 20.73680
#
# Velocity S-wave (km/s) = 2.18706 3.62458 2.99339
# Velocity P-wave (km/s) = 3.31714 5.91329 4.79429
#
# Compressibility (1/GPa) = 0.09341236
#
# Stress axis : x y z
#
# Youngs Moduli (GPa) = 29.03824 87.51062 23.05542
#
# Poissons Ratio (x) = 0.55377 -0.33502
# Poissons Ratio (y) = 0.18375 0.14101
# Poissons Ratio (z) = -0.42196 0.53521
#
# Static dielectric constant tensor:
#      x y z
#    x 1.945870 0.000000 -0.091350 
#    y 0.000000 1.931210 0.000000 
#    z -0.091350 0.000000 2.163840 
# 
# From -- ./inp_files/238450.got.cif
#   From: 2010.05.17/outbox.cif.g08.bks.cpg/sg15_120_cif.got.tgz:238450.got - 2010.06.03 18:47:42.
