data_PCOD9266361
_publ_section_title
;
Structure prediction by ZEFSAII (Michael W. Deem and Ramdas Pophale) SiO2 
 PCOD9266361
Probable space group: C 2/C
;
_chemical_formula_sum "Si O2"
_cell_formula_units_Z 56
_cell_length_a 11.889950
_cell_length_b 29.762191
_cell_length_c 9.324991
_cell_angle_alpha 90.000000
_cell_angle_beta 54.740597
_cell_angle_gamma 90.000000
_cell_volume 2694.476775
_symmetry_space_group_name_H-M "C 2/C"
_symmetry_group_IT_number 15
_symmetry_cell_setting 'monoclinic'
loop_
_space_group_symop_operation_xyz
x,y,z
-x,y,1/2-z
-x,-y,-z
x,-y,1/2+z
1/2+x,1/2+y,z
1/2-x,1/2+y,1/2-z
1/2-x,1/2-y,-z
1/2+x,1/2-y,1/2+z
loop_
_atom_site_type_symbol
_atom_site_label
_atom_site_fract_x
_atom_site_fract_y
_atom_site_fract_z
Si Si1 0.154753 0.031440 0.195857
Si Si2 0.256380 0.397072 0.642723
Si Si3 0.795193 0.592655 0.868884
Si Si4 0.617311 0.689391 0.548636
Si Si5 0.038078 0.371633 0.019173
Si Si6 0.648735 0.426994 0.215088
Si Si7 0.412895 0.789003 0.961834
O O1 0.173989 0.062513 0.320828
O O2 0.000000 0.035769 0.250000
O O3 0.177525 0.979646 0.217601
O O4 0.257205 0.050317 0.997347
O O5 0.345388 0.351396 0.583126
O O6 0.110157 0.388693 0.822700
O O7 0.249166 0.408553 0.481107
O O8 0.670254 0.598150 0.849371
O O9 0.927722 0.593420 0.666289
O O10 0.839456 0.630156 0.952351
O O11 0.500000 0.677585 0.750000
O O12 0.579364 0.736574 0.502503
O O13 0.756510 0.699147 0.536180
O O14 0.968859 0.324256 0.035658
O O15 0.500000 0.423439 0.250000
O O16 0.500000 0.793290 0.750000
#
# Coordination Sequence:
#
# PCOD9266361 Si02
#       7
#     8   8   8   8   8   8   8
#     4  10  22  40  61  88 132 168 205 271 334 384
#     4  11  21  37  63  92 123 168 220 256 317 390
#     4  10  22  39  60  89 123 167 214 252 315 399
#     4  10  21  34  60 103 125 157 222 282 309 370
#     4  10  22  40  60  86 130 177 201 258 331 386
#     4  11  22  38  64  97 124 164 216 273 328 376
#     4  10  19  37  63  91 131 168 214 266 327 384
#
# _framework density 20.783256000000002
#
# number of rings (size 3 to 8) (size 9 to 14) (size 15 to 20)
#    0.000    1.714    1.429    3.000    0.000    3.429 
#    0.000   12.857    3.143    4.286    0.000    0.000 
#    0.000    0.000    0.000    0.000    0.000    0.000 
#
# Total GULP energy -156280.840593 kJ/mol
# GULP energy per Si atom -5581.458593 kJ/mol
# Density = 2.073595 g / cm^3
# Si number density = 20.783256 Si / 1000 Ang^3
#
#
#
# Elastic Constant Matrix: (Units=GPa)
#
#
# Indices 1 2 3 4 5 6 
#
# 1 85.0970 39.7451 24.0975 0.0000 15.8184 0.0000
# 2 39.7451 114.6214 25.7220 0.0000 -1.3128 0.0000
# 3 24.0975 25.7220 99.8924 0.0000 -12.2848 0.0000
# 4 0.0000 0.0000 0.0000 17.0276 0.0000 8.5850
# 5 15.8184 -1.3128 -12.2848 0.0000 41.3108 0.0000
# 6 0.0000 0.0000 0.0000 8.5850 0.0000 33.8657
#
#
#
# Elastic Compliance Matrix: (Units=1/GPa)
#
#
# Indices 1 2 3 4 5 6 
#
# 1 0.016520 -0.005001 -0.003628 0.000000 -0.007563 0.000000
# 2 -0.005001 0.010781 -0.001341 0.000000 0.001859 0.000000
# 3 -0.003628 -0.001341 0.011829 0.000000 0.004864 0.000000
# 4 0.000000 0.000000 0.000000 0.067334 0.000000 -0.017069
# 5 -0.007563 0.001859 0.004864 0.000000 0.028608 0.000000
# 6 0.000000 0.000000 0.000000 -0.017069 0.000000 0.033856
#
#
# Mechanical properties :
#
#
# Convention : Reuss Voigt Hill
#
# Bulk Modulus (GPa) = 52.10763 53.19334 52.65049
# Shear Modulus (GPa) = 25.60626 32.44391 29.02509
#
# Velocity S-wave (km/s) = 3.51388 3.95531 3.74111
# Velocity P-wave (km/s) = 6.44899 6.81977 6.63697
#
# Compressibility (1/GPa) = 0.01919105
#
# Stress axis : x y z
#
# Youngs Moduli (GPa) = 60.53181 92.75849 84.53519
#
# Poissons Ratio (x) = 0.46388 0.30667
# Poissons Ratio (y) = 0.30272 0.11336
# Poissons Ratio (z) = 0.21959 0.12439
#
# Static dielectric constant tensor:
#      x y z
#    x 1.796250 0.000000 -0.022250 
#    y 0.000000 1.754470 0.000000 
#    z -0.022250 0.000000 1.766410 
# 
# From -- ./inp_files/35606.got.cif
#   From: 2010.05.17/outbox.cif.g08.bks.cpg/sg15_18_cif.got.tgz:35606.got - 2010.06.03 18:47:42.
