data_PCOD9266778
_publ_section_title
;
Structure prediction by ZEFSAII (Michael W. Deem and Ramdas Pophale) SiO2 
 PCOD9266778
Probable space group: C 2/C
;
_chemical_formula_sum "Si O2"
_cell_formula_units_Z 40
_cell_length_a 10.675202
_cell_length_b 12.301515
_cell_length_c 12.530106
_cell_angle_alpha 90.000000
_cell_angle_beta 104.916561
_cell_angle_gamma 90.000000
_cell_volume 1590.018576
_symmetry_space_group_name_H-M "C 2/C"
_symmetry_group_IT_number 15
_symmetry_cell_setting 'monoclinic'
loop_
_space_group_symop_operation_xyz
x,y,z
-x,y,1/2-z
-x,-y,-z
x,-y,1/2+z
1/2+x,1/2+y,z
1/2-x,1/2+y,1/2-z
1/2-x,1/2-y,-z
1/2+x,1/2-y,1/2+z
loop_
_atom_site_type_symbol
_atom_site_label
_atom_site_fract_x
_atom_site_fract_y
_atom_site_fract_z
Si Si1 0.516051 0.304276 0.952172
Si Si2 0.404015 0.899894 0.366573
Si Si3 0.771188 0.388751 0.564386
Si Si4 0.000000 0.037791 0.250000
Si Si5 0.500000 0.901752 0.750000
Si Si6 0.698402 0.393673 0.166400
O O1 0.521874 0.180807 0.914772
O O2 0.367676 0.330280 0.957280
O O3 0.540216 0.387295 0.859615
O O4 0.610464 0.320892 0.072051
O O5 0.324390 0.903113 0.457873
O O6 0.443544 0.016649 0.328693
O O7 0.315834 0.842747 0.257049
O O8 0.882713 0.339131 0.666752
O O9 0.750645 0.509263 0.604544
O O10 0.887252 0.959094 0.266015
#
# Coordination Sequence:
#
# PCOD9266778 Si02
#       6
#     8   8   8   4   4   8
#     4  11  22  37  60  90 113 146 193 239 284 328
#     4  11  22  39  58  86 120 147 187 243 284 330
#     4  10  21  38  60  83 114 154 191 228 281 346
#     4  10  19  38  61  82 114 148 188 232 275 346
#     4  10  23  40  59  84 116 156 190 224 287 348
#     4  10  21  38  60  84 114 155 191 227 284 343
#
# _framework density 25.156939000000001
#
# number of rings (size 3 to 8) (size 9 to 14) (size 15 to 20)
#    0.000    1.600    0.000    6.600    0.000    1.600 
#    0.000   13.000    0.000    0.000    0.000    0.000 
#    0.000    0.000    0.000    0.000    0.000    0.000 
#
# Total GULP energy -112083.250208 kJ/mol
# GULP energy per Si atom -5604.162510 kJ/mol
# Density = 2.509968 g / cm^3
# Si number density = 25.156939 Si / 1000 Ang^3
#
#
#
# Elastic Constant Matrix: (Units=GPa)
#
#
# Indices 1 2 3 4 5 6 
#
# 1 76.5203 9.9833 62.8123 0.0000 -11.2577 0.0000
# 2 9.9833 45.7512 16.5843 0.0000 -8.1803 0.0000
# 3 62.8123 16.5843 133.5558 0.0000 -0.8046 0.0000
# 4 0.0000 0.0000 0.0000 16.2251 0.0000 2.7750
# 5 -11.2577 -8.1803 -0.8046 0.0000 66.6392 0.0000
# 6 0.0000 0.0000 0.0000 2.7750 0.0000 18.5447
#
#
#
# Elastic Compliance Matrix: (Units=1/GPa)
#
#
# Indices 1 2 3 4 5 6 
#
# 1 0.022131 -0.000448 -0.010331 0.000000 0.003559 0.000000
# 2 -0.000448 0.023422 -0.002681 0.000000 0.002767 0.000000
# 3 -0.010331 -0.002681 0.012668 0.000000 -0.001921 0.000000
# 4 0.000000 0.000000 0.000000 0.063252 0.000000 -0.009465
# 5 0.003559 0.002767 -0.001921 0.000000 0.015924 0.000000
# 6 0.000000 0.000000 0.000000 -0.009465 0.000000 0.055340
#
#
# Mechanical properties :
#
#
# Convention : Reuss Voigt Hill
#
# Bulk Modulus (GPa) = 31.94891 48.28744 40.11818
# Shear Modulus (GPa) = 21.73064 31.37830 26.55447
#
# Velocity S-wave (km/s) = 2.94224 3.53555 3.25245
# Velocity P-wave (km/s) = 4.92644 5.99191 5.48510
#
# Compressibility (1/GPa) = 0.03129997
#
# Stress axis : x y z
#
# Youngs Moduli (GPa) = 45.18544 42.69541 78.94050
#
# Poissons Ratio (x) = 0.01912 0.81556
# Poissons Ratio (y) = 0.02023 0.21165
# Poissons Ratio (z) = 0.46683 0.11447
#
# Static dielectric constant tensor:
#      x y z
#    x 2.040780 0.000000 0.023820 
#    y 0.000000 1.980910 0.000000 
#    z 0.023820 0.000000 1.976980 
# 
# From -- ./inp_files/85587.got.cif
#   From: 2010.05.17/outbox.cif.g08.bks.cpg/sg15_43_cif.got.tgz:85587.got - 2010.06.03 18:47:42.
