data_PCOD9266835
_publ_section_title
;
Structure prediction by ZEFSAII (Michael W. Deem and Ramdas Pophale) SiO2 
 PCOD9266835
Probable space group: C 2/C
;
_chemical_formula_sum "Si O2"
_cell_formula_units_Z 56
_cell_length_a 7.117252
_cell_length_b 20.162241
_cell_length_c 22.667963
_cell_angle_alpha 90.000000
_cell_angle_beta 61.149112
_cell_angle_gamma 90.000000
_cell_volume 2849.098639
_symmetry_space_group_name_H-M "C 2/C"
_symmetry_group_IT_number 15
_symmetry_cell_setting 'monoclinic'
loop_
_space_group_symop_operation_xyz
x,y,z
-x,y,1/2-z
-x,-y,-z
x,-y,1/2+z
1/2+x,1/2+y,z
1/2-x,1/2+y,1/2-z
1/2-x,1/2-y,-z
1/2+x,1/2-y,1/2+z
loop_
_atom_site_type_symbol
_atom_site_label
_atom_site_fract_x
_atom_site_fract_y
_atom_site_fract_z
Si Si1 0.156233 0.706704 0.874176
Si Si2 0.861776 0.963045 0.166032
Si Si3 0.000000 0.132734 0.750000
Si Si4 0.802144 0.643444 0.381739
Si Si5 0.244935 0.624284 0.576487
Si Si6 0.500000 0.066625 0.250000
Si Si7 0.734122 0.672240 0.514810
Si Si8 0.416571 0.456998 0.956949
O O1 0.305108 0.678387 0.800451
O O2 0.221699 0.782907 0.876275
O O3 0.203871 0.665812 0.926996
O O4 0.912474 0.686845 0.896849
O O5 0.929572 0.912616 0.206108
O O6 0.725490 0.925416 0.135130
O O7 0.708349 0.019258 0.217019
O O8 0.071452 0.993529 0.100514
O O9 0.975423 0.613668 0.310877
O O10 0.869011 0.640869 0.440643
O O11 0.594737 0.596331 0.411006
O O12 0.489674 0.649421 0.543187
O O13 0.226385 0.583921 0.517193
O O14 0.750000 0.750000 0.500000
O O15 0.500000 0.500000 0.000000
#
# Coordination Sequence:
#
# PCOD9266835 Si02
#       8
#     8   8   4   8   8   4   8   8
#     4  11  22  36  60  90 118 158 197 245 305 364
#     4  10  20  37  59  83 120 159 202 250 295 361
#     4  12  23  38  58  86 127 152 202 256 296 362
#     4   9  19  35  59  84 119 152 193 245 294 358
#     4  10  19  38  62  89 115 157 202 241 309 359
#     4  10  19  38  62  80 111 166 198 234 316 348
#     4   9  19  36  56  86 121 150 189 248 290 349
#     4   8  17  34  60  82 113 155 195 245 292 343
#
# _framework density 19.655339000000001
#
# number of rings (size 3 to 8) (size 9 to 14) (size 15 to 20)
#    0.000    2.286    1.429    1.286    0.000    5.143 
#    2.571    0.714    3.143    0.000    0.000    0.000 
#    0.000    0.000    0.000    0.000    0.000    0.000 
#
# Total GULP energy -155870.467129 kJ/mol
# GULP energy per Si atom -5566.802397 kJ/mol
# Density = 1.961060 g / cm^3
# Si number density = 19.655339 Si / 1000 Ang^3
#
#
#
# Elastic Constant Matrix: (Units=GPa)
#
#
# Indices 1 2 3 4 5 6 
#
# 1 27.4547 17.2570 23.7764 0.0000 -2.9548 0.0000
# 2 17.2570 102.9677 52.2206 0.0000 -6.0107 0.0000
# 3 23.7764 52.2206 141.8425 0.0000 3.1684 0.0000
# 4 0.0000 0.0000 0.0000 38.5166 0.0000 5.0243
# 5 -2.9548 -6.0107 3.1684 0.0000 21.3950 0.0000
# 6 0.0000 0.0000 0.0000 5.0243 0.0000 16.2260
#
#
#
# Elastic Compliance Matrix: (Units=1/GPa)
#
#
# Indices 1 2 3 4 5 6 
#
# 1 0.044967 -0.004053 -0.006179 0.000000 0.005987 0.000000
# 2 -0.004053 0.012661 -0.004062 0.000000 0.003599 0.000000
# 3 -0.006179 -0.004062 0.009658 0.000000 -0.003425 0.000000
# 4 0.000000 0.000000 0.000000 0.027056 0.000000 -0.008378
# 5 0.005987 0.003599 -0.003425 0.000000 0.049085 0.000000
# 6 0.000000 0.000000 0.000000 -0.008378 0.000000 0.064223
#
#
# Mechanical properties :
#
#
# Convention : Reuss Voigt Hill
#
# Bulk Modulus (GPa) = 25.84178 50.97477 38.40828
# Shear Modulus (GPa) = 20.06916 27.16158 23.61537
#
# Velocity S-wave (km/s) = 3.19886 3.72142 3.46999
# Velocity P-wave (km/s) = 5.17877 6.66752 5.96973
#
# Compressibility (1/GPa) = 0.03869702
#
# Stress axis : x y z
#
# Youngs Moduli (GPa) = 22.23862 78.98004 103.54137
#
# Poissons Ratio (x) = 0.32011 0.63980
# Poissons Ratio (y) = 0.09013 0.42063
# Poissons Ratio (z) = 0.13742 0.32085
#
# Static dielectric constant tensor:
#      x y z
#    x 1.714990 0.000000 0.112070 
#    y 0.000000 1.733250 0.000000 
#    z 0.112070 0.000000 1.961020 
# 
# From -- ./inp_files/233789.got.cif
#   From: 2010.05.17/outbox.cif.g08.bks.cpg/sg15_117_cif.got.tgz:233789.got - 2010.06.03 18:47:42.
