data_PCOD9266599
_publ_section_title
;
Structure prediction by ZEFSAII (Michael W. Deem and Ramdas Pophale) SiO2 
 PCOD9266599
Probable space group: C 2/C
;
_chemical_formula_sum "Si O2"
_cell_formula_units_Z 52
_cell_length_a 22.262023
_cell_length_b 23.289620
_cell_length_c 7.755793
_cell_angle_alpha 90.000000
_cell_angle_beta 40.130323
_cell_angle_gamma 90.000000
_cell_volume 2591.762925
_symmetry_space_group_name_H-M "C 2/C"
_symmetry_group_IT_number 15
_symmetry_cell_setting 'monoclinic'
loop_
_space_group_symop_operation_xyz
x,y,z
-x,y,1/2-z
-x,-y,-z
x,-y,1/2+z
1/2+x,1/2+y,z
1/2-x,1/2+y,1/2-z
1/2-x,1/2-y,-z
1/2+x,1/2-y,1/2+z
loop_
_atom_site_type_symbol
_atom_site_label
_atom_site_fract_x
_atom_site_fract_y
_atom_site_fract_z
Si Si1 0.826452 0.260951 0.982294
Si Si2 0.079111 0.820234 0.720605
Si Si3 0.000000 0.197517 0.750000
Si Si4 0.177587 0.300434 0.012580
Si Si5 0.599915 0.031050 0.933888
Si Si6 0.783712 0.632146 0.724578
Si Si7 0.603133 0.910337 0.050217
O O1 0.773005 0.231896 0.261688
O O2 0.832868 0.329346 0.972985
O O3 0.750000 0.250000 0.000000
O O4 0.927780 0.234117 0.789323
O O5 0.103988 0.751635 0.660930
O O6 0.173446 0.854872 0.463648
O O7 0.000000 0.831019 0.750000
O O8 0.052143 0.835297 0.978551
O O9 0.178073 0.334513 0.189982
O O10 0.167450 0.354864 0.908448
O O11 0.680556 0.067808 0.849580
O O12 0.598498 0.056998 0.745440
O O13 0.500000 0.038876 0.250000
O O14 0.621570 0.963403 0.883331
O O15 0.500000 0.886597 0.250000
#
# Coordination Sequence:
#
# PCOD9266599 Si02
#       7
#     8   8   4   8   8   8   8
#     4  11  22  33  53  84 110 150 195 230 289 354
#     4  11  21  36  57  85 118 154 192 235 294 344
#     4  12  20  34  58  80 122 150 194 244 276 348
#     4  10  19  38  51  73 119 147 176 235 282 336
#     4  10  21  34  56  80 110 148 183 230 284 340
#     4  10  20  38  52  74 120 149 180 235 285 337
#     4  10  20  34  54  80 108 143 184 226 279 347
#
# _framework density 20.063562999999998
#
# number of rings (size 3 to 8) (size 9 to 14) (size 15 to 20)
#    0.000    1.538    3.077    5.077    1.077    2.462 
#    0.000    0.000    0.000    0.000    2.000    3.231 
#    0.000    0.000    0.000    0.000    0.000    0.000 
#
# Total GULP energy -144747.232841 kJ/mol
# GULP energy per Si atom -5567.201263 kJ/mol
# Density = 2.001790 g / cm^3
# Si number density = 20.063563 Si / 1000 Ang^3
#
#
#
# Elastic Constant Matrix: (Units=GPa)
#
#
# Indices 1 2 3 4 5 6 
#
# 1 93.3936 4.8658 7.9882 0.0000 -7.2957 0.0000
# 2 4.8658 80.0468 14.8809 0.0000 -15.0771 0.0000
# 3 7.9882 14.8809 48.5377 0.0000 -2.3424 0.0000
# 4 0.0000 0.0000 0.0000 10.3897 0.0000 -8.4562
# 5 -7.2957 -15.0771 -2.3424 0.0000 38.3585 0.0000
# 6 0.0000 0.0000 0.0000 -8.4562 0.0000 2.3233
#
#
#
# Elastic Compliance Matrix: (Units=1/GPa)
#
#
# Indices 1 2 3 4 5 6 
#
# 1 0.011010 0.000028 -0.001724 0.000000 0.002000 0.000000
# 2 0.000028 0.014267 -0.004120 0.000000 0.005361 0.000000
# 3 -0.001724 -0.004120 0.022121 0.000000 -0.000596 0.000000
# 4 0.000000 0.000000 0.000000 -0.049046 0.000000 -0.178518
# 5 0.002000 0.005361 -0.000596 0.000000 0.028521 0.000000
# 6 0.000000 0.000000 0.000000 -0.178518 0.000000 -0.219337
#
#
# Mechanical properties :
#
#
# Convention : Reuss Voigt Hill
#
# Bulk Modulus (GPa) = 27.96020 30.82752 29.39386
# Shear Modulus (GPa) = -29.60127 23.16383 -3.21872
#
# Velocity S-wave (km/s) = -3.84523 3.40151 -1.26797
# Velocity P-wave (km/s) = 2.39756 5.55206 3.54098
#
# Compressibility (1/GPa) = 0.03576512
#
# Stress axis : x y z
#
# Youngs Moduli (GPa) = 90.82993 70.09328 45.20685
#
# Poissons Ratio (x) = -0.00196 0.07794
# Poissons Ratio (y) = -0.00253 0.18624
# Poissons Ratio (z) = 0.15659 0.28877
#
# Static dielectric constant tensor:
#      x y z
#    x 2.156450 0.000000 0.102100 
#    y 0.000000 1.703110 0.000000 
#    z 0.102100 0.000000 1.791870 
# 
# From -- ./inp_files/58597.got.cif
#   From: 2010.05.17/outbox.cif.g08.bks.cpg/sg15_30_cif.got.tgz:58597.got - 2010.06.03 18:47:42.
