data_PCOD9266825
_publ_section_title
;
Structure prediction by ZEFSAII (Michael W. Deem and Ramdas Pophale) SiO2 
 PCOD9266825
Probable space group: C 2/C
;
_chemical_formula_sum "Si O2"
_cell_formula_units_Z 64
_cell_length_a 8.830202
_cell_length_b 21.387968
_cell_length_c 23.361651
_cell_angle_alpha 90.000000
_cell_angle_beta 133.752924
_cell_angle_gamma 90.000000
_cell_volume 3186.974212
_symmetry_space_group_name_H-M "C 2/C"
_symmetry_group_IT_number 15
_symmetry_cell_setting 'monoclinic'
loop_
_space_group_symop_operation_xyz
x,y,z
-x,y,1/2-z
-x,-y,-z
x,-y,1/2+z
1/2+x,1/2+y,z
1/2-x,1/2+y,1/2-z
1/2-x,1/2-y,-z
1/2+x,1/2-y,1/2+z
loop_
_atom_site_type_symbol
_atom_site_label
_atom_site_fract_x
_atom_site_fract_y
_atom_site_fract_z
Si Si1 0.398913 0.878531 0.160849
Si Si2 0.259219 0.064205 0.409560
Si Si3 0.132816 0.398238 0.874514
Si Si4 0.520280 0.308582 0.104450
Si Si5 0.083573 0.517190 0.929876
Si Si6 0.431593 0.821812 0.535754
Si Si7 0.367995 0.244237 0.772822
Si Si8 0.814030 0.882651 0.799355
O O1 0.500000 0.892409 0.250000
O O2 0.156318 0.863003 0.110692
O O3 0.438235 0.931432 0.124996
O O4 0.503195 0.813274 0.167091
O O5 0.288320 0.043197 0.482764
O O6 0.397019 0.127233 0.436550
O O7 0.021212 0.081441 0.333761
O O8 0.366256 0.010382 0.399058
O O9 0.189219 0.457229 0.928077
O O10 0.137096 0.338758 0.917136
O O11 0.272470 0.394731 0.855107
O O12 0.892044 0.403217 0.789504
O O13 0.512006 0.248787 0.059669
O O14 0.650326 0.284573 0.193161
O O15 0.282604 0.326903 0.055654
O O16 0.500000 0.260981 0.750000
O O17 0.339542 0.308063 0.798696
#
# Coordination Sequence:
#
# PCOD9266825 Si02
#       8
#     8   8   8   8   8   8   8   8
#     4   9  20  38  62  90 123 165 205 251 315 377
#     4  10  23  42  63  87 124 164 212 259 309 373
#     4  10  24  39  62  91 125 157 218 259 302 381
#     4   9  18  35  62  87 128 162 192 260 314 364
#     4  10  23  44  57  89 126 159 209 260 302 381
#     4  10  19  38  61  92 122 163 206 248 316 368
#     4   9  18  37  63  91 120 157 203 255 307 378
#     4  11  22  40  65  93 115 165 209 264 316 355
#
# _framework density 20.081745000000002
#
# number of rings (size 3 to 8) (size 9 to 14) (size 15 to 20)
#    0.000    2.500    1.250    1.500    5.250    0.500 
#    9.000    3.750    0.000    0.000    0.000    0.000 
#    0.000    0.000    0.000    0.000    0.000    0.000 
#
# Total GULP energy -178603.772918 kJ/mol
# GULP energy per Si atom -5581.367904 kJ/mol
# Density = 2.003604 g / cm^3
# Si number density = 20.081745 Si / 1000 Ang^3
#
#
#
# Elastic Constant Matrix: (Units=GPa)
#
#
# Indices 1 2 3 4 5 6 
#
# 1 53.9990 39.1901 30.5057 -0.0001 7.2628 -0.0001
# 2 39.1901 75.8233 16.5168 0.0000 -9.1579 0.0000
# 3 30.5057 16.5168 37.6637 -0.0001 3.3741 -0.0001
# 4 -0.0001 0.0000 -0.0001 18.8435 -0.0001 -1.8565
# 5 7.2628 -9.1579 3.3741 -0.0001 38.1618 -0.0001
# 6 -0.0001 0.0000 -0.0001 -1.8565 -0.0001 5.4150
#
#
#
# Elastic Compliance Matrix: (Units=1/GPa)
#
#
# Indices 1 2 3 4 5 6 
#
# 1 0.056933 -0.023510 -0.034601 0.000000 -0.013418 0.000000
# 2 -0.023510 0.024954 0.007219 0.000000 0.009825 0.000000
# 3 -0.034601 0.007219 0.051070 0.000000 0.003802 0.000000
# 4 0.000000 0.000000 0.000000 0.054924 0.000000 0.018830
# 5 -0.013418 0.009825 0.003802 0.000000 0.030779 0.000000
# 6 0.000000 0.000000 0.000000 0.018830 0.000000 0.191128
#
#
# Mechanical properties :
#
#
# Convention : Reuss Voigt Hill
#
# Bulk Modulus (GPa) = 32.08002 37.76789 34.92396
# Shear Modulus (GPa) = 9.57919 17.90229 13.74074
#
# Velocity S-wave (km/s) = 2.18643 2.98899 2.61864
# Velocity P-wave (km/s) = 4.73110 5.54617 5.15477
#
# Compressibility (1/GPa) = 0.03117205
#
# Stress axis : x y z
#
# Youngs Moduli (GPa) = 17.56440 40.07356 19.58105
#
# Poissons Ratio (x) = 0.94213 0.67753
# Poissons Ratio (y) = 0.41294 -0.14135
# Poissons Ratio (z) = 0.60775 -0.28927
#
# Static dielectric constant tensor:
#      x y z
#    x 1.715660 0.000000 0.018050 
#    y 0.000000 1.718550 0.000000 
#    z 0.018050 0.000000 1.724540 
# 
# From -- ./inp_files/266123.got.cif
#   From: 2010.05.17/outbox.cif.g08.bks.cpg/sg15_134_cif.got.tgz:266123.got - 2010.06.03 18:47:42.
