data_PCOD9266197
_publ_section_title
;
Structure prediction by ZEFSAII (Michael W. Deem and Ramdas Pophale) SiO2 
 PCOD9266197
Probable space group: C 2/C
;
_chemical_formula_sum "Si O2"
_cell_formula_units_Z 48
_cell_length_a 9.268146
_cell_length_b 29.517632
_cell_length_c 16.491366
_cell_angle_alpha 90.000000
_cell_angle_beta 30.891075
_cell_angle_gamma 90.000000
_cell_volume 2316.291914
_symmetry_space_group_name_H-M "C 2/C"
_symmetry_group_IT_number 15
_symmetry_cell_setting 'monoclinic'
loop_
_space_group_symop_operation_xyz
x,y,z
-x,y,1/2-z
-x,-y,-z
x,-y,1/2+z
1/2+x,1/2+y,z
1/2-x,1/2+y,1/2-z
1/2-x,1/2-y,-z
1/2+x,1/2-y,1/2+z
loop_
_atom_site_type_symbol
_atom_site_label
_atom_site_fract_x
_atom_site_fract_y
_atom_site_fract_z
Si Si1 0.874796 0.549262 0.718996
Si Si2 0.450905 0.269888 0.491790
Si Si3 0.154716 0.297111 0.785355
Si Si4 0.723272 0.358717 0.332579
Si Si5 0.049310 0.978087 0.631384
Si Si6 0.244672 0.103098 0.318592
O O1 0.803733 0.601464 0.731803
O O2 0.595045 0.519666 0.846301
O O3 0.000000 0.549450 0.750000
O O4 0.122515 0.528287 0.545771
O O5 0.415972 0.280675 0.604172
O O6 0.619868 0.224198 0.390963
O O7 0.603170 0.310106 0.368076
O O8 0.129946 0.275845 0.616098
O O9 0.150696 0.351296 0.777422
O O10 0.493340 0.380984 0.503397
O O11 0.000000 0.348815 0.250000
O O12 0.887620 0.933525 0.677019
O O13 0.000000 0.984560 0.750000
O O14 0.500000 0.084528 0.250000
#
# Coordination Sequence:
#
# PCOD9266197 Si02
#       6
#     8   8   8   8   8   8
#     4  11  23  42  67  90 115 165 208 241 294 376
#     4   9  17  33  55  85 117 152 193 250 291 344
#     4   9  17  33  58  85 116 150 204 245 288 345
#     4  10  19  37  61  88 118 153 210 248 285 357
#     4  12  26  42  61  92 129 153 193 263 312 352
#     4  11  20  39  65  90 116 167 209 241 291 370
#
# _framework density 20.722776
#
# number of rings (size 3 to 8) (size 9 to 14) (size 15 to 20)
#    0.000    1.667    6.667    1.500    2.333    0.000 
#    3.000    4.167    3.667    0.000    0.000    0.000 
#    0.000    0.000    0.000    0.000    0.000    0.000 
#
# Total GULP energy -133766.747963 kJ/mol
# GULP energy per Si atom -5573.614498 kJ/mol
# Density = 2.067561 g / cm^3
# Si number density = 20.722776 Si / 1000 Ang^3
#
#
#
# Elastic Constant Matrix: (Units=GPa)
#
#
# Indices 1 2 3 4 5 6 
#
# 1 17.6334 -1.9403 -4.9803 0.0000 -6.1496 0.0000
# 2 -1.9403 77.6943 9.4166 0.0000 -5.5169 0.0000
# 3 -4.9803 9.4166 78.9056 0.0000 -14.2818 0.0000
# 4 0.0000 0.0000 0.0000 31.5608 0.0000 1.5023
# 5 -6.1496 -5.5169 -14.2818 0.0000 19.3442 0.0000
# 6 0.0000 0.0000 0.0000 1.5023 0.0000 13.0222
#
#
#
# Elastic Compliance Matrix: (Units=1/GPa)
#
#
# Indices 1 2 3 4 5 6 
#
# 1 0.070237 0.002737 0.009568 0.000000 0.030173 0.000000
# 2 0.002737 0.013316 -0.000660 0.000000 0.004181 0.000000
# 3 0.009568 -0.000660 0.016012 0.000000 0.014675 0.000000
# 4 0.000000 0.000000 0.000000 0.031860 0.000000 -0.003675
# 5 0.030173 0.004181 0.014675 0.000000 0.073314 0.000000
# 6 0.000000 0.000000 0.000000 -0.003675 0.000000 0.077216
#
#
# Mechanical properties :
#
#
# Convention : Reuss Voigt Hill
#
# Bulk Modulus (GPa) = 8.13967 19.91391 14.02679
# Shear Modulus (GPa) = 16.68798 24.23458 20.46128
#
# Velocity S-wave (km/s) = 2.84085 3.42346 3.14567
# Velocity P-wave (km/s) = 3.83367 5.02566 4.46958
#
# Compressibility (1/GPa) = 0.12285512
#
# Stress axis : x y z
#
# Youngs Moduli (GPa) = 14.23759 75.09695 62.45226
#
# Poissons Ratio (x) = -0.20553 -0.59753
# Poissons Ratio (y) = -0.03897 0.04120
# Poissons Ratio (z) = -0.13622 0.04954
#
# Static dielectric constant tensor:
#      x y z
#    x 1.891950 0.000000 0.026120 
#    y 0.000000 1.775130 0.000000 
#    z 0.026120 0.000000 1.789190 
# 
# From -- ./inp_files/194175.got.cif
#   From: 2010.05.17/outbox.cif.g08.bks.cpg/sg15_98_cif.got.tgz:194175.got - 2010.06.03 18:47:42.
