data_PCOD9266283
_publ_section_title
;
Structure prediction by ZEFSAII (Michael W. Deem and Ramdas Pophale) SiO2 
 PCOD9266283
Probable space group: C 2/C
;
_chemical_formula_sum "Si O2"
_cell_formula_units_Z 64
_cell_length_a 10.682235
_cell_length_b 15.039119
_cell_length_c 18.647192
_cell_angle_alpha 90.000000
_cell_angle_beta 60.033095
_cell_angle_gamma 90.000000
_cell_volume 2595.214942
_symmetry_space_group_name_H-M "C 2/C"
_symmetry_group_IT_number 15
_symmetry_cell_setting 'monoclinic'
loop_
_space_group_symop_operation_xyz
x,y,z
-x,y,1/2-z
-x,-y,-z
x,-y,1/2+z
1/2+x,1/2+y,z
1/2-x,1/2+y,1/2-z
1/2-x,1/2-y,-z
1/2+x,1/2-y,1/2+z
loop_
_atom_site_type_symbol
_atom_site_label
_atom_site_fract_x
_atom_site_fract_y
_atom_site_fract_z
Si Si1 0.665695 0.926921 0.194232
Si Si2 0.106650 0.648024 0.568576
Si Si3 0.706961 0.916379 0.339166
Si Si4 0.202373 0.636065 0.170071
Si Si5 0.140166 0.781631 0.094728
Si Si6 0.198199 0.057504 0.087568
Si Si7 0.407513 0.423275 0.489846
Si Si8 0.956457 0.815414 0.680456
O O1 0.500000 0.897067 0.250000
O O2 0.706618 0.883533 0.106797
O O3 0.742118 0.900714 0.245961
O O4 0.662008 0.033970 0.192809
O O5 0.198630 0.635657 0.470355
O O6 0.033605 0.741431 0.608822
O O7 0.966407 0.584742 0.602820
O O8 0.776568 0.841717 0.370039
O O9 0.759991 0.012134 0.350311
O O10 0.091015 0.696948 0.156324
O O11 0.285798 0.678346 0.213834
O O12 0.333812 0.628107 0.075572
O O13 0.034172 0.848856 0.082392
O O14 0.250000 0.750000 0.000000
O O15 0.035639 0.092041 0.139565
O O16 0.206214 0.978756 0.026385
O O17 0.500000 0.500000 0.500000
O O18 0.000000 0.797286 0.750000
#
# Coordination Sequence:
#
# PCOD9266283 Si02
#       8
#     8   8   8   8   8   8   8   8
#     4  10  22  39  64  86 124 166 207 257 315 373
#     4  11  22  40  63  90 123 165 204 258 309 377
#     4  10  20  39  60  94 121 163 211 255 317 371
#     4  11  20  39  62  84 122 162 207 245 312 377
#     4   9  20  35  62  88 117 157 208 253 310 381
#     4  11  22  38  62  92 123 156 214 258 303 372
#     4  10  19  37  62  91 117 156 199 256 312 366
#     4  12  24  38  61  91 125 163 203 256 316 368
#
# _framework density 24.660771
#
# number of rings (size 3 to 8) (size 9 to 14) (size 15 to 20)
#    0.000    1.500    3.750    2.625    0.000    0.000 
#    0.000    0.000    5.500    0.000    0.000    0.000 
#    0.000    0.000    0.000    0.000    0.000    0.000 
#
# Total GULP energy -178617.469246 kJ/mol
# GULP energy per Si atom -5581.795914 kJ/mol
# Density = 2.460464 g / cm^3
# Si number density = 24.660771 Si / 1000 Ang^3
#
#
#
# Elastic Constant Matrix: (Units=GPa)
#
#
# Indices 1 2 3 4 5 6 
#
# 1 70.9033 23.3587 10.4868 0.0000 21.6017 0.0000
# 2 23.3587 94.0532 19.6187 0.0000 23.0248 0.0000
# 3 10.4868 19.6187 54.3628 0.0000 15.2772 0.0000
# 4 0.0000 0.0000 0.0000 48.4725 0.0000 15.4042
# 5 21.6017 23.0248 15.2772 0.0000 34.8843 0.0000
# 6 0.0000 0.0000 0.0000 15.4042 0.0000 43.9570
#
#
#
# Elastic Compliance Matrix: (Units=1/GPa)
#
#
# Indices 1 2 3 4 5 6 
#
# 1 0.017707 -0.002047 0.000028 0.000000 -0.009626 0.000000
# 2 -0.002047 0.013232 -0.002603 0.000000 -0.006326 0.000000
# 3 0.000028 -0.002603 0.021497 0.000000 -0.007714 0.000000
# 4 0.000000 0.000000 0.000000 0.023216 0.000000 -0.008136
# 5 -0.009626 -0.006326 -0.007714 0.000000 0.042181 0.000000
# 6 0.000000 0.000000 0.000000 -0.008136 0.000000 0.025601
#
#
# Mechanical properties :
#
#
# Convention : Reuss Voigt Hill
#
# Bulk Modulus (GPa) = 23.15215 36.24976 29.70095
# Shear Modulus (GPa) = 29.92711 36.51977 33.22344
#
# Velocity S-wave (km/s) = 3.48739 3.85240 3.67443
# Velocity P-wave (km/s) = 5.06206 5.87531 5.48378
#
# Compressibility (1/GPa) = 0.04319254
#
# Stress axis : x y z
#
# Youngs Moduli (GPa) = 56.47618 75.57285 46.51918
#
# Poissons Ratio (x) = 0.15469 -0.00131
# Poissons Ratio (y) = 0.11560 0.12107
# Poissons Ratio (z) = -0.00159 0.19669
#
# Static dielectric constant tensor:
#      x y z
#    x 2.006710 0.000000 0.003860 
#    y 0.000000 1.999800 0.000000 
#    z 0.003860 0.000000 2.029910 
# 
# From -- ./inp_files/238727.got.cif
#   From: 2010.05.17/outbox.cif.g08.bks.cpg/sg15_120_cif.got.tgz:238727.got - 2010.06.03 18:47:42.
