data_PCOD9266972
_publ_section_title
;
Structure prediction by ZEFSAII (Michael W. Deem and Ramdas Pophale) SiO2 
 PCOD9266972
Probable space group: C 2/C
;
_chemical_formula_sum "Si O2"
_cell_formula_units_Z 48
_cell_length_a 20.636071
_cell_length_b 17.824499
_cell_length_c 9.243061
_cell_angle_alpha 90.000000
_cell_angle_beta 45.745394
_cell_angle_gamma 90.000000
_cell_volume 2435.130726
_symmetry_space_group_name_H-M "C 2/C"
_symmetry_group_IT_number 15
_symmetry_cell_setting 'monoclinic'
loop_
_space_group_symop_operation_xyz
x,y,z
-x,y,1/2-z
-x,-y,-z
x,-y,1/2+z
1/2+x,1/2+y,z
1/2-x,1/2+y,1/2-z
1/2-x,1/2-y,-z
1/2+x,1/2-y,1/2+z
loop_
_atom_site_type_symbol
_atom_site_label
_atom_site_fract_x
_atom_site_fract_y
_atom_site_fract_z
Si Si1 0.891895 0.158791 0.504819
Si Si2 0.584761 0.165579 0.519961
Si Si3 0.217801 0.581106 0.726699
Si Si4 0.955915 0.918235 0.601928
Si Si5 0.741683 0.428397 0.670588
Si Si6 0.512116 0.079837 0.061608
O O1 0.908096 0.246341 0.459279
O O2 0.786575 0.141433 0.685200
O O3 0.919099 0.107748 0.320448
O O4 0.955097 0.133920 0.539988
O O5 0.500000 0.136271 0.750000
O O6 0.682861 0.131051 0.399163
O O7 0.555523 0.139279 0.405603
O O8 0.232398 0.505518 0.793298
O O9 0.243175 0.562228 0.523206
O O10 0.114845 0.606749 0.883269
O O11 0.865591 0.910131 0.645167
O O12 0.000000 0.000000 0.500000
O O13 0.500000 0.068373 0.250000
O O14 0.500000 0.000000 0.000000
#
# Coordination Sequence:
#
# PCOD9266972 Si02
#       6
#     8   8   8   8   8   8
#     4  10  23  40  66  95 133 170 218 279 326 390
#     4  12  23  42  65  98 135 172 215 272 342 390
#     4  11  22  39  62  96 125 169 223 266 324 389
#     4  10  19  38  63  93 127 168 222 263 315 384
#     4  11  23  35  66  96 123 171 218 269 318 394
#     4  12  24  41  68  95 131 174 226 270 330 403
#
# _framework density 19.711466999999999
#
# number of rings (size 3 to 8) (size 9 to 14) (size 15 to 20)
#    0.000    1.000    6.667    1.500    0.000    4.000 
#    0.000    0.833    7.333    0.000    0.000    0.000 
#    0.000    0.000    0.000    0.000    0.000    0.000 
#
# Total GULP energy -133663.148208 kJ/mol
# GULP energy per Si atom -5569.297842 kJ/mol
# Density = 1.966660 g / cm^3
# Si number density = 19.711467 Si / 1000 Ang^3
#
#
#
# Elastic Constant Matrix: (Units=GPa)
#
#
# Indices 1 2 3 4 5 6 
#
# 1 169.3206 63.0741 46.6975 0.0000 -35.8998 0.0000
# 2 63.0741 100.9465 33.3421 0.0000 -12.1504 0.0000
# 3 46.6975 33.3421 53.2426 0.0000 -4.1735 0.0000
# 4 0.0000 0.0000 0.0000 13.3313 0.0000 -0.3839
# 5 -35.8998 -12.1504 -4.1735 0.0000 44.0615 0.0000
# 6 0.0000 0.0000 0.0000 -0.3839 0.0000 33.9530
#
#
#
# Elastic Compliance Matrix: (Units=1/GPa)
#
#
# Indices 1 2 3 4 5 6 
#
# 1 0.010484 -0.003603 -0.006394 0.000000 0.006942 0.000000
# 2 -0.003603 0.014061 -0.005613 0.000000 0.000410 0.000000
# 3 -0.006394 -0.005613 0.027581 0.000000 -0.004145 0.000000
# 4 0.000000 0.000000 0.000000 0.075036 0.000000 0.000848
# 5 0.006942 0.000410 -0.004145 0.000000 0.028072 0.000000
# 6 0.000000 0.000000 0.000000 0.000848 0.000000 0.029462
#
#
# Mechanical properties :
#
#
# Convention : Reuss Voigt Hill
#
# Bulk Modulus (GPa) = 47.83779 67.74857 57.79318
# Shear Modulus (GPa) = 22.43320 30.29558 26.36439
#
# Velocity S-wave (km/s) = 3.37720 3.92465 3.66117
# Velocity P-wave (km/s) = 6.28721 7.41498 6.87426
#
# Compressibility (1/GPa) = 0.02090398
#
# Stress axis : x y z
#
# Youngs Moduli (GPa) = 95.38797 71.12020 36.25741
#
# Poissons Ratio (x) = 0.25622 0.23185
# Poissons Ratio (y) = 0.34365 0.20352
# Poissons Ratio (z) = 0.60995 0.39922
#
# Static dielectric constant tensor:
#      x y z
#    x 1.736760 0.000000 -0.034130 
#    y 0.000000 1.715900 0.000000 
#    z -0.034130 0.000000 1.752600 
# 
# From -- ./inp_files/56422.got.cif
#   From: 2010.05.17/outbox.cif.g08.bks.cpg/sg15_29_cif.got.tgz:56422.got - 2010.06.03 18:47:42.
