data_PCOD9266012
_publ_section_title
;
Structure prediction by ZEFSAII (Michael W. Deem and Ramdas Pophale) SiO2 
 PCOD9266012
Probable space group: C 2/C
;
_chemical_formula_sum "Si O2"
_cell_formula_units_Z 56
_cell_length_a 22.576345
_cell_length_b 11.613712
_cell_length_c 12.950900
_cell_angle_alpha 90.000000
_cell_angle_beta 65.046536
_cell_angle_gamma 90.000000
_cell_volume 3078.680750
_symmetry_space_group_name_H-M "C 2/C"
_symmetry_group_IT_number 15
_symmetry_cell_setting 'monoclinic'
loop_
_space_group_symop_operation_xyz
x,y,z
-x,y,1/2-z
-x,-y,-z
x,-y,1/2+z
1/2+x,1/2+y,z
1/2-x,1/2+y,1/2-z
1/2-x,1/2-y,-z
1/2+x,1/2-y,1/2+z
loop_
_atom_site_type_symbol
_atom_site_label
_atom_site_fract_x
_atom_site_fract_y
_atom_site_fract_z
Si Si1 0.343071 0.353867 0.434463
Si Si2 0.106082 0.946700 0.451227
Si Si3 0.686469 0.883015 0.008334
Si Si4 0.432232 0.494141 0.238489
Si Si5 0.741624 0.325022 0.339794
Si Si6 0.702626 0.132199 0.925615
Si Si7 0.070154 0.215971 0.151867
O O1 0.366207 0.448016 0.501294
O O2 0.392834 0.383164 0.306307
O O3 0.341524 0.229369 0.488018
O O4 0.271434 0.370825 0.437718
O O5 0.065176 0.988569 0.384903
O O6 0.171514 0.880807 0.367686
O O7 0.065333 0.856909 0.549898
O O8 0.726569 0.892095 0.086283
O O9 0.620580 0.816939 0.091049
O O10 0.726666 0.801097 0.899231
O O11 0.674758 0.004586 0.962507
O O12 0.500000 0.493648 0.250000
O O13 0.399875 0.616856 0.294539
O O14 0.783003 0.333571 0.204124
O O15 0.000000 0.250446 0.250000
#
# Coordination Sequence:
#
# PCOD9266012 Si02
#       7
#     8   8   8   8   8   8   8
#     4  10  22  34  54  86 118 148 190 236 290 353
#     4  10  19  37  59  86 115 150 191 242 294 331
#     4  10  22  38  56  89 117 149 203 225 290 351
#     4  10  21  38  60  84 115 152 195 245 289 342
#     4  10  21  34  60  83 114 156 182 243 281 346
#     4  11  22  35  56  86 120 153 186 236 299 342
#     4   9  21  38  59  86 113 154 196 246 276 341
#
# _framework density 18.189608
#
# number of rings (size 3 to 8) (size 9 to 14) (size 15 to 20)
#    0.000    2.000    2.857    0.000    6.000    5.143 
#    0.000    0.714    0.000    0.857    0.000    0.000 
#    0.000    0.000    0.000    0.000    0.000    0.000 
#
# Total GULP energy -156028.710516 kJ/mol
# GULP energy per Si atom -5572.453947 kJ/mol
# Density = 1.814821 g / cm^3
# Si number density = 18.189608 Si / 1000 Ang^3
#
#
#
# Elastic Constant Matrix: (Units=GPa)
#
#
# Indices 1 2 3 4 5 6 
#
# 1 69.8990 25.3219 36.9773 0.0000 9.4877 0.0000
# 2 25.3219 98.3375 60.0794 0.0000 -8.0544 0.0000
# 3 36.9773 60.0794 120.9276 0.0000 5.9648 0.0000
# 4 0.0000 0.0000 0.0000 21.5606 0.0000 -5.4977
# 5 9.4877 -8.0544 5.9648 0.0000 38.3816 0.0000
# 6 0.0000 0.0000 0.0000 -5.4977 0.0000 18.7895
#
#
#
# Elastic Compliance Matrix: (Units=1/GPa)
#
#
# Indices 1 2 3 4 5 6 
#
# 1 0.017933 -0.002518 -0.004019 0.000000 -0.004337 0.000000
# 2 -0.002518 0.015667 -0.007262 0.000000 0.005039 0.000000
# 3 -0.004019 -0.007262 0.013234 0.000000 -0.002587 0.000000
# 4 0.000000 0.000000 0.000000 0.050120 0.000000 0.014665
# 5 -0.004337 0.005039 -0.002587 0.000000 0.028586 0.000000
# 6 0.000000 0.000000 0.000000 0.014665 0.000000 0.057512
#
#
# Mechanical properties :
#
#
# Convention : Reuss Voigt Hill
#
# Bulk Modulus (GPa) = 51.98497 59.32458 55.65478
# Shear Modulus (GPa) = 23.03490 26.86538 24.95014
#
# Velocity S-wave (km/s) = 3.56248 3.84730 3.70762
# Velocity P-wave (km/s) = 6.75005 7.24023 6.99943
#
# Compressibility (1/GPa) = 0.01923633
#
# Stress axis : x y z
#
# Youngs Moduli (GPa) = 55.76286 63.82838 75.56276
#
# Poissons Ratio (x) = 0.16070 0.30368
# Poissons Ratio (y) = 0.14039 0.54877
# Poissons Ratio (z) = 0.22410 0.46355
#
# Static dielectric constant tensor:
#      x y z
#    x 1.635610 0.000000 -0.013880 
#    y 0.000000 1.624430 0.000000 
#    z -0.013880 0.000000 1.668300 
# 
# From -- ./inp_files/117470.got.cif
#   From: 2010.05.17/outbox.cif.g08.bks.cpg/sg15_59_cif.got.tgz:117470.got - 2010.06.03 18:47:42.
