data_PCOD9266915
_publ_section_title
;
Structure prediction by ZEFSAII (Michael W. Deem and Ramdas Pophale) SiO2 
 PCOD9266915
Probable space group: C 2/C
;
_chemical_formula_sum "Si O2"
_cell_formula_units_Z 56
_cell_length_a 11.326442
_cell_length_b 12.287012
_cell_length_c 19.670322
_cell_angle_alpha 90.000000
_cell_angle_beta 66.537405
_cell_angle_gamma 90.000000
_cell_volume 2511.147444
_symmetry_space_group_name_H-M "C 2/C"
_symmetry_group_IT_number 15
_symmetry_cell_setting 'monoclinic'
loop_
_space_group_symop_operation_xyz
x,y,z
-x,y,1/2-z
-x,-y,-z
x,-y,1/2+z
1/2+x,1/2+y,z
1/2-x,1/2+y,1/2-z
1/2-x,1/2-y,-z
1/2+x,1/2-y,1/2+z
loop_
_atom_site_type_symbol
_atom_site_label
_atom_site_fract_x
_atom_site_fract_y
_atom_site_fract_z
Si Si1 0.874196 0.186423 0.914227
Si Si2 0.500000 0.006217 0.750000
Si Si3 0.776493 0.007617 0.230526
Si Si4 0.741263 0.533772 0.032582
Si Si5 0.211598 0.674905 0.355672
Si Si6 0.500000 0.629296 0.750000
Si Si7 0.877037 0.904683 0.081930
Si Si8 0.572830 0.085872 0.091423
O O1 0.953775 0.197040 0.825205
O O2 0.833139 0.309595 0.938203
O O3 0.979123 0.140629 0.943465
O O4 0.783320 0.083057 0.926782
O O5 0.366607 0.047122 0.743911
O O6 0.434800 0.945717 0.828269
O O7 0.758018 0.123600 0.273380
O O8 0.845062 0.003020 0.140975
O O9 0.878663 0.941390 0.252753
O O10 0.655843 0.564874 0.986949
O O11 0.879237 0.514550 0.964708
O O12 0.718559 0.621405 0.095983
O O13 0.207318 0.803536 0.368882
O O14 0.066707 0.628674 0.396998
#
# Coordination Sequence:
#
# PCOD9266915 Si02
#       8
#     8   4   8   8   8   4   8   8
#     4  10  21  36  59  88 118 156 202 248 299 358
#     4  10  19  38  63  84 122 160 203 250 301 358
#     4  10  20  40  62  88 118 158 208 248 292 362
#     4  12  20  38  60  88 122 150 202 252 302 352
#     4  10  22  39  60  86 120 163 199 242 308 364
#     4  10  19  38  63  84 122 160 203 250 301 358
#     4  10  22  39  60  86 120 163 199 242 308 364
#     4  10  21  36  59  88 118 156 202 248 299 358
#
# _framework density 22.300564000000001
#
# number of rings (size 3 to 8) (size 9 to 14) (size 15 to 20)
#    0.000    1.714    2.857    2.143    0.000    1.143 
#    0.000    0.714    0.000    0.000    0.000    0.000 
#    0.000    0.000    0.000    0.000    0.000    0.000 
#
# Total GULP energy -155919.233259 kJ/mol
# GULP energy per Si atom -5568.544045 kJ/mol
# Density = 2.224981 g / cm^3
# Si number density = 22.300564 Si / 1000 Ang^3
#
#
#
# Elastic Constant Matrix: (Units=GPa)
#
#
# Indices 1 2 3 4 5 6 
#
# 1 79.7563 -4.8040 1.0590 0.0000 15.9686 0.0000
# 2 -4.8040 56.5318 26.4889 0.0000 -1.5610 0.0000
# 3 1.0590 26.4889 89.4763 0.0000 23.5390 0.0000
# 4 0.0000 0.0000 0.0000 34.1518 0.0000 -10.1545
# 5 15.9686 -1.5610 23.5390 0.0000 29.0009 0.0000
# 6 0.0000 0.0000 0.0000 -10.1545 0.0000 19.9003
#
#
#
# Elastic Compliance Matrix: (Units=1/GPa)
#
#
# Indices 1 2 3 4 5 6 
#
# 1 0.014506 -0.000239 0.002548 0.000000 -0.010068 0.000000
# 2 -0.000239 0.021982 -0.008711 0.000000 0.008385 0.000000
# 3 0.002548 -0.008711 0.018077 0.000000 -0.016544 0.000000
# 4 0.000000 0.000000 0.000000 0.034518 0.000000 0.017613
# 5 -0.010068 0.008385 -0.016544 0.000000 0.053905 0.000000
# 6 0.000000 0.000000 0.000000 0.017613 0.000000 0.059238
#
#
# Mechanical properties :
#
#
# Convention : Reuss Voigt Hill
#
# Bulk Modulus (GPa) = 23.94597 30.13914 27.04255
# Shear Modulus (GPa) = 21.83880 30.14530 25.99205
#
# Velocity S-wave (km/s) = 3.13276 3.68064 3.41769
# Velocity P-wave (km/s) = 4.88331 5.62202 5.26563
#
# Compressibility (1/GPa) = 0.04176069
#
# Stress axis : x y z
#
# Youngs Moduli (GPa) = 68.93813 45.49193 55.31859
#
# Poissons Ratio (x) = 0.01088 -0.14094
# Poissons Ratio (y) = 0.01649 0.48186
# Poissons Ratio (z) = -0.17564 0.39627
#
# Static dielectric constant tensor:
#      x y z
#    x 1.933030 0.000000 -0.028230 
#    y 0.000000 1.831390 0.000000 
#    z -0.028230 0.000000 1.852380 
# 
# From -- ./inp_files/197804.got.cif
#   From: 2010.05.17/outbox.cif.g08.bks.cpg/sg15_99_cif.got.tgz:197804.got - 2010.06.03 18:47:42.
