data_PCOD9266269
_publ_section_title
;
Structure prediction by ZEFSAII (Michael W. Deem and Ramdas Pophale) SiO2 
 PCOD9266269
Probable space group: C 2/C
;
_chemical_formula_sum "Si O2"
_cell_formula_units_Z 48
_cell_length_a 8.719241
_cell_length_b 11.662742
_cell_length_c 25.963217
_cell_angle_alpha 90.000000
_cell_angle_beta 137.808419
_cell_angle_gamma 90.000000
_cell_volume 1773.193478
_symmetry_space_group_name_H-M "C 2/C"
_symmetry_group_IT_number 15
_symmetry_cell_setting 'monoclinic'
loop_
_space_group_symop_operation_xyz
x,y,z
-x,y,1/2-z
-x,-y,-z
x,-y,1/2+z
1/2+x,1/2+y,z
1/2-x,1/2+y,1/2-z
1/2-x,1/2-y,-z
1/2+x,1/2-y,1/2+z
loop_
_atom_site_type_symbol
_atom_site_label
_atom_site_fract_x
_atom_site_fract_y
_atom_site_fract_z
Si Si1 0.840977 0.497815 0.024110
Si Si2 0.524228 0.609161 0.641579
Si Si3 0.500000 0.607121 0.750000
Si Si4 0.500000 0.003675 0.750000
Si Si5 0.672810 0.313334 0.681007
Si Si6 0.652302 0.183634 0.049971
Si Si7 0.737644 0.339453 0.578009
O O1 0.632564 0.540985 0.937121
O O2 0.873192 0.367722 0.015052
O O3 0.799409 0.536042 0.071642
O O4 0.041654 0.581919 0.055682
O O5 0.468651 0.557016 0.685180
O O6 0.785146 0.589840 0.689733
O O7 0.429863 0.739981 0.619077
O O8 0.287393 0.689656 0.710335
O O9 0.353370 0.907998 0.747982
O O10 0.411335 0.302026 0.631503
O O11 0.674447 0.347790 0.621401
O O12 0.482086 0.290727 0.007673
#
# Coordination Sequence:
#
# PCOD9266269 Si02
#       7
#     8   8   4   4   8   8   8
#     4  10  21  38  63  94 123 153 202 264 316 365
#     4  10  20  40  58  87 118 159 198 246 300 366
#     4   9  22  38  62  77 122 166 199 240 296 369
#     4  11  22  40  60  81 126 162 197 250 294 369
#     4  10  21  41  57  89 121 157 202 249 303 368
#     4  10  19  37  62  88 124 158 193 263 317 356
#     4  10  22  40  64  92 123 154 206 261 315 371
#
# _framework density 27.069804000000001
#
# number of rings (size 3 to 8) (size 9 to 14) (size 15 to 20)
#    0.000    2.000    1.667    2.500    0.000    3.333 
#   12.000    0.000    0.000    0.000    0.000    0.000 
#    0.000    0.000    0.000    0.000    0.000    0.000 
#
# Total GULP energy -134115.448384 kJ/mol
# GULP energy per Si atom -5588.143683 kJ/mol
# Density = 2.700819 g / cm^3
# Si number density = 27.069804 Si / 1000 Ang^3
#
#
#
# Elastic Constant Matrix: (Units=GPa)
#
#
# Indices 1 2 3 4 5 6 
#
# 1 71.5200 31.5898 73.7130 0.0000 25.8380 0.0000
# 2 31.5898 87.4736 17.4905 0.0000 11.1070 0.0000
# 3 73.7130 17.4905 137.8059 0.0000 48.5448 0.0000
# 4 0.0000 0.0000 0.0000 21.0092 0.0000 11.4645
# 5 25.8380 11.1070 48.5448 0.0000 82.3445 0.0000
# 6 0.0000 0.0000 0.0000 11.4645 0.0000 36.3659
#
#
#
# Elastic Compliance Matrix: (Units=1/GPa)
#
#
# Indices 1 2 3 4 5 6 
#
# 1 0.038079 -0.009979 -0.019395 0.000000 0.000832 0.000000
# 2 -0.009979 0.014397 0.003902 0.000000 -0.001111 0.000000
# 3 -0.019395 0.003902 0.019156 0.000000 -0.005733 0.000000
# 4 0.000000 0.000000 0.000000 0.057488 0.000000 -0.018123
# 5 0.000832 -0.001111 -0.005733 0.000000 0.015413 0.000000
# 6 0.000000 0.000000 0.000000 -0.018123 0.000000 0.033212
#
#
# Mechanical properties :
#
#
# Convention : Reuss Voigt Hill
#
# Bulk Modulus (GPa) = 48.33979 60.26511 54.30245
# Shear Modulus (GPa) = 21.22382 39.54435 30.38409
#
# Velocity S-wave (km/s) = 2.80311 3.82623 3.35391
# Velocity P-wave (km/s) = 5.32661 6.46770 5.92469
#
# Compressibility (1/GPa) = 0.02068689
#
# Stress axis : x y z
#
# Youngs Moduli (GPa) = 26.26102 69.46017 52.20418
#
# Poissons Ratio (x) = 0.69316 1.01251
# Poissons Ratio (y) = 0.26207 -0.20370
# Poissons Ratio (z) = 0.50934 -0.27104
#
# Static dielectric constant tensor:
#      x y z
#    x 2.162800 0.000000 -0.009040 
#    y 0.000000 2.132290 0.000000 
#    z -0.009040 0.000000 2.209660 
# 
# From -- ./inp_files/308135.got.cif
#   From: 2010.05.17/outbox.cif.g08.bks.cpg/sg15_155_cif.got.tgz:308135.got - 2010.06.03 18:47:42.
