data_PCOD9266961
_publ_section_title
;
Structure prediction by ZEFSAII (Michael W. Deem and Ramdas Pophale) SiO2 
 PCOD9266961
Probable space group: C 2/C
;
_chemical_formula_sum "Si O2"
_cell_formula_units_Z 48
_cell_length_a 10.961107
_cell_length_b 9.607079
_cell_length_c 25.960257
_cell_angle_alpha 90.000000
_cell_angle_beta 57.707217
_cell_angle_gamma 90.000000
_cell_volume 2310.897079
_symmetry_space_group_name_H-M "C 2/C"
_symmetry_group_IT_number 15
_symmetry_cell_setting 'monoclinic'
loop_
_space_group_symop_operation_xyz
x,y,z
-x,y,1/2-z
-x,-y,-z
x,-y,1/2+z
1/2+x,1/2+y,z
1/2-x,1/2+y,1/2-z
1/2-x,1/2-y,-z
1/2+x,1/2-y,1/2+z
loop_
_atom_site_type_symbol
_atom_site_label
_atom_site_fract_x
_atom_site_fract_y
_atom_site_fract_z
Si Si1 0.132948 0.928395 0.315370
Si Si2 0.853993 0.731400 0.927742
Si Si3 0.331008 0.341265 0.770889
Si Si4 0.060644 0.644828 0.966001
Si Si5 0.585612 0.394638 0.444243
Si Si6 0.833426 0.013342 0.866803
O O1 0.246437 0.803413 0.286273
O O2 0.082763 0.936253 0.385833
O O3 0.980944 0.907582 0.320237
O O4 0.184169 0.072784 0.278580
O O5 0.756845 0.624099 0.917171
O O6 0.998759 0.682570 0.923122
O O7 0.864217 0.875203 0.894504
O O8 0.750000 0.750000 0.000000
O O9 0.500000 0.318912 0.750000
O O10 0.269483 0.443170 0.829579
O O11 0.229149 0.617497 0.920472
O O12 0.000000 0.500000 0.000000
O O13 0.998927 0.753501 0.021512
O O14 0.500000 0.500000 0.500000
#
# Coordination Sequence:
#
# PCOD9266961 Si02
#       6
#     8   8   8   8   8   8
#     4  11  23  45  70  94 132 174 226 276 332 391
#     4  10  19  38  63  91 136 173 208 258 330 386
#     4  10  24  46  70  92 131 179 226 278 332 387
#     4  11  21  38  67  97 135 181 216 254 338 404
#     4  11  23  40  63 103 138 169 217 273 333 400
#     4  11  22  43  69  97 135 175 222 277 327 396
#
# _framework density 20.771155
#
# number of rings (size 3 to 8) (size 9 to 14) (size 15 to 20)
#    0.000    1.333    5.000    2.000    0.000    4.667 
#    3.000    4.167    0.000    0.000    0.000    0.000 
#    0.000    0.000    0.000    0.000    0.000    0.000 
#
# Total GULP energy -133772.094909 kJ/mol
# GULP energy per Si atom -5573.837288 kJ/mol
# Density = 2.072388 g / cm^3
# Si number density = 20.771155 Si / 1000 Ang^3
#
#
#
# Elastic Constant Matrix: (Units=GPa)
#
#
# Indices 1 2 3 4 5 6 
#
# 1 73.7603 43.8261 32.0630 0.0000 6.8636 0.0000
# 2 43.8261 118.8397 69.1519 0.0000 10.4493 0.0000
# 3 32.0630 69.1519 108.0505 0.0000 6.9060 0.0000
# 4 0.0000 0.0000 0.0000 41.6128 0.0000 -0.4617
# 5 6.8636 10.4493 6.9060 0.0000 27.9812 0.0000
# 6 0.0000 0.0000 0.0000 -0.4617 0.0000 39.5698
#
#
#
# Elastic Compliance Matrix: (Units=1/GPa)
#
#
# Indices 1 2 3 4 5 6 
#
# 1 0.017654 -0.005362 -0.001685 0.000000 -0.001912 0.000000
# 2 -0.005362 0.015278 -0.008033 0.000000 -0.002408 0.000000
# 3 -0.001685 -0.008033 0.014913 0.000000 -0.000268 0.000000
# 4 0.000000 0.000000 0.000000 0.024034 0.000000 0.000280
# 5 -0.001912 -0.002408 -0.000268 0.000000 0.037173 0.000000
# 6 0.000000 0.000000 0.000000 0.000280 0.000000 0.025275
#
#
# Mechanical properties :
#
#
# Convention : Reuss Voigt Hill
#
# Bulk Modulus (GPa) = 56.54335 65.63695 61.09015
# Shear Modulus (GPa) = 29.34607 32.20674 30.77640
#
# Velocity S-wave (km/s) = 3.76284 3.94198 3.85345
# Velocity P-wave (km/s) = 6.79410 7.23792 7.01952
#
# Compressibility (1/GPa) = 0.01768555
#
# Stress axis : x y z
#
# Youngs Moduli (GPa) = 56.64583 65.45335 67.05559
#
# Poissons Ratio (x) = 0.35095 0.11297
# Poissons Ratio (y) = 0.30373 0.53865
# Poissons Ratio (z) = 0.09543 0.52578
#
# Static dielectric constant tensor:
#      x y z
#    x 1.932590 0.000000 0.013490 
#    y 0.000000 1.652860 0.000000 
#    z 0.013490 0.000000 1.759960 
# 
# From -- ./inp_files/267747.got.cif
#   From: 2010.05.17/outbox.cif.g08.bks.cpg/sg15_134_cif.got.tgz:267747.got - 2010.06.03 18:47:42.
