data_PCOD9266173
_publ_section_title
;
Structure prediction by ZEFSAII (Michael W. Deem and Ramdas Pophale) SiO2 
 PCOD9266173
Probable space group: C 2/C
;
_chemical_formula_sum "Si O2"
_cell_formula_units_Z 44
_cell_length_a 15.970085
_cell_length_b 13.956779
_cell_length_c 10.564800
_cell_angle_alpha 90.000000
_cell_angle_beta 73.524920
_cell_angle_gamma 90.000000
_cell_volume 2258.117730
_symmetry_space_group_name_H-M "C 2/C"
_symmetry_group_IT_number 15
_symmetry_cell_setting 'monoclinic'
loop_
_space_group_symop_operation_xyz
x,y,z
-x,y,1/2-z
-x,-y,-z
x,-y,1/2+z
1/2+x,1/2+y,z
1/2-x,1/2+y,1/2-z
1/2-x,1/2-y,-z
1/2+x,1/2-y,1/2+z
loop_
_atom_site_type_symbol
_atom_site_label
_atom_site_fract_x
_atom_site_fract_y
_atom_site_fract_z
Si Si1 0.006807 0.386193 0.496779
Si Si2 0.674460 0.782281 0.850646
Si Si3 0.000000 0.269194 0.250000
Si Si4 0.839225 0.141285 0.415009
Si Si5 0.908395 0.751731 0.365481
Si Si6 0.944514 0.959123 0.405362
O O1 0.081376 0.343153 0.555907
O O2 0.000000 0.500000 0.500000
O O3 0.913374 0.341890 0.579800
O O4 0.024712 0.338913 0.353851
O O5 0.757626 0.842490 0.858549
O O6 0.666689 0.753633 0.707389
O O7 0.676946 0.689111 0.940488
O O8 0.920777 0.200810 0.324420
O O9 0.865490 0.031900 0.418851
O O10 0.911670 0.850701 0.442010
O O11 0.000000 0.755853 0.250000
O O12 0.000000 0.960538 0.250000
O O13 0.000000 0.000000 0.500000
#
# Coordination Sequence:
#
# PCOD9266173 Si02
#       6
#     8   8   4   8   8   8
#     4  10  21  37  61  80 113 157 193 235 288 348
#     4   9  20  39  57  83 117 156 188 236 293 362
#     4  10  20  36  58  84 108 146 200 242 278 352
#     4  10  19  37  61  84 116 150 191 240 300 348
#     4   9  19  36  56  84 115 149 191 234 289 350
#     4  11  20  34  62  89 116 153 197 244 304 361
#
# _framework density 19.485256
#
# number of rings (size 3 to 8) (size 9 to 14) (size 15 to 20)
#    0.000    2.182    0.909    4.364    3.818    0.000 
#    3.273    4.545    0.000    0.000    0.000    0.000 
#    0.000    0.000    0.000    0.000    0.000    0.000 
#
# Total GULP energy -122751.933954 kJ/mol
# GULP energy per Si atom -5579.633362 kJ/mol
# Density = 1.944091 g / cm^3
# Si number density = 19.485256 Si / 1000 Ang^3
#
#
#
# Elastic Constant Matrix: (Units=GPa)
#
#
# Indices 1 2 3 4 5 6 
#
# 1 70.8603 18.2926 28.8832 0.0000 38.5894 0.0000
# 2 18.2926 137.8205 31.2714 0.0000 25.6604 0.0000
# 3 28.8832 31.2714 83.4677 0.0000 37.0373 0.0000
# 4 0.0000 0.0000 0.0000 16.9708 0.0000 4.2046
# 5 38.5894 25.6604 37.0373 0.0000 33.5720 0.0000
# 6 0.0000 0.0000 0.0000 4.2046 0.0000 17.9352
#
#
#
# Elastic Compliance Matrix: (Units=1/GPa)
#
#
# Indices 1 2 3 4 5 6 
#
# 1 0.047137 0.004095 0.014860 0.000000 -0.073707 0.000000
# 2 0.004095 0.008830 0.000702 0.000000 -0.012230 0.000000
# 3 0.014860 0.000702 0.028196 0.000000 -0.048724 0.000000
# 4 0.000000 0.000000 0.000000 0.062558 0.000000 -0.014666
# 5 -0.073707 -0.012230 -0.048724 0.000000 0.177611 0.000000
# 6 0.000000 0.000000 0.000000 -0.014666 0.000000 0.059195
#
#
# Mechanical properties :
#
#
# Convention : Reuss Voigt Hill
#
# Bulk Modulus (GPa) = 8.09863 49.89365 28.99614
# Shear Modulus (GPa) = 12.97448 27.94234 20.45841
#
# Velocity S-wave (km/s) = 2.58323 3.79096 3.24380
# Velocity P-wave (km/s) = 3.61424 6.69502 5.37987
#
# Compressibility (1/GPa) = 0.12347761
#
# Stress axis : x y z
#
# Youngs Moduli (GPa) = 21.21454 113.24740 35.46618
#
# Poissons Ratio (x) = -0.46374 -0.52704
# Poissons Ratio (y) = -0.08687 -0.02489
# Poissons Ratio (z) = -0.31525 -0.07947
#
# Static dielectric constant tensor:
#      x y z
#    x 1.675710 0.000000 -0.008650 
#    y 0.000000 1.667800 0.000000 
#    z -0.008650 0.000000 1.669570 
# 
# From -- ./inp_files/103297.got.cif
#   From: 2010.05.17/outbox.cif.g08.bks.cpg/sg15_52_cif.got.tgz:103297.got - 2010.06.03 18:47:42.
