data_PCOD9266297
_publ_section_title
;
Structure prediction by ZEFSAII (Michael W. Deem and Ramdas Pophale) SiO2 
 PCOD9266297
Probable space group: C 2/C
;
_chemical_formula_sum "Si O2"
_cell_formula_units_Z 56
_cell_length_a 17.635328
_cell_length_b 7.861798
_cell_length_c 20.218016
_cell_angle_alpha 90.000000
_cell_angle_beta 59.975650
_cell_angle_gamma 90.000000
_cell_volume 2426.989941
_symmetry_space_group_name_H-M "C 2/C"
_symmetry_group_IT_number 15
_symmetry_cell_setting 'monoclinic'
loop_
_space_group_symop_operation_xyz
x,y,z
-x,y,1/2-z
-x,-y,-z
x,-y,1/2+z
1/2+x,1/2+y,z
1/2-x,1/2+y,1/2-z
1/2-x,1/2-y,-z
1/2+x,1/2-y,1/2+z
loop_
_atom_site_type_symbol
_atom_site_label
_atom_site_fract_x
_atom_site_fract_y
_atom_site_fract_z
Si Si1 0.496583 0.873519 0.063788
Si Si2 0.856122 0.914660 0.818738
Si Si3 0.783663 0.530988 0.837677
Si Si4 0.099623 0.150525 0.926294
Si Si5 0.054714 0.427771 0.665787
Si Si6 0.817213 0.498540 0.668479
Si Si7 0.498119 0.548062 0.845764
O O1 0.393608 0.861658 0.126089
O O2 0.542371 0.959394 0.106519
O O3 0.551732 0.717940 0.012059
O O4 0.500000 0.000000 0.000000
O O5 0.825141 0.719507 0.830218
O O6 0.768257 0.020141 0.839560
O O7 0.926167 0.958166 0.730652
O O8 0.907350 0.959289 0.863767
O O9 0.683387 0.534365 0.903280
O O10 0.846330 0.411713 0.852959
O O11 0.789880 0.491583 0.756999
O O12 0.140073 0.317151 0.870667
O O13 0.032595 0.066426 0.904773
O O14 0.000000 0.508654 0.750000
O O15 0.013715 0.243823 0.671168
#
# Coordination Sequence:
#
# PCOD9266297 Si02
#       7
#     8   8   8   8   8   8   8
#     4  10  20  36  64  91 124 162 203 258 311 365
#     4  10  23  34  58  94 131 155 200 271 312 340
#     4  11  23  37  63  95 123 158 214 262 295 370
#     4  10  21  41  61  90 123 163 202 257 316 364
#     4  12  21  36  67  94 115 158 224 249 293 377
#     4  10  19  37  62  93 116 164 212 244 300 373
#     4  11  20  37  57  88 124 159 204 250 312 357
#
# _framework density 23.07385
#
# number of rings (size 3 to 8) (size 9 to 14) (size 15 to 20)
#    0.000    1.429    7.143    0.000    2.000    0.571 
#    0.000    0.714    0.000    3.429    0.000    0.000 
#    0.000    0.000    0.000    0.000    0.000    0.000 
#
# Total GULP energy -156640.344332 kJ/mol
# GULP energy per Si atom -5594.298012 kJ/mol
# Density = 2.302133 g / cm^3
# Si number density = 23.073850 Si / 1000 Ang^3
#
#
#
# Elastic Constant Matrix: (Units=GPa)
#
#
# Indices 1 2 3 4 5 6 
#
# 1 177.5894 40.1468 33.8744 -0.0056 1.7407 0.0020
# 2 40.1468 54.1652 37.6522 -0.0085 3.4591 0.0033
# 3 33.8744 37.6522 59.4442 -0.0101 12.4357 0.0034
# 4 -0.0056 -0.0085 -0.0101 -700.6461 0.0047 242.2712
# 5 1.7407 3.4591 12.4357 0.0047 38.5574 -0.0016
# 6 0.0020 0.0033 0.0034 242.2712 -0.0016 -50.9488
#
#
#
# Elastic Compliance Matrix: (Units=1/GPa)
#
#
# Indices 1 2 3 4 5 6 
#
# 1 0.006823 -0.004133 -0.001376 0.000000 0.000507 0.000000
# 2 -0.004133 0.036090 -0.021304 0.000000 0.003820 0.000000
# 3 -0.001376 -0.021304 0.032908 0.000000 -0.008640 0.000000
# 4 0.000000 0.000000 0.000000 0.002215 0.000000 0.010534
# 5 0.000507 0.003820 -0.008640 0.000000 0.028356 0.000000
# 6 0.000000 0.000000 0.000000 0.010534 0.000000 0.030465
#
#
# Mechanical properties :
#
#
# Convention : Reuss Voigt Hill
#
# Bulk Modulus (GPa) = 45.05369 57.17173 51.11271
# Shear Modulus (GPa) = 25.26751 -130.63913 -52.68581
#
# Velocity S-wave (km/s) = 3.31278 -7.53265 -4.78363
# Velocity P-wave (km/s) = 5.84815 7.12901 2.88287
#
# Compressibility (1/GPa) = 0.02219574
#
# Stress axis : x y z
#
# Youngs Moduli (GPa) = 146.56816 27.70830 30.38742
#
# Poissons Ratio (x) = 0.11451 0.04182
# Poissons Ratio (y) = 0.60570 0.64737
# Poissons Ratio (z) = 0.20173 0.59029
#
# Static dielectric constant tensor:
#      x y z
#    x 1.804450 0.000000 -0.052450 
#    y 0.000000 1.933310 0.000000 
#    z -0.052450 0.000000 1.820950 
# 
# From -- ./inp_files/247359.got.cif
#   From: 2010.05.17/outbox.cif.g08.bks.cpg/sg15_124_cif.got.tgz:247359.got - 2010.06.03 18:47:42.
