data_PCOD9266233
_publ_section_title
;
Structure prediction by ZEFSAII (Michael W. Deem and Ramdas Pophale) SiO2 
 PCOD9266233
Probable space group: C 2/C
;
_chemical_formula_sum "Si O2"
_cell_formula_units_Z 64
_cell_length_a 16.209464
_cell_length_b 11.774466
_cell_length_c 20.475080
_cell_angle_alpha 90.000000
_cell_angle_beta 135.944963
_cell_angle_gamma 90.000000
_cell_volume 2717.304671
_symmetry_space_group_name_H-M "C 2/C"
_symmetry_group_IT_number 15
_symmetry_cell_setting 'monoclinic'
loop_
_space_group_symop_operation_xyz
x,y,z
-x,y,1/2-z
-x,-y,-z
x,-y,1/2+z
1/2+x,1/2+y,z
1/2-x,1/2+y,1/2-z
1/2-x,1/2-y,-z
1/2+x,1/2-y,1/2+z
loop_
_atom_site_type_symbol
_atom_site_label
_atom_site_fract_x
_atom_site_fract_y
_atom_site_fract_z
Si Si1 0.902105 0.542038 0.392496
Si Si2 0.659890 0.727948 0.600389
Si Si3 0.659098 0.311399 0.378488
Si Si4 0.553744 0.533906 0.924761
Si Si5 0.229639 0.164463 0.778914
Si Si6 0.107367 0.404441 0.917516
Si Si7 0.264505 0.128612 0.541851
Si Si8 0.910500 0.862500 0.913915
O O1 0.823544 0.637874 0.383343
O O2 0.822291 0.438098 0.324824
O O3 0.000000 0.500000 0.500000
O O4 0.979401 0.598568 0.378542
O O5 0.656898 0.680422 0.671620
O O6 0.756847 0.660330 0.614004
O O7 0.533361 0.707317 0.493617
O O8 0.573420 0.370499 0.382218
O O9 0.654896 0.351701 0.302153
O O10 0.792887 0.348709 0.477196
O O11 0.629044 0.177813 0.368142
O O12 0.437494 0.460991 0.876736
O O13 0.647119 0.439380 0.955354
O O14 0.602899 0.580191 0.022539
O O15 0.306269 0.279171 0.834861
O O16 0.135106 0.536936 0.918840
O O17 0.250000 0.250000 0.500000
#
# Coordination Sequence:
#
# PCOD9266233 Si02
#       8
#     8   8   8   8   8   8   8   8
#     4  12  22  41  69  99 132 179 225 280 333 399
#     4  11  25  42  64  99 133 172 226 272 341 408
#     4  10  19  37  62 101 125 170 226 278 329 394
#     4   9  20  35  68  89 127 171 220 265 333 395
#     4  12  25  40  69  97 135 174 225 281 334 399
#     4  10  20  37  68  92 128 173 227 272 334 398
#     4  10  21  37  64  92 129 172 219 269 333 400
#     4  10  20  42  65  93 129 178 218 270 336 399
#
# _framework density 23.552748999999999
#
# number of rings (size 3 to 8) (size 9 to 14) (size 15 to 20)
#    0.000    1.500    2.500    3.750    3.500    4.000 
#    0.000    4.375    2.750    0.000    0.000    0.000 
#    0.000    0.000    0.000    0.000    0.000    0.000 
#
# Total GULP energy -178906.044869 kJ/mol
# GULP energy per Si atom -5590.813902 kJ/mol
# Density = 2.349914 g / cm^3
# Si number density = 23.552749 Si / 1000 Ang^3
#
#
#
# Elastic Constant Matrix: (Units=GPa)
#
#
# Indices 1 2 3 4 5 6 
#
# 1 93.4564 28.1335 14.7554 0.0000 -15.5688 0.0000
# 2 28.1335 140.9216 -5.8516 0.0000 6.9853 0.0000
# 3 14.7554 -5.8516 42.4234 0.0000 -1.3535 0.0000
# 4 0.0000 0.0000 0.0000 12.3345 0.0000 2.1881
# 5 -15.5688 6.9853 -1.3535 0.0000 32.5195 0.0000
# 6 0.0000 0.0000 0.0000 2.1881 0.0000 56.0193
#
#
#
# Elastic Compliance Matrix: (Units=1/GPa)
#
#
# Indices 1 2 3 4 5 6 
#
# 1 0.013643 -0.003279 -0.004973 0.000000 0.007029 0.000000
# 2 -0.003279 0.007998 0.002142 0.000000 -0.003199 0.000000
# 3 -0.004973 0.002142 0.025540 0.000000 -0.001778 0.000000
# 4 0.000000 0.000000 0.000000 0.081639 0.000000 -0.003189
# 5 0.007029 -0.003199 -0.001778 0.000000 0.034729 0.000000
# 6 0.000000 0.000000 0.000000 -0.003189 0.000000 0.017976
#
#
# Mechanical properties :
#
#
# Convention : Reuss Voigt Hill
#
# Bulk Modulus (GPa) = 28.60332 38.98620 33.79476
# Shear Modulus (GPa) = 24.34274 36.15895 30.25084
#
# Velocity S-wave (km/s) = 3.21836 3.92246 3.58772
# Velocity P-wave (km/s) = 5.09718 6.09121 5.61623
#
# Compressibility (1/GPa) = 0.03496098
#
# Stress axis : x y z
#
# Youngs Moduli (GPa) = 73.29577 125.02855 39.15371
#
# Poissons Ratio (x) = 0.40993 0.19472
# Poissons Ratio (y) = 0.24031 -0.08385
# Poissons Ratio (z) = 0.36452 -0.26775
#
# Static dielectric constant tensor:
#      x y z
#    x 1.937580 0.000000 -0.008990 
#    y 0.000000 1.879120 0.000000 
#    z -0.008990 0.000000 1.899700 
# 
# From -- ./inp_files/248635.got.cif
#   From: 2010.05.17/outbox.cif.g08.bks.cpg/sg15_125_cif.got.tgz:248635.got - 2010.06.03 18:47:42.
