data_PCOD9266290
_publ_section_title
;
Structure prediction by ZEFSAII (Michael W. Deem and Ramdas Pophale) SiO2 
 PCOD9266290
Probable space group: C 2/C
;
_chemical_formula_sum "Si O2"
_cell_formula_units_Z 56
_cell_length_a 20.457925
_cell_length_b 21.966372
_cell_length_c 8.872750
_cell_angle_alpha 90.000000
_cell_angle_beta 45.376073
_cell_angle_gamma 90.000000
_cell_volume 2837.887128
_symmetry_space_group_name_H-M "C 2/C"
_symmetry_group_IT_number 15
_symmetry_cell_setting 'monoclinic'
loop_
_space_group_symop_operation_xyz
x,y,z
-x,y,1/2-z
-x,-y,-z
x,-y,1/2+z
1/2+x,1/2+y,z
1/2-x,1/2+y,1/2-z
1/2-x,1/2-y,-z
1/2+x,1/2-y,1/2+z
loop_
_atom_site_type_symbol
_atom_site_label
_atom_site_fract_x
_atom_site_fract_y
_atom_site_fract_z
Si Si1 0.000000 0.512070 0.250000
Si Si2 0.923738 0.783218 0.996281
Si Si3 0.250817 0.145706 0.456373
Si Si4 0.404515 0.421342 0.129060
Si Si5 0.069659 0.583598 0.404955
Si Si6 0.028196 0.695677 0.031570
Si Si7 0.286825 0.240758 0.660850
Si Si8 0.500000 0.490203 0.250000
O O1 0.934810 0.552997 0.252455
O O2 0.944975 0.468605 0.450966
O O3 0.000000 0.768326 0.750000
O O4 0.930734 0.854192 0.027506
O O5 0.820014 0.765449 0.115916
O O6 0.956016 0.744751 0.087272
O O7 0.193967 0.093698 0.635288
O O8 0.334721 0.117177 0.231128
O O9 0.288591 0.191465 0.522695
O O10 0.196586 0.191563 0.432858
O O11 0.461482 0.448706 0.177129
O O12 0.423712 0.466788 0.957063
O O13 0.988937 0.633989 0.534293
O O14 0.000000 0.683650 0.250000
O O15 0.131609 0.721237 0.860620
#
# Coordination Sequence:
#
# PCOD9266290 Si02
#       8
#     4   8   8   8   8   8   8   4
#     4  10  24  38  62  84 124 168 210 250 306 376
#     4  11  24  40  62  94 130 161 205 270 322 368
#     4  10  19  37  62  91 127 154 208 263 310 379
#     4  10  22  39  63  86 123 163 208 263 301 376
#     4  11  21  41  61  91 122 168 208 259 315 377
#     4  12  21  37  67  90 123 164 208 258 323 383
#     4  10  20  37  60  96 125 162 204 253 328 391
#     4  10  22  42  60  88 120 172 218 246 320 368
#
# _framework density 19.732990999999998
#
# number of rings (size 3 to 8) (size 9 to 14) (size 15 to 20)
#    0.000    1.429    4.286    1.714    4.000    1.714 
#    0.000    1.429    0.000    0.000    0.000    0.000 
#    0.000    0.000    0.000    0.000    0.000    0.000 
#
# Total GULP energy -156113.038045 kJ/mol
# GULP energy per Si atom -5575.465644 kJ/mol
# Density = 1.968808 g / cm^3
# Si number density = 19.732991 Si / 1000 Ang^3
#
#
#
# Elastic Constant Matrix: (Units=GPa)
#
#
# Indices 1 2 3 4 5 6 
#
# 1 65.6186 26.1569 29.0336 0.0000 -23.7038 0.0000
# 2 26.1569 67.2640 15.7981 0.0000 -13.0043 0.0000
# 3 29.0336 15.7981 78.9404 0.0000 -18.1023 0.0000
# 4 0.0000 0.0000 0.0000 26.2363 0.0000 -7.7112
# 5 -23.7038 -13.0043 -18.1023 0.0000 31.7946 0.0000
# 6 0.0000 0.0000 0.0000 -7.7112 0.0000 -9.1099
#
#
#
# Elastic Compliance Matrix: (Units=1/GPa)
#
#
# Indices 1 2 3 4 5 6 
#
# 1 0.024421 -0.005837 -0.004815 0.000000 0.013078 0.000000
# 2 -0.005837 0.017811 -0.000857 0.000000 0.002445 0.000000
# 3 -0.004815 -0.000857 0.015765 0.000000 0.005036 0.000000
# 4 0.000000 0.000000 0.000000 0.030522 0.000000 -0.025836
# 5 0.013078 0.002445 0.005036 0.000000 0.045069 0.000000
# 6 0.000000 0.000000 0.000000 -0.025836 0.000000 -0.087902
#
#
# Mechanical properties :
#
#
# Convention : Reuss Voigt Hill
#
# Bulk Modulus (GPa) = 28.58874 39.31113 33.94994
# Shear Modulus (GPa) = 62.21789 19.17316 40.69552
#
# Velocity S-wave (km/s) = 5.62124 3.12048 4.54619
# Velocity P-wave (km/s) = 7.52664 5.74003 6.69322
#
# Compressibility (1/GPa) = 0.03497881
#
# Stress axis : x y z
#
# Youngs Moduli (GPa) = 40.94844 56.14603 63.43237
#
# Poissons Ratio (x) = 0.32775 0.30540
# Poissons Ratio (y) = 0.23903 0.05435
# Poissons Ratio (z) = 0.19715 0.04810
#
# Static dielectric constant tensor:
#      x y z
#    x 1.702750 0.000000 -0.009720 
#    y 0.000000 1.686230 0.000000 
#    z -0.009720 0.000000 1.746780 
# 
# From -- ./inp_files/57817.got.cif
#   From: 2010.05.17/outbox.cif.g08.bks.cpg/sg15_29_cif.got.tgz:57817.got - 2010.06.03 18:47:42.
