data_PCOD9266226
_publ_section_title
;
Structure prediction by ZEFSAII (Michael W. Deem and Ramdas Pophale) SiO2 
 PCOD9266226
Probable space group: C 2/C
;
_chemical_formula_sum "Si O2"
_cell_formula_units_Z 48
_cell_length_a 10.038576
_cell_length_b 16.102637
_cell_length_c 18.426668
_cell_angle_alpha 90.000000
_cell_angle_beta 47.746439
_cell_angle_gamma 90.000000
_cell_volume 2204.708225
_symmetry_space_group_name_H-M "C 2/C"
_symmetry_group_IT_number 15
_symmetry_cell_setting 'monoclinic'
loop_
_space_group_symop_operation_xyz
x,y,z
-x,y,1/2-z
-x,-y,-z
x,-y,1/2+z
1/2+x,1/2+y,z
1/2-x,1/2+y,1/2-z
1/2-x,1/2-y,-z
1/2+x,1/2-y,1/2+z
loop_
_atom_site_type_symbol
_atom_site_label
_atom_site_fract_x
_atom_site_fract_y
_atom_site_fract_z
Si Si1 0.288002 0.107363 0.556847
Si Si2 0.479979 0.728353 0.043482
Si Si3 0.051788 0.500552 0.370255
Si Si4 0.663578 0.140955 0.242169
Si Si5 0.486584 0.164500 0.674187
Si Si6 0.087657 0.185515 0.849239
O O1 0.373856 0.196730 0.543078
O O2 0.346125 0.045685 0.600990
O O3 0.082185 0.131204 0.614791
O O4 0.395053 0.063541 0.452748
O O5 0.335931 0.666686 0.132041
O O6 0.560142 0.775316 0.084924
O O7 0.590389 0.688907 0.936444
O O8 0.194076 0.559603 0.278543
O O9 0.951779 0.429292 0.360331
O O10 0.500000 0.119619 0.250000
O O11 0.595900 0.220447 0.314178
O O12 0.500000 0.199794 0.750000
O O13 0.270659 0.151827 0.747819
#
# Coordination Sequence:
#
# PCOD9266226 Si02
#       6
#     8   8   8   8   8   8
#     4  10  19  37  61  96 125 162 205 266 319 374
#     4  10  20  35  63  93 119 160 217 261 308 371
#     4  10  21  35  59  88 133 160 199 257 328 369
#     4  11  19  32  61  95 127 159 212 262 300 372
#     4  10  24  41  58  85 129 170 208 264 327 379
#     4  11  21  38  66  91 124 164 217 264 313 373
#
# _framework density 21.771588000000001
#
# number of rings (size 3 to 8) (size 9 to 14) (size 15 to 20)
#    0.000    1.667    3.333    2.000    0.000    0.667 
#    0.000    3.333   14.667    0.000    0.000    0.000 
#    0.000    0.000    0.000    0.000    0.000    0.000 
#
# Total GULP energy -133798.870600 kJ/mol
# GULP energy per Si atom -5574.952942 kJ/mol
# Density = 2.172203 g / cm^3
# Si number density = 21.771588 Si / 1000 Ang^3
#
#
#
# Elastic Constant Matrix: (Units=GPa)
#
#
# Indices 1 2 3 4 5 6 
#
# 1 35.7109 -9.3620 12.8993 -0.0001 4.7571 0.0000
# 2 -9.3620 57.7116 27.7576 -0.0002 -3.5754 0.0001
# 3 12.8993 27.7576 127.7177 0.0000 11.1773 0.0001
# 4 -0.0001 -0.0002 0.0000 34.7184 -0.0001 4.1371
# 5 4.7571 -3.5754 11.1773 -0.0001 23.8436 0.0000
# 6 0.0000 0.0001 0.0001 4.1371 0.0000 13.1197
#
#
#
# Elastic Compliance Matrix: (Units=1/GPa)
#
#
# Indices 1 2 3 4 5 6 
#
# 1 0.031925 0.007145 -0.004498 0.000000 -0.003189 0.000000
# 2 0.007145 0.021558 -0.005803 0.000000 0.004528 0.000000
# 3 -0.004498 -0.005803 0.009951 0.000000 -0.004638 0.000000
# 4 0.000000 0.000000 0.000000 0.029928 0.000000 -0.009437
# 5 -0.003189 0.004528 -0.004638 0.000000 0.045429 0.000000
# 6 0.000000 0.000000 0.000000 -0.009437 0.000000 0.079197
#
#
# Mechanical properties :
#
#
# Convention : Reuss Voigt Hill
#
# Bulk Modulus (GPa) = 17.50644 31.52557 24.51601
# Shear Modulus (GPa) = 20.54714 26.99269 23.76992
#
# Velocity S-wave (km/s) = 3.07540 3.52492 3.30780
# Velocity P-wave (km/s) = 4.54634 5.57479 5.08662
#
# Compressibility (1/GPa) = 0.05712182
#
# Stress axis : x y z
#
# Youngs Moduli (GPa) = 31.32299 46.38587 100.49042
#
# Poissons Ratio (x) = -0.33142 0.45202
# Poissons Ratio (y) = -0.22380 0.58317
# Poissons Ratio (z) = 0.14089 0.26919
#
# Static dielectric constant tensor:
#      x y z
#    x 1.866570 0.000000 0.037740 
#    y 0.000000 1.839060 0.000000 
#    z 0.037740 0.000000 1.810020 
# 
# From -- ./inp_files/199006.got.cif
#   From: 2010.05.17/outbox.cif.g08.bks.cpg/sg15_100_cif.got.tgz:199006.got - 2010.06.03 18:47:42.
