data_PCOD9266376
_publ_section_title
;
Structure prediction by ZEFSAII (Michael W. Deem and Ramdas Pophale) SiO2 
 PCOD9266376
Probable space group: C 2/C
;
_chemical_formula_sum "Si O2"
_cell_formula_units_Z 44
_cell_length_a 10.268782
_cell_length_b 9.633943
_cell_length_c 23.131038
_cell_angle_alpha 90.000000
_cell_angle_beta 58.510538
_cell_angle_gamma 90.000000
_cell_volume 1951.339580
_symmetry_space_group_name_H-M "C 2/C"
_symmetry_group_IT_number 15
_symmetry_cell_setting 'monoclinic'
loop_
_space_group_symop_operation_xyz
x,y,z
-x,y,1/2-z
-x,-y,-z
x,-y,1/2+z
1/2+x,1/2+y,z
1/2-x,1/2+y,1/2-z
1/2-x,1/2-y,-z
1/2+x,1/2-y,1/2+z
loop_
_atom_site_type_symbol
_atom_site_label
_atom_site_fract_x
_atom_site_fract_y
_atom_site_fract_z
Si Si1 0.421565 0.429238 0.601770
Si Si2 0.589349 0.325951 0.028040
Si Si3 0.469126 0.956406 0.571701
Si Si4 0.600462 0.999540 0.656015
Si Si5 0.500000 0.741783 0.750000
Si Si6 0.825087 0.347355 0.186769
O O1 0.426738 0.363549 0.535975
O O2 0.562109 0.535374 0.571751
O O3 0.268637 0.523744 0.639858
O O4 0.395714 0.301062 0.650987
O O5 0.464676 0.208927 0.073322
O O6 0.750000 0.250000 0.000000
O O7 0.602906 0.002564 0.585484
O O8 0.332524 0.043595 0.631486
O O9 0.500000 0.000000 0.500000
O O10 0.446540 0.087348 0.703361
O O11 0.563469 0.843991 0.685678
O O12 0.352872 0.665371 0.758368
#
# Coordination Sequence:
#
# PCOD9266376 Si02
#       6
#     8   8   8   8   4   8
#     4  10  20  36  61  86 121 164 200 244 310 371
#     4  11  19  35  56  90 127 161 194 242 316 383
#     4  10  19  37  63  94 130 150 203 261 316 374
#     4   9  20  40  61  86 121 162 204 262 303 368
#     4  10  20  42  64  82 128 164 214 258 306 368
#     4   9  20  40  62  91 118 163 207 264 305 364
#
# _framework density 22.548613
#
# number of rings (size 3 to 8) (size 9 to 14) (size 15 to 20)
#    1.091    1.091    3.636    0.000    0.000    0.000 
#    9.818    5.455    0.000    0.000    0.000    0.000 
#    0.000    0.000    0.000    0.000    0.000    0.000 
#
# Total GULP energy -122512.324969 kJ/mol
# GULP energy per Si atom -5568.742044 kJ/mol
# Density = 2.249729 g / cm^3
# Si number density = 22.548613 Si / 1000 Ang^3
#
#
#
# Elastic Constant Matrix: (Units=GPa)
#
#
# Indices 1 2 3 4 5 6 
#
# 1 86.0673 39.5058 26.2177 0.0000 -14.7896 0.0000
# 2 39.5058 95.8167 9.2335 0.0000 -25.7762 0.0000
# 3 26.2177 9.2335 51.3098 0.0000 -7.9437 0.0000
# 4 0.0000 0.0000 0.0000 30.8803 0.0000 -20.6130
# 5 -14.7896 -25.7762 -7.9437 0.0000 38.9005 0.0000
# 6 0.0000 0.0000 0.0000 -20.6130 0.0000 34.3890
#
#
#
# Elastic Compliance Matrix: (Units=1/GPa)
#
#
# Indices 1 2 3 4 5 6 
#
# 1 0.016744 -0.005947 -0.007342 0.000000 0.000926 0.000000
# 2 -0.005947 0.014864 0.001589 0.000000 0.007913 0.000000
# 3 -0.007342 0.001589 0.023427 0.000000 0.003045 0.000000
# 4 0.000000 0.000000 0.000000 0.053982 0.000000 0.032357
# 5 0.000926 0.007913 0.003045 0.000000 0.031924 0.000000
# 6 0.000000 0.000000 0.000000 0.032357 0.000000 0.048474
#
#
# Mechanical properties :
#
#
# Convention : Reuss Voigt Hill
#
# Bulk Modulus (GPa) = 31.61131 42.56753 37.08942
# Shear Modulus (GPa) = 22.38536 31.38308 26.88422
#
# Velocity S-wave (km/s) = 3.15423 3.73473 3.45668
# Velocity P-wave (km/s) = 5.22639 6.12509 5.69350
#
# Compressibility (1/GPa) = 0.03163425
#
# Stress axis : x y z
#
# Youngs Moduli (GPa) = 59.72172 67.27593 42.68641
#
# Poissons Ratio (x) = 0.40010 0.31341
# Poissons Ratio (y) = 0.35517 -0.06783
# Poissons Ratio (z) = 0.43849 -0.10690
#
# Static dielectric constant tensor:
#      x y z
#    x 1.899290 0.000000 -0.049460 
#    y 0.000000 1.845630 0.000000 
#    z -0.049460 0.000000 1.924430 
# 
# From -- ./inp_files/309637.got.cif
#   From: 2010.05.17/outbox.cif.g08.bks.cpg/sg15_155_cif.got.tgz:309637.got - 2010.06.03 18:47:42.
