data_PCOD9266264
_publ_section_title
;
Structure prediction by ZEFSAII (Michael W. Deem and Ramdas Pophale) SiO2 
 PCOD9266264
Probable space group: C 2/C
;
_chemical_formula_sum "Si O2"
_cell_formula_units_Z 48
_cell_length_a 8.180611
_cell_length_b 28.664633
_cell_length_c 8.702245
_cell_angle_alpha 90.000000
_cell_angle_beta 83.666535
_cell_angle_gamma 90.000000
_cell_volume 2028.171517
_symmetry_space_group_name_H-M "C 2/C"
_symmetry_group_IT_number 15
_symmetry_cell_setting 'monoclinic'
loop_
_space_group_symop_operation_xyz
x,y,z
-x,y,1/2-z
-x,-y,-z
x,-y,1/2+z
1/2+x,1/2+y,z
1/2-x,1/2+y,1/2-z
1/2-x,1/2-y,-z
1/2+x,1/2-y,1/2+z
loop_
_atom_site_type_symbol
_atom_site_label
_atom_site_fract_x
_atom_site_fract_y
_atom_site_fract_z
Si Si1 0.712907 0.487503 0.440497
Si Si2 0.301226 0.162596 0.267428
Si Si3 0.000000 0.428444 0.250000
Si Si4 0.196904 0.761497 0.185341
Si Si5 0.216356 0.361004 0.380325
Si Si6 0.500000 0.569890 0.750000
Si Si7 0.693862 0.062985 0.266858
O O1 0.862861 0.461803 0.334289
O O2 0.553688 0.463671 0.383368
O O3 0.728515 0.541550 0.395286
O O4 0.749347 0.473041 0.609523
O O5 0.500000 0.165713 0.250000
O O6 0.244302 0.214668 0.231152
O O7 0.250833 0.151347 0.447172
O O8 0.252575 0.114982 0.187866
O O9 0.945538 0.392189 0.123142
O O10 0.279904 0.811419 0.208171
O O11 0.000000 0.766624 0.250000
O O12 0.250000 0.750000 0.000000
O O13 0.353348 0.395105 0.301363
O O14 0.500000 0.064299 0.250000
#
# Coordination Sequence:
#
# PCOD9266264 Si02
#       7
#     8   8   4   8   8   4   8
#     4  11  24  39  61  90 125 166 217 260 320 382
#     4   9  19  34  61  85 119 157 209 254 315 373
#     4  10  20  34  60  86 118 160 210 260 310 380
#     4   9  17  33  60  90 120 167 213 261 324 391
#     4  10  19  37  62  87 121 160 209 255 319 376
#     4  10  24  40  60  88 128 168 208 258 322 382
#     4  11  22  38  63  91 122 162 216 269 316 374
#
# _framework density 23.666637000000001
#
# number of rings (size 3 to 8) (size 9 to 14) (size 15 to 20)
#    0.000    2.000    1.667    2.500    4.667    0.667 
#    0.000    0.000   11.000    7.000    0.000    0.000 
#    0.000    0.000    0.000    0.000    0.000    0.000 
#
# Total GULP energy -133938.834138 kJ/mol
# GULP energy per Si atom -5580.784756 kJ/mol
# Density = 2.361277 g / cm^3
# Si number density = 23.666637 Si / 1000 Ang^3
#
#
#
# Elastic Constant Matrix: (Units=GPa)
#
#
# Indices 1 2 3 4 5 6 
#
# 1 46.9704 24.1886 15.8770 0.0000 -9.6506 0.0000
# 2 24.1886 185.7404 17.6475 0.0000 2.8736 0.0000
# 3 15.8770 17.6475 56.6012 0.0000 -3.3437 0.0000
# 4 0.0000 0.0000 0.0000 29.8990 0.0000 -8.0105
# 5 -9.6506 2.8736 -3.3437 0.0000 34.5966 0.0000
# 6 0.0000 0.0000 0.0000 -8.0105 0.0000 13.0435
#
#
#
# Elastic Compliance Matrix: (Units=1/GPa)
#
#
# Indices 1 2 3 4 5 6 
#
# 1 0.026292 -0.002958 -0.006039 0.000000 0.006996 0.000000
# 2 -0.002958 0.005895 -0.001092 0.000000 -0.001420 0.000000
# 3 -0.006039 -0.001092 0.019720 0.000000 0.000312 0.000000
# 4 0.000000 0.000000 0.000000 0.040033 0.000000 0.024586
# 5 0.006996 -0.001420 0.000312 0.000000 0.031004 0.000000
# 6 0.000000 0.000000 0.000000 0.024586 0.000000 0.091765
#
#
# Mechanical properties :
#
#
# Convention : Reuss Voigt Hill
#
# Bulk Modulus (GPa) = 31.51795 44.97091 38.24443
# Shear Modulus (GPa) = 20.36943 30.94777 25.65860
#
# Velocity S-wave (km/s) = 2.93692 3.62007 3.29624
# Velocity P-wave (km/s) = 4.98468 6.04287 5.53910
#
# Compressibility (1/GPa) = 0.03172796
#
# Stress axis : x y z
#
# Youngs Moduli (GPa) = 38.03376 169.63945 50.70875
#
# Poissons Ratio (x) = 0.50187 0.30625
# Poissons Ratio (y) = 0.11252 0.05537
# Poissons Ratio (z) = 0.22970 0.18524
#
# Static dielectric constant tensor:
#      x y z
#    x 1.935000 0.000000 -0.017590 
#    y 0.000000 1.943550 0.000000 
#    z -0.017590 0.000000 1.918240 
# 
# From -- ./inp_files/26173.got.cif
#   From: 2010.05.17/outbox.cif.g08.bks.cpg/sg15_14_cif.got.tgz:26173.got - 2010.06.03 18:47:42.
