data_PCOD9266005
_publ_section_title
;
Structure prediction by ZEFSAII (Michael W. Deem and Ramdas Pophale) SiO2 
 PCOD9266005
Probable space group: C 2/C
;
_chemical_formula_sum "Si O2"
_cell_formula_units_Z 52
_cell_length_a 8.205042
_cell_length_b 20.753974
_cell_length_c 12.271354
_cell_angle_alpha 90.000000
_cell_angle_beta 81.851973
_cell_angle_gamma 90.000000
_cell_volume 2068.560218
_symmetry_space_group_name_H-M "C 2/C"
_symmetry_group_IT_number 15
_symmetry_cell_setting 'monoclinic'
loop_
_space_group_symop_operation_xyz
x,y,z
-x,y,1/2-z
-x,-y,-z
x,-y,1/2+z
1/2+x,1/2+y,z
1/2-x,1/2+y,1/2-z
1/2-x,1/2-y,-z
1/2+x,1/2-y,1/2+z
loop_
_atom_site_type_symbol
_atom_site_label
_atom_site_fract_x
_atom_site_fract_y
_atom_site_fract_z
Si Si1 0.153652 0.063592 0.083822
Si Si2 0.562704 0.271864 0.869866
Si Si3 0.000000 0.530338 0.250000
Si Si4 0.815591 0.830970 0.290519
Si Si5 0.310669 0.589087 0.162173
Si Si6 0.356023 0.844723 0.427247
Si Si7 0.663330 0.942108 0.404832
O O1 0.185342 0.086840 0.206053
O O2 0.961371 0.044997 0.106854
O O3 0.267929 0.003609 0.035546
O O4 0.207069 0.125700 0.009908
O O5 0.500000 0.276851 0.750000
O O6 0.721234 0.226180 0.857879
O O7 0.631796 0.342234 0.889400
O O8 0.424742 0.227588 0.942445
O O9 0.880599 0.571895 0.339619
O O10 0.883661 0.481799 0.198013
O O11 0.707994 0.845171 0.191650
O O12 0.812615 0.894702 0.364327
O O13 0.000000 0.811974 0.250000
O O14 0.508487 0.894168 0.435476
#
# Coordination Sequence:
#
# PCOD9266005 Si02
#       7
#     8   8   4   8   8   8   8
#     4  10  21  35  62  88 116 150 196 234 295 344
#     4   9  18  38  57  82 112 149 195 232 288 343
#     4  10  20  34  60  76 120 156 188 224 288 356
#     4  10  21  35  61  82 115 156 195 233 288 345
#     4  10  21  38  56  85 116 161 187 231 293 354
#     4  10  20  38  60  90 113 151 193 250 282 335
#     4  10  19  37  59  85 117 152 187 238 294 347
#
# _framework density 25.138258
#
# number of rings (size 3 to 8) (size 9 to 14) (size 15 to 20)
#    0.000    2.154    3.077    1.385    5.385    0.615 
#    0.000    9.231    0.000    4.615    0.000    0.000 
#    0.000    0.000    0.000    0.000    0.000    0.000 
#
# Total GULP energy -145056.191660 kJ/mol
# GULP energy per Si atom -5579.084295 kJ/mol
# Density = 2.508104 g / cm^3
# Si number density = 25.138258 Si / 1000 Ang^3
#
#
#
# Elastic Constant Matrix: (Units=GPa)
#
#
# Indices 1 2 3 4 5 6 
#
# 1 79.6780 41.7316 18.1859 0.0000 -29.1652 0.0000
# 2 41.7316 117.8886 21.9706 0.0000 -11.0391 0.0000
# 3 18.1859 21.9706 60.9605 0.0000 -9.9178 0.0000
# 4 0.0000 0.0000 0.0000 19.6622 0.0000 -0.7858
# 5 -29.1652 -11.0391 -9.9178 0.0000 50.6034 0.0000
# 6 0.0000 0.0000 0.0000 -0.7858 0.0000 14.1197
#
#
#
# Elastic Compliance Matrix: (Units=1/GPa)
#
#
# Indices 1 2 3 4 5 6 
#
# 1 0.019494 -0.005586 -0.002244 0.000000 0.009577 0.000000
# 2 -0.005586 0.010789 -0.002441 0.000000 -0.001344 0.000000
# 3 -0.002244 -0.002441 0.018238 0.000000 0.001749 0.000000
# 4 0.000000 0.000000 0.000000 0.050972 0.000000 0.002837
# 5 0.009577 -0.001344 0.001749 0.000000 0.025331 0.000000
# 6 0.000000 0.000000 0.000000 0.002837 0.000000 0.070981
#
#
# Mechanical properties :
#
#
# Convention : Reuss Voigt Hill
#
# Bulk Modulus (GPa) = 35.74091 46.92259 41.33175
# Shear Modulus (GPa) = 22.15609 28.65300 25.40455
#
# Velocity S-wave (km/s) = 2.97201 3.37978 3.18243
# Velocity P-wave (km/s) = 5.10154 5.82554 5.47552
#
# Compressibility (1/GPa) = 0.02797914
#
# Stress axis : x y z
#
# Youngs Moduli (GPa) = 51.29856 92.68824 54.83144
#
# Poissons Ratio (x) = 0.51772 0.12305
# Poissons Ratio (y) = 0.28653 0.13383
# Poissons Ratio (z) = 0.11513 0.22623
#
# Static dielectric constant tensor:
#      x y z
#    x 2.132370 0.000000 0.062520 
#    y 0.000000 1.978270 0.000000 
#    z 0.062520 0.000000 2.036570 
# 
# From -- ./inp_files/191552.got.cif
#   From: 2010.05.17/outbox.cif.g08.bks.cpg/sg15_96_cif.got.tgz:191552.got - 2010.06.03 18:47:42.
