data_PCOD9266686
_publ_section_title
;
Structure prediction by ZEFSAII (Michael W. Deem and Ramdas Pophale) SiO2 
 PCOD9266686
Probable space group: C 2/C
;
_chemical_formula_sum "Si O2"
_cell_formula_units_Z 64
_cell_length_a 26.978523
_cell_length_b 18.999742
_cell_length_c 11.655908
_cell_angle_alpha 90.000000
_cell_angle_beta 31.895863
_cell_angle_gamma 90.000000
_cell_volume 3156.864321
_symmetry_space_group_name_H-M "C 2/C"
_symmetry_group_IT_number 15
_symmetry_cell_setting 'monoclinic'
loop_
_space_group_symop_operation_xyz
x,y,z
-x,y,1/2-z
-x,-y,-z
x,-y,1/2+z
1/2+x,1/2+y,z
1/2-x,1/2+y,1/2-z
1/2-x,1/2-y,-z
1/2+x,1/2-y,1/2+z
loop_
_atom_site_type_symbol
_atom_site_label
_atom_site_fract_x
_atom_site_fract_y
_atom_site_fract_z
Si Si1 0.878680 0.271562 0.836613
Si Si2 0.027807 0.818471 0.968184
Si Si3 0.697378 0.184232 0.257898
Si Si4 0.718631 0.885799 0.324927
Si Si5 0.812389 0.233616 0.490453
Si Si6 0.745595 0.969598 0.663346
Si Si7 0.374893 0.565389 0.698872
Si Si8 0.587492 0.432174 0.998451
O O1 0.858865 0.282846 0.739218
O O2 0.982738 0.240912 0.636890
O O3 0.803776 0.212292 0.024893
O O4 0.857584 0.341505 0.951945
O O5 0.082593 0.785527 0.755212
O O6 0.102476 0.866753 0.886723
O O7 0.943840 0.872842 0.103842
O O8 0.678718 0.209968 0.423647
O O9 0.684819 0.100676 0.269978
O O10 0.762346 0.832908 0.147203
O O11 0.801193 0.902571 0.253775
O O12 0.696620 0.958782 0.301869
O O13 0.750000 0.250000 0.500000
O O14 0.811254 0.972187 0.421177
O O15 0.819735 0.948864 0.615320
O O16 0.435734 0.504408 0.520721
O O17 0.500000 0.413919 0.250000
#
# Coordination Sequence:
#
# PCOD9266686 Si02
#       8
#     8   8   8   8   8   8   8   8
#     4  10  19  38  61  89 117 162 215 240 295 364
#     4  12  22  36  59  86 125 163 204 252 302 370
#     4  10  19  38  59  84 120 160 207 249 294 365
#     4  10  23  39  62  89 127 164 201 249 303 372
#     4  11  25  40  56  88 126 159 203 256 313 368
#     4  11  20  37  59  88 121 165 199 248 309 367
#     4  11  21  34  57  89 125 161 202 242 304 377
#     4  11  22  31  50  87 129 162 187 239 306 372
#
# _framework density 20.273281000000001
#
# number of rings (size 3 to 8) (size 9 to 14) (size 15 to 20)
#    0.000    1.250    3.750    3.375    3.500    3.500 
#    0.000    0.000    0.000    0.750    3.250    0.000 
#    0.000    0.000    0.000    0.000    0.000    0.000 
#
# Total GULP energy -178595.065763 kJ/mol
# GULP energy per Si atom -5581.095805 kJ/mol
# Density = 2.022714 g / cm^3
# Si number density = 20.273281 Si / 1000 Ang^3
#
#
#
# Elastic Constant Matrix: (Units=GPa)
#
#
# Indices 1 2 3 4 5 6 
#
# 1 55.2253 23.3433 20.9239 0.0000 24.7064 0.0000
# 2 23.3433 93.3216 30.9288 0.0000 12.6607 0.0000
# 3 20.9239 30.9288 76.3317 0.0000 25.5802 0.0000
# 4 0.0000 0.0000 0.0000 35.2720 0.0000 15.2510
# 5 24.7064 12.6607 25.5802 0.0000 21.6631 0.0000
# 6 0.0000 0.0000 0.0000 15.2510 0.0000 18.3819
#
#
#
# Elastic Compliance Matrix: (Units=1/GPa)
#
#
# Indices 1 2 3 4 5 6 
#
# 1 0.041926 -0.006134 0.009624 0.000000 -0.055594 0.000000
# 2 -0.006134 0.013337 -0.005717 0.000000 0.005953 0.000000
# 3 0.009624 -0.005717 0.025381 0.000000 -0.037605 0.000000
# 4 0.000000 0.000000 0.000000 0.044211 0.000000 -0.036681
# 5 -0.055594 0.005953 -0.037605 0.000000 0.150492 0.000000
# 6 0.000000 0.000000 0.000000 -0.036681 0.000000 0.084834
#
#
# Mechanical properties :
#
#
# Convention : Reuss Voigt Hill
#
# Bulk Modulus (GPa) = 13.12535 41.69675 27.41105
# Shear Modulus (GPa) = 12.81937 25.04224 18.93080
#
# Velocity S-wave (km/s) = 2.51734 3.51840 3.05910
# Velocity P-wave (km/s) = 3.86492 6.09242 5.10172
#
# Compressibility (1/GPa) = 0.07618844
#
# Stress axis : x y z
#
# Youngs Moduli (GPa) = 23.85159 74.97713 39.39877
#
# Poissons Ratio (x) = 0.45994 -0.37916
# Poissons Ratio (y) = 0.14632 0.22526
# Poissons Ratio (z) = -0.22954 0.42868
#
# Static dielectric constant tensor:
#      x y z
#    x 1.779180 0.000000 0.010610 
#    y 0.000000 1.765690 0.000000 
#    z 0.010610 0.000000 1.746700 
# 
# From -- ./inp_files/127279.got.cif
#   From: 2010.05.17/outbox.cif.g08.bks.cpg/sg15_64_cif.got.tgz:127279.got - 2010.06.03 18:47:42.
