data_PCOD9266576
_publ_section_title
;
Structure prediction by ZEFSAII (Michael W. Deem and Ramdas Pophale) SiO2 
 PCOD9266576
Probable space group: C 2/C
;
_chemical_formula_sum "Si O2"
_cell_formula_units_Z 44
_cell_length_a 23.168470
_cell_length_b 6.381826
_cell_length_c 12.163893
_cell_angle_alpha 90.000000
_cell_angle_beta 79.165725
_cell_angle_gamma 90.000000
_cell_volume 1766.459856
_symmetry_space_group_name_H-M "C 2/C"
_symmetry_group_IT_number 15
_symmetry_cell_setting 'monoclinic'
loop_
_space_group_symop_operation_xyz
x,y,z
-x,y,1/2-z
-x,-y,-z
x,-y,1/2+z
1/2+x,1/2+y,z
1/2-x,1/2+y,1/2-z
1/2-x,1/2-y,-z
1/2+x,1/2-y,1/2+z
loop_
_atom_site_type_symbol
_atom_site_label
_atom_site_fract_x
_atom_site_fract_y
_atom_site_fract_z
Si Si1 0.890264 0.296238 0.418186
Si Si2 0.174006 0.313139 0.339073
Si Si3 0.136394 0.329646 0.681475
Si Si4 0.578858 0.544612 0.880734
Si Si5 0.500000 0.367811 0.750000
Si Si6 0.779881 0.040753 0.369466
O O1 0.889142 0.547214 0.412541
O O2 0.913211 0.205030 0.523626
O O3 0.938948 0.243710 0.306191
O O4 0.824943 0.190352 0.422274
O O5 0.151687 0.483454 0.259139
O O6 0.212595 0.463749 0.405079
O O7 0.122062 0.152485 0.390276
O O8 0.215572 0.152808 0.252141
O O9 0.097919 0.167561 0.763138
O O10 0.189702 0.183755 0.629988
O O11 0.515341 0.476445 0.861130
#
# Coordination Sequence:
#
# PCOD9266576 Si02
#       6
#     8   8   8   8   4   8
#     4  11  25  43  66  97 132 174 222 273 333 393
#     4  10  19  37  68  95 135 175 218 270 328 387
#     4  10  20  42  62  94 133 171 216 270 324 390
#     4  11  25  43  66  97 132 174 222 273 333 393
#     4  12  22  48  68  94 136 168 218 284 328 394
#     4  10  19  37  68  95 135 175 218 270 328 387
#
# _framework density 24.908576
#
# number of rings (size 3 to 8) (size 9 to 14) (size 15 to 20)
#    0.000    1.455    7.273    0.545    0.000    2.909 
#    0.000    3.636    0.000    0.000    0.000    0.000 
#    0.000    0.000    0.000    0.000    0.000    0.000 
#
# Total GULP energy -122504.450408 kJ/mol
# GULP energy per Si atom -5568.384109 kJ/mol
# Density = 2.485188 g / cm^3
# Si number density = 24.908576 Si / 1000 Ang^3
#
#
#
# Elastic Constant Matrix: (Units=GPa)
#
#
# Indices 1 2 3 4 5 6 
#
# 1 111.8461 49.3213 39.5876 0.0000 27.7164 0.0000
# 2 49.3213 157.6127 34.5560 0.0000 10.4449 0.0000
# 3 39.5876 34.5560 70.4343 0.0000 12.8008 0.0000
# 4 0.0000 0.0000 0.0000 51.3891 0.0000 7.9978
# 5 27.7164 10.4449 12.8008 0.0000 18.9444 0.0000
# 6 0.0000 0.0000 0.0000 7.9978 0.0000 -4.0973
#
#
#
# Elastic Compliance Matrix: (Units=1/GPa)
#
#
# Indices 1 2 3 4 5 6 
#
# 1 0.016705 -0.002962 -0.004321 0.000000 -0.019886 0.000000
# 2 -0.002962 0.007688 -0.002422 0.000000 0.001731 0.000000
# 3 -0.004321 -0.002422 0.018722 0.000000 -0.004993 0.000000
# 4 0.000000 0.000000 0.000000 0.014925 0.000000 0.029134
# 5 -0.019886 0.001731 -0.004993 0.000000 0.084300 0.000000
# 6 0.000000 0.000000 0.000000 0.029134 0.000000 -0.187196
#
#
# Mechanical properties :
#
#
# Convention : Reuss Voigt Hill
#
# Bulk Modulus (GPa) = 42.18639 65.20254 53.69447
# Shear Modulus (GPa) = -284.97732 27.67580 -128.65076
#
# Velocity S-wave (km/s) = -10.70783 3.33693 -7.19453
# Velocity P-wave (km/s) = 11.65777 6.40939 6.88561
#
# Compressibility (1/GPa) = 0.02370433
#
# Stress axis : x y z
#
# Youngs Moduli (GPa) = 59.86371 130.07715 53.41325
#
# Poissons Ratio (x) = 0.38529 0.23082
# Poissons Ratio (y) = 0.17732 0.12934
# Poissons Ratio (z) = 0.25870 0.31499
#
# Static dielectric constant tensor:
#      x y z
#    x 2.088940 0.000000 -0.057300 
#    y 0.000000 1.991640 0.000000 
#    z -0.057300 0.000000 2.156090 
# 
# From -- ./inp_files/170816.got.cif
#   From: 2010.05.17/outbox.cif.g08.bks.cpg/sg15_86_cif.got.tgz:170816.got - 2010.06.03 18:47:42.
