data_PCOD9266171
_publ_section_title
;
Structure prediction by ZEFSAII (Michael W. Deem and Ramdas Pophale) SiO2 
 PCOD9266171
Probable space group: C 2/C
;
_chemical_formula_sum "Si O2"
_cell_formula_units_Z 64
_cell_length_a 28.561666
_cell_length_b 11.598319
_cell_length_c 13.448938
_cell_angle_alpha 90.000000
_cell_angle_beta 133.120637
_cell_angle_gamma 90.000000
_cell_volume 3251.917620
_symmetry_space_group_name_H-M "C 2/C"
_symmetry_group_IT_number 15
_symmetry_cell_setting 'monoclinic'
loop_
_space_group_symop_operation_xyz
x,y,z
-x,y,1/2-z
-x,-y,-z
x,-y,1/2+z
1/2+x,1/2+y,z
1/2-x,1/2+y,1/2-z
1/2-x,1/2-y,-z
1/2+x,1/2-y,1/2+z
loop_
_atom_site_type_symbol
_atom_site_label
_atom_site_fract_x
_atom_site_fract_y
_atom_site_fract_z
Si Si1 0.749310 0.791218 0.241937
Si Si2 0.126952 0.299594 0.661372
Si Si3 0.788322 0.487495 0.152282
Si Si4 0.929353 0.227920 0.109972
Si Si5 0.197485 0.687661 0.991174
Si Si6 0.576426 0.487020 0.516879
Si Si7 0.558416 0.377694 0.187686
Si Si8 0.164813 0.872819 0.508905
O O1 0.816319 0.796243 0.277630
O O2 0.725680 0.895503 0.278129
O O3 0.770983 0.691408 0.353287
O O4 0.695760 0.748292 0.087004
O O5 0.161096 0.415120 0.744418
O O6 0.089861 0.315723 0.504787
O O7 0.076714 0.243172 0.663453
O O8 0.811058 0.429052 0.082672
O O9 0.720868 0.552609 0.040883
O O10 0.869538 0.241905 0.098274
O O11 0.931124 0.102039 0.061223
O O12 0.000000 0.251517 0.250000
O O13 0.250000 0.750000 0.000000
O O14 0.516657 0.402507 0.407167
O O15 0.575691 0.524459 0.630623
O O16 0.641847 0.429231 0.578421
O O17 0.603441 0.379882 0.348887
#
# Coordination Sequence:
#
# PCOD9266171 Si02
#       8
#     8   8   8   8   8   8   8   8
#     4   9  20  36  55  86 116 153 195 251 290 350
#     4   9  20  39  55  84 123 149 194 248 296 364
#     4  10  20  37  58  84 118 160 197 245 303 347
#     4  10  19  37  61  84 114 155 197 251 298 354
#     4   9  18  35  57  86 116 147 205 252 289 352
#     4  10  21  37  60  86 120 148 193 253 307 350
#     4  10  21  37  56  90 115 155 194 242 310 363
#     4  11  21  35  60  85 119 154 194 247 300 365
#
# _framework density 19.680696000000001
#
# number of rings (size 3 to 8) (size 9 to 14) (size 15 to 20)
#    0.000    2.250    0.000    4.125    1.750    2.000 
#   20.250    0.625    0.000    0.000    0.000    0.000 
#    0.000    0.000    0.000    0.000    0.000    0.000 
#
# Total GULP energy -178268.773144 kJ/mol
# GULP energy per Si atom -5570.899161 kJ/mol
# Density = 1.963590 g / cm^3
# Si number density = 19.680696 Si / 1000 Ang^3
#
#
#
# Elastic Constant Matrix: (Units=GPa)
#
#
# Indices 1 2 3 4 5 6 
#
# 1 94.1115 24.7495 24.7729 0.0000 14.3748 0.0000
# 2 24.7495 66.1652 27.1328 0.0000 5.7424 0.0000
# 3 24.7729 27.1328 94.6300 0.0000 18.6154 0.0000
# 4 0.0000 0.0000 0.0000 23.9190 0.0000 4.7865
# 5 14.3748 5.7424 18.6154 0.0000 20.8482 0.0000
# 6 0.0000 0.0000 0.0000 4.7865 0.0000 28.1902
#
#
#
# Elastic Compliance Matrix: (Units=1/GPa)
#
#
# Indices 1 2 3 4 5 6 
#
# 1 0.012958 -0.003867 -0.000892 0.000000 -0.007073 0.000000
# 2 -0.003867 0.018285 -0.004566 0.000000 0.001707 0.000000
# 3 -0.000892 -0.004566 0.014244 0.000000 -0.010846 0.000000
# 4 0.000000 0.000000 0.000000 0.043278 0.000000 -0.007348
# 5 -0.007073 0.001707 -0.010846 0.000000 0.062056 0.000000
# 6 0.000000 0.000000 0.000000 -0.007348 0.000000 0.036721
#
#
# Mechanical properties :
#
#
# Convention : Reuss Voigt Hill
#
# Bulk Modulus (GPa) = 37.26444 45.35747 41.31095
# Shear Modulus (GPa) = 23.24095 26.47491 24.85793
#
# Velocity S-wave (km/s) = 3.44015 3.67171 3.55781
# Velocity P-wave (km/s) = 5.89535 6.40874 6.15740
#
# Compressibility (1/GPa) = 0.02683524
#
# Stress axis : x y z
#
# Youngs Moduli (GPa) = 77.17339 54.69093 70.20646
#
# Poissons Ratio (x) = 0.21151 0.06262
# Poissons Ratio (y) = 0.29846 0.32057
# Poissons Ratio (z) = 0.06884 0.24972
#
# Static dielectric constant tensor:
#      x y z
#    x 1.758220 0.000000 -0.051550 
#    y 0.000000 1.736010 0.000000 
#    z -0.051550 0.000000 1.717070 
# 
# From -- ./inp_files/181795.got.cif
#   From: 2010.05.17/outbox.cif.g08.bks.cpg/sg15_91_cif.got.tgz:181795.got - 2010.06.03 18:47:42.
