data_PCOD9266199
_publ_section_title
;
Structure prediction by ZEFSAII (Michael W. Deem and Ramdas Pophale) SiO2 
 PCOD9266199
Probable space group: C 2/C
;
_chemical_formula_sum "Si O2"
_cell_formula_units_Z 44
_cell_length_a 20.124457
_cell_length_b 16.492739
_cell_length_c 5.672591
_cell_angle_alpha 90.000000
_cell_angle_beta 88.308907
_cell_angle_gamma 90.000000
_cell_volume 1881.955001
_symmetry_space_group_name_H-M "C 2/C"
_symmetry_group_IT_number 15
_symmetry_cell_setting 'monoclinic'
loop_
_space_group_symop_operation_xyz
x,y,z
-x,y,1/2-z
-x,-y,-z
x,-y,1/2+z
1/2+x,1/2+y,z
1/2-x,1/2+y,1/2-z
1/2-x,1/2-y,-z
1/2+x,1/2-y,1/2+z
loop_
_atom_site_type_symbol
_atom_site_label
_atom_site_fract_x
_atom_site_fract_y
_atom_site_fract_z
Si Si1 0.626938 0.626649 0.056397
Si Si2 0.263710 0.485728 0.520132
Si Si3 0.684393 0.321183 0.144227
Si Si4 0.172343 0.297231 0.261853
Si Si5 0.079138 0.547347 0.743912
Si Si6 0.500000 0.452640 0.750000
O O1 0.676062 0.549460 0.019005
O O2 0.650366 0.714513 0.142085
O O3 0.565800 0.600571 0.218554
O O4 0.618369 0.648683 0.780528
O O5 0.228020 0.503930 0.770506
O O6 0.292986 0.394919 0.527177
O O7 0.750812 0.317326 0.300710
O O8 0.675298 0.233418 0.033342
O O9 0.122889 0.370727 0.227879
O O10 0.090855 0.496240 0.499029
O O11 0.000000 0.566970 0.750000
O O12 0.500000 0.500000 0.500000
#
# Coordination Sequence:
#
# PCOD9266199 Si02
#       6
#     8   8   8   8   8   4
#     4  11  24  42  68 101 144 187 238 294 354 430
#     4  10  19  37  61  88 133 181 214 269 341 404
#     4  10  23  42  66 105 148 186 238 295 363 440
#     4  11  24  43  72 106 140 188 243 303 368 439
#     4  10  25  50  74 100 137 182 241 307 366 430
#     4  12  28  46  72 104 148 198 250 284 358 446
#
# _framework density 23.379940999999999
#
# number of rings (size 3 to 8) (size 9 to 14) (size 15 to 20)
#    0.000    1.455    1.818    2.727    6.364    2.909 
#    0.000    0.000    0.000    0.000    0.000    0.000 
#    0.000    0.000    0.000    0.000    0.000    0.000 
#
# Total GULP energy -122662.228693 kJ/mol
# GULP energy per Si atom -5575.555850 kJ/mol
# Density = 2.332673 g / cm^3
# Si number density = 23.379941 Si / 1000 Ang^3
#
#
#
# Elastic Constant Matrix: (Units=GPa)
#
#
# Indices 1 2 3 4 5 6 
#
# 1 110.2084 65.3271 52.8346 0.0000 -23.2721 0.0000
# 2 65.3271 167.4852 51.2602 0.0000 4.2804 0.0000
# 3 52.8346 51.2602 142.3729 0.0000 -11.9767 0.0000
# 4 0.0000 0.0000 0.0000 49.8147 0.0000 5.7206
# 5 -23.2721 4.2804 -11.9767 0.0000 38.3556 0.0000
# 6 0.0000 0.0000 0.0000 5.7206 0.0000 38.9295
#
#
#
# Elastic Compliance Matrix: (Units=1/GPa)
#
#
# Indices 1 2 3 4 5 6 
#
# 1 0.015705 -0.005408 -0.003110 0.000000 0.009161 0.000000
# 2 -0.005408 0.008662 -0.001509 0.000000 -0.004719 0.000000
# 3 -0.003110 -0.001509 0.008808 0.000000 0.001032 0.000000
# 4 0.000000 0.000000 0.000000 0.020419 0.000000 -0.003001
# 5 0.009161 -0.004719 0.001032 0.000000 0.032479 0.000000
# 6 0.000000 0.000000 0.000000 -0.003001 0.000000 0.026128
#
#
# Mechanical properties :
#
#
# Convention : Reuss Voigt Hill
#
# Bulk Modulus (GPa) = 76.21311 84.32337 80.26824
# Shear Modulus (GPa) = 36.59523 42.12961 39.36242
#
# Velocity S-wave (km/s) = 3.96060 4.24955 4.10762
# Velocity P-wave (km/s) = 7.32008 7.76035 7.54343
#
# Compressibility (1/GPa) = 0.01312110
#
# Stress axis : x y z
#
# Youngs Moduli (GPa) = 63.67444 115.44133 113.53125
#
# Poissons Ratio (x) = 0.62428 0.35313
# Poissons Ratio (y) = 0.34434 0.17132
# Poissons Ratio (z) = 0.19805 0.17420
#
# Static dielectric constant tensor:
#      x y z
#    x 1.905310 0.000000 0.037430 
#    y 0.000000 1.853940 0.000000 
#    z 0.037430 0.000000 2.255080 
# 
# From -- ./inp_files/15140.got.cif
#   From: 2010.05.17/outbox.cif.g08.bks.cpg/sg15_8_cif.got.tgz:15140.got - 2010.06.03 18:47:42.
