data_PCOD9266404
_publ_section_title
;
Structure prediction by ZEFSAII (Michael W. Deem and Ramdas Pophale) SiO2 
 PCOD9266404
Probable space group: C 2/C
;
_chemical_formula_sum "Si O2"
_cell_formula_units_Z 56
_cell_length_a 22.620478
_cell_length_b 6.426718
_cell_length_c 19.686711
_cell_angle_alpha 90.000000
_cell_angle_beta 94.970246
_cell_angle_gamma 90.000000
_cell_volume 2851.202650
_symmetry_space_group_name_H-M "C 2/C"
_symmetry_group_IT_number 15
_symmetry_cell_setting 'monoclinic'
loop_
_space_group_symop_operation_xyz
x,y,z
-x,y,1/2-z
-x,-y,-z
x,-y,1/2+z
1/2+x,1/2+y,z
1/2-x,1/2+y,1/2-z
1/2-x,1/2-y,-z
1/2+x,1/2-y,1/2+z
loop_
_atom_site_type_symbol
_atom_site_label
_atom_site_fract_x
_atom_site_fract_y
_atom_site_fract_z
Si Si1 0.625987 0.710807 0.162400
Si Si2 0.028240 0.499008 0.120136
Si Si3 0.375295 0.678844 0.933416
Si Si4 0.543231 0.348346 0.316624
Si Si5 0.328482 0.608954 0.723984
Si Si6 0.714708 0.910815 0.659577
Si Si7 0.961615 0.132301 0.050852
O O1 0.566354 0.838615 0.168492
O O2 0.617259 0.546125 0.100834
O O3 0.647418 0.575393 0.226563
O O4 0.674999 0.882843 0.152234
O O5 0.075973 0.660918 0.093274
O O6 0.983555 0.634713 0.158388
O O7 0.993246 0.353793 0.064224
O O8 0.311171 0.766315 0.903681
O O9 0.395895 0.659656 0.012868
O O10 0.500000 0.412225 0.250000
O O11 0.611295 0.308615 0.303096
O O12 0.540279 0.512830 0.377890
O O13 0.298912 0.779934 0.772024
O O14 0.280974 0.500537 0.669758
O O15 0.000000 0.000000 0.000000
#
# Coordination Sequence:
#
# PCOD9266404 Si02
#       7
#     8   8   8   8   8   8   8
#     4  10  19  37  64  88 127 164 213 269 318 385
#     4  11  21  38  63  93 129 167 212 270 327 393
#     4  10  21  37  62  96 120 169 228 266 313 393
#     4  12  26  40  60 101 142 162 216 279 340 398
#     4  11  22  41  61  95 129 173 223 276 324 397
#     4  10  21  38  65  89 123 171 227 271 325 384
#     4  12  23  41  66  94 133 181 220 265 334 405
#
# _framework density 19.640834999999999
#
# number of rings (size 3 to 8) (size 9 to 14) (size 15 to 20)
#    0.000    1.143    4.286    3.857    0.000    2.857 
#    0.000    2.143    0.000    1.714    0.000    0.000 
#    0.000    0.000    0.000    0.000    0.000    0.000 
#
# Total GULP energy -156250.735297 kJ/mol
# GULP energy per Si atom -5580.383403 kJ/mol
# Density = 1.959613 g / cm^3
# Si number density = 19.640835 Si / 1000 Ang^3
#
#
#
# Elastic Constant Matrix: (Units=GPa)
#
#
# Indices 1 2 3 4 5 6 
#
# 1 124.3529 37.4882 45.5709 0.0000 30.2815 0.0000
# 2 37.4882 114.3727 34.8447 0.0000 13.2064 0.0000
# 3 45.5709 34.8447 85.3789 0.0000 27.5389 0.0000
# 4 0.0000 0.0000 0.0000 25.1721 0.0000 6.8214
# 5 30.2815 13.2064 27.5389 0.0000 28.2909 0.0000
# 6 0.0000 0.0000 0.0000 6.8214 0.0000 29.0276
#
#
#
# Elastic Compliance Matrix: (Units=1/GPa)
#
#
# Indices 1 2 3 4 5 6 
#
# 1 0.011831 -0.002049 -0.002482 0.000000 -0.009292 0.000000
# 2 -0.002049 0.010360 -0.003326 0.000000 0.000595 0.000000
# 3 -0.002482 -0.003326 0.019004 0.000000 -0.014289 0.000000
# 4 0.000000 0.000000 0.000000 0.042428 0.000000 -0.009970
# 5 -0.009292 0.000595 -0.014289 0.000000 0.058924 0.000000
# 6 0.000000 0.000000 0.000000 -0.009970 0.000000 0.036793
#
#
# Mechanical properties :
#
#
# Convention : Reuss Voigt Hill
#
# Bulk Modulus (GPa) = 39.24544 62.21247 50.72896
# Shear Modulus (GPa) = 24.56423 30.24484 27.40453
#
# Velocity S-wave (km/s) = 3.54032 3.92841 3.73940
# Velocity P-wave (km/s) = 6.06108 7.23328 6.67297
#
# Compressibility (1/GPa) = 0.02548067
#
# Stress axis : x y z
#
# Youngs Moduli (GPa) = 84.52049 96.52868 52.62136
#
# Poissons Ratio (x) = 0.19779 0.13059
# Poissons Ratio (y) = 0.17319 0.17503
# Poissons Ratio (z) = 0.20976 0.32108
#
# Static dielectric constant tensor:
#      x y z
#    x 1.741140 0.000000 0.027760 
#    y 0.000000 1.697320 0.000000 
#    z 0.027760 0.000000 1.723440 
# 
# From -- ./inp_files/254048.got.cif
#   From: 2010.05.17/outbox.cif.g08.bks.cpg/sg15_128_cif.got.tgz:254048.got - 2010.06.03 18:47:42.
