data_PCOD9266518
_publ_section_title
;
Structure prediction by ZEFSAII (Michael W. Deem and Ramdas Pophale) SiO2 
 PCOD9266518
Probable space group: C 2/C
;
_chemical_formula_sum "Si O2"
_cell_formula_units_Z 60
_cell_length_a 8.625142
_cell_length_b 15.667532
_cell_length_c 23.805371
_cell_angle_alpha 90.000000
_cell_angle_beta 62.754999
_cell_angle_gamma 90.000000
_cell_volume 2860.035651
_symmetry_space_group_name_H-M "C 2/C"
_symmetry_group_IT_number 15
_symmetry_cell_setting 'monoclinic'
loop_
_space_group_symop_operation_xyz
x,y,z
-x,y,1/2-z
-x,-y,-z
x,-y,1/2+z
1/2+x,1/2+y,z
1/2-x,1/2+y,1/2-z
1/2-x,1/2-y,-z
1/2+x,1/2-y,1/2+z
loop_
_atom_site_type_symbol
_atom_site_label
_atom_site_fract_x
_atom_site_fract_y
_atom_site_fract_z
Si Si1 0.500000 0.190243 0.250000
Si Si2 0.842928 0.772255 0.925703
Si Si3 0.009574 0.191571 0.638931
Si Si4 0.189981 0.071507 0.536200
Si Si5 0.886671 0.646032 0.820017
Si Si6 0.023209 0.912095 0.950022
Si Si7 0.016707 0.644154 0.421972
Si Si8 0.883374 0.547592 0.341421
O O1 0.504631 0.255745 0.301147
O O2 0.363576 0.117345 0.294812
O O3 0.901957 0.695119 0.876504
O O4 0.704560 0.830069 0.914221
O O5 0.007062 0.827061 0.917431
O O6 0.750000 0.750000 0.000000
O O7 0.816512 0.155372 0.661019
O O8 0.060965 0.264981 0.585398
O O9 0.138544 0.113255 0.604026
O O10 0.056208 0.107460 0.510006
O O11 0.384455 0.098221 0.486607
O O12 0.142334 0.971750 0.536654
O O13 0.937375 0.547283 0.817128
O O14 0.000000 0.684266 0.750000
O O15 0.196693 0.960341 0.902313
O O16 0.014712 0.587256 0.365824
#
# Coordination Sequence:
#
# PCOD9266518 Si02
#       8
#     4   8   8   8   8   8   8   8
#     4  10  22  36  64  88 120 156 224 256 298 374
#     4  11  25  41  62  98 134 165 207 270 325 381
#     4  10  20  38  59  90 121 159 205 262 304 375
#     4  10  19  37  66  89 122 166 207 255 310 380
#     4  11  23  42  65  88 128 172 209 256 326 385
#     4  10  21  36  64  93 122 162 210 253 316 372
#     4   9  21  37  63  90 126 159 206 259 312 371
#     4  10  20  41  66  88 118 171 218 250 306 387
#
# _framework density 20.978760000000001
#
# number of rings (size 3 to 8) (size 9 to 14) (size 15 to 20)
#    0.000    1.867    2.000    2.000    5.600    2.667 
#    0.000    0.000    1.467    0.000    0.000    0.000 
#    0.000    0.000    0.000    0.000    0.000    0.000 
#
# Total GULP energy -167101.000631 kJ/mol
# GULP energy per Si atom -5570.033354 kJ/mol
# Density = 2.093101 g / cm^3
# Si number density = 20.978760 Si / 1000 Ang^3
#
#
#
# Elastic Constant Matrix: (Units=GPa)
#
#
# Indices 1 2 3 4 5 6 
#
# 1 14.0633 13.9649 4.3434 0.0000 1.5517 0.0000
# 2 13.9649 100.9588 43.5652 0.0000 20.7140 0.0000
# 3 4.3434 43.5652 118.4843 0.0000 -0.9708 0.0000
# 4 0.0000 0.0000 0.0000 38.4803 0.0000 0.3247
# 5 1.5517 20.7140 -0.9708 0.0000 22.6376 0.0000
# 6 0.0000 0.0000 0.0000 0.3247 0.0000 28.0433
#
#
#
# Elastic Compliance Matrix: (Units=1/GPa)
#
#
# Indices 1 2 3 4 5 6 
#
# 1 0.083491 -0.013919 0.002116 0.000000 0.007104 0.000000
# 2 -0.013919 0.017630 -0.006098 0.000000 -0.015439 0.000000
# 3 0.002116 -0.006098 0.010653 0.000000 0.005892 0.000000
# 4 0.000000 0.000000 0.000000 0.025990 0.000000 -0.000301
# 5 0.007104 -0.015439 0.005892 0.000000 0.058067 0.000000
# 6 0.000000 0.000000 0.000000 -0.000301 0.000000 0.035663
#
#
# Mechanical properties :
#
#
# Convention : Reuss Voigt Hill
#
# Bulk Modulus (GPa) = 13.16313 39.69482 26.42898
# Shear Modulus (GPa) = 17.08695 29.27445 23.18070
#
# Velocity S-wave (km/s) = 2.85702 3.73960 3.32770
# Velocity P-wave (km/s) = 4.14386 6.13259 5.23356
#
# Compressibility (1/GPa) = 0.07596975
#
# Stress axis : x y z
#
# Youngs Moduli (GPa) = 11.97728 56.72284 93.87039
#
# Poissons Ratio (x) = 0.78954 -0.19859
# Poissons Ratio (y) = 0.16671 0.57246
# Poissons Ratio (z) = -0.02534 0.34592
#
# Static dielectric constant tensor:
#      x y z
#    x 1.754530 0.000000 0.004200 
#    y 0.000000 1.779180 0.000000 
#    z 0.004200 0.000000 1.839790 
# 
# From -- ./inp_files/264687.got.cif
#   From: 2010.05.17/outbox.cif.g08.bks.cpg/sg15_133_cif.got.tgz:264687.got - 2010.06.03 18:47:42.
