data_PCOD9266509
_publ_section_title
;
Structure prediction by ZEFSAII (Michael W. Deem and Ramdas Pophale) SiO2 
 PCOD9266509
Probable space group: C 2/C
;
_chemical_formula_sum "Si O2"
_cell_formula_units_Z 40
_cell_length_a 7.649085
_cell_length_b 14.845793
_cell_length_c 18.987737
_cell_angle_alpha 90.000000
_cell_angle_beta 49.251193
_cell_angle_gamma 90.000000
_cell_volume 1633.479844
_symmetry_space_group_name_H-M "C 2/C"
_symmetry_group_IT_number 15
_symmetry_cell_setting 'monoclinic'
loop_
_space_group_symop_operation_xyz
x,y,z
-x,y,1/2-z
-x,-y,-z
x,-y,1/2+z
1/2+x,1/2+y,z
1/2-x,1/2+y,1/2-z
1/2-x,1/2-y,-z
1/2+x,1/2-y,1/2+z
loop_
_atom_site_type_symbol
_atom_site_label
_atom_site_fract_x
_atom_site_fract_y
_atom_site_fract_z
Si Si1 0.080679 0.844708 0.653507
Si Si2 0.376126 0.131269 0.849829
Si Si3 0.716503 0.189643 0.142131
Si Si4 0.875113 0.926420 0.483689
Si Si5 0.057797 0.382474 0.452738
O O1 0.055793 0.735977 0.663698
O O2 0.334346 0.864260 0.559112
O O3 0.000000 0.881877 0.750000
O O4 0.902282 0.866855 0.638776
O O5 0.500000 0.088162 0.750000
O O6 0.463051 0.088597 0.900555
O O7 0.102965 0.132699 0.908470
O O8 0.500000 0.201316 0.250000
O O9 0.814034 0.286740 0.093544
O O10 0.694458 0.130486 0.077979
O O11 0.740623 0.944693 0.446267
O O12 0.000000 0.000000 0.500000
#
# Coordination Sequence:
#
# PCOD9266509 Si02
#       5
#     8   8   8   8   8
#     4  10  19  37  66 101 128 167 223 294 343 389
#     4  10  22  40  64  95 131 165 228 285 336 402
#     4  11  22  39  68 100 129 171 237 289 337 401
#     4  12  26  41  62  94 139 184 220 273 348 423
#     4  11  22  41  69  98 129 175 227 289 343 389
#
# _framework density 24.487597999999998
#
# number of rings (size 3 to 8) (size 9 to 14) (size 15 to 20)
#    0.000    1.200    4.000    3.000    8.400    1.600 
#    0.000    0.000    0.000    0.000    0.000    0.000 
#    0.000    0.000    0.000    0.000    0.000    0.000 
#
# Total GULP energy -111820.618629 kJ/mol
# GULP energy per Si atom -5591.030931 kJ/mol
# Density = 2.443186 g / cm^3
# Si number density = 24.487598 Si / 1000 Ang^3
#
#
#
# Elastic Constant Matrix: (Units=GPa)
#
#
# Indices 1 2 3 4 5 6 
#
# 1 206.0916 20.7297 69.3936 -0.0001 18.3898 0.0001
# 2 20.7297 52.5116 33.6800 0.0002 6.9990 0.0000
# 3 69.3936 33.6800 192.8918 -0.0003 7.4533 0.0006
# 4 -0.0001 0.0002 -0.0003 -1.2419 0.0000 6.9592
# 5 18.3898 6.9990 7.4533 0.0000 35.3850 -0.0002
# 6 0.0001 0.0000 0.0006 6.9592 -0.0002 30.5512
#
#
#
# Elastic Compliance Matrix: (Units=1/GPa)
#
#
# Indices 1 2 3 4 5 6 
#
# 1 0.005771 -0.000765 -0.001847 0.000000 -0.002458 0.000000
# 2 -0.000765 0.021981 -0.003438 0.000002 -0.003226 0.000000
# 3 -0.001847 -0.003438 0.006438 -0.000001 0.000284 0.000000
# 4 0.000000 0.000002 -0.000001 -0.353709 0.000000 0.080571
# 5 -0.002458 -0.003226 0.000284 0.000000 0.030116 0.000000
# 6 0.000000 0.000000 0.000000 0.080571 0.000000 0.014379
#
#
# Mechanical properties :
#
#
# Convention : Reuss Voigt Hill
#
# Bulk Modulus (GPa) = 45.27385 77.67798 61.47591
# Shear Modulus (GPa) = -19.56484 34.78496 7.61006
#
# Velocity S-wave (km/s) = -2.82967 3.77306 1.76478
# Velocity P-wave (km/s) = 2.80224 7.12541 5.41406
#
# Compressibility (1/GPa) = 0.02208780
#
# Stress axis : x y z
#
# Youngs Moduli (GPa) = 173.29203 45.49483 155.32421
#
# Poissons Ratio (x) = 0.03483 0.28694
# Poissons Ratio (y) = 0.13265 0.53399
# Poissons Ratio (z) = 0.32013 0.15641
#
# Static dielectric constant tensor:
#      x y z
#    x 1.974030 0.000000 0.023870 
#    y 0.000000 1.998250 0.000000 
#    z 0.023870 0.000000 1.974690 
# 
# From -- ./inp_files/232432.got.cif
#   From: 2010.05.17/outbox.cif.g08.bks.cpg/sg15_117_cif.got.tgz:232432.got - 2010.06.03 18:47:42.
