data_PCOD9266677
_publ_section_title
;
Structure prediction by ZEFSAII (Michael W. Deem and Ramdas Pophale) SiO2 
 PCOD9266677
Probable space group: C 2/C
;
_chemical_formula_sum "Si O2"
_cell_formula_units_Z 60
_cell_length_a 11.150317
_cell_length_b 14.012641
_cell_length_c 25.050134
_cell_angle_alpha 90.000000
_cell_angle_beta 48.899708
_cell_angle_gamma 90.000000
_cell_volume 2949.409842
_symmetry_space_group_name_H-M "C 2/C"
_symmetry_group_IT_number 15
_symmetry_cell_setting 'monoclinic'
loop_
_space_group_symop_operation_xyz
x,y,z
-x,y,1/2-z
-x,-y,-z
x,-y,1/2+z
1/2+x,1/2+y,z
1/2-x,1/2+y,1/2-z
1/2-x,1/2-y,-z
1/2+x,1/2-y,1/2+z
loop_
_atom_site_type_symbol
_atom_site_label
_atom_site_fract_x
_atom_site_fract_y
_atom_site_fract_z
Si Si1 0.357854 0.303858 0.719247
Si Si2 0.328989 0.637204 0.412683
Si Si3 0.594223 0.318405 0.907139
Si Si4 0.000000 0.362144 0.250000
Si Si5 0.831244 0.524928 0.474558
Si Si6 0.573413 0.678526 0.531214
Si Si7 0.112369 0.343522 0.880495
Si Si8 0.781752 0.032487 0.608195
O O1 0.505148 0.378167 0.668433
O O2 0.309854 0.279794 0.672234
O O3 0.430711 0.209730 0.725412
O O4 0.223918 0.346581 0.796350
O O5 0.410792 0.689148 0.439763
O O6 0.230530 0.548421 0.463383
O O7 0.217039 0.685720 0.401645
O O8 0.648563 0.429021 0.896217
O O9 0.611176 0.278347 0.961415
O O10 0.855663 0.426441 0.313723
O O11 0.719362 0.617867 0.510055
O O12 0.793091 0.478667 0.428403
O O13 0.012029 0.561497 0.421728
O O14 0.511355 0.757555 0.589660
O O15 0.430439 0.603618 0.563734
#
# Coordination Sequence:
#
# PCOD9266677 Si02
#       8
#     8   8   8   4   8   8   8   8
#     4  10  19  39  55  88 118 154 189 250 303 333
#     4  10  19  38  59  82 118 157 192 237 301 350
#     4   9  20  36  63  79 116 158 188 237 306 338
#     4  12  22  34  60  94 110 146 202 254 280 346
#     4  11  23  39  58  88 119 158 195 241 295 356
#     4  11  19  41  60  84 116 158 196 243 290 353
#     4  12  23  34  61  90 121 153 203 242 292 355
#     4  11  20  37  61  87 112 147 206 239 288 348
#
# _framework density 20.343050999999999
#
# number of rings (size 3 to 8) (size 9 to 14) (size 15 to 20)
#    0.800    0.533    5.333    1.600    1.867    1.600 
#    0.000    0.000    0.000    1.600    0.000    0.000 
#    0.000    0.000    0.000    0.000    0.000    0.000 
#
# Total GULP energy -167193.710991 kJ/mol
# GULP energy per Si atom -5573.123700 kJ/mol
# Density = 2.029675 g / cm^3
# Si number density = 20.343051 Si / 1000 Ang^3
#
#
#
# Elastic Constant Matrix: (Units=GPa)
#
#
# Indices 1 2 3 4 5 6 
#
# 1 40.6929 -3.9515 10.7645 0.0000 -5.8115 0.0000
# 2 -3.9515 21.9564 28.7394 0.0000 -3.0478 0.0000
# 3 10.7645 28.7394 112.4082 0.0000 -8.2082 0.0000
# 4 0.0000 0.0000 0.0000 22.5140 0.0000 -14.8133
# 5 -5.8115 -3.0478 -8.2082 0.0000 25.5242 0.0000
# 6 0.0000 0.0000 0.0000 -14.8133 0.0000 10.0588
#
#
#
# Elastic Compliance Matrix: (Units=1/GPa)
#
#
# Indices 1 2 3 4 5 6 
#
# 1 0.028259 0.013371 -0.005672 0.000000 0.006207 0.000000
# 2 0.013371 0.074949 -0.020037 0.000000 0.005550 0.000000
# 3 -0.005672 -0.020037 0.014637 0.000000 0.001023 0.000000
# 4 0.000000 0.000000 0.000000 1.430981 0.000000 2.107364
# 5 0.006207 0.005550 0.001023 0.000000 0.041583 -0.000001
# 6 0.000000 0.000000 0.000000 2.107364 -0.000001 3.202869
#
#
# Mechanical properties :
#
#
# Convention : Reuss Voigt Hill
#
# Bulk Modulus (GPa) = 10.73310 27.35136 19.04223
# Shear Modulus (GPa) = 1.03114 20.91975 10.97544
#
# Velocity S-wave (km/s) = 0.71272 3.21027 2.32527
# Velocity P-wave (km/s) = 2.44229 5.21683 4.07309
#
# Compressibility (1/GPa) = 0.09316976
#
# Stress axis : x y z
#
# Youngs Moduli (GPa) = 35.38640 13.34240 68.32034
#
# Poissons Ratio (x) = -0.17840 0.38748
# Poissons Ratio (y) = -0.47315 1.36896
# Poissons Ratio (z) = 0.20070 0.26735
#
# Static dielectric constant tensor:
#      x y z
#    x 1.771170 0.000000 0.003040 
#    y 0.000000 1.726770 0.000000 
#    z 0.003040 0.000000 1.739010 
# 
# From -- ./inp_files/292698.got.cif
#   From: 2010.05.17/outbox.cif.g08.bks.cpg/sg15_147_cif.got.tgz:292698.got - 2010.06.03 18:47:42.
