data_PCOD9266767
_publ_section_title
;
Structure prediction by ZEFSAII (Michael W. Deem and Ramdas Pophale) SiO2 
 PCOD9266767
Probable space group: C 2/C
;
_chemical_formula_sum "Si O2"
_cell_formula_units_Z 52
_cell_length_a 14.993342
_cell_length_b 30.620958
_cell_length_c 5.358331
_cell_angle_alpha 90.000000
_cell_angle_beta 106.208930
_cell_angle_gamma 90.000000
_cell_volume 2362.278848
_symmetry_space_group_name_H-M "C 2/C"
_symmetry_group_IT_number 15
_symmetry_cell_setting 'monoclinic'
loop_
_space_group_symop_operation_xyz
x,y,z
-x,y,1/2-z
-x,-y,-z
x,-y,1/2+z
1/2+x,1/2+y,z
1/2-x,1/2+y,1/2-z
1/2-x,1/2-y,-z
1/2+x,1/2-y,1/2+z
loop_
_atom_site_type_symbol
_atom_site_label
_atom_site_fract_x
_atom_site_fract_y
_atom_site_fract_z
Si Si1 0.500000 0.893117 0.750000
Si Si2 0.787526 0.116608 0.095527
Si Si3 0.111290 0.860089 0.335846
Si Si4 0.605797 0.738408 0.942375
Si Si5 0.000000 0.450673 0.250000
Si Si6 0.500000 0.221101 0.750000
Si Si7 0.205698 0.477227 0.405262
Si Si8 0.136129 0.675078 0.210731
O O1 0.506476 0.921309 0.504198
O O2 0.405479 0.864112 0.656086
O O3 0.846208 0.113454 0.397988
O O4 0.734893 0.071848 0.994773
O O5 0.714302 0.155302 0.095185
O O6 0.849319 0.127255 0.902614
O O7 0.139404 0.809632 0.410438
O O8 0.000000 0.863084 0.250000
O O9 0.500000 0.739255 0.750000
O O10 0.659050 0.780161 0.873678
O O11 0.583130 0.748684 0.212573
O O12 0.093939 0.478204 0.308787
O O13 0.453625 0.189336 0.516777
O O14 0.239155 0.492372 0.159244
#
# Coordination Sequence:
#
# PCOD9266767 Si02
#       8
#     4   8   8   8   4   4   8   8
#     4  12  22  37  64  99 152 194 234 265 300 399
#     4  12  28  44  74 101 133 175 229 291 349 403
#     4  11  27  49  71  97 131 178 231 296 359 411
#     4   9  21  37  64  92 139 191 231 277 332 394
#     4  12  25  41  70 102 148 196 228 254 314 403
#     4  10  19  38  60  93 148 196 226 267 328 384
#     4  12  26  47  72 105 146 177 218 271 340 416
#     4  11  23  36  63 101 142 195 232 271 325 386
#
# _framework density 22.012644999999999
#
# number of rings (size 3 to 8) (size 9 to 14) (size 15 to 20)
#    0.000    0.923    3.846    3.231   10.769    1.231 
#    0.000    0.000    0.000    9.231    0.000    0.000 
#    0.000    0.000    0.000    0.000    0.000    0.000 
#
# Total GULP energy -145366.535910 kJ/mol
# GULP energy per Si atom -5591.020612 kJ/mol
# Density = 2.196254 g / cm^3
# Si number density = 22.012645 Si / 1000 Ang^3
#
#
#
# Elastic Constant Matrix: (Units=GPa)
#
#
# Indices 1 2 3 4 5 6 
#
# 1 89.2900 15.5803 32.3335 0.0000 -15.5226 0.0000
# 2 15.5803 70.0317 23.9261 0.0000 -3.3324 0.0000
# 3 32.3335 23.9261 92.8177 0.0000 -17.9287 0.0000
# 4 0.0000 0.0000 0.0000 43.7512 0.0000 33.1824
# 5 -15.5226 -3.3324 -17.9287 0.0000 36.1097 0.0000
# 6 0.0000 0.0000 0.0000 33.1824 0.0000 152.7368
#
#
#
# Elastic Compliance Matrix: (Units=1/GPa)
#
#
# Indices 1 2 3 4 5 6 
#
# 1 0.013426 -0.001602 -0.003515 0.000000 0.003878 0.000000
# 2 -0.001602 0.015862 -0.003740 0.000000 -0.001081 0.000000
# 3 -0.003515 -0.003740 0.013941 0.000000 0.005066 0.000000
# 4 0.000000 0.000000 0.000000 0.027366 0.000000 -0.005945
# 5 0.003878 -0.001081 0.005066 0.000000 0.031776 0.000000
# 6 0.000000 0.000000 0.000000 -0.005945 0.000000 0.007839
#
#
# Mechanical properties :
#
#
# Convention : Reuss Voigt Hill
#
# Bulk Modulus (GPa) = 39.19118 43.97992 41.58555
# Shear Modulus (GPa) = 36.64972 58.53951 47.59462
#
# Velocity S-wave (km/s) = 4.08479 5.16249 4.65494
# Velocity P-wave (km/s) = 6.33166 7.45371 6.91548
#
# Compressibility (1/GPa) = 0.02551594
#
# Stress axis : x y z
#
# Youngs Moduli (GPa) = 74.48231 63.04475 71.73213
#
# Poissons Ratio (x) = 0.10097 0.25214
# Poissons Ratio (y) = 0.11928 0.26826
# Poissons Ratio (z) = 0.26181 0.23577
#
# Static dielectric constant tensor:
#      x y z
#    x 1.859100 0.000000 -0.051000 
#    y 0.000000 1.810600 0.000000 
#    z -0.051000 0.000000 1.894950 
# 
# From -- ./inp_files/9145.got.cif
#   From: 2010.05.17/outbox.cif.g08.bks.cpg/sg15_5_cif.got.tgz:9145.got - 2010.06.03 18:47:42.
