data_PCOD9266348
_publ_section_title
;
Structure prediction by ZEFSAII (Michael W. Deem and Ramdas Pophale) SiO2 
 PCOD9266348
Probable space group: C 2/C
;
_chemical_formula_sum "Si O2"
_cell_formula_units_Z 52
_cell_length_a 11.233220
_cell_length_b 10.644141
_cell_length_c 16.888190
_cell_angle_alpha 90.000000
_cell_angle_beta 92.025086
_cell_angle_gamma 90.000000
_cell_volume 2018.025580
_symmetry_space_group_name_H-M "C 2/C"
_symmetry_group_IT_number 15
_symmetry_cell_setting 'monoclinic'
loop_
_space_group_symop_operation_xyz
x,y,z
-x,y,1/2-z
-x,-y,-z
x,-y,1/2+z
1/2+x,1/2+y,z
1/2-x,1/2+y,1/2-z
1/2-x,1/2-y,-z
1/2+x,1/2-y,1/2+z
loop_
_atom_site_type_symbol
_atom_site_label
_atom_site_fract_x
_atom_site_fract_y
_atom_site_fract_z
Si Si1 0.156020 0.093414 0.153223
Si Si2 0.000000 0.898941 0.250000
Si Si3 0.790494 0.903957 0.145038
Si Si4 0.558806 0.605023 0.443635
Si Si5 0.915117 0.674420 0.446284
Si Si6 0.673662 0.908264 0.987754
Si Si7 0.362918 0.903215 0.776650
O O1 0.084919 0.982284 0.195576
O O2 0.043911 0.167594 0.113340
O O3 0.253325 0.141208 0.218150
O O4 0.236055 0.058823 0.079986
O O5 0.099301 0.837385 0.308263
O O6 0.684532 0.957509 0.197196
O O7 0.853491 0.030212 0.111577
O O8 0.737172 0.842280 0.064783
O O9 0.500000 0.500000 0.500000
O O10 0.617668 0.709161 0.499569
O O11 0.871250 0.541949 0.479568
O O12 0.871883 0.682377 0.355265
O O13 0.058606 0.664298 0.453874
O O14 0.500000 0.914411 0.750000
#
# Coordination Sequence:
#
# PCOD9266348 Si02
#       7
#     8   4   8   8   8   8   8
#     4  10  19  37  65  88 130 168 214 260 326 374
#     4   8  18  32  60  88 128 178 200 262 314 394
#     4   9  19  36  62  90 124 167 215 253 320 372
#     4  11  22  41  66  94 127 168 216 266 317 385
#     4  10  23  38  66  95 131 164 223 262 319 381
#     4  10  19  37  63  97 124 165 215 272 311 373
#     4  10  19  37  63  89 128 168 204 270 314 378
#
# _framework density 25.767759999999999
#
# number of rings (size 3 to 8) (size 9 to 14) (size 15 to 20)
#    0.000    2.154    3.077    0.000    0.000    3.077 
#    0.000    0.000   27.077   22.154    0.000    0.000 
#    0.000    0.000    0.000    0.000    0.000    0.000 
#
# Total GULP energy -145443.775997 kJ/mol
# GULP energy per Si atom -5593.991384 kJ/mol
# Density = 2.570911 g / cm^3
# Si number density = 25.767760 Si / 1000 Ang^3
#
#
#
# Elastic Constant Matrix: (Units=GPa)
#
#
# Indices 1 2 3 4 5 6 
#
# 1 174.4726 35.5044 62.4815 0.0000 27.3443 0.0000
# 2 35.5044 68.6101 19.3044 0.0000 10.0718 0.0000
# 3 62.4815 19.3044 158.9082 0.0000 50.9462 0.0000
# 4 0.0000 0.0000 0.0000 24.2565 0.0000 -2.5987
# 5 27.3443 10.0718 50.9462 0.0000 75.5940 0.0000
# 6 0.0000 0.0000 0.0000 -2.5987 0.0000 50.2487
#
#
#
# Elastic Compliance Matrix: (Units=1/GPa)
#
#
# Indices 1 2 3 4 5 6 
#
# 1 0.007267 -0.003020 -0.002266 0.000000 -0.000699 0.000000
# 2 -0.003020 0.016404 -0.000580 0.000000 -0.000702 0.000000
# 3 -0.002266 -0.000580 0.008887 0.000000 -0.005092 0.000000
# 4 0.000000 0.000000 0.000000 0.041456 0.000000 0.002144
# 5 -0.000699 -0.000702 -0.005092 0.000000 0.017007 0.000000
# 6 0.000000 0.000000 0.000000 0.002144 0.000000 0.020012
#
#
# Mechanical properties :
#
#
# Convention : Reuss Voigt Hill
#
# Bulk Modulus (GPa) = 48.01945 70.73018 59.37481
# Shear Modulus (GPa) = 38.54776 48.99989 43.77383
#
# Velocity S-wave (km/s) = 3.87197 4.36546 4.12610
# Velocity P-wave (km/s) = 6.21816 7.27450 6.76697
#
# Compressibility (1/GPa) = 0.02082489
#
# Stress axis : x y z
#
# Youngs Moduli (GPa) = 137.60071 60.95920 112.52141
#
# Poissons Ratio (x) = 0.18412 0.25503
# Poissons Ratio (y) = 0.41561 0.06528
# Poissons Ratio (z) = 0.31187 0.03536
#
# Static dielectric constant tensor:
#      x y z
#    x 2.059240 0.000000 0.112190 
#    y 0.000000 2.054390 0.000000 
#    z 0.112190 0.000000 2.238560 
# 
# From -- ./inp_files/197347.got.cif
#   From: 2010.05.17/outbox.cif.g08.bks.cpg/sg15_99_cif.got.tgz:197347.got - 2010.06.03 18:47:42.
