data_PCOD9266260
_publ_section_title
;
Structure prediction by ZEFSAII (Michael W. Deem and Ramdas Pophale) SiO2 
 PCOD9266260
Probable space group: C 2/C
;
_chemical_formula_sum "Si O2"
_cell_formula_units_Z 64
_cell_length_a 34.707584
_cell_length_b 19.719028
_cell_length_c 16.713550
_cell_angle_alpha 90.000000
_cell_angle_beta 16.533970
_cell_angle_gamma 90.000000
_cell_volume 3255.282751
_symmetry_space_group_name_H-M "C 2/C"
_symmetry_group_IT_number 15
_symmetry_cell_setting 'monoclinic'
loop_
_space_group_symop_operation_xyz
x,y,z
-x,y,1/2-z
-x,-y,-z
x,-y,1/2+z
1/2+x,1/2+y,z
1/2-x,1/2+y,1/2-z
1/2-x,1/2-y,-z
1/2+x,1/2-y,1/2+z
loop_
_atom_site_type_symbol
_atom_site_label
_atom_site_fract_x
_atom_site_fract_y
_atom_site_fract_z
Si Si1 0.244631 0.750426 0.822636
Si Si2 0.289502 0.815378 0.276288
Si Si3 0.417699 0.608599 0.997448
Si Si4 0.843529 0.454633 0.086259
Si Si5 0.658630 0.107850 0.415448
Si Si6 0.484935 0.263610 0.096862
Si Si7 0.084507 0.954436 0.499297
Si Si8 0.480175 0.681995 0.435631
O O1 0.184889 0.728467 0.855749
O O2 0.288080 0.828918 0.741190
O O3 0.380388 0.707875 0.565355
O O4 0.135992 0.736564 0.107259
O O5 0.310405 0.894053 0.212574
O O6 0.135635 0.803659 0.607445
O O7 0.392203 0.788958 0.138504
O O8 0.500000 0.619277 0.750000
O O9 0.463589 0.665449 0.967397
O O10 0.444447 0.531199 0.969190
O O11 0.257809 0.611888 0.294995
O O12 0.820942 0.532216 0.160323
O O13 0.740670 0.446960 0.216228
O O14 0.000000 0.448767 0.750000
O O15 0.500000 0.116204 0.750000
O O16 0.442653 0.279553 0.091281
O O17 0.000000 0.942654 0.750000
O O18 0.042737 0.898613 0.518458
#
# Coordination Sequence:
#
# PCOD9266260 Si02
#       8
#     8   8   8   8   8   8   8   8
#     4  12  22  40  63  86 114 159 204 245 288 354
#     4  12  22  40  63  86 114 159 204 245 288 354
#     4  10  19  37  62  87 115 153 202 245 286 352
#     4  10  20  35  61  91 114 144 199 253 287 333
#     4  10  20  35  61  91 114 144 199 253 287 333
#     4  12  25  39  57  89 125 156 191 248 312 354
#     4  10  19  37  62  87 115 153 202 245 286 352
#     4  12  25  39  57  89 125 156 191 248 312 354
#
# _framework density 19.660350000000001
#
# number of rings (size 3 to 8) (size 9 to 14) (size 15 to 20)
#    0.000    1.000    5.000    3.000    0.000    0.500 
#    0.000    0.000    0.000    0.750    0.000    0.000 
#    0.000    0.000    0.000    0.000    0.000    0.000 
#
# Total GULP energy -178735.885482 kJ/mol
# GULP energy per Si atom -5585.496421 kJ/mol
# Density = 1.961560 g / cm^3
# Si number density = 19.660350 Si / 1000 Ang^3
#
#
#
# Elastic Constant Matrix: (Units=GPa)
#
#
# Indices 1 2 3 4 5 6 
#
# 1 19.4680 -9.0242 -8.4706 0.0004 -7.3039 -0.0006
# 2 -9.0242 78.9614 -4.9304 0.0001 -5.0209 -0.0006
# 3 -8.4706 -4.9304 94.8633 -0.0006 -16.4323 -0.0006
# 4 0.0004 0.0001 -0.0006 25.3405 -0.0005 -4.7851
# 5 -7.3039 -5.0209 -16.4323 -0.0005 19.9872 0.0003
# 6 -0.0006 -0.0006 -0.0006 -4.7851 0.0003 16.5705
#
#
#
# Elastic Compliance Matrix: (Units=1/GPa)
#
#
# Indices 1 2 3 4 5 6 
#
# 1 0.081998 0.013334 0.016075 0.000000 0.046530 0.000003
# 2 0.013334 0.015207 0.004066 0.000000 0.012035 0.000001
# 3 0.016075 0.004066 0.015605 0.000001 0.019725 0.000001
# 4 0.000000 0.000000 0.000001 0.041738 0.000002 0.012053
# 5 0.046530 0.012035 0.019725 0.000002 0.086275 0.000002
# 6 0.000003 0.000001 0.000001 0.012053 0.000002 0.063829
#
#
# Mechanical properties :
#
#
# Convention : Reuss Voigt Hill
#
# Bulk Modulus (GPa) = 5.56303 16.49361 11.02832
# Shear Modulus (GPa) = 16.79972 26.76084 21.78028
#
# Velocity S-wave (km/s) = 2.92635 3.69339 3.33202
# Velocity P-wave (km/s) = 3.77541 5.15710 4.51937
#
# Compressibility (1/GPa) = 0.17975805
#
# Stress axis : x y z
#
# Youngs Moduli (GPa) = 12.19543 65.75751 64.08246
#
# Poissons Ratio (x) = -0.87678 -1.03010
# Poissons Ratio (y) = -0.16261 -0.26054
# Poissons Ratio (z) = -0.19604 -0.26735
#
# Static dielectric constant tensor:
#      x y z
#    x 1.657720 0.000000 -0.011280 
#    y 0.000000 1.722850 0.000000 
#    z -0.011280 0.000000 1.703950 
# 
# From -- ./inp_files/183129.got.cif
#   From: 2010.05.17/outbox.cif.g08.bks.cpg/sg15_92_cif.got.tgz:183129.got - 2010.06.03 18:47:42.
