data_PCOD9266753
_publ_section_title
;
Structure prediction by ZEFSAII (Michael W. Deem and Ramdas Pophale) SiO2 
 PCOD9266753
Probable space group: C 2/C
;
_chemical_formula_sum "Si O2"
_cell_formula_units_Z 48
_cell_length_a 15.777301
_cell_length_b 21.144900
_cell_length_c 14.980652
_cell_angle_alpha 90.000000
_cell_angle_beta 27.489548
_cell_angle_gamma 90.000000
_cell_volume 2306.866374
_symmetry_space_group_name_H-M "C 2/C"
_symmetry_group_IT_number 15
_symmetry_cell_setting 'monoclinic'
loop_
_space_group_symop_operation_xyz
x,y,z
-x,y,1/2-z
-x,-y,-z
x,-y,1/2+z
1/2+x,1/2+y,z
1/2-x,1/2+y,1/2-z
1/2-x,1/2-y,-z
1/2+x,1/2-y,1/2+z
loop_
_atom_site_type_symbol
_atom_site_label
_atom_site_fract_x
_atom_site_fract_y
_atom_site_fract_z
Si Si1 0.234504 0.006828 0.185503
Si Si2 0.677346 0.524880 0.449617
Si Si3 0.760157 0.337805 0.856215
Si Si4 0.543763 0.088185 0.802765
Si Si5 0.596599 0.128748 0.938049
Si Si6 0.095996 0.795350 0.250435
O O1 0.357589 0.943461 0.077885
O O2 0.035655 0.989716 0.329870
O O3 0.191693 0.027250 0.327544
O O4 0.359286 0.056997 0.017075
O O5 0.743048 0.594070 0.420023
O O6 0.814140 0.469227 0.349807
O O7 0.855818 0.277591 0.812432
O O8 0.889748 0.350789 0.651376
O O9 0.555104 0.312181 0.033124
O O10 0.500000 0.120254 0.750000
O O11 0.629422 0.130465 0.801540
O O12 0.724256 0.170367 0.882340
O O13 0.000000 0.819542 0.250000
#
# Coordination Sequence:
#
# PCOD9266753 Si02
#       6
#     8   8   8   8   8   8
#     4  10  19  38  60  89 119 161 203 246 302 363
#     4  10  20  36  62  87 121 158 204 246 301 365
#     4  12  22  39  62  88 124 162 197 246 302 370
#     4  11  23  38  62  92 124 161 203 255 302 360
#     4  11  22  41  61  86 126 162 203 245 305 356
#     4  12  27  40  60  92 122 158 206 250 302 368
#
# _framework density 20.807448000000001
#
# number of rings (size 3 to 8) (size 9 to 14) (size 15 to 20)
#    0.000    1.000    6.667    1.500    0.000    2.667 
#    0.000    0.000    0.000    1.000    0.000    0.000 
#    0.000    0.000    0.000    0.000    0.000    0.000 
#
# Total GULP energy -133904.166364 kJ/mol
# GULP energy per Si atom -5579.340265 kJ/mol
# Density = 2.076009 g / cm^3
# Si number density = 20.807448 Si / 1000 Ang^3
#
#
#
# Elastic Constant Matrix: (Units=GPa)
#
#
# Indices 1 2 3 4 5 6 
#
# 1 100.9029 29.9649 11.0857 0.0118 3.2161 -0.0119
# 2 29.9649 69.7135 13.6229 -0.0049 -3.9788 -0.0036
# 3 11.0857 13.6229 93.5245 -0.0191 -18.0523 0.0129
# 4 0.0118 -0.0049 -0.0191 34.6229 0.0001 -5.9884
# 5 3.2161 -3.9788 -18.0523 0.0001 18.4455 0.0020
# 6 -0.0119 -0.0036 0.0129 -5.9884 0.0020 12.9222
#
#
#
# Elastic Compliance Matrix: (Units=1/GPa)
#
#
# Indices 1 2 3 4 5 6 
#
# 1 0.011713 -0.004995 -0.001557 -0.000004 -0.004644 0.000010
# 2 -0.004995 0.016922 -0.001233 0.000004 0.003314 0.000003
# 3 -0.001557 -0.001233 0.013633 0.000005 0.013348 -0.000015
# 4 -0.000004 0.000004 0.000005 0.031399 0.000005 0.014551
# 5 -0.004644 0.003314 0.013348 0.000005 0.068802 -0.000025
# 6 0.000010 0.000003 -0.000015 0.014551 -0.000025 0.084129
#
#
# Mechanical properties :
#
#
# Convention : Reuss Voigt Hill
#
# Bulk Modulus (GPa) = 37.45758 41.49866 39.47812
# Shear Modulus (GPa) = 19.91493 27.16262 23.53877
#
# Velocity S-wave (km/s) = 3.09707 3.61699 3.36708
# Velocity P-wave (km/s) = 5.55249 6.11808 5.84214
#
# Compressibility (1/GPa) = 0.02669687
#
# Stress axis : x y z
#
# Youngs Moduli (GPa) = 85.37472 59.09583 73.35150
#
# Poissons Ratio (x) = 0.29521 0.11421
# Poissons Ratio (y) = 0.42648 0.09044
# Poissons Ratio (z) = 0.13294 0.07286
#
# Static dielectric constant tensor:
#      x y z
#    x 1.783150 -0.000020 0.018480 
#    y -0.000020 1.765000 0.000030 
#    z 0.018480 0.000030 1.816110 
# 
# From -- ./inp_files/156749.got.cif
#   From: 2010.05.17/outbox.cif.g08.bks.cpg/sg15_79_cif.got.tgz:156749.got - 2010.06.03 18:47:42.
