data_PCOD9266591
_publ_section_title
;
Structure prediction by ZEFSAII (Michael W. Deem and Ramdas Pophale) SiO2 
 PCOD9266591
Probable space group: C 2/C
;
_chemical_formula_sum "Si O2"
_cell_formula_units_Z 64
_cell_length_a 12.080325
_cell_length_b 15.846087
_cell_length_c 28.991293
_cell_angle_alpha 90.000000
_cell_angle_beta 146.668034
_cell_angle_gamma 90.000000
_cell_volume 3049.490422
_symmetry_space_group_name_H-M "C 2/C"
_symmetry_group_IT_number 15
_symmetry_cell_setting 'monoclinic'
loop_
_space_group_symop_operation_xyz
x,y,z
-x,y,1/2-z
-x,-y,-z
x,-y,1/2+z
1/2+x,1/2+y,z
1/2-x,1/2+y,1/2-z
1/2-x,1/2-y,-z
1/2+x,1/2-y,1/2+z
loop_
_atom_site_type_symbol
_atom_site_label
_atom_site_fract_x
_atom_site_fract_y
_atom_site_fract_z
Si Si1 0.873119 0.191137 0.077542
Si Si2 0.289285 0.077168 0.306121
Si Si3 0.860565 0.680942 0.101790
Si Si4 0.588859 0.514095 0.383943
Si Si5 0.960870 0.843853 0.085891
Si Si6 0.742960 0.765181 0.841631
Si Si7 0.794302 0.764889 0.655972
Si Si8 0.763601 0.070797 0.651440
O O1 0.823282 0.218642 0.112292
O O2 0.821600 0.091695 0.056386
O O3 0.109269 0.202609 0.146659
O O4 0.750000 0.250000 0.000000
O O5 0.456794 0.116113 0.331352
O O6 0.085688 0.057294 0.207701
O O7 0.252943 0.147819 0.333045
O O8 0.348194 0.990880 0.352172
O O9 0.939435 0.776811 0.120459
O O10 0.724239 0.683997 0.099494
O O11 0.744160 0.656485 0.014721
O O12 0.498906 0.437212 0.382079
O O13 0.739864 0.469524 0.400542
O O14 0.123703 0.801963 0.109146
O O15 0.500000 0.770657 0.750000
O O16 0.798919 0.667353 0.868848
O O17 0.000000 0.732828 0.750000
O O18 0.000000 0.069862 0.750000
#
# Coordination Sequence:
#
# PCOD9266591 Si02
#       8
#     8   8   8   8   8   8   8   8
#     4  12  26  42  64  96 138 175 218 271 342 397
#     4  10  19  37  70  97 126 166 229 277 329 387
#     4  10  21  41  61  95 132 175 207 266 342 396
#     4  11  20  42  64  98 128 169 222 280 322 385
#     4  10  23  39  66  94 132 167 218 270 330 399
#     4  11  23  40  65  96 131 171 220 272 329 398
#     4  11  21  41  69  95 125 178 221 269 327 403
#     4   9  18  34  62  96 123 154 216 285 318 366
#
# _framework density 20.987113000000001
#
# number of rings (size 3 to 8) (size 9 to 14) (size 15 to 20)
#    0.000    1.500    3.750    1.875    1.750    1.000 
#    0.000    6.875    0.000    0.000    0.000    0.000 
#    0.000    0.000    0.000    0.000    0.000    0.000 
#
# Total GULP energy -178799.436707 kJ/mol
# GULP energy per Si atom -5587.482397 kJ/mol
# Density = 2.093935 g / cm^3
# Si number density = 20.987113 Si / 1000 Ang^3
#
#
#
# Elastic Constant Matrix: (Units=GPa)
#
#
# Indices 1 2 3 4 5 6 
#
# 1 112.4662 53.5124 14.2506 0.0000 -15.2016 0.0000
# 2 53.5124 105.2802 15.0403 0.0000 -20.0496 0.0000
# 3 14.2506 15.0403 44.3892 0.0000 -6.3135 0.0000
# 4 0.0000 0.0000 0.0000 18.7777 0.0000 -2.4995
# 5 -15.2016 -20.0496 -6.3135 0.0000 24.9359 0.0000
# 6 0.0000 0.0000 0.0000 -2.4995 0.0000 32.3658
#
#
#
# Elastic Compliance Matrix: (Units=1/GPa)
#
#
# Indices 1 2 3 4 5 6 
#
# 1 0.012009 -0.005375 -0.001668 0.000000 0.002577 0.000000
# 2 -0.005375 0.013921 -0.001935 0.000000 0.007427 0.000000
# 3 -0.001668 -0.001935 0.024226 0.000000 0.003561 0.000000
# 4 0.000000 0.000000 0.000000 0.053808 0.000000 0.004155
# 5 0.002577 0.007427 0.003561 0.000000 0.048547 0.000000
# 6 0.000000 0.000000 0.000000 0.004155 0.000000 0.031218
#
#
# Mechanical properties :
#
#
# Convention : Reuss Voigt Hill
#
# Bulk Modulus (GPa) = 31.05546 47.52690 39.29118
# Shear Modulus (GPa) = 23.53872 27.17136 25.35504
#
# Velocity S-wave (km/s) = 3.35263 3.60205 3.47958
# Velocity P-wave (km/s) = 5.46044 6.32413 5.90809
#
# Compressibility (1/GPa) = 0.03220045
#
# Stress axis : x y z
#
# Youngs Moduli (GPa) = 83.27413 71.83301 41.27879
#
# Poissons Ratio (x) = 0.38609 0.06883
# Poissons Ratio (y) = 0.44758 0.07988
# Poissons Ratio (z) = 0.13886 0.13900
#
# Static dielectric constant tensor:
#      x y z
#    x 1.780380 0.000000 0.015690 
#    y 0.000000 1.748340 0.000000 
#    z 0.015690 0.000000 1.830020 
# 
# From -- ./inp_files/293069.got.cif
#   From: 2010.05.17/outbox.cif.g08.bks.cpg/sg15_147_cif.got.tgz:293069.got - 2010.06.03 18:47:42.
