data_PCOD9266755
_publ_section_title
;
Structure prediction by ZEFSAII (Michael W. Deem and Ramdas Pophale) SiO2 
 PCOD9266755
Probable space group: C 2/C
;
_chemical_formula_sum "Si O2"
_cell_formula_units_Z 48
_cell_length_a 22.605933
_cell_length_b 14.362242
_cell_length_c 10.906648
_cell_angle_alpha 90.000000
_cell_angle_beta 32.877774
_cell_angle_gamma 90.000000
_cell_volume 1922.271737
_symmetry_space_group_name_H-M "C 2/C"
_symmetry_group_IT_number 15
_symmetry_cell_setting 'monoclinic'
loop_
_space_group_symop_operation_xyz
x,y,z
-x,y,1/2-z
-x,-y,-z
x,-y,1/2+z
1/2+x,1/2+y,z
1/2-x,1/2+y,1/2-z
1/2-x,1/2-y,-z
1/2+x,1/2-y,1/2+z
loop_
_atom_site_type_symbol
_atom_site_label
_atom_site_fract_x
_atom_site_fract_y
_atom_site_fract_z
Si Si1 0.013166 0.283259 0.919652
Si Si2 0.812470 0.935751 0.075486
Si Si3 0.167685 0.367405 0.133015
Si Si4 0.341130 0.063381 0.437318
Si Si5 0.661987 0.763759 0.886548
Si Si6 0.653755 0.629964 0.573868
O O1 0.069000 0.358436 0.735079
O O2 0.070359 0.298941 0.952673
O O3 0.048792 0.182598 0.809130
O O4 0.889442 0.306257 0.162781
O O5 0.782001 0.897938 0.993314
O O6 0.704751 0.954621 0.346632
O O7 0.862813 0.845503 0.051841
O O8 0.867814 0.035830 0.964439
O O9 0.114729 0.467534 0.196675
O O10 0.166124 0.312322 0.010173
O O11 0.237291 0.098113 0.536450
O O12 0.775278 0.793439 0.624109
#
# Coordination Sequence:
#
# PCOD9266755 Si02
#       6
#     8   8   8   8   8   8
#     4  11  21  39  60  88 127 163 199 255 317 368
#     4  11  21  38  64  91 120 160 214 253 294 380
#     4  11  24  35  58  97 126 151 202 266 317 345
#     4  10  19  38  60  90 123 163 198 248 311 377
#     4  11  20  40  61  85 120 169 209 242 302 390
#     4  10  20  37  65  84 118 170 212 240 304 382
#
# _framework density 24.970457
#
# number of rings (size 3 to 8) (size 9 to 14) (size 15 to 20)
#    0.000    1.333    5.000    2.500    0.000    0.667 
#    3.000    0.833    0.000    2.000    0.000    0.000 
#    0.000    0.000    0.000    0.000    0.000    0.000 
#
# Total GULP energy -134237.722087 kJ/mol
# GULP energy per Si atom -5593.238420 kJ/mol
# Density = 2.491362 g / cm^3
# Si number density = 24.970457 Si / 1000 Ang^3
#
#
#
# Elastic Constant Matrix: (Units=GPa)
#
#
# Indices 1 2 3 4 5 6 
#
# 1 71.4646 36.5315 20.1183 0.0000 18.1887 0.0000
# 2 36.5315 174.2583 49.5651 0.0000 11.3853 0.0000
# 3 20.1183 49.5651 77.2887 0.0000 21.6276 0.0000
# 4 0.0000 0.0000 0.0000 33.8470 0.0000 15.2300
# 5 18.1887 11.3853 21.6276 0.0000 27.4298 0.0000
# 6 0.0000 0.0000 0.0000 15.2300 0.0000 27.8800
#
#
#
# Elastic Compliance Matrix: (Units=1/GPa)
#
#
# Indices 1 2 3 4 5 6 
#
# 1 0.018375 -0.003242 0.000422 0.000000 -0.011172 0.000000
# 2 -0.003242 0.007605 -0.004814 0.000000 0.002789 0.000000
# 3 0.000422 -0.004814 0.019804 0.000000 -0.013897 0.000000
# 4 0.000000 0.000000 0.000000 0.039174 0.000000 -0.021399
# 5 -0.011172 0.002789 -0.013897 0.000000 0.053665 0.000000
# 6 0.000000 0.000000 0.000000 -0.021399 0.000000 0.047558
#
#
# Mechanical properties :
#
#
# Convention : Reuss Voigt Hill
#
# Bulk Modulus (GPa) = 32.76815 59.49349 46.13082
# Shear Modulus (GPa) = 23.62725 32.28448 27.95586
#
# Velocity S-wave (km/s) = 3.07939 3.59960 3.34961
# Velocity P-wave (km/s) = 5.07885 6.41510 5.78568
#
# Compressibility (1/GPa) = 0.03051743
#
# Stress axis : x y z
#
# Youngs Moduli (GPa) = 54.42247 131.48736 50.49391
#
# Poissons Ratio (x) = 0.42633 -0.02133
# Poissons Ratio (y) = 0.17646 0.24306
# Poissons Ratio (z) = -0.02299 0.63293
#
# Static dielectric constant tensor:
#      x y z
#    x 1.988670 0.000000 -0.006410 
#    y 0.000000 1.991610 0.000000 
#    z -0.006410 0.000000 1.991630 
# 
# From -- ./inp_files/123423.got.cif
#   From: 2010.05.17/outbox.cif.g08.bks.cpg/sg15_62_cif.got.tgz:123423.got - 2010.06.03 18:47:42.
