data_PCOD9266823
_publ_section_title
;
Structure prediction by ZEFSAII (Michael W. Deem and Ramdas Pophale) SiO2 
 PCOD9266823
Probable space group: C 2/C
;
_chemical_formula_sum "Si O2"
_cell_formula_units_Z 64
_cell_length_a 25.906516
_cell_length_b 13.195630
_cell_length_c 18.830563
_cell_angle_alpha 90.000000
_cell_angle_beta 148.937087
_cell_angle_gamma 90.000000
_cell_volume 3321.501439
_symmetry_space_group_name_H-M "C 2/C"
_symmetry_group_IT_number 15
_symmetry_cell_setting 'monoclinic'
loop_
_space_group_symop_operation_xyz
x,y,z
-x,y,1/2-z
-x,-y,-z
x,-y,1/2+z
1/2+x,1/2+y,z
1/2-x,1/2+y,1/2-z
1/2-x,1/2-y,-z
1/2+x,1/2-y,1/2+z
loop_
_atom_site_type_symbol
_atom_site_label
_atom_site_fract_x
_atom_site_fract_y
_atom_site_fract_z
Si Si1 0.597770 0.451788 0.153424
Si Si2 0.808306 0.913612 0.617824
Si Si3 0.511724 0.945730 0.935357
Si Si4 0.569188 0.235174 0.702319
Si Si5 0.217047 0.070353 0.184809
Si Si6 0.637014 0.875354 0.529095
Si Si7 0.688992 0.975351 0.342572
Si Si8 0.541816 0.716263 0.007568
O O1 0.626459 0.507805 0.259490
O O2 0.685417 0.481806 0.202729
O O3 0.500000 0.500000 0.000000
O O4 0.566354 0.336294 0.128112
O O5 0.878595 0.816790 0.685325
O O6 0.717067 0.873676 0.560333
O O7 0.759780 0.967481 0.493522
O O8 0.587826 0.013700 0.980071
O O9 0.406981 0.951203 0.770435
O O10 0.544201 0.831534 0.986032
O O11 0.500000 0.000000 0.000000
O O12 0.456718 0.200331 0.589005
O O13 0.637764 0.135487 0.776291
O O14 0.566130 0.283967 0.620286
O O15 0.303112 0.135362 0.326029
O O16 0.123595 0.145727 0.065693
O O17 0.251134 0.013728 0.154980
#
# Coordination Sequence:
#
# PCOD9266823 Si02
#       8
#     8   8   8   8   8   8   8   8
#     4   9  19  38  61  83 123 163 207 255 305 367
#     4  11  23  42  61  94 134 165 206 259 325 389
#     4  11  20  38  61  91 123 159 209 267 305 374
#     4  11  20  37  65  93 130 158 207 267 316 391
#     4  10  19  38  61  92 120 166 212 256 310 373
#     4  10  20  39  64  91 124 171 206 249 329 371
#     4  11  23  40  61  92 133 158 207 267 319 373
#     4  11  19  38  65  92 120 162 222 264 303 372
#
# _framework density 19.268393
#
# number of rings (size 3 to 8) (size 9 to 14) (size 15 to 20)
#    0.000    1.500    7.500    0.375    0.000    3.000 
#   11.250    4.375    2.750    0.000    0.000    0.000 
#    0.000    0.000    0.000    0.000    0.000    0.000 
#
# Total GULP energy -178534.595869 kJ/mol
# GULP energy per Si atom -5579.206121 kJ/mol
# Density = 1.922454 g / cm^3
# Si number density = 19.268393 Si / 1000 Ang^3
#
#
#
# Elastic Constant Matrix: (Units=GPa)
#
#
# Indices 1 2 3 4 5 6 
#
# 1 42.6838 16.3766 39.6274 0.0000 1.9955 0.0000
# 2 16.3766 62.5928 34.5870 0.0000 6.5980 0.0000
# 3 39.6274 34.5870 124.2855 0.0000 -5.1177 0.0000
# 4 0.0000 0.0000 0.0000 32.9706 0.0000 1.6383
# 5 1.9955 6.5980 -5.1177 0.0000 27.8653 0.0000
# 6 0.0000 0.0000 0.0000 1.6383 0.0000 12.0289
#
#
#
# Elastic Compliance Matrix: (Units=1/GPa)
#
#
# Indices 1 2 3 4 5 6 
#
# 1 0.034236 -0.002905 -0.010258 0.000000 -0.003648 0.000000
# 2 -0.002905 0.019993 -0.004861 0.000000 -0.005419 0.000000
# 3 -0.010258 -0.004861 0.012844 0.000000 0.004244 0.000000
# 4 0.000000 0.000000 0.000000 0.030537 0.000000 -0.004159
# 5 -0.003648 -0.005419 0.004244 0.000000 0.038211 0.000000
# 6 0.000000 0.000000 0.000000 -0.004159 0.000000 0.083699
#
#
# Mechanical properties :
#
#
# Convention : Reuss Voigt Hill
#
# Bulk Modulus (GPa) = 32.22998 45.63821 38.93409
# Shear Modulus (GPa) = 18.80333 23.83771 21.32052
#
# Velocity S-wave (km/s) = 3.12727 3.52112 3.33002
# Velocity P-wave (km/s) = 5.45921 6.34570 5.91908
#
# Compressibility (1/GPa) = 0.03102702
#
# Stress axis : x y z
#
# Youngs Moduli (GPa) = 29.20860 50.01632 77.85663
#
# Poissons Ratio (x) = 0.14529 0.79864
# Poissons Ratio (y) = 0.08484 0.37845
# Poissons Ratio (z) = 0.29962 0.24312
#
# Static dielectric constant tensor:
#      x y z
#    x 1.681700 0.000000 0.019060 
#    y 0.000000 1.692570 0.000000 
#    z 0.019060 0.000000 1.725380 
# 
# From -- ./inp_files/219736.got.cif
#   From: 2010.05.17/outbox.cif.g08.bks.cpg/sg15_110_cif.got.tgz:219736.got - 2010.06.03 18:47:42.
