data_PCOD9266060
_publ_section_title
;
Structure prediction by ZEFSAII (Michael W. Deem and Ramdas Pophale) SiO2 
 PCOD9266060
Probable space group: C 2/C
;
_chemical_formula_sum "Si O2"
_cell_formula_units_Z 52
_cell_length_a 13.750153
_cell_length_b 20.274717
_cell_length_c 11.524192
_cell_angle_alpha 90.000000
_cell_angle_beta 123.725333
_cell_angle_gamma 90.000000
_cell_volume 2672.046868
_symmetry_space_group_name_H-M "C 2/C"
_symmetry_group_IT_number 15
_symmetry_cell_setting 'monoclinic'
loop_
_space_group_symop_operation_xyz
x,y,z
-x,y,1/2-z
-x,-y,-z
x,-y,1/2+z
1/2+x,1/2+y,z
1/2-x,1/2+y,1/2-z
1/2-x,1/2-y,-z
1/2+x,1/2-y,1/2+z
loop_
_atom_site_type_symbol
_atom_site_label
_atom_site_fract_x
_atom_site_fract_y
_atom_site_fract_z
Si Si1 0.002830 0.122307 0.506059
Si Si2 0.864308 0.557391 0.683446
Si Si3 0.169850 0.962603 0.456093
Si Si4 0.359477 0.796081 0.087690
Si Si5 0.000000 0.937095 0.750000
Si Si6 0.747877 0.626599 0.808429
Si Si7 0.425332 0.762288 0.393367
O O1 0.928833 0.065481 0.522058
O O2 0.934815 0.191659 0.458973
O O3 0.012187 0.103659 0.376388
O O4 0.129356 0.130972 0.651577
O O5 0.774972 0.500701 0.587643
O O6 0.840063 0.626416 0.598998
O O7 0.834627 0.577547 0.795771
O O8 0.000000 0.541360 0.750000
O O9 0.213573 0.902494 0.408480
O O10 0.110803 0.014293 0.327932
O O11 0.401587 0.766396 0.239557
O O12 0.442383 0.790457 0.029530
O O13 0.250000 0.750000 0.000000
O O14 0.822297 0.692839 0.873967
#
# Coordination Sequence:
#
# PCOD9266060 Si02
#       7
#     8   8   8   8   4   8   8
#     4  12  24  41  65  98 128 161 223 270 317 383
#     4  11  22  42  61  93 133 163 213 267 321 382
#     4  12  25  41  66  93 130 177 213 257 322 389
#     4  10  19  37  59  92 123 159 213 266 317 367
#     4  12  22  40  66  98 122 162 216 278 320 366
#     4  11  22  44  64  90 134 168 212 267 317 388
#     4  10  21  36  60  90 122 164 205 260 324 365
#
# _framework density 19.460736000000001
#
# number of rings (size 3 to 8) (size 9 to 14) (size 15 to 20)
#    0.000    0.923    6.154    4.154    2.154    1.231 
#    0.000    1.538    0.000    0.000    0.000    0.000 
#    0.000    0.000    0.000    0.000    0.000    0.000 
#
# Total GULP energy -144924.099776 kJ/mol
# GULP energy per Si atom -5574.003838 kJ/mol
# Density = 1.941644 g / cm^3
# Si number density = 19.460736 Si / 1000 Ang^3
#
#
#
# Elastic Constant Matrix: (Units=GPa)
#
#
# Indices 1 2 3 4 5 6 
#
# 1 88.6040 35.8778 29.5849 0.0000 23.1134 0.0000
# 2 35.8778 70.9130 38.7563 0.0000 17.3940 0.0000
# 3 29.5849 38.7563 35.4858 0.0000 10.3354 0.0000
# 4 0.0000 0.0000 0.0000 26.0644 0.0000 -14.3411
# 5 23.1134 17.3940 10.3354 0.0000 30.9485 0.0000
# 6 0.0000 0.0000 0.0000 -14.3411 0.0000 96.7290
#
#
#
# Elastic Compliance Matrix: (Units=1/GPa)
#
#
# Indices 1 2 3 4 5 6 
#
# 1 0.017727 -0.000259 -0.011834 0.000000 -0.009142 0.000000
# 2 -0.000259 0.036701 -0.037570 0.000000 -0.007887 0.000000
# 3 -0.011834 -0.037570 0.077935 0.000000 0.003927 0.000000
# 4 0.000000 0.000000 0.000000 0.041774 0.000000 0.006193
# 5 -0.009142 -0.007887 0.003927 0.000000 0.042260 0.000000
# 6 0.000000 0.000000 0.000000 0.006193 0.000000 0.011256
#
#
# Mechanical properties :
#
#
# Convention : Reuss Voigt Hill
#
# Bulk Modulus (GPa) = 30.26897 44.82677 37.54787
# Shear Modulus (GPa) = 14.79326 36.80063 25.79694
#
# Velocity S-wave (km/s) = 2.76009 4.35330 3.64481
# Velocity P-wave (km/s) = 5.07396 6.95362 6.08678
#
# Compressibility (1/GPa) = 0.03303713
#
# Stress axis : x y z
#
# Youngs Moduli (GPa) = 56.41088 27.24756 12.83118
#
# Poissons Ratio (x) = 0.00706 0.15184
# Poissons Ratio (y) = 0.01461 0.48207
# Poissons Ratio (z) = 0.66756 1.02369
#
# Static dielectric constant tensor:
#      x y z
#    x 1.802510 0.000000 0.084690 
#    y 0.000000 1.689200 0.000000 
#    z 0.084690 0.000000 1.735460 
# 
# From -- ./inp_files/89730.got.cif
#   From: 2010.05.17/outbox.cif.g08.bks.cpg/sg15_45_cif.got.tgz:89730.got - 2010.06.03 18:47:42.
