data_PCOD9266088
_publ_section_title
;
Structure prediction by ZEFSAII (Michael W. Deem and Ramdas Pophale) SiO2 
 PCOD9266088
Probable space group: C 2/C
;
_chemical_formula_sum "Si O2"
_cell_formula_units_Z 52
_cell_length_a 7.169757
_cell_length_b 16.283094
_cell_length_c 27.014924
_cell_angle_alpha 90.000000
_cell_angle_beta 48.849857
_cell_angle_gamma 90.000000
_cell_volume 2374.832882
_symmetry_space_group_name_H-M "C 2/C"
_symmetry_group_IT_number 15
_symmetry_cell_setting 'monoclinic'
loop_
_space_group_symop_operation_xyz
x,y,z
-x,y,1/2-z
-x,-y,-z
x,-y,1/2+z
1/2+x,1/2+y,z
1/2-x,1/2+y,1/2-z
1/2-x,1/2-y,-z
1/2+x,1/2-y,1/2+z
loop_
_atom_site_type_symbol
_atom_site_label
_atom_site_fract_x
_atom_site_fract_y
_atom_site_fract_z
Si Si1 0.295501 0.821368 0.887384
Si Si2 0.500000 0.863922 0.750000
Si Si3 0.234981 0.010307 0.745138
Si Si4 0.727859 0.183250 0.960802
Si Si5 0.463137 0.999904 0.897440
Si Si6 0.801837 0.111690 0.480473
Si Si7 0.064944 0.028651 0.612800
O O1 0.350717 0.820502 0.819508
O O2 0.372607 0.731948 0.892336
O O3 0.404314 0.903455 0.895920
O O4 0.006549 0.820021 0.953668
O O5 0.312047 0.921424 0.752222
O O6 0.456730 0.036888 0.669959
O O7 0.000000 0.006385 0.750000
O O8 0.150149 0.052239 0.811005
O O9 0.874547 0.097852 0.937867
O O10 0.750000 0.250000 0.000000
O O11 0.449781 0.149761 0.997892
O O12 0.696321 0.009925 0.893939
O O13 0.263133 0.054812 0.961171
O O14 0.953824 0.054582 0.415044
#
# Coordination Sequence:
#
# PCOD9266088 Si02
#       7
#     8   4   8   8   8   8   8
#     4  11  21  37  58  87 119 154 189 250 306 353
#     4  10  20  38  60  90 120 150 204 242 298 368
#     4   9  18  35  59  88 114 152 198 249 292 350
#     4  11  23  38  56  85 123 155 193 245 307 358
#     4   9  19  33  58  88 110 148 198 241 292 352
#     4  11  20  36  61  87 111 152 201 243 288 350
#     4  10  19  37  60  84 111 155 199 243 286 357
#
# _framework density 21.896277000000001
#
# number of rings (size 3 to 8) (size 9 to 14) (size 15 to 20)
#    0.000    1.846    1.538    4.615    0.000    0.000 
#    6.923    0.000    0.000    0.000    0.000    0.000 
#    0.000    0.000    0.000    0.000    0.000    0.000 
#
# Total GULP energy -144743.500405 kJ/mol
# GULP energy per Si atom -5567.057708 kJ/mol
# Density = 2.184644 g / cm^3
# Si number density = 21.896277 Si / 1000 Ang^3
#
#
#
# Elastic Constant Matrix: (Units=GPa)
#
#
# Indices 1 2 3 4 5 6 
#
# 1 46.2706 8.3807 10.9745 -0.0002 13.4256 -0.0007
# 2 8.3807 71.1163 26.1906 -0.0032 5.5140 0.0002
# 3 10.9745 26.1906 139.4774 -0.0020 11.7843 0.0006
# 4 -0.0002 -0.0032 -0.0020 37.5272 -0.0023 8.8536
# 5 13.4256 5.5140 11.7843 -0.0023 27.8876 0.0000
# 6 -0.0007 0.0002 0.0006 8.8536 0.0000 22.0108
#
#
#
# Elastic Compliance Matrix: (Units=1/GPa)
#
#
# Indices 1 2 3 4 5 6 
#
# 1 0.025478 -0.001853 -0.000675 -0.000001 -0.011614 0.000001
# 2 -0.001853 0.015334 -0.002647 0.000001 -0.001021 -0.000001
# 3 -0.000675 -0.002647 0.007931 0.000000 -0.002503 0.000000
# 4 -0.000001 0.000001 0.000000 0.029441 0.000003 -0.011842
# 5 -0.011614 -0.001021 -0.002503 0.000003 0.042709 -0.000001
# 6 0.000001 -0.000001 0.000000 -0.011842 -0.000001 0.050196
#
#
# Mechanical properties :
#
#
# Convention : Reuss Voigt Hill
#
# Bulk Modulus (GPa) = 26.04777 38.66178 32.35478
# Shear Modulus (GPa) = 25.74169 31.57302 28.65735
#
# Velocity S-wave (km/s) = 3.43245 3.80140 3.62163
# Velocity P-wave (km/s) = 5.25650 6.07969 5.68302
#
# Compressibility (1/GPa) = 0.03839100
#
# Stress axis : x y z
#
# Youngs Moduli (GPa) = 39.25022 65.21473 126.08222
#
# Poissons Ratio (x) = 0.12086 0.08516
# Poissons Ratio (y) = 0.07274 0.33377
# Poissons Ratio (z) = 0.02651 0.17264
#
# Static dielectric constant tensor:
#      x y z
#    x 2.059250 0.000000 -0.107230 
#    y 0.000000 1.765290 0.000000 
#    z -0.107230 0.000000 1.953070 
# 
# From -- ./inp_files/288601.got.cif
#   From: 2010.05.17/outbox.cif.g08.bks.cpg/sg15_145_cif.got.tgz:288601.got - 2010.06.03 18:47:42.
