data_PCOD9266126
_publ_section_title
;
Structure prediction by ZEFSAII (Michael W. Deem and Ramdas Pophale) SiO2 
 PCOD9266126
Probable space group: C 2/C
;
_chemical_formula_sum "Si O2"
_cell_formula_units_Z 52
_cell_length_a 15.693762
_cell_length_b 8.420116
_cell_length_c 27.588421
_cell_angle_alpha 90.000000
_cell_angle_beta 39.266383
_cell_angle_gamma 90.000000
_cell_volume 2307.413446
_symmetry_space_group_name_H-M "C 2/C"
_symmetry_group_IT_number 15
_symmetry_cell_setting 'monoclinic'
loop_
_space_group_symop_operation_xyz
x,y,z
-x,y,1/2-z
-x,-y,-z
x,-y,1/2+z
1/2+x,1/2+y,z
1/2-x,1/2+y,1/2-z
1/2-x,1/2-y,-z
1/2+x,1/2-y,1/2+z
loop_
_atom_site_type_symbol
_atom_site_label
_atom_site_fract_x
_atom_site_fract_y
_atom_site_fract_z
Si Si1 0.659998 0.012300 0.827310
Si Si2 0.804154 0.469986 0.798798
Si Si3 0.511657 0.665411 0.424816
Si Si4 0.618487 0.439043 0.613156
Si Si5 0.939281 0.157081 0.730839
Si Si6 0.500000 0.229187 0.750000
Si Si7 0.386501 0.134469 0.054526
O O1 0.640283 0.962825 0.781001
O O2 0.648261 0.875844 0.873136
O O3 0.569176 0.163935 0.880706
O O4 0.812526 0.073397 0.762743
O O5 0.643769 0.446085 0.869670
O O6 0.873074 0.308048 0.786501
O O7 0.869590 0.617371 0.797389
O O8 0.403369 0.610266 0.432789
O O9 0.444531 0.704733 0.505996
O O10 0.561989 0.621071 0.640733
O O11 0.528941 0.317056 0.685801
O O12 0.762913 0.421250 0.574841
O O13 0.000000 0.065763 0.750000
O O14 0.500000 0.000000 0.000000
#
# Coordination Sequence:
#
# PCOD9266126 Si02
#       7
#     8   8   8   8   8   4   8
#     4  10  19  37  60  88 117 159 203 249 297 361
#     4  11  23  38  62  93 126 153 202 258 308 356
#     4  10  22  38  62  88 121 158 201 244 303 360
#     4  12  21  38  63  90 119 160 205 247 303 363
#     4  11  20  35  61  91 117 159 202 253 304 356
#     4  12  24  38  66  94 126 152 200 262 304 354
#     4  10  22  38  62  87 123 162 205 247 297 365
#
# _framework density 22.536055999999999
#
# number of rings (size 3 to 8) (size 9 to 14) (size 15 to 20)
#    0.000    1.231    6.154    0.462    0.000    0.000 
#    0.000    0.769    3.385    2.769    0.000    0.000 
#    0.000    0.000    0.000    0.000    0.000    0.000 
#
# Total GULP energy -144822.161895 kJ/mol
# GULP energy per Si atom -5570.083150 kJ/mol
# Density = 2.248476 g / cm^3
# Si number density = 22.536056 Si / 1000 Ang^3
#
#
#
# Elastic Constant Matrix: (Units=GPa)
#
#
# Indices 1 2 3 4 5 6 
#
# 1 65.9816 -8.7985 -0.5430 0.0000 -3.8880 0.0000
# 2 -8.7985 29.7664 3.0924 0.0002 0.7345 -0.0005
# 3 -0.5430 3.0924 41.2448 0.0000 -11.1200 -0.0001
# 4 0.0000 0.0002 0.0000 30.8335 0.0000 -17.1937
# 5 -3.8880 0.7345 -11.1200 0.0000 36.6964 0.0000
# 6 0.0000 -0.0005 -0.0001 -17.1937 0.0000 -47.7037
#
#
#
# Elastic Compliance Matrix: (Units=1/GPa)
#
#
# Indices 1 2 3 4 5 6 
#
# 1 0.015873 0.004617 0.000317 0.000000 0.001686 0.000000
# 2 0.004617 0.035286 -0.002878 0.000000 -0.001089 0.000000
# 3 0.000317 -0.002878 0.026669 0.000000 0.008173 0.000000
# 4 0.000000 0.000000 0.000000 0.027005 0.000000 -0.009733
# 5 0.001686 -0.001089 0.008173 0.000000 0.029928 0.000000
# 6 0.000000 0.000000 0.000000 -0.009733 0.000000 -0.017455
#
#
# Mechanical properties :
#
#
# Convention : Reuss Voigt Hill
#
# Bulk Modulus (GPa) = 12.20401 13.83271 13.01836
# Shear Modulus (GPa) = 35.58552 13.51469 24.55011
#
# Velocity S-wave (km/s) = 3.97803 2.45152 3.30414
# Velocity P-wave (km/s) = 5.15041 3.76359 4.51062
#
# Compressibility (1/GPa) = 0.08194029
#
# Stress axis : x y z
#
# Youngs Moduli (GPa) = 62.99847 28.34014 37.49693
#
# Poissons Ratio (x) = -0.13086 -0.01189
# Poissons Ratio (y) = -0.29089 0.10793
# Poissons Ratio (z) = -0.01998 0.08158
#
# Static dielectric constant tensor:
#      x y z
#    x 1.808420 0.000000 0.073180 
#    y 0.000000 1.898910 0.000000 
#    z 0.073180 0.000000 2.067140 
# 
# From -- ./inp_files/313077.got.cif
#   From: 2010.05.17/outbox.cif.g08.bks.cpg/sg15_157_cif.got.tgz:313077.got - 2010.06.03 18:47:42.
