data_PCOD9266343
_publ_section_title
;
Structure prediction by ZEFSAII (Michael W. Deem and Ramdas Pophale) SiO2 
 PCOD9266343
Probable space group: C 2/C
;
_chemical_formula_sum "Si O2"
_cell_formula_units_Z 56
_cell_length_a 24.459229
_cell_length_b 9.421525
_cell_length_c 17.141744
_cell_angle_alpha 90.000000
_cell_angle_beta 135.516734
_cell_angle_gamma 90.000000
_cell_volume 2767.908062
_symmetry_space_group_name_H-M "C 2/C"
_symmetry_group_IT_number 15
_symmetry_cell_setting 'monoclinic'
loop_
_space_group_symop_operation_xyz
x,y,z
-x,y,1/2-z
-x,-y,-z
x,-y,1/2+z
1/2+x,1/2+y,z
1/2-x,1/2+y,1/2-z
1/2-x,1/2-y,-z
1/2+x,1/2-y,1/2+z
loop_
_atom_site_type_symbol
_atom_site_label
_atom_site_fract_x
_atom_site_fract_y
_atom_site_fract_z
Si Si1 0.816796 0.125002 0.750006
Si Si2 0.361659 0.859753 0.405556
Si Si3 0.293898 0.609759 0.905555
Si Si4 0.416149 0.724109 0.144617
Si Si5 0.859397 0.565687 0.269523
Si Si6 0.839876 0.184309 0.230484
Si Si7 0.021536 0.525899 0.355383
O O1 0.724670 0.160693 0.648270
O O2 0.826409 0.089309 0.851742
O O3 0.860678 0.265777 0.769157
O O4 0.841524 0.984227 0.730851
O O5 0.374376 0.749074 0.346701
O O6 0.359375 0.010590 0.358342
O O7 0.425270 0.874738 0.536831
O O8 0.222324 0.499078 0.846693
O O9 0.248966 0.760595 0.858332
O O10 0.361557 0.624748 0.036830
O O11 0.500000 0.659052 0.250000
O O12 0.375305 0.743382 0.186650
O O13 0.435741 0.875006 0.121488
O O14 0.938659 0.506616 0.313351
O O15 0.000000 0.590960 0.250000
#
# Coordination Sequence:
#
# PCOD9266343 Si02
#       7
#     8   8   8   8   8   8   8
#     4  10  20  38  61  90 121 162 204 252 314 374
#     4  10  19  37  63  89 118 157 206 258 302 365
#     4  10  19  37  63  89 118 157 206 258 302 365
#     4  11  22  38  60  90 121 160 212 262 306 366
#     4  10  21  38  62  90 121 161 205 253 311 372
#     4  10  21  38  62  90 121 161 205 253 311 372
#     4  11  22  38  60  90 121 160 212 262 306 366
#
# _framework density 20.231884999999998
#
# number of rings (size 3 to 8) (size 9 to 14) (size 15 to 20)
#    0.000    2.000    0.000    9.429    0.000    2.286 
#    0.000    9.286    0.000    0.000    0.000    0.000 
#    0.000    0.000    0.000    0.000    0.000    0.000 
#
# Total GULP energy -156118.557273 kJ/mol
# GULP energy per Si atom -5575.662760 kJ/mol
# Density = 2.018584 g / cm^3
# Si number density = 20.231885 Si / 1000 Ang^3
#
#
#
# Elastic Constant Matrix: (Units=GPa)
#
#
# Indices 1 2 3 4 5 6 
#
# 1 85.6401 16.6039 26.0103 0.0000 -10.2314 0.0000
# 2 16.6039 100.9394 0.6472 0.0000 -2.9974 0.0000
# 3 26.0103 0.6472 142.1241 0.0000 20.8266 0.0000
# 4 0.0000 0.0000 0.0000 11.3889 0.0000 1.1963
# 5 -10.2314 -2.9974 20.8266 0.0000 8.4275 0.0000
# 6 0.0000 0.0000 0.0000 1.1963 0.0000 5.0173
#
#
#
# Elastic Compliance Matrix: (Units=1/GPa)
#
#
# Indices 1 2 3 4 5 6 
#
# 1 0.022998 -0.001950 -0.012839 0.000000 0.058956 0.000000
# 2 -0.001950 0.010250 0.000193 0.000000 0.000802 0.000000
# 3 -0.012839 0.000193 0.018278 0.000000 -0.060689 0.000000
# 4 0.000000 0.000000 0.000000 0.090061 0.000000 -0.021474
# 5 0.058956 0.000802 -0.060689 0.000000 0.340497 0.000000
# 6 0.000000 0.000000 0.000000 -0.021474 0.000000 0.204429
#
#
# Mechanical properties :
#
#
# Convention : Reuss Voigt Hill
#
# Bulk Modulus (GPa) = 44.77667 46.13626 45.45646
# Shear Modulus (GPa) = 6.91419 23.99623 15.45521
#
# Velocity S-wave (km/s) = 1.85065 3.44766 2.76688
# Velocity P-wave (km/s) = 5.17168 6.22107 5.72049
#
# Compressibility (1/GPa) = 0.02233306
#
# Stress axis : x y z
#
# Youngs Moduli (GPa) = 43.48250 97.55831 54.70998
#
# Poissons Ratio (x) = 0.19024 0.70243
# Poissons Ratio (y) = 0.08479 -0.01054
# Poissons Ratio (z) = 0.55828 -0.01879
#
# Static dielectric constant tensor:
#      x y z
#    x 1.794390 0.000000 -0.011480 
#    y 0.000000 1.747670 0.000000 
#    z -0.011480 0.000000 1.733290 
# 
# From -- ./inp_files/172500.got.cif
#   From: 2010.05.17/outbox.cif.g08.bks.cpg/sg15_87_cif.got.tgz:172500.got - 2010.06.03 18:47:42.
