data_PCOD9266469
_publ_section_title
;
Structure prediction by ZEFSAII (Michael W. Deem and Ramdas Pophale) SiO2 
 PCOD9266469
Probable space group: C 2/C
;
_chemical_formula_sum "Si O2"
_cell_formula_units_Z 52
_cell_length_a 9.031964
_cell_length_b 15.209681
_cell_length_c 17.956362
_cell_angle_alpha 90.000000
_cell_angle_beta 53.202936
_cell_angle_gamma 90.000000
_cell_volume 1975.259443
_symmetry_space_group_name_H-M "C 2/C"
_symmetry_group_IT_number 15
_symmetry_cell_setting 'monoclinic'
loop_
_space_group_symop_operation_xyz
x,y,z
-x,y,1/2-z
-x,-y,-z
x,-y,1/2+z
1/2+x,1/2+y,z
1/2-x,1/2+y,1/2-z
1/2-x,1/2-y,-z
1/2+x,1/2-y,1/2+z
loop_
_atom_site_type_symbol
_atom_site_label
_atom_site_fract_x
_atom_site_fract_y
_atom_site_fract_z
Si Si1 0.343337 0.896807 0.954433
Si Si2 0.516923 0.392297 0.944047
Si Si3 0.016077 0.958845 0.157974
Si Si4 0.984877 0.700494 0.534419
Si Si5 0.500000 0.215859 0.750000
Si Si6 0.863911 0.426077 0.409522
Si Si7 0.827765 0.220939 0.752449
O O1 0.443537 0.813565 0.959855
O O2 0.214690 0.938251 0.059237
O O3 0.200557 0.871108 0.934002
O O4 0.457359 0.978421 0.885655
O O5 0.552862 0.453038 0.862729
O O6 0.437965 0.293319 0.961930
O O7 0.353451 0.440417 0.038765
O O8 0.000000 0.977717 0.250000
O O9 0.906000 0.865659 0.186725
O O10 0.802930 0.690081 0.640162
O O11 0.110215 0.617780 0.517843
O O12 0.571936 0.147241 0.666504
O O13 0.676653 0.262263 0.738589
O O14 0.000000 0.261939 0.750000
#
# Coordination Sequence:
#
# PCOD9266469 Si02
#       7
#     8   8   8   8   4   8   8
#     4  11  20  39  67  91 119 173 213 254 318 397
#     4  11  23  38  64  98 124 164 215 272 321 384
#     4  10  19  39  68  86 124 172 221 255 316 393
#     4  11  22  38  62  94 130 163 209 267 334 377
#     4  10  20  36  62  94 120 166 218 278 310 382
#     4  10  22  38  64  89 125 168 218 255 320 391
#     4  10  19  37  65  87 125 173 220 255 320 395
#
# _framework density 26.325655999999999
#
# number of rings (size 3 to 8) (size 9 to 14) (size 15 to 20)
#    0.000    1.538    3.077    5.077    0.000    0.000 
#    5.538    0.000   13.538    0.000    0.000    0.000 
#    0.000    0.000    0.000    0.000    0.000    0.000 
#
# Total GULP energy -144948.530554 kJ/mol
# GULP energy per Si atom -5574.943483 kJ/mol
# Density = 2.626574 g / cm^3
# Si number density = 26.325656 Si / 1000 Ang^3
#
#
#
# Elastic Constant Matrix: (Units=GPa)
#
#
# Indices 1 2 3 4 5 6 
#
# 1 137.3548 15.5285 20.2941 0.0001 17.5095 -0.0001
# 2 15.5285 92.6086 12.6359 0.0001 4.6173 -0.0001
# 3 20.2941 12.6359 62.6362 0.0001 6.1217 -0.0002
# 4 0.0001 0.0001 0.0001 21.9865 -0.0001 -13.7227
# 5 17.5095 4.6173 6.1217 -0.0001 37.5436 0.0001
# 6 -0.0001 -0.0001 -0.0002 -13.7227 0.0001 21.1942
#
#
#
# Elastic Compliance Matrix: (Units=1/GPa)
#
#
# Indices 1 2 3 4 5 6 
#
# 1 0.008121 -0.000906 -0.002123 0.000000 -0.003330 0.000000
# 2 -0.000906 0.011243 -0.001911 0.000000 -0.000649 0.000000
# 3 -0.002123 -0.001911 0.017193 0.000000 -0.001578 0.000000
# 4 0.000000 0.000000 0.000000 0.076327 0.000000 0.049420
# 5 -0.003330 -0.000649 -0.001578 0.000000 0.028526 0.000000
# 6 0.000000 0.000000 0.000000 0.049420 0.000000 0.079181
#
#
# Mechanical properties :
#
#
# Convention : Reuss Voigt Hill
#
# Bulk Modulus (GPa) = 37.48605 43.27963 40.38284
# Shear Modulus (GPa) = 20.88875 32.42093 26.65484
#
# Velocity S-wave (km/s) = 2.81992 3.51313 3.18544
# Velocity P-wave (km/s) = 4.98727 5.73863 5.37609
#
# Compressibility (1/GPa) = 0.02667659
#
# Stress axis : x y z
#
# Youngs Moduli (GPa) = 123.13763 88.94289 58.16374
#
# Poissons Ratio (x) = 0.08059 0.12348
# Poissons Ratio (y) = 0.11157 0.11116
# Poissons Ratio (z) = 0.26142 0.16999
#
# Static dielectric constant tensor:
#      x y z
#    x 2.255490 0.000000 0.037910 
#    y 0.000000 2.151920 0.000000 
#    z 0.037910 0.000000 2.069030 
# 
# From -- ./inp_files/190341.got.cif
#   From: 2010.05.17/outbox.cif.g08.bks.cpg/sg15_96_cif.got.tgz:190341.got - 2010.06.03 18:47:42.
