data_PCOD9266433
_publ_section_title
;
Structure prediction by ZEFSAII (Michael W. Deem and Ramdas Pophale) SiO2 
 PCOD9266433
Probable space group: C 2/C
;
_chemical_formula_sum "Si O2"
_cell_formula_units_Z 64
_cell_length_a 11.911421
_cell_length_b 13.667540
_cell_length_c 18.728936
_cell_angle_alpha 90.000000
_cell_angle_beta 67.376301
_cell_angle_gamma 90.000000
_cell_volume 2814.445333
_symmetry_space_group_name_H-M "C 2/C"
_symmetry_group_IT_number 15
_symmetry_cell_setting 'monoclinic'
loop_
_space_group_symop_operation_xyz
x,y,z
-x,y,1/2-z
-x,-y,-z
x,-y,1/2+z
1/2+x,1/2+y,z
1/2-x,1/2+y,1/2-z
1/2-x,1/2-y,-z
1/2+x,1/2-y,1/2+z
loop_
_atom_site_type_symbol
_atom_site_label
_atom_site_fract_x
_atom_site_fract_y
_atom_site_fract_z
Si Si1 0.705237 0.911401 0.868768
Si Si2 0.621976 0.719483 0.265716
Si Si3 0.872901 0.446528 0.238936
Si Si4 0.071395 0.041061 0.662695
Si Si5 0.921092 0.264773 0.835462
Si Si6 0.550780 0.755851 0.953850
Si Si7 0.655168 0.654612 0.412546
Si Si8 0.141474 0.053108 0.900232
O O1 0.769697 0.823750 0.808452
O O2 0.642099 0.981356 0.824986
O O3 0.812804 0.973834 0.877983
O O4 0.620887 0.857432 0.947401
O O5 0.500000 0.714411 0.250000
O O6 0.616509 0.657498 0.339225
O O7 0.637980 0.833078 0.282015
O O8 0.761450 0.458237 0.321871
O O9 0.000000 0.459711 0.250000
O O10 0.000000 0.003654 0.750000
O O11 0.974895 0.049923 0.623393
O O12 0.112111 0.151568 0.671404
O O13 0.796592 0.320054 0.880102
O O14 0.000000 0.302590 0.750000
O O15 0.005353 0.266079 0.883748
O O16 0.633864 0.658275 0.940269
O O17 0.430251 0.732691 0.027903
O O18 0.635817 0.545799 0.447656
#
# Coordination Sequence:
#
# PCOD9266433 Si02
#       8
#     8   8   8   8   8   8   8   8
#     4  12  21  39  66  93 125 165 222 268 317 384
#     4  11  23  41  66  93 125 166 220 270 316 384
#     4  11  24  39  63 100 127 160 220 282 321 369
#     4  10  19  37  64  94 120 162 217 272 313 373
#     4  10  23  40  68  96 125 170 227 270 312 385
#     4  11  26  41  61  98 138 170 212 270 332 397
#     4  12  23  41  68  95 135 174 212 266 341 386
#     4  11  22  41  64  91 131 171 221 267 322 390
#
# _framework density 22.739826000000001
#
# number of rings (size 3 to 8) (size 9 to 14) (size 15 to 20)
#    0.000    1.000    3.750    3.375    3.500    0.000 
#    0.000    5.000    5.500    0.000    0.000    0.000 
#    0.000    0.000    0.000    0.000    0.000    0.000 
#
# Total GULP energy -179091.421137 kJ/mol
# GULP energy per Si atom -5596.606911 kJ/mol
# Density = 2.268807 g / cm^3
# Si number density = 22.739826 Si / 1000 Ang^3
#
#
#
# Elastic Constant Matrix: (Units=GPa)
#
#
# Indices 1 2 3 4 5 6 
#
# 1 117.0233 36.2331 9.3791 0.0000 -17.6228 0.0000
# 2 36.2331 126.9241 -12.5573 0.0000 -13.4087 0.0000
# 3 9.3791 -12.5573 41.4245 0.0000 -18.3377 0.0000
# 4 0.0000 0.0000 0.0000 36.3735 0.0000 -36.8591
# 5 -17.6228 -13.4087 -18.3377 0.0000 19.0872 0.0000
# 6 0.0000 0.0000 0.0000 -36.8591 0.0000 114.2169
#
#
#
# Elastic Compliance Matrix: (Units=1/GPa)
#
#
# Indices 1 2 3 4 5 6 
#
# 1 0.010460 -0.001828 0.001365 0.000000 0.009685 0.000000
# 2 -0.001828 0.011391 0.011592 0.000000 0.017452 0.000000
# 3 0.001365 0.011592 0.054825 0.000000 0.062076 0.000000
# 4 0.000000 0.000000 0.000000 0.040852 0.000000 0.013183
# 5 0.009685 0.017452 0.062076 0.000000 0.133231 0.000000
# 6 0.000000 0.000000 0.000000 0.013183 0.000000 0.013010
#
#
# Mechanical properties :
#
#
# Convention : Reuss Voigt Hill
#
# Bulk Modulus (GPa) = 10.10765 39.05354 24.58060
# Shear Modulus (GPa) = 18.21565 50.75664 34.48614
#
# Velocity S-wave (km/s) = 2.83335 4.72959 3.89852
# Velocity P-wave (km/s) = 3.89337 6.85833 5.57652
#
# Compressibility (1/GPa) = 0.09893493
#
# Stress axis : x y z
#
# Youngs Moduli (GPa) = 95.59879 87.78783 18.23988
#
# Poissons Ratio (x) = 0.16047 -0.02489
# Poissons Ratio (y) = 0.17475 -0.21144
# Poissons Ratio (z) = -0.13047 -1.01767
#
# Static dielectric constant tensor:
#      x y z
#    x 1.831200 0.000000 -0.025820 
#    y 0.000000 1.934600 0.000000 
#    z -0.025820 0.000000 1.842980 
# 
# From -- ./inp_files/238740.got.cif
#   From: 2010.05.17/outbox.cif.g08.bks.cpg/sg15_120_cif.got.tgz:238740.got - 2010.06.03 18:47:42.
