data_PCOD9266793
_publ_section_title
;
Structure prediction by ZEFSAII (Michael W. Deem and Ramdas Pophale) SiO2 
 PCOD9266793
Probable space group: C 2/C
;
_chemical_formula_sum "Si O2"
_cell_formula_units_Z 52
_cell_length_a 24.748848
_cell_length_b 14.453296
_cell_length_c 16.763922
_cell_angle_alpha 90.000000
_cell_angle_beta 152.249413
_cell_angle_gamma 90.000000
_cell_volume 2792.109775
_symmetry_space_group_name_H-M "C 2/C"
_symmetry_group_IT_number 15
_symmetry_cell_setting 'monoclinic'
loop_
_space_group_symop_operation_xyz
x,y,z
-x,y,1/2-z
-x,-y,-z
x,-y,1/2+z
1/2+x,1/2+y,z
1/2-x,1/2+y,1/2-z
1/2-x,1/2-y,-z
1/2+x,1/2-y,1/2+z
loop_
_atom_site_type_symbol
_atom_site_label
_atom_site_fract_x
_atom_site_fract_y
_atom_site_fract_z
Si Si1 0.318707 0.692064 0.493961
Si Si2 0.893587 0.813607 0.911924
Si Si3 0.110507 0.448111 0.737068
Si Si4 0.000000 0.495115 0.250000
Si Si5 0.855764 0.143440 0.716296
Si Si6 0.368136 0.103548 0.848172
Si Si7 0.734123 0.020093 0.140878
O O1 0.378191 0.687021 0.486976
O O2 0.216043 0.618087 0.360642
O O3 0.255155 0.790819 0.414591
O O4 0.384752 0.666470 0.661645
O O5 0.851482 0.713220 0.826315
O O6 0.812744 0.894384 0.771232
O O7 0.031951 0.831972 0.083134
O O8 0.146608 0.550089 0.754538
O O9 0.064371 0.446533 0.766385
O O10 0.003215 0.411480 0.545554
O O11 0.109526 0.449113 0.439764
O O12 0.809564 0.041480 0.677550
O O13 0.298106 0.047106 0.825643
#
# Coordination Sequence:
#
# PCOD9266793 Si02
#       7
#     8   8   8   4   8   8   8
#     4  11  21  36  61  87 120 155 195 243 302 360
#     4  12  23  38  60  89 122 159 195 246 304 362
#     4  10  19  38  61  86 114 154 200 257 284 348
#     4  10  22  38  66  84 114 156 212 244 300 336
#     4  11  23  36  57  92 123 151 194 246 311 360
#     4  10  21  36  61  88 115 152 206 242 297 355
#     4  11  22  38  60  85 123 157 194 254 298 356
#
# _framework density 18.623909000000001
#
# number of rings (size 3 to 8) (size 9 to 14) (size 15 to 20)
#    0.000    1.231    6.154    0.923    0.000    0.000 
#    0.000    0.769    0.000    0.000    0.000    0.000 
#    0.000    0.000    0.000    0.000    0.000    0.000 
#
# Total GULP energy -144901.492559 kJ/mol
# GULP energy per Si atom -5573.134329 kJ/mol
# Density = 1.858152 g / cm^3
# Si number density = 18.623909 Si / 1000 Ang^3
#
#
#
# Elastic Constant Matrix: (Units=GPa)
#
#
# Indices 1 2 3 4 5 6 
#
# 1 65.6248 27.8907 7.7977 0.0000 -1.5677 0.0000
# 2 27.8907 145.3818 57.5621 0.0000 -0.1382 0.0000
# 3 7.7977 57.5621 55.6732 0.0000 7.4955 0.0000
# 4 0.0000 0.0000 0.0000 -11.2896 0.0000 -3.7340
# 5 -1.5677 -0.1382 7.4955 0.0000 11.7000 0.0000
# 6 0.0000 0.0000 0.0000 -3.7340 0.0000 11.9289
#
#
#
# Elastic Compliance Matrix: (Units=1/GPa)
#
#
# Indices 1 2 3 4 5 6 
#
# 1 0.016697 -0.003733 0.001342 0.000000 0.001334 0.000000
# 2 -0.003733 0.013327 -0.014457 0.000000 0.008919 0.000000
# 3 0.001342 -0.014457 0.035809 0.000000 -0.022932 0.000000
# 4 0.000000 0.000000 0.000000 -0.080267 0.000000 -0.025125
# 5 0.001334 0.008919 -0.022932 0.000000 0.100445 0.000000
# 6 0.000000 0.000000 0.000000 -0.025125 0.000000 0.075966
#
#
# Mechanical properties :
#
#
# Convention : Reuss Voigt Hill
#
# Bulk Modulus (GPa) = 31.11780 50.35343 40.73562
# Shear Modulus (GPa) = 24.22621 14.02980 19.12800
#
# Velocity S-wave (km/s) = 3.61059 2.74765 3.20827
# Velocity P-wave (km/s) = 5.84180 6.09605 5.97028
#
# Compressibility (1/GPa) = 0.03213595
#
# Stress axis : x y z
#
# Youngs Moduli (GPa) = 59.89023 75.03350 27.92561
#
# Poissons Ratio (x) = 0.28012 -0.03747
# Poissons Ratio (y) = 0.22358 0.40373
# Poissons Ratio (z) = -0.08035 1.08480
#
# Static dielectric constant tensor:
#      x y z
#    x 1.678890 0.000000 -0.023240 
#    y 0.000000 1.669790 0.000000 
#    z -0.023240 0.000000 1.675990 
# 
# From -- ./inp_files/96943.got.cif
#   From: 2010.05.17/outbox.cif.g08.bks.cpg/sg15_49_cif.got.tgz:96943.got - 2010.06.03 18:47:42.
