data_PCOD9266783
_publ_section_title
;
Structure prediction by ZEFSAII (Michael W. Deem and Ramdas Pophale) SiO2 
 PCOD9266783
Probable space group: C 2/C
;
_chemical_formula_sum "Si O2"
_cell_formula_units_Z 56
_cell_length_a 19.322922
_cell_length_b 10.598418
_cell_length_c 17.861346
_cell_angle_alpha 90.000000
_cell_angle_beta 48.295724
_cell_angle_gamma 90.000000
_cell_volume 2730.922301
_symmetry_space_group_name_H-M "C 2/C"
_symmetry_group_IT_number 15
_symmetry_cell_setting 'monoclinic'
loop_
_space_group_symop_operation_xyz
x,y,z
-x,y,1/2-z
-x,-y,-z
x,-y,1/2+z
1/2+x,1/2+y,z
1/2-x,1/2+y,1/2-z
1/2-x,1/2-y,-z
1/2+x,1/2-y,1/2+z
loop_
_atom_site_type_symbol
_atom_site_label
_atom_site_fract_x
_atom_site_fract_y
_atom_site_fract_z
Si Si1 0.901452 0.215897 0.543797
Si Si2 0.676646 0.550320 0.347557
Si Si3 0.052580 0.458800 0.637564
Si Si4 0.908500 0.736836 0.866885
Si Si5 0.370630 0.942967 0.190504
Si Si6 0.907505 0.298409 0.021771
Si Si7 0.301827 0.316271 0.813021
O O1 0.925387 0.215695 0.438552
O O2 0.807891 0.297915 0.617557
O O3 0.986097 0.271662 0.530234
O O4 0.875412 0.075901 0.589983
O O5 0.786916 0.531817 0.275317
O O6 0.644403 0.669795 0.418909
O O7 0.661813 0.577632 0.269714
O O8 0.110557 0.585484 0.614858
O O9 0.101137 0.348938 0.556066
O O10 0.000000 0.415145 0.750000
O O11 0.970425 0.508828 0.642715
O O12 0.830208 0.815368 0.879288
O O13 0.000000 0.750058 0.750000
O O14 0.370118 0.907816 0.103650
O O15 0.348957 0.811482 0.247642
#
# Coordination Sequence:
#
# PCOD9266783 Si02
#       7
#     8   8   8   8   8   8   8
#     4  11  22  38  65  88 123 161 204 247 298 369
#     4  10  23  39  59  91 123 155 202 249 306 361
#     4  11  21  37  63  87 121 155 208 245 293 356
#     4  11  20  37  61  92 118 156 206 256 296 343
#     4  10  19  38  61  84 117 158 202 250 287 362
#     4  11  22  38  61  89 117 161 201 245 304 358
#     4  10  20  37  59  92 124 155 202 253 301 348
#
# _framework density 20.505894000000001
#
# number of rings (size 3 to 8) (size 9 to 14) (size 15 to 20)
#    0.000    1.429    4.286    3.000    2.000    0.000 
#    0.000    2.857    0.000    0.000    0.000    0.000 
#    0.000    0.000    0.000    0.000    0.000    0.000 
#
# Total GULP energy -156419.369327 kJ/mol
# GULP energy per Si atom -5586.406047 kJ/mol
# Density = 2.045922 g / cm^3
# Si number density = 20.505894 Si / 1000 Ang^3
#
#
#
# Elastic Constant Matrix: (Units=GPa)
#
#
# Indices 1 2 3 4 5 6 
#
# 1 38.6164 33.7202 21.6914 0.0000 6.9181 0.0000
# 2 33.7202 79.9996 57.4078 0.0000 4.5763 0.0000
# 3 21.6914 57.4078 109.5614 0.0000 17.2596 0.0000
# 4 0.0000 0.0000 0.0000 28.8677 0.0000 10.7024
# 5 6.9181 4.5763 17.2596 0.0000 42.9970 0.0000
# 6 0.0000 0.0000 0.0000 10.7024 0.0000 12.9669
#
#
#
# Elastic Compliance Matrix: (Units=1/GPa)
#
#
# Indices 1 2 3 4 5 6 
#
# 1 0.042459 -0.019538 0.002754 0.000000 -0.005858 0.000000
# 2 -0.019538 0.029224 -0.012223 0.000000 0.004940 0.000000
# 3 0.002754 -0.012223 0.015854 0.000000 -0.005506 0.000000
# 4 0.000000 0.000000 0.000000 0.049914 0.000000 -0.041198
# 5 -0.005858 0.004940 -0.005506 0.000000 0.025884 0.000000
# 6 0.000000 0.000000 0.000000 -0.041198 0.000000 0.111123
#
#
# Mechanical properties :
#
#
# Convention : Reuss Voigt Hill
#
# Bulk Modulus (GPa) = 33.87125 50.42405 42.14765
# Shear Modulus (GPa) = 14.60658 24.65685 19.63171
#
# Velocity S-wave (km/s) = 2.67181 3.47137 3.09750
# Velocity P-wave (km/s) = 5.10605 6.38048 5.77851
#
# Compressibility (1/GPa) = 0.02952356
#
# Stress axis : x y z
#
# Youngs Moduli (GPa) = 23.55229 34.21886 63.07628
#
# Poissons Ratio (x) = 0.66856 -0.17371
# Poissons Ratio (y) = 0.46016 0.77095
# Poissons Ratio (z) = -0.06486 0.41824
#
# Static dielectric constant tensor:
#      x y z
#    x 1.781960 0.000000 0.004790 
#    y 0.000000 1.726410 0.000000 
#    z 0.004790 0.000000 1.762700 
# 
# From -- ./inp_files/210553.got.cif
#   From: 2010.05.17/outbox.cif.g08.bks.cpg/sg15_106_cif.got.tgz:210553.got - 2010.06.03 18:47:42.
