data_PCOD9266595
_publ_section_title
;
Structure prediction by ZEFSAII (Michael W. Deem and Ramdas Pophale) SiO2 
 PCOD9266595
Probable space group: C 2/C
;
_chemical_formula_sum "Si O2"
_cell_formula_units_Z 48
_cell_length_a 9.385566
_cell_length_b 18.378027
_cell_length_c 12.282232
_cell_angle_alpha 90.000000
_cell_angle_beta 82.762402
_cell_angle_gamma 90.000000
_cell_volume 2101.659898
_symmetry_space_group_name_H-M "C 2/C"
_symmetry_group_IT_number 15
_symmetry_cell_setting 'monoclinic'
loop_
_space_group_symop_operation_xyz
x,y,z
-x,y,1/2-z
-x,-y,-z
x,-y,1/2+z
1/2+x,1/2+y,z
1/2-x,1/2+y,1/2-z
1/2-x,1/2-y,-z
1/2+x,1/2-y,1/2+z
loop_
_atom_site_type_symbol
_atom_site_label
_atom_site_fract_x
_atom_site_fract_y
_atom_site_fract_z
Si Si1 0.742797 0.266431 0.731726
Si Si2 0.500000 0.505815 0.750000
Si Si3 0.086995 0.388856 0.029079
Si Si4 0.505571 0.263303 0.931107
Si Si5 0.500000 0.959418 0.250000
Si Si6 0.394774 0.634499 0.610416
Si Si7 0.296195 0.930853 0.697145
O O1 0.649446 0.255307 0.848757
O O2 0.626885 0.269273 0.642609
O O3 0.848153 0.198957 0.698695
O O4 0.807102 0.347224 0.730672
O O5 0.451026 0.561822 0.660798
O O6 0.631507 0.454952 0.699901
O O7 0.029423 0.309981 0.999879
O O8 0.992536 0.411960 0.141934
O O9 0.247288 0.380652 0.060747
O O10 0.109092 0.438272 0.921792
O O11 0.502927 0.330797 0.012696
O O12 0.635683 0.012128 0.226478
#
# Coordination Sequence:
#
# PCOD9266595 Si02
#       7
#     8   4   8   8   4   8   8
#     4  10  20  39  66  97 128 171 228 269 326 400
#     4  12  28  41  67 104 144 170 214 288 352 381
#     4  11  21  44  69  92 129 178 230 265 329 405
#     4  10  19  37  72  94 122 174 227 266 323 405
#     4  12  26  43  65  94 134 180 220 272 334 397
#     4  11  21  43  65  97 132 173 220 282 327 394
#     4  12  25  43  67  99 137 177 220 274 339 405
#
# _framework density 22.839092000000001
#
# number of rings (size 3 to 8) (size 9 to 14) (size 15 to 20)
#    0.000    1.000    5.000    4.500    0.000    2.667 
#    0.000    0.833    0.000    0.000    0.000    0.000 
#    0.000    0.000    0.000    0.000    0.000    0.000 
#
# Total GULP energy -134212.174447 kJ/mol
# GULP energy per Si atom -5592.173935 kJ/mol
# Density = 2.278711 g / cm^3
# Si number density = 22.839092 Si / 1000 Ang^3
#
#
#
# Elastic Constant Matrix: (Units=GPa)
#
#
# Indices 1 2 3 4 5 6 
#
# 1 40.8100 4.8168 8.0209 0.0000 -11.3946 0.0000
# 2 4.8168 80.6332 12.5082 0.0000 -0.5847 0.0000
# 3 8.0209 12.5082 71.9089 0.0000 -22.0023 0.0000
# 4 0.0000 0.0000 0.0000 32.2701 0.0000 -1.1486
# 5 -11.3946 -0.5847 -22.0023 0.0000 20.9616 0.0000
# 6 0.0000 0.0000 0.0000 -1.1486 0.0000 -2.1257
#
#
#
# Elastic Compliance Matrix: (Units=1/GPa)
#
#
# Indices 1 2 3 4 5 6 
#
# 1 0.029486 -0.002071 0.002884 0.000000 0.018998 0.000000
# 2 -0.002071 0.013012 -0.003338 0.000000 -0.004266 0.000000
# 3 0.002884 -0.003338 0.021532 0.000000 0.024076 0.000000
# 4 0.000000 0.000000 0.000000 0.030404 0.000000 -0.016429
# 5 0.018998 -0.004266 0.024076 0.000000 0.083186 0.000000
# 6 0.000000 0.000000 0.000000 -0.016429 0.000000 -0.461559
#
#
# Mechanical properties :
#
#
# Convention : Reuss Voigt Hill
#
# Bulk Modulus (GPa) = 16.95468 27.11600 22.03534
# Shear Modulus (GPa) = -19.28786 21.42161 1.06688
#
# Velocity S-wave (km/s) = -2.90920 3.06590 0.68421
# Velocity P-wave (km/s) = 1.96085 4.94281 3.20830
#
# Compressibility (1/GPa) = 0.05898077
#
# Stress axis : x y z
#
# Youngs Moduli (GPa) = 33.91464 76.84979 46.44258
#
# Poissons Ratio (x) = 0.15916 -0.13395
# Poissons Ratio (y) = 0.07024 0.15502
# Poissons Ratio (z) = -0.09782 0.25651
#
# Static dielectric constant tensor:
#      x y z
#    x 1.859750 0.000000 0.015580 
#    y 0.000000 1.826420 0.000000 
#    z 0.015580 0.000000 1.890470 
# 
# From -- ./inp_files/87314.got.cif
#   From: 2010.05.17/outbox.cif.g08.bks.cpg/sg15_44_cif.got.tgz:87314.got - 2010.06.03 18:47:42.
