data_PCOD9266830
_publ_section_title
;
Structure prediction by ZEFSAII (Michael W. Deem and Ramdas Pophale) SiO2 
 PCOD9266830
Probable space group: C 2/C
;
_chemical_formula_sum "Si O2"
_cell_formula_units_Z 64
_cell_length_a 8.794398
_cell_length_b 12.801066
_cell_length_c 26.627680
_cell_angle_alpha 90.000000
_cell_angle_beta 69.060402
_cell_angle_gamma 90.000000
_cell_volume 2799.708340
_symmetry_space_group_name_H-M "C 2/C"
_symmetry_group_IT_number 15
_symmetry_cell_setting 'monoclinic'
loop_
_space_group_symop_operation_xyz
x,y,z
-x,y,1/2-z
-x,-y,-z
x,-y,1/2+z
1/2+x,1/2+y,z
1/2-x,1/2+y,1/2-z
1/2-x,1/2-y,-z
1/2+x,1/2-y,1/2+z
loop_
_atom_site_type_symbol
_atom_site_label
_atom_site_fract_x
_atom_site_fract_y
_atom_site_fract_z
Si Si1 0.355672 0.958849 0.726829
Si Si2 0.841396 0.190337 0.417043
Si Si3 0.581643 0.076024 0.117064
Si Si4 0.738036 0.593780 0.493870
Si Si5 0.664216 0.367845 0.198418
Si Si6 0.377785 0.635904 0.527334
Si Si7 0.178543 0.472382 0.410804
Si Si8 0.815920 0.143705 0.170156
O O1 0.500000 0.965661 0.750000
O O2 0.430865 0.893354 0.671468
O O3 0.204192 0.907733 0.773120
O O4 0.301714 0.071641 0.714131
O O5 0.739793 0.295893 0.424229
O O6 0.889773 0.184450 0.470015
O O7 0.730381 0.090282 0.418028
O O8 0.004259 0.176822 0.366024
O O9 0.655293 0.144203 0.062996
O O10 0.491892 0.980225 0.098574
O O11 0.733358 0.068212 0.137852
O O12 0.560403 0.637278 0.526114
O O13 0.689418 0.480410 0.475460
O O14 0.834052 0.584812 0.534465
O O15 0.500000 0.377331 0.250000
O O16 0.683654 0.423633 0.141760
O O17 0.707543 0.247935 0.184549
#
# Coordination Sequence:
#
# PCOD9266830 Si02
#       8
#     8   8   8   8   8   8   8   8
#     4   9  21  41  64  90 121 162 215 262 314 386
#     4  10  20  39  59  88 123 167 211 263 315 378
#     4  10  20  38  62  89 128 165 206 260 321 378
#     4  10  19  38  61  94 126 170 209 266 317 380
#     4  11  23  42  64  93 124 162 209 264 327 383
#     4   9  20  35  60  88 124 166 218 254 311 386
#     4  10  23  38  61  92 130 164 209 269 321 380
#     4  11  22  41  68  88 123 171 211 263 325 384
#
# _framework density 22.859524
#
# number of rings (size 3 to 8) (size 9 to 14) (size 15 to 20)
#    0.000    2.000    1.250    2.250    3.500    1.000 
#    2.250    5.625    0.000    0.000    0.000    0.000 
#    0.000    0.000    0.000    0.000    0.000    0.000 
#
# Total GULP energy -178551.125594 kJ/mol
# GULP energy per Si atom -5579.722675 kJ/mol
# Density = 2.280749 g / cm^3
# Si number density = 22.859524 Si / 1000 Ang^3
#
#
#
# Elastic Constant Matrix: (Units=GPa)
#
#
# Indices 1 2 3 4 5 6 
#
# 1 84.5635 21.9036 58.2147 0.0000 -24.5588 0.0000
# 2 21.9036 53.5139 10.9906 0.0000 10.0944 0.0000
# 3 58.2147 10.9906 146.2600 0.0000 -13.3120 0.0000
# 4 0.0000 0.0000 0.0000 18.6176 0.0000 -3.0114
# 5 -24.5588 10.0944 -13.3120 0.0000 36.1179 0.0000
# 6 0.0000 0.0000 0.0000 -3.0114 0.0000 22.0312
#
#
#
# Elastic Compliance Matrix: (Units=1/GPa)
#
#
# Indices 1 2 3 4 5 6 
#
# 1 0.025389 -0.012214 -0.007559 0.000000 0.017891 0.000000
# 2 -0.012214 0.026217 0.001520 0.000000 -0.015072 0.000000
# 3 -0.007559 0.001520 0.009545 0.000000 -0.002046 0.000000
# 4 0.000000 0.000000 0.000000 0.054927 0.000000 0.007508
# 5 0.017891 -0.015072 -0.002046 0.000000 0.043310 0.000000
# 6 0.000000 0.000000 0.000000 0.007508 0.000000 0.046416
#
#
# Mechanical properties :
#
#
# Convention : Reuss Voigt Hill
#
# Bulk Modulus (GPa) = 40.57787 51.83947 46.20867
# Shear Modulus (GPa) = 19.95793 28.23524 24.09658
#
# Velocity S-wave (km/s) = 2.95798 3.51830 3.25024
# Velocity P-wave (km/s) = 5.42731 6.26348 5.86033
#
# Compressibility (1/GPa) = 0.02464398
#
# Stress axis : x y z
#
# Youngs Moduli (GPa) = 39.38750 38.14313 104.76274
#
# Poissons Ratio (x) = 0.46588 0.79191
# Poissons Ratio (y) = 0.48108 -0.15920
# Poissons Ratio (z) = 0.29773 -0.05796
#
# Static dielectric constant tensor:
#      x y z
#    x 1.850860 0.000000 -0.020480 
#    y 0.000000 1.875440 0.000000 
#    z -0.020480 0.000000 1.901500 
# 
# From -- ./inp_files/288716.got.cif
#   From: 2010.05.17/outbox.cif.g08.bks.cpg/sg15_145_cif.got.tgz:288716.got - 2010.06.03 18:47:42.
