data_PCOD9266800
_publ_section_title
;
Structure prediction by ZEFSAII (Michael W. Deem and Ramdas Pophale) SiO2 
 PCOD9266800
Probable space group: C 2/C
;
_chemical_formula_sum "Si O2"
_cell_formula_units_Z 40
_cell_length_a 19.767457
_cell_length_b 9.209539
_cell_length_c 9.804591
_cell_angle_alpha 90.000000
_cell_angle_beta 55.150954
_cell_angle_gamma 90.000000
_cell_volume 1464.811150
_symmetry_space_group_name_H-M "C 2/C"
_symmetry_group_IT_number 15
_symmetry_cell_setting 'monoclinic'
loop_
_space_group_symop_operation_xyz
x,y,z
-x,y,1/2-z
-x,-y,-z
x,-y,1/2+z
1/2+x,1/2+y,z
1/2-x,1/2+y,1/2-z
1/2-x,1/2-y,-z
1/2+x,1/2-y,1/2+z
loop_
_atom_site_type_symbol
_atom_site_label
_atom_site_fract_x
_atom_site_fract_y
_atom_site_fract_z
Si Si1 0.663524 0.250132 0.516624
Si Si2 0.810304 0.550160 0.572694
Si Si3 0.126743 0.981897 0.200617
Si Si4 0.932535 0.729776 0.622198
Si Si5 0.570214 0.836489 0.769386
O O1 0.750000 0.250000 0.500000
O O2 0.643232 0.421436 0.544373
O O3 0.590695 0.191582 0.697273
O O4 0.676610 0.118670 0.397759
O O5 0.712723 0.565800 0.671283
O O6 0.860242 0.657216 0.614086
O O7 0.847036 0.587302 0.379906
O O8 0.079149 0.096202 0.353087
O O9 0.082136 0.833632 0.222803
O O10 0.020025 0.673050 0.469569
O O11 0.500000 0.896089 0.750000
#
# Coordination Sequence:
#
# PCOD9266800 Si02
#       5
#     8   8   8   8   8
#     4   8  18  37  58  83 119 148 196 247 289 347
#     4  10  19  38  61  87 117 158 195 245 297 352
#     4   9  19  39  58  84 117 156 198 243 288 352
#     4   9  20  37  62  85 122 151 200 242 293 352
#     4  10  20  36  59  88 120 156 195 244 299 350
#
# _framework density 27.307272999999999
#
# number of rings (size 3 to 8) (size 9 to 14) (size 15 to 20)
#    1.200    1.600    0.000    1.200    0.000    0.800 
#   18.000    3.000    0.000    0.000    0.000    0.000 
#    0.000    0.000    0.000    0.000    0.000    0.000 
#
# Total GULP energy -111493.278359 kJ/mol
# GULP energy per Si atom -5574.663918 kJ/mol
# Density = 2.724512 g / cm^3
# Si number density = 27.307273 Si / 1000 Ang^3
#
#
#
# Elastic Constant Matrix: (Units=GPa)
#
#
# Indices 1 2 3 4 5 6 
#
# 1 79.6268 19.6852 36.3099 0.0000 -22.3330 0.0000
# 2 19.6852 172.0625 -0.4936 0.0000 -8.3870 0.0000
# 3 36.3099 -0.4936 106.8753 0.0000 -12.4806 0.0000
# 4 0.0000 0.0000 0.0000 45.0560 0.0000 -4.7718
# 5 -22.3330 -8.3870 -12.4806 0.0000 41.9298 0.0000
# 6 0.0000 0.0000 0.0000 -4.7718 0.0000 28.4742
#
#
#
# Elastic Compliance Matrix: (Units=1/GPa)
#
#
# Indices 1 2 3 4 5 6 
#
# 1 0.017336 -0.001637 -0.005032 0.000000 0.007408 0.000000
# 2 -0.001637 0.006027 0.000645 0.000000 0.000526 0.000000
# 3 -0.005032 0.000645 0.011159 0.000000 0.000770 0.000000
# 4 0.000000 0.000000 0.000000 0.022596 0.000000 0.003787
# 5 0.007408 0.000526 0.000770 0.000000 0.028130 0.000000
# 6 0.000000 0.000000 0.000000 0.003787 0.000000 0.035754
#
#
# Mechanical properties :
#
#
# Convention : Reuss Voigt Hill
#
# Bulk Modulus (GPa) = 44.49475 52.17417 48.33446
# Shear Modulus (GPa) = 35.57726 43.29623 39.43674
#
# Velocity S-wave (km/s) = 3.61342 3.98618 3.80437
# Velocity P-wave (km/s) = 5.80849 6.35090 6.08574
#
# Compressibility (1/GPa) = 0.02247456
#
# Stress axis : x y z
#
# Youngs Moduli (GPa) = 57.68468 165.93198 89.61186
#
# Poissons Ratio (x) = 0.27157 0.45093
# Poissons Ratio (y) = 0.09441 -0.05782
# Poissons Ratio (z) = 0.29027 -0.10707
#
# Static dielectric constant tensor:
#      x y z
#    x 2.185330 0.000000 0.115120 
#    y 0.000000 2.094170 0.000000 
#    z 0.115120 0.000000 2.197920 
# 
# From -- ./inp_files/172657.got.cif
#   From: 2010.05.17/outbox.cif.g08.bks.cpg/sg15_87_cif.got.tgz:172657.got - 2010.06.03 18:47:42.
