data_PCOD9266131
_publ_section_title
;
Structure prediction by ZEFSAII (Michael W. Deem and Ramdas Pophale) SiO2 
 PCOD9266131
Probable space group: C 2/C
;
_chemical_formula_sum "Si O2"
_cell_formula_units_Z 36
_cell_length_a 9.261612
_cell_length_b 14.773411
_cell_length_c 20.808809
_cell_angle_alpha 90.000000
_cell_angle_beta 145.552185
_cell_angle_gamma 90.000000
_cell_volume 1610.521457
_symmetry_space_group_name_H-M "C 2/C"
_symmetry_group_IT_number 15
_symmetry_cell_setting 'monoclinic'
loop_
_space_group_symop_operation_xyz
x,y,z
-x,y,1/2-z
-x,-y,-z
x,-y,1/2+z
1/2+x,1/2+y,z
1/2-x,1/2+y,1/2-z
1/2-x,1/2-y,-z
1/2+x,1/2-y,1/2+z
loop_
_atom_site_type_symbol
_atom_site_label
_atom_site_fract_x
_atom_site_fract_y
_atom_site_fract_z
Si Si1 0.058355 0.060288 0.145790
Si Si2 0.289758 0.378604 0.254178
Si Si3 0.014617 0.603436 0.980886
Si Si4 0.500000 0.982597 0.250000
Si Si5 0.217249 0.300218 0.674774
O O1 0.235116 0.115416 0.260368
O O2 0.788646 0.108872 0.043943
O O3 0.017128 0.960721 0.161522
O O4 0.240965 0.041733 0.151993
O O5 0.048295 0.419688 0.206173
O O6 0.369067 0.286014 0.316458
O O7 0.201893 0.370128 0.149064
O O8 0.040416 0.668892 0.051409
O O9 0.000000 0.500000 0.000000
O O10 0.500000 0.280898 0.750000
#
# Coordination Sequence:
#
# PCOD9266131 Si02
#       5
#     8   8   8   4   8
#     4   9  20  36  61  83 126 156 198 252 289 354
#     4  10  20  39  60  85 126 155 200 255 293 354
#     4  11  21  37  65  90 116 166 201 240 313 353
#     4   8  18  40  54  84 126 150 198 252 294 346
#     4  10  19  37  60  89 120 155 208 242 289 366
#
# _framework density 22.353009
#
# number of rings (size 3 to 8) (size 9 to 14) (size 15 to 20)
#    1.333    0.889    3.333    0.000    0.000    4.444 
#    0.000    3.333    0.000    0.000    0.000    0.000 
#    0.000    0.000    0.000    0.000    0.000    0.000 
#
# Total GULP energy -100345.721421 kJ/mol
# GULP energy per Si atom -5574.762301 kJ/mol
# Density = 2.230213 g / cm^3
# Si number density = 22.353009 Si / 1000 Ang^3
#
#
#
# Elastic Constant Matrix: (Units=GPa)
#
#
# Indices 1 2 3 4 5 6 
#
# 1 68.3083 19.3995 26.6612 0.0000 7.6305 0.0000
# 2 19.3995 122.2058 25.9520 -0.0001 -11.6682 0.0000
# 3 26.6612 25.9520 86.3385 -0.0001 -6.2517 0.0001
# 4 0.0000 -0.0001 -0.0001 17.0835 -0.0002 -13.4634
# 5 7.6305 -11.6682 -6.2517 -0.0002 22.5524 0.0000
# 6 0.0000 0.0000 0.0001 -13.4634 0.0000 35.0402
#
#
#
# Elastic Compliance Matrix: (Units=1/GPa)
#
#
# Indices 1 2 3 4 5 6 
#
# 1 0.018614 -0.002642 -0.005622 0.000000 -0.009223 0.000000
# 2 -0.002642 0.009460 -0.001642 0.000000 0.005333 0.000000
# 3 -0.005622 -0.001642 0.014172 0.000000 0.004981 0.000000
# 4 0.000000 0.000000 0.000000 0.083960 0.000001 0.032260
# 5 -0.009223 0.005333 0.004981 0.000001 0.051602 0.000000
# 6 0.000000 0.000000 0.000000 0.032260 0.000000 0.040934
#
#
# Mechanical properties :
#
#
# Convention : Reuss Voigt Hill
#
# Bulk Modulus (GPa) = 44.57016 46.76422 45.66719
# Shear Modulus (GPa) = 20.32257 28.59122 24.45690
#
# Velocity S-wave (km/s) = 3.01851 3.58030 3.31134
# Velocity P-wave (km/s) = 5.66842 6.16908 5.92404
#
# Compressibility (1/GPa) = 0.02243654
#
# Stress axis : x y z
#
# Youngs Moduli (GPa) = 53.72223 105.70703 70.55924
#
# Poissons Ratio (x) = 0.27924 0.39667
# Poissons Ratio (y) = 0.14192 0.11583
# Poissons Ratio (z) = 0.30202 0.17353
#
# Static dielectric constant tensor:
#      x y z
#    x 1.899910 0.000000 0.053880 
#    y 0.000000 1.819700 0.000000 
#    z 0.053880 0.000000 1.795610 
# 
# From -- ./inp_files/269831.got.cif
#   From: 2010.05.17/outbox.cif.g08.bks.cpg/sg15_135_cif.got.tgz:269831.got - 2010.06.03 18:47:42.
