data_PCOD9266628
_publ_section_title
;
Structure prediction by ZEFSAII (Michael W. Deem and Ramdas Pophale) SiO2 
 PCOD9266628
Probable space group: C 2/C
;
_chemical_formula_sum "Si O2"
_cell_formula_units_Z 52
_cell_length_a 5.444547
_cell_length_b 30.105220
_cell_length_c 15.583977
_cell_angle_alpha 90.000000
_cell_angle_beta 110.141391
_cell_angle_gamma 90.000000
_cell_volume 2398.148636
_symmetry_space_group_name_H-M "C 2/C"
_symmetry_group_IT_number 15
_symmetry_cell_setting 'monoclinic'
loop_
_space_group_symop_operation_xyz
x,y,z
-x,y,1/2-z
-x,-y,-z
x,-y,1/2+z
1/2+x,1/2+y,z
1/2-x,1/2+y,1/2-z
1/2-x,1/2-y,-z
1/2+x,1/2-y,1/2+z
loop_
_atom_site_type_symbol
_atom_site_label
_atom_site_fract_x
_atom_site_fract_y
_atom_site_fract_z
Si Si1 0.098889 0.562806 0.148551
Si Si2 0.072177 0.180318 0.455316
Si Si3 0.423102 0.773378 0.425328
Si Si4 0.499601 0.650115 0.870721
Si Si5 0.096894 0.096843 0.144370
Si Si6 0.000000 0.697201 0.750000
Si Si7 0.500000 0.425765 0.250000
Si Si8 0.500000 0.018948 0.750000
O O1 0.330851 0.567478 0.107056
O O2 0.251516 0.583402 0.250042
O O3 0.828405 0.589150 0.102541
O O4 0.006681 0.514184 0.168311
O O5 0.350993 0.204992 0.488752
O O6 0.876087 0.222121 0.442099
O O7 0.080807 0.148290 0.539489
O O8 0.995151 0.147740 0.370012
O O9 0.190730 0.808021 0.392672
O O10 0.518699 0.773529 0.337569
O O11 0.604937 0.605824 0.839581
O O12 0.248325 0.665052 0.785914
O O13 0.736544 0.453115 0.234692
#
# Coordination Sequence:
#
# PCOD9266628 Si02
#       8
#     8   8   8   8   8   4   4   4
#     4   9  19  39  63  87 124 148 200 261 315 358
#     4  10  23  36  58  86 122 168 212 237 317 360
#     4  10  21  39  56  83 124 169 204 260 294 358
#     4  11  22  38  57  85 126 162 204 263 295 359
#     4   9  18  36  60  89 116 161 195 248 298 373
#     4  10  19  38  56  81 116 164 209 262 296 335
#     4  12  22  36  68  92 118 157 215 250 312 368
#     4  10  21  38  66  99 112 157 202 262 316 383
#
# _framework density 21.683391
#
# number of rings (size 3 to 8) (size 9 to 14) (size 15 to 20)
#    0.000    2.154    1.538    2.769    4.308    1.231 
#    5.538    0.000    0.000   12.923    0.000    0.000 
#    0.000    0.000    0.000    0.000    0.000    0.000 
#
# Total GULP energy -144765.384773 kJ/mol
# GULP energy per Si atom -5567.899414 kJ/mol
# Density = 2.163404 g / cm^3
# Si number density = 21.683391 Si / 1000 Ang^3
#
#
#
# Elastic Constant Matrix: (Units=GPa)
#
#
# Indices 1 2 3 4 5 6 
#
# 1 157.5515 53.9642 14.8777 0.0000 18.0574 0.0000
# 2 53.9642 119.8922 28.2095 0.0000 6.3769 0.0000
# 3 14.8777 28.2095 41.1950 0.0000 5.5314 0.0000
# 4 0.0000 0.0000 0.0000 -51.1728 0.0000 0.0392
# 5 18.0574 6.3769 5.5314 0.0000 23.7001 0.0000
# 6 0.0000 0.0000 0.0000 0.0392 0.0000 30.9466
#
#
#
# Elastic Compliance Matrix: (Units=1/GPa)
#
#
# Indices 1 2 3 4 5 6 
#
# 1 0.008105 -0.003392 0.000105 0.000000 -0.005287 0.000000
# 2 -0.003392 0.011391 -0.006722 0.000000 0.001088 0.000000
# 3 0.000105 -0.006722 0.029533 0.000000 -0.005164 0.000000
# 4 0.000000 0.000000 0.000000 -0.019542 0.000000 0.000025
# 5 -0.005287 0.001088 -0.005164 0.000000 0.047135 0.000000
# 6 0.000000 0.000000 0.000000 0.000025 0.000000 0.032314
#
#
# Mechanical properties :
#
#
# Convention : Reuss Voigt Hill
#
# Bulk Modulus (GPa) = 34.46704 56.97128 45.71916
# Shear Modulus (GPa) = 36.06917 15.46727 25.76822
#
# Velocity S-wave (km/s) = 4.08296 2.67371 3.45104
# Velocity P-wave (km/s) = 6.17718 5.98856 6.08360
#
# Compressibility (1/GPa) = 0.02901323
#
# Stress axis : x y z
#
# Youngs Moduli (GPa) = 123.38283 87.78812 33.86049
#
# Poissons Ratio (x) = 0.29774 -0.00357
# Poissons Ratio (y) = 0.41847 0.22759
# Poissons Ratio (z) = -0.01300 0.59007
#
# Static dielectric constant tensor:
#      x y z
#    x 1.978280 0.000000 -0.108780 
#    y 0.000000 1.833770 0.000000 
#    z -0.108780 0.000000 1.856140 
# 
# From -- ./inp_files/185958.got.cif
#   From: 2010.05.17/outbox.cif.g08.bks.cpg/sg15_93_cif.got.tgz:185958.got - 2010.06.03 18:47:42.
