data_PCOD9266420
_publ_section_title
;
Structure prediction by ZEFSAII (Michael W. Deem and Ramdas Pophale) SiO2 
 PCOD9266420
Probable space group: C 2/C
;
_chemical_formula_sum "Si O2"
_cell_formula_units_Z 44
_cell_length_a 7.161916
_cell_length_b 28.578137
_cell_length_c 14.737451
_cell_angle_alpha 90.000000
_cell_angle_beta 37.389968
_cell_angle_gamma 90.000000
_cell_volume 1831.654459
_symmetry_space_group_name_H-M "C 2/C"
_symmetry_group_IT_number 15
_symmetry_cell_setting 'monoclinic'
loop_
_space_group_symop_operation_xyz
x,y,z
-x,y,1/2-z
-x,-y,-z
x,-y,1/2+z
1/2+x,1/2+y,z
1/2-x,1/2+y,1/2-z
1/2-x,1/2-y,-z
1/2+x,1/2-y,1/2+z
loop_
_atom_site_type_symbol
_atom_site_label
_atom_site_fract_x
_atom_site_fract_y
_atom_site_fract_z
Si Si1 0.113232 0.854476 0.485772
Si Si2 0.000000 0.428185 0.250000
Si Si3 0.175167 0.751865 0.423081
Si Si4 0.789265 0.395743 0.706870
Si Si5 0.672042 0.002498 0.839469
Si Si6 0.660944 0.840103 0.423585
O O1 0.209451 0.895327 0.380857
O O2 0.081723 0.805641 0.444896
O O3 0.409068 0.849790 0.440312
O O4 0.824919 0.868643 0.659491
O O5 0.961809 0.460422 0.177600
O O6 0.500000 0.740738 0.250000
O O7 0.250000 0.750000 0.500000
O O8 0.921989 0.712025 0.507831
O O9 0.500000 0.391158 0.750000
O O10 0.823988 0.451204 0.707898
O O11 0.071521 0.374341 0.541149
O O12 0.000000 0.017588 0.750000
O O13 0.500000 0.000000 0.000000
O O14 0.000000 0.843449 0.250000
#
# Coordination Sequence:
#
# PCOD9266420 Si02
#       6
#     8   4   8   8   8   8
#     4  10  21  39  63  94 129 181 233 278 345 430
#     4  12  24  42  76 102 140 188 244 298 356 422
#     4  10  19  37  64  91 126 179 230 275 340 427
#     4   9  19  39  62  90 132 178 224 280 347 422
#     4  11  25  44  70 104 140 184 242 296 358 426
#     4  10  20  37  65  97 132 176 228 289 349 407
#
# _framework density 24.021995
#
# number of rings (size 3 to 8) (size 9 to 14) (size 15 to 20)
#    0.000    1.818    0.909    6.000    0.000    5.818 
#    0.000    8.182    6.000    0.000    0.000    0.000 
#    0.000    0.000    0.000    0.000    0.000    0.000 
#
# Total GULP energy -123190.631042 kJ/mol
# GULP energy per Si atom -5599.574138 kJ/mol
# Density = 2.396732 g / cm^3
# Si number density = 24.021995 Si / 1000 Ang^3
#
#
#
# Elastic Constant Matrix: (Units=GPa)
#
#
# Indices 1 2 3 4 5 6 
#
# 1 82.8909 39.7300 49.3762 0.0000 -1.4215 0.0000
# 2 39.7300 131.3538 41.8322 0.0000 0.2144 0.0000
# 3 49.3762 41.8322 199.1914 0.0000 2.7973 0.0000
# 4 0.0000 0.0000 0.0000 31.9018 0.0000 8.7375
# 5 -1.4215 0.2144 2.7973 0.0000 35.9777 0.0000
# 6 0.0000 0.0000 0.0000 8.7375 0.0000 16.7164
#
#
#
# Elastic Compliance Matrix: (Units=1/GPa)
#
#
# Indices 1 2 3 4 5 6 
#
# 1 0.015747 -0.003769 -0.003124 0.000000 0.000888 0.000000
# 2 -0.003769 0.009061 -0.000967 0.000000 -0.000128 0.000000
# 3 -0.003124 -0.000967 0.006006 0.000000 -0.000585 0.000000
# 4 0.000000 0.000000 0.000000 0.036583 0.000000 -0.019122
# 5 0.000888 -0.000128 -0.000585 0.000000 0.027876 0.000000
# 6 0.000000 0.000000 0.000000 -0.019122 0.000000 0.069816
#
#
# Mechanical properties :
#
#
# Convention : Reuss Voigt Hill
#
# Bulk Modulus (GPa) = 66.25439 75.03478 70.64459
# Shear Modulus (GPa) = 26.90454 35.75237 31.32845
#
# Velocity S-wave (km/s) = 3.35026 3.86206 3.61523
# Velocity P-wave (km/s) = 6.52735 7.15479 6.84826
#
# Compressibility (1/GPa) = 0.01509334
#
# Stress axis : x y z
#
# Youngs Moduli (GPa) = 63.50410 110.36013 166.50025
#
# Poissons Ratio (x) = 0.41599 0.52019
# Poissons Ratio (y) = 0.23937 0.16097
# Poissons Ratio (z) = 0.19840 0.10669
#
# Static dielectric constant tensor:
#      x y z
#    x 1.965810 0.000000 -0.008450 
#    y 0.000000 1.861570 0.000000 
#    z -0.008450 0.000000 1.841690 
# 
# From -- ./inp_files/194044.got.cif
#   From: 2010.05.17/outbox.cif.g08.bks.cpg/sg15_98_cif.got.tgz:194044.got - 2010.06.03 18:47:42.
