data_PCOD9266176
_publ_section_title
;
Structure prediction by ZEFSAII (Michael W. Deem and Ramdas Pophale) SiO2 
 PCOD9266176
Probable space group: C 2/C
;
_chemical_formula_sum "Si O2"
_cell_formula_units_Z 64
_cell_length_a 23.026219
_cell_length_b 11.806019
_cell_length_c 28.466159
_cell_angle_alpha 90.000000
_cell_angle_beta 27.292570
_cell_angle_gamma 90.000000
_cell_volume 3548.353041
_symmetry_space_group_name_H-M "C 2/C"
_symmetry_group_IT_number 15
_symmetry_cell_setting 'monoclinic'
loop_
_space_group_symop_operation_xyz
x,y,z
-x,y,1/2-z
-x,-y,-z
x,-y,1/2+z
1/2+x,1/2+y,z
1/2-x,1/2+y,1/2-z
1/2-x,1/2-y,-z
1/2+x,1/2-y,1/2+z
loop_
_atom_site_type_symbol
_atom_site_label
_atom_site_fract_x
_atom_site_fract_y
_atom_site_fract_z
Si Si1 0.939758 0.009418 0.243115
Si Si2 0.655664 0.956299 0.435794
Si Si3 0.915669 0.280748 0.264853
Si Si4 0.703443 0.968295 0.798467
Si Si5 0.546794 0.238158 0.416171
Si Si6 0.121815 0.827189 0.464345
Si Si7 0.993943 0.029789 0.602188
Si Si8 0.012184 0.625520 0.886270
O O1 0.919552 0.145044 0.254651
O O2 0.000000 0.984182 0.250000
O O3 0.804764 0.946482 0.337154
O O4 0.019608 0.980801 0.139237
O O5 0.648024 0.019986 0.391176
O O6 0.575901 0.841658 0.488390
O O7 0.592422 0.033870 0.521552
O O8 0.766997 0.308664 0.374855
O O9 0.000000 0.306003 0.250000
O O10 0.972094 0.346928 0.179584
O O11 0.641266 0.069452 0.813238
O O12 0.852646 0.980691 0.694731
O O13 0.653548 0.846023 0.818293
O O14 0.599008 0.293308 0.426692
O O15 0.510081 0.340322 0.409149
O O16 0.030354 0.742037 0.558765
O O17 0.084239 0.954425 0.504912
#
# Coordination Sequence:
#
# PCOD9266176 Si02
#       8
#     8   8   8   8   8   8   8   8
#     4  10  21  38  58  84 111 150 203 241 274 342
#     4  10  19  37  61  85 112 152 194 232 283 356
#     4  11  24  38  57  86 120 152 195 243 292 343
#     4  10  20  36  59  88 116 150 190 230 284 360
#     4  11  21  36  56  86 122 151 187 229 294 350
#     4  12  21  37  57  89 122 145 188 241 295 344
#     4  11  24  34  58  88 119 152 184 243 293 337
#     4  11  19  35  60  82 115 151 184 236 291 334
#
# _framework density 18.036536999999999
#
# number of rings (size 3 to 8) (size 9 to 14) (size 15 to 20)
#    0.000    1.250    5.000    2.625    1.750    1.500 
#    0.000    3.125    0.000    3.750    0.000    0.000 
#    0.000    0.000    0.000    0.000    0.000    0.000 
#
# Total GULP energy -178650.974167 kJ/mol
# GULP energy per Si atom -5582.842943 kJ/mol
# Density = 1.799549 g / cm^3
# Si number density = 18.036537 Si / 1000 Ang^3
#
#
#
# Elastic Constant Matrix: (Units=GPa)
#
#
# Indices 1 2 3 4 5 6 
#
# 1 100.9845 31.0181 29.2112 0.0000 1.7049 0.0000
# 2 31.0181 91.6301 22.9312 0.0000 2.5806 0.0000
# 3 29.2112 22.9312 40.4797 -0.0001 -0.8677 0.0000
# 4 0.0000 0.0000 -0.0001 21.8841 0.0002 4.5499
# 5 1.7049 2.5806 -0.8677 0.0002 18.3826 -0.0001
# 6 0.0000 0.0000 0.0000 4.5499 -0.0001 21.0246
#
#
#
# Elastic Compliance Matrix: (Units=1/GPa)
#
#
# Indices 1 2 3 4 5 6 
#
# 1 0.012975 -0.002338 -0.008065 0.000000 -0.001256 0.000000
# 2 -0.002338 0.013221 -0.005843 0.000000 -0.001915 0.000000
# 3 -0.008065 -0.005843 0.033902 0.000000 0.003169 0.000000
# 4 0.000000 0.000000 0.000000 0.047848 -0.000001 -0.010355
# 5 -0.001256 -0.001915 0.003169 -0.000001 0.054934 0.000000
# 6 0.000000 0.000000 0.000000 -0.010355 0.000000 0.049804
#
#
# Mechanical properties :
#
#
# Convention : Reuss Voigt Hill
#
# Bulk Modulus (GPa) = 36.22638 44.37948 40.30293
# Shear Modulus (GPa) = 19.65563 22.25385 20.95474
#
# Velocity S-wave (km/s) = 3.30474 3.51639 3.41221
# Velocity P-wave (km/s) = 5.88985 6.41447 6.15775
#
# Compressibility (1/GPa) = 0.02760419
#
# Stress axis : x y z
#
# Youngs Moduli (GPa) = 77.07145 75.63553 29.49689
#
# Poissons Ratio (x) = 0.17687 0.23790
# Poissons Ratio (y) = 0.18023 0.17236
# Poissons Ratio (z) = 0.62160 0.44196
#
# Static dielectric constant tensor:
#      x y z
#    x 1.612550 0.000000 0.000420 
#    y 0.000000 1.615040 0.000000 
#    z 0.000420 0.000000 1.636920 
# 
# From -- ./inp_files/300845.got.cif
#   From: 2010.05.17/outbox.cif.g08.bks.cpg/sg15_151_cif.got.tgz:300845.got - 2010.06.03 18:47:42.
