data_PCOD9266007
_publ_section_title
;
Structure prediction by ZEFSAII (Michael W. Deem and Ramdas Pophale) SiO2 
 PCOD9266007
Probable space group: C 2/C
;
_chemical_formula_sum "Si O2"
_cell_formula_units_Z 40
_cell_length_a 17.215165
_cell_length_b 11.429409
_cell_length_c 8.957284
_cell_angle_alpha 90.000000
_cell_angle_beta 60.301359
_cell_angle_gamma 90.000000
_cell_volume 1530.920946
_symmetry_space_group_name_H-M "C 2/C"
_symmetry_group_IT_number 15
_symmetry_cell_setting 'monoclinic'
loop_
_space_group_symop_operation_xyz
x,y,z
-x,y,1/2-z
-x,-y,-z
x,-y,1/2+z
1/2+x,1/2+y,z
1/2-x,1/2+y,1/2-z
1/2-x,1/2-y,-z
1/2+x,1/2-y,1/2+z
loop_
_atom_site_type_symbol
_atom_site_label
_atom_site_fract_x
_atom_site_fract_y
_atom_site_fract_z
Si Si1 0.726732 0.583266 0.152426
Si Si2 0.298149 0.900655 0.277055
Si Si3 0.042879 0.314166 0.578304
Si Si4 0.471041 0.620863 0.108401
Si Si5 0.675936 0.673655 0.651975
O O1 0.792864 0.622163 0.957696
O O2 0.777288 0.535101 0.249301
O O3 0.636202 0.646530 0.288480
O O4 0.682169 0.465322 0.121651
O O5 0.213886 0.827172 0.286936
O O6 0.385915 0.878268 0.094503
O O7 0.987828 0.232829 0.515669
O O8 0.090814 0.222753 0.646455
O O9 0.000000 0.395001 0.750000
O O10 0.500000 0.615119 0.250000
O O11 0.500000 0.500000 0.000000
O O12 0.750000 0.750000 0.500000
#
# Coordination Sequence:
#
# PCOD9266007 Si02
#       5
#     8   8   8   8   8
#     4  10  19  37  59  85 118 155 205 239 293 356
#     4   9  21  37  60  87 114 160 203 243 293 355
#     4  11  22  39  59  85 121 161 198 245 306 355
#     4  12  24  37  60  93 128 153 189 250 309 365
#     4   8  17  34  57  81 113 153 194 237 288 353
#
# _framework density 26.128063999999998
#
# number of rings (size 3 to 8) (size 9 to 14) (size 15 to 20)
#    1.200    0.800    0.000    5.400    2.800    0.800 
#    0.000    3.000    0.000    0.000    0.000    0.000 
#    0.000    0.000    0.000    0.000    0.000    0.000 
#
# Total GULP energy -111405.565302 kJ/mol
# GULP energy per Si atom -5570.278265 kJ/mol
# Density = 2.606860 g / cm^3
# Si number density = 26.128064 Si / 1000 Ang^3
#
#
#
# Elastic Constant Matrix: (Units=GPa)
#
#
# Indices 1 2 3 4 5 6 
#
# 1 60.4428 -6.2910 29.1105 0.0000 2.7500 0.0000
# 2 -6.2910 25.3571 18.8878 0.0000 -1.9429 0.0000
# 3 29.1105 18.8878 231.8237 0.0000 11.7458 0.0000
# 4 0.0000 0.0000 0.0000 24.4356 0.0000 8.4813
# 5 2.7500 -1.9429 11.7458 0.0000 43.1576 0.0000
# 6 0.0000 0.0000 0.0000 8.4813 0.0000 13.6884
#
#
#
# Elastic Compliance Matrix: (Units=1/GPa)
#
#
# Indices 1 2 3 4 5 6 
#
# 1 0.018644 0.006769 -0.002888 0.000000 -0.000097 0.000000
# 2 0.006769 0.044793 -0.004644 0.000000 0.002849 0.000000
# 3 -0.002888 -0.004644 0.005127 0.000000 -0.001420 0.000000
# 4 0.000000 0.000000 0.000000 0.052136 0.000000 -0.032303
# 5 -0.000097 0.002849 -0.001420 0.000000 0.023692 0.000000
# 6 0.000000 0.000000 0.000000 -0.032303 0.000000 0.093069
#
#
# Mechanical properties :
#
#
# Convention : Reuss Voigt Hill
#
# Bulk Modulus (GPa) = 14.91662 44.55981 29.73821
# Shear Modulus (GPa) = 19.13266 34.65075 26.89170
#
# Velocity S-wave (km/s) = 2.70897 3.64564 3.21164
# Velocity P-wave (km/s) = 3.93779 5.90020 5.01590
#
# Compressibility (1/GPa) = 0.06703933
#
# Stress axis : x y z
#
# Youngs Moduli (GPa) = 53.63551 22.32468 195.06221
#
# Poissons Ratio (x) = -0.15112 0.56330
# Poissons Ratio (y) = -0.36307 0.90585
# Poissons Ratio (z) = 0.15489 0.10367
#
# Static dielectric constant tensor:
#      x y z
#    x 1.824210 0.000000 0.520790 
#    y 0.000000 2.229980 0.000000 
#    z 0.520790 0.000000 0.781380 
# 
# From -- ./inp_files/61150.got.cif
#   From: 2010.05.17/outbox.cif.g08.bks.cpg/sg15_31_cif.got.tgz:61150.got - 2010.06.03 18:47:42.
