data_PCOD9266177
_publ_section_title
;
Structure prediction by ZEFSAII (Michael W. Deem and Ramdas Pophale) SiO2 
 PCOD9266177
Probable space group: C 2/C
;
_chemical_formula_sum "Si O2"
_cell_formula_units_Z 56
_cell_length_a 9.418531
_cell_length_b 27.105158
_cell_length_c 14.598978
_cell_angle_alpha 90.000000
_cell_angle_beta 125.195445
_cell_angle_gamma 90.000000
_cell_volume 3045.657030
_symmetry_space_group_name_H-M "C 2/C"
_symmetry_group_IT_number 15
_symmetry_cell_setting 'monoclinic'
loop_
_space_group_symop_operation_xyz
x,y,z
-x,y,1/2-z
-x,-y,-z
x,-y,1/2+z
1/2+x,1/2+y,z
1/2-x,1/2+y,1/2-z
1/2-x,1/2-y,-z
1/2+x,1/2-y,1/2+z
loop_
_atom_site_type_symbol
_atom_site_label
_atom_site_fract_x
_atom_site_fract_y
_atom_site_fract_z
Si Si1 0.149696 0.323886 0.510169
Si Si2 0.625332 0.513693 0.963529
Si Si3 0.500000 0.420607 0.250000
Si Si4 0.695508 0.424647 0.856780
Si Si5 0.502173 0.983834 0.606358
Si Si6 0.290714 0.769064 0.154425
Si Si7 0.207607 0.646541 0.716048
Si Si8 0.000000 0.571682 0.750000
O O1 0.233842 0.373606 0.578500
O O2 0.186227 0.281117 0.598155
O O3 0.227793 0.301004 0.445564
O O4 0.955783 0.338472 0.407355
O O5 0.531232 0.545712 0.850613
O O6 0.679053 0.463012 0.934130
O O7 0.500000 0.500000 0.000000
O O8 0.811684 0.538092 0.059162
O O9 0.661979 0.385375 0.294059
O O10 0.500000 0.418526 0.750000
O O11 0.829086 0.448215 0.831050
O O12 0.500000 0.000000 0.500000
O O13 0.512474 0.033139 0.670916
O O14 0.500000 0.760685 0.250000
O O15 0.225798 0.803233 0.213057
O O16 0.149968 0.610719 0.779240
#
# Coordination Sequence:
#
# PCOD9266177 Si02
#       8
#     8   8   4   8   8   8   8   4
#     4  10  19  37  61  85 117 143 198 251 295 354
#     4  11  23  37  57  85 120 162 204 244 295 350
#     4  12  24  38  58  90 128 154 202 252 280 376
#     4  11  22  37  54  87 119 157 193 243 303 351
#     4  10  23  36  56  81 116 159 197 246 293 345
#     4   9  19  35  61  93 109 142 197 251 297 349
#     4  11  21  37  62  90 112 159 195 242 312 347
#     4  12  20  38  62  80 116 158 208 242 278 358
#
# _framework density 18.386838000000001
#
# number of rings (size 3 to 8) (size 9 to 14) (size 15 to 20)
#    0.000    1.429    2.857    5.571    4.000    0.000 
#    0.000    0.714    0.000    0.857    0.000    0.000 
#    0.000    0.000    0.000    0.000    0.000    0.000 
#
# Total GULP energy -156017.423037 kJ/mol
# GULP energy per Si atom -5572.050823 kJ/mol
# Density = 1.834499 g / cm^3
# Si number density = 18.386838 Si / 1000 Ang^3
#
#
#
# Elastic Constant Matrix: (Units=GPa)
#
#
# Indices 1 2 3 4 5 6 
#
# 1 112.4793 46.2096 45.6242 0.0000 0.2864 0.0000
# 2 46.2096 140.4668 74.1044 0.0000 3.6889 0.0000
# 3 45.6242 74.1044 81.5775 0.0000 5.1688 0.0000
# 4 0.0000 0.0000 0.0000 1.9581 0.0000 24.6927
# 5 0.2864 3.6889 5.1688 0.0000 26.3274 0.0000
# 6 0.0000 0.0000 0.0000 24.6927 0.0000 -32.2878
#
#
#
# Elastic Compliance Matrix: (Units=1/GPa)
#
#
# Indices 1 2 3 4 5 6 
#
# 1 0.011573 -0.000738 -0.005874 0.000000 0.001131 0.000000
# 2 -0.000738 0.013725 -0.012084 0.000000 0.000457 0.000000
# 3 -0.005874 -0.012084 0.026741 0.000000 -0.003493 0.000000
# 4 0.000000 0.000000 0.000000 0.047979 0.000000 0.036693
# 5 0.001131 0.000457 -0.003493 0.000000 0.038593 0.000000
# 6 0.000000 0.000000 0.000000 0.036693 0.000000 -0.002910
#
#
# Mechanical properties :
#
#
# Convention : Reuss Voigt Hill
#
# Bulk Modulus (GPa) = 68.26713 74.04445 71.15579
# Shear Modulus (GPa) = 28.09370 10.43855 19.26613
#
# Velocity S-wave (km/s) = 3.91311 2.38527 3.24052
# Velocity P-wave (km/s) = 7.59114 6.92415 7.26530
#
# Compressibility (1/GPa) = 0.01464834
#
# Stress axis : x y z
#
# Youngs Moduli (GPa) = 86.40439 72.86091 37.39540
#
# Poissons Ratio (x) = 0.05379 0.21965
# Poissons Ratio (y) = 0.06379 0.45187
# Poissons Ratio (z) = 0.50752 0.88042
#
# Static dielectric constant tensor:
#      x y z
#    x 1.652550 0.000000 0.051890 
#    y 0.000000 1.637750 0.000000 
#    z 0.051890 0.000000 1.679220 
# 
# From -- ./inp_files/138716.got.cif
#   From: 2010.05.17/outbox.cif.g08.bks.cpg/sg15_70_cif.got.tgz:138716.got - 2010.06.03 18:47:42.
