data_PCOD9266231
_publ_section_title
;
Structure prediction by ZEFSAII (Michael W. Deem and Ramdas Pophale) SiO2 
 PCOD9266231
Probable space group: C 2/C
;
_chemical_formula_sum "Si O2"
_cell_formula_units_Z 32
_cell_length_a 8.038642
_cell_length_b 19.971067
_cell_length_c 12.946314
_cell_angle_alpha 90.000000
_cell_angle_beta 136.904055
_cell_angle_gamma 90.000000
_cell_volume 1420.011940
_symmetry_space_group_name_H-M "C 2/C"
_symmetry_group_IT_number 15
_symmetry_cell_setting 'monoclinic'
loop_
_space_group_symop_operation_xyz
x,y,z
-x,y,1/2-z
-x,-y,-z
x,-y,1/2+z
1/2+x,1/2+y,z
1/2-x,1/2+y,1/2-z
1/2-x,1/2-y,-z
1/2+x,1/2-y,1/2+z
loop_
_atom_site_type_symbol
_atom_site_label
_atom_site_fract_x
_atom_site_fract_y
_atom_site_fract_z
Si Si1 0.000000 0.777963 0.750000
Si Si2 0.182219 0.177669 0.923960
Si Si3 0.286815 0.954840 0.359067
Si Si4 0.611743 0.333751 0.014913
Si Si5 0.500000 0.932893 0.250000
O O1 0.761220 0.731795 0.623477
O O2 0.019819 0.818428 0.652238
O O3 0.330744 0.119446 0.931124
O O4 0.000000 0.196366 0.750000
O O5 0.060746 0.144314 0.969720
O O6 0.250000 0.250000 0.000000
O O7 0.325281 0.965316 0.253869
O O8 0.000000 0.968779 0.250000
O O9 0.500000 0.000000 0.500000
O O10 0.824447 0.387434 0.099699
#
# Coordination Sequence:
#
# PCOD9266231 Si02
#       5
#     4   8   8   8   4
#     4   9  20  30  60 100 148 194 241 294 398 469
#     4  11  22  42  69 108 151 193 250 326 393 455
#     4  11  26  52  76 109 153 207 263 324 393 474
#     4  10  19  37  61  98 146 193 239 310 388 461
#     4  11  22  46  72  94 152 196 255 326 392 453
#
# _framework density 22.535019999999999
#
# number of rings (size 3 to 8) (size 9 to 14) (size 15 to 20)
#    0.000    1.500    5.000    1.500    7.000    1.000 
#    4.500    0.000    0.000    0.000    0.000    0.000 
#    0.000    0.000    0.000    0.000    0.000    0.000 
#
# Total GULP energy -89085.273944 kJ/mol
# GULP energy per Si atom -5567.829622 kJ/mol
# Density = 2.248373 g / cm^3
# Si number density = 22.535020 Si / 1000 Ang^3
#
#
#
# Elastic Constant Matrix: (Units=GPa)
#
#
# Indices 1 2 3 4 5 6 
#
# 1 172.7015 22.3864 46.1664 0.0000 -32.2695 0.0000
# 2 22.3864 74.0570 48.9562 0.0000 13.6267 0.0000
# 3 46.1664 48.9562 155.7529 0.0000 -30.2965 0.0000
# 4 0.0000 0.0000 0.0000 0.7853 0.0000 -15.6478
# 5 -32.2695 13.6267 -30.2965 0.0000 40.4531 0.0000
# 6 0.0000 0.0000 0.0000 -15.6478 0.0000 -7.3329
#
#
#
# Elastic Compliance Matrix: (Units=1/GPa)
#
#
# Indices 1 2 3 4 5 6 
#
# 1 0.007660 -0.004166 0.000586 0.000000 0.007952 0.000000
# 2 -0.004166 0.025434 -0.010620 0.000000 -0.019844 0.000000
# 3 0.000586 -0.010620 0.012140 0.000000 0.013137 0.000000
# 4 0.000000 0.000000 0.000000 0.029260 0.000000 -0.062438
# 5 0.007952 -0.019844 0.013137 0.000000 0.047586 0.000000
# 6 0.000000 0.000000 0.000000 -0.062438 0.000000 -0.003134
#
#
# Mechanical properties :
#
#
# Convention : Reuss Voigt Hill
#
# Bulk Modulus (GPa) = 59.40237 70.83663 65.11950
# Shear Modulus (GPa) = 32.68909 25.78127 29.23518
#
# Velocity S-wave (km/s) = 3.81279 3.38606 3.60574
# Velocity P-wave (km/s) = 6.76760 6.84028 6.80404
#
# Compressibility (1/GPa) = 0.01683434
#
# Stress axis : x y z
#
# Youngs Moduli (GPa) = 130.55510 39.31760 82.37264
#
# Poissons Ratio (x) = 0.16379 -0.04826
# Poissons Ratio (y) = 0.54388 0.87476
# Poissons Ratio (z) = -0.07649 0.41753
#
# Static dielectric constant tensor:
#      x y z
#    x 1.943520 0.000000 0.021410 
#    y 0.000000 1.929320 0.000000 
#    z 0.021410 0.000000 1.798540 
# 
# From -- ./inp_files/22206.got.cif
#   From: 2010.05.17/outbox.cif.g08.bks.cpg/sg15_12_cif.got.tgz:22206.got - 2010.06.03 18:47:42.
