data_PCOD9266119
_publ_section_title
;
Structure prediction by ZEFSAII (Michael W. Deem and Ramdas Pophale) SiO2 
 PCOD9266119
Probable space group: C 2/C
;
_chemical_formula_sum "Si O2"
_cell_formula_units_Z 56
_cell_length_a 8.787671
_cell_length_b 19.323251
_cell_length_c 17.682313
_cell_angle_alpha 90.000000
_cell_angle_beta 64.489023
_cell_angle_gamma 90.000000
_cell_volume 2709.827280
_symmetry_space_group_name_H-M "C 2/C"
_symmetry_group_IT_number 15
_symmetry_cell_setting 'monoclinic'
loop_
_space_group_symop_operation_xyz
x,y,z
-x,y,1/2-z
-x,-y,-z
x,-y,1/2+z
1/2+x,1/2+y,z
1/2-x,1/2+y,1/2-z
1/2-x,1/2-y,-z
1/2+x,1/2-y,1/2+z
loop_
_atom_site_type_symbol
_atom_site_label
_atom_site_fract_x
_atom_site_fract_y
_atom_site_fract_z
Si Si1 0.921301 0.444455 0.958711
Si Si2 0.645604 0.836565 0.964337
Si Si3 0.742331 0.384794 0.267020
Si Si4 0.412954 0.627543 0.915643
Si Si5 0.324874 0.747075 0.819754
Si Si6 0.993107 0.190269 0.451112
Si Si7 0.939216 0.571955 0.871490
O O1 0.881540 0.493050 0.895836
O O2 0.052006 0.381074 0.919996
O O3 0.754952 0.414448 0.032566
O O4 0.000000 0.500000 0.000000
O O5 0.847184 0.829294 0.922763
O O6 0.565602 0.761834 0.996249
O O7 0.600722 0.880336 0.048770
O O8 0.551558 0.404487 0.329342
O O9 0.735114 0.308863 0.230729
O O10 0.844198 0.390843 0.323191
O O11 0.859741 0.428939 0.186314
O O12 0.364319 0.700162 0.885655
O O13 0.492655 0.638626 0.981375
O O14 0.500000 0.776975 0.750000
O O15 0.173771 0.797712 0.873825
#
# Coordination Sequence:
#
# PCOD9266119 Si02
#       7
#     8   8   8   8   8   8   8
#     4  10  21  38  58  86 122 154 195 261 296 348
#     4  10  20  35  58  93 120 153 198 243 310 351
#     4  10  20  36  60  91 112 157 211 248 288 360
#     4  11  21  36  64  91 118 155 209 246 303 357
#     4  10  20  34  57  89 124 154 198 253 298 348
#     4  11  20  36  62  93 122 157 198 250 295 382
#     4  10  19  37  60  87 119 151 202 250 302 341
#
# _framework density 20.665524999999999
#
# number of rings (size 3 to 8) (size 9 to 14) (size 15 to 20)
#    0.000    1.714    4.286    1.286    0.000    0.571 
#    0.000    0.000    3.143    1.714    0.000    0.000 
#    0.000    0.000    0.000    0.000    0.000    0.000 
#
# Total GULP energy -156116.925533 kJ/mol
# GULP energy per Si atom -5575.604483 kJ/mol
# Density = 2.061849 g / cm^3
# Si number density = 20.665525 Si / 1000 Ang^3
#
#
#
# Elastic Constant Matrix: (Units=GPa)
#
#
# Indices 1 2 3 4 5 6 
#
# 1 83.8808 10.6722 38.2804 0.0000 -30.8801 0.0000
# 2 10.6722 24.9048 10.6934 0.0000 -11.3885 0.0000
# 3 38.2804 10.6934 87.9810 0.0000 -37.0023 0.0000
# 4 0.0000 0.0000 0.0000 14.2673 0.0000 -4.2565
# 5 -30.8801 -11.3885 -37.0023 0.0000 57.2827 0.0000
# 6 0.0000 0.0000 0.0000 -4.2565 0.0000 1.7606
#
#
#
# Elastic Compliance Matrix: (Units=1/GPa)
#
#
# Indices 1 2 3 4 5 6 
#
# 1 0.016282 -0.002593 -0.004523 0.000000 0.005340 0.000000
# 2 -0.002593 0.044923 -0.001597 0.000000 0.006501 0.000000
# 3 -0.004523 -0.001597 0.016983 0.000000 0.008214 0.000000
# 4 0.000000 0.000000 0.000000 0.251468 0.000000 0.607950
# 5 0.005340 0.006501 0.008214 0.000000 0.026935 0.000000
# 6 0.000000 0.000000 0.000000 0.607950 0.000000 2.037764
#
#
# Mechanical properties :
#
#
# Convention : Reuss Voigt Hill
#
# Bulk Modulus (GPa) = 16.45818 35.11763 25.78791
# Shear Modulus (GPa) = 2.05589 23.80349 12.92969
#
# Velocity S-wave (km/s) = 0.99850 3.39757 2.50404
# Velocity P-wave (km/s) = 3.05134 5.69399 4.56794
#
# Compressibility (1/GPa) = 0.06076005
#
# Stress axis : x y z
#
# Youngs Moduli (GPa) = 61.41890 22.26036 58.88242
#
# Poissons Ratio (x) = 0.05772 0.26633
# Poissons Ratio (y) = 0.15927 0.09406
# Poissons Ratio (z) = 0.27781 0.03556
#
# Static dielectric constant tensor:
#      x y z
#    x 1.825790 0.000000 0.028900 
#    y 0.000000 1.752300 0.000000 
#    z 0.028900 0.000000 1.771940 
# 
# From -- ./inp_files/192026.got.cif
#   From: 2010.05.17/outbox.cif.g08.bks.cpg/sg15_97_cif.got.tgz:192026.got - 2010.06.03 18:47:42.
