data_PCOD9266265
_publ_section_title
;
Structure prediction by ZEFSAII (Michael W. Deem and Ramdas Pophale) SiO2 
 PCOD9266265
Probable space group: C 2/C
;
_chemical_formula_sum "Si O2"
_cell_formula_units_Z 48
_cell_length_a 13.682160
_cell_length_b 22.782924
_cell_length_c 11.811963
_cell_angle_alpha 90.000000
_cell_angle_beta 44.184532
_cell_angle_gamma 90.000000
_cell_volume 2566.263491
_symmetry_space_group_name_H-M "C 2/C"
_symmetry_group_IT_number 15
_symmetry_cell_setting 'monoclinic'
loop_
_space_group_symop_operation_xyz
x,y,z
-x,y,1/2-z
-x,-y,-z
x,-y,1/2+z
1/2+x,1/2+y,z
1/2-x,1/2+y,1/2-z
1/2-x,1/2-y,-z
1/2+x,1/2-y,1/2+z
loop_
_atom_site_type_symbol
_atom_site_label
_atom_site_fract_x
_atom_site_fract_y
_atom_site_fract_z
Si Si1 0.722075 0.769615 0.892188
Si Si2 0.144304 0.891771 0.696265
Si Si3 0.215080 0.511967 0.306955
Si Si4 0.546075 0.920702 0.581602
Si Si5 0.085812 0.320418 0.382634
Si Si6 0.356996 0.071271 0.826569
O O1 0.809764 0.828918 0.794998
O O2 0.782940 0.720491 0.757645
O O3 0.750000 0.750000 0.000000
O O4 0.558547 0.784468 0.011690
O O5 0.155148 0.946080 0.773513
O O6 0.263374 0.908354 0.506828
O O7 0.000000 0.887229 0.750000
O O8 0.168182 0.467622 0.446906
O O9 0.226906 0.470764 0.187833
O O10 0.085295 0.555392 0.384295
O O11 0.500000 0.916637 0.750000
O O12 0.587244 0.856817 0.498271
O O13 0.091707 0.372108 0.284793
O O14 0.500000 0.041468 0.750000
#
# Coordination Sequence:
#
# PCOD9266265 Si02
#       6
#     8   8   8   8   8   8
#     4  12  21  37  58  87 117 151 191 244 292 343
#     4  12  23  35  55  88 122 152 185 238 303 344
#     4  10  20  34  59  87 115 150 197 240 282 351
#     4  10  19  37  62  88 114 153 200 243 286 341
#     4  11  22  36  59  88 117 148 196 243 291 348
#     4  11  19  37  59  86 114 150 196 237 287 349
#
# _framework density 18.704236000000002
#
# number of rings (size 3 to 8) (size 9 to 14) (size 15 to 20)
#    0.000    1.000    5.000    5.000    0.000    0.667 
#    0.000    0.833    0.000    0.000    0.000    0.000 
#    0.000    0.000    0.000    0.000    0.000    0.000 
#
# Total GULP energy -133998.748423 kJ/mol
# GULP energy per Si atom -5583.281184 kJ/mol
# Density = 1.866166 g / cm^3
# Si number density = 18.704236 Si / 1000 Ang^3
#
#
#
# Elastic Constant Matrix: (Units=GPa)
#
#
# Indices 1 2 3 4 5 6 
#
# 1 29.6894 19.1803 19.6922 0.0000 5.9109 0.0000
# 2 19.1803 109.4867 37.5661 0.0000 13.8386 0.0000
# 3 19.6922 37.5661 53.7732 0.0000 17.5904 0.0000
# 4 0.0000 0.0000 0.0000 21.2616 0.0000 1.2352
# 5 5.9109 13.8386 17.5904 0.0000 36.0382 0.0000
# 6 0.0000 0.0000 0.0000 1.2352 0.0000 30.1775
#
#
#
# Elastic Compliance Matrix: (Units=1/GPa)
#
#
# Indices 1 2 3 4 5 6 
#
# 1 0.045225 -0.002964 -0.014800 0.000000 0.000944 0.000000
# 2 -0.002964 0.012219 -0.007229 0.000000 -0.000677 0.000000
# 3 -0.014800 -0.007229 0.032564 0.000000 -0.010691 0.000000
# 4 0.000000 0.000000 0.000000 0.047145 0.000000 -0.001930
# 5 0.000944 -0.000677 -0.010691 0.000000 0.033072 0.000000
# 6 0.000000 0.000000 0.000000 -0.001930 0.000000 0.033216
#
#
# Mechanical properties :
#
#
# Convention : Reuss Voigt Hill
#
# Bulk Modulus (GPa) = 24.98635 38.42515 31.70575
# Shear Modulus (GPa) = 18.74281 25.26284 22.00282
#
# Velocity S-wave (km/s) = 3.16897 3.67910 3.43352
# Velocity P-wave (km/s) = 5.17470 6.21578 5.71898
#
# Compressibility (1/GPa) = 0.04002185
#
# Stress axis : x y z
#
# Youngs Moduli (GPa) = 22.11145 81.84141 30.70865
#
# Poissons Ratio (x) = 0.24258 0.45449
# Poissons Ratio (y) = 0.06554 0.22199
# Poissons Ratio (z) = 0.32725 0.59164
#
# Static dielectric constant tensor:
#      x y z
#    x 1.669240 0.000000 0.023700 
#    y 0.000000 1.700380 0.000000 
#    z 0.023700 0.000000 1.654570 
# 
# From -- ./inp_files/90620.got.cif
#   From: 2010.05.17/outbox.cif.g08.bks.cpg/sg15_46_cif.got.tgz:90620.got - 2010.06.03 18:47:42.
