data_PCOD9266160
_publ_section_title
;
Structure prediction by ZEFSAII (Michael W. Deem and Ramdas Pophale) SiO2 
 PCOD9266160
Probable space group: C 2/C
;
_chemical_formula_sum "Si O2"
_cell_formula_units_Z 48
_cell_length_a 14.481534
_cell_length_b 12.520274
_cell_length_c 14.390921
_cell_angle_alpha 90.000000
_cell_angle_beta 112.530493
_cell_angle_gamma 90.000000
_cell_volume 2410.108121
_symmetry_space_group_name_H-M "C 2/C"
_symmetry_group_IT_number 15
_symmetry_cell_setting 'monoclinic'
loop_
_space_group_symop_operation_xyz
x,y,z
-x,y,1/2-z
-x,-y,-z
x,-y,1/2+z
1/2+x,1/2+y,z
1/2-x,1/2+y,1/2-z
1/2-x,1/2-y,-z
1/2+x,1/2-y,1/2+z
loop_
_atom_site_type_symbol
_atom_site_label
_atom_site_fract_x
_atom_site_fract_y
_atom_site_fract_z
Si Si1 0.397014 0.361303 0.263724
Si Si2 0.271330 0.373044 0.032181
Si Si3 0.676859 0.490086 0.617642
Si Si4 0.812364 0.687427 0.603107
Si Si5 0.222198 0.665644 0.200107
Si Si6 0.102874 0.538706 0.996747
O O1 0.500000 0.345271 0.250000
O O2 0.315510 0.386049 0.152212
O O3 0.401510 0.455924 0.341874
O O4 0.357447 0.253763 0.297129
O O5 0.167820 0.438652 0.985980
O O6 0.250000 0.250000 0.000000
O O7 0.346669 0.427138 0.986344
O O8 0.744663 0.590438 0.613895
O O9 0.740255 0.406055 0.701718
O O10 0.750000 0.750000 0.500000
O O11 0.815570 0.771470 0.688335
O O12 0.904012 0.628519 0.587349
O O13 0.168722 0.593089 0.102810
O O14 0.000000 0.500000 0.000000
#
# Coordination Sequence:
#
# PCOD9266160 Si02
#       6
#     8   8   8   8   8   8
#     4  11  24  39  61  90 118 158 202 243 300 363
#     4  11  22  39  61  88 123 153 196 251 300 349
#     4  10  20  38  62  84 117 160 193 243 300 351
#     4   8  18  35  55  82 114 158 190 234 296 349
#     4  10  19  37  61  81 122 158 195 238 301 362
#     4  10  21  37  62  90 117 155 204 248 298 353
#
# _framework density 19.916118000000001
#
# number of rings (size 3 to 8) (size 9 to 14) (size 15 to 20)
#    0.000    2.000    3.333    0.000    2.333    0.667 
#    0.000    1.667    0.000    0.000    0.000    0.000 
#    0.000    0.000    0.000    0.000    0.000    0.000 
#
# Total GULP energy -133750.533004 kJ/mol
# GULP energy per Si atom -5572.938875 kJ/mol
# Density = 1.987079 g / cm^3
# Si number density = 19.916118 Si / 1000 Ang^3
#
#
#
# Elastic Constant Matrix: (Units=GPa)
#
#
# Indices 1 2 3 4 5 6 
#
# 1 97.1231 45.2298 8.4919 0.0000 -28.2501 0.0000
# 2 45.2298 130.5652 39.6952 0.0000 -21.5756 0.0000
# 3 8.4919 39.6952 57.8520 0.0000 -25.5012 0.0000
# 4 0.0000 0.0000 0.0000 49.6789 0.0000 -19.0360
# 5 -28.2501 -21.5756 -25.5012 0.0000 27.5087 0.0000
# 6 0.0000 0.0000 0.0000 -19.0360 0.0000 27.0319
#
#
#
# Elastic Compliance Matrix: (Units=1/GPa)
#
#
# Indices 1 2 3 4 5 6 
#
# 1 0.020771 -0.006753 0.014631 0.000000 0.029597 0.000000
# 2 -0.006753 0.011970 -0.010383 0.000000 -0.007172 0.000000
# 3 0.014631 -0.010383 0.042775 0.000000 0.046535 0.000000
# 4 0.000000 0.000000 0.000000 0.027568 0.000000 0.019414
# 5 0.029597 -0.007172 0.046535 0.000000 0.104261 0.000000
# 6 0.000000 0.000000 0.000000 0.019414 0.000000 0.050665
#
#
# Mechanical properties :
#
#
# Convention : Reuss Voigt Hill
#
# Bulk Modulus (GPa) = 14.18323 52.48602 33.33463
# Shear Modulus (GPa) = 17.45072 33.65212 25.55142
#
# Velocity S-wave (km/s) = 2.96330 4.11505 3.58572
# Velocity P-wave (km/s) = 4.34110 6.99921 5.82383
#
# Compressibility (1/GPa) = 0.07050578
#
# Stress axis : x y z
#
# Youngs Moduli (GPa) = 48.14506 83.54314 23.37808
#
# Poissons Ratio (x) = 0.56413 -0.34205
# Poissons Ratio (y) = 0.32510 0.24274
# Poissons Ratio (z) = -0.70441 0.86746
#
# Static dielectric constant tensor:
#      x y z
#    x 1.704450 0.000000 -0.043510 
#    y 0.000000 1.750030 0.000000 
#    z -0.043510 0.000000 1.733210 
# 
# From -- ./inp_files/151928.got.cif
#   From: 2010.05.17/outbox.cif.g08.bks.cpg/sg15_76_cif.got.tgz:151928.got - 2010.06.03 18:47:42.
