data_PCOD9266904
_publ_section_title
;
Structure prediction by ZEFSAII (Michael W. Deem and Ramdas Pophale) SiO2 
 PCOD9266904
Probable space group: C 2/C
;
_chemical_formula_sum "Si O2"
_cell_formula_units_Z 44
_cell_length_a 5.171359
_cell_length_b 22.008850
_cell_length_c 17.943838
_cell_angle_alpha 90.000000
_cell_angle_beta 120.976431
_cell_angle_gamma 90.000000
_cell_volume 1751.016615
_symmetry_space_group_name_H-M "C 2/C"
_symmetry_group_IT_number 15
_symmetry_cell_setting 'monoclinic'
loop_
_space_group_symop_operation_xyz
x,y,z
-x,y,1/2-z
-x,-y,-z
x,-y,1/2+z
1/2+x,1/2+y,z
1/2-x,1/2+y,1/2-z
1/2-x,1/2-y,-z
1/2+x,1/2-y,1/2+z
loop_
_atom_site_type_symbol
_atom_site_label
_atom_site_fract_x
_atom_site_fract_y
_atom_site_fract_z
Si Si1 0.500000 0.847635 0.750000
Si Si2 0.762497 0.073534 0.887431
Si Si3 0.082079 0.643191 0.097007
Si Si4 0.008482 0.747996 0.831115
Si Si5 0.761565 0.639785 0.890140
Si Si6 0.668106 0.535152 0.438379
O O1 0.537414 0.873127 0.838762
O O2 0.784593 0.803717 0.785767
O O3 0.420441 0.091237 0.857389
O O4 0.917780 0.123563 0.857657
O O5 0.894031 0.067509 0.991498
O O6 0.898233 0.010574 0.877520
O O7 0.186532 0.714218 0.108290
O O8 0.316363 0.588447 0.118845
O O9 0.891432 0.635931 0.993170
O O10 0.870722 0.703550 0.872289
O O11 0.000000 0.716423 0.750000
O O12 0.000000 0.500000 0.500000
#
# Coordination Sequence:
#
# PCOD9266904 Si02
#       6
#     4   8   8   8   8   8
#     4  10  24  40  62  90 134 172 212 258 332 372
#     4  10  21  36  62 100 122 162 204 260 317 367
#     4  10  22  39  64  97 123 171 213 266 317 385
#     4  10  24  43  60  92 128 174 209 270 326 380
#     4  11  23  39  68  97 124 164 217 264 317 386
#     4  10  19  38  62  96 131 158 206 264 318 373
#
# _framework density 25.128260999999998
#
# number of rings (size 3 to 8) (size 9 to 14) (size 15 to 20)
#    0.000    1.818    3.636    0.545   10.182    0.727 
#    0.000    0.000    2.000    2.182    0.000    0.000 
#    0.000    0.000    0.000    0.000    0.000    0.000 
#
# Total GULP energy -122503.074310 kJ/mol
# GULP energy per Si atom -5568.321560 kJ/mol
# Density = 2.507107 g / cm^3
# Si number density = 25.128261 Si / 1000 Ang^3
#
#
#
# Elastic Constant Matrix: (Units=GPa)
#
#
# Indices 1 2 3 4 5 6 
#
# 1 145.6705 49.8527 51.8928 0.0000 -44.9338 0.0000
# 2 49.8527 109.6133 45.4477 0.0000 -24.1060 0.0000
# 3 51.8928 45.4477 91.7243 0.0000 -34.4279 0.0000
# 4 0.0000 0.0000 0.0000 -17.1309 0.0000 -18.0240
# 5 -44.9338 -24.1060 -34.4279 0.0000 39.7109 0.0000
# 6 0.0000 0.0000 0.0000 -18.0240 0.0000 17.7404
#
#
#
# Elastic Compliance Matrix: (Units=1/GPa)
#
#
# Indices 1 2 3 4 5 6 
#
# 1 0.011293 -0.002311 -0.001444 0.000000 0.010123 0.000000
# 2 -0.002311 0.012204 -0.004359 0.000000 0.001015 0.000000
# 3 -0.001444 -0.004359 0.018192 0.000000 0.011492 0.000000
# 4 0.000000 0.000000 0.000000 -0.028214 0.000000 -0.028665
# 5 0.010123 0.001015 0.011492 0.000000 0.047216 0.000000
# 6 0.000000 0.000000 0.000000 -0.028665 0.000000 0.027245
#
#
# Mechanical properties :
#
#
# Convention : Reuss Voigt Hill
#
# Bulk Modulus (GPa) = 39.27455 71.26606 55.27030
# Shear Modulus (GPa) = 44.38489 21.38509 32.88499
#
# Velocity S-wave (km/s) = 4.20734 2.92042 3.62150
# Velocity P-wave (km/s) = 6.26624 6.30827 6.28729
#
# Compressibility (1/GPa) = 0.02546178
#
# Stress axis : x y z
#
# Youngs Moduli (GPa) = 88.55249 81.93765 54.96791
#
# Poissons Ratio (x) = 0.18935 0.07938
# Poissons Ratio (y) = 0.20464 0.23959
# Poissons Ratio (z) = 0.12789 0.35715
#
# Static dielectric constant tensor:
#      x y z
#    x 3.074220 0.000000 0.661440 
#    y 0.000000 2.052550 0.000000 
#    z 0.661440 0.000000 2.427580 
# 
# From -- ./inp_files/184971.got.cif
#   From: 2010.05.17/outbox.cif.g08.bks.cpg/sg15_93_cif.got.tgz:184971.got - 2010.06.03 18:47:42.
