data_PCOD9266186
_publ_section_title
;
Structure prediction by ZEFSAII (Michael W. Deem and Ramdas Pophale) SiO2 
 PCOD9266186
Probable space group: C 2/C
;
_chemical_formula_sum "Si O2"
_cell_formula_units_Z 60
_cell_length_a 9.264248
_cell_length_b 24.018612
_cell_length_c 23.997993
_cell_angle_alpha 90.000000
_cell_angle_beta 144.756081
_cell_angle_gamma 90.000000
_cell_volume 3081.433886
_symmetry_space_group_name_H-M "C 2/C"
_symmetry_group_IT_number 15
_symmetry_cell_setting 'monoclinic'
loop_
_space_group_symop_operation_xyz
x,y,z
-x,y,1/2-z
-x,-y,-z
x,-y,1/2+z
1/2+x,1/2+y,z
1/2-x,1/2+y,1/2-z
1/2-x,1/2-y,-z
1/2+x,1/2-y,1/2+z
loop_
_atom_site_type_symbol
_atom_site_label
_atom_site_fract_x
_atom_site_fract_y
_atom_site_fract_z
Si Si1 0.274024 0.458117 0.943963
Si Si2 0.952665 0.964981 0.325290
Si Si3 0.634357 0.657302 0.680016
Si Si4 0.000000 0.484717 0.750000
Si Si5 0.690017 0.253874 0.357931
Si Si6 0.896065 0.472987 0.394280
Si Si7 0.989647 0.650465 0.600229
Si Si8 0.013546 0.838512 0.018459
O O1 0.090158 0.453015 0.832974
O O2 0.118845 0.486489 0.945030
O O3 0.500000 0.500000 0.000000
O O4 0.381079 0.397343 0.986941
O O5 0.009369 0.900876 0.356383
O O6 0.784881 0.971203 0.217026
O O7 0.218475 0.991292 0.389715
O O8 0.753445 0.983046 0.310207
O O9 0.479499 0.706854 0.657674
O O10 0.869223 0.647564 0.795163
O O11 0.659307 0.671215 0.622773
O O12 0.500000 0.231504 0.250000
O O13 0.891287 0.296404 0.393373
O O14 0.819895 0.208299 0.437706
O O15 0.977980 0.407914 0.422395
O O16 0.703690 0.656890 0.526954
#
# Coordination Sequence:
#
# PCOD9266186 Si02
#       8
#     8   8   8   4   8   8   8   8
#     4  11  22  37  55  87 123 158 200 241 293 356
#     4   9  17  32  60  84 110 146 196 248 295 332
#     4  10  20  35  59  89 111 144 196 259 297 336
#     4  10  22  36  58  86 118 156 200 236 292 366
#     4  10  22  40  60  84 115 158 199 241 307 359
#     4   9  17  34  56  84 117 151 194 246 295 344
#     4  10  19  37  61  87 114 149 203 253 294 349
#     4  12  23  35  58  87 123 154 197 242 301 358
#
# _framework density 19.471454999999999
#
# number of rings (size 3 to 8) (size 9 to 14) (size 15 to 20)
#    0.000    1.867    2.667    2.000    4.667    0.000 
#    0.000    4.000    0.000    0.000   10.400    0.000 
#    0.000    0.000    0.000    0.000    0.000    0.000 
#
# Total GULP energy -167099.472377 kJ/mol
# GULP energy per Si atom -5569.982413 kJ/mol
# Density = 1.942714 g / cm^3
# Si number density = 19.471455 Si / 1000 Ang^3
#
#
#
# Elastic Constant Matrix: (Units=GPa)
#
#
# Indices 1 2 3 4 5 6 
#
# 1 115.1213 22.9664 19.3290 -0.0030 14.3217 -0.0015
# 2 22.9664 76.2722 26.8769 -0.0016 6.9362 -0.0004
# 3 19.3290 26.8769 46.6667 -0.0024 -6.1907 -0.0022
# 4 -0.0030 -0.0016 -0.0024 27.4024 -0.0020 1.5675
# 5 14.3217 6.9362 -6.1907 -0.0020 43.5827 -0.0014
# 6 -0.0015 -0.0004 -0.0022 1.5675 -0.0014 12.0667
#
#
#
# Elastic Compliance Matrix: (Units=1/GPa)
#
#
# Indices 1 2 3 4 5 6 
#
# 1 0.010057 -0.001328 -0.003884 0.000000 -0.003645 0.000000
# 2 -0.001328 0.017353 -0.009940 0.000000 -0.003737 -0.000002
# 3 -0.003884 -0.009940 0.029701 0.000002 0.007077 0.000005
# 4 0.000000 0.000000 0.000002 0.036766 0.000002 -0.004776
# 5 -0.003645 -0.003737 0.007077 0.000002 0.025743 0.000003
# 6 0.000000 -0.000002 0.000005 -0.004776 0.000003 0.083493
#
#
# Mechanical properties :
#
#
# Convention : Reuss Voigt Hill
#
# Bulk Modulus (GPa) = 37.30409 41.82274 39.56342
# Shear Modulus (GPa) = 20.63096 27.86956 24.25026
#
# Velocity S-wave (km/s) = 3.25860 3.78736 3.53289
# Velocity P-wave (km/s) = 5.77563 6.37582 6.08313
#
# Compressibility (1/GPa) = 0.02680671
#
# Stress axis : x y z
#
# Youngs Moduli (GPa) = 99.43235 57.62561 33.66882
#
# Poissons Ratio (x) = 0.07653 0.13078
# Poissons Ratio (y) = 0.13205 0.33467
# Poissons Ratio (z) = 0.38622 0.57280
#
# Static dielectric constant tensor:
#      x y z
#    x 1.727240 0.000000 -0.016410 
#    y 0.000000 1.648210 0.000000 
#    z -0.016410 0.000000 1.744980 
# 
# From -- ./inp_files/234582.got.cif
#   From: 2010.05.17/outbox.cif.g08.bks.cpg/sg15_118_cif.got.tgz:234582.got - 2010.06.03 18:47:42.
