data_PCOD9266434
_publ_section_title
;
Structure prediction by ZEFSAII (Michael W. Deem and Ramdas Pophale) SiO2 
 PCOD9266434
Probable space group: C 2/C
;
_chemical_formula_sum "Si O2"
_cell_formula_units_Z 36
_cell_length_a 6.863345
_cell_length_b 18.317808
_cell_length_c 14.459364
_cell_angle_alpha 90.000000
_cell_angle_beta 115.568700
_cell_angle_gamma 90.000000
_cell_volume 1639.826913
_symmetry_space_group_name_H-M "C 2/C"
_symmetry_group_IT_number 15
_symmetry_cell_setting 'monoclinic'
loop_
_space_group_symop_operation_xyz
x,y,z
-x,y,1/2-z
-x,-y,-z
x,-y,1/2+z
1/2+x,1/2+y,z
1/2-x,1/2+y,1/2-z
1/2-x,1/2-y,-z
1/2+x,1/2-y,1/2+z
loop_
_atom_site_type_symbol
_atom_site_label
_atom_site_fract_x
_atom_site_fract_y
_atom_site_fract_z
Si Si1 0.303554 0.313046 0.113599
Si Si2 0.229010 0.361978 0.290685
Si Si3 0.542068 0.889311 0.572516
Si Si4 0.500000 0.182115 0.250000
Si Si5 0.758972 0.029330 0.958180
O O1 0.265318 0.371982 0.188527
O O2 0.319653 0.236189 0.169580
O O3 0.547946 0.325735 0.128211
O O4 0.112289 0.326984 0.004045
O O5 0.779401 0.586413 0.465490
O O6 0.201569 0.431451 0.350291
O O7 0.000000 0.320251 0.250000
O O8 0.601950 0.863295 0.687162
O O9 0.391676 0.960013 0.555024
O O10 0.000000 0.000000 0.000000
#
# Coordination Sequence:
#
# PCOD9266434 Si02
#       5
#     8   8   8   4   8
#     4  10  22  41  65  89 131 179 218 265 325 392
#     4  10  19  37  64  94 121 171 217 256 328 396
#     4  11  23  41  64  95 131 173 216 276 333 385
#     4  10  24  42  64  94 134 174 226 272 318 390
#     4  11  23  39  67  96 129 164 216 279 333 390
#
# _framework density 21.953537000000001
#
# number of rings (size 3 to 8) (size 9 to 14) (size 15 to 20)
#    0.000    1.778    4.444    0.667    1.556    0.000 
#    0.000   13.333    0.000    0.000    0.000    0.000 
#    0.000    0.000    0.000    0.000    0.000    0.000 
#
# Total GULP energy -100381.378281 kJ/mol
# GULP energy per Si atom -5576.743238 kJ/mol
# Density = 2.190357 g / cm^3
# Si number density = 21.953537 Si / 1000 Ang^3
#
#
#
# Elastic Constant Matrix: (Units=GPa)
#
#
# Indices 1 2 3 4 5 6 
#
# 1 145.2165 29.2272 40.2948 0.0000 -9.2362 0.0000
# 2 29.2272 67.5858 50.3183 0.0000 -8.3256 0.0000
# 3 40.2948 50.3183 136.9230 0.0000 -19.9974 0.0000
# 4 0.0000 0.0000 0.0000 50.1036 0.0000 -3.2742
# 5 -9.2362 -8.3256 -19.9974 0.0000 20.0432 0.0000
# 6 0.0000 0.0000 0.0000 -3.2742 0.0000 14.7578
#
#
#
# Elastic Compliance Matrix: (Units=1/GPa)
#
#
# Indices 1 2 3 4 5 6 
#
# 1 0.007778 -0.002257 -0.001256 0.000000 0.001393 0.000000
# 2 -0.002257 0.021047 -0.006960 0.000000 0.000759 0.000000
# 3 -0.001256 -0.006960 0.011382 0.000000 0.007887 0.000000
# 4 0.000000 0.000000 0.000000 0.020252 0.000000 0.004493
# 5 0.001393 0.000759 0.007887 0.000000 0.058718 0.000000
# 6 0.000000 0.000000 0.000000 0.004493 0.000000 0.068758
#
#
# Mechanical properties :
#
#
# Convention : Reuss Voigt Hill
#
# Bulk Modulus (GPa) = 51.91473 65.48954 58.70213
# Shear Modulus (GPa) = 23.22335 32.30659 27.76497
#
# Velocity S-wave (km/s) = 3.25598 3.84029 3.56014
# Velocity P-wave (km/s) = 6.15094 7.03985 6.61035
#
# Compressibility (1/GPa) = 0.01926236
#
# Stress axis : x y z
#
# Youngs Moduli (GPa) = 128.57422 47.51300 87.85424
#
# Poissons Ratio (x) = 0.10722 0.11035
# Poissons Ratio (y) = 0.29014 0.61144
# Poissons Ratio (z) = 0.16150 0.33067
#
# Static dielectric constant tensor:
#      x y z
#    x 1.843470 0.000000 0.022440 
#    y 0.000000 1.856350 0.000000 
#    z 0.022440 0.000000 1.922840 
# 
# From -- ./inp_files/132854.got.cif
#   From: 2010.05.17/outbox.cif.g08.bks.cpg/sg15_67_cif.got.tgz:132854.got - 2010.06.03 18:47:42.
