data_PCOD9266726
_publ_section_title
;
Structure prediction by ZEFSAII (Michael W. Deem and Ramdas Pophale) SiO2 
 PCOD9266726
Probable space group: C 2/C
;
_chemical_formula_sum "Si O2"
_cell_formula_units_Z 48
_cell_length_a 14.670811
_cell_length_b 19.342132
_cell_length_c 9.717234
_cell_angle_alpha 90.000000
_cell_angle_beta 100.473627
_cell_angle_gamma 90.000000
_cell_volume 2711.466551
_symmetry_space_group_name_H-M "C 2/C"
_symmetry_group_IT_number 15
_symmetry_cell_setting 'monoclinic'
loop_
_space_group_symop_operation_xyz
x,y,z
-x,y,1/2-z
-x,-y,-z
x,-y,1/2+z
1/2+x,1/2+y,z
1/2-x,1/2+y,1/2-z
1/2-x,1/2-y,-z
1/2+x,1/2-y,1/2+z
loop_
_atom_site_type_symbol
_atom_site_label
_atom_site_fract_x
_atom_site_fract_y
_atom_site_fract_z
Si Si1 0.307598 0.297857 0.113963
Si Si2 0.500000 0.351073 0.750000
Si Si3 0.000000 0.910246 0.250000
Si Si4 0.487876 0.291305 0.445984
Si Si5 0.302595 0.578709 0.215743
Si Si6 0.699064 0.220388 0.119754
Si Si7 0.322720 0.546784 0.542169
O O1 0.414852 0.280336 0.105178
O O2 0.277729 0.274556 0.254972
O O3 0.288946 0.377807 0.080332
O O4 0.250000 0.250000 0.000000
O O5 0.508511 0.309225 0.609889
O O6 0.594254 0.394030 0.789672
O O7 0.048000 0.860032 0.147717
O O8 0.072858 0.952124 0.362892
O O9 0.412090 0.230848 0.423154
O O10 0.235511 0.645043 0.175840
O O11 0.311760 0.549075 0.374221
O O12 0.276035 0.518144 0.102692
O O13 0.750000 0.250000 0.000000
#
# Coordination Sequence:
#
# PCOD9266726 Si02
#       7
#     8   4   4   8   8   8   8
#     4  11  21  43  63  89 118 165 209 264 315 368
#     4  12  21  38  56  94 126 163 208 252 317 382
#     4  10  19  38  60  82 118 171 198 246 323 384
#     4  11  21  37  63  91 122 159 210 258 316 366
#     4  12  26  37  58  90 132 168 204 256 317 387
#     4  12  23  38  62  91 122 164 215 257 304 374
#     4  11  24  38  55  88 127 165 204 253 322 379
#
# _framework density 17.702597999999998
#
# number of rings (size 3 to 8) (size 9 to 14) (size 15 to 20)
#    0.000    0.667   10.000    0.500    4.667    1.333 
#    0.000    0.000    0.000    1.000    0.000    0.000 
#    0.000    0.000    0.000    0.000    0.000    0.000 
#
# Total GULP energy -133719.891893 kJ/mol
# GULP energy per Si atom -5571.662162 kJ/mol
# Density = 1.766231 g / cm^3
# Si number density = 17.702598 Si / 1000 Ang^3
#
#
#
# Elastic Constant Matrix: (Units=GPa)
#
#
# Indices 1 2 3 4 5 6 
#
# 1 51.4488 38.3434 22.7119 0.0000 -5.3224 0.0000
# 2 38.3434 93.4679 27.8723 0.0000 -4.2749 0.0000
# 3 22.7119 27.8723 142.9115 0.0000 -19.8464 0.0000
# 4 0.0000 0.0000 0.0000 34.9498 0.0000 0.3234
# 5 -5.3224 -4.2749 -19.8464 0.0000 25.4071 0.0000
# 6 0.0000 0.0000 0.0000 0.3234 0.0000 18.6185
#
#
#
# Elastic Compliance Matrix: (Units=1/GPa)
#
#
# Indices 1 2 3 4 5 6 
#
# 1 0.028906 -0.011124 -0.002068 0.000000 0.002569 0.000000
# 2 -0.011124 0.015641 -0.001392 0.000000 -0.000786 0.000000
# 3 -0.002068 -0.001392 0.008418 0.000000 0.005908 0.000000
# 4 0.000000 0.000000 0.000000 0.028617 0.000000 -0.000497
# 5 0.002569 -0.000786 0.005908 0.000000 0.044380 0.000000
# 6 0.000000 0.000000 0.000000 -0.000497 0.000000 0.053719
#
#
# Mechanical properties :
#
#
# Convention : Reuss Voigt Hill
#
# Bulk Modulus (GPa) = 42.01998 51.74259 46.88128
# Shear Modulus (GPa) = 23.06489 29.05513 26.06001
#
# Velocity S-wave (km/s) = 3.61350 4.05568 3.84096
# Velocity P-wave (km/s) = 6.41857 7.15707 6.79785
#
# Compressibility (1/GPa) = 0.02379820
#
# Stress axis : x y z
#
# Youngs Moduli (GPa) = 34.59541 63.93311 118.79522
#
# Poissons Ratio (x) = 0.71119 0.24561
# Poissons Ratio (y) = 0.38484 0.16534
# Poissons Ratio (z) = 0.07153 0.08898
#
# Static dielectric constant tensor:
#      x y z
#    x 1.628050 0.000000 0.019260 
#    y 0.000000 1.623660 0.000000 
#    z 0.019260 0.000000 1.601070 
# 
# From -- ./inp_files/39687.got.cif
#   From: 2010.05.17/outbox.cif.g08.bks.cpg/sg15_20_cif.got.tgz:39687.got - 2010.06.03 18:47:42.
