data_PCOD9266502
_publ_section_title
;
Structure prediction by ZEFSAII (Michael W. Deem and Ramdas Pophale) SiO2 
 PCOD9266502
Probable space group: C 2/C
;
_chemical_formula_sum "Si O2"
_cell_formula_units_Z 32
_cell_length_a 17.735411
_cell_length_b 8.111022
_cell_length_c 19.015216
_cell_angle_alpha 90.000000
_cell_angle_beta 152.095527
_cell_angle_gamma 90.000000
_cell_volume 1280.155852
_symmetry_space_group_name_H-M "C 2/C"
_symmetry_group_IT_number 15
_symmetry_cell_setting 'monoclinic'
loop_
_space_group_symop_operation_xyz
x,y,z
-x,y,1/2-z
-x,-y,-z
x,-y,1/2+z
1/2+x,1/2+y,z
1/2-x,1/2+y,1/2-z
1/2-x,1/2-y,-z
1/2+x,1/2-y,1/2+z
loop_
_atom_site_type_symbol
_atom_site_label
_atom_site_fract_x
_atom_site_fract_y
_atom_site_fract_z
Si Si1 0.840313 0.425913 0.069876
Si Si2 0.693287 0.763144 0.735458
Si Si3 0.605312 0.546032 0.980469
Si Si4 0.475606 0.832448 0.041481
O O1 0.709351 0.547918 0.994952
O O2 0.000000 0.423529 0.250000
O O3 0.899691 0.446975 0.039117
O O4 0.750000 0.250000 0.000000
O O5 0.564164 0.639837 0.663087
O O6 0.786353 0.868169 0.870383
O O7 0.596268 0.857970 0.594769
O O8 0.833201 0.674399 0.806432
O O9 0.569505 0.357123 0.973080
#
# Coordination Sequence:
#
# PCOD9266502 Si02
#       4
#     8   8   8   8
#     4  10  21  41  65  93 126 165 215 269 317 378
#     4  10  19  37  65  97 128 163 209 270 326 372
#     4  10  22  40  63  96 134 167 215 269 322 389
#     4  10  20  38  65  96 124 167 220 266 315 385
#
# _framework density 24.996956999999998
#
# number of rings (size 3 to 8) (size 9 to 14) (size 15 to 20)
#    0.000    2.000    0.000    6.000    0.000    0.000 
#    0.000   42.500    0.000    1.500    0.000    1.750 
#    0.000    0.000    0.000    0.000    0.000    0.000 
#
# Total GULP energy -89670.364899 kJ/mol
# GULP energy per Si atom -5604.397806 kJ/mol
# Density = 2.494006 g / cm^3
# Si number density = 24.996957 Si / 1000 Ang^3
#
#
#
# Elastic Constant Matrix: (Units=GPa)
#
#
# Indices 1 2 3 4 5 6 
#
# 1 222.6053 42.5814 67.7695 0.0001 45.3595 0.0000
# 2 42.5814 78.3467 34.6224 0.0002 12.2717 0.0000
# 3 67.7695 34.6224 140.8456 0.0003 42.8368 0.0001
# 4 0.0001 0.0002 0.0003 34.2996 0.0000 14.4027
# 5 45.3595 12.2717 42.8368 0.0000 38.7274 0.0000
# 6 0.0000 0.0000 0.0001 14.4027 0.0000 46.6078
#
#
#
# Elastic Compliance Matrix: (Units=1/GPa)
#
#
# Indices 1 2 3 4 5 6 
#
# 1 0.006340 -0.002205 -0.000697 0.000000 -0.005956 0.000000
# 2 -0.002205 0.015110 -0.002988 0.000000 0.001099 0.000000
# 3 -0.000697 -0.002988 0.011504 0.000000 -0.010961 0.000000
# 4 0.000000 0.000000 0.000000 0.033502 0.000000 -0.010353
# 5 -0.005956 0.001099 -0.010961 0.000000 0.044573 0.000000
# 6 0.000000 0.000000 0.000000 -0.010353 0.000000 0.024655
#
#
# Mechanical properties :
#
#
# Convention : Reuss Voigt Hill
#
# Bulk Modulus (GPa) = 47.22723 81.30492 64.26607
# Shear Modulus (GPa) = 32.35809 43.71526 38.03668
#
# Velocity S-wave (km/s) = 3.60179 4.18643 3.90507
# Velocity P-wave (km/s) = 6.01925 7.48096 6.78956
#
# Compressibility (1/GPa) = 0.02117423
#
# Stress axis : x y z
#
# Youngs Moduli (GPa) = 157.73349 66.18025 86.92994
#
# Poissons Ratio (x) = 0.14591 0.06060
# Poissons Ratio (y) = 0.34776 0.25973
# Poissons Ratio (z) = 0.10996 0.19773
#
# Static dielectric constant tensor:
#      x y z
#    x 1.977520 0.000000 0.005790 
#    y 0.000000 2.077870 0.000000 
#    z 0.005790 0.000000 1.914260 
# 
# From -- ./inp_files/53461.got.cif
#   From: 2010.05.17/outbox.cif.g08.bks.cpg/sg15_27_cif.got.tgz:53461.got - 2010.06.03 18:47:42.
