data_PCOD9266083
_publ_section_title
;
Structure prediction by ZEFSAII (Michael W. Deem and Ramdas Pophale) SiO2 
 PCOD9266083
Probable space group: C 2/C
;
_chemical_formula_sum "Si O2"
_cell_formula_units_Z 56
_cell_length_a 11.842645
_cell_length_b 16.540818
_cell_length_c 12.244237
_cell_angle_alpha 90.000000
_cell_angle_beta 73.161340
_cell_angle_gamma 90.000000
_cell_volume 2295.650364
_symmetry_space_group_name_H-M "C 2/C"
_symmetry_group_IT_number 15
_symmetry_cell_setting 'monoclinic'
loop_
_space_group_symop_operation_xyz
x,y,z
-x,y,1/2-z
-x,-y,-z
x,-y,1/2+z
1/2+x,1/2+y,z
1/2-x,1/2+y,1/2-z
1/2-x,1/2-y,-z
1/2+x,1/2-y,1/2+z
loop_
_atom_site_type_symbol
_atom_site_label
_atom_site_fract_x
_atom_site_fract_y
_atom_site_fract_z
Si Si1 0.630826 0.270918 0.598494
Si Si2 0.430682 0.260002 0.478393
Si Si3 0.500000 0.583675 0.250000
Si Si4 0.248117 0.729588 0.220693
Si Si5 0.779230 0.951979 0.682252
Si Si6 0.391952 0.911451 0.941299
Si Si7 0.573807 0.947255 0.322993
Si Si8 0.000000 0.810558 0.250000
O O1 0.750000 0.250000 0.500000
O O2 0.533059 0.245857 0.538018
O O3 0.580076 0.359442 0.648533
O O4 0.663360 0.238038 0.710388
O O5 0.315701 0.267141 0.586215
O O6 0.422879 0.180537 0.403348
O O7 0.452364 0.333465 0.387130
O O8 0.589398 0.539043 0.307785
O O9 0.233117 0.633390 0.246512
O O10 0.125794 0.775463 0.258365
O O11 0.734281 0.940309 0.570116
O O12 0.699437 0.024612 0.745045
O O13 0.401225 0.909127 0.068251
O O14 0.489595 0.974504 0.871334
O O15 0.500000 0.902659 0.250000
#
# Coordination Sequence:
#
# PCOD9266083 Si02
#       8
#     8   8   4   8   8   8   8   4
#     4  11  21  36  55  84 126 158 202 242 297 365
#     4  12  22  36  58  89 125 157 200 246 301 363
#     4  10  22  38  60  89 119 166 202 244 296 382
#     4  11  22  36  56  88 119 160 197 237 300 367
#     4  10  19  37  60  83 115 154 199 243 298 367
#     4  10  21  34  61  86 115 152 198 260 296 353
#     4   9  20  38  58  87 114 150 206 250 308 354
#     4  12  22  32  54  83 121 162 192 234 292 364
#
# _framework density 24.393958000000001
#
# number of rings (size 3 to 8) (size 9 to 14) (size 15 to 20)
#    0.000    1.429    5.714    1.286    4.000    1.143 
#    0.000    0.714    0.000    0.857    0.000    0.000 
#    0.000    0.000    0.000    0.000    0.000    0.000 
#
# Total GULP energy -155869.008559 kJ/mol
# GULP energy per Si atom -5566.750306 kJ/mol
# Density = 2.433844 g / cm^3
# Si number density = 24.393958 Si / 1000 Ang^3
#
#
#
# Elastic Constant Matrix: (Units=GPa)
#
#
# Indices 1 2 3 4 5 6 
#
# 1 206.7299 14.4130 52.6708 0.0000 32.9003 0.0000
# 2 14.4130 26.8358 1.2500 0.0000 3.4721 0.0000
# 3 52.6708 1.2500 152.0494 0.0000 21.7379 0.0000
# 4 0.0000 0.0000 0.0000 7.3449 0.0000 3.5576
# 5 32.9003 3.4721 21.7379 0.0000 62.9527 0.0000
# 6 0.0000 0.0000 0.0000 3.5576 0.0000 27.7226
#
#
#
# Elastic Compliance Matrix: (Units=1/GPa)
#
#
# Indices 1 2 3 4 5 6 
#
# 1 0.005821 -0.002749 -0.001663 0.000000 -0.002316 0.000000
# 2 -0.002749 0.038830 0.000772 0.000000 -0.000971 0.000000
# 3 -0.001663 0.000772 0.007393 0.000000 -0.001727 0.000000
# 4 0.000000 0.000000 0.000000 0.145173 0.000000 -0.018630
# 5 -0.002316 -0.000971 -0.001727 0.000000 0.017745 0.000000
# 6 0.000000 0.000000 0.000000 -0.018630 0.000000 0.038462
#
#
# Mechanical properties :
#
#
# Convention : Reuss Voigt Hill
#
# Bulk Modulus (GPa) = 22.33914 58.03139 40.18526
# Shear Modulus (GPa) = 18.14052 40.75612 29.44832
#
# Velocity S-wave (km/s) = 2.72995 4.09191 3.47824
# Velocity P-wave (km/s) = 4.37200 6.79455 5.71315
#
# Compressibility (1/GPa) = 0.04476449
#
# Stress axis : x y z
#
# Youngs Moduli (GPa) = 171.78605 25.75331 135.25802
#
# Poissons Ratio (x) = 0.07080 0.22490
# Poissons Ratio (y) = 0.47229 -0.10442
# Poissons Ratio (z) = 0.28563 -0.01988
#
# Static dielectric constant tensor:
#      x y z
#    x 1.876450 0.000000 0.191180 
#    y 0.000000 2.039450 0.000000 
#    z 0.191180 0.000000 1.649880 
# 
# From -- ./inp_files/89599.got.cif
#   From: 2010.05.17/outbox.cif.g08.bks.cpg/sg15_45_cif.got.tgz:89599.got - 2010.06.03 18:47:42.
