data_PCOD9266003
_publ_section_title
;
Structure prediction by ZEFSAII (Michael W. Deem and Ramdas Pophale) SiO2 
 PCOD9266003
Probable space group: C 2/C
;
_chemical_formula_sum "Si O2"
_cell_formula_units_Z 48
_cell_length_a 10.139961
_cell_length_b 9.362129
_cell_length_c 24.408972
_cell_angle_alpha 90.000000
_cell_angle_beta 89.356280
_cell_angle_gamma 90.000000
_cell_volume 2317.037083
_symmetry_space_group_name_H-M "C 2/C"
_symmetry_group_IT_number 15
_symmetry_cell_setting 'monoclinic'
loop_
_space_group_symop_operation_xyz
x,y,z
-x,y,1/2-z
-x,-y,-z
x,-y,1/2+z
1/2+x,1/2+y,z
1/2-x,1/2+y,1/2-z
1/2-x,1/2-y,-z
1/2+x,1/2-y,1/2+z
loop_
_atom_site_type_symbol
_atom_site_label
_atom_site_fract_x
_atom_site_fract_y
_atom_site_fract_z
Si Si1 0.113455 0.542834 0.294278
Si Si2 0.966660 0.070306 0.665179
Si Si3 0.098225 0.210427 0.510704
Si Si4 0.812706 0.170640 0.759262
Si Si5 0.892973 0.319928 0.592141
Si Si6 0.596295 0.591684 0.074707
O O1 0.197165 0.682038 0.273510
O O2 0.187210 0.393451 0.288786
O O3 0.078873 0.574202 0.357277
O O4 0.000000 0.537993 0.250000
O O5 0.861829 0.052529 0.714160
O O6 0.896911 0.161011 0.618167
O O7 0.074513 0.171998 0.694668
O O8 0.044191 0.941760 0.636417
O O9 0.250000 0.250000 0.500000
O O10 0.010115 0.319453 0.547337
O O11 0.012573 0.184503 0.456388
O O12 0.101959 0.060686 0.543684
O O13 0.744606 0.348313 0.572599
#
# Coordination Sequence:
#
# PCOD9266003 Si02
#       6
#     8   8   8   8   8   8
#     4  11  21  38  59  87 123 161 199 247 302 362
#     4   9  18  36  59  81 115 160 191 243 300 354
#     4  10  23  39  59  89 116 153 198 255 305 355
#     4  10  19  37  59  84 121 158 199 242 298 361
#     4  10  19  37  64  82 117 161 199 246 305 354
#     4  10  20  39  62  84 117 154 201 246 301 360
#
# _framework density 20.716111999999999
#
# number of rings (size 3 to 8) (size 9 to 14) (size 15 to 20)
#    0.000    2.000    5.000    0.500    0.000    2.000 
#    3.000    3.333    0.000    0.000    0.000    0.000 
#    0.000    0.000    0.000    0.000    0.000    0.000 
#
# Total GULP energy -133723.732535 kJ/mol
# GULP energy per Si atom -5571.822189 kJ/mol
# Density = 2.066896 g / cm^3
# Si number density = 20.716112 Si / 1000 Ang^3
#
#
#
# Elastic Constant Matrix: (Units=GPa)
#
#
# Indices 1 2 3 4 5 6 
#
# 1 120.7253 18.8076 33.6270 0.0000 9.9389 0.0000
# 2 18.8076 19.1680 7.2503 0.0000 -1.2294 0.0000
# 3 33.6270 7.2503 57.8414 0.0000 11.0184 0.0000
# 4 0.0000 0.0000 0.0000 10.0173 0.0000 -3.2520
# 5 9.9389 -1.2294 11.0184 0.0000 27.6678 0.0000
# 6 0.0000 0.0000 0.0000 -3.2520 0.0000 32.0543
#
#
#
# Elastic Compliance Matrix: (Units=1/GPa)
#
#
# Indices 1 2 3 4 5 6 
#
# 1 0.011330 -0.009416 -0.004925 0.000000 -0.002527 0.000000
# 2 -0.009416 0.063404 -0.003954 0.000000 0.007774 0.000000
# 3 -0.004925 -0.003954 0.022014 0.000000 -0.007173 0.000000
# 4 0.000000 0.000000 0.000000 0.103227 0.000000 0.010473
# 5 -0.002527 0.007774 -0.007173 0.000000 0.040253 0.000000
# 6 0.000000 0.000000 0.000000 0.010473 0.000000 0.032259
#
#
# Mechanical properties :
#
#
# Convention : Reuss Voigt Hill
#
# Bulk Modulus (GPa) = 16.62326 35.23384 25.92855
# Shear Modulus (GPa) = 15.19150 23.15120 19.17135
#
# Velocity S-wave (km/s) = 2.71092 3.34660 3.04539
# Velocity P-wave (km/s) = 4.22381 5.65489 4.99091
#
# Compressibility (1/GPa) = 0.06015667
#
# Stress axis : x y z
#
# Youngs Moduli (GPa) = 88.26020 15.77189 45.42528
#
# Poissons Ratio (x) = 0.14851 0.22373
# Poissons Ratio (y) = 0.83108 0.17962
# Poissons Ratio (z) = 0.43471 0.06237
#
# Static dielectric constant tensor:
#      x y z
#    x 1.773500 0.000000 -0.010230 
#    y 0.000000 1.756910 0.000000 
#    z -0.010230 0.000000 1.768740 
# 
# From -- ./inp_files/263196.got.cif
#   From: 2010.05.17/outbox.cif.g08.bks.cpg/sg15_132_cif.got.tgz:263196.got - 2010.06.03 18:47:42.
