data_PCOD9266453
_publ_section_title
;
Structure prediction by ZEFSAII (Michael W. Deem and Ramdas Pophale) SiO2 
 PCOD9266453
Probable space group: C 2/C
;
_chemical_formula_sum "Si O2"
_cell_formula_units_Z 60
_cell_length_a 15.683864
_cell_length_b 19.267330
_cell_length_c 8.936359
_cell_angle_alpha 90.000000
_cell_angle_beta 92.168936
_cell_angle_gamma 90.000000
_cell_volume 2698.509573
_symmetry_space_group_name_H-M "C 2/C"
_symmetry_group_IT_number 15
_symmetry_cell_setting 'monoclinic'
loop_
_space_group_symop_operation_xyz
x,y,z
-x,y,1/2-z
-x,-y,-z
x,-y,1/2+z
1/2+x,1/2+y,z
1/2-x,1/2+y,1/2-z
1/2-x,1/2-y,-z
1/2+x,1/2-y,1/2+z
loop_
_atom_site_type_symbol
_atom_site_label
_atom_site_fract_x
_atom_site_fract_y
_atom_site_fract_z
Si Si1 0.094446 0.843200 0.774128
Si Si2 0.271124 0.939539 0.331870
Si Si3 0.299685 0.355679 0.431723
Si Si4 0.503497 0.115615 0.466619
Si Si5 0.500000 0.205930 0.750000
Si Si6 0.370182 0.004179 0.573533
Si Si7 0.151235 0.699003 0.127461
Si Si8 0.744744 0.325310 0.569193
O O1 0.152076 0.846215 0.629600
O O2 0.000000 0.874008 0.750000
O O3 0.074543 0.760566 0.800294
O O4 0.143774 0.873521 0.919159
O O5 0.204533 0.913493 0.199145
O O6 0.284055 0.996217 0.466781
O O7 0.272984 0.872979 0.435895
O O8 0.347935 0.964558 0.232145
O O9 0.206207 0.334192 0.492865
O O10 0.337200 0.282148 0.375230
O O11 0.529737 0.157345 0.617542
O O12 0.580140 0.069163 0.407537
O O13 0.445618 0.172867 0.379947
O O14 0.434210 0.057092 0.501628
O O15 0.196659 0.673065 0.280658
O O16 0.750000 0.250000 0.500000
#
# Coordination Sequence:
#
# PCOD9266453 Si02
#       8
#     8   8   8   8   4   8   8   8
#     4   9  21  40  71 111 137 177 228 304 405 431
#     4  12  26  46  63  94 145 191 257 301 342 443
#     4  10  19  37  69  97 135 184 239 313 372 411
#     4  11  22  40  64  97 150 203 247 273 351 446
#     4  10  20  38  74 102 150 182 226 302 366 438
#     4  11  28  42  64  95 142 215 246 281 345 431
#     4  10  19  37  64  99 131 185 250 305 361 422
#     4  11  24  39  69 100 137 190 243 310 373 427
#
# _framework density 22.234496
#
# number of rings (size 3 to 8) (size 9 to 14) (size 15 to 20)
#    0.400    1.067    4.000    0.800    5.600    1.600 
#    0.000    0.667    0.000    0.000    0.000    9.333 
#    0.000    0.000    0.000    0.000    0.000    0.000 
#
# Total GULP energy -167238.816003 kJ/mol
# GULP energy per Si atom -5574.627200 kJ/mol
# Density = 2.218389 g / cm^3
# Si number density = 22.234496 Si / 1000 Ang^3
#
#
#
# Elastic Constant Matrix: (Units=GPa)
#
#
# Indices 1 2 3 4 5 6 
#
# 1 101.7734 30.0011 48.2221 0.0000 4.0727 0.0000
# 2 30.0011 61.0551 30.3318 0.0000 -13.2090 0.0000
# 3 48.2221 30.3318 121.6828 0.0000 -2.1069 0.0000
# 4 0.0000 0.0000 0.0000 50.3047 0.0000 0.6191
# 5 4.0727 -13.2090 -2.1069 0.0000 25.7024 0.0000
# 6 0.0000 0.0000 0.0000 0.6191 0.0000 41.8717
#
#
#
# Elastic Compliance Matrix: (Units=1/GPa)
#
#
# Indices 1 2 3 4 5 6 
#
# 1 0.013716 -0.005927 -0.004054 0.000000 -0.005552 0.000000
# 2 -0.005927 0.023736 -0.003345 0.000000 0.012863 0.000000
# 3 -0.004054 -0.003345 0.010655 0.000000 -0.000203 0.000000
# 4 0.000000 0.000000 0.000000 0.019882 0.000000 -0.000294
# 5 -0.005552 0.012863 -0.000203 0.000000 0.046380 0.000000
# 6 0.000000 0.000000 0.000000 -0.000294 0.000000 0.023887
#
#
# Mechanical properties :
#
#
# Convention : Reuss Voigt Hill
#
# Bulk Modulus (GPa) = 46.61039 55.73570 51.17305
# Shear Modulus (GPa) = 29.05959 35.30617 32.18288
#
# Velocity S-wave (km/s) = 3.61911 3.98917 3.80864
# Velocity P-wave (km/s) = 6.20263 6.80732 6.51200
#
# Compressibility (1/GPa) = 0.02145444
#
# Stress axis : x y z
#
# Youngs Moduli (GPa) = 72.90755 42.13090 93.85147
#
# Poissons Ratio (x) = 0.24969 0.38051
# Poissons Ratio (y) = 0.43209 0.31395
# Poissons Ratio (z) = 0.29559 0.14093
#
# Static dielectric constant tensor:
#      x y z
#    x 1.894520 0.000000 0.023650 
#    y 0.000000 1.878500 0.000000 
#    z 0.023650 0.000000 1.875780 
# 
# From -- ./inp_files/49090.got.cif
#   From: 2010.05.17/outbox.cif.g08.bks.cpg/sg15_25_cif.got.tgz:49090.got - 2010.06.03 18:47:42.
