data_PCOD9266312
_publ_section_title
;
Structure prediction by ZEFSAII (Michael W. Deem and Ramdas Pophale) SiO2 
 PCOD9266312
Probable space group: C 2/C
;
_chemical_formula_sum "Si O2"
_cell_formula_units_Z 60
_cell_length_a 7.819593
_cell_length_b 19.164327
_cell_length_c 17.638394
_cell_angle_alpha 90.000000
_cell_angle_beta 92.722261
_cell_angle_gamma 90.000000
_cell_volume 2640.258090
_symmetry_space_group_name_H-M "C 2/C"
_symmetry_group_IT_number 15
_symmetry_cell_setting 'monoclinic'
loop_
_space_group_symop_operation_xyz
x,y,z
-x,y,1/2-z
-x,-y,-z
x,-y,1/2+z
1/2+x,1/2+y,z
1/2-x,1/2+y,1/2-z
1/2-x,1/2-y,-z
1/2+x,1/2-y,1/2+z
loop_
_atom_site_type_symbol
_atom_site_label
_atom_site_fract_x
_atom_site_fract_y
_atom_site_fract_z
Si Si1 0.053099 0.773623 0.983044
Si Si2 0.630926 0.742303 0.184300
Si Si3 0.925635 0.368414 0.518260
Si Si4 0.191549 0.078396 0.509493
Si Si5 0.244907 0.595239 0.327457
Si Si6 0.993298 0.003655 0.624106
Si Si7 0.221873 0.392712 0.148648
Si Si8 0.000000 0.484456 0.250000
O O1 0.064310 0.854635 0.004864
O O2 0.978546 0.767687 0.896181
O O3 0.250000 0.750000 0.000000
O O4 0.944231 0.715894 0.026643
O O5 0.500000 0.749006 0.250000
O O6 0.746545 0.674395 0.200367
O O7 0.732121 0.814555 0.179776
O O8 0.842868 0.399894 0.591501
O O9 0.815999 0.384850 0.441479
O O10 0.115663 0.398127 0.504504
O O11 0.155819 0.041313 0.588434
O O12 0.131688 0.024583 0.444220
O O13 0.436848 0.565568 0.335879
O O14 0.147283 0.538307 0.276510
O O15 0.887854 0.060646 0.667029
O O16 0.066204 0.434295 0.184724
#
# Coordination Sequence:
#
# PCOD9266312 Si02
#       8
#     8   8   8   8   8   8   8   4
#     4   9  20  38  69 101 135 179 230 287 340 415
#     4  11  25  46  71  99 142 191 230 287 359 428
#     4  10  22  41  69 100 138 181 227 287 344 412
#     4  10  19  37  63 106 137 171 220 283 348 399
#     4  12  27  44  71 106 138 184 236 293 355 413
#     4  11  23  37  67  98 136 171 226 290 338 403
#     4  11  25  46  71  97 139 184 237 283 349 427
#     4  12  28  48  68  98 140 194 230 284 358 434
#
# _framework density 22.725048999999999
#
# number of rings (size 3 to 8) (size 9 to 14) (size 15 to 20)
#    0.000    1.333    2.000    3.200    3.733    4.800 
#    0.000    1.333    0.000    0.000    0.000    0.000 
#    0.000    0.000    0.000    0.000    0.000    0.000 
#
# Total GULP energy -167783.525220 kJ/mol
# GULP energy per Si atom -5592.784174 kJ/mol
# Density = 2.267333 g / cm^3
# Si number density = 22.725049 Si / 1000 Ang^3
#
#
#
# Elastic Constant Matrix: (Units=GPa)
#
#
# Indices 1 2 3 4 5 6 
#
# 1 74.8428 38.2687 1.9246 0.0000 -13.0695 0.0000
# 2 38.2687 186.1103 15.0802 0.0000 -9.4728 0.0000
# 3 1.9246 15.0802 28.7922 0.0000 -6.8075 0.0000
# 4 0.0000 0.0000 0.0000 16.9701 0.0000 -11.5140
# 5 -13.0695 -9.4728 -6.8075 0.0000 21.6036 0.0000
# 6 0.0000 0.0000 0.0000 -11.5140 0.0000 38.9728
#
#
#
# Elastic Compliance Matrix: (Units=1/GPa)
#
#
# Indices 1 2 3 4 5 6 
#
# 1 0.016561 -0.003147 0.002792 0.000000 0.009519 0.000000
# 2 -0.003147 0.006265 -0.003103 0.000000 -0.000135 0.000000
# 3 0.002792 -0.003103 0.039166 0.000000 0.012670 0.000000
# 4 0.000000 0.000000 0.000000 0.073701 0.000000 0.021774
# 5 0.009519 -0.000135 0.012670 0.000000 0.055980 0.000000
# 6 0.000000 0.000000 0.000000 0.021774 0.000000 0.032092
#
#
# Mechanical properties :
#
#
# Convention : Reuss Voigt Hill
#
# Bulk Modulus (GPa) = 18.15687 44.47693 31.31690
# Shear Modulus (GPa) = 20.07722 31.14075 25.60899
#
# Velocity S-wave (km/s) = 2.97557 3.70581 3.36058
# Velocity P-wave (km/s) = 4.45112 6.15832 5.37296
#
# Compressibility (1/GPa) = 0.05507557
#
# Stress axis : x y z
#
# Youngs Moduli (GPa) = 60.38319 159.62136 25.53255
#
# Poissons Ratio (x) = 0.50234 -0.07128
# Poissons Ratio (y) = 0.19003 0.07922
# Poissons Ratio (z) = -0.16858 0.49526
#
# Static dielectric constant tensor:
#      x y z
#    x 1.924160 0.000000 0.042620 
#    y 0.000000 1.849420 0.000000 
#    z 0.042620 0.000000 1.855720 
# 
# From -- ./inp_files/190978.got.cif
#   From: 2010.05.17/outbox.cif.g08.bks.cpg/sg15_96_cif.got.tgz:190978.got - 2010.06.03 18:47:42.
