data_PCOD9266098
_publ_section_title
;
Structure prediction by ZEFSAII (Michael W. Deem and Ramdas Pophale) SiO2 
 PCOD9266098
Probable space group: C 2/C
;
_chemical_formula_sum "Si O2"
_cell_formula_units_Z 48
_cell_length_a 13.909205
_cell_length_b 17.316338
_cell_length_c 9.310415
_cell_angle_alpha 90.000000
_cell_angle_beta 75.244017
_cell_angle_gamma 90.000000
_cell_volume 2168.515671
_symmetry_space_group_name_H-M "C 2/C"
_symmetry_group_IT_number 15
_symmetry_cell_setting 'monoclinic'
loop_
_space_group_symop_operation_xyz
x,y,z
-x,y,1/2-z
-x,-y,-z
x,-y,1/2+z
1/2+x,1/2+y,z
1/2-x,1/2+y,1/2-z
1/2-x,1/2-y,-z
1/2+x,1/2-y,1/2+z
loop_
_atom_site_type_symbol
_atom_site_label
_atom_site_fract_x
_atom_site_fract_y
_atom_site_fract_z
Si Si1 0.000000 0.753526 0.750000
Si Si2 0.622394 0.269924 0.441403
Si Si3 0.441864 0.905843 0.552802
Si Si4 0.809088 0.123710 0.992513
Si Si5 0.500000 0.362347 0.250000
Si Si6 0.691308 0.772178 0.308333
Si Si7 0.872058 0.470467 0.874624
O O1 0.072477 0.796751 0.610104
O O2 0.079170 0.705635 0.812022
O O3 0.599028 0.179639 0.433791
O O4 0.560999 0.310836 0.338821
O O5 0.737905 0.279684 0.357937
O O6 0.390025 0.954845 0.700760
O O7 0.555849 0.912243 0.562689
O O8 0.410782 0.948184 0.418460
O O9 0.745533 0.174489 0.903292
O O10 0.913583 0.099742 0.880532
O O11 0.817714 0.184954 0.121841
O O12 0.741719 0.050258 0.053593
#
# Coordination Sequence:
#
# PCOD9266098 Si02
#       7
#     4   8   8   8   4   8   8
#     4  12  22  34  52  90 126 142 176 252 298 342
#     4  11  21  35  56  85 119 148 190 235 294 346
#     4  10  21  34  55  83 111 154 184 238 278 342
#     4  10  19  37  60  85 110 157 197 233 277 363
#     4  10  20  36  64  88 112 156 198 232 284 350
#     4  10  21  34  57  84 114 153 188 233 297 343
#     4  10  20  35  55  80 115 146 196 227 285 336
#
# _framework density 22.134957
#
# number of rings (size 3 to 8) (size 9 to 14) (size 15 to 20)
#    0.000    1.667    3.333    2.500    2.333    4.000 
#    0.000    0.000    0.000    2.000    0.000    0.000 
#    0.000    0.000    0.000    0.000    0.000    0.000 
#
# Total GULP energy -133904.563226 kJ/mol
# GULP energy per Si atom -5579.356801 kJ/mol
# Density = 2.208458 g / cm^3
# Si number density = 22.134957 Si / 1000 Ang^3
#
#
#
# Elastic Constant Matrix: (Units=GPa)
#
#
# Indices 1 2 3 4 5 6 
#
# 1 130.9017 -1.1329 34.4187 0.0000 -33.4243 0.0000
# 2 -1.1329 8.8772 -1.6273 0.0000 -3.3611 0.0000
# 3 34.4187 -1.6273 133.4403 0.0000 -25.0858 0.0000
# 4 0.0000 0.0000 0.0000 13.4490 0.0000 1.1185
# 5 -33.4243 -3.3611 -25.0858 0.0000 52.1195 0.0000
# 6 0.0000 0.0000 0.0000 1.1185 0.0000 0.8081
#
#
#
# Elastic Compliance Matrix: (Units=1/GPa)
#
#
# Indices 1 2 3 4 5 6 
#
# 1 0.009453 0.003085 -0.001345 0.000000 0.005614 0.000000
# 2 0.003085 0.117643 0.002680 0.000000 0.010855 0.000000
# 3 -0.001345 0.002680 0.008514 0.000000 0.003408 0.000000
# 4 0.000000 0.000000 0.000000 0.084027 0.000000 -0.116299
# 5 0.005614 0.010855 0.003408 0.000000 0.025127 0.000000
# 6 0.000000 0.000000 0.000000 -0.116299 0.000000 1.398399
#
#
# Mechanical properties :
#
#
# Convention : Reuss Voigt Hill
#
# Bulk Modulus (GPa) = 6.92285 37.39291 22.15788
# Shear Modulus (GPa) = 2.97181 29.37936 16.17559
#
# Velocity S-wave (km/s) = 1.15996 3.64714 2.70621
# Velocity P-wave (km/s) = 2.21999 5.88773 4.44937
#
# Compressibility (1/GPa) = 0.14444910
#
# Stress axis : x y z
#
# Youngs Moduli (GPa) = 105.78460 8.50032 117.44850
#
# Poissons Ratio (x) = -0.02623 0.15801
# Poissons Ratio (y) = -0.32638 -0.31470
# Poissons Ratio (z) = 0.14231 -0.02278
#
# Static dielectric constant tensor:
#      x y z
#    x 1.818640 0.000000 -0.026060 
#    y 0.000000 1.779240 0.000000 
#    z -0.026060 0.000000 1.920810 
# 
# From -- ./inp_files/40705.got.cif
#   From: 2010.05.17/outbox.cif.g08.bks.cpg/sg15_21_cif.got.tgz:40705.got - 2010.06.03 18:47:42.
