data_PCOD9266971
_publ_section_title
;
Structure prediction by ZEFSAII (Michael W. Deem and Ramdas Pophale) SiO2 
 PCOD9266971
Probable space group: C 2/C
;
_chemical_formula_sum "Si O2"
_cell_formula_units_Z 44
_cell_length_a 17.739900
_cell_length_b 12.300698
_cell_length_c 28.734504
_cell_angle_alpha 90.000000
_cell_angle_beta 20.532210
_cell_angle_gamma 90.000000
_cell_volume 2199.188051
_symmetry_space_group_name_H-M "C 2/C"
_symmetry_group_IT_number 15
_symmetry_cell_setting 'monoclinic'
loop_
_space_group_symop_operation_xyz
x,y,z
-x,y,1/2-z
-x,-y,-z
x,-y,1/2+z
1/2+x,1/2+y,z
1/2-x,1/2+y,1/2-z
1/2-x,1/2-y,-z
1/2+x,1/2-y,1/2+z
loop_
_atom_site_type_symbol
_atom_site_label
_atom_site_fract_x
_atom_site_fract_y
_atom_site_fract_z
Si Si1 0.496231 0.788764 0.089534
Si Si2 0.687626 0.911156 0.561153
Si Si3 0.538410 0.758597 0.875898
Si Si4 0.000000 0.567416 0.750000
Si Si5 0.742027 0.272076 0.652195
Si Si6 0.880589 0.108842 0.415141
O O1 0.243004 0.804973 0.235910
O O2 0.537631 0.666017 0.084738
O O3 0.610605 0.811120 0.975084
O O4 0.634759 0.854823 0.047335
O O5 0.510395 0.862918 0.628303
O O6 0.820354 0.809873 0.504198
O O7 0.601407 0.988688 0.652102
O O8 0.861381 0.981514 0.431842
O O9 0.618134 0.777886 0.882022
O O10 0.159844 0.651986 0.684229
O O11 0.532088 0.343173 0.787134
#
# Coordination Sequence:
#
# PCOD9266971 Si02
#       6
#     8   8   8   4   8   8
#     4  10  19  38  63  93 123 164 209 266 308 389
#     4  11  24  44  59  95 128 180 203 272 308 392
#     4  10  26  41  60  90 144 161 212 260 332 362
#     4  12  22  40  78  92 122 164 238 256 320 364
#     4  11  21  40  67 101 120 167 208 277 308 389
#     4  10  19  38  65  90 135 154 210 265 330 357
#
# _framework density 20.007382
#
# number of rings (size 3 to 8) (size 9 to 14) (size 15 to 20)
#    0.000    1.455    3.636    2.182    2.545    6.545 
#    0.000    5.455    0.000    0.000    0.000    0.000 
#    0.000    0.000    0.000    0.000    0.000    0.000 
#
# Total GULP energy -122609.984229 kJ/mol
# GULP energy per Si atom -5573.181101 kJ/mol
# Density = 1.996184 g / cm^3
# Si number density = 20.007382 Si / 1000 Ang^3
#
#
#
# Elastic Constant Matrix: (Units=GPa)
#
#
# Indices 1 2 3 4 5 6 
#
# 1 126.1786 28.6623 52.1540 0.0101 -1.4121 -0.0041
# 2 28.6623 39.8498 5.9747 -0.0220 -1.6908 -0.0096
# 3 52.1540 5.9747 74.9524 -0.0184 13.5993 -0.0274
# 4 0.0101 -0.0220 -0.0184 21.9261 0.0043 9.9666
# 5 -1.4121 -1.6908 13.5993 0.0043 44.6236 0.0093
# 6 -0.0041 -0.0096 -0.0274 9.9666 0.0093 27.1141
#
#
#
# Elastic Compliance Matrix: (Units=1/GPa)
#
#
# Indices 1 2 3 4 5 6 
#
# 1 0.013766 -0.008356 -0.009457 -0.000022 0.003001 -0.000004
# 2 -0.008356 0.030588 0.003402 0.000038 -0.000142 -0.000001
# 3 -0.009457 0.003402 0.020834 0.000019 -0.006520 0.000016
# 4 -0.000022 0.000038 0.000019 0.054757 -0.000006 -0.020127
# 5 0.003001 -0.000142 -0.006520 -0.000006 0.024486 -0.000012
# 6 -0.000004 -0.000001 0.000016 -0.020127 -0.000012 0.044280
#
#
# Mechanical properties :
#
#
# Convention : Reuss Voigt Hill
#
# Bulk Modulus (GPa) = 27.49841 46.06254 36.78048
# Shear Modulus (GPa) = 21.77171 29.01207 25.39189
#
# Velocity S-wave (km/s) = 3.30234 3.81211 3.56634
# Velocity P-wave (km/s) = 5.32115 6.51529 5.94826
#
# Compressibility (1/GPa) = 0.03636574
#
# Stress axis : x y z
#
# Youngs Moduli (GPa) = 72.64275 32.69219 47.99806
#
# Poissons Ratio (x) = 0.27318 0.45393
# Poissons Ratio (y) = 0.60701 -0.16328
# Poissons Ratio (z) = 0.68700 -0.11122
#
# Static dielectric constant tensor:
#      x y z
#    x 1.712490 0.000000 0.002720 
#    y 0.000000 1.731100 0.000020 
#    z 0.002720 0.000020 1.735040 
# 
# From -- ./inp_files/167528.got.cif
#   From: 2010.05.17/outbox.cif.g08.bks.cpg/sg15_84_cif.got.tgz:167528.got - 2010.06.03 18:47:42.
