data_PCOD9266234
_publ_section_title
;
Structure prediction by ZEFSAII (Michael W. Deem and Ramdas Pophale) SiO2 
 PCOD9266234
Probable space group: C 2/C
;
_chemical_formula_sum "Si O2"
_cell_formula_units_Z 56
_cell_length_a 17.126626
_cell_length_b 9.617524
_cell_length_c 16.090890
_cell_angle_alpha 90.000000
_cell_angle_beta 107.078993
_cell_angle_gamma 90.000000
_cell_volume 2533.541162
_symmetry_space_group_name_H-M "C 2/C"
_symmetry_group_IT_number 15
_symmetry_cell_setting 'monoclinic'
loop_
_space_group_symop_operation_xyz
x,y,z
-x,y,1/2-z
-x,-y,-z
x,-y,1/2+z
1/2+x,1/2+y,z
1/2-x,1/2+y,1/2-z
1/2-x,1/2-y,-z
1/2+x,1/2-y,1/2+z
loop_
_atom_site_type_symbol
_atom_site_label
_atom_site_fract_x
_atom_site_fract_y
_atom_site_fract_z
Si Si1 0.183167 0.721082 0.815474
Si Si2 0.757892 0.546037 0.443140
Si Si3 0.500000 0.657382 0.250000
Si Si4 0.854822 0.556137 0.118609
Si Si5 0.266126 0.777767 0.353134
Si Si6 0.622094 0.425259 0.524031
Si Si7 0.537106 0.583034 0.633061
Si Si8 0.500000 0.809652 0.750000
O O1 0.233266 0.803961 0.901604
O O2 0.183302 0.557350 0.831424
O O3 0.223688 0.754815 0.740021
O O4 0.086495 0.763320 0.787413
O O5 0.838090 0.513582 0.523727
O O6 0.759232 0.441012 0.365997
O O7 0.685965 0.490091 0.480067
O O8 0.486473 0.555244 0.323570
O O9 0.806214 0.698818 0.120592
O O10 0.945507 0.593862 0.174158
O O11 0.344428 0.713599 0.423476
O O12 0.607619 0.538718 0.591997
O O13 0.540240 0.386857 0.449532
O O14 0.549880 0.705414 0.703998
#
# Coordination Sequence:
#
# PCOD9266234 Si02
#       8
#     8   8   4   8   8   8   8   4
#     4  12  24  42  64  95 133 173 220 266 334 393
#     4  11  23  42  67  93 129 172 219 274 326 390
#     4  11  21  38  64  94 128 172 210 270 310 386
#     4  11  25  42  64  94 131 172 213 280 328 386
#     4  11  23  40  67  94 128 170 222 268 324 391
#     4  10  19  37  62 103 128 165 220 273 319 383
#     4  10  20  35  66  95 130 170 217 263 317 391
#     4  11  23  42  64  96 136 178 226 264 338 392
#
# _framework density 22.103449999999999
#
# number of rings (size 3 to 8) (size 9 to 14) (size 15 to 20)
#    0.000    1.143    2.857    5.143    2.000    2.286 
#    0.000    1.429    0.000    6.000    0.000    0.000 
#    0.000    0.000    0.000    0.000    0.000    0.000 
#
# Total GULP energy -156486.618212 kJ/mol
# GULP energy per Si atom -5588.807793 kJ/mol
# Density = 2.205314 g / cm^3
# Si number density = 22.103450 Si / 1000 Ang^3
#
#
#
# Elastic Constant Matrix: (Units=GPa)
#
#
# Indices 1 2 3 4 5 6 
#
# 1 54.3987 6.3150 29.3612 0.0000 0.0201 0.0000
# 2 6.3150 65.8475 16.3326 0.0000 1.6719 0.0000
# 3 29.3612 16.3326 91.2552 0.0000 -10.8815 0.0000
# 4 0.0000 0.0000 0.0000 23.4315 0.0000 -0.6432
# 5 0.0201 1.6719 -10.8815 0.0000 39.2180 0.0000
# 6 0.0000 0.0000 0.0000 -0.6432 0.0000 17.6046
#
#
#
# Elastic Compliance Matrix: (Units=1/GPa)
#
#
# Indices 1 2 3 4 5 6 
#
# 1 0.022413 -0.000259 -0.007410 0.000000 -0.002057 0.000000
# 2 -0.000259 0.015983 -0.002956 0.000000 -0.001501 0.000000
# 3 -0.007410 -0.002956 0.014362 0.000000 0.004115 0.000000
# 4 0.000000 0.000000 0.000000 0.042720 0.000000 0.001561
# 5 -0.002057 -0.001501 0.004115 0.000000 0.026705 0.000000
# 6 0.000000 0.000000 0.000000 0.001561 0.000000 0.056860
#
#
# Mechanical properties :
#
#
# Convention : Reuss Voigt Hill
#
# Bulk Modulus (GPa) = 31.73900 35.05765 33.39833
# Shear Modulus (GPa) = 23.71936 26.68364 25.20150
#
# Velocity S-wave (km/s) = 3.27938 3.47827 3.38029
# Velocity P-wave (km/s) = 5.36000 5.65918 5.51162
#
# Compressibility (1/GPa) = 0.03150698
#
# Stress axis : x y z
#
# Youngs Moduli (GPa) = 44.61644 62.56706 69.62696
#
# Poissons Ratio (x) = 0.01622 0.51595
# Poissons Ratio (y) = 0.01157 0.20583
# Poissons Ratio (z) = 0.33062 0.18496
#
# Static dielectric constant tensor:
#      x y z
#    x 1.829860 0.000000 0.042490 
#    y 0.000000 1.780290 0.000000 
#    z 0.042490 0.000000 1.854830 
# 
# From -- ./inp_files/209671.got.cif
#   From: 2010.05.17/outbox.cif.g08.bks.cpg/sg15_105_cif.got.tgz:209671.got - 2010.06.03 18:47:42.
