data_PCOD9266487
_publ_section_title
;
Structure prediction by ZEFSAII (Michael W. Deem and Ramdas Pophale) SiO2 
 PCOD9266487
Probable space group: C 2/C
;
_chemical_formula_sum "Si O2"
_cell_formula_units_Z 56
_cell_length_a 8.878032
_cell_length_b 21.203219
_cell_length_c 16.514275
_cell_angle_alpha 90.000000
_cell_angle_beta 52.608932
_cell_angle_gamma 90.000000
_cell_volume 2469.886524
_symmetry_space_group_name_H-M "C 2/C"
_symmetry_group_IT_number 15
_symmetry_cell_setting 'monoclinic'
loop_
_space_group_symop_operation_xyz
x,y,z
-x,y,1/2-z
-x,-y,-z
x,-y,1/2+z
1/2+x,1/2+y,z
1/2-x,1/2+y,1/2-z
1/2-x,1/2-y,-z
1/2+x,1/2-y,1/2+z
loop_
_atom_site_type_symbol
_atom_site_label
_atom_site_fract_x
_atom_site_fract_y
_atom_site_fract_z
Si Si1 0.362487 0.643378 0.460828
Si Si2 0.734847 0.345438 0.269971
Si Si3 0.847091 0.486379 0.477200
Si Si4 0.073124 0.296258 0.568271
Si Si5 0.872677 0.895055 0.481797
Si Si6 0.194863 0.750959 0.626054
Si Si7 0.500000 0.045892 0.750000
Si Si8 0.500000 0.275138 0.250000
O O1 0.236406 0.583309 0.480035
O O2 0.535196 0.617293 0.459797
O O3 0.229254 0.690209 0.557690
O O4 0.426550 0.691018 0.368964
O O5 0.528020 0.359546 0.375878
O O6 0.829552 0.284814 0.280801
O O7 0.683365 0.321297 0.197631
O O8 0.849406 0.407005 0.256372
O O9 0.668107 0.534359 0.534168
O O10 0.000000 0.500000 0.500000
O O11 0.919695 0.488327 0.357896
O O12 0.250000 0.250000 0.500000
O O13 0.165816 0.364147 0.542342
O O14 0.993084 0.272395 0.678766
O O15 0.904435 0.283694 0.562046
#
# Coordination Sequence:
#
# PCOD9266487 Si02
#       8
#     8   8   8   8   8   8   4   4
#     4  10  19  37  65  93 123 173 217 267 324 406
#     4  10  22  40  64 101 131 173 224 289 342 409
#     4  12  27  44  68  99 131 186 231 277 345 409
#     4  11  19  37  61  96 132 169 212 275 336 404
#     4  11  22  42  66  93 135 181 222 269 344 414
#     4   9  18  35  62  98 128 160 216 266 338 396
#     4  12  26  45  64  98 135 170 236 296 328 408
#     4  10  22  35  66 102 129 170 224 276 350 408
#
# _framework density 22.673106000000001
#
# number of rings (size 3 to 8) (size 9 to 14) (size 15 to 20)
#    0.000    1.429    7.143    1.286    2.000    2.857 
#    0.000    0.000    0.000    3.429    0.000    0.000 
#    0.000    0.000    0.000    0.000    0.000    0.000 
#
# Total GULP energy -155939.401136 kJ/mol
# GULP energy per Si atom -5569.264326 kJ/mol
# Density = 2.262150 g / cm^3
# Si number density = 22.673106 Si / 1000 Ang^3
#
#
#
# Elastic Constant Matrix: (Units=GPa)
#
#
# Indices 1 2 3 4 5 6 
#
# 1 120.7134 55.1237 5.9576 0.0000 15.1629 0.0000
# 2 55.1237 136.7672 8.6722 0.0000 8.9016 0.0000
# 3 5.9576 8.6722 31.6978 0.0000 13.2709 0.0000
# 4 0.0000 0.0000 0.0000 23.3655 0.0000 -2.4740
# 5 15.1629 8.9016 13.2709 0.0000 29.1673 0.0000
# 6 0.0000 0.0000 0.0000 -2.4740 0.0000 49.8380
#
#
#
# Elastic Compliance Matrix: (Units=1/GPa)
#
#
# Indices 1 2 3 4 5 6 
#
# 1 0.010692 -0.004066 0.001125 0.000000 -0.004829 0.000000
# 2 -0.004066 0.009053 -0.001780 0.000000 0.000161 0.000000
# 3 0.001125 -0.001780 0.039334 0.000000 -0.017938 0.000000
# 4 0.000000 0.000000 0.000000 0.043024 0.000000 0.002136
# 5 -0.004829 0.000161 -0.017938 0.000000 0.044908 0.000000
# 6 0.000000 0.000000 0.000000 0.002136 0.000000 0.020171
#
#
# Mechanical properties :
#
#
# Convention : Reuss Voigt Hill
#
# Bulk Modulus (GPa) = 20.14686 47.63173 33.88929
# Shear Modulus (GPa) = 25.88388 35.10249 30.49319
#
# Velocity S-wave (km/s) = 3.38244 3.93899 3.67127
# Velocity P-wave (km/s) = 4.91524 6.46074 5.74024
#
# Compressibility (1/GPa) = 0.04963554
#
# Stress axis : x y z
#
# Youngs Moduli (GPa) = 93.52708 110.46001 25.42356
#
# Poissons Ratio (x) = 0.44918 -0.02859
# Poissons Ratio (y) = 0.38032 0.04525
# Poissons Ratio (z) = -0.10519 0.19661
#
# Static dielectric constant tensor:
#      x y z
#    x -0.830500 0.000000 4.938290 
#    y 0.000000 1.861970 0.000000 
#    z 4.938290 0.000000 -6.679190 
# 
# From -- ./inp_files/192063.got.cif
#   From: 2010.05.17/outbox.cif.g08.bks.cpg/sg15_97_cif.got.tgz:192063.got - 2010.06.03 18:47:42.
