data_PCOD9266498
_publ_section_title
;
Structure prediction by ZEFSAII (Michael W. Deem and Ramdas Pophale) SiO2 
 PCOD9266498
Probable space group: C 2/C
;
_chemical_formula_sum "Si O2"
_cell_formula_units_Z 32
_cell_length_a 27.007372
_cell_length_b 8.659581
_cell_length_c 17.842927
_cell_angle_alpha 90.000000
_cell_angle_beta 16.192253
_cell_angle_gamma 90.000000
_cell_volume 1163.679790
_symmetry_space_group_name_H-M "C 2/C"
_symmetry_group_IT_number 15
_symmetry_cell_setting 'monoclinic'
loop_
_space_group_symop_operation_xyz
x,y,z
-x,y,1/2-z
-x,-y,-z
x,-y,1/2+z
1/2+x,1/2+y,z
1/2-x,1/2+y,1/2-z
1/2-x,1/2-y,-z
1/2+x,1/2-y,1/2+z
loop_
_atom_site_type_symbol
_atom_site_label
_atom_site_fract_x
_atom_site_fract_y
_atom_site_fract_z
Si Si1 0.689120 0.356962 0.887963
Si Si2 0.530090 0.676084 0.930759
Si Si3 0.523146 0.917692 0.297946
Si Si4 0.278240 0.383206 0.044020
O O1 0.520250 0.309784 0.083953
O O2 0.839786 0.406610 0.608542
O O3 0.655570 0.505292 0.987423
O O4 0.785240 0.234748 0.802658
O O5 0.380987 0.783092 0.187377
O O6 0.500000 0.500000 0.000000
O O7 0.500000 0.988584 0.250000
O O8 0.592604 0.742402 0.180613
O O9 0.678806 0.981268 0.124090
#
# Coordination Sequence:
#
# PCOD9266498 Si02
#       4
#     8   8   8   8
#     4  11  23  42  66 103 133 179 239 285 342 428
#     4  11  22  37  64  99 136 180 228 281 349 412
#     4  10  19  37  65  96 132 174 228 288 336 411
#     4  10  22  39  64 101 132 176 239 284 340 427
#
# _framework density 27.498975000000002
#
# number of rings (size 3 to 8) (size 9 to 14) (size 15 to 20)
#    0.000    1.500    2.500    4.500    3.500    0.000 
#    0.000    0.000    0.000   24.000    0.000    0.000 
#    0.000    0.000    0.000    0.000    0.000    0.000 
#
# Total GULP energy -89746.012150 kJ/mol
# GULP energy per Si atom -5609.125759 kJ/mol
# Density = 2.743639 g / cm^3
# Si number density = 27.498975 Si / 1000 Ang^3
#
#
#
# Elastic Constant Matrix: (Units=GPa)
#
#
# Indices 1 2 3 4 5 6 
#
# 1 228.7524 46.7587 72.1332 0.0000 -46.0104 0.0000
# 2 46.7587 119.7395 56.8921 0.0000 -5.5415 0.0000
# 3 72.1332 56.8921 112.0623 0.0000 -5.3660 0.0000
# 4 0.0000 0.0000 0.0000 52.1973 0.0000 -10.7004
# 5 -46.0104 -5.5415 -5.3660 0.0000 48.3290 0.0000
# 6 0.0000 0.0000 0.0000 -10.7004 0.0000 46.3661
#
#
#
# Elastic Compliance Matrix: (Units=1/GPa)
#
#
# Indices 1 2 3 4 5 6 
#
# 1 0.006944 -0.000585 -0.003880 0.000000 0.006113 0.000000
# 2 -0.000585 0.011076 -0.005240 0.000000 0.000131 0.000000
# 3 -0.003880 -0.005240 0.013950 0.000000 -0.002746 0.000000
# 4 0.000000 0.000000 0.000000 0.020109 0.000000 0.004641
# 5 0.006113 0.000131 -0.002746 0.000000 0.026222 0.000000
# 6 0.000000 0.000000 0.000000 0.004641 0.000000 0.022639
#
#
# Mechanical properties :
#
#
# Convention : Reuss Voigt Hill
#
# Bulk Modulus (GPa) = 79.62230 90.23580 84.92905
# Shear Modulus (GPa) = 40.14884 48.36315 44.25600
#
# Velocity S-wave (km/s) = 3.82516 4.19827 4.01605
# Velocity P-wave (km/s) = 6.96610 7.50907 7.24267
#
# Compressibility (1/GPa) = 0.01255930
#
# Stress axis : x y z
#
# Youngs Moduli (GPa) = 144.00331 90.28735 71.68505
#
# Poissons Ratio (x) = 0.05285 0.27814
# Poissons Ratio (y) = 0.08429 0.37563
# Poissons Ratio (z) = 0.55874 0.47310
#
# Static dielectric constant tensor:
#      x y z
#    x 2.224520 0.000000 -0.121060 
#    y 0.000000 2.098960 0.000000 
#    z -0.121060 0.000000 2.184340 
# 
# From -- ./inp_files/102279.got.cif
#   From: 2010.05.17/outbox.cif.g08.bks.cpg/sg15_52_cif.got.tgz:102279.got - 2010.06.03 18:47:42.
