data_PCOD9266207
_publ_section_title
;
Structure prediction by ZEFSAII (Michael W. Deem and Ramdas Pophale) SiO2 
 PCOD9266207
Probable space group: C 2/C
;
_chemical_formula_sum "Si O2"
_cell_formula_units_Z 48
_cell_length_a 16.040504
_cell_length_b 8.560634
_cell_length_c 22.842079
_cell_angle_alpha 90.000000
_cell_angle_beta 48.601629
_cell_angle_gamma 90.000000
_cell_volume 2352.859688
_symmetry_space_group_name_H-M "C 2/C"
_symmetry_group_IT_number 15
_symmetry_cell_setting 'monoclinic'
loop_
_space_group_symop_operation_xyz
x,y,z
-x,y,1/2-z
-x,-y,-z
x,-y,1/2+z
1/2+x,1/2+y,z
1/2-x,1/2+y,1/2-z
1/2-x,1/2-y,-z
1/2+x,1/2-y,1/2+z
loop_
_atom_site_type_symbol
_atom_site_label
_atom_site_fract_x
_atom_site_fract_y
_atom_site_fract_z
Si Si1 0.454532 0.422669 0.936587
Si Si2 0.119316 0.157523 0.451090
Si Si3 0.782815 0.538000 0.637515
Si Si4 0.507237 0.123184 0.399822
Si Si5 0.168410 0.624642 0.506503
Si Si6 0.950873 0.898256 0.208913
O O1 0.566411 0.442883 0.922888
O O2 0.432691 0.243006 0.956872
O O3 0.474610 0.479230 0.862186
O O4 0.356808 0.527116 0.010737
O O5 0.206769 0.279637 0.385823
O O6 0.034521 0.269444 0.526632
O O7 0.890088 0.479834 0.624122
O O8 0.781819 0.439661 0.577400
O O9 0.670838 0.528328 0.726537
O O10 0.545492 0.240288 0.331107
O O11 0.397610 0.021279 0.433903
O O12 0.250000 0.750000 0.500000
O O13 0.000000 0.870445 0.250000
#
# Coordination Sequence:
#
# PCOD9266207 Si02
#       6
#     8   8   8   8   8   8
#     4  10  19  37  61  90 120 152 202 250 307 355
#     4   9  18  36  64  88 113 151 206 256 290 358
#     4  11  21  40  64  91 120 162 211 252 302 368
#     4  10  21  41  62  87 121 162 206 255 303 367
#     4  11  21  38  66  94 119 156 208 263 303 355
#     4  11  26  41  56  87 133 168 195 250 324 374
#
# _framework density 20.400707000000001
#
# number of rings (size 3 to 8) (size 9 to 14) (size 15 to 20)
#    0.000    1.667    3.333    2.000    2.333    1.333 
#    0.000   10.833    0.000    0.000    0.000    0.000 
#    0.000    0.000    0.000    0.000    0.000    0.000 
#
# Total GULP energy -133631.653715 kJ/mol
# GULP energy per Si atom -5567.985571 kJ/mol
# Density = 2.035427 g / cm^3
# Si number density = 20.400707 Si / 1000 Ang^3
#
#
#
# Elastic Constant Matrix: (Units=GPa)
#
#
# Indices 1 2 3 4 5 6 
#
# 1 79.1302 17.3397 28.9152 0.0000 2.6889 0.0001
# 2 17.3397 97.0953 21.9283 0.0000 4.1202 0.0001
# 3 28.9152 21.9283 77.2981 0.0000 16.0945 0.0000
# 4 0.0000 0.0000 0.0000 26.7021 0.0000 -0.1418
# 5 2.6889 4.1202 16.0945 0.0000 24.1623 0.0000
# 6 0.0001 0.0001 0.0000 -0.1418 0.0000 29.9090
#
#
#
# Elastic Compliance Matrix: (Units=1/GPa)
#
#
# Indices 1 2 3 4 5 6 
#
# 1 0.014953 -0.001492 -0.005662 0.000000 0.002362 0.000000
# 2 -0.001492 0.011154 -0.002606 0.000000 0.000000 0.000000
# 3 -0.005662 -0.002606 0.018078 0.000000 -0.010967 0.000000
# 4 0.000000 0.000000 0.000000 0.037451 0.000000 0.000178
# 5 0.002362 0.000000 -0.010967 0.000000 0.048429 0.000000
# 6 0.000000 0.000000 0.000000 0.000178 0.000000 0.033436
#
#
# Mechanical properties :
#
#
# Convention : Reuss Voigt Hill
#
# Bulk Modulus (GPa) = 40.54374 43.32111 41.93242
# Shear Modulus (GPa) = 26.14479 28.51073 27.32776
#
# Velocity S-wave (km/s) = 3.58378 3.74242 3.66396
# Velocity P-wave (km/s) = 6.08617 6.32103 6.20471
#
# Compressibility (1/GPa) = 0.02466472
#
# Stress axis : x y z
#
# Youngs Moduli (GPa) = 66.87592 89.65258 55.31647
#
# Poissons Ratio (x) = 0.13375 0.31321
# Poissons Ratio (y) = 0.09977 0.14417
# Poissons Ratio (z) = 0.37866 0.23365
#
# Static dielectric constant tensor:
#      x y z
#    x 1.882090 0.000000 0.003700 
#    y 0.000000 1.827430 0.000000 
#    z 0.003700 0.000000 1.704480 
# 
# From -- ./inp_files/247258.got.cif
#   From: 2010.05.17/outbox.cif.g08.bks.cpg/sg15_124_cif.got.tgz:247258.got - 2010.06.03 18:47:42.
