data_PCOD9266869
_publ_section_title
;
Structure prediction by ZEFSAII (Michael W. Deem and Ramdas Pophale) SiO2 
 PCOD9266869
Probable space group: C 2/C
;
_chemical_formula_sum "Si O2"
_cell_formula_units_Z 40
_cell_length_a 8.549406
_cell_length_b 12.307907
_cell_length_c 23.651600
_cell_angle_alpha 90.000000
_cell_angle_beta 49.112561
_cell_angle_gamma 90.000000
_cell_volume 1881.484911
_symmetry_space_group_name_H-M "C 2/C"
_symmetry_group_IT_number 15
_symmetry_cell_setting 'monoclinic'
loop_
_space_group_symop_operation_xyz
x,y,z
-x,y,1/2-z
-x,-y,-z
x,-y,1/2+z
1/2+x,1/2+y,z
1/2-x,1/2+y,1/2-z
1/2-x,1/2-y,-z
1/2+x,1/2-y,1/2+z
loop_
_atom_site_type_symbol
_atom_site_label
_atom_site_fract_x
_atom_site_fract_y
_atom_site_fract_z
Si Si1 0.200572 0.260571 0.171620
Si Si2 0.828786 0.068433 0.405337
Si Si3 0.156462 0.020116 0.911332
Si Si4 0.910914 0.352762 0.031019
Si Si5 0.106603 0.336590 0.602404
O O1 0.132983 0.153874 0.153085
O O2 0.296294 0.354252 0.109667
O O3 0.390709 0.222078 0.165667
O O4 0.000000 0.305282 0.250000
O O5 0.653290 0.128862 0.485529
O O6 0.712045 0.956647 0.416241
O O7 0.034591 0.030230 0.387294
O O8 0.359927 0.951220 0.876347
O O9 0.000000 0.000000 0.000000
O O10 0.796662 0.242158 0.074443
O O11 0.889703 0.354359 0.966892
#
# Coordination Sequence:
#
# PCOD9266869 Si02
#       5
#     8   8   8   8   8
#     4  11  26  44  59  85 130 177 210 254 318 383
#     4  10  20  37  64  91 125 158 199 258 314 375
#     4  12  22  39  69 100 123 159 212 272 318 366
#     4   9  17  36  62  93 125 152 196 256 320 367
#     4  10  19  38  62  88 128 159 195 261 315 365
#
# _framework density 21.259803999999999
#
# number of rings (size 3 to 8) (size 9 to 14) (size 15 to 20)
#    0.000    1.600    4.000    2.400    0.000    4.800 
#    0.000    0.000    0.000    0.000    0.000    0.000 
#    0.000    0.000    0.000    0.000    0.000    0.000 
#
# Total GULP energy -111665.858758 kJ/mol
# GULP energy per Si atom -5583.292938 kJ/mol
# Density = 2.121142 g / cm^3
# Si number density = 21.259804 Si / 1000 Ang^3
#
#
#
# Elastic Constant Matrix: (Units=GPa)
#
#
# Indices 1 2 3 4 5 6 
#
# 1 16.1723 18.4109 1.0984 0.0000 -6.8924 0.0000
# 2 18.4109 104.4710 9.2066 0.0000 -2.8708 0.0000
# 3 1.0984 9.2066 45.7971 0.0001 -14.2191 0.0000
# 4 0.0000 0.0000 0.0001 18.7337 0.0000 -4.7062
# 5 -6.8924 -2.8708 -14.2191 0.0000 14.2516 0.0000
# 6 0.0000 0.0000 0.0000 -4.7062 0.0000 37.8981
#
#
#
# Elastic Compliance Matrix: (Units=1/GPa)
#
#
# Indices 1 2 3 4 5 6 
#
# 1 0.116803 -0.020695 0.025503 0.000000 0.077765 0.000000
# 2 -0.020695 0.013411 -0.006474 0.000000 -0.013766 0.000000
# 3 0.025503 -0.006474 0.037596 0.000000 0.048540 0.000000
# 4 0.000000 0.000000 0.000000 0.055099 0.000000 0.006842
# 5 0.077765 -0.013766 0.048540 0.000000 0.153432 0.000000
# 6 0.000000 0.000000 0.000000 0.006842 0.000000 0.027236
#
#
# Mechanical properties :
#
#
# Convention : Reuss Voigt Hill
#
# Bulk Modulus (GPa) = 6.07977 24.87469 15.47723
# Shear Modulus (GPa) = 10.82872 23.35830 17.09351
#
# Velocity S-wave (km/s) = 2.25933 3.31827 2.83862
# Velocity P-wave (km/s) = 3.10999 5.13877 4.24730
#
# Compressibility (1/GPa) = 0.16447977
#
# Stress axis : x y z
#
# Youngs Moduli (GPa) = 8.56140 74.56387 26.59869
#
# Poissons Ratio (x) = 1.54309 -0.67835
# Poissons Ratio (y) = 0.17718 0.17219
# Poissons Ratio (z) = -0.21834 0.48271
#
# Static dielectric constant tensor:
#      x y z
#    x 1.807000 0.000000 -0.019910 
#    y 0.000000 1.781830 0.000000 
#    z -0.019910 0.000000 1.814220 
# 
# From -- ./inp_files/229861.got.cif
#   From: 2010.05.17/outbox.cif.g08.bks.cpg/sg15_115_cif.got.tgz:229861.got - 2010.06.03 18:47:42.
