data_PCOD9266166
_publ_section_title
;
Structure prediction by ZEFSAII (Michael W. Deem and Ramdas Pophale) SiO2 
 PCOD9266166
Probable space group: C 2/C
;
_chemical_formula_sum "Si O2"
_cell_formula_units_Z 60
_cell_length_a 10.990467
_cell_length_b 19.011557
_cell_length_c 16.822230
_cell_angle_alpha 90.000000
_cell_angle_beta 74.175557
_cell_angle_gamma 90.000000
_cell_volume 3381.725894
_symmetry_space_group_name_H-M "C 2/C"
_symmetry_group_IT_number 15
_symmetry_cell_setting 'monoclinic'
loop_
_space_group_symop_operation_xyz
x,y,z
-x,y,1/2-z
-x,-y,-z
x,-y,1/2+z
1/2+x,1/2+y,z
1/2-x,1/2+y,1/2-z
1/2-x,1/2-y,-z
1/2+x,1/2-y,1/2+z
loop_
_atom_site_type_symbol
_atom_site_label
_atom_site_fract_x
_atom_site_fract_y
_atom_site_fract_z
Si Si1 0.237267 0.287569 0.296078
Si Si2 0.351347 0.860857 0.762885
Si Si3 0.199359 0.175953 0.545750
Si Si4 0.335432 0.064002 0.420822
Si Si5 0.500000 0.843936 0.250000
Si Si6 0.903558 0.189533 0.617646
Si Si7 0.680038 0.101105 0.578297
Si Si8 0.096060 0.356278 0.918533
O O1 0.269902 0.205997 0.304122
O O2 0.236536 0.327991 0.379117
O O3 0.105788 0.297741 0.274794
O O4 0.346853 0.313368 0.216711
O O5 0.500000 0.840863 0.750000
O O6 0.329486 0.923472 0.827425
O O7 0.327237 0.878154 0.675060
O O8 0.250000 0.250000 0.500000
O O9 0.234606 0.112366 0.482604
O O10 0.050090 0.171939 0.586317
O O11 0.466399 0.099557 0.428887
O O12 0.314858 0.982210 0.437414
O O13 0.423988 0.885527 0.332988
O O14 0.808622 0.140491 0.583652
O O15 0.905262 0.271785 0.591839
O O16 0.642475 0.131280 0.499025
#
# Coordination Sequence:
#
# PCOD9266166 Si02
#       8
#     8   8   8   8   4   8   8   8
#     4  10  19  38  59  91 114 149 199 245 301 348
#     4   9  18  34  58  84 116 151 196 250 294 346
#     4  12  20  36  64  87 112 152 207 250 282 363
#     4  11  22  35  58  90 117 156 202 251 303 352
#     4  10  24  36  60  84 128 152 188 252 302 358
#     4  10  22  39  61  85 120 158 196 254 304 350
#     4  11  24  39  54  90 124 161 193 249 317 359
#     4  10  19  37  61  83 117 161 204 238 295 375
#
# _framework density 17.742419999999999
#
# number of rings (size 3 to 8) (size 9 to 14) (size 15 to 20)
#    0.000    1.600    2.667    3.600    2.800    0.533 
#    2.400    0.000    0.000    0.000    0.000    0.000 
#    0.000    0.000    0.000    0.000    0.000    0.000 
#
# Total GULP energy -167155.602165 kJ/mol
# GULP energy per Si atom -5571.853405 kJ/mol
# Density = 1.770204 g / cm^3
# Si number density = 17.742420 Si / 1000 Ang^3
#
#
#
# Elastic Constant Matrix: (Units=GPa)
#
#
# Indices 1 2 3 4 5 6 
#
# 1 75.6595 16.5725 33.0074 0.0000 -4.7385 0.0000
# 2 16.5725 80.2834 24.6886 0.0000 -2.6487 0.0000
# 3 33.0074 24.6886 96.3945 0.0000 21.5984 0.0000
# 4 0.0000 0.0000 0.0000 15.8933 0.0000 0.9134
# 5 -4.7385 -2.6487 21.5984 0.0000 22.1830 0.0000
# 6 0.0000 0.0000 0.0000 0.9134 0.0000 18.7619
#
#
#
# Elastic Compliance Matrix: (Units=1/GPa)
#
#
# Indices 1 2 3 4 5 6 
#
# 1 0.017926 -0.000612 -0.008727 0.000000 0.012253 0.000000
# 2 -0.000612 0.014286 -0.004863 0.000000 0.006310 0.000000
# 3 -0.008727 -0.004863 0.019384 0.000000 -0.021318 0.000000
# 4 0.000000 0.000000 0.000000 0.063096 0.000000 -0.003072
# 5 0.012253 0.006310 -0.021318 0.000000 0.069207 0.000000
# 6 0.000000 0.000000 0.000000 -0.003072 0.000000 0.053449
#
#
# Mechanical properties :
#
#
# Convention : Reuss Voigt Hill
#
# Bulk Modulus (GPa) = 43.11858 44.54158 43.83008
# Shear Modulus (GPa) = 18.28270 23.23890 20.76080
#
# Velocity S-wave (km/s) = 3.21355 3.62303 3.42442
# Velocity P-wave (km/s) = 6.17450 6.53153 6.35552
#
# Compressibility (1/GPa) = 0.02319186
#
# Stress axis : x y z
#
# Youngs Moduli (GPa) = 55.78567 69.99893 51.58802
#
# Poissons Ratio (x) = 0.04287 0.45019
# Poissons Ratio (y) = 0.03417 0.25087
# Poissons Ratio (z) = 0.48682 0.34040
#
# Static dielectric constant tensor:
#      x y z
#    x 1.613120 0.000000 -0.017750 
#    y 0.000000 1.586240 0.000000 
#    z -0.017750 0.000000 1.644400 
# 
# From -- ./inp_files/145616.got.cif
#   From: 2010.05.17/outbox.cif.g08.bks.cpg/sg15_73_cif.got.tgz:145616.got - 2010.06.03 18:47:42.
