data_PCOD9266602
_publ_section_title
;
Structure prediction by ZEFSAII (Michael W. Deem and Ramdas Pophale) SiO2 
 PCOD9266602
Probable space group: C 2/C
;
_chemical_formula_sum "Si O2"
_cell_formula_units_Z 56
_cell_length_a 18.379622
_cell_length_b 14.193177
_cell_length_c 15.315039
_cell_angle_alpha 90.000000
_cell_angle_beta 35.473688
_cell_angle_gamma 90.000000
_cell_volume 2318.507981
_symmetry_space_group_name_H-M "C 2/C"
_symmetry_group_IT_number 15
_symmetry_cell_setting 'monoclinic'
loop_
_space_group_symop_operation_xyz
x,y,z
-x,y,1/2-z
-x,-y,-z
x,-y,1/2+z
1/2+x,1/2+y,z
1/2-x,1/2+y,1/2-z
1/2-x,1/2-y,-z
1/2+x,1/2-y,1/2+z
loop_
_atom_site_type_symbol
_atom_site_label
_atom_site_fract_x
_atom_site_fract_y
_atom_site_fract_z
Si Si1 0.454443 0.420732 0.890083
Si Si2 0.293635 0.472448 0.794508
Si Si3 0.155898 0.270469 0.689974
Si Si4 0.531878 0.987090 0.071725
Si Si5 0.793053 0.600613 0.785714
Si Si6 0.411425 0.805994 0.017011
Si Si7 0.319882 0.595533 0.944444
O O1 0.500000 0.389040 0.750000
O O2 0.574304 0.418299 0.837196
O O3 0.402928 0.529379 0.926130
O O4 0.329239 0.368139 0.043236
O O5 0.265568 0.531925 0.733702
O O6 0.312781 0.536958 0.861800
O O7 0.158814 0.425244 0.948295
O O8 0.287450 0.243660 0.604835
O O9 0.190673 0.372487 0.616883
O O10 0.130348 0.196315 0.637996
O O11 0.044427 0.260375 0.867600
O O12 0.570916 0.094666 0.052882
O O13 0.402809 0.947899 0.236233
O O14 0.500000 0.000000 0.000000
O O15 0.875670 0.675286 0.651786
#
# Coordination Sequence:
#
# PCOD9266602 Si02
#       7
#     8   8   8   8   8   8   8
#     4  10  21  33  54  79 106 142 187 237 291 321
#     4   9  17  33  51  75 101 146 189 222 278 321
#     4  11  22  33  50  78 120 156 188 214 268 349
#     4   8  16  33  50  70 102 144 190 228 271 315
#     4  10  19  38  53  73 106 148 197 239 275 328
#     4  10  21  35  52  76 109 159 190 225 270 323
#     4  10  21  33  49  81 120 151 183 222 274 340
#
# _framework density 24.153465000000001
#
# number of rings (size 3 to 8) (size 9 to 14) (size 15 to 20)
#    0.000    2.571    2.857    1.286    6.000    1.714 
#    2.571    5.000    0.000    0.000    0.000    1.000 
#    0.000    0.000    0.000    5.714    0.000    0.000 
#
# Total GULP energy -155910.612904 kJ/mol
# GULP energy per Si atom -5568.236175 kJ/mol
# Density = 2.409849 g / cm^3
# Si number density = 24.153465 Si / 1000 Ang^3
#
#
#
# Elastic Constant Matrix: (Units=GPa)
#
#
# Indices 1 2 3 4 5 6 
#
# 1 55.8250 6.3177 45.3082 0.0000 -25.6574 0.0000
# 2 6.3177 22.2324 22.3127 0.0000 3.6169 0.0000
# 3 45.3082 22.3127 236.9956 0.0000 -28.8732 0.0000
# 4 0.0000 0.0000 0.0000 20.9035 0.0000 1.9866
# 5 -25.6574 3.6169 -28.8732 0.0000 38.1924 0.0000
# 6 0.0000 0.0000 0.0000 1.9866 0.0000 16.5866
#
#
#
# Elastic Compliance Matrix: (Units=1/GPa)
#
#
# Indices 1 2 3 4 5 6 
#
# 1 0.029641 -0.008953 -0.002527 0.000000 0.018850 0.000000
# 2 -0.008953 0.055408 -0.005372 0.000000 -0.015323 0.000000
# 3 -0.002527 -0.005372 0.005577 0.000000 0.003027 0.000000
# 4 0.000000 0.000000 0.000000 0.048390 0.000000 -0.005796
# 5 0.018850 -0.015323 0.003027 0.000000 0.042586 0.000000
# 6 0.000000 0.000000 0.000000 -0.005796 0.000000 0.060984
#
#
# Mechanical properties :
#
#
# Convention : Reuss Voigt Hill
#
# Bulk Modulus (GPa) = 17.56807 51.43668 34.50238
# Shear Modulus (GPa) = 16.93403 31.21080 24.07242
#
# Velocity S-wave (km/s) = 2.65070 3.59860 3.16039
# Velocity P-wave (km/s) = 4.08137 6.21358 5.25672
#
# Compressibility (1/GPa) = 0.05692146
#
# Stress axis : x y z
#
# Youngs Moduli (GPa) = 33.73705 18.04807 179.30206
#
# Poissons Ratio (x) = 0.16159 0.45315
# Poissons Ratio (y) = 0.30206 0.96315
# Poissons Ratio (z) = 0.08526 0.09695
#
# Static dielectric constant tensor:
#      x y z
#    x 1.992240 0.000000 -0.025840 
#    y 0.000000 2.126010 0.000000 
#    z -0.025840 0.000000 2.083650 
# 
# From -- ./inp_files/216034.got.cif
#   From: 2010.05.17/outbox.cif.g08.bks.cpg/sg15_109_cif.got.tgz:216034.got - 2010.06.03 18:47:42.
