data_PCOD9266945
_publ_section_title
;
Structure prediction by ZEFSAII (Michael W. Deem and Ramdas Pophale) SiO2 
 PCOD9266945
Probable space group: C 2/C
;
_chemical_formula_sum "Si O2"
_cell_formula_units_Z 52
_cell_length_a 6.777101
_cell_length_b 13.170782
_cell_length_c 21.044378
_cell_angle_alpha 90.000000
_cell_angle_beta 91.410055
_cell_angle_gamma 90.000000
_cell_volume 1877.846476
_symmetry_space_group_name_H-M "C 2/C"
_symmetry_group_IT_number 15
_symmetry_cell_setting 'monoclinic'
loop_
_space_group_symop_operation_xyz
x,y,z
-x,y,1/2-z
-x,-y,-z
x,-y,1/2+z
1/2+x,1/2+y,z
1/2-x,1/2+y,1/2-z
1/2-x,1/2-y,-z
1/2+x,1/2-y,1/2+z
loop_
_atom_site_type_symbol
_atom_site_label
_atom_site_fract_x
_atom_site_fract_y
_atom_site_fract_z
Si Si1 0.973663 0.869119 0.962237
Si Si2 0.037229 0.420781 0.620930
Si Si3 0.322729 0.273790 0.086994
Si Si4 0.755936 0.569243 0.557615
Si Si5 0.260608 0.922117 0.310086
Si Si6 0.714338 0.160496 0.811487
Si Si7 0.000000 0.674810 0.250000
O O1 0.852964 0.844103 0.026198
O O2 0.894730 0.779082 0.917450
O O3 0.897189 0.975826 0.936149
O O4 0.195678 0.881611 0.989890
O O5 0.975544 0.318931 0.584908
O O6 0.957547 0.510804 0.574687
O O7 0.934029 0.393844 0.689206
O O8 0.232843 0.472136 0.651875
O O9 0.351885 0.338912 0.149982
O O10 0.733065 0.647644 0.614572
O O11 0.204293 0.925567 0.236242
O O12 0.480399 0.868737 0.310951
O O13 0.815696 0.259683 0.779045
#
# Coordination Sequence:
#
# PCOD9266945 Si02
#       7
#     8   8   8   8   8   8   4
#     4   9  19  35  61  87 126 163 214 256 310 382
#     4  10  20  35  59  83 124 161 203 260 322 372
#     4  10  19  38  63  90 118 171 211 259 322 384
#     4   9  18  36  56  86 123 165 195 263 312 370
#     4  10  21  41  61  90 131 160 201 278 318 380
#     4  10  21  36  62  88 126 160 206 263 326 374
#     4  12  20  36  64  90 118 170 210 260 322 394
#
# _framework density 27.691295
#
# number of rings (size 3 to 8) (size 9 to 14) (size 15 to 20)
#    0.000    2.154    1.538    2.769    0.000    0.000 
#    0.000   20.000   20.308    0.000    0.000    0.000 
#    0.000    0.000    0.000    0.000    0.000    0.000 
#
# Total GULP energy -144957.481084 kJ/mol
# GULP energy per Si atom -5575.287734 kJ/mol
# Density = 2.762827 g / cm^3
# Si number density = 27.691295 Si / 1000 Ang^3
#
#
#
# Elastic Constant Matrix: (Units=GPa)
#
#
# Indices 1 2 3 4 5 6 
#
# 1 84.7539 23.4129 -9.2443 0.0000 -14.7671 0.0000
# 2 23.4129 119.4443 11.0787 0.0000 -9.6880 0.0000
# 3 -9.2443 11.0787 73.7794 0.0000 23.4591 0.0000
# 4 0.0000 0.0000 0.0000 52.9024 0.0000 2.6489
# 5 -14.7671 -9.6880 23.4591 0.0000 33.6758 0.0000
# 6 0.0000 0.0000 0.0000 2.6489 0.0000 27.8610
#
#
#
# Elastic Compliance Matrix: (Units=1/GPa)
#
#
# Indices 1 2 3 4 5 6 
#
# 1 0.013322 -0.002259 0.000459 0.000000 0.004872 0.000000
# 2 -0.002259 0.009382 -0.002871 0.000000 0.003709 0.000000
# 3 0.000459 -0.002871 0.018293 0.000000 -0.013368 0.000000
# 4 0.000000 0.000000 0.000000 0.018993 0.000000 -0.001806
# 5 0.004872 0.003709 -0.013368 0.000000 0.042210 0.000000
# 6 0.000000 0.000000 0.000000 -0.001806 0.000000 0.036064
#
#
# Mechanical properties :
#
#
# Convention : Reuss Voigt Hill
#
# Bulk Modulus (GPa) = 31.58975 36.49691 34.04333
# Shear Modulus (GPa) = 31.61409 39.73654 35.67531
#
# Velocity S-wave (km/s) = 3.38251 3.79223 3.59321
# Velocity P-wave (km/s) = 5.16602 5.69062 5.43466
#
# Compressibility (1/GPa) = 0.03165583
#
# Stress axis : x y z
#
# Youngs Moduli (GPa) = 75.06500 106.58790 54.66564
#
# Poissons Ratio (x) = 0.24075 -0.02510
# Poissons Ratio (y) = 0.16955 0.15694
# Poissons Ratio (z) = -0.03447 0.30601
#
# Static dielectric constant tensor:
#      x y z
#    x 2.373700 0.000000 0.112800 
#    y 0.000000 2.156720 0.000000 
#    z 0.112800 0.000000 2.191160 
# 
# From -- ./inp_files/263952.got.cif
#   From: 2010.05.17/outbox.cif.g08.bks.cpg/sg15_132_cif.got.tgz:263952.got - 2010.06.03 18:47:42.
