data_PCOD9266251
_publ_section_title
;
Structure prediction by ZEFSAII (Michael W. Deem and Ramdas Pophale) SiO2 
 PCOD9266251
Probable space group: C 2/C
;
_chemical_formula_sum "Si O2"
_cell_formula_units_Z 56
_cell_length_a 13.077946
_cell_length_b 13.673875
_cell_length_c 13.899597
_cell_angle_alpha 90.000000
_cell_angle_beta 77.012864
_cell_angle_gamma 90.000000
_cell_volume 2422.031497
_symmetry_space_group_name_H-M "C 2/C"
_symmetry_group_IT_number 15
_symmetry_cell_setting 'monoclinic'
loop_
_space_group_symop_operation_xyz
x,y,z
-x,y,1/2-z
-x,-y,-z
x,-y,1/2+z
1/2+x,1/2+y,z
1/2-x,1/2+y,1/2-z
1/2-x,1/2-y,-z
1/2+x,1/2-y,1/2+z
loop_
_atom_site_type_symbol
_atom_site_label
_atom_site_fract_x
_atom_site_fract_y
_atom_site_fract_z
Si Si1 0.612900 0.082062 0.054758
Si Si2 0.200298 0.159450 0.412130
Si Si3 0.000000 0.967545 0.750000
Si Si4 0.702765 0.757954 0.798512
Si Si5 0.500000 0.822038 0.750000
Si Si6 0.339731 0.443289 0.142600
Si Si7 0.611522 0.866051 0.989592
Si Si8 0.959150 0.840048 0.945471
O O1 0.713602 0.153193 0.020638
O O2 0.571812 0.108337 0.169992
O O3 0.641389 0.969402 0.029441
O O4 0.509046 0.111284 0.017150
O O5 0.233885 0.218279 0.310406
O O6 0.078506 0.177295 0.456300
O O7 0.207522 0.046894 0.373745
O O8 0.038088 0.897456 0.655447
O O9 0.090132 0.033392 0.778412
O O10 0.578981 0.756519 0.794816
O O11 0.733697 0.649815 0.824551
O O12 0.692536 0.838486 0.885633
O O13 0.407798 0.407816 0.037319
O O14 0.600344 0.763689 0.048463
#
# Coordination Sequence:
#
# PCOD9266251 Si02
#       8
#     8   8   4   8   4   8   8   8
#     4   9  18  35  57  82 116 155 195 244 299 358
#     4  10  20  38  56  91 115 148 208 256 283 357
#     4  10  19  37  62  86 110 162 195 240 293 360
#     4   9  18  36  56  81 113 149 195 240 287 357
#     4   8  15  31  58  74 108 152 193 230 293 356
#     4  10  21  41  61  84 121 161 193 246 307 354
#     4   9  19  38  57  83 117 161 190 237 318 365
#     4  10  22  41  61  86 123 157 207 246 300 367
#
# _framework density 23.121085000000001
#
# number of rings (size 3 to 8) (size 9 to 14) (size 15 to 20)
#    0.000    2.571    0.000    2.143    0.000    2.286 
#   25.714    1.429    0.000    0.000    0.000    0.000 
#    0.000    0.000    0.000    0.000    0.000    0.000 
#
# Total GULP energy -156260.676896 kJ/mol
# GULP energy per Si atom -5580.738461 kJ/mol
# Density = 2.306846 g / cm^3
# Si number density = 23.121085 Si / 1000 Ang^3
#
#
#
# Elastic Constant Matrix: (Units=GPa)
#
#
# Indices 1 2 3 4 5 6 
#
# 1 60.0530 -9.3044 6.6066 0.0000 4.7102 0.0000
# 2 -9.3044 78.4312 8.6026 0.0000 -0.9182 0.0000
# 3 6.6066 8.6026 59.1760 0.0000 -1.9205 0.0000
# 4 0.0000 0.0000 0.0000 15.6878 0.0000 -0.1997
# 5 4.7102 -0.9182 -1.9205 0.0000 29.2379 0.0000
# 6 0.0000 0.0000 0.0000 -0.1997 0.0000 24.7210
#
#
#
# Elastic Compliance Matrix: (Units=1/GPa)
#
#
# Indices 1 2 3 4 5 6 
#
# 1 0.017499 0.002303 -0.002383 0.000000 -0.002903 0.000000
# 2 0.002303 0.013262 -0.002188 0.000000 -0.000098 0.000000
# 3 -0.002383 -0.002188 0.017530 0.000000 0.001467 0.000000
# 4 0.000000 0.000000 0.000000 0.063750 0.000000 0.000515
# 5 -0.002903 -0.000098 0.001467 0.000000 0.034763 0.000000
# 6 0.000000 0.000000 0.000000 0.000515 0.000000 0.040456
#
#
# Mechanical properties :
#
#
# Convention : Reuss Voigt Hill
#
# Bulk Modulus (GPa) = 22.85409 23.27441 23.06425
# Shear Modulus (GPa) = 24.22702 26.71301 25.47002
#
# Velocity S-wave (km/s) = 3.24054 3.40274 3.32263
# Velocity P-wave (km/s) = 4.88952 5.05236 4.97161
#
# Compressibility (1/GPa) = 0.04375585
#
# Stress axis : x y z
#
# Youngs Moduli (GPa) = 57.14728 75.40259 57.04354
#
# Poissons Ratio (x) = -0.17367 0.13591
# Poissons Ratio (y) = -0.13162 0.12483
# Poissons Ratio (z) = 0.13616 0.16500
#
# Static dielectric constant tensor:
#      x y z
#    x 1.958160 0.000000 0.081090 
#    y 0.000000 1.850490 0.000000 
#    z 0.081090 0.000000 1.883040 
# 
# From -- ./inp_files/153431.got.cif
#   From: 2010.05.17/outbox.cif.g08.bks.cpg/sg15_77_cif.got.tgz:153431.got - 2010.06.03 18:47:42.
