data_PCOD9266391
_publ_section_title
;
Structure prediction by ZEFSAII (Michael W. Deem and Ramdas Pophale) SiO2 
 PCOD9266391
Probable space group: C 2/C
;
_chemical_formula_sum "Si O2"
_cell_formula_units_Z 52
_cell_length_a 16.451847
_cell_length_b 12.002840
_cell_length_c 14.241235
_cell_angle_alpha 90.000000
_cell_angle_beta 42.459101
_cell_angle_gamma 90.000000
_cell_volume 1898.414839
_symmetry_space_group_name_H-M "C 2/C"
_symmetry_group_IT_number 15
_symmetry_cell_setting 'monoclinic'
loop_
_space_group_symop_operation_xyz
x,y,z
-x,y,1/2-z
-x,-y,-z
x,-y,1/2+z
1/2+x,1/2+y,z
1/2-x,1/2+y,1/2-z
1/2-x,1/2-y,-z
1/2+x,1/2-y,1/2+z
loop_
_atom_site_type_symbol
_atom_site_label
_atom_site_fract_x
_atom_site_fract_y
_atom_site_fract_z
Si Si1 0.773419 0.005610 0.338987
Si Si2 0.849815 0.966733 0.565142
Si Si3 0.452857 0.694545 0.690272
Si Si4 0.888655 0.538337 0.792984
Si Si5 0.917278 0.223332 0.524819
Si Si6 0.647663 0.722096 0.195349
Si Si7 0.000000 0.500000 0.000000
O O1 0.844442 0.094377 0.346445
O O2 0.628780 0.003189 0.457646
O O3 0.814899 0.057650 0.202413
O O4 0.832638 0.882516 0.299541
O O5 0.731478 0.967033 0.602018
O O6 0.899313 0.090825 0.535306
O O7 0.944968 0.887584 0.436641
O O8 0.500000 0.735517 0.750000
O O9 0.441436 0.775635 0.608786
O O10 0.866430 0.663448 0.851814
O O11 0.919843 0.543138 0.656416
O O12 0.000000 0.486907 0.750000
O O13 0.783805 0.263406 0.615563
O O14 0.032530 0.236704 0.361063
#
# Coordination Sequence:
#
# PCOD9266391 Si02
#       7
#     8   8   8   8   8   8   4
#     4  10  19  37  64  84 115 160 202 244 307 363
#     4   9  18  39  59  80 113 159 204 243 287 360
#     4  11  21  35  61  86 111 152 211 253 286 357
#     4  10  23  38  59  92 127 152 200 251 301 372
#     4  10  20  38  58  84 117 161 202 239 301 373
#     4  11  20  37  62  84 122 160 190 249 310 364
#     4  10  22  40  60  88 120 168 202 242 306 362
#
# _framework density 27.391273000000002
#
# number of rings (size 3 to 8) (size 9 to 14) (size 15 to 20)
#    0.000    1.846    3.077    2.769    2.154    0.615 
#    0.000    3.077    0.000    1.846    0.000    0.000 
#    0.000    0.000    0.000    0.000    0.000    0.000 
#
# Total GULP energy -144871.754939 kJ/mol
# GULP energy per Si atom -5571.990575 kJ/mol
# Density = 2.732893 g / cm^3
# Si number density = 27.391273 Si / 1000 Ang^3
#
#
#
# Elastic Constant Matrix: (Units=GPa)
#
#
# Indices 1 2 3 4 5 6 
#
# 1 169.0503 -1.5409 47.7682 0.0000 -33.5041 0.0000
# 2 -1.5409 51.4035 16.9704 0.0000 -10.7915 0.0000
# 3 47.7682 16.9704 165.4120 0.0000 -15.3693 0.0000
# 4 0.0000 0.0000 0.0000 23.5279 0.0000 -3.2392
# 5 -33.5041 -10.7915 -15.3693 0.0000 64.2566 0.0000
# 6 0.0000 0.0000 0.0000 -3.2392 0.0000 17.6839
#
#
#
# Elastic Compliance Matrix: (Units=1/GPa)
#
#
# Indices 1 2 3 4 5 6 
#
# 1 0.007172 0.001589 -0.001904 0.000000 0.003551 0.000000
# 2 0.001589 0.021051 -0.002263 0.000000 0.003823 0.000000
# 3 -0.001904 -0.002263 0.006852 0.000000 0.000266 0.000000
# 4 0.000000 0.000000 0.000000 0.043602 0.000000 0.007987
# 5 0.003551 0.003823 0.000266 0.000000 0.018120 0.000000
# 6 0.000000 0.000000 0.000000 0.007987 0.000000 0.058012
#
#
# Mechanical properties :
#
#
# Convention : Reuss Voigt Hill
#
# Bulk Modulus (GPa) = 33.42446 56.91792 45.17119
# Shear Modulus (GPa) = 29.42237 42.60488 36.01363
#
# Velocity S-wave (km/s) = 3.28098 3.94816 3.62993
# Velocity P-wave (km/s) = 5.15579 6.45047 5.83913
#
# Compressibility (1/GPa) = 0.02991821
#
# Stress axis : x y z
#
# Youngs Moduli (GPa) = 139.43752 47.50293 145.93570
#
# Poissons Ratio (x) = -0.07549 0.27789
# Poissons Ratio (y) = -0.22158 0.33032
# Poissons Ratio (z) = 0.26551 0.10752
#
# Static dielectric constant tensor:
#      x y z
#    x 2.560600 0.000000 -0.780440 
#    y 0.000000 2.306130 0.000000 
#    z -0.780440 0.000000 4.697940 
# 
# From -- ./inp_files/162465.got.cif
#   From: 2010.05.17/outbox.cif.g08.bks.cpg/sg15_82_cif.got.tgz:162465.got - 2010.06.03 18:47:42.
