data_PCOD9266042
_publ_section_title
;
Structure prediction by ZEFSAII (Michael W. Deem and Ramdas Pophale) SiO2 
 PCOD9266042
Probable space group: C 2/C
;
_chemical_formula_sum "Si O2"
_cell_formula_units_Z 52
_cell_length_a 20.526794
_cell_length_b 15.707886
_cell_length_c 8.688753
_cell_angle_alpha 90.000000
_cell_angle_beta 50.255424
_cell_angle_gamma 90.000000
_cell_volume 2154.108186
_symmetry_space_group_name_H-M "C 2/C"
_symmetry_group_IT_number 15
_symmetry_cell_setting 'monoclinic'
loop_
_space_group_symop_operation_xyz
x,y,z
-x,y,1/2-z
-x,-y,-z
x,-y,1/2+z
1/2+x,1/2+y,z
1/2-x,1/2+y,1/2-z
1/2-x,1/2-y,-z
1/2+x,1/2-y,1/2+z
loop_
_atom_site_type_symbol
_atom_site_label
_atom_site_fract_x
_atom_site_fract_y
_atom_site_fract_z
Si Si1 0.877514 0.778361 0.694270
Si Si2 0.412366 0.111882 0.172655
Si Si3 0.147401 0.071535 0.843659
Si Si4 0.734677 0.131878 0.586676
Si Si5 0.231322 0.941881 0.915213
Si Si6 0.500000 0.747762 0.750000
Si Si7 0.500000 0.972273 0.250000
Si Si8 0.000000 0.139152 0.250000
O O1 0.852210 0.679348 0.747140
O O2 0.926651 0.796821 0.462085
O O3 0.938569 0.805171 0.739326
O O4 0.788087 0.824884 0.868430
O O5 0.311889 0.119027 0.291913
O O6 0.451928 0.194545 0.194255
O O7 0.436329 0.036282 0.256799
O O8 0.454227 0.084569 0.947935
O O9 0.207144 0.137232 0.847357
O O10 0.161987 0.084746 0.644057
O O11 0.054833 0.082967 0.050437
O O12 0.182700 0.979332 0.841790
O O13 0.727493 0.030981 0.582782
#
# Coordination Sequence:
#
# PCOD9266042 Si02
#       8
#     8   8   8   8   8   4   4   4
#     4  10  20  43  60  79 116 159 203 230 285 332
#     4  10  20  34  56  87 125 149 193 224 304 338
#     4   9  20  37  61  87 118 141 192 239 301 336
#     4   8  20  38  64  78 114 161 190 228 285 361
#     4  10  19  37  59  89 115 153 181 241 293 355
#     4  11  24  36  56  90 120 154 189 258 270 351
#     4   9  20  31  50  88 121 156 173 234 282 361
#     4  10  22  43  58  84 109 160 196 248 278 344
#
# _framework density 24.13992
#
# number of rings (size 3 to 8) (size 9 to 14) (size 15 to 20)
#    0.923    1.538    0.000    1.846    6.462    1.231 
#    5.538    0.000    0.000    3.692    0.000    0.000 
#    0.000    0.000    0.000    0.000    0.000    0.000 
#
# Total GULP energy -145168.015294 kJ/mol
# GULP energy per Si atom -5583.385204 kJ/mol
# Density = 2.408498 g / cm^3
# Si number density = 24.139920 Si / 1000 Ang^3
#
#
#
# Elastic Constant Matrix: (Units=GPa)
#
#
# Indices 1 2 3 4 5 6 
#
# 1 72.1507 11.9061 41.2489 0.0000 -0.7013 0.0000
# 2 11.9061 40.8491 12.0988 0.0000 5.5082 0.0000
# 3 41.2489 12.0988 94.2753 0.0000 8.9890 0.0000
# 4 0.0000 0.0000 0.0000 12.5289 0.0000 -6.8394
# 5 -0.7013 5.5082 8.9890 0.0000 36.3839 0.0000
# 6 0.0000 0.0000 0.0000 -6.8394 0.0000 5.3771
#
#
#
# Elastic Compliance Matrix: (Units=1/GPa)
#
#
# Indices 1 2 3 4 5 6 
#
# 1 0.019169 -0.003551 -0.008211 0.000000 0.002936 0.000000
# 2 -0.003551 0.026456 -0.001488 0.000000 -0.003706 0.000000
# 3 -0.008211 -0.001488 0.014732 0.000000 -0.003573 0.000000
# 4 0.000000 0.000000 0.000000 0.261128 0.000000 0.332141
# 5 0.002936 -0.003706 -0.003573 0.000000 0.028985 0.000000
# 6 0.000000 0.000000 0.000000 0.332141 0.000000 0.608440
#
#
# Mechanical properties :
#
#
# Convention : Reuss Voigt Hill
#
# Bulk Modulus (GPa) = 29.53729 37.53141 33.53435
# Shear Modulus (GPa) = 5.01658 20.32606 12.67132
#
# Velocity S-wave (km/s) = 1.44314 2.90489 2.29358
# Velocity P-wave (km/s) = 3.87805 5.18000 4.57557
#
# Compressibility (1/GPa) = 0.03385551
#
# Stress axis : x y z
#
# Youngs Moduli (GPa) = 52.16818 37.79888 67.88138
#
# Poissons Ratio (x) = 0.13422 0.55739
# Poissons Ratio (y) = 0.18524 0.10102
# Poissons Ratio (z) = 0.42837 0.05625
#
# Static dielectric constant tensor:
#      x y z
#    x 1.967880 0.000000 0.023700 
#    y 0.000000 1.965100 0.000000 
#    z 0.023700 0.000000 1.937380 
# 
# From -- ./inp_files/63378.got.cif
#   From: 2010.05.17/outbox.cif.g08.bks.cpg/sg15_32_cif.got.tgz:63378.got - 2010.06.03 18:47:42.
