data_PCOD9266155
_publ_section_title
;
Structure prediction by ZEFSAII (Michael W. Deem and Ramdas Pophale) SiO2 
 PCOD9266155
Probable space group: C 2/C
;
_chemical_formula_sum "Si O2"
_cell_formula_units_Z 40
_cell_length_a 15.536481
_cell_length_b 6.978659
_cell_length_c 19.195426
_cell_angle_alpha 90.000000
_cell_angle_beta 51.868318
_cell_angle_gamma 90.000000
_cell_volume 1637.091144
_symmetry_space_group_name_H-M "C 2/C"
_symmetry_group_IT_number 15
_symmetry_cell_setting 'monoclinic'
loop_
_space_group_symop_operation_xyz
x,y,z
-x,y,1/2-z
-x,-y,-z
x,-y,1/2+z
1/2+x,1/2+y,z
1/2-x,1/2+y,1/2-z
1/2-x,1/2-y,-z
1/2+x,1/2-y,1/2+z
loop_
_atom_site_type_symbol
_atom_site_label
_atom_site_fract_x
_atom_site_fract_y
_atom_site_fract_z
Si Si1 0.886262 0.820944 0.505517
Si Si2 0.087712 0.740263 0.495010
Si Si3 0.565341 0.770572 0.155415
Si Si4 0.757525 0.981839 0.365760
Si Si5 0.045773 0.119515 0.803383
O O1 0.780402 0.689221 0.564556
O O2 0.964053 0.771168 0.532332
O O3 0.969108 0.789828 0.399727
O O4 0.860805 0.047301 0.523474
O O5 0.097692 0.640086 0.565738
O O6 0.150650 0.610590 0.407439
O O7 0.500000 0.877581 0.250000
O O8 0.663273 0.638479 0.136715
O O9 0.479244 0.606759 0.175215
O O10 0.823246 0.880431 0.270081
O O11 0.000000 0.173340 0.750000
#
# Coordination Sequence:
#
# PCOD9266155 Si02
#       5
#     8   8   8   8   8
#     4  10  21  38  56  84 117 146 189 241 278 337
#     4  10  20  36  57  81 113 147 187 237 285 332
#     4   8  17  35  58  82 115 148 186 239 282 332
#     4  10  19  37  61  78 110 158 188 223 295 340
#     4   8  18  36  55  81 115 145 183 238 277 322
#
# _framework density 24.433582000000001
#
# number of rings (size 3 to 8) (size 9 to 14) (size 15 to 20)
#    0.000    3.200    0.000    1.200    0.000    7.200 
#   14.400    7.000    0.000   10.800    0.000    0.000 
#    0.000    0.000    0.000    0.000    0.000    0.000 
#
# Total GULP energy -111399.144189 kJ/mol
# GULP energy per Si atom -5569.957209 kJ/mol
# Density = 2.437797 g / cm^3
# Si number density = 24.433582 Si / 1000 Ang^3
#
#
#
# Elastic Constant Matrix: (Units=GPa)
#
#
# Indices 1 2 3 4 5 6 
#
# 1 29.7325 -4.2259 8.8794 0.0000 11.0793 0.0002
# 2 -4.2259 98.6569 50.0042 0.0000 -13.8318 0.0006
# 3 8.8794 50.0042 126.1589 0.0000 -11.3496 0.0000
# 4 0.0000 0.0000 0.0000 18.1215 0.0000 -2.6193
# 5 11.0793 -13.8318 -11.3496 0.0000 28.0575 0.0000
# 6 0.0002 0.0006 0.0000 -2.6193 0.0000 0.9063
#
#
#
# Elastic Compliance Matrix: (Units=1/GPa)
#
#
# Indices 1 2 3 4 5 6 
#
# 1 0.042170 0.002033 -0.005377 -0.000003 -0.017825 -0.000020
# 2 0.002033 0.013323 -0.005090 -0.000002 0.003706 -0.000015
# 3 -0.005377 -0.005090 0.010676 0.000001 0.003933 0.000007
# 4 -0.000003 -0.000002 0.000001 0.094778 0.000001 0.273930
# 5 -0.017825 0.003706 0.003933 0.000001 0.046098 0.000003
# 6 -0.000020 -0.000015 0.000007 0.273930 0.000003 1.895146
#
#
# Mechanical properties :
#
#
# Convention : Reuss Voigt Hill
#
# Bulk Modulus (GPa) = 20.28412 40.42932 30.35672
# Shear Modulus (GPa) = 2.34138 22.74309 12.54224
#
# Velocity S-wave (km/s) = 0.97997 3.05423 2.26811
# Velocity P-wave (km/s) = 3.09842 5.38705 4.39435
#
# Compressibility (1/GPa) = 0.04929964
#
# Stress axis : x y z
#
# Youngs Moduli (GPa) = 23.71337 75.05927 93.66493
#
# Poissons Ratio (x) = -0.15257 0.50367
# Poissons Ratio (y) = -0.04820 0.47678
# Poissons Ratio (z) = 0.12752 0.38207
#
# Static dielectric constant tensor:
#      x y z
#    x 1.990140 0.000000 0.007450 
#    y 0.000000 1.975820 0.000000 
#    z 0.007450 0.000000 2.124390 
# 
# From -- ./inp_files/247218.got.cif
#   From: 2010.05.17/outbox.cif.g08.bks.cpg/sg15_124_cif.got.tgz:247218.got - 2010.06.03 18:47:42.
