data_PCOD9266908
_publ_section_title
;
Structure prediction by ZEFSAII (Michael W. Deem and Ramdas Pophale) SiO2 
 PCOD9266908
Probable space group: C 2/C
;
_chemical_formula_sum "Si O2"
_cell_formula_units_Z 48
_cell_length_a 19.257058
_cell_length_b 8.185848
_cell_length_c 19.282225
_cell_angle_alpha 90.000000
_cell_angle_beta 135.359421
_cell_angle_gamma 90.000000
_cell_volume 2135.768795
_symmetry_space_group_name_H-M "C 2/C"
_symmetry_group_IT_number 15
_symmetry_cell_setting 'monoclinic'
loop_
_space_group_symop_operation_xyz
x,y,z
-x,y,1/2-z
-x,-y,-z
x,-y,1/2+z
1/2+x,1/2+y,z
1/2-x,1/2+y,1/2-z
1/2-x,1/2-y,-z
1/2+x,1/2-y,1/2+z
loop_
_atom_site_type_symbol
_atom_site_label
_atom_site_fract_x
_atom_site_fract_y
_atom_site_fract_z
Si Si1 0.138127 0.896706 0.402762
Si Si2 0.188222 0.338708 0.061798
Si Si3 0.512489 0.015734 0.103554
Si Si4 0.500000 0.866010 0.750000
Si Si5 0.719045 0.118306 0.256403
Si Si6 0.646131 0.222879 0.745234
Si Si7 0.500000 0.349574 0.750000
O O1 0.158457 0.813394 0.490538
O O2 0.238327 0.944048 0.434626
O O3 0.094072 0.752791 0.322210
O O4 0.054939 0.034179 0.344624
O O5 0.239878 0.259917 0.164857
O O6 0.088522 0.439590 0.004781
O O7 0.496486 0.039153 0.175430
O O8 0.604148 0.137097 0.153562
O O9 0.556917 0.834302 0.130497
O O10 0.790103 0.130309 0.240368
O O11 0.713711 0.941887 0.291254
O O12 0.590751 0.259789 0.777213
#
# Coordination Sequence:
#
# PCOD9266908 Si02
#       7
#     8   8   8   4   8   8   4
#     4   9  19  31  62  97 128 160 217 258 314 384
#     4  10  19  38  63 102 127 169 212 267 327 387
#     4   9  20  35  63  87 131 167 212 259 325 376
#     4   9  13  32  58  90 122 166 202 258 310 380
#     4  10  23  41  65  88 135 170 216 264 326 382
#     4  10  24  42  66  92 132 176 213 264 328 381
#     4  11  23  42  66  96 130 172 220 266 318 376
#
# _framework density 22.474343999999999
#
# number of rings (size 3 to 8) (size 9 to 14) (size 15 to 20)
#    1.000    1.333    1.667    0.500    2.333    0.667 
#    0.000    6.667    0.000    0.000    0.000    0.000 
#    0.000    0.000    0.000    0.000    0.000    0.000 
#
# Total GULP energy -133701.225409 kJ/mol
# GULP energy per Si atom -5570.884392 kJ/mol
# Density = 2.242319 g / cm^3
# Si number density = 22.474344 Si / 1000 Ang^3
#
#
#
# Elastic Constant Matrix: (Units=GPa)
#
#
# Indices 1 2 3 4 5 6 
#
# 1 119.3906 25.8304 18.3538 0.0000 18.9258 0.0000
# 2 25.8304 66.5202 12.9943 0.0000 13.8665 0.0000
# 3 18.3538 12.9943 74.6150 0.0000 15.8252 0.0000
# 4 0.0000 0.0000 0.0000 20.3848 0.0000 4.4162
# 5 18.9258 13.8665 15.8252 0.0000 39.5736 0.0000
# 6 0.0000 0.0000 0.0000 4.4162 0.0000 29.8365
#
#
#
# Elastic Compliance Matrix: (Units=1/GPa)
#
#
# Indices 1 2 3 4 5 6 
#
# 1 0.009681 -0.002867 -0.001216 0.000000 -0.003139 0.000000
# 2 -0.002867 0.017283 -0.001433 0.000000 -0.004112 0.000000
# 3 -0.001216 -0.001433 0.014993 0.000000 -0.004912 0.000000
# 4 0.000000 0.000000 0.000000 0.050681 0.000000 -0.007501
# 5 -0.003139 -0.004112 -0.004912 0.000000 0.030175 0.000000
# 6 0.000000 0.000000 0.000000 -0.007501 0.000000 0.034626
#
#
# Mechanical properties :
#
#
# Convention : Reuss Voigt Hill
#
# Bulk Modulus (GPa) = 32.33671 41.65366 36.99519
# Shear Modulus (GPa) = 27.96733 31.51546 29.74140
#
# Velocity S-wave (km/s) = 3.53145 3.74877 3.64173
# Velocity P-wave (km/s) = 5.57205 6.10834 5.84635
#
# Compressibility (1/GPa) = 0.03092460
#
# Stress axis : x y z
#
# Youngs Moduli (GPa) = 103.29802 57.85902 66.69986
#
# Poissons Ratio (x) = 0.16590 0.08112
# Poissons Ratio (y) = 0.29618 0.09555
# Poissons Ratio (z) = 0.12564 0.08288
#
# Static dielectric constant tensor:
#      x y z
#    x 1.925770 0.000000 0.005230 
#    y 0.000000 1.882910 0.000000 
#    z 0.005230 0.000000 1.842830 
# 
# From -- ./inp_files/279452.got.cif
#   From: 2010.05.17/outbox.cif.g08.bks.cpg/sg15_140_cif.got.tgz:279452.got - 2010.06.03 18:47:42.
