data_PCOD9266907
_publ_section_title
;
Structure prediction by ZEFSAII (Michael W. Deem and Ramdas Pophale) SiO2 
 PCOD9266907
Probable space group: C 2/C
;
_chemical_formula_sum "Si O2"
_cell_formula_units_Z 48
_cell_length_a 22.952415
_cell_length_b 21.045807
_cell_length_c 8.641628
_cell_angle_alpha 90.000000
_cell_angle_beta 30.469056
_cell_angle_gamma 90.000000
_cell_volume 2116.703254
_symmetry_space_group_name_H-M "C 2/C"
_symmetry_group_IT_number 15
_symmetry_cell_setting 'monoclinic'
loop_
_space_group_symop_operation_xyz
x,y,z
-x,y,1/2-z
-x,-y,-z
x,-y,1/2+z
1/2+x,1/2+y,z
1/2-x,1/2+y,1/2-z
1/2-x,1/2-y,-z
1/2+x,1/2-y,1/2+z
loop_
_atom_site_type_symbol
_atom_site_label
_atom_site_fract_x
_atom_site_fract_y
_atom_site_fract_z
Si Si1 0.600151 0.447535 0.268152
Si Si2 0.901348 0.363289 0.349321
Si Si3 0.786817 0.052462 0.323923
Si Si4 0.266571 0.743875 0.781817
Si Si5 0.079270 0.151376 0.270047
Si Si6 0.618156 0.233159 0.860035
O O1 0.500000 0.500000 0.500000
O O2 0.698401 0.481285 0.144747
O O3 0.537880 0.387301 0.485737
O O4 0.637430 0.438833 0.005358
O O5 0.839212 0.427454 0.440892
O O6 0.808224 0.314348 0.636058
O O7 0.930193 0.325331 0.125836
O O8 0.000000 0.370299 0.250000
O O9 0.831003 0.101549 0.355980
O O10 0.362210 0.693320 0.499835
O O11 0.148236 0.723684 0.968700
O O12 0.250000 0.750000 0.000000
O O13 0.053475 0.203491 0.460412
O O14 0.750000 0.250000 0.500000
#
# Coordination Sequence:
#
# PCOD9266907 Si02
#       6
#     8   8   8   8   8   8
#     4  10  22  37  62  95 128 173 230 279 350 402
#     4  10  20  41  65  86 125 181 226 277 342 413
#     4  11  20  43  59  91 135 175 231 290 339 407
#     4  10  19  38  62  99 132 173 219 270 353 424
#     4   9  16  37  63  86 134 176 202 275 355 406
#     4   8  15  35  61  84 127 168 207 268 345 396
#
# _framework density 22.676773000000001
#
# number of rings (size 3 to 8) (size 9 to 14) (size 15 to 20)
#    0.000    2.667    5.000    2.000    0.000    0.000 
#   15.000    6.667    0.000    0.000    0.000    0.000 
#    0.000    0.000    0.000    0.000    0.000    0.000 
#
# Total GULP energy -133870.529463 kJ/mol
# GULP energy per Si atom -5577.938728 kJ/mol
# Density = 2.262516 g / cm^3
# Si number density = 22.676773 Si / 1000 Ang^3
#
#
#
# Elastic Constant Matrix: (Units=GPa)
#
#
# Indices 1 2 3 4 5 6 
#
# 1 179.6759 62.0478 30.1329 0.0000 -0.1276 0.0000
# 2 62.0478 101.9057 30.0339 0.0000 -10.2047 0.0000
# 3 30.1329 30.0339 66.3784 0.0000 22.3783 0.0000
# 4 0.0000 0.0000 0.0000 34.2288 0.0000 -16.3210
# 5 -0.1276 -10.2047 22.3783 0.0000 44.3569 0.0000
# 6 0.0000 0.0000 0.0000 -16.3210 0.0000 42.6847
#
#
#
# Elastic Compliance Matrix: (Units=1/GPa)
#
#
# Indices 1 2 3 4 5 6 
#
# 1 0.007172 -0.003976 -0.001392 0.000000 -0.000192 0.000000
# 2 -0.003976 0.015176 -0.007513 0.000000 0.007270 0.000000
# 3 -0.001392 -0.007513 0.023714 0.000000 -0.013696 0.000000
# 4 0.000000 0.000000 0.000000 0.035729 0.000000 0.013662
# 5 -0.000192 0.007270 -0.013696 0.000000 0.031126 0.000000
# 6 0.000000 0.000000 0.000000 0.013662 0.000000 0.028651
#
#
# Mechanical properties :
#
#
# Convention : Reuss Voigt Hill
#
# Bulk Modulus (GPa) = 49.26059 65.82102 57.54080
# Shear Modulus (GPa) = 28.71969 39.30377 34.01173
#
# Velocity S-wave (km/s) = 3.56263 4.16771 3.87699
# Velocity P-wave (km/s) = 6.22038 7.22831 6.74321
#
# Compressibility (1/GPa) = 0.02030020
#
# Stress axis : x y z
#
# Youngs Moduli (GPa) = 139.43424 65.89414 42.16933
#
# Poissons Ratio (x) = 0.26197 0.05871
# Poissons Ratio (y) = 0.55433 0.31681
# Poissons Ratio (z) = 0.19413 0.49505
#
# Static dielectric constant tensor:
#      x y z
#    x 1.993460 0.000000 0.013590 
#    y 0.000000 1.852180 0.000000 
#    z 0.013590 0.000000 1.980700 
# 
# From -- ./inp_files/50037.got.cif
#   From: 2010.05.17/outbox.cif.g08.bks.cpg/sg15_26_cif.got.tgz:50037.got - 2010.06.03 18:47:42.
