data_PCOD9266992
_publ_section_title
;
Structure prediction by ZEFSAII (Michael W. Deem and Ramdas Pophale) SiO2 
 PCOD9266992
Probable space group: C 2/C
;
_chemical_formula_sum "Si O2"
_cell_formula_units_Z 56
_cell_length_a 17.945451
_cell_length_b 8.983318
_cell_length_c 15.807404
_cell_angle_alpha 90.000000
_cell_angle_beta 64.299903
_cell_angle_gamma 90.000000
_cell_volume 2296.218781
_symmetry_space_group_name_H-M "C 2/C"
_symmetry_group_IT_number 15
_symmetry_cell_setting 'monoclinic'
loop_
_space_group_symop_operation_xyz
x,y,z
-x,y,1/2-z
-x,-y,-z
x,-y,1/2+z
1/2+x,1/2+y,z
1/2-x,1/2+y,1/2-z
1/2-x,1/2-y,-z
1/2+x,1/2-y,1/2+z
loop_
_atom_site_type_symbol
_atom_site_label
_atom_site_fract_x
_atom_site_fract_y
_atom_site_fract_z
Si Si1 0.830412 0.815369 0.140426
Si Si2 0.899414 0.511868 0.881424
Si Si3 0.714132 0.532246 0.014859
Si Si4 0.916032 0.804291 0.444258
Si Si5 0.155780 0.757101 0.698269
Si Si6 0.050344 0.015217 0.807831
Si Si7 0.986785 0.664780 0.974500
O O1 0.743000 0.739625 0.204473
O O2 0.869027 0.895277 0.202694
O O3 0.806359 0.916785 0.070942
O O4 0.907122 0.722811 0.065471
O O5 0.932583 0.343923 0.878456
O O6 0.873987 0.588083 0.805450
O O7 0.959315 0.635232 0.892812
O O8 0.812286 0.515249 0.975410
O O9 0.668734 0.374902 0.045075
O O10 0.679312 0.653292 0.098890
O O11 0.979502 0.944809 0.409284
O O12 0.932131 0.750740 0.532376
O O13 0.083825 0.852284 0.775211
O O14 0.000000 0.065500 0.750000
O O15 0.000000 0.500000 0.000000
#
# Coordination Sequence:
#
# PCOD9266992 Si02
#       7
#     8   8   8   8   8   8   8
#     4  10  21  40  64  93 126 167 218 270 322 383
#     4  10  19  38  64 101 122 165 216 273 324 379
#     4  11  19  37  70  98 126 162 216 272 329 384
#     4  10  22  36  62  95 137 163 209 270 330 382
#     4  11  21  41  70  92 128 176 220 259 323 402
#     4  11  24  43  63  91 137 181 212 262 324 391
#     4   9  17  32  59  94 127 154 201 270 330 363
#
# _framework density 24.387920999999999
#
# number of rings (size 3 to 8) (size 9 to 14) (size 15 to 20)
#    0.000    1.714    4.286    1.286    0.000    3.429 
#    5.143    0.714    9.429    0.000    0.000    0.000 
#    0.000    0.000    0.000    0.000    0.000    0.000 
#
# Total GULP energy -156130.424596 kJ/mol
# GULP energy per Si atom -5576.086593 kJ/mol
# Density = 2.433241 g / cm^3
# Si number density = 24.387921 Si / 1000 Ang^3
#
#
#
# Elastic Constant Matrix: (Units=GPa)
#
#
# Indices 1 2 3 4 5 6 
#
# 1 152.6618 47.4473 24.2508 0.0000 1.3239 0.0000
# 2 47.4473 94.6775 38.4946 0.0000 -15.8332 0.0000
# 3 24.2508 38.4946 40.7882 0.0000 -11.3389 0.0000
# 4 0.0000 0.0000 0.0000 19.2799 0.0000 -9.8083
# 5 1.3239 -15.8332 -11.3389 0.0000 25.7875 0.0000
# 6 0.0000 0.0000 0.0000 -9.8083 0.0000 57.3284
#
#
#
# Elastic Compliance Matrix: (Units=1/GPa)
#
#
# Indices 1 2 3 4 5 6 
#
# 1 0.008117 -0.003746 -0.002331 0.000000 -0.003742 0.000000
# 2 -0.003746 0.019216 -0.014326 0.000000 0.005691 0.000000
# 3 -0.002331 -0.014326 0.042166 0.000000 0.009864 0.000000
# 4 0.000000 0.000000 0.000000 0.056812 0.000000 0.009720
# 5 -0.003742 0.005691 0.009864 0.000000 0.046802 0.000000
# 6 0.000000 0.000000 0.000000 0.009720 0.000000 0.019106
#
#
# Mechanical properties :
#
#
# Convention : Reuss Voigt Hill
#
# Bulk Modulus (GPa) = 34.85208 56.50142 45.67675
# Shear Modulus (GPa) = 20.61085 32.34148 26.47616
#
# Velocity S-wave (km/s) = 2.91026 3.64555 3.29846
# Velocity P-wave (km/s) = 5.06108 6.39829 5.76857
#
# Compressibility (1/GPa) = 0.02869269
#
# Stress axis : x y z
#
# Youngs Moduli (GPa) = 123.19182 52.03987 23.71601
#
# Poissons Ratio (x) = 0.19494 0.05528
# Poissons Ratio (y) = 0.46147 0.33976
# Poissons Ratio (z) = 0.28717 0.74553
#
# Static dielectric constant tensor:
#      x y z
#    x 2.018660 0.000000 0.024790 
#    y 0.000000 1.957760 0.000000 
#    z 0.024790 0.000000 2.059170 
# 
# From -- ./inp_files/247369.got.cif
#   From: 2010.05.17/outbox.cif.g08.bks.cpg/sg15_124_cif.got.tgz:247369.got - 2010.06.03 18:47:42.
