data_PCOD9266457
_publ_section_title
;
Structure prediction by ZEFSAII (Michael W. Deem and Ramdas Pophale) SiO2 
 PCOD9266457
Probable space group: C 2/C
;
_chemical_formula_sum "Si O2"
_cell_formula_units_Z 44
_cell_length_a 10.514034
_cell_length_b 11.656481
_cell_length_c 18.358284
_cell_angle_alpha 90.000000
_cell_angle_beta 109.512547
_cell_angle_gamma 90.000000
_cell_volume 2120.712435
_symmetry_space_group_name_H-M "C 2/C"
_symmetry_group_IT_number 15
_symmetry_cell_setting 'monoclinic'
loop_
_space_group_symop_operation_xyz
x,y,z
-x,y,1/2-z
-x,-y,-z
x,-y,1/2+z
1/2+x,1/2+y,z
1/2-x,1/2+y,1/2-z
1/2-x,1/2-y,-z
1/2+x,1/2-y,1/2+z
loop_
_atom_site_type_symbol
_atom_site_label
_atom_site_fract_x
_atom_site_fract_y
_atom_site_fract_z
Si Si1 0.622569 0.310747 0.136381
Si Si2 0.677651 0.315313 0.919366
Si Si3 0.500000 0.815824 0.750000
Si Si4 0.425863 0.726240 0.460500
Si Si5 0.771450 0.536745 0.134700
Si Si6 0.347083 0.027030 0.992821
O O1 0.752772 0.233453 0.139704
O O2 0.545735 0.261967 0.191109
O O3 0.681814 0.438443 0.153853
O O4 0.520270 0.301222 0.048242
O O5 0.523723 0.282522 0.907881
O O6 0.728355 0.447276 0.936885
O O7 0.750000 0.250000 0.000000
O O8 0.625648 0.896789 0.794553
O O9 0.323238 0.625910 0.425146
O O10 0.343084 0.841357 0.464418
O O11 0.850493 0.492558 0.078860
O O12 0.500000 0.000000 0.000000
#
# Coordination Sequence:
#
# PCOD9266457 Si02
#       6
#     8   8   4   8   8   8
#     4  11  23  46  67  95 135 175 222 277 331 403
#     4  10  19  37  65 101 127 159 221 284 322 381
#     4  12  28  48  60  96 148 186 220 264 344 422
#     4  11  22  39  71 103 124 165 228 285 334 379
#     4  12  25  44  65  98 134 175 221 281 338 399
#     4  12  19  36  69 101 128 165 210 280 341 381
#
# _framework density 20.747744000000001
#
# number of rings (size 3 to 8) (size 9 to 14) (size 15 to 20)
#    0.000    0.727    9.091    1.091    0.000    0.000 
#   13.091    0.000    0.000    0.000    0.000    0.000 
#    0.000    0.000    0.000    0.000    0.000    0.000 
#
# Total GULP energy -122661.608469 kJ/mol
# GULP energy per Si atom -5575.527658 kJ/mol
# Density = 2.070052 g / cm^3
# Si number density = 20.747744 Si / 1000 Ang^3
#
#
#
# Elastic Constant Matrix: (Units=GPa)
#
#
# Indices 1 2 3 4 5 6 
#
# 1 61.7523 52.1960 22.3484 0.0000 -6.2715 0.0000
# 2 52.1960 153.2224 49.0528 0.0000 0.8480 0.0000
# 3 22.3484 49.0528 55.5403 0.0000 -1.5818 0.0000
# 4 0.0000 0.0000 0.0000 10.6543 0.0000 -5.5327
# 5 -6.2715 0.8480 -1.5818 0.0000 12.3491 0.0000
# 6 0.0000 0.0000 0.0000 -5.5327 0.0000 57.1045
#
#
#
# Elastic Compliance Matrix: (Units=1/GPa)
#
#
# Indices 1 2 3 4 5 6 
#
# 1 0.025039 -0.007658 -0.002945 0.000000 0.012865 0.000000
# 2 -0.007658 0.011475 -0.007213 0.000000 -0.005601 0.000000
# 3 -0.002945 -0.007213 0.025626 0.000000 0.002282 0.000000
# 4 0.000000 0.000000 0.000000 0.098832 0.000000 0.009575
# 5 0.012865 -0.005601 0.002282 0.000000 0.088188 0.000000
# 6 0.000000 0.000000 0.000000 0.009575 0.000000 0.018439
#
#
# Mechanical properties :
#
#
# Convention : Reuss Voigt Hill
#
# Bulk Modulus (GPa) = 37.72558 57.52325 47.62442
# Shear Modulus (GPa) = 16.02216 25.81610 20.91913
#
# Velocity S-wave (km/s) = 2.78193 3.53127 3.17876
# Velocity P-wave (km/s) = 5.34241 6.66421 6.03958
#
# Compressibility (1/GPa) = 0.02650721
#
# Stress axis : x y z
#
# Youngs Moduli (GPa) = 39.93765 87.14328 39.02344
#
# Poissons Ratio (x) = 0.66734 0.11494
# Poissons Ratio (y) = 0.30584 0.28148
# Poissons Ratio (z) = 0.11763 0.62857
#
# Static dielectric constant tensor:
#      x y z
#    x 1.903740 0.000000 -0.086740 
#    y 0.000000 1.901810 0.000000 
#    z -0.086740 0.000000 1.739780 
# 
# From -- ./inp_files/196313.got.cif
#   From: 2010.05.17/outbox.cif.g08.bks.cpg/sg15_99_cif.got.tgz:196313.got - 2010.06.03 18:47:42.
