data_PCOD9266681
_publ_section_title
;
Structure prediction by ZEFSAII (Michael W. Deem and Ramdas Pophale) SiO2 
 PCOD9266681
Probable space group: C 2/C
;
_chemical_formula_sum "Si O2"
_cell_formula_units_Z 52
_cell_length_a 14.669720
_cell_length_b 29.653685
_cell_length_c 9.469311
_cell_angle_alpha 90.000000
_cell_angle_beta 43.962841
_cell_angle_gamma 90.000000
_cell_volume 2859.553925
_symmetry_space_group_name_H-M "C 2/C"
_symmetry_group_IT_number 15
_symmetry_cell_setting 'monoclinic'
loop_
_space_group_symop_operation_xyz
x,y,z
-x,y,1/2-z
-x,-y,-z
x,-y,1/2+z
1/2+x,1/2+y,z
1/2-x,1/2+y,1/2-z
1/2-x,1/2-y,-z
1/2+x,1/2-y,1/2+z
loop_
_atom_site_type_symbol
_atom_site_label
_atom_site_fract_x
_atom_site_fract_y
_atom_site_fract_z
Si Si1 0.482838 0.934968 0.602370
Si Si2 0.611009 0.523010 0.225848
Si Si3 0.500000 0.611613 0.250000
Si Si4 0.121680 0.724216 0.511851
Si Si5 0.989313 0.334040 0.929628
Si Si6 0.265585 0.677851 0.598339
Si Si7 0.718771 0.012527 0.724779
O O1 0.500000 0.942140 0.750000
O O2 0.450187 0.883341 0.612173
O O3 0.623123 0.948043 0.381271
O O4 0.370739 0.967913 0.671220
O O5 0.500000 0.500228 0.250000
O O6 0.561562 0.574979 0.292679
O O7 0.656612 0.496502 0.312930
O O8 0.736344 0.522922 0.982977
O O9 0.386025 0.642944 0.444094
O O10 0.203729 0.687677 0.511654
O O11 0.191800 0.771475 0.406717
O O12 0.000000 0.735265 0.750000
O O13 0.068731 0.702790 0.428423
O O14 0.000000 0.325749 0.750000
O O15 0.844726 0.335992 0.164064
#
# Coordination Sequence:
#
# PCOD9266681 Si02
#       7
#     8   8   4   8   8   8   8
#     4  10  21  36  59  80 114 147 187 243 284 328
#     4  10  23  35  57  82 114 150 191 230 281 347
#     4  10  22  34  60  90 108 154 194 242 274 338
#     4   9  19  36  62  84 109 152 188 235 289 333
#     4  10  22  37  56  88 114 149 187 237 286 338
#     4  10  19  38  59  83 117 144 191 237 282 341
#     4  11  20  40  55  81 111 152 190 234 286 336
#
# _framework density 18.184653999999998
#
# number of rings (size 3 to 8) (size 9 to 14) (size 15 to 20)
#    0.462    1.538    2.308    1.385    2.154    0.615 
#    2.769    0.000    0.000    0.000    0.000    0.000 
#    0.000    0.000    0.000    0.000    0.000    0.000 
#
# Total GULP energy -144810.277313 kJ/mol
# GULP energy per Si atom -5569.626051 kJ/mol
# Density = 1.814326 g / cm^3
# Si number density = 18.184654 Si / 1000 Ang^3
#
#
#
# Elastic Constant Matrix: (Units=GPa)
#
#
# Indices 1 2 3 4 5 6 
#
# 1 53.3094 30.5362 14.2694 0.0000 -5.9937 0.0000
# 2 30.5362 54.2049 25.9669 0.0000 9.1938 0.0000
# 3 14.2694 25.9669 77.2658 0.0000 5.2385 0.0000
# 4 0.0000 0.0000 0.0000 19.8920 0.0000 -1.6142
# 5 -5.9937 9.1938 5.2385 0.0000 22.6339 0.0000
# 6 0.0000 0.0000 0.0000 -1.6142 0.0000 8.3537
#
#
#
# Elastic Compliance Matrix: (Units=1/GPa)
#
#
# Indices 1 2 3 4 5 6 
#
# 1 0.033131 -0.021623 -0.000043 0.000000 0.017567 0.000000
# 2 -0.021623 0.037370 -0.007262 0.000000 -0.019225 0.000000
# 3 -0.000043 -0.007262 0.015434 0.000000 -0.000634 0.000000
# 4 0.000000 0.000000 0.000000 0.051072 0.000000 0.009868
# 5 0.017567 -0.019225 -0.000634 0.000000 0.056789 0.000000
# 6 0.000000 0.000000 0.000000 0.009868 0.000000 0.121614
#
#
# Mechanical properties :
#
#
# Convention : Reuss Voigt Hill
#
# Bulk Modulus (GPa) = 35.61474 36.25833 35.93653
# Shear Modulus (GPa) = 13.06763 17.77643 15.42203
#
# Velocity S-wave (km/s) = 2.68359 3.12997 2.91534
# Velocity P-wave (km/s) = 5.40646 5.74844 5.58007
#
# Compressibility (1/GPa) = 0.02807826
#
# Stress axis : x y z
#
# Youngs Moduli (GPa) = 30.18325 26.75971 64.79307
#
# Poissons Ratio (x) = 0.57863 0.00276
# Poissons Ratio (y) = 0.65266 0.47053
# Poissons Ratio (z) = 0.00129 0.19433
#
# Static dielectric constant tensor:
#      x y z
#    x 1.648670 0.000000 -0.036260 
#    y 0.000000 1.608580 0.000000 
#    z -0.036260 0.000000 1.655860 
# 
# From -- ./inp_files/44217.got.cif
#   From: 2010.05.17/outbox.cif.g08.bks.cpg/sg15_23_cif.got.tgz:44217.got - 2010.06.03 18:47:42.
