data_PCOD9266362
_publ_section_title
;
Structure prediction by ZEFSAII (Michael W. Deem and Ramdas Pophale) SiO2 
 PCOD9266362
Probable space group: C 2/C
;
_chemical_formula_sum "Si O2"
_cell_formula_units_Z 56
_cell_length_a 24.780277
_cell_length_b 9.329022
_cell_length_c 16.072475
_cell_angle_alpha 90.000000
_cell_angle_beta 137.427059
_cell_angle_gamma 90.000000
_cell_volume 2513.685701
_symmetry_space_group_name_H-M "C 2/C"
_symmetry_group_IT_number 15
_symmetry_cell_setting 'monoclinic'
loop_
_space_group_symop_operation_xyz
x,y,z
-x,y,1/2-z
-x,-y,-z
x,-y,1/2+z
1/2+x,1/2+y,z
1/2-x,1/2+y,1/2-z
1/2-x,1/2-y,-z
1/2+x,1/2-y,1/2+z
loop_
_atom_site_type_symbol
_atom_site_label
_atom_site_fract_x
_atom_site_fract_y
_atom_site_fract_z
Si Si1 0.982652 0.878169 0.110936
Si Si2 0.041807 0.339957 0.461508
Si Si3 0.715477 0.010999 0.302911
Si Si4 0.627412 0.621462 0.441569
Si Si5 0.600314 0.381156 0.717520
Si Si6 0.442117 0.892920 0.824418
Si Si7 0.322008 0.735244 0.340084
O O1 0.036210 0.746710 0.203180
O O2 0.937798 0.996827 0.114339
O O3 0.907955 0.802265 0.979307
O O4 0.049785 0.975201 0.140949
O O5 0.100865 0.258439 0.466163
O O6 0.065215 0.350963 0.585073
O O7 0.961744 0.245897 0.369580
O O8 0.013555 0.494417 0.398363
O O9 0.788669 0.932199 0.429924
O O10 0.688281 0.900594 0.198593
O O11 0.643436 0.035802 0.285404
O O12 0.751240 0.163024 0.312265
O O13 0.626264 0.635701 0.341795
O O14 0.673445 0.357957 0.739349
#
# Coordination Sequence:
#
# PCOD9266362 Si02
#       7
#     8   8   8   8   8   8   8
#     4  10  21  37  66  92 114 161 206 259 287 363
#     4  10  19  37  63  92 114 159 203 264 290 359
#     4  11  24  39  60  97 121 162 195 264 306 371
#     4  10  24  41  63  86 128 164 211 233 313 380
#     4  11  21  41  64  89 118 169 207 247 294 381
#     4  11  20  36  63  93 126 143 211 261 313 333
#     4  11  22  39  64  90 123 155 213 251 311 348
#
# _framework density 22.278041999999999
#
# number of rings (size 3 to 8) (size 9 to 14) (size 15 to 20)
#    0.000    1.429    2.857    3.857    6.000    0.571 
#    0.000    3.571    3.143    0.000    0.000    0.000 
#    0.000    0.000    0.000    0.000    0.000    0.000 
#
# Total GULP energy -156311.315968 kJ/mol
# GULP energy per Si atom -5582.546999 kJ/mol
# Density = 2.222734 g / cm^3
# Si number density = 22.278042 Si / 1000 Ang^3
#
#
#
# Elastic Constant Matrix: (Units=GPa)
#
#
# Indices 1 2 3 4 5 6 
#
# 1 66.7135 13.4560 17.2581 0.0000 13.7706 0.0000
# 2 13.4560 106.2618 11.9829 0.0000 16.2127 0.0000
# 3 17.2581 11.9829 52.6305 0.0000 11.2549 0.0000
# 4 0.0000 0.0000 0.0000 14.6477 0.0000 8.3269
# 5 13.7706 16.2127 11.2549 0.0000 19.7019 0.0000
# 6 0.0000 0.0000 0.0000 8.3269 0.0000 5.0360
#
#
#
# Elastic Compliance Matrix: (Units=1/GPa)
#
#
# Indices 1 2 3 4 5 6 
#
# 1 0.018131 -0.000307 -0.003668 0.000000 -0.010325 0.000000
# 2 -0.000307 0.010786 -0.000573 0.000000 -0.008334 0.000000
# 3 -0.003668 -0.000573 0.022424 0.000000 -0.009775 0.000000
# 4 0.000000 0.000000 0.000000 1.137330 0.000000 -1.880548
# 5 -0.010325 -0.008334 -0.009775 0.000000 0.070415 0.000000
# 6 0.000000 0.000000 0.000000 -1.880548 0.000000 3.308011
#
#
# Mechanical properties :
#
#
# Convention : Reuss Voigt Hill
#
# Bulk Modulus (GPa) = 23.67094 34.55554 29.11324
# Shear Modulus (GPa) = 1.08926 20.07103 10.58015
#
# Velocity S-wave (km/s) = 0.70000 3.00481 2.18162
# Velocity P-wave (km/s) = 3.36179 5.25197 4.40936
#
# Compressibility (1/GPa) = 0.04224589
#
# Stress axis : x y z
#
# Youngs Moduli (GPa) = 55.15289 92.71529 44.59549
#
# Poissons Ratio (x) = 0.02847 0.16356
# Poissons Ratio (y) = 0.01694 0.02555
# Poissons Ratio (z) = 0.20228 0.05311
#
# Static dielectric constant tensor:
#      x y z
#    x 1.819240 0.000000 -0.008620 
#    y 0.000000 1.834100 0.000000 
#    z -0.008620 0.000000 1.849860 
# 
# From -- ./inp_files/222058.got.cif
#   From: 2010.05.17/outbox.cif.g08.bks.cpg/sg15_112_cif.got.tgz:222058.got - 2010.06.03 18:47:42.
