data_PCOD9266286
_publ_section_title
;
Structure prediction by ZEFSAII (Michael W. Deem and Ramdas Pophale) SiO2 
 PCOD9266286
Probable space group: C 2/C
;
_chemical_formula_sum "Si O2"
_cell_formula_units_Z 40
_cell_length_a 10.423005
_cell_length_b 19.688282
_cell_length_c 15.484247
_cell_angle_alpha 90.000000
_cell_angle_beta 138.933658
_cell_angle_gamma 90.000000
_cell_volume 2087.428349
_symmetry_space_group_name_H-M "C 2/C"
_symmetry_group_IT_number 15
_symmetry_cell_setting 'monoclinic'
loop_
_space_group_symop_operation_xyz
x,y,z
-x,y,1/2-z
-x,-y,-z
x,-y,1/2+z
1/2+x,1/2+y,z
1/2-x,1/2+y,1/2-z
1/2-x,1/2-y,-z
1/2+x,1/2-y,1/2+z
loop_
_atom_site_type_symbol
_atom_site_label
_atom_site_fract_x
_atom_site_fract_y
_atom_site_fract_z
Si Si1 0.472620 0.733312 0.133709
Si Si2 0.923686 0.898326 0.919528
Si Si3 0.775351 0.648329 0.823092
Si Si4 0.325525 0.673072 0.544011
Si Si5 0.298973 0.966426 0.200138
O O1 0.500000 0.738009 0.250000
O O2 0.535542 0.660168 0.128918
O O3 0.595425 0.790207 0.145963
O O4 0.250000 0.750000 0.000000
O O5 0.792407 0.960968 0.822182
O O6 0.815770 0.864828 0.947737
O O7 0.131544 0.928684 0.057792
O O8 0.553780 0.668815 0.685271
O O9 0.786065 0.640010 0.931544
O O10 0.828000 0.580632 0.798215
O O11 0.250000 0.750000 0.500000
O O12 0.500000 0.972521 0.250000
#
# Coordination Sequence:
#
# PCOD9266286 Si02
#       5
#     8   8   8   8   8
#     4  12  24  41  66  95 127 166 212 267 318 375
#     4  10  22  40  61  91 123 163 212 261 309 384
#     4  10  21  37  63  88 122 165 205 258 328 375
#     4  10  19  37  62  91 123 155 209 266 315 377
#     4  10  21  42  60  85 127 167 205 259 324 375
#
# _framework density 19.162336
#
# number of rings (size 3 to 8) (size 9 to 14) (size 15 to 20)
#    0.000    1.600    2.000    4.200    0.000    1.600 
#   10.800    1.000    0.000    0.000    0.000    0.000 
#    0.000    0.000    0.000    0.000    0.000    0.000 
#
# Total GULP energy -111730.541230 kJ/mol
# GULP energy per Si atom -5586.527061 kJ/mol
# Density = 1.911872 g / cm^3
# Si number density = 19.162336 Si / 1000 Ang^3
#
#
#
# Elastic Constant Matrix: (Units=GPa)
#
#
# Indices 1 2 3 4 5 6 
#
# 1 133.8972 54.5944 39.2366 -0.0001 7.6021 0.0000
# 2 54.5944 114.7954 24.7595 -0.0003 20.3797 -0.0003
# 3 39.2366 24.7595 42.8178 -0.0004 -5.8387 -0.0003
# 4 -0.0001 -0.0003 -0.0004 26.9604 0.0000 -5.3588
# 5 7.6021 20.3797 -5.8387 0.0000 12.0669 0.0000
# 6 0.0000 -0.0003 -0.0003 -5.3588 0.0000 37.1226
#
#
#
# Elastic Compliance Matrix: (Units=1/GPa)
#
#
# Indices 1 2 3 4 5 6 
#
# 1 0.012101 -0.001106 -0.012028 0.000000 -0.011577 0.000000
# 2 -0.001106 0.019940 -0.016075 0.000000 -0.040757 0.000000
# 3 -0.012028 -0.016075 0.051827 0.000001 0.059803 0.000000
# 4 0.000000 0.000000 0.000001 0.038187 0.000000 0.005513
# 5 -0.011577 -0.040757 0.059803 0.000000 0.187936 0.000000
# 6 0.000000 0.000000 0.000000 0.005513 0.000000 0.027734
#
#
# Mechanical properties :
#
#
# Convention : Reuss Voigt Hill
#
# Bulk Modulus (GPa) = 39.29164 58.74350 49.01757
# Shear Modulus (GPa) = 12.35710 26.75795 19.55752
#
# Velocity S-wave (km/s) = 2.54217 3.74087 3.19819
# Velocity P-wave (km/s) = 5.40055 7.02717 6.26686
#
# Compressibility (1/GPa) = 0.02545070
#
# Stress axis : x y z
#
# Youngs Moduli (GPa) = 82.63649 50.15125 19.29487
#
# Poissons Ratio (x) = 0.05545 0.23209
# Poissons Ratio (y) = 0.09136 0.31016
# Poissons Ratio (z) = 0.99398 0.80617
#
# Static dielectric constant tensor:
#      x y z
#    x 1.654640 0.000000 -0.005750 
#    y 0.000000 1.643660 0.000000 
#    z -0.005750 0.000000 1.673640 
# 
# From -- ./inp_files/76886.got.cif
#   From: 2010.05.17/outbox.cif.g08.bks.cpg/sg15_39_cif.got.tgz:76886.got - 2010.06.03 18:47:42.
