data_PCOD9266584
_publ_section_title
;
Structure prediction by ZEFSAII (Michael W. Deem and Ramdas Pophale) SiO2 
 PCOD9266584
Probable space group: C 2/C
;
_chemical_formula_sum "Si O2"
_cell_formula_units_Z 52
_cell_length_a 6.122169
_cell_length_b 28.185775
_cell_length_c 13.210567
_cell_angle_alpha 90.000000
_cell_angle_beta 81.815979
_cell_angle_gamma 90.000000
_cell_volume 2256.374636
_symmetry_space_group_name_H-M "C 2/C"
_symmetry_group_IT_number 15
_symmetry_cell_setting 'monoclinic'
loop_
_space_group_symop_operation_xyz
x,y,z
-x,y,1/2-z
-x,-y,-z
x,-y,1/2+z
1/2+x,1/2+y,z
1/2-x,1/2+y,1/2-z
1/2-x,1/2-y,-z
1/2+x,1/2-y,1/2+z
loop_
_atom_site_type_symbol
_atom_site_label
_atom_site_fract_x
_atom_site_fract_y
_atom_site_fract_z
Si Si1 0.431881 0.076546 0.554573
Si Si2 0.226196 0.199752 0.893946
Si Si3 0.000000 0.363079 0.250000
Si Si4 0.763664 0.501052 0.704824
Si Si5 0.733609 0.398947 0.632587
Si Si6 0.135700 0.852018 0.948073
Si Si7 0.458072 0.800974 0.589871
O O1 0.452697 0.104831 0.657376
O O2 0.664583 0.079928 0.480403
O O3 0.275390 0.107748 0.494256
O O4 0.321484 0.027000 0.594421
O O5 0.300689 0.171006 0.792215
O O6 0.154396 0.252561 0.870168
O O7 0.035476 0.171054 0.963177
O O8 0.414847 0.199612 0.970105
O O9 0.500000 0.514854 0.750000
O O10 0.757737 0.444091 0.701471
O O11 0.000000 0.511152 0.750000
O O12 0.489327 0.379817 0.630992
O O13 0.858667 0.349333 0.642636
O O14 0.285972 0.807922 0.904968
#
# Coordination Sequence:
#
# PCOD9266584 Si02
#       7
#     8   8   4   8   8   8   8
#     4  11  24  42  69  96 141 175 230 292 360 416
#     4  10  20  35  60  95 132 170 224 275 350 405
#     4  12  20  40  60 102 138 176 230 298 350 404
#     4  12  30  47  73 103 141 184 236 300 354 423
#     4  10  23  46  70  96 133 185 233 281 356 427
#     4  10  19  37  69  95 127 180 222 282 337 430
#     4   9  19  39  63  89 128 180 223 278 333 421
#
# _framework density 23.045817
#
# number of rings (size 3 to 8) (size 9 to 14) (size 15 to 20)
#    0.000    1.538    5.385    0.923    8.615    0.615 
#    1.385    0.000    3.385    0.000    0.000    0.000 
#    0.000    0.000    0.000    0.000    0.000    0.000 
#
# Total GULP energy -144945.416305 kJ/mol
# GULP energy per Si atom -5574.823704 kJ/mol
# Density = 2.299336 g / cm^3
# Si number density = 23.045817 Si / 1000 Ang^3
#
#
#
# Elastic Constant Matrix: (Units=GPa)
#
#
# Indices 1 2 3 4 5 6 
#
# 1 103.6199 25.7189 18.1461 0.0000 -4.0978 0.0000
# 2 25.7189 146.4680 14.9901 0.0000 -16.9485 0.0000
# 3 18.1461 14.9901 43.6302 0.0000 -10.8166 0.0000
# 4 0.0000 0.0000 0.0000 8.1343 0.0000 -9.9431
# 5 -4.0978 -16.9485 -10.8166 0.0000 15.6595 0.0000
# 6 0.0000 0.0000 0.0000 -9.9431 0.0000 28.9079
#
#
#
# Elastic Compliance Matrix: (Units=1/GPa)
#
#
# Indices 1 2 3 4 5 6 
#
# 1 0.010757 -0.001674 -0.004404 0.000000 -0.002039 0.000000
# 2 -0.001674 0.008084 -0.000025 0.000000 0.008294 0.000000
# 3 -0.004404 -0.000025 0.029523 0.000000 0.019213 0.000000
# 4 0.000000 0.000000 0.000000 0.212120 0.000000 0.072960
# 5 -0.002039 0.008294 0.019213 0.000000 0.085573 0.000000
# 6 0.000000 0.000000 0.000000 0.072960 0.000000 0.059688
#
#
# Mechanical properties :
#
#
# Convention : Reuss Voigt Hill
#
# Bulk Modulus (GPa) = 27.65673 45.71425 36.68549
# Shear Modulus (GPa) = 11.62781 26.19788 18.91285
#
# Velocity S-wave (km/s) = 2.24866 3.37527 2.86783
# Velocity P-wave (km/s) = 4.33229 5.92192 5.18835
#
# Compressibility (1/GPa) = 0.03615757
#
# Stress axis : x y z
#
# Youngs Moduli (GPa) = 92.96458 123.70667 33.87137
#
# Poissons Ratio (x) = 0.20709 0.14918
# Poissons Ratio (y) = 0.15563 0.00084
# Poissons Ratio (z) = 0.40943 0.00308
#
# Static dielectric constant tensor:
#      x y z
#    x 2.010680 0.000000 -0.014680 
#    y 0.000000 1.861810 0.000000 
#    z -0.014680 0.000000 1.940780 
# 
# From -- ./inp_files/185791.got.cif
#   From: 2010.05.17/outbox.cif.g08.bks.cpg/sg15_93_cif.got.tgz:185791.got - 2010.06.03 18:47:42.
