data_PCOD9266902
_publ_section_title
;
Structure prediction by ZEFSAII (Michael W. Deem and Ramdas Pophale) SiO2 
 PCOD9266902
Probable space group: C 2/C
;
_chemical_formula_sum "Si O2"
_cell_formula_units_Z 48
_cell_length_a 14.955351
_cell_length_b 8.881700
_cell_length_c 27.107364
_cell_angle_alpha 90.000000
_cell_angle_beta 40.360185
_cell_angle_gamma 90.000000
_cell_volume 2331.742025
_symmetry_space_group_name_H-M "C 2/C"
_symmetry_group_IT_number 15
_symmetry_cell_setting 'monoclinic'
loop_
_space_group_symop_operation_xyz
x,y,z
-x,y,1/2-z
-x,-y,-z
x,-y,1/2+z
1/2+x,1/2+y,z
1/2-x,1/2+y,1/2-z
1/2-x,1/2-y,-z
1/2+x,1/2-y,1/2+z
loop_
_atom_site_type_symbol
_atom_site_label
_atom_site_fract_x
_atom_site_fract_y
_atom_site_fract_z
Si Si1 0.189582 0.148935 0.421807
Si Si2 0.034306 0.058498 0.907684
Si Si3 0.992140 0.772750 0.631225
Si Si4 0.600524 0.060655 0.915401
Si Si5 0.182553 0.664511 0.298853
Si Si6 0.966230 0.510131 0.821583
O O1 0.203872 0.316204 0.394599
O O2 0.329926 0.088292 0.385107
O O3 0.069754 0.146423 0.513017
O O4 0.137049 0.036033 0.400456
O O5 0.114532 0.174614 0.839541
O O6 0.952978 0.932690 0.910236
O O7 0.987381 0.659816 0.586712
O O8 0.835467 0.808086 0.714539
O O9 0.059834 0.676634 0.645965
O O10 0.675037 0.931348 0.852650
O O11 0.500000 0.000000 0.000000
O O12 0.091277 0.569835 0.298305
O O13 0.000000 0.517999 0.750000
#
# Coordination Sequence:
#
# PCOD9266902 Si02
#       6
#     8   8   8   8   8   8
#     4  10  21  38  63  90 126 158 209 256 319 382
#     4  10  20  38  61  89 120 168 205 254 318 385
#     4  10  22  38  60  88 123 167 213 251 322 382
#     4  10  19  38  62  95 120 165 207 251 317 383
#     4  11  21  39  66  89 125 165 214 263 319 390
#     4  11  23  40  60  88 123 163 210 270 318 374
#
# _framework density 20.585467999999999
#
# number of rings (size 3 to 8) (size 9 to 14) (size 15 to 20)
#    0.000    1.667    1.667    5.000    0.000    1.333 
#    0.000    4.167    0.000    0.000    0.000    0.000 
#    0.000    0.000    0.000    0.000    0.000    0.000 
#
# Total GULP energy -134105.839038 kJ/mol
# GULP energy per Si atom -5587.743293 kJ/mol
# Density = 2.053861 g / cm^3
# Si number density = 20.585468 Si / 1000 Ang^3
#
#
#
# Elastic Constant Matrix: (Units=GPa)
#
#
# Indices 1 2 3 4 5 6 
#
# 1 53.3899 22.8832 27.6645 0.0000 4.7758 0.0001
# 2 22.8832 101.4776 15.3673 0.0000 15.5128 0.0001
# 3 27.6645 15.3673 72.0405 0.0000 27.6399 0.0000
# 4 0.0000 0.0000 0.0000 34.6940 0.0000 13.2488
# 5 4.7758 15.5128 27.6399 0.0000 28.1583 0.0000
# 6 0.0001 0.0001 0.0000 13.2488 0.0000 37.4190
#
#
#
# Elastic Compliance Matrix: (Units=1/GPa)
#
#
# Indices 1 2 3 4 5 6 
#
# 1 0.027441 -0.005959 -0.014021 0.000000 0.012391 0.000000
# 2 -0.005959 0.012055 0.003011 0.000000 -0.008586 0.000000
# 3 -0.014021 0.003011 0.029431 0.000000 -0.028170 0.000000
# 4 0.000000 0.000000 0.000000 0.033330 0.000000 -0.011801
# 5 0.012391 -0.008586 -0.028170 0.000000 0.065793 0.000000
# 6 0.000000 0.000000 0.000000 -0.011801 0.000000 0.030903
#
#
# Mechanical properties :
#
#
# Convention : Reuss Voigt Hill
#
# Bulk Modulus (GPa) = 28.58011 39.85976 34.21994
# Shear Modulus (GPa) = 20.44554 30.78713 25.61634
#
# Velocity S-wave (km/s) = 3.15493 3.87146 3.53142
# Velocity P-wave (km/s) = 5.21395 6.27610 5.76952
#
# Compressibility (1/GPa) = 0.03498937
#
# Stress axis : x y z
#
# Youngs Moduli (GPa) = 36.44227 82.95533 33.97795
#
# Poissons Ratio (x) = 0.49432 0.47639
# Poissons Ratio (y) = 0.21716 -0.10231
# Poissons Ratio (z) = 0.51094 -0.24979
#
# Static dielectric constant tensor:
#      x y z
#    x 1.743880 0.000000 0.021940 
#    y 0.000000 1.746270 0.000000 
#    z 0.021940 0.000000 1.718950 
# 
# From -- ./inp_files/202978.got.cif
#   From: 2010.05.17/outbox.cif.g08.bks.cpg/sg15_102_cif.got.tgz:202978.got - 2010.06.03 18:47:42.
