data_PCOD9266244
_publ_section_title
;
Structure prediction by ZEFSAII (Michael W. Deem and Ramdas Pophale) SiO2 
 PCOD9266244
Probable space group: C 2/C
;
_chemical_formula_sum "Si O2"
_cell_formula_units_Z 40
_cell_length_a 25.847862
_cell_length_b 12.382929
_cell_length_c 13.669072
_cell_angle_alpha 90.000000
_cell_angle_beta 22.044994
_cell_angle_gamma 90.000000
_cell_volume 1642.122793
_symmetry_space_group_name_H-M "C 2/C"
_symmetry_group_IT_number 15
_symmetry_cell_setting 'monoclinic'
loop_
_space_group_symop_operation_xyz
x,y,z
-x,y,1/2-z
-x,-y,-z
x,-y,1/2+z
1/2+x,1/2+y,z
1/2-x,1/2+y,1/2-z
1/2-x,1/2-y,-z
1/2+x,1/2-y,1/2+z
loop_
_atom_site_type_symbol
_atom_site_label
_atom_site_fract_x
_atom_site_fract_y
_atom_site_fract_z
Si Si1 0.639767 0.566518 0.040655
Si Si2 0.362020 0.005153 0.805114
Si Si3 0.557344 0.775267 0.790415
Si Si4 0.730112 0.759847 0.312965
Si Si5 0.483364 0.219753 0.644959
O O1 0.500000 0.508469 0.250000
O O2 0.586073 0.672811 0.192771
O O3 0.736396 0.507879 0.949304
O O4 0.719192 0.618044 0.807628
O O5 0.376940 0.121104 0.829905
O O6 0.500000 0.000000 0.500000
O O7 0.386171 0.898215 0.825192
O O8 0.670473 0.721888 0.522654
O O9 0.405284 0.750758 0.016367
O O10 0.539220 0.755979 0.937066
O O11 0.873535 0.694948 0.049265
#
# Coordination Sequence:
#
# PCOD9266244 Si02
#       5
#     8   8   8   8   8
#     4  10  20  37  60  89 122 153 198 248 292 348
#     4  10  19  37  62  84 114 157 195 241 293 355
#     4  10  21  38  61  84 123 157 195 243 301 346
#     4  10  20  37  55  88 121 156 192 248 289 351
#     4  10  20  36  64  84 116 155 202 238 293 350
#
# _framework density 24.358713000000002
#
# number of rings (size 3 to 8) (size 9 to 14) (size 15 to 20)
#    0.000    2.000    4.000    1.200    0.000    0.000 
#   10.800    4.000   26.400    0.000    0.000    0.000 
#    0.000    0.000    0.000    0.000    0.000    0.000 
#
# Total GULP energy -111410.344606 kJ/mol
# GULP energy per Si atom -5570.517230 kJ/mol
# Density = 2.430327 g / cm^3
# Si number density = 24.358713 Si / 1000 Ang^3
#
#
#
# Elastic Constant Matrix: (Units=GPa)
#
#
# Indices 1 2 3 4 5 6 
#
# 1 112.0716 42.3186 53.4372 0.0000 -3.3892 0.0000
# 2 42.3186 80.8795 34.2491 0.0000 -28.2079 0.0000
# 3 53.4372 34.2491 122.8636 0.0000 -24.5250 0.0000
# 4 0.0000 0.0000 0.0000 15.3549 0.0000 7.1225
# 5 -3.3892 -28.2079 -24.5250 0.0000 54.9486 0.0000
# 6 0.0000 0.0000 0.0000 7.1225 0.0000 -67.5373
#
#
#
# Elastic Compliance Matrix: (Units=1/GPa)
#
#
# Indices 1 2 3 4 5 6 
#
# 1 0.013738 -0.006742 -0.005069 0.000000 -0.004876 0.000000
# 2 -0.006742 0.019384 -0.000623 0.000000 0.009257 0.000000
# 3 -0.005069 -0.000623 0.011408 0.000000 0.004459 0.000000
# 4 0.000000 0.000000 0.000000 0.062088 0.000000 0.006548
# 5 -0.004876 0.009257 0.004459 0.000000 0.024640 0.000000
# 6 0.000000 0.000000 0.000000 0.006548 0.000000 -0.014116
#
#
# Mechanical properties :
#
#
# Convention : Reuss Voigt Hill
#
# Bulk Modulus (GPa) = 50.86287 63.98048 57.42167
# Shear Modulus (GPa) = 33.65505 12.94057 23.29781
#
# Velocity S-wave (km/s) = 3.72108 2.30739 3.09600
# Velocity P-wave (km/s) = 6.27599 5.78115 6.03364
#
# Compressibility (1/GPa) = 0.01966071
#
# Stress axis : x y z
#
# Youngs Moduli (GPa) = 72.78863 51.58798 87.66082
#
# Poissons Ratio (x) = 0.34783 0.44436
# Poissons Ratio (y) = 0.49078 0.05463
# Poissons Ratio (z) = 0.36897 0.03215
#
# Static dielectric constant tensor:
#      x y z
#    x 1.947790 0.000000 0.043740 
#    y 0.000000 2.178780 0.000000 
#    z 0.043740 0.000000 1.954510 
# 
# From -- ./inp_files/178287.got.cif
#   From: 2010.05.17/outbox.cif.g08.bks.cpg/sg15_90_cif.got.tgz:178287.got - 2010.06.03 18:47:42.
