data_PCOD9266847
_publ_section_title
;
Structure prediction by ZEFSAII (Michael W. Deem and Ramdas Pophale) SiO2 
 PCOD9266847
Probable space group: C 2/C
;
_chemical_formula_sum "Si O2"
_cell_formula_units_Z 48
_cell_length_a 11.038754
_cell_length_b 25.173459
_cell_length_c 9.599937
_cell_angle_alpha 90.000000
_cell_angle_beta 101.175545
_cell_angle_gamma 90.000000
_cell_volume 2617.080906
_symmetry_space_group_name_H-M "C 2/C"
_symmetry_group_IT_number 15
_symmetry_cell_setting 'monoclinic'
loop_
_space_group_symop_operation_xyz
x,y,z
-x,y,1/2-z
-x,-y,-z
x,-y,1/2+z
1/2+x,1/2+y,z
1/2-x,1/2+y,1/2-z
1/2-x,1/2-y,-z
1/2+x,1/2-y,1/2+z
loop_
_atom_site_type_symbol
_atom_site_label
_atom_site_fract_x
_atom_site_fract_y
_atom_site_fract_z
Si Si1 0.500000 0.615309 0.250000
Si Si2 0.210992 0.531140 0.729450
Si Si3 0.500000 0.053018 0.250000
Si Si4 0.658430 0.677282 0.066147
Si Si5 0.088095 0.274193 0.897169
Si Si6 0.623516 0.474349 0.962418
Si Si7 0.129557 0.380151 0.023354
O O1 0.587828 0.651657 0.176662
O O2 0.419465 0.577324 0.132349
O O3 0.110537 0.484482 0.722259
O O4 0.307474 0.512788 0.631742
O O5 0.141414 0.584042 0.661721
O O6 0.283078 0.537589 0.890342
O O7 0.445451 0.088212 0.112150
O O8 0.772538 0.716445 0.129161
O O9 0.730366 0.631130 0.998947
O O10 0.574235 0.715233 0.953055
O O11 0.074952 0.320352 0.011195
O O12 0.000000 0.285074 0.750000
O O13 0.500000 0.500000 0.000000
#
# Coordination Sequence:
#
# PCOD9266847 Si02
#       7
#     4   8   4   8   8   8   8
#     4  12  22  40  63  90 125 164 204 258 314 364
#     4  12  24  39  60  92 131 164 213 256 300 381
#     4  12  22  38  63  90 123 174 200 258 306 368
#     4   9  21  39  62  89 115 153 207 259 301 381
#     4   9  19  40  68  84 112 158 206 253 314 370
#     4  12  24  40  61  89 131 172 208 252 308 369
#     4  10  19  38  62  85 122 160 203 246 313 363
#
# _framework density 18.341045999999999
#
# number of rings (size 3 to 8) (size 9 to 14) (size 15 to 20)
#    1.000    0.333    4.167    2.500    0.000    1.333 
#    0.000    1.667    0.000    0.000    0.000    0.000 
#    0.000    0.000    0.000    0.000    0.000    0.000 
#
# Total GULP energy -133751.749167 kJ/mol
# GULP energy per Si atom -5572.989549 kJ/mol
# Density = 1.829930 g / cm^3
# Si number density = 18.341046 Si / 1000 Ang^3
#
#
#
# Elastic Constant Matrix: (Units=GPa)
#
#
# Indices 1 2 3 4 5 6 
#
# 1 38.8282 36.2072 15.1721 0.0000 0.8293 0.0000
# 2 36.2072 102.1224 56.3601 0.0000 9.3479 0.0000
# 3 15.1721 56.3601 106.5282 0.0000 23.5311 0.0000
# 4 0.0000 0.0000 0.0000 42.2968 0.0000 1.8368
# 5 0.8293 9.3479 23.5311 0.0000 28.4299 0.0000
# 6 0.0000 0.0000 0.0000 1.8368 0.0000 20.3423
#
#
#
# Elastic Compliance Matrix: (Units=1/GPa)
#
#
# Indices 1 2 3 4 5 6 
#
# 1 0.039048 -0.015124 0.001950 0.000000 0.002220 0.000000
# 2 -0.015124 0.019768 -0.008525 0.000000 0.000997 0.000000
# 3 0.001950 -0.008525 0.015924 0.000000 -0.010434 0.000000
# 4 0.000000 0.000000 0.000000 0.023736 0.000000 -0.002143
# 5 0.002220 0.000997 -0.010434 0.000000 0.043418 0.000000
# 6 0.000000 0.000000 0.000000 -0.002143 0.000000 0.049352
#
#
# Mechanical properties :
#
#
# Convention : Reuss Voigt Hill
#
# Bulk Modulus (GPa) = 31.90521 51.43974 41.67247
# Shear Modulus (GPa) = 20.40064 27.52974 23.96519
#
# Velocity S-wave (km/s) = 3.33873 3.87847 3.61867
# Velocity P-wave (km/s) = 5.68296 6.94001 6.34271
#
# Compressibility (1/GPa) = 0.03134285
#
# Stress axis : x y z
#
# Youngs Moduli (GPa) = 25.60955 50.58805 62.79660
#
# Poissons Ratio (x) = 0.76507 -0.12243
# Poissons Ratio (y) = 0.38731 0.53532
# Poissons Ratio (z) = -0.04993 0.43124
#
# Static dielectric constant tensor:
#      x y z
#    x 1.645120 0.000000 0.017380 
#    y 0.000000 1.649720 0.000000 
#    z 0.017380 0.000000 1.622770 
# 
# From -- ./inp_files/33118.got.cif
#   From: 2010.05.17/outbox.cif.g08.bks.cpg/sg15_17_cif.got.tgz:33118.got - 2010.06.03 18:47:42.
