data_PCOD9266190
_publ_section_title
;
Structure prediction by ZEFSAII (Michael W. Deem and Ramdas Pophale) SiO2 
 PCOD9266190
Probable space group: C 2/C
;
_chemical_formula_sum "Si O2"
_cell_formula_units_Z 52
_cell_length_a 22.305863
_cell_length_b 12.891499
_cell_length_c 12.298707
_cell_angle_alpha 90.000000
_cell_angle_beta 132.194237
_cell_angle_gamma 90.000000
_cell_volume 2620.144109
_symmetry_space_group_name_H-M "C 2/C"
_symmetry_group_IT_number 15
_symmetry_cell_setting 'monoclinic'
loop_
_space_group_symop_operation_xyz
x,y,z
-x,y,1/2-z
-x,-y,-z
x,-y,1/2+z
1/2+x,1/2+y,z
1/2-x,1/2+y,1/2-z
1/2-x,1/2-y,-z
1/2+x,1/2-y,1/2+z
loop_
_atom_site_type_symbol
_atom_site_label
_atom_site_fract_x
_atom_site_fract_y
_atom_site_fract_z
Si Si1 0.086769 0.782619 0.809595
Si Si2 0.646414 0.157557 0.565669
Si Si3 0.370060 0.934281 0.217698
Si Si4 0.500000 0.931036 0.750000
Si Si5 0.770520 0.031855 0.583861
Si Si6 0.407589 0.505761 0.099693
Si Si7 0.862401 0.121622 0.341649
O O1 0.134782 0.677496 0.848544
O O2 0.121735 0.874107 0.927559
O O3 0.078629 0.837994 0.682062
O O4 0.000000 0.753092 0.750000
O O5 0.631812 0.090045 0.657133
O O6 0.567216 0.137247 0.394731
O O7 0.658636 0.275588 0.617134
O O8 0.725573 0.118201 0.599120
O O9 0.449160 0.995644 0.271119
O O10 0.292769 0.998370 0.085446
O O11 0.853066 0.056311 0.620621
O O12 0.790993 0.936133 0.689583
O O13 0.500000 0.504631 0.250000
O O14 0.398750 0.459712 0.970044
#
# Coordination Sequence:
#
# PCOD9266190 Si02
#       7
#     8   8   8   4   8   8   8
#     4   9  19  35  58  85 112 149 193 241 282 344
#     4  10  22  37  61  88 121 155 195 243 293 353
#     4  10  19  37  61  87 119 151 198 245 289 348
#     4  10  20  36  62  88 120 158 192 240 298 342
#     4  10  22  38  59  87 116 157 196 246 294 343
#     4  10  22  38  58  79 117 155 195 242 288 353
#     4  10  22  38  57  85 120 154 196 242 295 348
#
# _framework density 19.846236999999999
#
# number of rings (size 3 to 8) (size 9 to 14) (size 15 to 20)
#    0.000    2.154    0.769    1.385    1.077   12.923 
#    0.000    0.000    0.000    0.000    0.000    0.000 
#    0.000    0.000    0.000    0.000    0.000    0.000 
#
# Total GULP energy -145024.740731 kJ/mol
# GULP energy per Si atom -5577.874644 kJ/mol
# Density = 1.980107 g / cm^3
# Si number density = 19.846237 Si / 1000 Ang^3
#
#
#
# Elastic Constant Matrix: (Units=GPa)
#
#
# Indices 1 2 3 4 5 6 
#
# 1 79.3638 10.8878 7.0582 0.0000 11.2068 0.0000
# 2 10.8878 40.9774 15.1592 0.0000 -8.1316 0.0000
# 3 7.0582 15.1592 61.4670 0.0000 -2.4983 0.0000
# 4 0.0000 0.0000 0.0000 17.0362 0.0000 -16.7793
# 5 11.2068 -8.1316 -2.4983 0.0000 25.1544 0.0000
# 6 0.0000 0.0000 0.0000 -16.7793 0.0000 27.4901
#
#
#
# Elastic Compliance Matrix: (Units=1/GPa)
#
#
# Indices 1 2 3 4 5 6 
#
# 1 0.014546 -0.005237 -0.000714 0.000000 -0.008245 0.000000
# 2 -0.005237 0.030470 -0.006444 0.000000 0.011543 0.000000
# 3 -0.000714 -0.006444 0.017941 0.000000 0.000017 0.000000
# 4 0.000000 0.000000 0.000000 0.147176 0.000000 0.089832
# 5 -0.008245 0.011543 0.000017 0.000000 0.047161 0.000000
# 6 0.000000 0.000000 0.000000 0.089832 0.000000 0.091208
#
#
# Mechanical properties :
#
#
# Convention : Reuss Voigt Hill
#
# Bulk Modulus (GPa) = 26.20058 27.55760 26.87909
# Shear Modulus (GPa) = 12.95291 23.84968 18.40130
#
# Velocity S-wave (km/s) = 2.55750 3.47035 3.04829
# Velocity P-wave (km/s) = 4.68524 5.47480 5.09534
#
# Compressibility (1/GPa) = 0.03816710
#
# Stress axis : x y z
#
# Youngs Moduli (GPa) = 68.74582 32.81960 55.73895
#
# Poissons Ratio (x) = 0.17187 0.03979
# Poissons Ratio (y) = 0.36002 0.35918
# Poissons Ratio (z) = 0.04908 0.21149
#
# Static dielectric constant tensor:
#      x y z
#    x 1.714950 0.000000 -0.012250 
#    y 0.000000 1.718530 0.000000 
#    z -0.012250 0.000000 1.669160 
# 
# From -- ./inp_files/112657.got.cif
#   From: 2010.05.17/outbox.cif.g08.bks.cpg/sg15_57_cif.got.tgz:112657.got - 2010.06.03 18:47:42.
