data_PCOD9266360
_publ_section_title
;
Structure prediction by ZEFSAII (Michael W. Deem and Ramdas Pophale) SiO2 
 PCOD9266360
Probable space group: C 2/C
;
_chemical_formula_sum "Si O2"
_cell_formula_units_Z 56
_cell_length_a 26.399356
_cell_length_b 12.835981
_cell_length_c 9.249282
_cell_angle_alpha 90.000000
_cell_angle_beta 124.331994
_cell_angle_gamma 90.000000
_cell_volume 2588.192748
_symmetry_space_group_name_H-M "C 2/C"
_symmetry_group_IT_number 15
_symmetry_cell_setting 'monoclinic'
loop_
_space_group_symop_operation_xyz
x,y,z
-x,y,1/2-z
-x,-y,-z
x,-y,1/2+z
1/2+x,1/2+y,z
1/2-x,1/2+y,1/2-z
1/2-x,1/2-y,-z
1/2+x,1/2-y,1/2+z
loop_
_atom_site_type_symbol
_atom_site_label
_atom_site_fract_x
_atom_site_fract_y
_atom_site_fract_z
Si Si1 0.384227 0.815273 0.049362
Si Si2 0.722786 0.505267 0.950014
Si Si3 0.235564 0.800309 0.133861
Si Si4 0.461621 0.893212 0.916286
Si Si5 0.417712 0.794793 0.436047
Si Si6 0.650865 0.950020 0.972545
Si Si7 0.172376 0.136606 0.108164
O O1 0.407845 0.793301 0.248134
O O2 0.349731 0.926695 0.997835
O O3 0.333989 0.727193 0.933669
O O4 0.438056 0.837132 0.023052
O O5 0.691271 0.441478 0.769020
O O6 0.743333 0.421360 0.106716
O O7 0.781974 0.566673 0.985833
O O8 0.678149 0.581687 0.964015
O O9 0.279701 0.733283 0.306867
O O10 0.250000 0.750000 0.000000
O O11 0.401778 0.921111 0.727928
O O12 0.511828 0.819957 0.923794
O O13 0.500000 0.000000 0.000000
O O14 0.374330 0.887069 0.429774
O O15 0.392464 0.689291 0.463758
#
# Coordination Sequence:
#
# PCOD9266360 Si02
#       7
#     8   8   8   8   8   8   8
#     4  12  20  39  62  93 129 175 212 257 331 398
#     4  11  24  42  66  93 136 169 219 264 331 403
#     4  10  19  37  63  91 127 171 209 256 329 399
#     4  12  25  37  61  96 133 170 214 266 331 385
#     4  12  25  40  61  95 137 170 219 262 326 399
#     4  12  23  37  62  99 134 168 203 275 331 389
#     4  11  24  42  64  95 130 175 215 276 328 387
#
# _framework density 21.63672
#
# number of rings (size 3 to 8) (size 9 to 14) (size 15 to 20)
#    0.000    0.571    8.571    1.714    4.000    0.571 
#    2.571    0.000    0.000    0.857    0.000    0.000 
#    0.000    0.000    0.000    0.000    0.000    0.000 
#
# Total GULP energy -156551.148644 kJ/mol
# GULP energy per Si atom -5591.112452 kJ/mol
# Density = 2.158747 g / cm^3
# Si number density = 21.636720 Si / 1000 Ang^3
#
#
#
# Elastic Constant Matrix: (Units=GPa)
#
#
# Indices 1 2 3 4 5 6 
#
# 1 181.3160 59.9034 43.4203 0.0000 -11.2078 0.0000
# 2 59.9034 63.2357 17.7178 0.0000 -12.9469 0.0000
# 3 43.4203 17.7178 52.4162 0.0000 -5.5810 0.0000
# 4 0.0000 0.0000 0.0000 25.1274 0.0000 -4.3996
# 5 -11.2078 -12.9469 -5.5810 0.0000 16.7827 0.0000
# 6 0.0000 0.0000 0.0000 -4.3996 0.0000 53.4612
#
#
#
# Elastic Compliance Matrix: (Units=1/GPa)
#
#
# Indices 1 2 3 4 5 6 
#
# 1 0.009150 -0.007500 -0.005194 0.000000 -0.001402 0.000000
# 2 -0.007500 0.026272 -0.001081 0.000000 0.014899 0.000000
# 3 -0.005194 -0.001081 0.024143 0.000000 0.003726 0.000000
# 4 0.000000 0.000000 0.000000 0.040379 0.000000 0.003323
# 5 -0.001402 0.014899 0.003726 0.000000 0.071381 0.000000
# 6 0.000000 0.000000 0.000000 0.003323 0.000000 0.018979
#
#
# Mechanical properties :
#
#
# Convention : Reuss Voigt Hill
#
# Bulk Modulus (GPa) = 31.23585 59.89456 45.56520
# Shear Modulus (GPa) = 21.87935 30.80267 26.34101
#
# Velocity S-wave (km/s) = 3.18341 3.77719 3.49294
# Velocity P-wave (km/s) = 5.28961 6.83849 6.11330
#
# Compressibility (1/GPa) = 0.03201450
#
# Stress axis : x y z
#
# Youngs Moduli (GPa) = 109.28768 38.06355 41.42007
#
# Poissons Ratio (x) = 0.28547 0.21514
# Poissons Ratio (y) = 0.81963 0.04479
# Poissons Ratio (z) = 0.56764 0.04116
#
# Static dielectric constant tensor:
#      x y z
#    x 1.815660 0.000000 -0.004720 
#    y 0.000000 1.829340 0.000000 
#    z -0.004720 0.000000 1.859060 
# 
# From -- ./inp_files/62006.got.cif
#   From: 2010.05.17/outbox.cif.g08.bks.cpg/sg15_32_cif.got.tgz:62006.got - 2010.06.03 18:47:42.
