data_PCOD9266075
_publ_section_title
;
Structure prediction by ZEFSAII (Michael W. Deem and Ramdas Pophale) SiO2 
 PCOD9266075
Probable space group: C 2/C
;
_chemical_formula_sum "Si O2"
_cell_formula_units_Z 52
_cell_length_a 11.991133
_cell_length_b 8.514337
_cell_length_c 18.965302
_cell_angle_alpha 90.000000
_cell_angle_beta 83.133265
_cell_angle_gamma 90.000000
_cell_volume 1922.402686
_symmetry_space_group_name_H-M "C 2/C"
_symmetry_group_IT_number 15
_symmetry_cell_setting 'monoclinic'
loop_
_space_group_symop_operation_xyz
x,y,z
-x,y,1/2-z
-x,-y,-z
x,-y,1/2+z
1/2+x,1/2+y,z
1/2-x,1/2+y,1/2-z
1/2-x,1/2-y,-z
1/2+x,1/2-y,1/2+z
loop_
_atom_site_type_symbol
_atom_site_label
_atom_site_fract_x
_atom_site_fract_y
_atom_site_fract_z
Si Si1 0.033652 0.194273 0.825621
Si Si2 0.192092 0.609543 0.124966
Si Si3 0.809664 0.527605 0.225846
Si Si4 0.470700 0.407469 0.900779
Si Si5 0.500000 0.225138 0.750000
Si Si6 0.257440 0.921852 0.083337
Si Si7 0.137309 0.350464 0.019084
O O1 0.927146 0.302613 0.854258
O O2 0.000000 0.133572 0.750000
O O3 0.136323 0.312279 0.807895
O O4 0.051955 0.055550 0.880407
O O5 0.245713 0.574295 0.196691
O O6 0.265594 0.734966 0.076378
O O7 0.162673 0.454385 0.085669
O O8 0.900583 0.395447 0.238203
O O9 0.742787 0.452896 0.167745
O O10 0.469064 0.322488 0.823408
O O11 0.358846 0.503280 0.933503
O O12 0.466867 0.264115 0.956733
O O13 0.360173 0.022832 0.044404
O O14 0.250000 0.250000 0.000000
#
# Coordination Sequence:
#
# PCOD9266075 Si02
#       7
#     8   8   8   8   4   8   8
#     4   9  17  35  58  85 113 155 193 240 299 362
#     4  10  19  37  60  81 119 161 194 237 302 352
#     4  11  21  37  59  91 118 153 200 251 295 352
#     4  10  20  37  60  84 114 158 198 242 300 360
#     4  12  20  36  58  84 120 152 190 242 310 350
#     4  10  24  36  59  90 119 152 204 247 289 357
#     4  10  20  38  58  85 119 158 194 242 301 362
#
# _framework density 27.049485000000001
#
# number of rings (size 3 to 8) (size 9 to 14) (size 15 to 20)
#    0.000    1.846    4.615    0.462    2.154    0.000 
#    0.000    6.923    0.000    0.000    0.000    0.000 
#    0.000    0.000    0.000    0.000    0.000    0.000 
#
# Total GULP energy -145438.096100 kJ/mol
# GULP energy per Si atom -5593.772927 kJ/mol
# Density = 2.698792 g / cm^3
# Si number density = 27.049485 Si / 1000 Ang^3
#
#
#
# Elastic Constant Matrix: (Units=GPa)
#
#
# Indices 1 2 3 4 5 6 
#
# 1 47.4552 18.2436 4.2232 0.0000 -24.7880 0.0000
# 2 18.2436 144.0292 41.3767 0.0000 -22.3531 0.0000
# 3 4.2232 41.3767 110.0450 0.0000 -18.9341 0.0000
# 4 0.0000 0.0000 0.0000 54.4927 0.0000 -19.6285
# 5 -24.7880 -22.3531 -18.9341 0.0000 29.7643 0.0000
# 6 0.0000 0.0000 0.0000 -19.6285 0.0000 30.5174
#
#
#
# Elastic Compliance Matrix: (Units=1/GPa)
#
#
# Indices 1 2 3 4 5 6 
#
# 1 0.039394 -0.000930 0.004899 0.000000 0.035225 0.000000
# 2 -0.000930 0.008375 -0.002430 0.000000 0.003969 0.000000
# 3 0.004899 -0.002430 0.011455 0.000000 0.009541 0.000000
# 4 0.000000 0.000000 0.000000 0.023885 0.000000 0.015362
# 5 0.035225 0.003969 0.009541 0.000000 0.071984 0.000000
# 6 0.000000 0.000000 0.000000 0.015362 0.000000 0.042649
#
#
# Mechanical properties :
#
#
# Convention : Reuss Voigt Hill
#
# Bulk Modulus (GPa) = 16.05141 47.69072 31.87107
# Shear Modulus (GPa) = 23.20921 38.80058 31.00490
#
# Velocity S-wave (km/s) = 2.93239 3.79150 3.38927
# Velocity P-wave (km/s) = 4.17279 6.06930 5.20810
#
# Compressibility (1/GPa) = 0.06229983
#
# Stress axis : x y z
#
# Youngs Moduli (GPa) = 25.38459 119.40231 87.30061
#
# Poissons Ratio (x) = 0.11108 -0.42766
# Poissons Ratio (y) = 0.02361 0.21218
# Poissons Ratio (z) = -0.12435 0.29020
#
# Static dielectric constant tensor:
#      x y z
#    x 2.054650 0.000000 -0.015190 
#    y 0.000000 2.104420 0.000000 
#    z -0.015190 0.000000 2.152230 
# 
# From -- ./inp_files/209030.got.cif
#   From: 2010.05.17/outbox.cif.g08.bks.cpg/sg15_105_cif.got.tgz:209030.got - 2010.06.03 18:47:42.
