data_PCOD9266280
_publ_section_title
;
Structure prediction by ZEFSAII (Michael W. Deem and Ramdas Pophale) SiO2 
 PCOD9266280
Probable space group: C 2/C
;
_chemical_formula_sum "Si O2"
_cell_formula_units_Z 40
_cell_length_a 15.948300
_cell_length_b 24.204851
_cell_length_c 8.503658
_cell_angle_alpha 90.000000
_cell_angle_beta 147.216315
_cell_angle_gamma 90.000000
_cell_volume 1777.444553
_symmetry_space_group_name_H-M "C 2/C"
_symmetry_group_IT_number 15
_symmetry_cell_setting 'monoclinic'
loop_
_space_group_symop_operation_xyz
x,y,z
-x,y,1/2-z
-x,-y,-z
x,-y,1/2+z
1/2+x,1/2+y,z
1/2-x,1/2+y,1/2-z
1/2-x,1/2-y,-z
1/2+x,1/2-y,1/2+z
loop_
_atom_site_type_symbol
_atom_site_label
_atom_site_fract_x
_atom_site_fract_y
_atom_site_fract_z
Si Si1 0.682810 0.724236 0.553421
Si Si2 0.682434 0.321460 0.551771
Si Si3 0.321666 0.128929 0.954801
Si Si4 0.809639 0.582337 0.444169
Si Si5 0.827873 0.519443 0.781128
O O1 0.750000 0.750000 0.500000
O O2 0.732457 0.764117 0.775967
O O3 0.748955 0.664271 0.699107
O O4 0.500000 0.722262 0.250000
O O5 0.740442 0.352728 0.487303
O O6 0.729237 0.361037 0.771198
O O7 0.500000 0.312414 0.250000
O O8 0.322690 0.063978 0.914320
O O9 0.500000 0.145492 0.250000
O O10 0.762410 0.552913 0.530999
O O11 0.760092 0.537839 0.233880
O O12 0.000000 0.589384 0.750000
O O13 0.000000 0.500000 0.000000
#
# Coordination Sequence:
#
# PCOD9266280 Si02
#       5
#     8   8   8   8   8
#     4  12  25  44  67  97 133 178 225 278 336 401
#     4  12  25  43  64  97 137 177 220 278 340 399
#     4  12  23  41  67  96 129 174 225 279 333 397
#     4  10  19  37  62  90 123 167 216 265 317 387
#     4  10  20  37  65  98 127 166 221 274 324 390
#
# _framework density 22.504218999999999
#
# number of rings (size 3 to 8) (size 9 to 14) (size 15 to 20)
#    0.000    0.800    0.000   10.800    0.000    0.000 
#    0.000    5.000    0.000    0.000    0.000    0.000 
#    0.000    0.000    0.000    0.000    0.000    0.000 
#
# Total GULP energy -111892.653298 kJ/mol
# GULP energy per Si atom -5594.632665 kJ/mol
# Density = 2.245300 g / cm^3
# Si number density = 22.504219 Si / 1000 Ang^3
#
#
#
# Elastic Constant Matrix: (Units=GPa)
#
#
# Indices 1 2 3 4 5 6 
#
# 1 52.5666 -1.6973 11.6077 0.0000 -1.9080 0.0000
# 2 -1.6973 135.1406 35.7431 0.0000 3.4915 0.0000
# 3 11.6077 35.7431 112.1433 0.0000 18.8529 0.0000
# 4 0.0000 0.0000 0.0000 33.9135 0.0000 -13.8306
# 5 -1.9080 3.4915 18.8529 0.0000 40.8232 0.0000
# 6 0.0000 0.0000 0.0000 -13.8306 0.0000 43.3209
#
#
#
# Elastic Compliance Matrix: (Units=1/GPa)
#
#
# Indices 1 2 3 4 5 6 
#
# 1 0.019720 0.000902 -0.002679 0.000000 0.002082 0.000000
# 2 0.000902 0.008133 -0.002793 0.000000 0.000636 0.000000
# 3 -0.002679 -0.002793 0.010913 0.000000 -0.004926 0.000000
# 4 0.000000 0.000000 0.000000 0.033901 0.000000 0.010823
# 5 0.002082 0.000636 -0.004926 0.000000 0.026814 0.000000
# 6 0.000000 0.000000 0.000000 0.010823 0.000000 0.026539
#
#
# Mechanical properties :
#
#
# Convention : Reuss Voigt Hill
#
# Bulk Modulus (GPa) = 33.75227 43.46196 38.60711
# Shear Modulus (GPa) = 34.47500 40.55799 37.51649
#
# Velocity S-wave (km/s) = 3.91824 4.24988 4.08743
# Velocity P-wave (km/s) = 5.95826 6.59066 6.28242
#
# Compressibility (1/GPa) = 0.02962764
#
# Stress axis : x y z
#
# Youngs Moduli (GPa) = 50.71073 122.95260 91.63672
#
# Poissons Ratio (x) = -0.11095 0.24547
# Poissons Ratio (y) = -0.04576 0.25591
# Poissons Ratio (z) = 0.13584 0.34336
#
# Static dielectric constant tensor:
#      x y z
#    x 1.858500 0.000000 -0.065150 
#    y 0.000000 1.815990 0.000000 
#    z -0.065150 0.000000 1.804780 
# 
# From -- ./inp_files/51653.got.cif
#   From: 2010.05.17/outbox.cif.g08.bks.cpg/sg15_26_cif.got.tgz:51653.got - 2010.06.03 18:47:42.
