data_PCOD9266833
_publ_section_title
;
Structure prediction by ZEFSAII (Michael W. Deem and Ramdas Pophale) SiO2 
 PCOD9266833
Probable space group: C 2/C
;
_chemical_formula_sum "Si O2"
_cell_formula_units_Z 56
_cell_length_a 7.412584
_cell_length_b 19.426939
_cell_length_c 17.115724
_cell_angle_alpha 90.000000
_cell_angle_beta 108.723342
_cell_angle_gamma 90.000000
_cell_volume 2334.295073
_symmetry_space_group_name_H-M "C 2/C"
_symmetry_group_IT_number 15
_symmetry_cell_setting 'monoclinic'
loop_
_space_group_symop_operation_xyz
x,y,z
-x,y,1/2-z
-x,-y,-z
x,-y,1/2+z
1/2+x,1/2+y,z
1/2-x,1/2+y,1/2-z
1/2-x,1/2-y,-z
1/2+x,1/2-y,1/2+z
loop_
_atom_site_type_symbol
_atom_site_label
_atom_site_fract_x
_atom_site_fract_y
_atom_site_fract_z
Si Si1 0.336895 0.142566 0.291014
Si Si2 0.500000 0.255889 0.750000
Si Si3 0.000000 0.500000 0.500000
Si Si4 0.536437 0.139219 0.473482
Si Si5 0.773080 0.513010 0.813158
Si Si6 0.547926 0.250432 0.927808
Si Si7 0.592424 0.461269 0.136739
Si Si8 0.937923 0.900208 0.967012
O O1 0.500000 0.133598 0.250000
O O2 0.177326 0.196988 0.249379
O O3 0.442192 0.169081 0.383436
O O4 0.244141 0.068387 0.293055
O O5 0.559476 0.223763 0.840701
O O6 0.097960 0.423327 0.518950
O O7 0.946391 0.484809 0.398201
O O8 0.579285 0.196883 0.541690
O O9 0.727315 0.097996 0.477689
O O10 0.599130 0.545252 0.838044
O O11 0.762068 0.543897 0.723670
O O12 0.472781 0.328089 0.929339
O O13 0.750000 0.250000 0.000000
O O14 0.570943 0.536761 0.094269
O O15 0.578066 0.411708 0.059988
#
# Coordination Sequence:
#
# PCOD9266833 Si02
#       8
#     8   4   4   8   8   8   8   8
#     4  11  22  38  71 104 133 182 242 282 338 425
#     4  12  24  48  70  96 136 186 230 292 354 416
#     4  10  22  38  66  90 136 172 216 278 338 398
#     4  11  23  43  68  99 134 175 227 288 344 414
#     4  10  19  38  61  99 137 180 222 282 341 403
#     4  12  26  46  69  96 137 181 230 286 354 420
#     4  10  21  38  69  99 136 178 229 279 351 413
#     4  11  23  41  70 101 135 178 228 287 347 419
#
# _framework density 23.990110999999999
#
# number of rings (size 3 to 8) (size 9 to 14) (size 15 to 20)
#    0.000    1.143    2.857    4.714    2.000    0.000 
#    2.571    0.000    4.714    0.000    0.000    0.000 
#    0.000    0.000    0.000    0.000    0.000    0.000 
#
# Total GULP energy -155974.424748 kJ/mol
# GULP energy per Si atom -5570.515170 kJ/mol
# Density = 2.393551 g / cm^3
# Si number density = 23.990111 Si / 1000 Ang^3
#
#
#
# Elastic Constant Matrix: (Units=GPa)
#
#
# Indices 1 2 3 4 5 6 
#
# 1 46.5350 -13.7171 27.3830 0.0000 0.7491 0.0000
# 2 -13.7171 44.3026 29.7099 0.0000 -9.9533 0.0000
# 3 27.3830 29.7099 254.5199 0.0000 1.7023 0.0000
# 4 0.0000 0.0000 0.0000 13.4895 0.0000 -2.2573
# 5 0.7491 -9.9533 1.7023 0.0000 33.3889 0.0000
# 6 0.0000 0.0000 0.0000 -2.2573 0.0000 20.2986
#
#
#
# Elastic Compliance Matrix: (Units=1/GPa)
#
#
# Indices 1 2 3 4 5 6 
#
# 1 0.027659 0.012267 -0.004430 0.000000 0.003262 0.000000
# 2 0.012267 0.031933 -0.005111 0.000000 0.009505 0.000000
# 3 -0.004430 -0.005111 0.005013 0.000000 -0.001680 0.000000
# 4 0.000000 0.000000 0.000000 0.075537 0.000000 0.008400
# 5 0.003262 0.009505 -0.001680 0.000000 0.032796 0.000000
# 6 0.000000 0.000000 0.000000 0.008400 0.000000 0.050199
#
#
# Mechanical properties :
#
#
# Convention : Reuss Voigt Hill
#
# Bulk Modulus (GPa) = 14.27358 48.01212 31.14285
# Shear Modulus (GPa) = 20.74370 33.56751 27.15560
#
# Velocity S-wave (km/s) = 2.94373 3.74468 3.36810
# Velocity P-wave (km/s) = 4.18530 6.22523 5.30426
#
# Compressibility (1/GPa) = 0.07005950
#
# Stress axis : x y z
#
# Youngs Moduli (GPa) = 36.15427 31.31547 199.46730
#
# Poissons Ratio (x) = -0.38416 0.88355
# Poissons Ratio (y) = -0.44352 1.01946
# Poissons Ratio (z) = 0.16015 0.16005
#
# Static dielectric constant tensor:
#      x y z
#    x 2.063890 0.000000 -0.029460 
#    y 0.000000 1.793180 0.000000 
#    z -0.029460 0.000000 1.981240 
# 
# From -- ./inp_files/191071.got.cif
#   From: 2010.05.17/outbox.cif.g08.bks.cpg/sg15_96_cif.got.tgz:191071.got - 2010.06.03 18:47:42.
