data_PCOD9266037
_publ_section_title
;
Structure prediction by ZEFSAII (Michael W. Deem and Ramdas Pophale) SiO2 
 PCOD9266037
Probable space group: C 2/C
;
_chemical_formula_sum "Si O2"
_cell_formula_units_Z 48
_cell_length_a 19.716641
_cell_length_b 13.979884
_cell_length_c 12.154314
_cell_angle_alpha 90.000000
_cell_angle_beta 40.269791
_cell_angle_gamma 90.000000
_cell_volume 2165.508779
_symmetry_space_group_name_H-M "C 2/C"
_symmetry_group_IT_number 15
_symmetry_cell_setting 'monoclinic'
loop_
_space_group_symop_operation_xyz
x,y,z
-x,y,1/2-z
-x,-y,-z
x,-y,1/2+z
1/2+x,1/2+y,z
1/2-x,1/2+y,1/2-z
1/2-x,1/2-y,-z
1/2+x,1/2-y,1/2+z
loop_
_atom_site_type_symbol
_atom_site_label
_atom_site_fract_x
_atom_site_fract_y
_atom_site_fract_z
Si Si1 0.799805 0.388398 0.618495
Si Si2 0.032460 0.555084 0.846405
Si Si3 0.696307 0.413043 0.205145
Si Si4 0.675846 0.789402 0.277554
Si Si5 0.511731 0.308394 0.359559
Si Si6 0.662449 0.875211 0.668676
O O1 0.726744 0.476275 0.673626
O O2 0.754255 0.288965 0.631070
O O3 0.799485 0.384167 0.752819
O O4 0.921919 0.406234 0.437853
O O5 0.108057 0.643143 0.782105
O O6 0.096922 0.468561 0.713147
O O7 0.000000 0.500000 0.000000
O O8 0.757409 0.359738 0.227261
O O9 0.574676 0.385025 0.354552
O O10 0.743471 0.369923 0.033643
O O11 0.594214 0.728801 0.453286
O O12 0.500000 0.345369 0.250000
O O13 0.584783 0.214103 0.261022
#
# Coordination Sequence:
#
# PCOD9266037 Si02
#       6
#     8   8   8   8   8   8
#     4  11  23  38  59  92 120 162 204 242 308 363
#     4  10  19  37  59  88 120 154 203 248 289 361
#     4  12  23  38  61  91 123 159 202 256 304 357
#     4  12  20  37  61  85 125 157 200 251 300 362
#     4  12  22  34  61  96 122 151 199 258 317 354
#     4  11  20  36  62  92 116 151 203 258 293 346
#
# _framework density 22.165692
#
# number of rings (size 3 to 8) (size 9 to 14) (size 15 to 20)
#    0.000    0.667   10.000    1.500    0.000    0.667 
#    0.000    0.833    0.000    0.000    0.000    0.000 
#    0.000    0.000    0.000    0.000    0.000    0.000 
#
# Total GULP energy -134279.232572 kJ/mol
# GULP energy per Si atom -5594.968024 kJ/mol
# Density = 2.211524 g / cm^3
# Si number density = 22.165692 Si / 1000 Ang^3
#
#
#
# Elastic Constant Matrix: (Units=GPa)
#
#
# Indices 1 2 3 4 5 6 
#
# 1 98.0264 43.6778 3.2660 0.0000 -14.0014 0.0000
# 2 43.6778 137.8715 26.4975 0.0000 -28.6952 0.0000
# 3 3.2660 26.4975 36.4250 0.0000 -10.5291 0.0000
# 4 0.0000 0.0000 0.0000 26.5570 0.0000 -6.6948
# 5 -14.0014 -28.6952 -10.5291 0.0000 23.1883 0.0000
# 6 0.0000 0.0000 0.0000 -6.6948 0.0000 30.5016
#
#
#
# Elastic Compliance Matrix: (Units=1/GPa)
#
#
# Indices 1 2 3 4 5 6 
#
# 1 0.012293 -0.003520 0.002699 0.000000 0.004293 0.000000
# 2 -0.003520 0.011357 -0.005177 0.000000 0.009577 0.000000
# 3 0.002699 -0.005177 0.034069 0.000000 0.010692 0.000000
# 4 0.000000 0.000000 0.000000 0.039860 0.000000 0.008749
# 5 0.004293 0.009577 0.010692 0.000000 0.062424 0.000000
# 6 0.000000 0.000000 0.000000 0.008749 0.000000 0.034705
#
#
# Mechanical properties :
#
#
# Convention : Reuss Voigt Hill
#
# Bulk Modulus (GPa) = 21.87125 46.57838 34.22482
# Shear Modulus (GPa) = 22.52815 29.30817 25.91816
#
# Velocity S-wave (km/s) = 3.19149 3.64019 3.42320
# Velocity P-wave (km/s) = 4.84452 6.22313 5.57659
#
# Compressibility (1/GPa) = 0.04572212
#
# Stress axis : x y z
#
# Youngs Moduli (GPa) = 81.34844 88.05491 29.35245
#
# Poissons Ratio (x) = 0.30993 -0.07922
# Poissons Ratio (y) = 0.28632 0.15197
# Poissons Ratio (z) = -0.21956 0.45589
#
# Static dielectric constant tensor:
#      x y z
#    x 1.889800 0.000000 0.018410 
#    y 0.000000 1.790080 0.000000 
#    z 0.018410 0.000000 1.874470 
# 
# From -- ./inp_files/167829.got.cif
#   From: 2010.05.17/outbox.cif.g08.bks.cpg/sg15_84_cif.got.tgz:167829.got - 2010.06.03 18:47:42.
