data_PCOD9266203
_publ_section_title
;
Structure prediction by ZEFSAII (Michael W. Deem and Ramdas Pophale) SiO2 
 PCOD9266203
Probable space group: C 2/C
;
_chemical_formula_sum "Si O2"
_cell_formula_units_Z 52
_cell_length_a 31.082912
_cell_length_b 10.325688
_cell_length_c 8.885937
_cell_angle_alpha 90.000000
_cell_angle_beta 55.956161
_cell_angle_gamma 90.000000
_cell_volume 2363.163774
_symmetry_space_group_name_H-M "C 2/C"
_symmetry_group_IT_number 15
_symmetry_cell_setting 'monoclinic'
loop_
_space_group_symop_operation_xyz
x,y,z
-x,y,1/2-z
-x,-y,-z
x,-y,1/2+z
1/2+x,1/2+y,z
1/2-x,1/2+y,1/2-z
1/2-x,1/2-y,-z
1/2+x,1/2-y,1/2+z
loop_
_atom_site_type_symbol
_atom_site_label
_atom_site_fract_x
_atom_site_fract_y
_atom_site_fract_z
Si Si1 0.230491 0.284734 0.870512
Si Si2 0.529751 0.846256 0.342398
Si Si3 0.449021 0.344952 0.109051
Si Si4 0.879158 0.506469 0.191360
Si Si5 0.805025 0.581470 0.603292
Si Si6 0.000000 0.016312 0.750000
Si Si7 0.382848 0.742260 0.501251
O O1 0.224616 0.440121 0.847832
O O2 0.266772 0.203772 0.684354
O O3 0.172619 0.226994 0.962015
O O4 0.250000 0.250000 0.000000
O O5 0.500000 0.893609 0.250000
O O6 0.484336 0.784481 0.532231
O O7 0.568017 0.943363 0.352838
O O8 0.569299 0.731594 0.208385
O O9 0.476369 0.436030 0.932010
O O10 0.454363 0.399181 0.264179
O O11 0.393730 0.327728 0.137890
O O12 0.845903 0.576082 0.386523
O O13 0.839277 0.408832 0.189074
O O14 0.888226 0.608247 0.041022
#
# Coordination Sequence:
#
# PCOD9266203 Si02
#       7
#     8   8   8   8   8   4   8
#     4  11  22  44  67  93 131 170 214 272 332 384
#     4  10  19  37  61  89 121 163 197 253 315 374
#     4  10  21  39  62  88 123 166 203 258 310 384
#     4  11  21  40  63  89 126 159 202 267 318 377
#     4  11  23  41  68  92 128 169 214 267 330 378
#     4  10  20  40  60  80 126 168 202 250 316 362
#     4  10  21  39  59  92 125 157 209 258 318 374
#
# _framework density 22.0044
#
# number of rings (size 3 to 8) (size 9 to 14) (size 15 to 20)
#    0.000    1.538    6.923    0.000    0.000    6.154 
#    4.154    1.538    0.000    0.000    0.000    0.000 
#    0.000    0.000    0.000    0.000    0.000    0.000 
#
# Total GULP energy -144890.979064 kJ/mol
# GULP energy per Si atom -5572.729964 kJ/mol
# Density = 2.195432 g / cm^3
# Si number density = 22.004400 Si / 1000 Ang^3
#
#
#
# Elastic Constant Matrix: (Units=GPa)
#
#
# Indices 1 2 3 4 5 6 
#
# 1 180.8137 29.9442 19.5749 0.0000 9.8641 0.0000
# 2 29.9442 64.1232 13.0282 0.0000 1.9894 0.0000
# 3 19.5749 13.0282 52.0212 0.0000 -2.0192 0.0000
# 4 0.0000 0.0000 0.0000 7.9717 0.0000 2.1650
# 5 9.8641 1.9894 -2.0192 0.0000 25.6799 0.0000
# 6 0.0000 0.0000 0.0000 2.1650 0.0000 42.3185
#
#
#
# Elastic Compliance Matrix: (Units=1/GPa)
#
#
# Indices 1 2 3 4 5 6 
#
# 1 0.006268 -0.002482 -0.001829 0.000000 -0.002359 0.000000
# 2 -0.002482 0.017480 -0.003470 0.000000 -0.000673 0.000000
# 3 -0.001829 -0.003470 0.020881 0.000000 0.002613 0.000000
# 4 0.000000 0.000000 0.000000 0.127212 0.000000 -0.006508
# 5 -0.002359 -0.000673 0.002613 0.000000 0.040105 0.000000
# 6 0.000000 0.000000 0.000000 -0.006508 0.000000 0.023963
#
#
# Mechanical properties :
#
#
# Convention : Reuss Voigt Hill
#
# Bulk Modulus (GPa) = 34.40177 46.89477 40.64827
# Shear Modulus (GPa) = 19.14532 30.82141 24.98337
#
# Velocity S-wave (km/s) = 2.95289 3.74664 3.37320
# Velocity P-wave (km/s) = 5.22437 6.33042 5.80381
#
# Compressibility (1/GPa) = 0.02906827
#
# Stress axis : x y z
#
# Youngs Moduli (GPa) = 159.53196 57.20787 47.88956
#
# Poissons Ratio (x) = 0.14202 0.08757
# Poissons Ratio (y) = 0.39603 0.16616
# Poissons Ratio (z) = 0.29171 0.19850
#
# Static dielectric constant tensor:
#      x y z
#    x 1.869280 0.000000 -0.019800 
#    y 0.000000 1.947720 0.000000 
#    z -0.019800 0.000000 1.900800 
# 
# From -- ./inp_files/65070.got.cif
#   From: 2010.05.17/outbox.cif.g08.bks.cpg/sg15_33_cif.got.tgz:65070.got - 2010.06.03 18:47:42.
