data_PCOD9266143
_publ_section_title
;
Structure prediction by ZEFSAII (Michael W. Deem and Ramdas Pophale) SiO2 
 PCOD9266143
Probable space group: C 2/C
;
_chemical_formula_sum "Si O2"
_cell_formula_units_Z 48
_cell_length_a 23.053916
_cell_length_b 10.208192
_cell_length_c 27.044848
_cell_angle_alpha 90.000000
_cell_angle_beta 162.196101
_cell_angle_gamma 90.000000
_cell_volume 1946.071931
_symmetry_space_group_name_H-M "C 2/C"
_symmetry_group_IT_number 15
_symmetry_cell_setting 'monoclinic'
loop_
_space_group_symop_operation_xyz
x,y,z
-x,y,1/2-z
-x,-y,-z
x,-y,1/2+z
1/2+x,1/2+y,z
1/2-x,1/2+y,1/2-z
1/2-x,1/2-y,-z
1/2+x,1/2-y,1/2+z
loop_
_atom_site_type_symbol
_atom_site_label
_atom_site_fract_x
_atom_site_fract_y
_atom_site_fract_z
Si Si1 0.760923 0.049254 0.366803
Si Si2 0.662456 0.882037 0.571339
Si Si3 0.769668 0.324849 0.232736
Si Si4 0.375476 0.117572 0.099078
Si Si5 0.454296 0.507535 0.126635
Si Si6 0.279541 0.162862 0.857952
O O1 0.534795 0.079209 0.188620
O O2 0.850455 0.985629 0.488914
O O3 0.844155 0.194653 0.426874
O O4 0.798496 0.951916 0.352322
O O5 0.675675 0.802861 0.633326
O O6 0.496121 0.816378 0.406025
O O7 0.605080 0.032958 0.534057
O O8 0.878696 0.889111 0.727850
O O9 0.751704 0.337168 0.276642
O O10 0.500000 0.118694 0.250000
O O11 0.211251 0.007577 0.968262
O O12 0.250000 0.250000 0.000000
O O13 0.580669 0.373847 0.223889
#
# Coordination Sequence:
#
# PCOD9266143 Si02
#       6
#     8   8   8   8   8   8
#     4  11  23  38  67  92 124 161 204 252 311 358
#     4  10  24  40  58  84 128 160 208 247 306 361
#     4  12  24  39  60  91 123 170 203 248 303 376
#     4  10  19  37  60  92 121 156 202 256 307 358
#     4   9  22  39  60  88 125 156 200 255 303 356
#     4  10  23  37  63  90 129 155 205 250 311 360
#
# _framework density 24.66507
#
# number of rings (size 3 to 8) (size 9 to 14) (size 15 to 20)
#    1.000    0.667    1.667    2.500    4.667    2.000 
#    0.000    0.833    0.000    0.000    0.000    0.000 
#    0.000    0.000    0.000    0.000    0.000    0.000 
#
# Total GULP energy -134025.311642 kJ/mol
# GULP energy per Si atom -5584.387985 kJ/mol
# Density = 2.460893 g / cm^3
# Si number density = 24.665070 Si / 1000 Ang^3
#
#
#
# Elastic Constant Matrix: (Units=GPa)
#
#
# Indices 1 2 3 4 5 6 
#
# 1 40.4412 27.5806 14.3950 0.0041 7.5487 0.0001
# 2 27.5806 89.3577 33.7929 -0.0217 -0.5257 0.0038
# 3 14.3950 33.7929 136.8903 -0.0237 16.9298 0.0125
# 4 0.0041 -0.0217 -0.0237 21.3991 0.0047 2.6991
# 5 7.5487 -0.5257 16.9298 0.0047 38.4348 -0.0010
# 6 0.0001 0.0038 0.0125 2.6991 -0.0010 16.5298
#
#
#
# Elastic Compliance Matrix: (Units=1/GPa)
#
#
# Indices 1 2 3 4 5 6 
#
# 1 0.032918 -0.010142 -0.000149 -0.000016 -0.006538 0.000004
# 2 -0.010142 0.015562 -0.003223 0.000014 0.003625 -0.000003
# 3 -0.000149 -0.003223 0.008586 0.000008 -0.003797 -0.000007
# 4 -0.000016 0.000014 0.000008 0.047714 -0.000006 -0.007791
# 5 -0.006538 0.003625 -0.003797 -0.000006 0.029024 0.000005
# 6 0.000004 -0.000003 -0.000007 -0.007791 0.000005 0.061769
#
#
# Mechanical properties :
#
#
# Convention : Reuss Voigt Hill
#
# Bulk Modulus (GPa) = 33.29341 46.46959 39.88150
# Shear Modulus (GPa) = 21.49486 28.00078 24.74782
#
# Velocity S-wave (km/s) = 2.95527 3.37299 3.17101
# Velocity P-wave (km/s) = 5.01720 5.83528 5.44164
#
# Compressibility (1/GPa) = 0.03003597
#
# Stress axis : x y z
#
# Youngs Moduli (GPa) = 30.37884 64.26025 116.46735
#
# Poissons Ratio (x) = 0.65174 0.01738
# Poissons Ratio (y) = 0.30811 0.37541
# Poissons Ratio (z) = 0.00453 0.20713
#
# Static dielectric constant tensor:
#      x y z
#    x 1.957970 -0.000020 0.094180 
#    y -0.000020 1.943020 -0.000030 
#    z 0.094180 -0.000030 2.015740 
# 
# From -- ./inp_files/304238.got.cif
#   From: 2010.05.17/outbox.cif.g08.bks.cpg/sg15_153_cif.got.tgz:304238.got - 2010.06.03 18:47:42.
