data_PCOD9266370
_publ_section_title
;
Structure prediction by ZEFSAII (Michael W. Deem and Ramdas Pophale) SiO2 
 PCOD9266370
Probable space group: C 2/C
;
_chemical_formula_sum "Si O2"
_cell_formula_units_Z 56
_cell_length_a 17.619627
_cell_length_b 19.743094
_cell_length_c 14.766126
_cell_angle_alpha 90.000000
_cell_angle_beta 151.165531
_cell_angle_gamma 90.000000
_cell_volume 2477.299072
_symmetry_space_group_name_H-M "C 2/C"
_symmetry_group_IT_number 15
_symmetry_cell_setting 'monoclinic'
loop_
_space_group_symop_operation_xyz
x,y,z
-x,y,1/2-z
-x,-y,-z
x,-y,1/2+z
1/2+x,1/2+y,z
1/2-x,1/2+y,1/2-z
1/2-x,1/2-y,-z
1/2+x,1/2-y,1/2+z
loop_
_atom_site_type_symbol
_atom_site_label
_atom_site_fract_x
_atom_site_fract_y
_atom_site_fract_z
Si Si1 0.629643 0.481754 0.495843
Si Si2 0.951306 0.113554 0.335881
Si Si3 0.164469 0.480353 0.126681
Si Si4 0.736618 0.835846 0.278270
Si Si5 0.633908 0.340563 0.548122
Si Si6 0.558912 0.221437 0.099115
Si Si7 0.676924 0.059600 0.955110
O O1 0.487082 0.533850 0.357132
O O2 0.711512 0.482626 0.679145
O O3 0.581176 0.404199 0.432749
O O4 0.749334 0.515346 0.549596
O O5 0.906748 0.140905 0.388894
O O6 0.797261 0.119266 0.112315
O O7 0.129361 0.143406 0.508657
O O8 0.213173 0.401894 0.190043
O O9 0.159212 0.508807 0.021256
O O10 0.000000 0.500000 0.000000
O O11 0.818803 0.772313 0.318412
O O12 0.556195 0.811143 0.097172
O O13 0.541888 0.269436 0.438792
O O14 0.822394 0.332670 0.733469
O O15 0.500000 0.084630 0.750000
#
# Coordination Sequence:
#
# PCOD9266370 Si02
#       7
#     8   8   8   8   8   8   8
#     4  11  22  39  62  92 134 167 208 269 336 384
#     4  10  22  37  59  93 128 164 208 269 329 384
#     4  11  21  38  63  93 129 165 209 274 334 385
#     4   9  20  35  62  89 127 162 213 267 313 383
#     4  10  19  37  63  92 131 167 212 268 310 387
#     4   9  19  34  59  99 119 166 230 248 317 384
#     4  12  25  37  58  97 130 171 212 252 341 395
#
# _framework density 22.605263999999998
#
# number of rings (size 3 to 8) (size 9 to 14) (size 15 to 20)
#    0.000    1.714    2.857    1.714    4.000    0.000 
#    0.000    0.000    0.000    5.143    0.000  218.000 
#    0.000    0.000    0.000    0.000    0.000    0.000 
#
# Total GULP energy -155887.866191 kJ/mol
# GULP energy per Si atom -5567.423793 kJ/mol
# Density = 2.255381 g / cm^3
# Si number density = 22.605264 Si / 1000 Ang^3
#
#
#
# Elastic Constant Matrix: (Units=GPa)
#
#
# Indices 1 2 3 4 5 6 
#
# 1 39.4153 -17.6887 0.1455 0.0000 7.6827 0.0000
# 2 -17.6887 63.4350 10.6953 0.0000 5.6471 0.0000
# 3 0.1455 10.6953 110.3496 0.0000 26.0486 0.0000
# 4 0.0000 0.0000 0.0000 30.6733 0.0000 13.3289
# 5 7.6827 5.6471 26.0486 0.0000 32.0996 0.0000
# 6 0.0000 0.0000 0.0000 13.3289 0.0000 16.2365
#
#
#
# Elastic Compliance Matrix: (Units=1/GPa)
#
#
# Indices 1 2 3 4 5 6 
#
# 1 0.031677 0.009511 0.001510 0.000000 -0.010480 0.000000
# 2 0.009511 0.018979 -0.000651 0.000000 -0.005087 0.000000
# 3 0.001510 -0.000651 0.011357 0.000000 -0.009463 0.000000
# 4 0.000000 0.000000 0.000000 0.050681 0.000000 -0.041605
# 5 -0.010480 -0.005087 -0.009463 0.000000 0.042236 0.000000
# 6 0.000000 0.000000 0.000000 -0.041605 0.000000 0.095744
#
#
# Mechanical properties :
#
#
# Convention : Reuss Voigt Hill
#
# Bulk Modulus (GPa) = 12.08411 22.16710 17.12561
# Shear Modulus (GPa) = 19.41620 30.47172 24.94396
#
# Velocity S-wave (km/s) = 2.93392 3.67548 3.32544
# Velocity P-wave (km/s) = 4.10299 5.27633 4.72621
#
# Compressibility (1/GPa) = 0.08275327
#
# Stress axis : x y z
#
# Youngs Moduli (GPa) = 31.56912 52.68981 88.05093
#
# Poissons Ratio (x) = -0.50115 -0.13299
# Poissons Ratio (y) = -0.30026 0.05734
# Poissons Ratio (z) = -0.04768 0.03431
#
# Static dielectric constant tensor:
#      x y z
#    x 1.957730 0.000000 0.036610 
#    y 0.000000 1.971130 0.000000 
#    z 0.036610 0.000000 1.943470 
# 
# From -- ./inp_files/163824.got.cif
#   From: 2010.05.17/outbox.cif.g08.bks.cpg/sg15_82_cif.got.tgz:163824.got - 2010.06.03 18:47:42.
