data_PCOD9266492
_publ_section_title
;
Structure prediction by ZEFSAII (Michael W. Deem and Ramdas Pophale) SiO2 
 PCOD9266492
Probable space group: C 2/C
;
_chemical_formula_sum "Si O2"
_cell_formula_units_Z 60
_cell_length_a 5.442189
_cell_length_b 24.348650
_cell_length_c 22.332303
_cell_angle_alpha 90.000000
_cell_angle_beta 121.355466
_cell_angle_gamma 90.000000
_cell_volume 2527.069928
_symmetry_space_group_name_H-M "C 2/C"
_symmetry_group_IT_number 15
_symmetry_cell_setting 'monoclinic'
loop_
_space_group_symop_operation_xyz
x,y,z
-x,y,1/2-z
-x,-y,-z
x,-y,1/2+z
1/2+x,1/2+y,z
1/2-x,1/2+y,1/2-z
1/2-x,1/2-y,-z
1/2+x,1/2-y,1/2+z
loop_
_atom_site_type_symbol
_atom_site_label
_atom_site_fract_x
_atom_site_fract_y
_atom_site_fract_z
Si Si1 0.996184 0.497964 0.816254
Si Si2 0.468803 0.264626 0.678923
Si Si3 0.453813 0.650567 0.070164
Si Si4 0.000000 0.816147 0.250000
Si Si5 0.589143 0.444561 0.432044
Si Si6 0.973906 0.580366 0.079903
Si Si7 0.180589 0.170723 0.579227
Si Si8 0.237613 0.595675 0.662339
O O1 0.305376 0.520637 0.880222
O O2 0.881543 0.453480 0.848397
O O3 0.000000 0.474845 0.750000
O O4 0.806065 0.553153 0.789428
O O5 0.500000 0.289229 0.750000
O O6 0.510792 0.308032 0.631703
O O7 0.199660 0.225652 0.622581
O O8 0.730448 0.222233 0.714210
O O9 0.744895 0.619835 0.085587
O O10 0.206339 0.610038 0.065973
O O11 0.347048 0.681112 0.995786
O O12 0.000562 0.861270 0.197168
O O13 0.776209 0.459084 0.513147
O O14 0.542612 0.378406 0.435901
O O15 0.770766 0.443680 0.395084
O O16 0.471257 0.136453 0.625732
#
# Coordination Sequence:
#
# PCOD9266492 Si02
#       8
#     8   8   8   4   8   8   8   8
#     4  11  25  40  64  98 138 179 229 278 350 411
#     4  11  24  40  68  97 138 180 228 280 352 408
#     4  11  25  47  70  98 137 183 238 283 330 402
#     4  10  22  38  62  98 130 172 216 282 350 408
#     4  10  20  40  67  98 131 174 227 290 342 404
#     4  11  26  46  70  98 136 185 236 283 333 400
#     4   9  20  41  64 101 128 173 221 290 336 400
#     4  10  19  37  65  94 133 164 223 279 345 403
#
# _framework density 23.742912
#
# number of rings (size 3 to 8) (size 9 to 14) (size 15 to 20)
#    0.000    1.600    1.333    2.400    3.733    5.333 
#    0.000    2.000    0.000    0.000    0.000    0.000 
#    0.000    0.000    0.000    0.000    0.000    0.000 
#
# Total GULP energy -167199.235513 kJ/mol
# GULP energy per Si atom -5573.307850 kJ/mol
# Density = 2.368887 g / cm^3
# Si number density = 23.742912 Si / 1000 Ang^3
#
#
#
# Elastic Constant Matrix: (Units=GPa)
#
#
# Indices 1 2 3 4 5 6 
#
# 1 46.2023 8.9991 4.3234 0.0000 -8.4996 0.0000
# 2 8.9991 42.2793 34.9019 0.0000 -4.2812 0.0000
# 3 4.3234 34.9019 112.0065 0.0000 -23.4504 0.0000
# 4 0.0000 0.0000 0.0000 44.3719 0.0000 -10.6952
# 5 -8.4996 -4.2812 -23.4504 0.0000 34.6516 0.0000
# 6 0.0000 0.0000 0.0000 -10.6952 0.0000 33.1985
#
#
#
# Elastic Compliance Matrix: (Units=1/GPa)
#
#
# Indices 1 2 3 4 5 6 
#
# 1 0.023916 -0.006479 0.002512 0.000000 0.006766 0.000000
# 2 -0.006479 0.033914 -0.011387 0.000000 -0.005105 0.000000
# 3 0.002512 -0.011387 0.014230 0.000000 0.008840 0.000000
# 4 0.000000 0.000000 0.000000 0.024434 0.000000 0.007872
# 5 0.006766 -0.005105 0.008840 0.000000 0.035870 0.000000
# 6 0.000000 0.000000 0.000000 0.007872 0.000000 0.032658
#
#
# Mechanical properties :
#
#
# Convention : Reuss Voigt Hill
#
# Bulk Modulus (GPa) = 24.18224 32.99300 28.58762
# Shear Modulus (GPa) = 23.86495 32.59531 28.23013
#
# Velocity S-wave (km/s) = 3.17383 3.70921 3.45192
# Velocity P-wave (km/s) = 4.86190 5.68071 5.28718
#
# Compressibility (1/GPa) = 0.04135265
#
# Stress axis : x y z
#
# Youngs Moduli (GPa) = 41.81381 29.48628 70.27460
#
# Poissons Ratio (x) = 0.19105 -0.17656
# Poissons Ratio (y) = 0.27092 0.80019
# Poissons Ratio (z) = -0.10505 0.33575
#
# Static dielectric constant tensor:
#      x y z
#    x 2.403980 0.000000 -0.280950 
#    y 0.000000 1.913670 0.000000 
#    z -0.280950 0.000000 2.199590 
# 
# From -- ./inp_files/228621.got.cif
#   From: 2010.05.17/outbox.cif.g08.bks.cpg/sg15_115_cif.got.tgz:228621.got - 2010.06.03 18:47:42.
