data_PCOD9266076
_publ_section_title
;
Structure prediction by ZEFSAII (Michael W. Deem and Ramdas Pophale) SiO2 
 PCOD9266076
Probable space group: C 2/C
;
_chemical_formula_sum "Si O2"
_cell_formula_units_Z 40
_cell_length_a 8.738736
_cell_length_b 29.333720
_cell_length_c 14.923642
_cell_angle_alpha 90.000000
_cell_angle_beta 30.912370
_cell_angle_gamma 90.000000
_cell_volume 1965.271461
_symmetry_space_group_name_H-M "C 2/C"
_symmetry_group_IT_number 15
_symmetry_cell_setting 'monoclinic'
loop_
_space_group_symop_operation_xyz
x,y,z
-x,y,1/2-z
-x,-y,-z
x,-y,1/2+z
1/2+x,1/2+y,z
1/2-x,1/2+y,1/2-z
1/2-x,1/2-y,-z
1/2+x,1/2-y,1/2+z
loop_
_atom_site_type_symbol
_atom_site_label
_atom_site_fract_x
_atom_site_fract_y
_atom_site_fract_z
Si Si1 0.119323 0.063417 0.528546
Si Si2 0.000000 0.869200 0.250000
Si Si3 0.946661 0.315493 0.445312
Si Si4 0.012802 0.513817 0.889703
Si Si5 0.500000 0.248325 0.750000
Si Si6 0.219388 0.100978 0.959264
O O1 0.122392 0.099080 0.608603
O O2 0.832072 0.031170 0.694811
O O3 0.053940 0.089528 0.468807
O O4 0.395760 0.029864 0.395601
O O5 0.270549 0.840043 0.153777
O O6 0.779103 0.281524 0.595855
O O7 0.723337 0.354380 0.518740
O O8 0.039746 0.284132 0.315048
O O9 0.796530 0.556693 0.979328
O O10 0.000000 0.500000 0.000000
O O11 0.500000 0.107139 0.750000
#
# Coordination Sequence:
#
# PCOD9266076 Si02
#       6
#     8   4   8   8   4   8
#     4  11  21  36  57  86 121 171 204 253 299 349
#     4  12  20  38  65  86 126 164 201 250 314 366
#     4  11  21  43  67  93 122 159 203 254 320 379
#     4  11  19  35  55  85 117 161 210 246 295 353
#     4  10  24  42  69  94 120 154 199 262 318 384
#     4  10  19  37  60  81 119 167 201 247 306 369
#
# _framework density 20.353421000000001
#
# number of rings (size 3 to 8) (size 9 to 14) (size 15 to 20)
#    0.000    1.200    7.000    0.600    0.000    0.800 
#    7.200    0.000    0.000    0.000    0.000    0.000 
#    0.000    0.000    0.000    0.000    0.000    0.000 
#
# Total GULP energy -111841.282812 kJ/mol
# GULP energy per Si atom -5592.064141 kJ/mol
# Density = 2.030710 g / cm^3
# Si number density = 20.353421 Si / 1000 Ang^3
#
#
#
# Elastic Constant Matrix: (Units=GPa)
#
#
# Indices 1 2 3 4 5 6 
#
# 1 97.0885 64.4457 26.6693 0.0000 4.8360 0.0000
# 2 64.4457 150.5733 39.6592 0.0000 0.3195 0.0000
# 3 26.6693 39.6592 43.1780 0.0000 3.5250 0.0000
# 4 0.0000 0.0000 0.0000 42.0361 0.0000 -30.1270
# 5 4.8360 0.3195 3.5250 0.0000 17.1360 0.0000
# 6 0.0000 0.0000 0.0000 -30.1270 0.0000 66.5761
#
#
#
# Elastic Compliance Matrix: (Units=1/GPa)
#
#
# Indices 1 2 3 4 5 6 
#
# 1 0.015191 -0.005402 -0.004149 0.000000 -0.003333 0.000000
# 2 -0.005402 0.010721 -0.006732 0.000000 0.002709 0.000000
# 3 -0.004149 -0.006732 0.032343 0.000000 -0.005357 0.000000
# 4 0.000000 0.000000 0.000000 0.035207 0.000000 0.015932
# 5 -0.003333 0.002709 -0.005357 0.000000 0.060349 0.000000
# 6 0.000000 0.000000 0.000000 0.015932 0.000000 0.022230
#
#
# Mechanical properties :
#
#
# Convention : Reuss Voigt Hill
#
# Bulk Modulus (GPa) = 38.92646 61.37647 50.15147
# Shear Modulus (GPa) = 23.02348 35.82071 29.42210
#
# Velocity S-wave (km/s) = 3.36696 4.19971 3.80618
# Velocity P-wave (km/s) = 5.85508 7.33059 6.63399
#
# Compressibility (1/GPa) = 0.02568947
#
# Stress axis : x y z
#
# Youngs Moduli (GPa) = 65.82666 93.27831 30.91862
#
# Poissons Ratio (x) = 0.50389 0.12829
# Poissons Ratio (y) = 0.35560 0.20813
# Poissons Ratio (z) = 0.27313 0.62790
#
# Static dielectric constant tensor:
#      x y z
#    x 1.737090 0.000000 0.002380 
#    y 0.000000 1.702010 0.000000 
#    z 0.002380 0.000000 1.747120 
# 
# From -- ./inp_files/44970.got.cif
#   From: 2010.05.17/outbox.cif.g08.bks.cpg/sg15_23_cif.got.tgz:44970.got - 2010.06.03 18:47:42.
