data_PCOD9266598
_publ_section_title
;
Structure prediction by ZEFSAII (Michael W. Deem and Ramdas Pophale) SiO2 
 PCOD9266598
Probable space group: C 2/C
;
_chemical_formula_sum "Si O2"
_cell_formula_units_Z 60
_cell_length_a 19.469069
_cell_length_b 28.012290
_cell_length_c 9.116227
_cell_angle_alpha 90.000000
_cell_angle_beta 138.099050
_cell_angle_gamma 90.000000
_cell_volume 3320.355162
_symmetry_space_group_name_H-M "C 2/C"
_symmetry_group_IT_number 15
_symmetry_cell_setting 'monoclinic'
loop_
_space_group_symop_operation_xyz
x,y,z
-x,y,1/2-z
-x,-y,-z
x,-y,1/2+z
1/2+x,1/2+y,z
1/2-x,1/2+y,1/2-z
1/2-x,1/2-y,-z
1/2+x,1/2-y,1/2+z
loop_
_atom_site_type_symbol
_atom_site_label
_atom_site_fract_x
_atom_site_fract_y
_atom_site_fract_z
Si Si1 0.284484 0.835661 0.436199
Si Si2 0.088841 0.678087 0.068903
Si Si3 0.720629 0.263859 0.736953
Si Si4 0.111281 0.515203 0.738218
Si Si5 0.624894 0.935705 0.971356
Si Si6 0.912727 0.176966 0.710538
Si Si7 0.000000 0.408149 0.250000
Si Si8 0.458909 0.734462 0.344299
O O1 0.362050 0.822062 0.691885
O O2 0.268053 0.790842 0.301037
O O3 0.333716 0.882670 0.447909
O O4 0.177332 0.849598 0.345624
O O5 0.172797 0.706982 0.104400
O O6 0.057561 0.626555 0.957135
O O7 0.987228 0.710007 0.906688
O O8 0.648263 0.287848 0.496419
O O9 0.658186 0.271398 0.788922
O O10 0.159701 0.468977 0.891079
O O11 0.161543 0.536901 0.674837
O O12 0.000000 0.500000 0.500000
O O13 0.083907 0.557062 0.809516
O O14 0.500000 0.933554 0.750000
O O15 0.000000 0.151598 0.750000
O O16 0.972480 0.207080 0.927500
O O17 0.500000 0.719193 0.250000
#
# Coordination Sequence:
#
# PCOD9266598 Si02
#       8
#     8   8   8   8   8   8   4   8
#     4  11  20  33  57  81  99 142 195 219 264 331
#     4  11  21  34  49  81 105 145 186 226 260 323
#     4  10  21  35  53  73 110 140 193 226 252 318
#     4  10  19  38  50  75 107 142 173 228 264 326
#     4  10  21  32  55  76 108 140 175 219 275 316
#     4   9  18  37  55  71 103 142 178 226 263 309
#     4  12  22  34  56  74 116 146 184 212 288 318
#     4  11  21  34  48  70 110 150 170 225 273 299
#
# _framework density 18.070356
#
# number of rings (size 3 to 8) (size 9 to 14) (size 15 to 20)
#    0.000    1.600    5.333    2.400    3.733    0.533 
#    2.400    0.000    0.000    0.000    0.000    0.933 
#    0.000    0.000    0.000    0.000    0.000    0.000 
#
# Total GULP energy -167220.502159 kJ/mol
# GULP energy per Si atom -5574.016739 kJ/mol
# Density = 1.802923 g / cm^3
# Si number density = 18.070356 Si / 1000 Ang^3
#
#
#
# Elastic Constant Matrix: (Units=GPa)
#
#
# Indices 1 2 3 4 5 6 
#
# 1 60.9612 1.7819 4.5785 0.0000 -3.3135 0.0000
# 2 1.7819 52.8542 0.3626 0.0000 1.9394 0.0000
# 3 4.5785 0.3626 45.9212 0.0000 2.6520 0.0000
# 4 0.0000 0.0000 0.0000 21.3109 0.0000 -9.3962
# 5 -3.3135 1.9394 2.6520 0.0000 23.1657 0.0000
# 6 0.0000 0.0000 0.0000 -9.3962 0.0000 15.9610
#
#
#
# Elastic Compliance Matrix: (Units=1/GPa)
#
#
# Indices 1 2 3 4 5 6 
#
# 1 0.016703 -0.000648 -0.001813 0.000000 0.002651 0.000000
# 2 -0.000648 0.019004 0.000012 0.000000 -0.001685 0.000000
# 3 -0.001813 0.000012 0.022118 0.000000 -0.002793 0.000000
# 4 0.000000 0.000000 0.000000 0.063374 0.000000 0.037308
# 5 0.002651 -0.001685 -0.002793 0.000000 0.044007 0.000000
# 6 0.000000 0.000000 0.000000 0.037308 0.000000 0.084616
#
#
# Mechanical properties :
#
#
# Convention : Reuss Voigt Hill
#
# Bulk Modulus (GPa) = 18.89424 19.24253 19.06838
# Shear Modulus (GPa) = 18.35783 22.28842 20.32313
#
# Velocity S-wave (km/s) = 3.19079 3.51582 3.35724
# Velocity P-wave (km/s) = 4.90444 5.21087 5.05997
#
# Compressibility (1/GPa) = 0.05292617
#
# Stress axis : x y z
#
# Youngs Moduli (GPa) = 59.86916 52.62167 45.21124
#
# Poissons Ratio (x) = 0.03410 0.08198
# Poissons Ratio (y) = 0.03879 -0.00054
# Poissons Ratio (z) = 0.10856 -0.00062
#
# Static dielectric constant tensor:
#      x y z
#    x 1.696440 0.000000 -0.033480 
#    y 0.000000 1.608190 0.000000 
#    z -0.033480 0.000000 1.661760 
# 
# From -- ./inp_files/52198.got.cif
#   From: 2010.05.17/outbox.cif.g08.bks.cpg/sg15_27_cif.got.tgz:52198.got - 2010.06.03 18:47:42.
