data_PCOD9266120
_publ_section_title
;
Structure prediction by ZEFSAII (Michael W. Deem and Ramdas Pophale) SiO2 
 PCOD9266120
Probable space group: C 2/C
;
_chemical_formula_sum "Si O2"
_cell_formula_units_Z 56
_cell_length_a 14.402797
_cell_length_b 7.908478
_cell_length_c 27.130318
_cell_angle_alpha 90.000000
_cell_angle_beta 121.882837
_cell_angle_gamma 90.000000
_cell_volume 2624.029969
_symmetry_space_group_name_H-M "C 2/C"
_symmetry_group_IT_number 15
_symmetry_cell_setting 'monoclinic'
loop_
_space_group_symop_operation_xyz
x,y,z
-x,y,1/2-z
-x,-y,-z
x,-y,1/2+z
1/2+x,1/2+y,z
1/2-x,1/2+y,1/2-z
1/2-x,1/2-y,-z
1/2+x,1/2-y,1/2+z
loop_
_atom_site_type_symbol
_atom_site_label
_atom_site_fract_x
_atom_site_fract_y
_atom_site_fract_z
Si Si1 0.932242 0.836858 0.133154
Si Si2 0.665173 0.273299 0.207699
Si Si3 0.691052 0.796868 0.075982
Si Si4 0.456237 0.301976 0.683280
Si Si5 0.843103 0.834430 0.827467
Si Si6 0.011726 0.140902 0.961719
Si Si7 0.282185 0.177121 0.380365
O O1 0.816436 0.744824 0.101213
O O2 0.951085 0.909935 0.083000
O O3 0.037977 0.724581 0.175106
O O4 0.938172 0.994421 0.172480
O O5 0.733484 0.251215 0.275945
O O6 0.666633 0.468214 0.189959
O O7 0.721091 0.165292 0.180033
O O8 0.649728 0.699846 0.112911
O O9 0.701785 0.995138 0.090850
O O10 0.606099 0.764555 0.008583
O O11 0.500000 0.261003 0.750000
O O12 0.551500 0.260314 0.671323
O O13 0.333529 0.237330 0.638050
O O14 0.892209 0.222419 0.923211
O O15 0.000000 0.000000 0.000000
#
# Coordination Sequence:
#
# PCOD9266120 Si02
#       7
#     8   8   8   8   8   8   8
#     4   9  22  36  62  87 120 159 205 243 306 357
#     4  10  20  38  56  89 121 157 202 254 299 365
#     4  11  22  39  61  88 118 164 201 250 300 362
#     4  10  19  37  60  87 119 158 196 252 306 362
#     4  11  22  36  61  87 123 161 201 245 311 355
#     4  11  22  43  63  88 125 160 203 256 299 360
#     4  10  21  39  62  90 116 158 204 249 301 358
#
# _framework density 21.34122
#
# number of rings (size 3 to 8) (size 9 to 14) (size 15 to 20)
#    0.000    1.714    1.429    4.286    6.000    0.000 
#    0.000   17.857    0.000    0.000    0.000    0.000 
#    0.000    0.000    0.000    0.000    0.000    0.000 
#
# Total GULP energy -156340.985567 kJ/mol
# GULP energy per Si atom -5583.606627 kJ/mol
# Density = 2.129265 g / cm^3
# Si number density = 21.341220 Si / 1000 Ang^3
#
#
#
# Elastic Constant Matrix: (Units=GPa)
#
#
# Indices 1 2 3 4 5 6 
#
# 1 120.9048 1.9058 35.1841 0.0000 29.0823 0.0000
# 2 1.9058 31.7342 11.9220 0.0000 4.9281 0.0000
# 3 35.1841 11.9220 112.9144 0.0000 16.8253 0.0000
# 4 0.0000 0.0000 0.0000 32.0906 0.0000 -5.8586
# 5 29.0823 4.9281 16.8253 0.0000 37.5783 0.0000
# 6 0.0000 0.0000 0.0000 -5.8586 0.0000 18.7031
#
#
#
# Elastic Compliance Matrix: (Units=1/GPa)
#
#
# Indices 1 2 3 4 5 6 
#
# 1 0.010727 0.001404 -0.002386 0.000000 -0.007418 0.000000
# 2 0.001404 0.033305 -0.003366 0.000000 -0.003947 0.000000
# 3 -0.002386 -0.003366 0.010301 0.000000 -0.002325 0.000000
# 4 0.000000 0.000000 0.000000 0.033052 0.000000 0.010353
# 5 -0.007418 -0.003947 -0.002325 0.000000 0.033911 0.000000
# 6 0.000000 0.000000 0.000000 0.010353 0.000000 0.056710
#
#
# Mechanical properties :
#
#
# Convention : Reuss Voigt Hill
#
# Bulk Modulus (GPa) = 21.91110 40.39745 31.15428
# Shear Modulus (GPa) = 24.76303 32.11050 28.43676
#
# Velocity S-wave (km/s) = 3.41007 3.88316 3.65428
# Velocity P-wave (km/s) = 5.07879 6.25105 5.69516
#
# Compressibility (1/GPa) = 0.04563896
#
# Stress axis : x y z
#
# Youngs Moduli (GPa) = 93.21941 30.02562 97.07439
#
# Poissons Ratio (x) = -0.04215 0.23157
# Poissons Ratio (y) = -0.13088 0.32673
# Poissons Ratio (z) = 0.22238 0.10106
#
# Static dielectric constant tensor:
#      x y z
#    x 1.833490 0.000000 0.030500 
#    y 0.000000 1.793770 0.000000 
#    z 0.030500 0.000000 1.768340 
# 
# From -- ./inp_files/272857.got.cif
#   From: 2010.05.17/outbox.cif.g08.bks.cpg/sg15_137_cif.got.tgz:272857.got - 2010.06.03 18:47:42.
