data_PCOD9266727
_publ_section_title
;
Structure prediction by ZEFSAII (Michael W. Deem and Ramdas Pophale) SiO2 
 PCOD9266727
Probable space group: C 2/C
;
_chemical_formula_sum "Si O2"
_cell_formula_units_Z 44
_cell_length_a 20.954473
_cell_length_b 10.497423
_cell_length_c 22.953756
_cell_angle_alpha 90.000000
_cell_angle_beta 22.910888
_cell_angle_gamma 90.000000
_cell_volume 1965.606079
_symmetry_space_group_name_H-M "C 2/C"
_symmetry_group_IT_number 15
_symmetry_cell_setting 'monoclinic'
loop_
_space_group_symop_operation_xyz
x,y,z
-x,y,1/2-z
-x,-y,-z
x,-y,1/2+z
1/2+x,1/2+y,z
1/2-x,1/2+y,1/2-z
1/2-x,1/2-y,-z
1/2+x,1/2-y,1/2+z
loop_
_atom_site_type_symbol
_atom_site_label
_atom_site_fract_x
_atom_site_fract_y
_atom_site_fract_z
Si Si1 0.087844 0.366821 0.495230
Si Si2 0.437839 0.146865 0.616739
Si Si3 0.719342 0.665625 0.904852
Si Si4 0.748004 0.431810 0.957201
Si Si5 0.500000 0.875458 0.250000
Si Si6 0.565061 0.711263 0.769662
O O1 0.999297 0.502314 0.569579
O O2 0.279294 0.378499 0.350502
O O3 0.082618 0.316820 0.433405
O O4 0.999791 0.275076 0.615634
O O5 0.573404 0.236912 0.531678
O O6 0.274535 0.157774 0.791855
O O7 0.678024 0.527409 0.966581
O O8 0.881931 0.700312 0.806358
O O9 0.858620 0.326531 0.832152
O O10 0.870395 0.526112 0.889670
O O11 0.597353 0.363584 0.115083
#
# Coordination Sequence:
#
# PCOD9266727 Si02
#       6
#     8   8   8   8   4   8
#     4  10  21  37  57  89 110 155 188 232 286 353
#     4  11  22  37  59  81 121 149 194 233 288 346
#     4  10  22  40  55  86 114 154 192 247 276 344
#     4   9  20  38  59  86 115 152 190 244 279 345
#     4   8  20  40  58  84 116 144 202 242 284 334
#     4  10  19  38  60  82 121 146 191 238 290 336
#
# _framework density 22.384952999999999
#
# number of rings (size 3 to 8) (size 9 to 14) (size 15 to 20)
#    1.091    1.091    1.818    1.091    2.545    1.455 
#    0.000    2.727    0.000    3.273    0.000    0.000 
#    0.000    0.000    0.000    0.000    0.000    0.000 
#
# Total GULP energy -122776.846391 kJ/mol
# GULP energy per Si atom -5580.765745 kJ/mol
# Density = 2.233400 g / cm^3
# Si number density = 22.384953 Si / 1000 Ang^3
#
#
#
# Elastic Constant Matrix: (Units=GPa)
#
#
# Indices 1 2 3 4 5 6 
#
# 1 51.7835 -2.8598 4.8680 -0.0005 2.1577 -0.0001
# 2 -2.8598 18.0626 0.3340 -0.0052 6.6626 0.0018
# 3 4.8680 0.3340 82.4993 -0.0049 14.3209 0.0011
# 4 -0.0005 -0.0052 -0.0049 31.0177 0.0000 -0.2823
# 5 2.1577 6.6626 14.3209 0.0000 36.6673 0.0009
# 6 -0.0001 0.0018 0.0011 -0.2823 0.0009 3.6980
#
#
#
# Elastic Compliance Matrix: (Units=1/GPa)
#
#
# Indices 1 2 3 4 5 6 
#
# 1 0.019661 0.003670 -0.000921 0.000001 -0.001464 0.000000
# 2 0.003670 0.060262 0.001585 0.000010 -0.011785 -0.000025
# 3 -0.000921 0.001585 0.013098 0.000002 -0.005349 -0.000003
# 4 0.000001 0.000010 0.000002 0.032262 -0.000003 0.002463
# 5 -0.001464 -0.011785 -0.005349 -0.000003 0.031589 0.000000
# 6 0.000000 -0.000025 -0.000003 0.002463 0.000000 0.270603
#
#
# Mechanical properties :
#
#
# Convention : Reuss Voigt Hill
#
# Bulk Modulus (GPa) = 9.83382 17.44776 13.64079
# Shear Modulus (GPa) = 11.04476 24.27682 17.66079
#
# Velocity S-wave (km/s) = 2.22367 3.29677 2.81189
# Velocity P-wave (km/s) = 3.31595 4.72260 4.08035
#
# Compressibility (1/GPa) = 0.10168987
#
# Stress axis : x y z
#
# Youngs Moduli (GPa) = 50.86104 16.59424 76.34861
#
# Poissons Ratio (x) = -0.06090 0.07031
# Poissons Ratio (y) = -0.18666 -0.12103
# Poissons Ratio (z) = 0.04684 -0.02631
#
# Static dielectric constant tensor:
#      x y z
#    x 1.920870 0.000000 0.005210 
#    y 0.000000 1.788670 0.000000 
#    z 0.005210 0.000000 1.791920 
# 
# From -- ./inp_files/68764.got.cif
#   From: 2010.05.17/outbox.cif.g08.bks.cpg/sg15_35_cif.got.tgz:68764.got - 2010.06.03 18:47:42.
