data_PCOD9266774
_publ_section_title
;
Structure prediction by ZEFSAII (Michael W. Deem and Ramdas Pophale) SiO2 
 PCOD9266774
Probable space group: C 2/C
;
_chemical_formula_sum "Si O2"
_cell_formula_units_Z 56
_cell_length_a 29.553376
_cell_length_b 11.890456
_cell_length_c 25.423208
_cell_angle_alpha 90.000000
_cell_angle_beta 162.544508
_cell_angle_gamma 90.000000
_cell_volume 2679.824346
_symmetry_space_group_name_H-M "C 2/C"
_symmetry_group_IT_number 15
_symmetry_cell_setting 'monoclinic'
loop_
_space_group_symop_operation_xyz
x,y,z
-x,y,1/2-z
-x,-y,-z
x,-y,1/2+z
1/2+x,1/2+y,z
1/2-x,1/2+y,1/2-z
1/2-x,1/2-y,-z
1/2+x,1/2-y,1/2+z
loop_
_atom_site_type_symbol
_atom_site_label
_atom_site_fract_x
_atom_site_fract_y
_atom_site_fract_z
Si Si1 0.281029 0.458033 0.151163
Si Si2 0.526948 0.875885 0.068042
Si Si3 0.014892 0.869357 0.580087
Si Si4 0.699243 0.443475 0.679457
Si Si5 0.501164 0.733503 0.932221
Si Si6 0.439014 0.957441 0.805431
Si Si7 0.327408 0.869479 0.577437
O O1 0.387879 0.566067 0.269615
O O2 0.366025 0.361212 0.280984
O O3 0.114080 0.486882 0.986853
O O4 0.261156 0.419661 0.069916
O O5 0.373001 0.941529 0.884339
O O6 0.548916 0.810057 0.035992
O O7 0.497560 0.761886 0.068925
O O8 0.611058 0.960643 0.202165
O O9 0.107926 0.903721 0.630205
O O10 0.857419 0.933933 0.399067
O O11 0.645824 0.345871 0.580140
O O12 0.452065 0.827365 0.837101
O O13 0.339184 0.949640 0.641956
O O14 0.500000 0.852781 0.750000
O O15 0.250000 0.750000 0.500000
#
# Coordination Sequence:
#
# PCOD9266774 Si02
#       7
#     8   8   8   8   8   8   8
#     4  10  19  38  61  78 110 153 198 236 288 360
#     4  11  21  32  53  82 120 148 184 237 278 365
#     4   9  19  35  51  76 107 153 185 225 277 342
#     4   9  18  32  53  73 109 148 190 216 278 344
#     4  10  20  32  54  82 113 147 183 235 293 341
#     4  11  21  35  55  85 114 147 189 237 295 347
#     4  10  21  39  65  86 113 150 200 256 296 345
#
# _framework density 20.896892000000001
#
# number of rings (size 3 to 8) (size 9 to 14) (size 15 to 20)
#    0.000    2.000    2.857    2.143    2.000    0.000 
#    0.000    0.714    0.000    0.000    0.000    0.000 
#    0.000    0.000    0.000    0.000    0.000    0.000 
#
# Total GULP energy -155962.590253 kJ/mol
# GULP energy per Si atom -5570.092509 kJ/mol
# Density = 2.084933 g / cm^3
# Si number density = 20.896892 Si / 1000 Ang^3
#
#
#
# Elastic Constant Matrix: (Units=GPa)
#
#
# Indices 1 2 3 4 5 6 
#
# 1 58.5257 11.5806 26.7717 0.0009 -23.3869 0.0004
# 2 11.5806 90.5891 28.8235 0.0009 -21.8751 0.0006
# 3 26.7717 28.8235 88.8256 0.0015 -22.2706 0.0010
# 4 0.0009 0.0009 0.0015 23.6930 0.0013 -6.4550
# 5 -23.3869 -21.8751 -22.2706 0.0013 31.0605 0.0007
# 6 0.0004 0.0006 0.0010 -6.4550 0.0007 28.9309
#
#
#
# Elastic Compliance Matrix: (Units=1/GPa)
#
#
# Indices 1 2 3 4 5 6 
#
# 1 0.025689 0.002362 -0.003953 -0.000002 0.018171 -0.000001
# 2 0.002362 0.013951 -0.002840 -0.000001 0.009567 -0.000001
# 3 -0.003953 -0.002840 0.014780 -0.000001 0.005621 -0.000001
# 4 -0.000002 -0.000001 -0.000001 0.044938 -0.000006 0.010026
# 5 0.018171 0.009567 0.005621 -0.000006 0.056645 -0.000003
# 6 -0.000001 -0.000001 -0.000001 0.010026 -0.000003 0.036802
#
#
# Mechanical properties :
#
#
# Convention : Reuss Voigt Hill
#
# Bulk Modulus (GPa) = 21.95046 41.36580 31.65813
# Shear Modulus (GPa) = 23.05700 28.12118 25.58909
#
# Velocity S-wave (km/s) = 3.32530 3.67237 3.50314
# Velocity P-wave (km/s) = 5.02698 6.14979 5.61651
#
# Compressibility (1/GPa) = 0.04555714
#
# Stress axis : x y z
#
# Youngs Moduli (GPa) = 38.92778 71.68044 67.65754
#
# Poissons Ratio (x) = -0.16929 0.26744
# Poissons Ratio (y) = -0.09193 0.19215
# Poissons Ratio (z) = 0.15388 0.20358
#
# Static dielectric constant tensor:
#      x y z
#    x 1.885220 0.000000 0.024650 
#    y 0.000000 1.824570 0.000000 
#    z 0.024650 0.000000 1.789920 
# 
# From -- ./inp_files/284653.got.cif
#   From: 2010.05.17/outbox.cif.g08.bks.cpg/sg15_143_cif.got.tgz:284653.got - 2010.06.03 18:47:42.
