data_PCOD9266465
_publ_section_title
;
Structure prediction by ZEFSAII (Michael W. Deem and Ramdas Pophale) SiO2 
 PCOD9266465
Probable space group: C 2/C
;
_chemical_formula_sum "Si O2"
_cell_formula_units_Z 52
_cell_length_a 8.353520
_cell_length_b 28.376953
_cell_length_c 14.442314
_cell_angle_alpha 90.000000
_cell_angle_beta 38.878878
_cell_angle_gamma 90.000000
_cell_volume 2148.857738
_symmetry_space_group_name_H-M "C 2/C"
_symmetry_group_IT_number 15
_symmetry_cell_setting 'monoclinic'
loop_
_space_group_symop_operation_xyz
x,y,z
-x,y,1/2-z
-x,-y,-z
x,-y,1/2+z
1/2+x,1/2+y,z
1/2-x,1/2+y,1/2-z
1/2-x,1/2-y,-z
1/2+x,1/2-y,1/2+z
loop_
_atom_site_type_symbol
_atom_site_label
_atom_site_fract_x
_atom_site_fract_y
_atom_site_fract_z
Si Si1 0.361625 0.612146 0.103029
Si Si2 0.029292 0.233738 0.846051
Si Si3 0.000000 0.026409 0.250000
Si Si4 0.730736 0.826581 0.822749
Si Si5 0.906037 0.875564 0.187957
Si Si6 0.235711 0.007315 0.324544
Si Si7 0.628656 0.897494 0.017219
O O1 0.389260 0.608374 0.980931
O O2 0.652812 0.617039 0.008281
O O3 0.218693 0.652617 0.224493
O O4 0.243572 0.563973 0.193458
O O5 0.000000 0.238732 0.750000
O O6 0.198659 0.271330 0.824569
O O7 0.113465 0.180370 0.826270
O O8 0.750000 0.250000 0.000000
O O9 0.135612 0.995069 0.267310
O O10 0.775964 0.059322 0.397721
O O11 0.000000 0.836367 0.750000
O O12 0.562011 0.856871 0.970398
O O13 0.633810 0.901741 0.308395
O O14 0.000000 0.880768 0.250000
O O15 0.500000 0.989983 0.250000
O O16 0.000000 0.000000 0.500000
#
# Coordination Sequence:
#
# PCOD9266465 Si02
#       7
#     8   8   4   8   8   8   8
#     4  10  22  42  65  93 127 175 219 277 335 411
#     4  11  23  38  52  85 131 173 216 282 338 388
#     4  10  22  48  74  98 144 178 218 290 336 428
#     4  10  19  37  65  86 116 173 224 265 330 397
#     4  11  24  36  57  94 131 171 225 284 334 401
#     4  11  26  46  75 108 140 185 234 278 356 423
#     4  10  19  40  64  90 124 169 219 274 342 390
#
# _framework density 24.198902
#
# number of rings (size 3 to 8) (size 9 to 14) (size 15 to 20)
#    0.000    1.538    3.846    3.231    2.154    6.154 
#    1.385    3.846    0.000    0.000    0.000    0.000 
#    0.000    0.000    0.000    0.000    0.000    0.000 
#
# Total GULP energy -145171.924342 kJ/mol
# GULP energy per Si atom -5583.535552 kJ/mol
# Density = 2.414382 g / cm^3
# Si number density = 24.198902 Si / 1000 Ang^3
#
#
#
# Elastic Constant Matrix: (Units=GPa)
#
#
# Indices 1 2 3 4 5 6 
#
# 1 132.4189 19.9178 36.4969 0.0000 5.9741 0.0000
# 2 19.9178 89.5350 5.6875 0.0000 -0.3262 0.0000
# 3 36.4969 5.6875 107.5560 0.0000 2.8429 0.0000
# 4 0.0000 0.0000 0.0000 16.6286 0.0000 6.7020
# 5 5.9741 -0.3262 2.8429 0.0000 45.9542 0.0000
# 6 0.0000 0.0000 0.0000 6.7020 0.0000 35.8991
#
#
#
# Elastic Compliance Matrix: (Units=1/GPa)
#
#
# Indices 1 2 3 4 5 6 
#
# 1 0.008633 -0.001745 -0.002812 0.000000 -0.000961 0.000000
# 2 -0.001745 0.011560 -0.000027 0.000000 0.000311 0.000000
# 3 -0.002812 -0.000027 0.010260 0.000000 -0.000269 0.000000
# 4 0.000000 0.000000 0.000000 0.065030 0.000000 -0.012140
# 5 -0.000961 0.000311 -0.000269 0.000000 0.021905 0.000000
# 6 0.000000 0.000000 0.000000 -0.012140 0.000000 0.030122
#
#
# Mechanical properties :
#
#
# Convention : Reuss Voigt Hill
#
# Bulk Modulus (GPa) = 46.98299 50.41270 48.69784
# Shear Modulus (GPa) = 30.53006 37.52356 34.02681
#
# Velocity S-wave (km/s) = 3.55580 3.94208 3.75391
# Velocity P-wave (km/s) = 6.02625 6.44964 6.24154
#
# Compressibility (1/GPa) = 0.02128430
#
# Stress axis : x y z
#
# Youngs Moduli (GPa) = 115.84029 86.50568 97.46490
#
# Poissons Ratio (x) = 0.15098 0.27403
# Poissons Ratio (y) = 0.20217 0.00266
# Poissons Ratio (z) = 0.32570 0.00236
#
# Static dielectric constant tensor:
#      x y z
#    x 2.009860 0.000000 0.047310 
#    y 0.000000 1.932290 0.000000 
#    z 0.047310 0.000000 1.963390 
# 
# From -- ./inp_files/139722.got.cif
#   From: 2010.05.17/outbox.cif.g08.bks.cpg/sg15_70_cif.got.tgz:139722.got - 2010.06.03 18:47:42.
