data_PCOD9266675
_publ_section_title
;
Structure prediction by ZEFSAII (Michael W. Deem and Ramdas Pophale) SiO2 
 PCOD9266675
Probable space group: C 2/C
;
_chemical_formula_sum "Si O2"
_cell_formula_units_Z 40
_cell_length_a 14.063247
_cell_length_b 15.366772
_cell_length_c 17.096583
_cell_angle_alpha 90.000000
_cell_angle_beta 30.732701
_cell_angle_gamma 90.000000
_cell_volume 1888.108797
_symmetry_space_group_name_H-M "C 2/C"
_symmetry_group_IT_number 15
_symmetry_cell_setting 'monoclinic'
loop_
_space_group_symop_operation_xyz
x,y,z
-x,y,1/2-z
-x,-y,-z
x,-y,1/2+z
1/2+x,1/2+y,z
1/2-x,1/2+y,1/2-z
1/2-x,1/2-y,-z
1/2+x,1/2-y,1/2+z
loop_
_atom_site_type_symbol
_atom_site_label
_atom_site_fract_x
_atom_site_fract_y
_atom_site_fract_z
Si Si1 0.412296 0.429354 0.623181
Si Si2 0.295705 0.043222 0.622907
Si Si3 0.979149 0.558510 0.175746
Si Si4 0.917076 0.362510 0.171070
Si Si5 0.810466 0.231975 0.545916
O O1 0.500000 0.500000 0.500000
O O2 0.362708 0.475461 0.741163
O O3 0.211441 0.405187 0.727542
O O4 0.549333 0.349344 0.541105
O O5 0.337645 0.075448 0.506587
O O6 0.271134 0.117334 0.705835
O O7 0.500000 0.000000 0.500000
O O8 0.956440 0.452717 0.187515
O O9 0.000000 0.585681 0.250000
O O10 0.852007 0.292544 0.279880
O O11 0.090531 0.321999 0.002999
O O12 0.750000 0.250000 0.500000
#
# Coordination Sequence:
#
# PCOD9266675 Si02
#       5
#     8   8   8   8   8
#     4  10  19  38  59  81 126 181 208 253 321 389
#     4   8  18  37  60  76 116 167 216 254 319 378
#     4  10  20  39  63  85 117 161 226 269 310 385
#     4  10  22  36  54  88 129 162 202 262 328 384
#     4  12  23  35  55  92 130 164 205 258 321 382
#
# _framework density 21.185220999999999
#
# number of rings (size 3 to 8) (size 9 to 14) (size 15 to 20)
#    0.000    2.400    4.000    1.800    8.400    0.000 
#    3.600    1.000    0.000    1.200    0.000    0.000 
#    0.000    0.000    0.000    0.000    0.000    0.000 
#
# Total GULP energy -111397.576055 kJ/mol
# GULP energy per Si atom -5569.878803 kJ/mol
# Density = 2.113700 g / cm^3
# Si number density = 21.185221 Si / 1000 Ang^3
#
#
#
# Elastic Constant Matrix: (Units=GPa)
#
#
# Indices 1 2 3 4 5 6 
#
# 1 92.0986 27.3498 40.6488 0.0013 29.2322 -0.0011
# 2 27.3498 58.2882 17.7562 -0.0058 -6.4988 0.0012
# 3 40.6488 17.7562 105.7668 -0.0014 22.8167 -0.0012
# 4 0.0013 -0.0058 -0.0014 47.1292 -0.0014 3.1732
# 5 29.2322 -6.4988 22.8167 -0.0014 39.8572 0.0011
# 6 -0.0011 0.0012 -0.0012 3.1732 0.0011 19.7598
#
#
#
# Elastic Compliance Matrix: (Units=1/GPa)
#
#
# Indices 1 2 3 4 5 6 
#
# 1 0.019618 -0.009978 -0.002749 -0.000002 -0.014441 0.000003
# 2 -0.009978 0.024212 -0.003035 0.000004 0.013003 -0.000004
# 3 -0.002749 -0.003035 0.012199 0.000000 -0.005462 0.000001
# 4 -0.000002 0.000004 0.000000 0.021450 0.000003 -0.003445
# 5 -0.014441 0.013003 -0.005462 0.000003 0.040928 -0.000005
# 6 0.000003 -0.000004 0.000001 -0.003445 -0.000005 0.051161
#
#
# Mechanical properties :
#
#
# Convention : Reuss Voigt Hill
#
# Bulk Modulus (GPa) = 40.80782 47.51814 44.16298
# Shear Modulus (GPa) = 23.89350 32.70916 28.30133
#
# Velocity S-wave (km/s) = 3.36197 3.93359 3.65896
# Velocity P-wave (km/s) = 5.86299 6.56577 6.22431
#
# Compressibility (1/GPa) = 0.02450510
#
# Stress axis : x y z
#
# Youngs Moduli (GPa) = 50.97342 41.30132 81.97224
#
# Poissons Ratio (x) = 0.41210 0.22536
# Poissons Ratio (y) = 0.50860 0.24881
# Poissons Ratio (z) = 0.14014 0.12536
#
# Static dielectric constant tensor:
#      x y z
#    x 1.854480 0.000000 0.010460 
#    y 0.000000 1.813420 0.000000 
#    z 0.010460 0.000000 1.889960 
# 
# From -- ./inp_files/205608.got.cif
#   From: 2010.05.17/outbox.cif.g08.bks.cpg/sg15_103_cif.got.tgz:205608.got - 2010.06.03 18:47:42.
