data_PCOD9266771
_publ_section_title
;
Structure prediction by ZEFSAII (Michael W. Deem and Ramdas Pophale) SiO2 
 PCOD9266771
Probable space group: C 2/C
;
_chemical_formula_sum "Si O2"
_cell_formula_units_Z 56
_cell_length_a 20.752501
_cell_length_b 10.708441
_cell_length_c 25.594435
_cell_angle_alpha 90.000000
_cell_angle_beta 158.106968
_cell_angle_gamma 90.000000
_cell_volume 2120.827943
_symmetry_space_group_name_H-M "C 2/C"
_symmetry_group_IT_number 15
_symmetry_cell_setting 'monoclinic'
loop_
_space_group_symop_operation_xyz
x,y,z
-x,y,1/2-z
-x,-y,-z
x,-y,1/2+z
1/2+x,1/2+y,z
1/2-x,1/2+y,1/2-z
1/2-x,1/2-y,-z
1/2+x,1/2-y,1/2+z
loop_
_atom_site_type_symbol
_atom_site_label
_atom_site_fract_x
_atom_site_fract_y
_atom_site_fract_z
Si Si1 0.833948 0.889267 0.532841
Si Si2 0.500000 0.969892 0.750000
Si Si3 0.980215 0.339008 0.367393
Si Si4 0.019110 0.915604 0.095788
Si Si5 0.500000 0.533263 0.750000
Si Si6 0.597351 0.720301 0.564504
Si Si7 0.540004 0.747851 0.852915
Si Si8 0.392967 0.035338 0.368709
O O1 0.889374 0.746078 0.567794
O O2 0.647171 0.939111 0.379468
O O3 0.885369 0.944334 0.628005
O O4 0.938560 0.968109 0.566444
O O5 0.463946 0.873043 0.770334
O O6 0.791944 0.326456 0.198785
O O7 0.996033 0.485005 0.395506
O O8 0.009931 0.276295 0.447407
O O9 0.972390 0.875520 0.001357
O O10 0.217909 0.955595 0.239107
O O11 0.980232 0.797217 0.103525
O O12 0.438332 0.634873 0.746311
O O13 0.640819 0.822158 0.642410
O O14 0.750000 0.750000 0.000000
O O15 0.500000 0.000000 0.500000
#
# Coordination Sequence:
#
# PCOD9266771 Si02
#       8
#     8   4   8   8   4   8   8   8
#     4  11  22  42  67  97 134 179 222 285 338 389
#     4  11  22  38  60 101 136 172 239 279 332 402
#     4  10  22  42  66  95 137 172 219 275 330 410
#     4  10  20  37  64  98 137 173 208 281 338 387
#     4   9  20  38  64  91 128 182 227 271 340 396
#     4  10  21  41  65 102 134 169 222 263 343 416
#     4  10  19  38  60  99 140 179 227 281 334 400
#     4   9  19  39  63  98 128 173 220 257 325 417
#
# _framework density 26.404782000000001
#
# number of rings (size 3 to 8) (size 9 to 14) (size 15 to 20)
#    0.000    2.000    4.286    0.000    0.000    4.000 
#   12.857    1.429    0.000    2.571    7.429    0.000 
#    0.000    0.000    0.000    0.000    0.000    0.000 
#
# Total GULP energy -156280.886990 kJ/mol
# GULP energy per Si atom -5581.460250 kJ/mol
# Density = 2.634468 g / cm^3
# Si number density = 26.404782 Si / 1000 Ang^3
#
#
#
# Elastic Constant Matrix: (Units=GPa)
#
#
# Indices 1 2 3 4 5 6 
#
# 1 96.0090 53.4989 36.0202 0.0010 -14.6705 -0.0011
# 2 53.4989 129.2747 41.5560 0.0021 0.1785 0.0001
# 3 36.0202 41.5560 116.6152 0.0071 -19.3853 -0.0036
# 4 0.0010 0.0021 0.0071 39.4036 -0.0002 -3.4615
# 5 -14.6705 0.1785 -19.3853 -0.0002 28.0166 -0.0007
# 6 -0.0011 0.0001 -0.0036 -3.4615 -0.0007 34.3602
#
#
#
# Elastic Compliance Matrix: (Units=1/GPa)
#
#
# Indices 1 2 3 4 5 6 
#
# 1 0.015317 -0.005877 -0.001466 0.000000 0.007044 0.000001
# 2 -0.005877 0.011149 -0.003029 0.000000 -0.005245 -0.000001
# 3 -0.001466 -0.003029 0.011281 -0.000002 0.007057 0.000001
# 4 0.000000 0.000000 -0.000002 0.025605 -0.000001 0.002579
# 5 0.007044 -0.005245 0.007057 -0.000001 0.044298 0.000002
# 6 0.000001 -0.000001 0.000001 0.002579 0.000002 0.029363
#
#
# Mechanical properties :
#
#
# Convention : Reuss Voigt Hill
#
# Bulk Modulus (GPa) = 58.81873 67.11656 62.96764
# Shear Modulus (GPa) = 30.59523 34.41102 32.50312
#
# Velocity S-wave (km/s) = 3.40766 3.61392 3.51230
# Velocity P-wave (km/s) = 6.14874 6.54885 6.35195
#
# Compressibility (1/GPa) = 0.01700139
#
# Stress axis : x y z
#
# Youngs Moduli (GPa) = 65.28741 89.69627 88.64780
#
# Poissons Ratio (x) = 0.52717 0.12994
# Poissons Ratio (y) = 0.38371 0.26854
# Poissons Ratio (z) = 0.09570 0.27172
#
# Static dielectric constant tensor:
#      x y z
#    x 2.250290 -0.000050 0.065460 
#    y -0.000050 1.995420 -0.000030 
#    z 0.065460 -0.000030 1.923030 
# 
# From -- ./inp_files/318831.got.cif
#   From: 2010.05.17/outbox.cif.g08.bks.cpg/sg15_160_cif.got.tgz:318831.got - 2010.06.03 18:47:42.
