data_PCOD9266002
_publ_section_title
;
Structure prediction by ZEFSAII (Michael W. Deem and Ramdas Pophale) SiO2 
 PCOD9266002
Probable space group: C 2/C
;
_chemical_formula_sum "Si O2"
_cell_formula_units_Z 64
_cell_length_a 12.398533
_cell_length_b 31.128628
_cell_length_c 7.672512
_cell_angle_alpha 90.000000
_cell_angle_beta 82.763690
_cell_angle_gamma 90.000000
_cell_volume 2937.615058
_symmetry_space_group_name_H-M "C 2/C"
_symmetry_group_IT_number 15
_symmetry_cell_setting 'monoclinic'
loop_
_space_group_symop_operation_xyz
x,y,z
-x,y,1/2-z
-x,-y,-z
x,-y,1/2+z
1/2+x,1/2+y,z
1/2-x,1/2+y,1/2-z
1/2-x,1/2-y,-z
1/2+x,1/2-y,1/2+z
loop_
_atom_site_type_symbol
_atom_site_label
_atom_site_fract_x
_atom_site_fract_y
_atom_site_fract_z
Si Si1 0.268734 0.200059 0.961622
Si Si2 0.496853 0.932597 0.448075
Si Si3 0.103281 0.871481 0.468411
Si Si4 0.856955 0.126049 0.962304
Si Si5 0.225615 0.456227 0.444829
Si Si6 0.988945 0.660004 0.059018
Si Si7 0.244336 0.551393 0.524204
Si Si8 0.794746 0.296202 0.043790
O O1 0.163326 0.171258 0.021812
O O2 0.290506 0.197089 0.751401
O O3 0.250000 0.250000 0.000000
O O4 0.372503 0.179671 0.037270
O O5 0.500000 0.949713 0.250000
O O6 0.598451 0.954100 0.524298
O O7 0.517855 0.881293 0.437240
O O8 0.373527 0.938637 0.536114
O O9 0.121590 0.872765 0.252926
O O10 0.166769 0.912450 0.532700
O O11 0.974996 0.871856 0.524644
O O12 0.793565 0.082171 0.015738
O O13 0.780408 0.166384 0.021363
O O14 0.273727 0.502947 0.469626
O O15 0.229041 0.447479 0.236784
O O16 0.000000 0.641800 0.250000
O O17 0.080396 0.696522 0.030994
O O18 0.750000 0.250000 0.000000
#
# Coordination Sequence:
#
# PCOD9266002 Si02
#       8
#     8   8   8   8   8   8   8   8
#     4  11  23  41  64  91 125 160 201 251 303 364
#     4  10  19  37  59  84 118 158 198 247 311 361
#     4   9  19  37  60  84 116 158 198 240 298 363
#     4   9  19  37  60  84 116 158 198 240 298 363
#     4  10  20  35  57  84 117 155 197 244 302 363
#     4  12  24  39  63  92 123 160 205 251 304 363
#     4  10  20  35  57  84 117 155 197 244 302 363
#     4  11  23  41  64  91 125 160 201 251 303 364
#
# _framework density 21.786382
#
# number of rings (size 3 to 8) (size 9 to 14) (size 15 to 20)
#    0.000    1.750    2.500    2.250    1.750    1.500 
#    0.000    0.000    0.000    3.000    0.000    0.000 
#    0.000    0.000    0.000    0.000    0.000    0.000 
#
# Total GULP energy -178860.132310 kJ/mol
# GULP energy per Si atom -5589.379135 kJ/mol
# Density = 2.173680 g / cm^3
# Si number density = 21.786382 Si / 1000 Ang^3
#
#
#
# Elastic Constant Matrix: (Units=GPa)
#
#
# Indices 1 2 3 4 5 6 
#
# 1 168.7176 74.1558 15.0120 0.0000 23.6604 0.0000
# 2 74.1558 161.7366 -7.3603 0.0000 20.7303 0.0000
# 3 15.0120 -7.3603 44.4753 0.0000 13.6240 0.0000
# 4 0.0000 0.0000 0.0000 25.0150 0.0000 4.3880
# 5 23.6604 20.7303 13.6240 0.0000 14.7360 0.0000
# 6 0.0000 0.0000 0.0000 4.3880 0.0000 30.2471
#
#
#
# Elastic Compliance Matrix: (Units=1/GPa)
#
#
# Indices 1 2 3 4 5 6 
#
# 1 0.008470 -0.002695 -0.000419 0.000000 -0.009421 0.000000
# 2 -0.002695 0.009907 0.007663 0.000000 -0.016695 0.000000
# 3 -0.000419 0.007663 0.037655 0.000000 -0.044921 0.000000
# 4 0.000000 0.000000 0.000000 0.041020 0.000000 -0.005951
# 5 -0.009421 -0.016695 -0.044921 0.000000 0.148005 0.000000
# 6 0.000000 0.000000 0.000000 -0.005951 0.000000 0.033924
#
#
# Mechanical properties :
#
#
# Convention : Reuss Voigt Hill
#
# Bulk Modulus (GPa) = 15.35379 59.83827 37.59603
# Shear Modulus (GPa) = 17.14720 33.54109 25.34415
#
# Velocity S-wave (km/s) = 2.80850 3.92796 3.41442
# Velocity P-wave (km/s) = 4.19281 6.93523 5.73049
#
# Compressibility (1/GPa) = 0.06513050
#
# Stress axis : x y z
#
# Youngs Moduli (GPa) = 118.06302 100.93681 26.55711
#
# Poissons Ratio (x) = 0.27203 0.01113
# Poissons Ratio (y) = 0.31819 -0.20352
# Poissons Ratio (z) = 0.04948 -0.77352
#
# Static dielectric constant tensor:
#      x y z
#    x 1.745920 0.000000 0.101610 
#    y 0.000000 1.776220 0.000000 
#    z 0.101610 0.000000 1.345900 
# 
# From -- ./inp_files/35679.got.cif
#   From: 2010.05.17/outbox.cif.g08.bks.cpg/sg15_18_cif.got.tgz:35679.got - 2010.06.03 18:47:42.
