data_PCOD9266338
_publ_section_title
;
Structure prediction by ZEFSAII (Michael W. Deem and Ramdas Pophale) SiO2 
 PCOD9266338
Probable space group: C 2/C
;
_chemical_formula_sum "Si O2"
_cell_formula_units_Z 52
_cell_length_a 7.765272
_cell_length_b 16.565179
_cell_length_c 27.023726
_cell_angle_alpha 90.000000
_cell_angle_beta 140.822731
_cell_angle_gamma 90.000000
_cell_volume 2195.957369
_symmetry_space_group_name_H-M "C 2/C"
_symmetry_group_IT_number 15
_symmetry_cell_setting 'monoclinic'
loop_
_space_group_symop_operation_xyz
x,y,z
-x,y,1/2-z
-x,-y,-z
x,-y,1/2+z
1/2+x,1/2+y,z
1/2-x,1/2+y,1/2-z
1/2-x,1/2-y,-z
1/2+x,1/2-y,1/2+z
loop_
_atom_site_type_symbol
_atom_site_label
_atom_site_fract_x
_atom_site_fract_y
_atom_site_fract_z
Si Si1 0.000000 0.464055 0.250000
Si Si2 0.862395 0.930244 0.002418
Si Si3 0.191056 0.811783 0.913820
Si Si4 0.179223 0.215077 0.072350
Si Si5 0.090715 0.345042 0.353774
Si Si6 0.673288 0.640565 0.838429
Si Si7 0.105768 0.989707 0.892496
O O1 0.939494 0.402589 0.281722
O O2 0.727804 0.513822 0.176701
O O3 0.102010 0.875984 0.079942
O O4 0.756225 0.979492 0.025940
O O5 0.719235 0.863087 0.935535
O O6 0.000000 0.000000 0.000000
O O7 0.996764 0.814398 0.919272
O O8 0.073673 0.751081 0.846150
O O9 0.211165 0.902564 0.900909
O O10 0.473932 0.770503 0.993807
O O11 0.383457 0.281451 0.140275
O O12 0.981473 0.357560 0.385292
O O13 0.500000 0.646408 0.750000
O O14 0.648895 0.558200 0.861785
#
# Coordination Sequence:
#
# PCOD9266338 Si02
#       7
#     4   8   8   8   8   8   8
#     4  10  20  40  56  82 116 162 190 240 288 344
#     4  10  19  37  63  89 114 150 199 243 282 344
#     4   9  18  37  59  87 111 154 195 236 290 347
#     4   9  19  37  61  82 118 154 191 234 296 343
#     4   9  20  39  61  78 119 158 191 232 294 350
#     4  11  22  39  59  84 121 157 187 238 297 349
#     4  11  22  36  62  89 118 149 200 245 291 341
#
# _framework density 23.679877999999999
#
# number of rings (size 3 to 8) (size 9 to 14) (size 15 to 20)
#    0.000    2.154    3.077    0.923    0.000    1.231 
#    6.923    0.000    0.000    0.000    0.000    0.000 
#    0.000    0.000    0.000    0.000    0.000    0.000 
#
# Total GULP energy -145177.087341 kJ/mol
# GULP energy per Si atom -5583.734128 kJ/mol
# Density = 2.362598 g / cm^3
# Si number density = 23.679878 Si / 1000 Ang^3
#
#
#
# Elastic Constant Matrix: (Units=GPa)
#
#
# Indices 1 2 3 4 5 6 
#
# 1 42.4140 21.2844 -2.5875 -0.0003 -2.7284 0.0000
# 2 21.2844 188.6257 44.3043 -0.0004 -16.2879 -0.0001
# 3 -2.5875 44.3043 66.9339 -0.0003 -11.0630 -0.0001
# 4 -0.0003 -0.0004 -0.0003 27.6507 -0.0001 -11.3073
# 5 -2.7284 -16.2879 -11.0630 -0.0001 21.1492 0.0000
# 6 0.0000 -0.0001 -0.0001 -11.3073 0.0000 29.4870
#
#
#
# Elastic Compliance Matrix: (Units=1/GPa)
#
#
# Indices 1 2 3 4 5 6 
#
# 1 0.025767 -0.003576 0.003785 0.000000 0.002550 0.000000
# 2 -0.003576 0.006942 -0.004297 0.000000 0.002637 0.000000
# 3 0.003785 -0.004297 0.019118 0.000000 0.007179 0.000000
# 4 0.000000 0.000000 0.000000 0.042891 0.000000 0.016447
# 5 0.002550 0.002637 0.007179 0.000000 0.053398 0.000000
# 6 0.000000 0.000000 0.000000 0.016447 0.000000 0.040220
#
#
# Mechanical properties :
#
#
# Convention : Reuss Voigt Hill
#
# Bulk Modulus (GPa) = 22.91044 47.10844 35.00944
# Shear Modulus (GPa) = 23.68953 31.32221 27.50587
#
# Velocity S-wave (km/s) = 3.16635 3.64089 3.41188
# Velocity P-wave (km/s) = 4.80248 6.13285 5.50798
#
# Compressibility (1/GPa) = 0.04364822
#
# Stress axis : x y z
#
# Youngs Moduli (GPa) = 38.80977 144.04755 52.30802
#
# Poissons Ratio (x) = 0.51515 -0.19797
# Poissons Ratio (y) = 0.13879 0.22479
# Poissons Ratio (z) = -0.14688 0.61904
#
# Static dielectric constant tensor:
#      x y z
#    x 2.120710 0.000000 0.080770 
#    y 0.000000 1.888420 0.000000 
#    z 0.080770 0.000000 1.953330 
# 
# From -- ./inp_files/288911.got.cif
#   From: 2010.05.17/outbox.cif.g08.bks.cpg/sg15_145_cif.got.tgz:288911.got - 2010.06.03 18:47:42.
