data_PCOD9266474
_publ_section_title
;
Structure prediction by ZEFSAII (Michael W. Deem and Ramdas Pophale) SiO2 
 PCOD9266474
Probable space group: C 2/C
;
_chemical_formula_sum "Si O2"
_cell_formula_units_Z 60
_cell_length_a 12.920090
_cell_length_b 16.071446
_cell_length_c 15.998324
_cell_angle_alpha 90.000000
_cell_angle_beta 45.785423
_cell_angle_gamma 90.000000
_cell_volume 2380.962256
_symmetry_space_group_name_H-M "C 2/C"
_symmetry_group_IT_number 15
_symmetry_cell_setting 'monoclinic'
loop_
_space_group_symop_operation_xyz
x,y,z
-x,y,1/2-z
-x,-y,-z
x,-y,1/2+z
1/2+x,1/2+y,z
1/2-x,1/2+y,1/2-z
1/2-x,1/2-y,-z
1/2+x,1/2-y,1/2+z
loop_
_atom_site_type_symbol
_atom_site_label
_atom_site_fract_x
_atom_site_fract_y
_atom_site_fract_z
Si Si1 0.162301 0.492703 0.791141
Si Si2 0.936557 0.205286 0.193030
Si Si3 0.397663 0.192930 0.137847
Si Si4 0.000000 0.219665 0.750000
Si Si5 0.033285 0.982384 0.830012
Si Si6 0.942483 0.627279 0.878581
Si Si7 0.796464 0.673374 0.532755
Si Si8 0.739493 0.017430 0.055324
O O1 0.130199 0.405585 0.852739
O O2 0.314481 0.523696 0.738186
O O3 0.178778 0.476038 0.682542
O O4 0.046630 0.564278 0.868198
O O5 0.763744 0.229360 0.291011
O O6 0.000000 0.193800 0.250000
O O7 0.950315 0.113513 0.146625
O O8 0.040601 0.278865 0.101171
O O9 0.445016 0.222120 0.204490
O O10 0.556746 0.204179 0.005843
O O11 0.858589 0.162208 0.837581
O O12 0.000000 0.981721 0.750000
O O13 0.909632 0.027093 0.952157
O O14 0.794424 0.575820 0.959588
O O15 0.000000 0.629546 0.750000
O O16 0.750000 0.750000 0.500000
O O17 0.828306 0.589241 0.463621
#
# Coordination Sequence:
#
# PCOD9266474 Si02
#       8
#     8   8   8   4   8   8   8   8
#     4  10  19  37  65  90 117 160 218 265 312 374
#     4   9  20  41  63  87 123 172 215 261 314 377
#     4  10  19  38  64  91 126 167 210 263 326 384
#     4  10  22  36  58  98 138 164 204 266 334 392
#     4  10  23  40  59  87 131 169 202 263 322 384
#     4   9  19  36  63  91 115 157 215 268 302 367
#     4  10  21  36  60  94 132 168 204 260 325 391
#     4  11  21  37  63  93 123 164 216 265 320 377
#
# _framework density 25.199895999999999
#
# number of rings (size 3 to 8) (size 9 to 14) (size 15 to 20)
#    0.000    2.133    1.333    2.000    1.867    2.667 
#    0.000   15.333    0.000    0.000    0.000    0.000 
#    0.000    0.000    0.000    0.000    0.000    0.000 
#
# Total GULP energy -167419.413691 kJ/mol
# GULP energy per Si atom -5580.647123 kJ/mol
# Density = 2.514254 g / cm^3
# Si number density = 25.199896 Si / 1000 Ang^3
#
#
#
# Elastic Constant Matrix: (Units=GPa)
#
#
# Indices 1 2 3 4 5 6 
#
# 1 112.3855 -8.0596 20.1886 0.0000 -24.3387 0.0000
# 2 -8.0596 80.5016 -13.6117 0.0000 10.3327 0.0000
# 3 20.1886 -13.6117 57.5403 0.0000 -26.1792 0.0000
# 4 0.0000 0.0000 0.0000 -3.1872 0.0000 7.2581
# 5 -24.3387 10.3327 -26.1792 0.0000 53.3862 0.0000
# 6 0.0000 0.0000 0.0000 7.2581 0.0000 22.0579
#
#
#
# Elastic Compliance Matrix: (Units=1/GPa)
#
#
# Indices 1 2 3 4 5 6 
#
# 1 0.010028 0.000231 -0.001807 0.000000 0.003641 0.000000
# 2 0.000231 0.013015 0.002445 0.000000 -0.001215 0.000000
# 3 -0.001807 0.002445 0.023171 0.000000 0.010065 0.000000
# 4 0.000000 0.000000 0.000000 -0.179357 0.000000 0.059017
# 5 0.003641 -0.001215 0.010065 0.000000 0.025562 0.000000
# 6 0.000000 0.000000 0.000000 0.059017 0.000000 0.025916
#
#
# Mechanical properties :
#
#
# Convention : Reuss Voigt Hill
#
# Bulk Modulus (GPa) = 20.85462 27.49576 24.17519
# Shear Modulus (GPa) = -74.16147 31.24539 -21.45804
#
# Velocity S-wave (km/s) = -5.43076 3.52504 -2.92124
# Velocity P-wave (km/s) = 5.57051 5.24430 1.32814
#
# Compressibility (1/GPa) = 0.04795100
#
# Stress axis : x y z
#
# Youngs Moduli (GPa) = 99.72478 76.83693 43.15729
#
# Poissons Ratio (x) = -0.01775 0.07800
# Poissons Ratio (y) = -0.02304 -0.10552
# Poissons Ratio (z) = 0.18023 -0.18787
#
# Static dielectric constant tensor:
#      x y z
#    x 2.017010 0.000000 0.064040 
#    y 0.000000 1.998110 0.000000 
#    z 0.064040 0.000000 2.273440 
# 
# From -- ./inp_files/244913.got.cif
#   From: 2010.05.17/outbox.cif.g08.bks.cpg/sg15_123_cif.got.tgz:244913.got - 2010.06.03 18:47:42.
