data_PCOD9266674
_publ_section_title
;
Structure prediction by ZEFSAII (Michael W. Deem and Ramdas Pophale) SiO2 
 PCOD9266674
Probable space group: C 2/C
;
_chemical_formula_sum "Si O2"
_cell_formula_units_Z 60
_cell_length_a 8.257722
_cell_length_b 25.466810
_cell_length_c 18.090765
_cell_angle_alpha 90.000000
_cell_angle_beta 119.830287
_cell_angle_gamma 90.000000
_cell_volume 3300.369290
_symmetry_space_group_name_H-M "C 2/C"
_symmetry_group_IT_number 15
_symmetry_cell_setting 'monoclinic'
loop_
_space_group_symop_operation_xyz
x,y,z
-x,y,1/2-z
-x,-y,-z
x,-y,1/2+z
1/2+x,1/2+y,z
1/2-x,1/2+y,1/2-z
1/2-x,1/2-y,-z
1/2+x,1/2-y,1/2+z
loop_
_atom_site_type_symbol
_atom_site_label
_atom_site_fract_x
_atom_site_fract_y
_atom_site_fract_z
Si Si1 0.152587 0.617671 0.220885
Si Si2 0.000000 0.935214 0.250000
Si Si3 0.508051 0.648761 0.103788
Si Si4 0.930066 0.782932 0.017908
Si Si5 0.906717 0.674938 0.443098
Si Si6 0.626116 0.450224 0.544370
Si Si7 0.305682 0.003599 0.230476
Si Si8 0.213502 0.878279 0.429230
O O1 0.351401 0.638516 0.296401
O O2 0.080399 0.649950 0.135157
O O3 0.167678 0.554908 0.210943
O O4 0.000000 0.624750 0.250000
O O5 0.869664 0.901440 0.165060
O O6 0.857903 0.969145 0.269848
O O7 0.296246 0.659352 0.075444
O O8 0.510621 0.596714 0.054645
O O9 0.583366 0.694692 0.067796
O O10 0.926824 0.833360 0.070775
O O11 0.085993 0.738228 0.057498
O O12 0.750000 0.750000 0.000000
O O13 0.082345 0.649488 0.527307
O O14 0.500000 0.500000 0.500000
O O15 0.753411 0.469510 0.640511
O O16 0.718251 0.424848 0.492241
O O17 0.500000 0.975839 0.250000
#
# Coordination Sequence:
#
# PCOD9266674 Si02
#       8
#     8   4   8   8   8   8   8   8
#     4  10  20  37  59  89 118 154 195 246 300 357
#     4  12  24  40  62  88 126 164 206 250 300 376
#     4  10  21  34  61  91 118 147 199 255 296 356
#     4   9  19  40  60  80 115 157 191 242 302 362
#     4  11  21  37  61  89 119 149 202 254 300 357
#     4  10  19  38  59  81 117 162 196 241 307 361
#     4  10  22  38  60  88 123 157 202 254 300 355
#     4  10  22  40  59  86 118 162 205 240 307 367
#
# _framework density 18.179784000000001
#
# number of rings (size 3 to 8) (size 9 to 14) (size 15 to 20)
#    0.000    1.867    1.333    4.800    3.733    1.067 
#    6.000    2.000    0.000    0.000    0.000    0.000 
#    0.000    0.000    0.000    0.000    0.000    0.000 
#
# Total GULP energy -167068.601719 kJ/mol
# GULP energy per Si atom -5568.953391 kJ/mol
# Density = 1.813841 g / cm^3
# Si number density = 18.179784 Si / 1000 Ang^3
#
#
#
# Elastic Constant Matrix: (Units=GPa)
#
#
# Indices 1 2 3 4 5 6 
#
# 1 110.7003 26.3103 31.9938 0.0000 15.5466 0.0000
# 2 26.3103 80.9220 46.2283 0.0000 9.2320 0.0000
# 3 31.9938 46.2283 81.2457 0.0000 0.3780 0.0000
# 4 0.0000 0.0000 0.0000 25.3654 0.0000 5.2241
# 5 15.5466 9.2320 0.3780 0.0000 23.4376 0.0000
# 6 0.0000 0.0000 0.0000 5.2241 0.0000 13.4255
#
#
#
# Elastic Compliance Matrix: (Units=1/GPa)
#
#
# Indices 1 2 3 4 5 6 
#
# 1 0.011378 -0.000485 -0.004170 0.000000 -0.007289 0.000000
# 2 -0.000485 0.019571 -0.010911 0.000000 -0.007211 0.000000
# 3 -0.004170 -0.010911 0.020128 0.000000 0.006740 0.000000
# 4 0.000000 0.000000 0.000000 0.042858 0.000000 -0.016677
# 5 -0.007289 -0.007211 0.006740 0.000000 0.050233 0.000000
# 6 0.000000 0.000000 0.000000 -0.016677 0.000000 0.080974
#
#
# Mechanical properties :
#
#
# Convention : Reuss Voigt Hill
#
# Bulk Modulus (GPa) = 50.14358 53.54809 51.84584
# Shear Modulus (GPa) = 19.01691 23.66808 21.34249
#
# Velocity S-wave (km/s) = 3.23777 3.61209 3.43004
# Velocity P-wave (km/s) = 6.45132 6.84945 6.65336
#
# Compressibility (1/GPa) = 0.01994273
#
# Stress axis : x y z
#
# Youngs Moduli (GPa) = 87.89178 51.09503 49.68276
#
# Poissons Ratio (x) = 0.02480 0.20719
# Poissons Ratio (y) = 0.04265 0.54210
# Poissons Ratio (z) = 0.36654 0.55751
#
# Static dielectric constant tensor:
#      x y z
#    x 1.664770 0.000000 0.009880 
#    y 0.000000 1.668500 0.000000 
#    z 0.009880 0.000000 1.619860 
# 
# From -- ./inp_files/193289.got.cif
#   From: 2010.05.17/outbox.cif.g08.bks.cpg/sg15_97_cif.got.tgz:193289.got - 2010.06.03 18:47:42.
