data_PCOD9266204
_publ_section_title
;
Structure prediction by ZEFSAII (Michael W. Deem and Ramdas Pophale) SiO2 
 PCOD9266204
Probable space group: C 2/C
;
_chemical_formula_sum "Si O2"
_cell_formula_units_Z 56
_cell_length_a 13.583066
_cell_length_b 14.495642
_cell_length_c 20.740759
_cell_angle_alpha 90.000000
_cell_angle_beta 142.511080
_cell_angle_gamma 90.000000
_cell_volume 2485.407276
_symmetry_space_group_name_H-M "C 2/C"
_symmetry_group_IT_number 15
_symmetry_cell_setting 'monoclinic'
loop_
_space_group_symop_operation_xyz
x,y,z
-x,y,1/2-z
-x,-y,-z
x,-y,1/2+z
1/2+x,1/2+y,z
1/2-x,1/2+y,1/2-z
1/2-x,1/2-y,-z
1/2+x,1/2-y,1/2+z
loop_
_atom_site_type_symbol
_atom_site_label
_atom_site_fract_x
_atom_site_fract_y
_atom_site_fract_z
Si Si1 0.557114 0.683145 0.377776
Si Si2 0.135582 0.882104 0.485326
Si Si3 0.350531 0.660859 0.927021
Si Si4 0.500000 0.000000 0.500000
Si Si5 0.692651 0.152991 0.179924
Si Si6 0.846456 0.993945 0.624688
Si Si7 0.961129 0.282748 0.661526
Si Si8 0.000000 0.346463 0.250000
O O1 0.613106 0.687925 0.480278
O O2 0.381962 0.635223 0.284695
O O3 0.670362 0.616676 0.394195
O O4 0.532765 0.780104 0.328895
O O5 0.089468 0.795644 0.415211
O O6 0.318605 0.856630 0.599202
O O7 0.005111 0.887411 0.474636
O O8 0.127596 0.968760 0.434028
O O9 0.327968 0.754544 0.873795
O O10 0.176607 0.607963 0.832169
O O11 0.404714 0.071061 0.403129
O O12 0.320774 0.966074 0.435854
O O13 0.616702 0.171425 0.210230
O O14 0.000000 0.012876 0.750000
O O15 0.000000 0.238263 0.750000
#
# Coordination Sequence:
#
# PCOD9266204 Si02
#       8
#     8   8   8   4   8   8   8   4
#     4  11  21  41  65  88 123 168 203 264 308 365
#     4  10  22  37  59  93 122 159 200 253 309 376
#     4  10  22  40  62  91 127 161 206 259 313 370
#     4  12  22  42  64  90 122 166 206 264 308 374
#     4  10  21  40  64  93 122 160 215 252 311 379
#     4  12  23  42  64  89 126 160 212 262 311 374
#     4  10  19  37  61  89 124 156 202 249 309 371
#     4  10  20  40  62  92 120 162 216 254 304 382
#
# _framework density 22.531518999999999
#
# number of rings (size 3 to 8) (size 9 to 14) (size 15 to 20)
#    0.000    1.429    3.571    2.571    0.000    0.571 
#   10.286    0.000    1.571    0.000    0.000    0.000 
#    0.000    0.000    0.000    0.000    0.000    0.000 
#
# Total GULP energy -155932.246120 kJ/mol
# GULP energy per Si atom -5569.008790 kJ/mol
# Density = 2.248024 g / cm^3
# Si number density = 22.531519 Si / 1000 Ang^3
#
#
#
# Elastic Constant Matrix: (Units=GPa)
#
#
# Indices 1 2 3 4 5 6 
#
# 1 132.9885 -0.4522 54.2186 0.0000 12.6747 0.0000
# 2 -0.4522 18.4797 -4.3882 0.0000 3.3965 0.0000
# 3 54.2186 -4.3882 108.7962 0.0000 11.5656 0.0000
# 4 0.0000 0.0000 0.0000 18.8325 0.0000 -0.3870
# 5 12.6747 3.3965 11.5656 0.0000 44.6229 0.0000
# 6 0.0000 0.0000 0.0000 -0.3870 0.0000 17.8693
#
#
#
# Elastic Compliance Matrix: (Units=1/GPa)
#
#
# Indices 1 2 3 4 5 6 
#
# 1 0.009542 -0.000595 -0.004623 0.000000 -0.001467 0.000000
# 2 -0.000595 0.055720 0.003061 0.000000 -0.004866 0.000000
# 3 -0.004623 0.003061 0.011830 0.000000 -0.001986 0.000000
# 4 0.000000 0.000000 0.000000 0.053123 0.000000 0.001151
# 5 -0.001467 -0.004866 -0.001986 0.000000 0.023712 0.000000
# 6 0.000000 0.000000 0.000000 0.001151 0.000000 0.055987
#
#
# Mechanical properties :
#
#
# Convention : Reuss Voigt Hill
#
# Bulk Modulus (GPa) = 13.74039 39.89119 26.81579
# Shear Modulus (GPa) = 20.96543 30.32402 25.64473
#
# Velocity S-wave (km/s) = 3.05371 3.67256 3.37734
# Velocity P-wave (km/s) = 4.30640 5.97718 5.20921
#
# Compressibility (1/GPa) = 0.07277815
#
# Stress axis : x y z
#
# Youngs Moduli (GPa) = 104.79818 17.94685 84.52977
#
# Poissons Ratio (x) = 0.01067 0.39081
# Poissons Ratio (y) = 0.06233 -0.25875
# Poissons Ratio (z) = 0.48452 -0.05494
#
# Static dielectric constant tensor:
#      x y z
#    x 1.874000 0.000000 -0.000350 
#    y 0.000000 1.866410 0.000000 
#    z -0.000350 0.000000 1.810880 
# 
# From -- ./inp_files/245221.got.cif
#   From: 2010.05.17/outbox.cif.g08.bks.cpg/sg15_123_cif.got.tgz:245221.got - 2010.06.03 18:47:42.
