data_PCOD9266828
_publ_section_title
;
Structure prediction by ZEFSAII (Michael W. Deem and Ramdas Pophale) SiO2 
 PCOD9266828
Probable space group: C 2/C
;
_chemical_formula_sum "Si O2"
_cell_formula_units_Z 44
_cell_length_a 14.787203
_cell_length_b 14.415119
_cell_length_c 26.358851
_cell_angle_alpha 90.000000
_cell_angle_beta 21.472557
_cell_angle_gamma 90.000000
_cell_volume 2056.732110
_symmetry_space_group_name_H-M "C 2/C"
_symmetry_group_IT_number 15
_symmetry_cell_setting 'monoclinic'
loop_
_space_group_symop_operation_xyz
x,y,z
-x,y,1/2-z
-x,-y,-z
x,-y,1/2+z
1/2+x,1/2+y,z
1/2-x,1/2+y,1/2-z
1/2-x,1/2-y,-z
1/2+x,1/2-y,1/2+z
loop_
_atom_site_type_symbol
_atom_site_label
_atom_site_fract_x
_atom_site_fract_y
_atom_site_fract_z
Si Si1 0.817316 0.178295 0.221404
Si Si2 0.500000 0.347809 0.250000
Si Si3 0.579045 0.324799 0.058305
Si Si4 0.150371 0.447999 0.510530
Si Si5 0.598363 0.717276 0.430738
Si Si6 0.796006 0.862983 0.896654
O O1 0.691072 0.280068 0.292897
O O2 0.609529 0.103796 0.346922
O O3 0.893433 0.155682 0.123904
O O4 0.049023 0.175372 0.137223
O O5 0.300354 0.403930 0.385507
O O6 0.659493 0.280875 0.201695
O O7 0.671364 0.421043 0.034933
O O8 0.615893 0.323966 0.978162
O O9 0.750000 0.250000 0.000000
O O10 0.129436 0.554848 0.506437
O O11 0.363302 0.784567 0.547885
O O12 0.000000 0.899026 0.750000
#
# Coordination Sequence:
#
# PCOD9266828 Si02
#       6
#     8   4   8   8   8   8
#     4  11  23  41  62  94 132 175 224 265 328 407
#     4  12  18  34  64  94 118 160 210 266 324 372
#     4  10  19  38  61  93 119 170 219 259 315 393
#     4  11  23  37  65 100 133 165 215 280 332 384
#     4  12  23  40  67  92 130 177 223 270 320 402
#     4  12  25  40  65 101 138 165 214 286 348 375
#
# _framework density 21.393160000000002
#
# number of rings (size 3 to 8) (size 9 to 14) (size 15 to 20)
#    0.000    0.727    8.182    1.636    2.545    1.455 
#    0.000    0.909    0.000    2.182    0.000    0.000 
#    0.000    0.000    0.000    0.000    0.000    0.000 
#
# Total GULP energy -122796.606291 kJ/mol
# GULP energy per Si atom -5581.663922 kJ/mol
# Density = 2.134447 g / cm^3
# Si number density = 21.393160 Si / 1000 Ang^3
#
#
#
# Elastic Constant Matrix: (Units=GPa)
#
#
# Indices 1 2 3 4 5 6 
#
# 1 152.6817 16.7745 27.7299 0.0334 16.4243 -0.0098
# 2 16.7745 31.0446 20.8179 0.0215 4.0753 0.0036
# 3 27.7299 20.8179 51.2761 0.0225 13.2372 0.0554
# 4 0.0334 0.0215 0.0225 13.2319 -0.0031 -0.2023
# 5 16.4243 4.0753 13.2372 -0.0031 46.6832 0.0188
# 6 -0.0098 0.0036 0.0554 -0.2023 0.0188 11.9970
#
#
#
# Elastic Compliance Matrix: (Units=1/GPa)
#
#
# Indices 1 2 3 4 5 6 
#
# 1 0.007451 -0.001914 -0.002825 -0.000011 -0.001653 0.000022
# 2 -0.001914 0.044831 -0.017619 -0.000037 0.001756 0.000063
# 3 -0.002825 -0.017619 0.029704 -0.000018 -0.005891 -0.000125
# 4 -0.000011 -0.000037 -0.000018 0.075594 0.000017 0.001274
# 5 -0.001653 0.001756 -0.005891 0.000017 0.023520 -0.000011
# 6 0.000022 0.000063 -0.000125 0.001274 -0.000011 0.083376
#
#
# Mechanical properties :
#
#
# Convention : Reuss Voigt Hill
#
# Bulk Modulus (GPa) = 26.83258 40.62747 33.73002
# Shear Modulus (GPa) = 15.54643 25.69443 20.62043
#
# Velocity S-wave (km/s) = 2.69866 3.46939 3.10801
# Velocity P-wave (km/s) = 4.72019 5.92292 5.35543
#
# Compressibility (1/GPa) = 0.03726813
#
# Stress axis : x y z
#
# Youngs Moduli (GPa) = 134.21235 22.30610 33.66498
#
# Poissons Ratio (x) = 0.04270 0.09512
# Poissons Ratio (y) = 0.25691 0.59315
# Poissons Ratio (z) = 0.37922 0.39302
#
# Static dielectric constant tensor:
#      x y z
#    x 1.811030 -0.000040 0.029150 
#    y -0.000040 1.844220 0.000060 
#    z 0.029150 0.000060 1.790950 
# 
# From -- ./inp_files/154723.got.cif
#   From: 2010.05.17/outbox.cif.g08.bks.cpg/sg15_78_cif.got.tgz:154723.got - 2010.06.03 18:47:42.
