data_PCOD9266605
_publ_section_title
;
Structure prediction by ZEFSAII (Michael W. Deem and Ramdas Pophale) SiO2 
 PCOD9266605
Probable space group: C 2/C
;
_chemical_formula_sum "Si O2"
_cell_formula_units_Z 60
_cell_length_a 8.634231
_cell_length_b 25.795910
_cell_length_c 9.925011
_cell_angle_alpha 90.000000
_cell_angle_beta 97.046484
_cell_angle_gamma 90.000000
_cell_volume 2193.879732
_symmetry_space_group_name_H-M "C 2/C"
_symmetry_group_IT_number 15
_symmetry_cell_setting 'monoclinic'
loop_
_space_group_symop_operation_xyz
x,y,z
-x,y,1/2-z
-x,-y,-z
x,-y,1/2+z
1/2+x,1/2+y,z
1/2-x,1/2+y,1/2-z
1/2-x,1/2-y,-z
1/2+x,1/2-y,1/2+z
loop_
_atom_site_type_symbol
_atom_site_label
_atom_site_fract_x
_atom_site_fract_y
_atom_site_fract_z
Si Si1 0.161273 0.020443 0.383721
Si Si2 0.676008 0.315403 0.185960
Si Si3 0.250742 0.710633 0.309073
Si Si4 0.457915 0.126975 0.091820
Si Si5 0.703098 0.589836 0.862867
Si Si6 0.500000 0.222566 0.750000
Si Si7 0.166729 0.516125 0.831317
Si Si8 0.683781 0.367006 0.920131
O O1 0.301945 0.016566 0.508011
O O2 0.098466 0.077624 0.402648
O O3 0.095026 0.960996 0.387147
O O4 0.216864 0.022509 0.234994
O O5 0.653337 0.254962 0.218949
O O6 0.647145 0.353343 0.310553
O O7 0.862738 0.312485 0.182518
O O8 0.614227 0.336547 0.039021
O O9 0.137529 0.681207 0.399168
O O10 0.409541 0.743134 0.353421
O O11 0.315385 0.666821 0.214856
O O12 0.500000 0.110837 0.250000
O O13 0.628459 0.125301 0.044790
O O14 0.335093 0.094784 0.990692
O O15 0.781190 0.570117 0.731619
O O16 0.000000 0.505480 0.750000
#
# Coordination Sequence:
#
# PCOD9266605 Si02
#       8
#     8   8   8   8   8   4   8   8
#     4  10  22  30  51  76 119 153 180 203 274 352
#     4  10  19  38  53  77 105 149 195 219 267 325
#     4   9  22  36  55  78 107 143 193 231 273 311
#     4  10  22  33  51  83 115 141 176 227 280 326
#     4  10  22  32  53  75 119 152 176 215 270 347
#     4   8  20  36  56  74 102 148 198 230 258 324
#     4  10  20  29  41  71 106 154 180 201 247 332
#     4  11  19  34  56  82 115 145 176 221 275 337
#
# _framework density 27.348808999999999
#
# number of rings (size 3 to 8) (size 9 to 14) (size 15 to 20)
#    1.600    0.533    1.333    2.400    6.533    0.533 
#    0.000    0.000    0.000    0.000    0.000    0.933 
#    6.000    0.000    0.000    0.000    0.000    0.000 
#
# Total GULP energy -167149.828194 kJ/mol
# GULP energy per Si atom -5571.660940 kJ/mol
# Density = 2.728656 g / cm^3
# Si number density = 27.348809 Si / 1000 Ang^3
#
#
#
# Elastic Constant Matrix: (Units=GPa)
#
#
# Indices 1 2 3 4 5 6 
#
# 1 100.1172 27.5538 42.9631 0.0000 -5.1644 0.0000
# 2 27.5538 175.5872 45.1453 0.0000 -14.8239 0.0000
# 3 42.9631 45.1453 118.9779 0.0000 11.3458 0.0000
# 4 0.0000 0.0000 0.0000 35.1213 0.0000 28.3575
# 5 -5.1644 -14.8239 11.3458 0.0000 45.8251 0.0000
# 6 0.0000 0.0000 0.0000 28.3575 0.0000 -122.9528
#
#
#
# Elastic Compliance Matrix: (Units=1/GPa)
#
#
# Indices 1 2 3 4 5 6 
#
# 1 0.012146 -0.000589 -0.004378 0.000000 0.002262 0.000000
# 2 -0.000589 0.006683 -0.002584 0.000000 0.002735 0.000000
# 3 -0.004378 -0.002584 0.011361 0.000000 -0.004142 0.000000
# 4 0.000000 0.000000 0.000000 0.024003 0.000000 0.005536
# 5 0.002262 0.002735 -0.004142 0.000000 0.023987 0.000000
# 6 0.000000 0.000000 0.000000 0.005536 0.000000 -0.006856
#
#
# Mechanical properties :
#
#
# Convention : Reuss Voigt Hill
#
# Bulk Modulus (GPa) = 66.27902 69.55631 67.91767
# Shear Modulus (GPa) = 54.67146 10.20006 32.43576
#
# Velocity S-wave (km/s) = 4.47592 1.93332 3.44758
# Velocity P-wave (km/s) = 7.14136 5.52013 6.38244
#
# Compressibility (1/GPa) = 0.01508773
#
# Stress axis : x y z
#
# Youngs Moduli (GPa) = 82.33225 149.63584 88.01882
#
# Poissons Ratio (x) = 0.08819 0.38535
# Poissons Ratio (y) = 0.04852 0.22742
# Poissons Ratio (z) = 0.36045 0.38663
#
# Static dielectric constant tensor:
#      x y z
#    x 2.257400 0.000000 -0.001930 
#    y 0.000000 2.207600 0.000000 
#    z -0.001930 0.000000 2.179470 
# 
# From -- ./inp_files/91807.got.cif
#   From: 2010.05.17/outbox.cif.g08.bks.cpg/sg15_46_cif.got.tgz:91807.got - 2010.06.03 18:47:42.
