data_PCOD9266914
_publ_section_title
;
Structure prediction by ZEFSAII (Michael W. Deem and Ramdas Pophale) SiO2 
 PCOD9266914
Probable space group: C 2/C
;
_chemical_formula_sum "Si O2"
_cell_formula_units_Z 56
_cell_length_a 7.419810
_cell_length_b 16.923848
_cell_length_c 23.583827
_cell_angle_alpha 90.000000
_cell_angle_beta 78.491381
_cell_angle_gamma 90.000000
_cell_volume 2901.921036
_symmetry_space_group_name_H-M "C 2/C"
_symmetry_group_IT_number 15
_symmetry_cell_setting 'monoclinic'
loop_
_space_group_symop_operation_xyz
x,y,z
-x,y,1/2-z
-x,-y,-z
x,-y,1/2+z
1/2+x,1/2+y,z
1/2-x,1/2+y,1/2-z
1/2-x,1/2-y,-z
1/2+x,1/2-y,1/2+z
loop_
_atom_site_type_symbol
_atom_site_label
_atom_site_fract_x
_atom_site_fract_y
_atom_site_fract_z
Si Si1 0.192753 0.782204 0.843300
Si Si2 0.461496 0.107732 0.637081
Si Si3 0.500000 0.639191 0.250000
Si Si4 0.500000 0.730422 0.750000
Si Si5 0.182642 0.914774 0.443024
Si Si6 0.821947 0.891939 0.179838
Si Si7 0.137059 0.983099 0.665623
Si Si8 0.468107 0.588932 0.067798
O O1 0.396596 0.779038 0.804783
O O2 0.128248 0.693726 0.860709
O O3 0.072661 0.810872 0.797417
O O4 0.155615 0.842986 0.896432
O O5 0.598439 0.096853 0.574900
O O6 0.606161 0.097716 0.680329
O O7 0.302274 0.044008 0.652426
O O8 0.346372 0.581842 0.286582
O O9 0.639717 0.673224 0.775335
O O10 0.110100 0.873536 0.389278
O O11 0.078512 0.885857 0.504988
O O12 0.143523 0.008725 0.439515
O O13 0.945597 0.968097 0.187045
O O14 0.109819 0.938583 0.607753
#
# Coordination Sequence:
#
# PCOD9266914 Si02
#       8
#     8   8   4   4   8   8   8   8
#     4  11  23  37  59  89 123 158 200 259 309 345
#     4  10  21  37  64  89 114 159 206 240 307 363
#     4  10  23  40  52  89 122 158 200 262 301 362
#     4  12  21  38  58  83 128 160 198 250 309 366
#     4   8  19  39  63  85 122 158 205 248 297 370
#     4   9  20  37  58  89 113 156 202 242 288 370
#     4  10  19  38  63  84 121 160 204 240 305 371
#     4   9  19  40  63  87 126 156 199 260 302 352
#
# _framework density 19.297561999999999
#
# number of rings (size 3 to 8) (size 9 to 14) (size 15 to 20)
#    0.857    1.429    1.429    1.286    0.000    2.286 
#    0.000    0.714    0.000    0.000    0.000    0.000 
#    0.000    0.000    0.000    0.000    0.000    0.000 
#
# Total GULP energy -155953.591381 kJ/mol
# GULP energy per Si atom -5569.771121 kJ/mol
# Density = 1.925364 g / cm^3
# Si number density = 19.297562 Si / 1000 Ang^3
#
#
#
# Elastic Constant Matrix: (Units=GPa)
#
#
# Indices 1 2 3 4 5 6 
#
# 1 50.3856 16.6232 10.7037 0.0000 -10.5434 0.0000
# 2 16.6232 57.5978 48.1296 0.0000 -13.5505 0.0000
# 3 10.7037 48.1296 115.9488 0.0000 -12.8886 0.0000
# 4 0.0000 0.0000 0.0000 30.6704 0.0000 -4.9510
# 5 -10.5434 -13.5505 -12.8886 0.0000 23.7021 0.0000
# 6 0.0000 0.0000 0.0000 -4.9510 0.0000 15.6854
#
#
#
# Elastic Compliance Matrix: (Units=1/GPa)
#
#
# Indices 1 2 3 4 5 6 
#
# 1 0.023114 -0.005836 0.001129 0.000000 0.007559 0.000000
# 2 -0.005836 0.030375 -0.011099 0.000000 0.008734 0.000000
# 3 0.001129 -0.011099 0.013281 0.000000 0.001379 0.000000
# 4 0.000000 0.000000 0.000000 0.034355 0.000000 0.010844
# 5 0.007559 0.008734 0.001379 0.000000 0.051296 0.000000
# 6 0.000000 0.000000 0.000000 0.010844 0.000000 0.067176
#
#
# Mechanical properties :
#
#
# Convention : Reuss Voigt Hill
#
# Bulk Modulus (GPa) = 28.44269 41.64947 35.04608
# Shear Modulus (GPa) = 19.01651 23.90996 21.46324
#
# Velocity S-wave (km/s) = 3.14257 3.52378 3.33862
# Velocity P-wave (km/s) = 5.28570 6.17946 5.74997
#
# Compressibility (1/GPa) = 0.03515842
#
# Stress axis : x y z
#
# Youngs Moduli (GPa) = 43.26327 32.92138 75.29755
#
# Poissons Ratio (x) = 0.19213 -0.08501
# Poissons Ratio (y) = 0.25248 0.83573
# Poissons Ratio (z) = -0.04884 0.36539
#
# Static dielectric constant tensor:
#      x y z
#    x 1.687120 0.000000 -0.012580 
#    y 0.000000 1.678990 0.000000 
#    z -0.012580 0.000000 1.715200 
# 
# From -- ./inp_files/288678.got.cif
#   From: 2010.05.17/outbox.cif.g08.bks.cpg/sg15_145_cif.got.tgz:288678.got - 2010.06.03 18:47:42.
