data_PCOD9266256
_publ_section_title
;
Structure prediction by ZEFSAII (Michael W. Deem and Ramdas Pophale) SiO2 
 PCOD9266256
Probable space group: C 2/C
;
_chemical_formula_sum "Si O2"
_cell_formula_units_Z 56
_cell_length_a 18.847111
_cell_length_b 7.463006
_cell_length_c 27.132906
_cell_angle_alpha 90.000000
_cell_angle_beta 143.990438
_cell_angle_gamma 90.000000
_cell_volume 2243.744057
_symmetry_space_group_name_H-M "C 2/C"
_symmetry_group_IT_number 15
_symmetry_cell_setting 'monoclinic'
loop_
_space_group_symop_operation_xyz
x,y,z
-x,y,1/2-z
-x,-y,-z
x,-y,1/2+z
1/2+x,1/2+y,z
1/2-x,1/2+y,1/2-z
1/2-x,1/2-y,-z
1/2+x,1/2-y,1/2+z
loop_
_atom_site_type_symbol
_atom_site_label
_atom_site_fract_x
_atom_site_fract_y
_atom_site_fract_z
Si Si1 0.227413 0.656264 0.176150
Si Si2 0.873038 0.411991 0.682323
Si Si3 0.865448 0.999204 0.162808
Si Si4 0.872905 0.100600 0.487540
Si Si5 0.474894 0.264917 0.509537
Si Si6 0.394258 0.028211 0.798787
Si Si7 0.869521 0.512848 0.023011
O O1 0.289187 0.534093 0.169467
O O2 0.127532 0.773257 0.090661
O O3 0.160378 0.556506 0.182478
O O4 0.331630 0.782012 0.255838
O O5 0.758154 0.488838 0.590183
O O6 0.854132 0.407939 0.730145
O O7 0.000000 0.510355 0.750000
O O8 0.882996 0.213261 0.666262
O O9 0.000000 0.072978 0.250000
O O10 0.769436 0.047387 0.064770
O O11 0.874814 0.269599 0.524697
O O12 0.904178 0.199545 0.453014
O O13 0.960296 0.930512 0.539229
O O14 0.444099 0.081784 0.519822
O O15 0.539970 0.039992 0.882546
#
# Coordination Sequence:
#
# PCOD9266256 Si02
#       7
#     8   8   8   8   8   8   8
#     4  11  23  37  62  94 129 162 203 264 315 370
#     4  10  22  41  64  85 121 172 210 249 318 388
#     4   9  21  44  66  87 122 175 207 245 312 389
#     4  10  19  37  62  86 121 167 206 250 303 386
#     4  10  20  36  61  92 118 168 208 245 317 381
#     4  12  24  39  60  99 126 157 207 272 316 353
#     4  10  22  37  64  91 125 161 209 262 308 365
#
# _framework density 24.958285
#
# number of rings (size 3 to 8) (size 9 to 14) (size 15 to 20)
#    0.000    1.714    2.857    1.286    6.000    0.571 
#    2.571    7.143    0.000    0.000    0.000    0.000 
#    0.000    0.000    0.000    0.000    0.000    0.000 
#
# Total GULP energy -156201.243772 kJ/mol
# GULP energy per Si atom -5578.615849 kJ/mol
# Density = 2.490148 g / cm^3
# Si number density = 24.958285 Si / 1000 Ang^3
#
#
#
# Elastic Constant Matrix: (Units=GPa)
#
#
# Indices 1 2 3 4 5 6 
#
# 1 42.1172 -3.8285 7.2321 0.0000 14.4216 -0.0001
# 2 -3.8285 78.3740 24.9874 0.0000 -0.2898 -0.0002
# 3 7.2321 24.9874 157.0451 0.0000 17.3773 0.0000
# 4 0.0000 0.0000 0.0000 21.4842 0.0000 -6.8227
# 5 14.4216 -0.2898 17.3773 0.0000 32.4731 0.0000
# 6 -0.0001 -0.0002 0.0000 -6.8227 0.0000 1.4953
#
#
#
# Elastic Compliance Matrix: (Units=1/GPa)
#
#
# Indices 1 2 3 4 5 6 
#
# 1 0.028142 0.001374 -0.000141 -0.000001 -0.012410 -0.000004
# 2 0.001374 0.013564 -0.002304 -0.000001 0.000744 -0.000003
# 3 -0.000141 -0.002304 0.007160 0.000000 -0.003789 0.000001
# 4 -0.000001 -0.000001 0.000000 -0.103676 0.000001 -0.473038
# 5 -0.012410 0.000744 -0.003789 0.000001 0.038341 0.000002
# 6 -0.000004 -0.000003 0.000001 -0.473038 0.000002 -1.489559
#
#
# Mechanical properties :
#
#
# Convention : Reuss Voigt Hill
#
# Bulk Modulus (GPa) = 21.40259 37.14646 29.27452
# Shear Modulus (GPa) = -3.35951 27.70022 12.17035
#
# Velocity S-wave (km/s) = -1.16145 3.33507 2.21063
# Velocity P-wave (km/s) = 2.60679 5.45399 4.27442
#
# Compressibility (1/GPa) = 0.04672331
#
# Stress axis : x y z
#
# Youngs Moduli (GPa) = 35.53416 73.72646 139.66621
#
# Poissons Ratio (x) = -0.10129 0.01974
# Poissons Ratio (y) = -0.04882 0.32174
# Poissons Ratio (z) = 0.00502 0.16984
#
# Static dielectric constant tensor:
#      x y z
#    x 2.045630 0.000000 0.032410 
#    y 0.000000 1.954410 0.000000 
#    z 0.032410 0.000000 2.051960 
# 
# From -- ./inp_files/317539.got.cif
#   From: 2010.05.17/outbox.cif.g08.bks.cpg/sg15_159_cif.got.tgz:317539.got - 2010.06.03 18:47:42.
