data_PCOD9266182
_publ_section_title
;
Structure prediction by ZEFSAII (Michael W. Deem and Ramdas Pophale) SiO2 
 PCOD9266182
Probable space group: C 2/C
;
_chemical_formula_sum "Si O2"
_cell_formula_units_Z 48
_cell_length_a 10.147773
_cell_length_b 10.565149
_cell_length_c 20.047412
_cell_angle_alpha 90.000000
_cell_angle_beta 56.503338
_cell_angle_gamma 90.000000
_cell_volume 1792.371466
_symmetry_space_group_name_H-M "C 2/C"
_symmetry_group_IT_number 15
_symmetry_cell_setting 'monoclinic'
loop_
_space_group_symop_operation_xyz
x,y,z
-x,y,1/2-z
-x,-y,-z
x,-y,1/2+z
1/2+x,1/2+y,z
1/2-x,1/2+y,1/2-z
1/2-x,1/2-y,-z
1/2+x,1/2-y,1/2+z
loop_
_atom_site_type_symbol
_atom_site_label
_atom_site_fract_x
_atom_site_fract_y
_atom_site_fract_z
Si Si1 0.463724 0.281610 0.164928
Si Si2 0.652921 0.018997 0.280088
Si Si3 0.694682 0.717048 0.440024
Si Si4 0.863837 0.715372 0.040691
Si Si5 0.119990 0.031579 0.167961
Si Si6 0.294532 0.956659 0.385523
O O1 0.344486 0.173246 0.227382
O O2 0.637045 0.237425 0.142131
O O3 0.425367 0.257415 0.098146
O O4 0.507127 0.430482 0.163642
O O5 0.762344 0.974478 0.309658
O O6 0.474494 0.990525 0.352122
O O7 0.693866 0.950905 0.198877
O O8 0.750000 0.750000 0.500000
O O9 0.537697 0.789393 0.459711
O O10 0.673166 0.567455 0.438100
O O11 0.742273 0.601045 0.085386
O O12 0.753228 0.835441 0.057892
O O13 0.000000 0.111837 0.250000
#
# Coordination Sequence:
#
# PCOD9266182 Si02
#       6
#     8   8   8   8   8   8
#     4   9  20  39  62  86 119 157 203 252 302 370
#     4   9  21  38  61  89 119 156 204 252 308 366
#     4   9  19  37  63  85 117 164 206 245 301 362
#     4  10  21  38  58  87 124 157 198 250 310 364
#     4  11  23  37  60  92 121 157 201 259 309 361
#     4  10  19  37  61  86 119 161 199 250 313 362
#
# _framework density 26.780163000000002
#
# number of rings (size 3 to 8) (size 9 to 14) (size 15 to 20)
#    0.000    2.333    0.000    2.500    7.000    0.667 
#    0.000    3.333    0.000    9.000    0.000    0.000 
#    0.000    0.000    0.000    0.000    0.000    0.000 
#
# Total GULP energy -133620.577608 kJ/mol
# GULP energy per Si atom -5567.524067 kJ/mol
# Density = 2.671921 g / cm^3
# Si number density = 26.780163 Si / 1000 Ang^3
#
#
#
# Elastic Constant Matrix: (Units=GPa)
#
#
# Indices 1 2 3 4 5 6 
#
# 1 101.7330 -8.8197 5.5016 0.0000 -22.8127 0.0000
# 2 -8.8197 85.7998 12.6594 0.0000 -11.8174 0.0000
# 3 5.5016 12.6594 39.7136 0.0000 -12.9795 0.0000
# 4 0.0000 0.0000 0.0000 24.7945 0.0000 19.9717
# 5 -22.8127 -11.8174 -12.9795 0.0000 55.7002 0.0000
# 6 0.0000 0.0000 0.0000 19.9717 0.0000 -39.7012
#
#
#
# Elastic Compliance Matrix: (Units=1/GPa)
#
#
# Indices 1 2 3 4 5 6 
#
# 1 0.011104 0.001888 -0.000566 0.000000 0.004817 0.000000
# 2 0.001888 0.012725 -0.003445 0.000000 0.002670 0.000000
# 3 -0.000566 -0.003445 0.028189 0.000000 0.005606 0.000000
# 4 0.000000 0.000000 0.000000 0.028702 0.000000 0.014438
# 5 0.004817 0.002670 0.005606 0.000000 0.021799 0.000000
# 6 0.000000 0.000000 0.000000 0.014438 0.000000 -0.017925
#
#
# Mechanical properties :
#
#
# Convention : Reuss Voigt Hill
#
# Bulk Modulus (GPa) = 20.93250 27.32544 24.12897
# Shear Modulus (GPa) = 47.72632 22.68570 35.20601
#
# Velocity S-wave (km/s) = 4.22613 2.91367 3.62972
# Velocity P-wave (km/s) = 5.62557 4.64167 5.15713
#
# Compressibility (1/GPa) = 0.04777260
#
# Stress axis : x y z
#
# Youngs Moduli (GPa) = 90.05745 78.58376 35.47463
#
# Poissons Ratio (x) = -0.14839 0.02008
# Poissons Ratio (y) = -0.17006 0.12222
# Poissons Ratio (z) = 0.05097 0.27074
#
# Static dielectric constant tensor:
#      x y z
#    x 2.091560 0.000000 0.100730 
#    y 0.000000 2.369970 0.000000 
#    z 0.100730 0.000000 2.105180 
# 
# From -- ./inp_files/291941.got.cif
#   From: 2010.05.17/outbox.cif.g08.bks.cpg/sg15_146_cif.got.tgz:291941.got - 2010.06.03 18:47:42.
