data_PCOD9266262
_publ_section_title
;
Structure prediction by ZEFSAII (Michael W. Deem and Ramdas Pophale) SiO2 
 PCOD9266262
Probable space group: C 2/C
;
_chemical_formula_sum "Si O2"
_cell_formula_units_Z 52
_cell_length_a 29.505305
_cell_length_b 7.373048
_cell_length_c 11.342162
_cell_angle_alpha 90.000000
_cell_angle_beta 121.289813
_cell_angle_gamma 90.000000
_cell_volume 2108.536370
_symmetry_space_group_name_H-M "C 2/C"
_symmetry_group_IT_number 15
_symmetry_cell_setting 'monoclinic'
loop_
_space_group_symop_operation_xyz
x,y,z
-x,y,1/2-z
-x,-y,-z
x,-y,1/2+z
1/2+x,1/2+y,z
1/2-x,1/2+y,1/2-z
1/2-x,1/2-y,-z
1/2+x,1/2-y,1/2+z
loop_
_atom_site_type_symbol
_atom_site_label
_atom_site_fract_x
_atom_site_fract_y
_atom_site_fract_z
Si Si1 0.642965 0.445595 0.680188
Si Si2 0.905145 0.290958 0.915110
Si Si3 0.418985 0.127430 0.683497
Si Si4 0.817686 0.426920 0.636930
Si Si5 0.446989 0.811812 0.455915
Si Si6 0.697081 0.536361 0.999149
Si Si7 0.000000 0.309522 0.750000
O O1 0.596324 0.593705 0.643668
O O2 0.612068 0.263623 0.602958
O O3 0.673713 0.442183 0.847302
O O4 0.675007 0.496205 0.602821
O O5 0.847108 0.360211 0.795731
O O6 0.942695 0.466461 0.946039
O O7 0.913131 0.253631 0.061993
O O8 0.453980 0.228608 0.828057
O O9 0.360367 0.063656 0.640204
O O10 0.449295 0.939693 0.697909
O O11 0.759836 0.502259 0.584085
O O12 0.811237 0.250675 0.543850
O O13 0.485783 0.727264 0.604601
#
# Coordination Sequence:
#
# PCOD9266262 Si02
#       7
#     8   8   8   8   8   8   4
#     4  11  22  40  63  92 126 167 208 258 310 375
#     4   9  20  37  58  85 121 158 201 257 303 359
#     4  10  19  37  62  87 118 165 210 259 314 374
#     4   9  20  37  58  87 125 168 202 255 314 370
#     4  10  21  39  62  87 122 163 206 256 321 380
#     4  10  21  37  60  92 129 163 212 257 303 375
#     4  10  20  36  64  90 120 158 210 268 320 372
#
# _framework density 24.661655
#
# number of rings (size 3 to 8) (size 9 to 14) (size 15 to 20)
#    0.000    2.154    0.000    3.231    2.154    0.000 
#    8.308    6.923    0.000   17.538    0.000    0.000 
#    0.000    0.000    0.000    0.000    0.000    0.000 
#
# Total GULP energy -144824.350421 kJ/mol
# GULP energy per Si atom -5570.167324 kJ/mol
# Density = 2.460552 g / cm^3
# Si number density = 24.661655 Si / 1000 Ang^3
#
#
#
# Elastic Constant Matrix: (Units=GPa)
#
#
# Indices 1 2 3 4 5 6 
#
# 1 107.4125 22.7604 28.6515 0.0000 7.5706 0.0000
# 2 22.7604 63.1961 1.5474 0.0000 8.8163 0.0000
# 3 28.6515 1.5474 167.2955 0.0000 -9.4320 0.0000
# 4 0.0000 0.0000 0.0000 14.6874 0.0000 -4.4154
# 5 7.5706 8.8163 -9.4320 0.0000 31.3781 0.0000
# 6 0.0000 0.0000 0.0000 -4.4154 0.0000 18.0723
#
#
#
# Elastic Compliance Matrix: (Units=1/GPa)
#
#
# Indices 1 2 3 4 5 6 
#
# 1 0.010721 -0.003510 -0.001927 0.000000 -0.002180 0.000000
# 2 -0.003510 0.017648 0.000210 0.000000 -0.004049 0.000000
# 3 -0.001927 0.000210 0.006437 0.000000 0.002341 0.000000
# 4 0.000000 0.000000 0.000000 0.073483 0.000000 0.017953
# 5 -0.002180 -0.004049 0.002341 0.000000 0.034236 0.000000
# 6 0.000000 0.000000 0.000000 0.017953 0.000000 0.059719
#
#
# Mechanical properties :
#
#
# Convention : Reuss Voigt Hill
#
# Bulk Modulus (GPa) = 41.06386 49.31363 45.18875
# Shear Modulus (GPa) = 22.64328 31.82390 27.23359
#
# Velocity S-wave (km/s) = 3.03340 3.59614 3.32669
# Velocity P-wave (km/s) = 5.38105 6.10593 5.75492
#
# Compressibility (1/GPa) = 0.02435232
#
# Stress axis : x y z
#
# Youngs Moduli (GPa) = 93.27329 56.66497 155.34138
#
# Poissons Ratio (x) = 0.19890 0.29927
# Poissons Ratio (y) = 0.32739 -0.03257
# Poissons Ratio (z) = 0.17970 -0.01188
#
# Static dielectric constant tensor:
#      x y z
#    x 2.074520 0.000000 -0.098100 
#    y 0.000000 2.016570 0.000000 
#    z -0.098100 0.000000 2.003470 
# 
# From -- ./inp_files/125663.got.cif
#   From: 2010.05.17/outbox.cif.g08.bks.cpg/sg15_63_cif.got.tgz:125663.got - 2010.06.03 18:47:42.
