data_PCOD9266873
_publ_section_title
;
Structure prediction by ZEFSAII (Michael W. Deem and Ramdas Pophale) SiO2 
 PCOD9266873
Probable space group: C 2/C
;
_chemical_formula_sum "Si O2"
_cell_formula_units_Z 60
_cell_length_a 8.829797
_cell_length_b 24.726432
_cell_length_c 18.629947
_cell_angle_alpha 90.000000
_cell_angle_beta 51.384041
_cell_angle_gamma 90.000000
_cell_volume 3178.099982
_symmetry_space_group_name_H-M "C 2/C"
_symmetry_group_IT_number 15
_symmetry_cell_setting 'monoclinic'
loop_
_space_group_symop_operation_xyz
x,y,z
-x,y,1/2-z
-x,-y,-z
x,-y,1/2+z
1/2+x,1/2+y,z
1/2-x,1/2+y,1/2-z
1/2-x,1/2-y,-z
1/2+x,1/2-y,1/2+z
loop_
_atom_site_type_symbol
_atom_site_label
_atom_site_fract_x
_atom_site_fract_y
_atom_site_fract_z
Si Si1 0.978071 0.540398 0.571531
Si Si2 0.293774 0.627993 0.503572
Si Si3 0.000000 0.629612 0.250000
Si Si4 0.558152 0.554725 0.908884
Si Si5 0.311142 0.611723 0.774645
Si Si6 0.698870 0.963194 0.600760
Si Si7 0.403988 0.326084 0.696738
Si Si8 0.001670 0.702073 0.663555
O O1 0.770176 0.566161 0.647824
O O2 0.000000 0.500000 0.500000
O O3 0.128356 0.589860 0.518230
O O4 0.036573 0.506159 0.625047
O O5 0.372743 0.592633 0.546086
O O6 0.459729 0.640283 0.397443
O O7 0.197657 0.682023 0.566287
O O8 0.109766 0.589898 0.161739
O O9 0.176854 0.659509 0.242964
O O10 0.631692 0.582970 0.815935
O O11 0.658085 0.496108 0.888579
O O12 0.330208 0.548574 0.991803
O O13 0.500000 0.638897 0.750000
O O14 0.151003 0.656891 0.813899
O O15 0.500000 0.333293 0.750000
O O16 0.439032 0.263135 0.666744
O O17 0.000000 0.697943 0.750000
#
# Coordination Sequence:
#
# PCOD9266873 Si02
#       8
#     8   8   4   8   8   8   8   8
#     4  10  22  37  58  90 130 162 204 258 315 381
#     4  10  20  41  67  88 124 168 209 264 317 383
#     4  12  24  42  64  92 130 172 204 270 322 388
#     4  10  19  38  62  89 122 166 214 248 317 378
#     4  11  22  37  62  94 123 160 207 269 311 375
#     4  10  21  36  59  88 124 168 209 251 313 389
#     4  11  26  44  64  96 127 169 219 267 331 385
#     4  10  21  41  70  88 121 163 212 268 320 382
#
# _framework density 18.879204000000001
#
# number of rings (size 3 to 8) (size 9 to 14) (size 15 to 20)
#    0.000    1.600    2.667    2.000    2.800    0.000 
#    2.400    0.000    0.000    4.000    0.000    0.000 
#    0.000    0.000    0.000    0.000    0.000    0.000 
#
# Total GULP energy -167172.988995 kJ/mol
# GULP energy per Si atom -5572.432967 kJ/mol
# Density = 1.883623 g / cm^3
# Si number density = 18.879204 Si / 1000 Ang^3
#
#
#
# Elastic Constant Matrix: (Units=GPa)
#
#
# Indices 1 2 3 4 5 6 
#
# 1 79.5963 34.6015 35.6341 0.0000 -10.7861 0.0000
# 2 34.6015 96.7090 34.2533 0.0000 -2.2264 0.0000
# 3 35.6341 34.2533 90.7113 0.0000 -2.2506 0.0000
# 4 0.0000 0.0000 0.0000 31.2228 0.0000 -0.2685
# 5 -10.7861 -2.2264 -2.2506 0.0000 24.6935 0.0000
# 6 0.0000 0.0000 0.0000 -0.2685 0.0000 18.0240
#
#
#
# Elastic Compliance Matrix: (Units=1/GPa)
#
#
# Indices 1 2 3 4 5 6 
#
# 1 0.017683 -0.004351 -0.005133 0.000000 0.006864 0.000000
# 2 -0.004351 0.013018 -0.003232 0.000000 -0.001021 0.000000
# 3 -0.005133 -0.003232 0.014230 0.000000 -0.001237 0.000000
# 4 0.000000 0.000000 0.000000 0.032032 0.000000 0.000477
# 5 0.006864 -0.001021 -0.001237 0.000000 0.043290 0.000000
# 6 0.000000 0.000000 0.000000 0.000477 0.000000 0.055489
#
#
# Mechanical properties :
#
#
# Convention : Reuss Voigt Hill
#
# Bulk Modulus (GPa) = 51.28346 52.88829 52.08587
# Shear Modulus (GPa) = 24.07628 25.62324 24.84976
#
# Velocity S-wave (km/s) = 3.57498 3.68804 3.63195
# Velocity P-wave (km/s) = 6.65309 6.79782 6.72585
#
# Compressibility (1/GPa) = 0.01949946
#
# Stress axis : x y z
#
# Youngs Moduli (GPa) = 56.55200 76.81583 70.27289
#
# Poissons Ratio (x) = 0.33419 0.36073
# Poissons Ratio (y) = 0.24603 0.22713
# Poissons Ratio (z) = 0.29030 0.24827
#
# Static dielectric constant tensor:
#      x y z
#    x 1.709250 0.000000 0.006950 
#    y 0.000000 1.644160 0.000000 
#    z 0.006950 0.000000 1.620380 
# 
# From -- ./inp_files/192097.got.cif
#   From: 2010.05.17/outbox.cif.g08.bks.cpg/sg15_97_cif.got.tgz:192097.got - 2010.06.03 18:47:42.
