data_PCOD9266712
_publ_section_title
;
Structure prediction by ZEFSAII (Michael W. Deem and Ramdas Pophale) SiO2 
 PCOD9266712
Probable space group: C 2/C
;
_chemical_formula_sum "Si O2"
_cell_formula_units_Z 48
_cell_length_a 13.760979
_cell_length_b 21.469125
_cell_length_c 11.046959
_cell_angle_alpha 90.000000
_cell_angle_beta 140.846459
_cell_angle_gamma 90.000000
_cell_volume 2060.684444
_symmetry_space_group_name_H-M "C 2/C"
_symmetry_group_IT_number 15
_symmetry_cell_setting 'monoclinic'
loop_
_space_group_symop_operation_xyz
x,y,z
-x,y,1/2-z
-x,-y,-z
x,-y,1/2+z
1/2+x,1/2+y,z
1/2-x,1/2+y,1/2-z
1/2-x,1/2-y,-z
1/2+x,1/2-y,1/2+z
loop_
_atom_site_type_symbol
_atom_site_label
_atom_site_fract_x
_atom_site_fract_y
_atom_site_fract_z
Si Si1 0.185934 0.505337 0.174694
Si Si2 0.151275 0.100203 0.340946
Si Si3 0.004228 0.783893 0.560192
Si Si4 0.301520 0.805138 0.142326
Si Si5 0.336790 0.309581 0.031881
Si Si6 0.815386 0.559380 0.072082
O O1 0.254996 0.565601 0.172739
O O2 0.235326 0.513159 0.364678
O O3 0.235334 0.455440 0.116601
O O4 0.000000 0.500000 0.000000
O O5 0.068798 0.160988 0.205868
O O6 0.273150 0.128223 0.555238
O O7 0.000000 0.065405 0.250000
O O8 0.035179 0.716091 0.648986
O O9 0.108993 0.789732 0.547010
O O10 0.825677 0.798444 0.374893
O O11 0.250000 0.750000 0.000000
O O12 0.500000 0.324135 0.250000
O O13 0.250000 0.250000 0.000000
O O14 0.235906 0.371542 0.941959
O O15 0.000000 0.555579 0.250000
#
# Coordination Sequence:
#
# PCOD9266712 Si02
#       6
#     8   8   8   8   8   8
#     4  10  21  44  70  98 137 178 230 285 343 401
#     4   9  18  36  64  91 130 175 216 278 337 397
#     4  10  19  38  59  88 132 171 212 280 326 403
#     4   9  18  33  59  92 124 167 213 261 340 390
#     4  12  25  43  66  97 133 179 230 274 347 413
#     4  10  23  46  72  99 138 181 229 285 339 409
#
# _framework density 23.293230999999999
#
# number of rings (size 3 to 8) (size 9 to 14) (size 15 to 20)
#    0.000    2.000    1.667    3.000    0.000    0.667 
#   12.000    8.333    0.000    0.000    0.000    0.000 
#    0.000    0.000    0.000    0.000    0.000    0.000 
#
# Total GULP energy -133713.864406 kJ/mol
# GULP energy per Si atom -5571.411017 kJ/mol
# Density = 2.324021 g / cm^3
# Si number density = 23.293231 Si / 1000 Ang^3
#
#
#
# Elastic Constant Matrix: (Units=GPa)
#
#
# Indices 1 2 3 4 5 6 
#
# 1 183.4469 41.7380 21.0791 0.0000 -17.4046 0.0000
# 2 41.7380 69.3541 18.3587 0.0000 -3.3418 0.0000
# 3 21.0791 18.3587 41.6924 0.0000 1.3911 0.0000
# 4 0.0000 0.0000 0.0000 62.7858 0.0000 21.2991
# 5 -17.4046 -3.3418 1.3911 0.0000 31.7202 0.0000
# 6 0.0000 0.0000 0.0000 21.2991 0.0000 48.7107
#
#
#
# Elastic Compliance Matrix: (Units=1/GPa)
#
#
# Indices 1 2 3 4 5 6 
#
# 1 0.006783 -0.003370 -0.002061 0.000000 0.003457 0.000000
# 2 -0.003370 0.018128 -0.006290 0.000000 0.000337 0.000000
# 3 -0.002061 -0.006290 0.027897 0.000000 -0.003017 0.000000
# 4 0.000000 0.000000 0.000000 0.018701 0.000000 -0.008177
# 5 0.003457 0.000337 -0.003017 0.000000 0.033590 0.000000
# 6 0.000000 0.000000 0.000000 -0.008177 0.000000 0.024105
#
#
# Mechanical properties :
#
#
# Convention : Reuss Voigt Hill
#
# Bulk Modulus (GPa) = 34.05165 50.76054 42.40610
# Shear Modulus (GPa) = 30.78172 42.86453 36.82313
#
# Velocity S-wave (km/s) = 3.63917 4.29443 3.98031
# Velocity P-wave (km/s) = 5.68406 6.81386 6.27444
#
# Compressibility (1/GPa) = 0.02936715
#
# Stress axis : x y z
#
# Youngs Moduli (GPa) = 147.43547 55.16344 35.84569
#
# Poissons Ratio (x) = 0.18589 0.07387
# Poissons Ratio (y) = 0.49683 0.22547
# Poissons Ratio (z) = 0.30382 0.34697
#
# Static dielectric constant tensor:
#      x y z
#    x 1.884970 0.000000 -0.003480 
#    y 0.000000 1.717060 0.000000 
#    z -0.003480 0.000000 1.923370 
# 
# From -- ./inp_files/100043.got.cif
#   From: 2010.05.17/outbox.cif.g08.bks.cpg/sg15_51_cif.got.tgz:100043.got - 2010.06.03 18:47:42.
