data_PCOD9266742
_publ_section_title
;
Structure prediction by ZEFSAII (Michael W. Deem and Ramdas Pophale) SiO2 
 PCOD9266742
Probable space group: C 2/C
;
_chemical_formula_sum "Si O2"
_cell_formula_units_Z 48
_cell_length_a 7.640138
_cell_length_b 29.144913
_cell_length_c 14.907313
_cell_angle_alpha 90.000000
_cell_angle_beta 130.951276
_cell_angle_gamma 90.000000
_cell_volume 2507.055627
_symmetry_space_group_name_H-M "C 2/C"
_symmetry_group_IT_number 15
_symmetry_cell_setting 'monoclinic'
loop_
_space_group_symop_operation_xyz
x,y,z
-x,y,1/2-z
-x,-y,-z
x,-y,1/2+z
1/2+x,1/2+y,z
1/2-x,1/2+y,1/2-z
1/2-x,1/2-y,-z
1/2+x,1/2-y,1/2+z
loop_
_atom_site_type_symbol
_atom_site_label
_atom_site_fract_x
_atom_site_fract_y
_atom_site_fract_z
Si Si1 0.728358 0.176750 0.664510
Si Si2 0.022164 0.760468 0.863129
Si Si3 0.973998 0.608262 0.453223
Si Si4 0.500000 0.348207 0.750000
Si Si5 0.265252 0.555344 0.968016
Si Si6 0.286803 0.950638 0.611127
Si Si7 0.000000 0.379283 0.250000
O O1 0.674201 0.230857 0.653789
O O2 0.592511 0.152712 0.537482
O O3 0.621536 0.151667 0.715713
O O4 0.000000 0.168345 0.750000
O O5 0.006455 0.814933 0.840211
O O6 0.000000 0.745118 0.750000
O O7 0.250000 0.750000 0.000000
O O8 0.735841 0.623644 0.326519
O O9 0.888895 0.572883 0.501227
O O10 0.155230 0.584037 0.449306
O O11 0.222540 0.502371 0.930316
O O12 0.187059 0.587620 0.859685
O O13 0.540539 0.560179 0.074018
O O14 0.500000 0.947893 0.750000
#
# Coordination Sequence:
#
# PCOD9266742 Si02
#       7
#     8   8   8   4   8   8   4
#     4  11  21  37  64  92 119 156 209 253 308 372
#     4  10  20  41  64  88 126 166 201 257 319 375
#     4  11  22  39  61  90 122 159 206 258 309 371
#     4  10  21  38  66  88 122 166 202 252 321 370
#     4  10  22  38  60  83 121 160 202 249 315 360
#     4  11  22  39  57  87 121 159 208 255 302 373
#     4  10  19  38  60  86 118 162 192 252 305 362
#
# _framework density 19.145966999999999
#
# number of rings (size 3 to 8) (size 9 to 14) (size 15 to 20)
#    0.500    1.000    3.333    2.500    0.000    0.000 
#    0.000    5.833    0.000    0.000    0.000    0.000 
#    0.000    0.000    0.000    0.000    0.000    0.000 
#
# Total GULP energy -133804.822804 kJ/mol
# GULP energy per Si atom -5575.200950 kJ/mol
# Density = 1.910239 g / cm^3
# Si number density = 19.145967 Si / 1000 Ang^3
#
#
#
# Elastic Constant Matrix: (Units=GPa)
#
#
# Indices 1 2 3 4 5 6 
#
# 1 57.1243 -4.4272 5.5383 0.0000 10.2640 0.0000
# 2 -4.4272 32.9988 -18.0333 0.0000 -4.7381 0.0000
# 3 5.5383 -18.0333 84.6024 0.0000 10.5580 0.0000
# 4 0.0000 0.0000 0.0000 15.5530 0.0000 1.8679
# 5 10.2640 -4.7381 10.5580 0.0000 30.9278 0.0000
# 6 0.0000 0.0000 0.0000 1.8679 0.0000 -10.8126
#
#
#
# Elastic Compliance Matrix: (Units=1/GPa)
#
#
# Indices 1 2 3 4 5 6 
#
# 1 0.018705 0.001578 -0.000150 0.000000 -0.005915 0.000000
# 2 0.001578 0.034680 0.006989 0.000000 0.002403 0.000000
# 3 -0.000150 0.006989 0.013766 0.000000 -0.003579 0.000000
# 4 0.000000 0.000000 0.000000 0.062989 0.000000 0.010882
# 5 -0.005915 0.002403 -0.003579 0.000000 0.035886 0.000000
# 6 0.000000 0.000000 0.000000 0.010882 0.000000 -0.090605
#
#
# Mechanical properties :
#
#
# Convention : Reuss Voigt Hill
#
# Bulk Modulus (GPa) = 11.90667 15.65347 13.78007
# Shear Modulus (GPa) = 57.74798 19.91015 38.82907
#
# Velocity S-wave (km/s) = 5.49795 3.22827 4.50828
# Velocity P-wave (km/s) = 6.82170 4.69992 5.85768
#
# Compressibility (1/GPa) = 0.08398653
#
# Stress axis : x y z
#
# Youngs Moduli (GPa) = 53.46079 28.83483 72.64184
#
# Poissons Ratio (x) = -0.04551 0.01089
# Poissons Ratio (y) = -0.08438 -0.50769
# Poissons Ratio (z) = 0.00802 -0.20153
#
# Static dielectric constant tensor:
#      x y z
#    x 1.635420 0.000000 -0.023540 
#    y 0.000000 1.673150 0.000000 
#    z -0.023540 0.000000 1.311850 
# 
# From -- ./inp_files/130971.got.cif
#   From: 2010.05.17/outbox.cif.g08.bks.cpg/sg15_66_cif.got.tgz:130971.got - 2010.06.03 18:47:42.
