data_PCOD9266181
_publ_section_title
;
Structure prediction by ZEFSAII (Michael W. Deem and Ramdas Pophale) SiO2 
 PCOD9266181
Probable space group: C 2/C
;
_chemical_formula_sum "Si O2"
_cell_formula_units_Z 36
_cell_length_a 10.375629
_cell_length_b 10.740369
_cell_length_c 22.364578
_cell_angle_alpha 90.000000
_cell_angle_beta 45.582168
_cell_angle_gamma 90.000000
_cell_volume 1780.112982
_symmetry_space_group_name_H-M "C 2/C"
_symmetry_group_IT_number 15
_symmetry_cell_setting 'monoclinic'
loop_
_space_group_symop_operation_xyz
x,y,z
-x,y,1/2-z
-x,-y,-z
x,-y,1/2+z
1/2+x,1/2+y,z
1/2-x,1/2+y,1/2-z
1/2-x,1/2-y,-z
1/2+x,1/2-y,1/2+z
loop_
_atom_site_type_symbol
_atom_site_label
_atom_site_fract_x
_atom_site_fract_y
_atom_site_fract_z
Si Si1 0.308859 0.582138 0.131310
Si Si2 0.000000 0.761750 0.250000
Si Si3 0.461391 0.502131 0.698197
Si Si4 0.327738 0.070810 0.030010
Si Si5 0.303641 0.352280 0.051483
O O1 0.147306 0.675792 0.171001
O O2 0.332231 0.568396 0.194987
O O3 0.277665 0.445786 0.114271
O O4 0.494981 0.629554 0.041402
O O5 0.904110 0.858621 0.235675
O O6 0.500000 0.440165 0.750000
O O7 0.651897 0.510806 0.601812
O O8 0.290594 0.207000 0.070390
O O9 0.329547 0.103926 0.958846
O O10 0.500000 0.000000 0.000000
#
# Coordination Sequence:
#
# PCOD9266181 Si02
#       5
#     8   4   8   8   8
#     4  10  20  40  57  82 118 153 192 246 290 341
#     4  10  22  40  58  84 120 158 192 242 284 356
#     4   9  22  38  55  84 120 151 194 241 283 354
#     4  10  19  37  61  86 114 153 189 246 291 343
#     4   9  21  36  58  88 114 145 202 241 286 350
#
# _framework density 20.223434000000001
#
# number of rings (size 3 to 8) (size 9 to 14) (size 15 to 20)
#    0.667    1.778    0.000    1.333    0.000    5.333 
#   10.000    6.667    0.000    0.000    0.000    0.000 
#    0.000    0.000    0.000    0.000    0.000    0.000 
#
# Total GULP energy -100282.028472 kJ/mol
# GULP energy per Si atom -5571.223804 kJ/mol
# Density = 2.017740 g / cm^3
# Si number density = 20.223434 Si / 1000 Ang^3
#
#
#
# Elastic Constant Matrix: (Units=GPa)
#
#
# Indices 1 2 3 4 5 6 
#
# 1 44.6470 8.2846 -2.4579 0.0000 4.9228 0.0000
# 2 8.2846 80.5653 13.7132 0.0000 5.7350 0.0000
# 3 -2.4579 13.7132 29.1500 0.0000 11.3478 0.0000
# 4 0.0000 0.0000 0.0000 19.2901 0.0000 1.0917
# 5 4.9228 5.7350 11.3478 0.0000 25.4192 0.0000
# 6 0.0000 0.0000 0.0000 1.0917 0.0000 23.6236
#
#
#
# Elastic Compliance Matrix: (Units=1/GPa)
#
#
# Indices 1 2 3 4 5 6 
#
# 1 0.024027 -0.003025 0.006045 0.000000 -0.006670 0.000000
# 2 -0.003025 0.013875 -0.007010 0.000000 0.000585 0.000000
# 3 0.006045 -0.007010 0.045936 0.000000 -0.020096 0.000000
# 4 0.000000 0.000000 0.000000 0.051976 0.000000 -0.002402
# 5 -0.006670 0.000585 -0.020096 0.000000 0.049471 0.000000
# 6 0.000000 0.000000 0.000000 -0.002402 0.000000 0.042442
#
#
# Mechanical properties :
#
#
# Convention : Reuss Voigt Hill
#
# Bulk Modulus (GPa) = 13.18227 21.49356 17.33792
# Shear Modulus (GPa) = 19.15759 22.65474 20.90617
#
# Velocity S-wave (km/s) = 3.08116 3.35060 3.21870
# Velocity P-wave (km/s) = 4.38070 5.06161 4.73341
#
# Compressibility (1/GPa) = 0.07585944
#
# Stress axis : x y z
#
# Youngs Moduli (GPa) = 41.61903 72.07249 21.76933
#
# Poissons Ratio (x) = 0.21802 -0.13161
# Poissons Ratio (y) = 0.12590 0.15260
# Poissons Ratio (z) = -0.25161 0.50523
#
# Static dielectric constant tensor:
#      x y z
#    x 1.749510 0.000000 0.017520 
#    y 0.000000 1.705710 0.000000 
#    z 0.017520 0.000000 1.724040 
# 
# From -- ./inp_files/195372.got.cif
#   From: 2010.05.17/outbox.cif.g08.bks.cpg/sg15_98_cif.got.tgz:195372.got - 2010.06.03 18:47:42.
