data_PCOD9266459
_publ_section_title
;
Structure prediction by ZEFSAII (Michael W. Deem and Ramdas Pophale) SiO2 
 PCOD9266459
Probable space group: C 2/C
;
_chemical_formula_sum "Si O2"
_cell_formula_units_Z 36
_cell_length_a 5.335474
_cell_length_b 15.350922
_cell_length_c 19.521142
_cell_angle_alpha 90.000000
_cell_angle_beta 103.653636
_cell_angle_gamma 90.000000
_cell_volume 1553.685010
_symmetry_space_group_name_H-M "C 2/C"
_symmetry_group_IT_number 15
_symmetry_cell_setting 'monoclinic'
loop_
_space_group_symop_operation_xyz
x,y,z
-x,y,1/2-z
-x,-y,-z
x,-y,1/2+z
1/2+x,1/2+y,z
1/2-x,1/2+y,1/2-z
1/2-x,1/2-y,-z
1/2+x,1/2-y,1/2+z
loop_
_atom_site_type_symbol
_atom_site_label
_atom_site_fract_x
_atom_site_fract_y
_atom_site_fract_z
Si Si1 0.199865 0.753446 0.606001
Si Si2 0.788140 0.011542 0.789380
Si Si3 0.000000 0.182735 0.750000
Si Si4 0.044671 0.927820 0.934237
Si Si5 0.901589 0.378056 0.509151
O O1 0.335934 0.737121 0.686072
O O2 0.986652 0.828047 0.596119
O O3 0.096245 0.664428 0.565637
O O4 0.394287 0.797090 0.562819
O O5 0.500000 0.985032 0.750000
O O6 0.883181 0.984539 0.870154
O O7 0.000000 0.973680 0.750000
O O8 0.820073 0.115413 0.780921
O O9 0.875269 0.922134 0.993012
O O10 0.350373 0.935952 0.958860
#
# Coordination Sequence:
#
# PCOD9266459 Si02
#       5
#     8   8   4   8   8
#     4   9  21  36  62  90 118 153 197 248 293 342
#     4  10  23  40  56  83 126 156 191 242 294 357
#     4  10  24  40  58  90 126 152 192 252 296 344
#     4  10  19  37  65  83 113 158 198 240 287 354
#     4   9  20  37  64  87 117 146 209 243 287 343
#
# _framework density 23.170719999999999
#
# number of rings (size 3 to 8) (size 9 to 14) (size 15 to 20)
#    2.000    0.444    0.000    2.000    1.556    1.778 
#    0.000    2.222    0.000    0.000    0.000    0.000 
#    0.000    0.000    0.000    0.000    0.000    0.000 
#
# Total GULP energy -100411.096706 kJ/mol
# GULP energy per Si atom -5578.394261 kJ/mol
# Density = 2.311798 g / cm^3
# Si number density = 23.170720 Si / 1000 Ang^3
#
#
#
# Elastic Constant Matrix: (Units=GPa)
#
#
# Indices 1 2 3 4 5 6 
#
# 1 115.6281 25.6647 40.0054 0.0000 45.8588 0.0000
# 2 25.6647 36.1861 16.0176 0.0000 9.7762 0.0000
# 3 40.0054 16.0176 108.5563 0.0000 26.0369 0.0000
# 4 0.0000 0.0000 0.0000 40.0306 0.0000 -2.7825
# 5 45.8588 9.7762 26.0369 0.0000 35.2953 0.0000
# 6 0.0000 0.0000 0.0000 -2.7825 0.0000 25.8048
#
#
#
# Elastic Compliance Matrix: (Units=1/GPa)
#
#
# Indices 1 2 3 4 5 6 
#
# 1 0.019632 -0.007437 -0.000624 0.000000 -0.022987 0.000000
# 2 -0.007437 0.033483 -0.002786 0.000000 0.002444 0.000000
# 3 -0.000624 -0.002786 0.011510 0.000000 -0.006908 0.000000
# 4 0.000000 0.000000 0.000000 0.025170 0.000000 0.002714
# 5 -0.022987 0.002444 -0.006908 0.000000 0.062619 0.000000
# 6 0.000000 0.000000 0.000000 0.002714 0.000000 0.039045
#
#
# Mechanical properties :
#
#
# Convention : Reuss Voigt Hill
#
# Bulk Modulus (GPa) = 23.29363 47.08287 35.18825
# Shear Modulus (GPa) = 21.98169 32.13833 27.06001
#
# Velocity S-wave (km/s) = 3.08341 3.72832 3.42109
# Velocity P-wave (km/s) = 4.76985 6.23682 5.55200
#
# Compressibility (1/GPa) = 0.04293020
#
# Stress axis : x y z
#
# Youngs Moduli (GPa) = 50.93720 29.86627 86.88298
#
# Poissons Ratio (x) = 0.22212 0.05422
# Poissons Ratio (y) = 0.37883 0.24204
# Poissons Ratio (z) = 0.03179 0.08320
#
# Static dielectric constant tensor:
#      x y z
#    x 1.898090 0.000000 -0.013460 
#    y 0.000000 2.041310 0.000000 
#    z -0.013460 0.000000 1.838180 
# 
# From -- ./inp_files/260585.got.cif
#   From: 2010.05.17/outbox.cif.g08.bks.cpg/sg15_131_cif.got.tgz:260585.got - 2010.06.03 18:47:42.
