data_PCOD9266236
_publ_section_title
;
Structure prediction by ZEFSAII (Michael W. Deem and Ramdas Pophale) SiO2 
 PCOD9266236
Probable space group: C 2/C
;
_chemical_formula_sum "Si O2"
_cell_formula_units_Z 48
_cell_length_a 10.421943
_cell_length_b 14.732415
_cell_length_c 24.707023
_cell_angle_alpha 90.000000
_cell_angle_beta 142.240945
_cell_angle_gamma 90.000000
_cell_volume 2322.936139
_symmetry_space_group_name_H-M "C 2/C"
_symmetry_group_IT_number 15
_symmetry_cell_setting 'monoclinic'
loop_
_space_group_symop_operation_xyz
x,y,z
-x,y,1/2-z
-x,-y,-z
x,-y,1/2+z
1/2+x,1/2+y,z
1/2-x,1/2+y,1/2-z
1/2-x,1/2-y,-z
1/2+x,1/2-y,1/2+z
loop_
_atom_site_type_symbol
_atom_site_label
_atom_site_fract_x
_atom_site_fract_y
_atom_site_fract_z
Si Si1 0.750754 0.821055 0.837352
Si Si2 0.004604 0.354843 0.432655
Si Si3 0.713206 0.520197 0.347471
Si Si4 0.458478 0.811367 0.928029
Si Si5 0.371943 0.370440 0.001029
Si Si6 0.086935 0.054085 0.426383
O O1 0.500000 0.815476 0.750000
O O2 0.864173 0.725548 0.861268
O O3 0.817207 0.852244 0.920223
O O4 0.866023 0.898089 0.840610
O O5 0.894298 0.452076 0.389601
O O6 0.005518 0.332639 0.496788
O O7 0.246281 0.370253 0.496449
O O8 0.500000 0.488647 0.250000
O O9 0.768478 0.623165 0.349113
O O10 0.683650 0.517886 0.402420
O O11 0.660593 0.844482 0.962638
O O12 0.452953 0.702849 0.921933
O O13 0.430383 0.471513 0.037815
#
# Coordination Sequence:
#
# PCOD9266236 Si02
#       6
#     8   8   8   8   8   8
#     4  11  25  37  55  88 122 148 183 238 295 335
#     4  10  19  40  60  83 110 150 199 232 277 343
#     4  11  21  35  59  89 117 141 193 253 284 313
#     4   9  18  35  60  83 105 151 194 228 276 345
#     4  10  19  37  62  78 114 155 192 221 279 353
#     4  11  21  39  61  85 109 158 196 230 276 351
#
# _framework density 20.663504
#
# number of rings (size 3 to 8) (size 9 to 14) (size 15 to 20)
#    0.000    1.667    3.333    2.500    2.333    0.000 
#    0.000    0.833    0.000    0.000    0.000    0.000 
#    0.000    0.000    0.000    0.000    0.000    0.000 
#
# Total GULP energy -133885.994865 kJ/mol
# GULP energy per Si atom -5578.583119 kJ/mol
# Density = 2.061647 g / cm^3
# Si number density = 20.663504 Si / 1000 Ang^3
#
#
#
# Elastic Constant Matrix: (Units=GPa)
#
#
# Indices 1 2 3 4 5 6 
#
# 1 37.0377 29.2060 1.6318 0.0000 7.6564 0.0000
# 2 29.2060 104.3670 31.2307 0.0000 9.2001 0.0000
# 3 1.6318 31.2307 72.1037 0.0000 22.7251 0.0000
# 4 0.0000 0.0000 0.0000 19.7337 0.0000 9.0097
# 5 7.6564 9.2001 22.7251 0.0000 26.1991 0.0000
# 6 0.0000 0.0000 0.0000 9.0097 0.0000 23.9475
#
#
#
# Elastic Compliance Matrix: (Units=1/GPa)
#
#
# Indices 1 2 3 4 5 6 
#
# 1 0.039642 -0.012545 0.009357 0.000000 -0.015296 0.000000
# 2 -0.012545 0.014981 -0.007848 0.000000 0.005213 0.000000
# 3 0.009357 -0.007848 0.023464 0.000000 -0.020332 0.000000
# 4 0.000000 0.000000 0.000000 0.061185 0.000000 -0.023019
# 5 -0.015296 0.005213 -0.020332 0.000000 0.058445 0.000000
# 6 0.000000 0.000000 0.000000 -0.023019 0.000000 0.050418
#
#
# Mechanical properties :
#
#
# Convention : Reuss Voigt Hill
#
# Bulk Modulus (GPa) = 17.85197 37.51617 27.68407
# Shear Modulus (GPa) = 17.30839 24.07204 20.69021
#
# Velocity S-wave (km/s) = 2.89732 3.41685 3.16775
# Velocity P-wave (km/s) = 4.45542 5.81048 5.17747
#
# Compressibility (1/GPa) = 0.05601623
#
# Stress axis : x y z
#
# Youngs Moduli (GPa) = 25.22601 66.75106 42.61806
#
# Poissons Ratio (x) = 0.83739 -0.39880
# Poissons Ratio (y) = 0.31646 0.33446
# Poissons Ratio (z) = -0.23605 0.52385
#
# Static dielectric constant tensor:
#      x y z
#    x 1.753100 0.000000 -0.007110 
#    y 0.000000 1.790340 0.000000 
#    z -0.007110 0.000000 1.721200 
# 
# From -- ./inp_files/143533.got.cif
#   From: 2010.05.17/outbox.cif.g08.bks.cpg/sg15_72_cif.got.tgz:143533.got - 2010.06.03 18:47:42.
