data_PCOD9266855
_publ_section_title
;
Structure prediction by ZEFSAII (Michael W. Deem and Ramdas Pophale) SiO2 
 PCOD9266855
Probable space group: C 2/C
;
_chemical_formula_sum "Si O2"
_cell_formula_units_Z 52
_cell_length_a 15.296346
_cell_length_b 14.761526
_cell_length_c 18.200438
_cell_angle_alpha 90.000000
_cell_angle_beta 145.700534
_cell_angle_gamma 90.000000
_cell_volume 2315.841629
_symmetry_space_group_name_H-M "C 2/C"
_symmetry_group_IT_number 15
_symmetry_cell_setting 'monoclinic'
loop_
_space_group_symop_operation_xyz
x,y,z
-x,y,1/2-z
-x,-y,-z
x,-y,1/2+z
1/2+x,1/2+y,z
1/2-x,1/2+y,1/2-z
1/2-x,1/2-y,-z
1/2+x,1/2-y,1/2+z
loop_
_atom_site_type_symbol
_atom_site_label
_atom_site_fract_x
_atom_site_fract_y
_atom_site_fract_z
Si Si1 0.850554 0.549910 0.099770
Si Si2 0.922348 0.763551 0.481588
Si Si3 0.453421 0.465092 0.548194
Si Si4 0.049022 0.419355 0.451303
Si Si5 0.216261 0.732066 0.274385
Si Si6 0.500000 0.774546 0.750000
Si Si7 0.292785 0.960721 0.789929
O O1 0.863980 0.497476 0.032619
O O2 0.883107 0.657182 0.124887
O O3 0.000000 0.513265 0.250000
O O4 0.684542 0.524032 0.016271
O O5 0.904040 0.860976 0.505881
O O6 0.103779 0.750303 0.586046
O O7 0.898502 0.683459 0.524855
O O8 0.827364 0.758580 0.339431
O O9 0.500000 0.500000 0.500000
O O10 0.621066 0.469365 0.703110
O O11 0.094257 0.427811 0.567721
O O12 0.868344 0.446004 0.314928
O O13 0.201538 0.621275 0.264688
O O14 0.102901 0.771753 0.258168
#
# Coordination Sequence:
#
# PCOD9266855 Si02
#       7
#     8   8   8   8   8   4   8
#     4  10  21  35  62  89 113 159 196 246 292 361
#     4  10  24  36  62  89 119 156 200 249 297 362
#     4  11  22  39  60  87 120 158 202 245 300 357
#     4  10  19  38  62  87 118 155 200 237 306 355
#     4  10  20  39  58  88 120 156 200 245 300 358
#     4  10  20  38  58  84 122 154 202 244 300 350
#     4   9  19  37  61  84 117 161 192 243 294 364
#
# _framework density 22.454041
#
# number of rings (size 3 to 8) (size 9 to 14) (size 15 to 20)
#    0.462    1.538    1.538    2.769    4.308    1.846 
#    0.000    0.000    0.000    0.000    0.000    0.000 
#    0.000    0.000    0.000    0.000    0.000    0.000 
#
# Total GULP energy -144973.324677 kJ/mol
# GULP energy per Si atom -5575.897103 kJ/mol
# Density = 2.240293 g / cm^3
# Si number density = 22.454041 Si / 1000 Ang^3
#
#
#
# Elastic Constant Matrix: (Units=GPa)
#
#
# Indices 1 2 3 4 5 6 
#
# 1 53.2344 -26.8829 1.4672 0.0002 13.5429 0.0000
# 2 -26.8829 48.5366 7.4329 0.0004 -4.6593 0.0001
# 3 1.4672 7.4329 72.1536 0.0008 17.6783 0.0002
# 4 0.0002 0.0004 0.0008 20.7974 0.0001 2.9841
# 5 13.5429 -4.6593 17.6783 0.0001 32.7116 0.0000
# 6 0.0000 0.0001 0.0002 2.9841 0.0000 12.5274
#
#
#
# Elastic Compliance Matrix: (Units=1/GPa)
#
#
# Indices 1 2 3 4 5 6 
#
# 1 0.028891 0.014994 0.000317 -0.000001 -0.009997 0.000000
# 2 0.014994 0.029384 -0.003269 -0.000001 -0.000255 0.000000
# 3 0.000317 -0.003269 0.016524 -0.000001 -0.009527 0.000000
# 4 -0.000001 -0.000001 -0.000001 0.049785 0.000000 -0.011859
# 5 -0.009997 -0.000255 -0.009527 0.000000 0.039821 0.000000
# 6 0.000000 0.000000 0.000000 -0.011859 0.000000 0.082650
#
#
# Mechanical properties :
#
#
# Convention : Reuss Voigt Hill
#
# Bulk Modulus (GPa) = 10.11309 15.32877 12.72093
# Shear Modulus (GPa) = 19.53648 26.00111 22.76879
#
# Velocity S-wave (km/s) = 2.95289 3.40659 3.18782
# Velocity P-wave (km/s) = 4.01743 4.72384 4.38488
#
# Compressibility (1/GPa) = 0.09888175
#
# Stress axis : x y z
#
# Youngs Moduli (GPa) = 34.61287 34.03261 60.51851
#
# Poissons Ratio (x) = -0.51027 -0.01921
# Poissons Ratio (y) = -0.51897 0.19785
# Poissons Ratio (z) = -0.01098 0.11126
#
# Static dielectric constant tensor:
#      x y z
#    x 1.855420 0.000000 0.022780 
#    y 0.000000 1.955180 0.000000 
#    z 0.022780 0.000000 1.914440 
# 
# From -- ./inp_files/205774.got.cif
#   From: 2010.05.17/outbox.cif.g08.bks.cpg/sg15_103_cif.got.tgz:205774.got - 2010.06.03 18:47:42.
