data_PCOD9266807
_publ_section_title
;
Structure prediction by ZEFSAII (Michael W. Deem and Ramdas Pophale) SiO2 
 PCOD9266807
Probable space group: C 2/C
;
_chemical_formula_sum "Si O2"
_cell_formula_units_Z 44
_cell_length_a 9.805016
_cell_length_b 12.074211
_cell_length_c 24.091402
_cell_angle_alpha 90.000000
_cell_angle_beta 46.714119
_cell_angle_gamma 90.000000
_cell_volume 2076.183632
_symmetry_space_group_name_H-M "C 2/C"
_symmetry_group_IT_number 15
_symmetry_cell_setting 'monoclinic'
loop_
_space_group_symop_operation_xyz
x,y,z
-x,y,1/2-z
-x,-y,-z
x,-y,1/2+z
1/2+x,1/2+y,z
1/2-x,1/2+y,1/2-z
1/2-x,1/2-y,-z
1/2+x,1/2-y,1/2+z
loop_
_atom_site_type_symbol
_atom_site_label
_atom_site_fract_x
_atom_site_fract_y
_atom_site_fract_z
Si Si1 0.220964 0.511314 0.864842
Si Si2 0.500000 0.299602 0.250000
Si Si3 0.648407 0.904789 0.774478
Si Si4 0.830849 0.400334 0.513744
Si Si5 0.260817 0.519156 0.127826
Si Si6 0.057537 0.163678 0.989637
O O1 0.333959 0.621326 0.817356
O O2 0.238316 0.425636 0.809010
O O3 0.280579 0.465103 0.907771
O O4 0.001580 0.535061 0.937637
O O5 0.420231 0.217519 0.224498
O O6 0.459334 0.979242 0.824550
O O7 0.774505 0.946247 0.688088
O O8 0.926505 0.294910 0.517573
O O9 0.690704 0.366795 0.504446
O O10 0.358365 0.612452 0.062033
O O11 0.360350 0.404309 0.084966
#
# Coordination Sequence:
#
# PCOD9266807 Si02
#       6
#     8   4   8   8   8   8
#     4  11  23  42  58  90 123 160 200 253 305 366
#     4  10  24  42  64  90 124 164 204 256 310 362
#     4  10  21  41  62  87 122 161 198 256 306 359
#     4  10  22  38  58  86 126 155 197 256 301 356
#     4   9  19  36  63  87 115 158 206 246 301 364
#     4  10  19  38  61  88 117 159 202 248 301 367
#
# _framework density 21.192730000000001
#
# number of rings (size 3 to 8) (size 9 to 14) (size 15 to 20)
#    0.000    2.182    1.818    2.182    2.545    1.455 
#    3.273    4.545    0.000    0.000    0.000    0.000 
#    0.000    0.000    0.000    0.000    0.000    0.000 
#
# Total GULP energy -122794.416088 kJ/mol
# GULP energy per Si atom -5581.564368 kJ/mol
# Density = 2.114449 g / cm^3
# Si number density = 21.192730 Si / 1000 Ang^3
#
#
#
# Elastic Constant Matrix: (Units=GPa)
#
#
# Indices 1 2 3 4 5 6 
#
# 1 41.5664 11.1988 25.4466 0.0000 7.0306 0.0000
# 2 11.1988 82.2093 36.0169 0.0000 16.6454 0.0000
# 3 25.4466 36.0169 121.3730 0.0000 10.9842 0.0000
# 4 0.0000 0.0000 0.0000 25.9155 0.0000 2.4550
# 5 7.0306 16.6454 10.9842 0.0000 27.4367 0.0000
# 6 0.0000 0.0000 0.0000 2.4550 0.0000 25.8403
#
#
#
# Elastic Compliance Matrix: (Units=1/GPa)
#
#
# Indices 1 2 3 4 5 6 
#
# 1 0.028279 -0.000548 -0.005334 0.000000 -0.004779 0.000000
# 2 -0.000548 0.015456 -0.003772 0.000000 -0.007726 0.000000
# 3 -0.005334 -0.003772 0.010527 0.000000 -0.000559 0.000000
# 4 0.000000 0.000000 0.000000 0.038937 0.000000 -0.003699
# 5 -0.004779 -0.007726 -0.000559 0.000000 0.042583 0.000000
# 6 0.000000 0.000000 0.000000 -0.003699 0.000000 0.039051
#
#
# Mechanical properties :
#
#
# Convention : Reuss Voigt Hill
#
# Bulk Modulus (GPa) = 28.60892 43.38592 35.99742
# Shear Modulus (GPa) = 24.29624 27.33759 25.81691
#
# Velocity S-wave (km/s) = 3.38959 3.59549 3.49405
# Velocity P-wave (km/s) = 5.37101 6.14436 5.77066
#
# Compressibility (1/GPa) = 0.03495414
#
# Stress axis : x y z
#
# Youngs Moduli (GPa) = 35.36176 64.70069 94.99046
#
# Poissons Ratio (x) = 0.03545 0.50666
# Poissons Ratio (y) = 0.01937 0.35834
# Poissons Ratio (z) = 0.18861 0.24407
#
# Static dielectric constant tensor:
#      x y z
#    x 1.788350 0.000000 0.008730 
#    y 0.000000 1.789360 0.000000 
#    z 0.008730 0.000000 1.752330 
# 
# From -- ./inp_files/195957.got.cif
#   From: 2010.05.17/outbox.cif.g08.bks.cpg/sg15_98_cif.got.tgz:195957.got - 2010.06.03 18:47:42.
