data_PCOD9266744
_publ_section_title
;
Structure prediction by ZEFSAII (Michael W. Deem and Ramdas Pophale) SiO2 
 PCOD9266744
Probable space group: C 2/C
;
_chemical_formula_sum "Si O2"
_cell_formula_units_Z 60
_cell_length_a 23.248463
_cell_length_b 9.031529
_cell_length_c 28.267878
_cell_angle_alpha 90.000000
_cell_angle_beta 152.370815
_cell_angle_gamma 90.000000
_cell_volume 2752.518257
_symmetry_space_group_name_H-M "C 2/C"
_symmetry_group_IT_number 15
_symmetry_cell_setting 'monoclinic'
loop_
_space_group_symop_operation_xyz
x,y,z
-x,y,1/2-z
-x,-y,-z
x,-y,1/2+z
1/2+x,1/2+y,z
1/2-x,1/2+y,1/2-z
1/2-x,1/2-y,-z
1/2+x,1/2-y,1/2+z
loop_
_atom_site_type_symbol
_atom_site_label
_atom_site_fract_x
_atom_site_fract_y
_atom_site_fract_z
Si Si1 0.877547 0.004930 0.978607
Si Si2 0.225869 0.451797 0.197580
Si Si3 0.863847 0.143103 0.368013
Si Si4 0.663928 0.957263 0.047467
Si Si5 0.500000 0.421458 0.750000
Si Si6 0.254643 0.766994 0.946672
Si Si7 0.525058 0.257293 0.126130
Si Si8 0.424002 0.296328 0.236261
O O1 0.794072 0.124623 0.944636
O O2 0.835918 0.917326 0.900576
O O3 0.003665 0.083863 0.052532
O O4 0.917488 0.880458 0.044903
O O5 0.128089 0.319775 0.131420
O O6 0.253326 0.578637 0.254897
O O7 0.199176 0.512756 0.125763
O O8 0.352290 0.353782 0.294355
O O9 0.781723 0.845457 0.123049
O O10 0.663256 0.092404 0.010412
O O11 0.533534 0.870379 0.949121
O O12 0.618261 0.320648 0.833672
O O13 0.508160 0.540735 0.712981
O O14 0.250000 0.750000 0.000000
O O15 0.552184 0.207475 0.198993
O O16 0.500000 0.219036 0.250000
#
# Coordination Sequence:
#
# PCOD9266744 Si02
#       8
#     8   8   8   8   4   8   8   8
#     4  10  22  40  66  87 126 165 207 261 317 376
#     4  10  22  40  63  92 125 162 207 259 320 378
#     4  10  22  42  63  94 123 165 210 260 323 378
#     4  10  21  38  61  87 124 160 208 254 311 375
#     4   8  18  40  56  80 122 154 208 248 302 376
#     4  11  23  42  62  92 124 169 208 256 318 380
#     4  10  19  38  60  86 121 158 202 259 304 372
#     4   8  17  34  56  82 113 163 198 244 306 365
#
# _framework density 21.798221000000002
#
# number of rings (size 3 to 8) (size 9 to 14) (size 15 to 20)
#    0.400    1.867    1.333    0.800    1.867    2.667 
#    2.400    1.333    0.000    0.000    0.000    0.000 
#    0.000    0.000    0.000    0.000    0.000    0.000 
#
# Total GULP energy -167019.316625 kJ/mol
# GULP energy per Si atom -5567.310554 kJ/mol
# Density = 2.174861 g / cm^3
# Si number density = 21.798221 Si / 1000 Ang^3
#
#
#
# Elastic Constant Matrix: (Units=GPa)
#
#
# Indices 1 2 3 4 5 6 
#
# 1 60.2371 20.5284 26.5684 0.0001 -18.5286 0.0000
# 2 20.5284 65.4657 19.4232 0.0001 -12.8542 0.0000
# 3 26.5684 19.4232 60.4729 0.0004 -12.3325 0.0001
# 4 0.0001 0.0001 0.0004 36.1219 0.0001 5.0663
# 5 -18.5286 -12.8542 -12.3325 0.0001 32.2532 0.0000
# 6 0.0000 0.0000 0.0001 5.0663 0.0000 39.1327
#
#
#
# Elastic Compliance Matrix: (Units=1/GPa)
#
#
# Indices 1 2 3 4 5 6 
#
# 1 0.024020 -0.003429 -0.007501 0.000000 0.009564 0.000000
# 2 -0.003429 0.018167 -0.003529 0.000000 0.003921 0.000000
# 3 -0.007501 -0.003529 0.021474 0.000000 0.002495 0.000000
# 4 0.000000 0.000000 0.000000 0.028196 0.000000 -0.003650
# 5 0.009564 0.003921 0.002495 0.000000 0.039016 0.000000
# 6 0.000000 0.000000 0.000000 -0.003650 0.000000 0.026027
#
#
# Mechanical properties :
#
#
# Convention : Reuss Voigt Hill
#
# Bulk Modulus (GPa) = 28.78225 35.46840 32.12533
# Shear Modulus (GPa) = 25.32935 29.47860 27.40398
#
# Velocity S-wave (km/s) = 3.41250 3.68141 3.54950
# Velocity P-wave (km/s) = 5.36279 5.86318 5.61856
#
# Compressibility (1/GPa) = 0.03474363
#
# Stress axis : x y z
#
# Youngs Moduli (GPa) = 41.63206 55.04393 46.56712
#
# Poissons Ratio (x) = 0.18872 0.34932
# Poissons Ratio (y) = 0.14274 0.16434
# Poissons Ratio (z) = 0.31230 0.19426
#
# Static dielectric constant tensor:
#      x y z
#    x 1.886050 0.000000 0.001880 
#    y 0.000000 1.861660 0.000000 
#    z 0.001880 0.000000 1.817800 
# 
# From -- ./inp_files/319442.got.cif
#   From: 2010.05.17/outbox.cif.g08.bks.cpg/sg15_160_cif.got.tgz:319442.got - 2010.06.03 18:47:42.
