data_PCOD9266337
_publ_section_title
;
Structure prediction by ZEFSAII (Michael W. Deem and Ramdas Pophale) SiO2 
 PCOD9266337
Probable space group: C 2/C
;
_chemical_formula_sum "Si O2"
_cell_formula_units_Z 60
_cell_length_a 11.672605
_cell_length_b 28.661069
_cell_length_c 8.856608
_cell_angle_alpha 90.000000
_cell_angle_beta 76.228162
_cell_angle_gamma 90.000000
_cell_volume 2877.791050
_symmetry_space_group_name_H-M "C 2/C"
_symmetry_group_IT_number 15
_symmetry_cell_setting 'monoclinic'
loop_
_space_group_symop_operation_xyz
x,y,z
-x,y,1/2-z
-x,-y,-z
x,-y,1/2+z
1/2+x,1/2+y,z
1/2-x,1/2+y,1/2-z
1/2-x,1/2-y,-z
1/2+x,1/2-y,1/2+z
loop_
_atom_site_type_symbol
_atom_site_label
_atom_site_fract_x
_atom_site_fract_y
_atom_site_fract_z
Si Si1 0.806841 0.337585 0.904327
Si Si2 0.350596 0.908416 0.619465
Si Si3 0.637866 0.448336 0.246760
Si Si4 0.860493 0.154192 0.772704
Si Si5 0.028419 0.324655 0.065685
Si Si6 0.000000 0.477172 0.750000
Si Si7 0.120414 0.253376 0.812022
Si Si8 0.759023 0.490550 0.473456
O O1 0.819862 0.379846 0.781513
O O2 0.802828 0.290135 0.807740
O O3 0.694788 0.342196 0.044422
O O4 0.917271 0.334163 0.986687
O O5 0.389043 0.869331 0.488953
O O6 0.456638 0.943123 0.630943
O O7 0.258498 0.944802 0.579838
O O8 0.500000 0.449377 0.250000
O O9 0.674562 0.395852 0.281104
O O10 0.663628 0.482877 0.374680
O O11 0.721620 0.465188 0.083958
O O12 0.828250 0.201478 0.694665
O O13 0.000000 0.152838 0.750000
O O14 0.000000 0.320218 0.250000
O O15 0.088486 0.278257 0.978435
O O16 0.113707 0.504450 0.649820
O O17 0.000000 0.250190 0.750000
#
# Coordination Sequence:
#
# PCOD9266337 Si02
#       8
#     8   8   8   8   8   4   8   8
#     4  10  19  37  63  88 125 167 200 249 316 385
#     4  11  22  38  62  96 131 164 207 254 321 394
#     4  11  26  45  65  87 124 176 222 265 310 375
#     4  10  21  37  65  86 115 156 220 260 305 363
#     4  10  21  34  62  93 133 165 194 249 317 393
#     4  12  22  40  62 100 132 164 202 272 328 382
#     4   8  17  37  60  91 119 157 207 251 310 381
#     4  12  26  41  66  94 129 167 216 270 326 379
#
# _framework density 20.849325
#
# number of rings (size 3 to 8) (size 9 to 14) (size 15 to 20)
#    0.000    1.600    2.667    2.800    2.800    0.000 
#    0.000    0.667    8.800    0.000    0.000    0.000 
#    0.000    0.000    0.000    0.000    0.000    0.000 
#
# Total GULP energy -167477.519464 kJ/mol
# GULP energy per Si atom -5582.583982 kJ/mol
# Density = 2.080187 g / cm^3
# Si number density = 20.849325 Si / 1000 Ang^3
#
#
#
# Elastic Constant Matrix: (Units=GPa)
#
#
# Indices 1 2 3 4 5 6 
#
# 1 58.1112 23.2313 28.7378 0.0000 -10.1532 0.0000
# 2 23.2313 131.6374 50.1810 0.0000 -2.2382 0.0000
# 3 28.7378 50.1810 109.2538 0.0000 -6.3964 0.0000
# 4 0.0000 0.0000 0.0000 7.3749 0.0000 -5.0865
# 5 -10.1532 -2.2382 -6.3964 0.0000 31.3350 0.0000
# 6 0.0000 0.0000 0.0000 -5.0865 0.0000 16.2532
#
#
#
# Elastic Compliance Matrix: (Units=1/GPa)
#
#
# Indices 1 2 3 4 5 6 
#
# 1 0.021154 -0.001992 -0.004308 0.000000 0.005833 0.000000
# 2 -0.001992 0.009398 -0.003837 0.000000 -0.000757 0.000000
# 3 -0.004308 -0.003837 0.012095 0.000000 0.000799 0.000000
# 4 0.000000 0.000000 0.000000 0.172918 0.000000 0.054115
# 5 0.005833 -0.000757 0.000799 0.000000 0.033912 0.000000
# 6 0.000000 0.000000 0.000000 0.054115 0.000000 0.078462
#
#
# Mechanical properties :
#
#
# Convention : Reuss Voigt Hill
#
# Bulk Modulus (GPa) = 44.69503 55.92248 50.30876
# Shear Modulus (GPa) = 14.05794 24.11612 19.08703
#
# Velocity S-wave (km/s) = 2.59948 3.40470 3.02896
# Velocity P-wave (km/s) = 5.52208 6.50664 6.03448
#
# Compressibility (1/GPa) = 0.02237385
#
# Stress axis : x y z
#
# Youngs Moduli (GPa) = 47.27190 106.40632 82.67701
#
# Poissons Ratio (x) = 0.21195 0.35617
# Poissons Ratio (y) = 0.09416 0.31723
# Poissons Ratio (z) = 0.20365 0.40827
#
# Static dielectric constant tensor:
#      x y z
#    x 1.875030 0.000000 0.029770 
#    y 0.000000 1.779240 0.000000 
#    z 0.029770 0.000000 1.734910 
# 
# From -- ./inp_files/35211.got.cif
#   From: 2010.05.17/outbox.cif.g08.bks.cpg/sg15_18_cif.got.tgz:35211.got - 2010.06.03 18:47:42.
