data_PCOD9266438
_publ_section_title
;
Structure prediction by ZEFSAII (Michael W. Deem and Ramdas Pophale) SiO2 
 PCOD9266438
Probable space group: C 2/C
;
_chemical_formula_sum "Si O2"
_cell_formula_units_Z 48
_cell_length_a 10.622591
_cell_length_b 17.694851
_cell_length_c 12.817321
_cell_angle_alpha 90.000000
_cell_angle_beta 117.818831
_cell_angle_gamma 90.000000
_cell_volume 2130.771796
_symmetry_space_group_name_H-M "C 2/C"
_symmetry_group_IT_number 15
_symmetry_cell_setting 'monoclinic'
loop_
_space_group_symop_operation_xyz
x,y,z
-x,y,1/2-z
-x,-y,-z
x,-y,1/2+z
1/2+x,1/2+y,z
1/2-x,1/2+y,1/2-z
1/2-x,1/2-y,-z
1/2+x,1/2-y,1/2+z
loop_
_atom_site_type_symbol
_atom_site_label
_atom_site_fract_x
_atom_site_fract_y
_atom_site_fract_z
Si Si1 0.332659 0.139965 0.293965
Si Si2 0.385826 0.840780 0.372996
Si Si3 0.865867 0.184725 0.874231
Si Si4 0.904672 0.454798 0.548661
Si Si5 0.209393 0.606894 0.990900
Si Si6 0.336369 0.691601 0.460982
O O1 0.665395 0.111627 0.545888
O O2 0.369888 0.227392 0.338077
O O3 0.258088 0.111633 0.372289
O O4 0.253408 0.139342 0.152168
O O5 0.260931 0.851396 0.242341
O O6 0.545628 0.866313 0.407827
O O7 0.401584 0.752701 0.404199
O O8 0.813324 0.162256 0.969283
O O9 0.028278 0.157077 0.927784
O O10 0.027346 0.411350 0.657932
O O11 0.000000 0.500000 0.500000
O O12 0.798386 0.519022 0.548326
O O13 0.250000 0.750000 0.500000
#
# Coordination Sequence:
#
# PCOD9266438 Si02
#       6
#     8   8   8   8   8   8
#     4   9  19  35  59  91 124 165 209 268 327 387
#     4   9  19  36  57  89 125 161 202 269 328 386
#     4  11  20  35  61  95 127 159 210 277 333 377
#     4   8  16  37  60  85 123 166 206 252 318 408
#     4  10  19  37  64  95 125 162 216 267 337 400
#     4  11  23  37  56  86 129 166 215 265 321 382
#
# _framework density 22.527049999999999
#
# number of rings (size 3 to 8) (size 9 to 14) (size 15 to 20)
#    0.000    2.667    3.333    1.000    0.000    3.333 
#    0.000   10.000    0.000   22.000    0.000    0.000 
#    0.000    0.000    0.000    0.000    0.000    0.000 
#
# Total GULP energy -133644.551770 kJ/mol
# GULP energy per Si atom -5568.522990 kJ/mol
# Density = 2.247578 g / cm^3
# Si number density = 22.527050 Si / 1000 Ang^3
#
#
#
# Elastic Constant Matrix: (Units=GPa)
#
#
# Indices 1 2 3 4 5 6 
#
# 1 86.1047 13.7817 35.5056 0.0000 15.6253 0.0000
# 2 13.7817 88.3478 15.9989 0.0000 5.8095 0.0000
# 3 35.5056 15.9989 120.4068 0.0000 8.0252 0.0000
# 4 0.0000 0.0000 0.0000 5.1546 0.0000 20.6740
# 5 15.6253 5.8095 8.0252 0.0000 31.0498 0.0000
# 6 0.0000 0.0000 0.0000 20.6740 0.0000 6.1793
#
#
#
# Elastic Compliance Matrix: (Units=1/GPa)
#
#
# Indices 1 2 3 4 5 6 
#
# 1 0.014430 -0.001182 -0.003692 0.000000 -0.006086 0.000000
# 2 -0.001182 0.011795 -0.001131 0.000000 -0.001320 0.000000
# 3 -0.003692 -0.001131 0.009571 0.000000 -0.000404 0.000000
# 4 0.000000 0.000000 0.000000 -0.015622 0.000000 0.052265
# 5 -0.006086 -0.001320 -0.000404 0.000000 0.035620 0.000000
# 6 0.000000 0.000000 0.000000 0.052265 0.000000 -0.013031
#
#
# Mechanical properties :
#
#
# Convention : Reuss Voigt Hill
#
# Bulk Modulus (GPa) = 42.04225 47.27018 44.65622
# Shear Modulus (GPa) = 79.74142 23.78163 51.76152
#
# Velocity S-wave (km/s) = 5.95608 3.25267 4.79869
# Velocity P-wave (km/s) = 8.12425 5.92754 7.11123
#
# Compressibility (1/GPa) = 0.02378560
#
# Stress axis : x y z
#
# Youngs Moduli (GPa) = 69.30007 84.78282 104.48055
#
# Poissons Ratio (x) = 0.10022 0.38578
# Poissons Ratio (y) = 0.08192 0.11813
# Poissons Ratio (z) = 0.25588 0.09586
#
# Static dielectric constant tensor:
#      x y z
#    x 2.199050 0.000000 0.572260 
#    y 0.000000 1.985100 0.000000 
#    z 0.572260 0.000000 3.183090 
# 
# From -- ./inp_files/90973.got.cif
#   From: 2010.05.17/outbox.cif.g08.bks.cpg/sg15_46_cif.got.tgz:90973.got - 2010.06.03 18:47:42.
