data_PCOD9266986
_publ_section_title
;
Structure prediction by ZEFSAII (Michael W. Deem and Ramdas Pophale) SiO2 
 PCOD9266986
Probable space group: C 2/C
;
_chemical_formula_sum "Si O2"
_cell_formula_units_Z 44
_cell_length_a 11.737525
_cell_length_b 7.554607
_cell_length_c 20.848236
_cell_angle_alpha 90.000000
_cell_angle_beta 122.844220
_cell_angle_gamma 90.000000
_cell_volume 1553.150925
_symmetry_space_group_name_H-M "C 2/C"
_symmetry_group_IT_number 15
_symmetry_cell_setting 'monoclinic'
loop_
_space_group_symop_operation_xyz
x,y,z
-x,y,1/2-z
-x,-y,-z
x,-y,1/2+z
1/2+x,1/2+y,z
1/2-x,1/2+y,1/2-z
1/2-x,1/2-y,-z
1/2+x,1/2-y,1/2+z
loop_
_atom_site_type_symbol
_atom_site_label
_atom_site_fract_x
_atom_site_fract_y
_atom_site_fract_z
Si Si1 0.500000 0.167278 0.250000
Si Si2 0.177584 0.543023 0.622282
Si Si3 0.554748 0.323287 0.833638
Si Si4 0.410618 0.028169 0.084100
Si Si5 0.232491 0.030049 0.212261
Si Si6 0.849860 0.933313 0.943652
O O1 0.441366 0.132737 0.159028
O O2 0.346011 0.178975 0.230957
O O3 0.314013 0.443233 0.640821
O O4 0.193178 0.556604 0.704657
O O5 0.153315 0.731363 0.581853
O O6 0.034801 0.435402 0.574474
O O7 0.500000 0.231529 0.750000
O O8 0.581401 0.179893 0.895750
O O9 0.421098 0.432558 0.812595
O O10 0.250027 0.055643 0.025731
O O11 0.211136 0.948881 0.134762
O O12 0.000000 0.000000 0.000000
#
# Coordination Sequence:
#
# PCOD9266986 Si02
#       6
#     4   8   8   8   8   8
#     4   8  16  32  56  90 118 162 212 258 316 374
#     4  10  22  41  64  98 129 169 226 270 325 386
#     4  10  19  38  63  96 130 166 214 278 322 380
#     4  10  19  39  63  88 131 171 215 266 329 385
#     4   9  19  38  62  91 129 167 213 268 319 383
#     4  11  24  43  67  98 136 175 216 273 336 392
#
# _framework density 28.329507
#
# number of rings (size 3 to 8) (size 9 to 14) (size 15 to 20)
#    0.000    2.182    2.727    0.000    0.000    0.727 
#   36.000    1.818    0.000    0.000    0.000    0.000 
#    0.000    0.000    0.000    0.000    0.000    0.000 
#
# Total GULP energy -122487.671883 kJ/mol
# GULP energy per Si atom -5567.621449 kJ/mol
# Density = 2.826503 g / cm^3
# Si number density = 28.329507 Si / 1000 Ang^3
#
#
#
# Elastic Constant Matrix: (Units=GPa)
#
#
# Indices 1 2 3 4 5 6 
#
# 1 239.5066 38.8767 49.8501 0.0000 77.2554 0.0000
# 2 38.8767 82.5376 32.2901 0.0000 16.3905 0.0000
# 3 49.8501 32.2901 132.5886 0.0000 13.4063 0.0000
# 4 0.0000 0.0000 0.0000 29.2306 0.0000 11.8595
# 5 77.2554 16.3905 13.4063 0.0000 64.6822 0.0000
# 6 0.0000 0.0000 0.0000 11.8595 0.0000 27.4816
#
#
#
# Elastic Compliance Matrix: (Units=1/GPa)
#
#
# Indices 1 2 3 4 5 6 
#
# 1 0.007327 -0.001198 -0.001643 0.000000 -0.008107 0.000000
# 2 -0.001198 0.014094 -0.002825 0.000000 -0.001555 0.000000
# 3 -0.001643 -0.002825 0.008761 0.000000 0.000863 0.000000
# 4 0.000000 0.000000 0.000000 0.041472 0.000000 -0.017897
# 5 -0.008107 -0.001555 0.000863 0.000000 0.025358 0.000000
# 6 0.000000 0.000000 0.000000 -0.017897 0.000000 0.044111
#
#
# Mechanical properties :
#
#
# Convention : Reuss Voigt Hill
#
# Bulk Modulus (GPa) = 53.05333 77.40739 65.23036
# Shear Modulus (GPa) = 31.49860 46.51995 39.00927
#
# Velocity S-wave (km/s) = 3.33808 4.05668 3.71480
# Velocity P-wave (km/s) = 5.79870 7.02321 6.44013
#
# Compressibility (1/GPa) = 0.01884896
#
# Stress axis : x y z
#
# Youngs Moduli (GPa) = 136.48866 70.95262 114.14763
#
# Poissons Ratio (x) = 0.08502 0.18756
# Poissons Ratio (y) = 0.16356 0.32242
# Poissons Ratio (z) = 0.22427 0.20042
#
# Static dielectric constant tensor:
#      x y z
#    x 2.206230 0.000000 -0.010460 
#    y 0.000000 2.366710 0.000000 
#    z -0.010460 0.000000 2.283980 
# 
# From -- ./inp_files/236690.got.cif
#   From: 2010.05.17/outbox.cif.g08.bks.cpg/sg15_119_cif.got.tgz:236690.got - 2010.06.03 18:47:42.
