data_PCOD9266763
_publ_section_title
;
Structure prediction by ZEFSAII (Michael W. Deem and Ramdas Pophale) SiO2 
 PCOD9266763
Probable space group: C 2/C
;
_chemical_formula_sum "Si O2"
_cell_formula_units_Z 56
_cell_length_a 16.577328
_cell_length_b 8.673138
_cell_length_c 24.975742
_cell_angle_alpha 90.000000
_cell_angle_beta 45.033000
_cell_angle_gamma 90.000000
_cell_volume 2540.646137
_symmetry_space_group_name_H-M "C 2/C"
_symmetry_group_IT_number 15
_symmetry_cell_setting 'monoclinic'
loop_
_space_group_symop_operation_xyz
x,y,z
-x,y,1/2-z
-x,-y,-z
x,-y,1/2+z
1/2+x,1/2+y,z
1/2-x,1/2+y,1/2-z
1/2-x,1/2-y,-z
1/2+x,1/2-y,1/2+z
loop_
_atom_site_type_symbol
_atom_site_label
_atom_site_fract_x
_atom_site_fract_y
_atom_site_fract_z
Si Si1 0.150325 0.341025 0.078159
Si Si2 0.526833 0.314504 0.908382
Si Si3 0.432012 0.441728 0.197479
Si Si4 0.019200 0.630900 0.131236
Si Si5 0.043911 0.664389 0.457335
Si Si6 0.179951 0.615633 0.778505
Si Si7 0.180692 0.822399 0.675704
O O1 0.141711 0.252158 0.138313
O O2 0.049159 0.315474 0.084132
O O3 0.128283 0.524971 0.096467
O O4 0.250000 0.250000 0.000000
O O5 0.506303 0.455418 0.877572
O O6 0.649199 0.237211 0.840402
O O7 0.489608 0.304724 0.987011
O O8 0.500255 0.285001 0.174382
O O9 0.311786 0.415420 0.223903
O O10 0.390879 0.531059 0.270079
O O11 0.019035 0.685652 0.069533
O O12 0.899669 0.534407 0.187629
O O13 0.181991 0.652891 0.389804
O O14 0.000000 0.500000 0.500000
O O15 0.158621 0.702264 0.733284
#
# Coordination Sequence:
#
# PCOD9266763 Si02
#       7
#     8   8   8   8   8   8   8
#     4  11  22  42  63  92 128 179 222 264 334 429
#     4  10  22  35  63  92 131 170 223 263 338 396
#     4  11  21  39  61  97 128 167 220 293 326 386
#     4  11  22  37  66  97 132 168 231 277 328 391
#     4  12  18  36  64  98 124 177 226 272 325 397
#     4  10  19  38  60  92 125 169 219 269 327 394
#     4  11  22  38  67  88 132 172 218 265 349 393
#
# _framework density 22.041637000000001
#
# number of rings (size 3 to 8) (size 9 to 14) (size 15 to 20)
#    0.000    1.143    7.143    0.857    0.000    5.714 
#    0.000    3.571    0.000    0.000    0.000    0.000 
#    0.000    0.000    0.000    0.000    0.000    0.000 
#
# Total GULP energy -155973.260354 kJ/mol
# GULP energy per Si atom -5570.473584 kJ/mol
# Density = 2.199147 g / cm^3
# Si number density = 22.041637 Si / 1000 Ang^3
#
#
#
# Elastic Constant Matrix: (Units=GPa)
#
#
# Indices 1 2 3 4 5 6 
#
# 1 53.2864 15.9428 27.6257 0.0000 17.6072 0.0001
# 2 15.9428 116.3318 66.6028 0.0001 4.7084 0.0003
# 3 27.6257 66.6028 124.8711 0.0000 16.6752 0.0000
# 4 0.0000 0.0001 0.0000 31.0922 0.0000 -2.8166
# 5 17.6072 4.7084 16.6752 0.0000 29.9300 0.0000
# 6 0.0001 0.0003 0.0000 -2.8166 0.0000 25.1588
#
#
#
# Elastic Compliance Matrix: (Units=1/GPa)
#
#
# Indices 1 2 3 4 5 6 
#
# 1 0.024972 -0.001031 -0.003278 0.000000 -0.012702 0.000000
# 2 -0.001031 0.012515 -0.006769 0.000000 0.002409 0.000000
# 3 -0.003278 -0.006769 0.012904 0.000000 -0.004196 0.000000
# 4 0.000000 0.000000 0.000000 0.032492 0.000000 0.003638
# 5 -0.012702 0.002409 -0.004196 0.000000 0.042842 0.000000
# 6 0.000000 0.000000 0.000000 0.003638 0.000000 0.040155
#
#
# Mechanical properties :
#
#
# Convention : Reuss Voigt Hill
#
# Bulk Modulus (GPa) = 35.41810 57.20355 46.31083
# Shear Modulus (GPa) = 25.32311 29.52408 27.42359
#
# Velocity S-wave (km/s) = 3.39318 3.66385 3.53111
# Velocity P-wave (km/s) = 5.60849 6.62625 6.13850
#
# Compressibility (1/GPa) = 0.02823415
#
# Stress axis : x y z
#
# Youngs Moduli (GPa) = 40.04546 79.90250 77.49419
#
# Poissons Ratio (x) = 0.08240 0.25405
# Poissons Ratio (y) = 0.04130 0.52455
# Poissons Ratio (z) = 0.13128 0.54085
#
# Static dielectric constant tensor:
#      x y z
#    x 1.862380 0.000000 -0.353150 
#    y 0.000000 2.063600 0.000000 
#    z -0.353150 0.000000 3.476400 
# 
# From -- ./inp_files/276510.got.cif
#   From: 2010.05.17/outbox.cif.g08.bks.cpg/sg15_139_cif.got.tgz:276510.got - 2010.06.03 18:47:42.
