data_PCOD9266091
_publ_section_title
;
Structure prediction by ZEFSAII (Michael W. Deem and Ramdas Pophale) SiO2 
 PCOD9266091
Probable space group: C 2/C
;
_chemical_formula_sum "Si O2"
_cell_formula_units_Z 48
_cell_length_a 17.446559
_cell_length_b 8.129764
_cell_length_c 12.564529
_cell_angle_alpha 90.000000
_cell_angle_beta 78.316200
_cell_angle_gamma 90.000000
_cell_volume 1745.182575
_symmetry_space_group_name_H-M "C 2/C"
_symmetry_group_IT_number 15
_symmetry_cell_setting 'monoclinic'
loop_
_space_group_symop_operation_xyz
x,y,z
-x,y,1/2-z
-x,-y,-z
x,-y,1/2+z
1/2+x,1/2+y,z
1/2-x,1/2+y,1/2-z
1/2-x,1/2-y,-z
1/2+x,1/2-y,1/2+z
loop_
_atom_site_type_symbol
_atom_site_label
_atom_site_fract_x
_atom_site_fract_y
_atom_site_fract_z
Si Si1 0.829716 0.049146 0.920079
Si Si2 0.196118 0.367660 0.864540
Si Si3 0.314133 0.901362 0.312062
Si Si4 0.923379 0.822697 0.201371
Si Si5 0.398800 0.679586 0.108046
Si Si6 0.551974 0.765356 0.126212
O O1 0.856126 0.147318 0.808368
O O2 0.740468 0.991614 0.930319
O O3 0.889455 0.890675 0.903698
O O4 0.847462 0.151409 0.019158
O O5 0.240252 0.197522 0.875268
O O6 0.215229 0.443003 0.743159
O O7 0.106358 0.317726 0.871617
O O8 0.352072 0.783948 0.209069
O O9 0.386524 0.913253 0.373377
O O10 0.000000 0.788220 0.250000
O O11 0.926101 0.998277 0.141092
O O12 0.481552 0.769002 0.062544
O O13 0.500000 0.750151 0.250000
#
# Coordination Sequence:
#
# PCOD9266091 Si02
#       6
#     8   8   8   8   8   8
#     4  11  20  36  63  89 114 163 199 249 291 358
#     4  11  22  39  62  85 121 158 203 245 302 351
#     4  10  19  37  60  84 115 160 201 243 298 358
#     4  12  22  40  61  92 122 159 201 248 297 355
#     4  11  20  35  65  87 120 154 206 244 296 359
#     4   9  16  33  58  87 112 153 198 239 295 348
#
# _framework density 27.504287000000001
#
# number of rings (size 3 to 8) (size 9 to 14) (size 15 to 20)
#    0.000    1.333    8.333    0.500    0.000    3.333 
#    0.000    0.000    0.000    2.000    0.000    0.000 
#    0.000    0.000    0.000    0.000    0.000    0.000 
#
# Total GULP energy -134286.723391 kJ/mol
# GULP energy per Si atom -5595.280141 kJ/mol
# Density = 2.744169 g / cm^3
# Si number density = 27.504287 Si / 1000 Ang^3
#
#
#
# Elastic Constant Matrix: (Units=GPa)
#
#
# Indices 1 2 3 4 5 6 
#
# 1 205.1905 54.3383 68.8872 0.0000 34.8544 0.0000
# 2 54.3383 46.7827 20.0920 0.0000 16.9117 0.0000
# 3 68.8872 20.0920 92.3652 0.0000 12.0012 0.0000
# 4 0.0000 0.0000 0.0000 26.8978 0.0000 8.8832
# 5 34.8544 16.9117 12.0012 0.0000 62.3673 0.0000
# 6 0.0000 0.0000 0.0000 8.8832 0.0000 42.5901
#
#
#
# Elastic Compliance Matrix: (Units=1/GPa)
#
#
# Indices 1 2 3 4 5 6 
#
# 1 0.008738 -0.007443 -0.004641 0.000000 -0.001972 0.000000
# 2 -0.007443 0.031949 -0.000835 0.000000 -0.004343 0.000000
# 3 -0.004641 -0.000835 0.014465 0.000000 0.000037 0.000000
# 4 0.000000 0.000000 0.000000 0.039928 0.000000 -0.008328
# 5 -0.001972 -0.004343 0.000037 0.000000 0.018307 0.000000
# 6 0.000000 0.000000 0.000000 -0.008328 0.000000 0.025217
#
#
# Mechanical properties :
#
#
# Convention : Reuss Voigt Hill
#
# Bulk Modulus (GPa) = 34.11350 70.10815 52.11082
# Shear Modulus (GPa) = 28.70076 39.77242 34.23659
#
# Velocity S-wave (km/s) = 3.23383 3.80681 3.53196
# Velocity P-wave (km/s) = 5.13551 6.69833 5.96830
#
# Compressibility (1/GPa) = 0.02931391
#
# Stress axis : x y z
#
# Youngs Moduli (GPa) = 114.44718 31.30032 69.13219
#
# Poissons Ratio (x) = 0.23296 0.32088
# Poissons Ratio (y) = 0.85179 0.05769
# Poissons Ratio (z) = 0.53121 0.02612
#
# Static dielectric constant tensor:
#      x y z
#    x 2.156660 0.000000 -0.005020 
#    y 0.000000 2.149270 0.000000 
#    z -0.005020 0.000000 2.272520 
# 
# From -- ./inp_files/159738.got.cif
#   From: 2010.05.17/outbox.cif.g08.bks.cpg/sg15_80_cif.got.tgz:159738.got - 2010.06.03 18:47:42.
