data_PCOD9266284
_publ_section_title
;
Structure prediction by ZEFSAII (Michael W. Deem and Ramdas Pophale) SiO2 
 PCOD9266284
Probable space group: C 2/C
;
_chemical_formula_sum "Si O2"
_cell_formula_units_Z 56
_cell_length_a 8.604550
_cell_length_b 27.800696
_cell_length_c 14.310545
_cell_angle_alpha 90.000000
_cell_angle_beta 122.701429
_cell_angle_gamma 90.000000
_cell_volume 2880.664866
_symmetry_space_group_name_H-M "C 2/C"
_symmetry_group_IT_number 15
_symmetry_cell_setting 'monoclinic'
loop_
_space_group_symop_operation_xyz
x,y,z
-x,y,1/2-z
-x,-y,-z
x,-y,1/2+z
1/2+x,1/2+y,z
1/2-x,1/2+y,1/2-z
1/2-x,1/2-y,-z
1/2+x,1/2-y,1/2+z
loop_
_atom_site_type_symbol
_atom_site_label
_atom_site_fract_x
_atom_site_fract_y
_atom_site_fract_z
Si Si1 0.500000 0.230103 0.250000
Si Si2 0.500000 0.267248 0.750000
Si Si3 0.328823 0.463922 0.451369
Si Si4 0.369683 0.176510 0.392294
Si Si5 0.558176 0.008618 0.625877
Si Si6 0.827141 0.298878 0.354041
Si Si7 0.309535 0.895821 0.244593
Si Si8 0.296068 0.574533 0.152012
O O1 0.433805 0.197160 0.313627
O O2 0.661756 0.265696 0.337007
O O3 0.330491 0.299017 0.656002
O O4 0.576560 0.233214 0.693972
O O5 0.500000 0.500000 0.500000
O O6 0.327401 0.420973 0.374626
O O7 0.315219 0.441647 0.550444
O O8 0.131658 0.491703 0.376459
O O9 0.521492 0.189097 0.518990
O O10 0.338203 0.119647 0.382764
O O11 0.642211 0.061340 0.668142
O O12 0.500000 0.000000 0.500000
O O13 0.714535 0.968439 0.689232
O O14 0.754761 0.347750 0.280953
O O15 0.500000 0.885054 0.250000
O O16 0.500000 0.588086 0.250000
#
# Coordination Sequence:
#
# PCOD9266284 Si02
#       8
#     4   4   8   8   8   8   8   8
#     4  10  26  44  58  94 126 164 222 274 334 386
#     4  10  22  38  68  96 116 160 216 270 326 396
#     4  10  21  39  60  96 131 165 206 262 315 385
#     4  11  22  44  64  90 125 169 216 271 327 390
#     4   9  19  36  58  85 123 164 199 247 309 372
#     4  11  21  41  66  91 125 163 209 273 331 388
#     4  10  19  37  62  91 119 159 210 246 311 395
#     4  11  22  40  62  90 125 170 212 254 317 391
#
# _framework density 19.439955999999999
#
# number of rings (size 3 to 8) (size 9 to 14) (size 15 to 20)
#    0.000    1.714    1.429    4.286    0.000    0.000 
#   15.429    0.000    0.000    0.000    0.000    0.000 
#    0.000    0.000    0.000    0.000    0.000    0.000 
#
# Total GULP energy -156292.113654 kJ/mol
# GULP energy per Si atom -5581.861202 kJ/mol
# Density = 1.939571 g / cm^3
# Si number density = 19.439956 Si / 1000 Ang^3
#
#
#
# Elastic Constant Matrix: (Units=GPa)
#
#
# Indices 1 2 3 4 5 6 
#
# 1 68.3132 48.3987 22.5687 0.0000 8.8709 0.0000
# 2 48.3987 116.1575 25.1973 0.0000 -10.6407 0.0000
# 3 22.5687 25.1973 89.5888 0.0000 3.7223 0.0000
# 4 0.0000 0.0000 0.0000 33.0969 0.0000 4.4105
# 5 8.8709 -10.6407 3.7223 0.0000 23.3988 0.0000
# 6 0.0000 0.0000 0.0000 4.4105 0.0000 35.1099
#
#
#
# Elastic Compliance Matrix: (Units=1/GPa)
#
#
# Indices 1 2 3 4 5 6 
#
# 1 0.025394 -0.011330 -0.002614 0.000000 -0.014364 0.000000
# 2 -0.011330 0.014745 -0.001762 0.000000 0.011281 0.000000
# 3 -0.002614 -0.001762 0.012390 0.000000 -0.001781 0.000000
# 4 0.000000 0.000000 0.000000 0.030729 0.000000 -0.003860
# 5 -0.014364 0.011281 -0.001781 0.000000 0.053596 0.000000
# 6 0.000000 0.000000 0.000000 -0.003860 0.000000 0.028967
#
#
# Mechanical properties :
#
#
# Convention : Reuss Voigt Hill
#
# Bulk Modulus (GPa) = 47.35091 51.82100 49.58595
# Shear Modulus (GPa) = 24.47727 30.18076 27.32901
#
# Velocity S-wave (km/s) = 3.55226 3.94447 3.75349
# Velocity P-wave (km/s) = 6.42146 6.88912 6.65939
#
# Compressibility (1/GPa) = 0.02111892
#
# Stress axis : x y z
#
# Youngs Moduli (GPa) = 39.37937 67.81860 80.70960
#
# Poissons Ratio (x) = 0.76836 0.21096
# Poissons Ratio (y) = 0.44615 0.14219
# Poissons Ratio (z) = 0.10293 0.11948
#
# Static dielectric constant tensor:
#      x y z
#    x 1.690800 0.000000 0.026060 
#    y 0.000000 1.677390 0.000000 
#    z 0.026060 0.000000 1.705390 
# 
# From -- ./inp_files/138724.got.cif
#   From: 2010.05.17/outbox.cif.g08.bks.cpg/sg15_70_cif.got.tgz:138724.got - 2010.06.03 18:47:42.
