data_PCOD9266717
_publ_section_title
;
Structure prediction by ZEFSAII (Michael W. Deem and Ramdas Pophale) SiO2 
 PCOD9266717
Probable space group: C 2/C
;
_chemical_formula_sum "Si O2"
_cell_formula_units_Z 52
_cell_length_a 12.944074
_cell_length_b 22.071032
_cell_length_c 9.376984
_cell_angle_alpha 90.000000
_cell_angle_beta 111.538252
_cell_angle_gamma 90.000000
_cell_volume 2491.841304
_symmetry_space_group_name_H-M "C 2/C"
_symmetry_group_IT_number 15
_symmetry_cell_setting 'monoclinic'
loop_
_space_group_symop_operation_xyz
x,y,z
-x,y,1/2-z
-x,-y,-z
x,-y,1/2+z
1/2+x,1/2+y,z
1/2-x,1/2+y,1/2-z
1/2-x,1/2-y,-z
1/2+x,1/2-y,1/2+z
loop_
_atom_site_type_symbol
_atom_site_label
_atom_site_fract_x
_atom_site_fract_y
_atom_site_fract_z
Si Si1 0.625779 0.985221 0.341332
Si Si2 0.280575 0.525983 0.646325
Si Si3 0.629089 0.606242 0.283886
Si Si4 0.080689 0.818177 0.518389
Si Si5 0.648979 0.655802 0.759098
Si Si6 0.000000 0.741389 0.750000
Si Si7 0.313481 0.849830 0.085494
O O1 0.500000 0.003185 0.250000
O O2 0.704962 0.982141 0.246375
O O3 0.628570 0.915790 0.399187
O O4 0.688818 0.030146 0.477724
O O5 0.346740 0.463268 0.663893
O O6 0.354857 0.585110 0.698131
O O7 0.500000 0.617358 0.250000
O O8 0.638078 0.623654 0.122824
O O9 0.713786 0.646782 0.419969
O O10 0.147531 0.805424 0.404879
O O11 0.061448 0.775031 0.646931
O O12 0.958406 0.830476 0.391667
O O13 0.755068 0.659716 0.709764
O O14 0.093333 0.700947 0.876177
#
# Coordination Sequence:
#
# PCOD9266717 Si02
#       7
#     8   8   8   8   8   4   8
#     4  10  19  38  59  93 124 167 202 245 289 387
#     4  10  22  34  62  92 128 167 193 239 326 349
#     4  11  21  39  62  99 121 163 204 249 297 397
#     4  11  23  38  62  90 124 160 210 254 315 354
#     4  10  22  41  58  95 128 156 198 260 307 375
#     4  12  24  44  66  88 114 176 210 264 308 354
#     4  10  22  41  66  89 124 161 215 253 309 357
#
# _framework density 20.868103000000001
#
# number of rings (size 3 to 8) (size 9 to 14) (size 15 to 20)
#    0.000    1.538    3.077    1.385    2.154    3.692 
#    0.000    1.538    0.000    0.000    0.000    0.000 
#    0.000    0.000    0.000    0.000    0.000    0.000 
#
# Total GULP energy -144917.114541 kJ/mol
# GULP energy per Si atom -5573.735175 kJ/mol
# Density = 2.082061 g / cm^3
# Si number density = 20.868103 Si / 1000 Ang^3
#
#
#
# Elastic Constant Matrix: (Units=GPa)
#
#
# Indices 1 2 3 4 5 6 
#
# 1 63.0813 10.9307 19.9571 0.0000 8.3420 0.0000
# 2 10.9307 51.8156 20.5612 0.0000 11.2632 0.0000
# 3 19.9571 20.5612 117.1010 0.0000 8.0357 0.0000
# 4 0.0000 0.0000 0.0000 34.2906 0.0000 4.2705
# 5 8.3420 11.2632 8.0357 0.0000 38.7308 0.0000
# 6 0.0000 0.0000 0.0000 4.2705 0.0000 13.8818
#
#
#
# Elastic Compliance Matrix: (Units=1/GPa)
#
#
# Indices 1 2 3 4 5 6 
#
# 1 0.017327 -0.002135 -0.002399 0.000000 -0.002613 0.000000
# 2 -0.002135 0.022163 -0.003162 0.000000 -0.005329 0.000000
# 3 -0.002399 -0.003162 0.009541 0.000000 -0.000543 0.000000
# 4 0.000000 0.000000 0.000000 0.030324 0.000000 -0.009329
# 5 -0.002613 -0.005329 -0.000543 0.000000 0.028045 0.000000
# 6 0.000000 0.000000 0.000000 -0.009329 0.000000 0.074907
#
#
# Mechanical properties :
#
#
# Convention : Reuss Voigt Hill
#
# Bulk Modulus (GPa) = 29.72745 37.21066 33.46906
# Shear Modulus (GPa) = 23.93367 29.41725 26.67546
#
# Velocity S-wave (km/s) = 3.39027 3.75864 3.57920
# Velocity P-wave (km/s) = 5.44073 6.05859 5.75796
#
# Compressibility (1/GPa) = 0.03363894
#
# Stress axis : x y z
#
# Youngs Moduli (GPa) = 57.71328 45.12082 104.81192
#
# Poissons Ratio (x) = 0.09635 0.25141
# Poissons Ratio (y) = 0.12324 0.33140
# Poissons Ratio (z) = 0.13844 0.14266
#
# Static dielectric constant tensor:
#      x y z
#    x 1.740690 0.000000 -0.029350 
#    y 0.000000 1.816260 0.000000 
#    z -0.029350 0.000000 1.743040 
# 
# From -- ./inp_files/42313.got.cif
#   From: 2010.05.17/outbox.cif.g08.bks.cpg/sg15_22_cif.got.tgz:42313.got - 2010.06.03 18:47:42.
