data_PCOD9266831
_publ_section_title
;
Structure prediction by ZEFSAII (Michael W. Deem and Ramdas Pophale) SiO2 
 PCOD9266831
Probable space group: C 2/C
;
_chemical_formula_sum "Si O2"
_cell_formula_units_Z 64
_cell_length_a 11.432768
_cell_length_b 14.434465
_cell_length_c 28.524383
_cell_angle_alpha 90.000000
_cell_angle_beta 136.038282
_cell_angle_gamma 90.000000
_cell_volume 3267.675571
_symmetry_space_group_name_H-M "C 2/C"
_symmetry_group_IT_number 15
_symmetry_cell_setting 'monoclinic'
loop_
_space_group_symop_operation_xyz
x,y,z
-x,y,1/2-z
-x,-y,-z
x,-y,1/2+z
1/2+x,1/2+y,z
1/2-x,1/2+y,1/2-z
1/2-x,1/2-y,-z
1/2+x,1/2-y,1/2+z
loop_
_atom_site_type_symbol
_atom_site_label
_atom_site_fract_x
_atom_site_fract_y
_atom_site_fract_z
Si Si1 0.298827 0.793911 0.689440
Si Si2 0.080390 0.149685 0.039814
Si Si3 0.529814 0.398393 0.140597
Si Si4 0.172188 0.987704 0.991863
Si Si5 0.036135 0.471183 0.610820
Si Si6 0.857135 0.521266 0.250336
Si Si7 0.451665 0.234100 0.052943
Si Si8 0.667632 0.401938 0.324081
O O1 0.500000 0.786732 0.750000
O O2 0.224707 0.827259 0.618576
O O3 0.249480 0.685878 0.679230
O O4 0.266328 0.878627 0.715512
O O5 0.923263 0.103816 0.020154
O O6 0.022934 0.238400 0.993685
O O7 0.144241 0.069356 0.022696
O O8 0.420215 0.473347 0.080423
O O9 0.710025 0.443969 0.204695
O O10 0.546640 0.309759 0.112018
O O11 0.411537 0.369123 0.149708
O O12 0.370120 0.974785 0.046413
O O13 0.060550 0.477495 0.674311
O O14 0.198201 0.517414 0.634251
O O15 0.005392 0.366569 0.584905
O O16 0.000000 0.510286 0.250000
O O17 0.250000 0.250000 0.000000
O O18 0.500000 0.437084 0.250000
#
# Coordination Sequence:
#
# PCOD9266831 Si02
#       8
#     8   8   8   8   8   8   8   8
#     4  10  21  36  66  93 119 165 215 259 301 380
#     4  10  19  38  61  96 126 154 207 268 316 357
#     4  11  22  42  65  96 129 166 208 264 320 369
#     4  10  21  36  64  91 129 160 201 267 318 364
#     4  12  25  43  63  93 128 171 214 257 318 380
#     4  11  24  38  70  97 124 162 216 266 317 374
#     4  11  23  38  66  98 122 169 217 261 310 381
#     4  11  25  43  62  91 130 168 209 257 310 382
#
# _framework density 19.585788000000001
#
# number of rings (size 3 to 8) (size 9 to 14) (size 15 to 20)
#    0.000    1.250    5.000    2.250    8.750    0.500 
#    0.000    2.500    0.000    0.000    0.000    0.000 
#    0.000    0.000    0.000    0.000    0.000    0.000 
#
# Total GULP energy -178509.376323 kJ/mol
# GULP energy per Si atom -5578.418010 kJ/mol
# Density = 1.954121 g / cm^3
# Si number density = 19.585788 Si / 1000 Ang^3
#
#
#
# Elastic Constant Matrix: (Units=GPa)
#
#
# Indices 1 2 3 4 5 6 
#
# 1 40.8063 16.3977 22.9890 0.0000 7.3452 0.0000
# 2 16.3977 92.1483 40.7826 0.0000 19.4228 0.0000
# 3 22.9890 40.7826 126.1118 0.0000 7.9724 0.0000
# 4 0.0000 0.0000 0.0000 40.7280 0.0000 3.1347
# 5 7.3452 19.4228 7.9724 0.0000 23.3524 0.0000
# 6 0.0000 0.0000 0.0000 3.1347 0.0000 26.2853
#
#
#
# Elastic Compliance Matrix: (Units=1/GPa)
#
#
# Indices 1 2 3 4 5 6 
#
# 1 0.028756 -0.001996 -0.004221 0.000000 -0.005943 0.000000
# 2 -0.001996 0.015167 -0.003866 0.000000 -0.010667 0.000000
# 3 -0.004221 -0.003866 0.009875 0.000000 0.001172 0.000000
# 4 0.000000 0.000000 0.000000 0.024781 0.000000 -0.002955
# 5 -0.005943 -0.010667 0.001172 0.000000 0.053163 0.000000
# 6 0.000000 0.000000 0.000000 -0.002955 0.000000 0.038396
#
#
# Mechanical properties :
#
#
# Convention : Reuss Voigt Hill
#
# Bulk Modulus (GPa) = 29.73461 46.60056 38.16759
# Shear Modulus (GPa) = 24.81202 29.99961 27.40581
#
# Velocity S-wave (km/s) = 3.56313 3.91794 3.74474
# Velocity P-wave (km/s) = 5.66944 6.65671 6.18281
#
# Compressibility (1/GPa) = 0.03363084
#
# Stress axis : x y z
#
# Youngs Moduli (GPa) = 34.77555 65.93332 101.26462
#
# Poissons Ratio (x) = 0.13163 0.42740
# Poissons Ratio (y) = 0.06943 0.39154
# Poissons Ratio (z) = 0.14677 0.25493
#
# Static dielectric constant tensor:
#      x y z
#    x 1.734780 0.000000 -0.034040 
#    y 0.000000 1.724810 0.000000 
#    z -0.034040 0.000000 1.695930 
# 
# From -- ./inp_files/311208.got.cif
#   From: 2010.05.17/outbox.cif.g08.bks.cpg/sg15_156_cif.got.tgz:311208.got - 2010.06.03 18:47:42.
