data_PCOD9266661
_publ_section_title
;
Structure prediction by ZEFSAII (Michael W. Deem and Ramdas Pophale) SiO2 
 PCOD9266661
Probable space group: C 2/C
;
_chemical_formula_sum "Si O2"
_cell_formula_units_Z 64
_cell_length_a 8.115954
_cell_length_b 21.714450
_cell_length_c 22.672625
_cell_angle_alpha 90.000000
_cell_angle_beta 58.049830
_cell_angle_gamma 90.000000
_cell_volume 3390.365241
_symmetry_space_group_name_H-M "C 2/C"
_symmetry_group_IT_number 15
_symmetry_cell_setting 'monoclinic'
loop_
_space_group_symop_operation_xyz
x,y,z
-x,y,1/2-z
-x,-y,-z
x,-y,1/2+z
1/2+x,1/2+y,z
1/2-x,1/2+y,1/2-z
1/2-x,1/2-y,-z
1/2+x,1/2-y,1/2+z
loop_
_atom_site_type_symbol
_atom_site_label
_atom_site_fract_x
_atom_site_fract_y
_atom_site_fract_z
Si Si1 0.061741 0.773613 0.089802
Si Si2 0.059017 0.549911 0.065101
Si Si3 0.595605 0.675935 0.080746
Si Si4 0.100013 0.703468 0.881559
Si Si5 0.700934 0.380475 0.687535
Si Si6 0.714751 0.748703 0.235481
Si Si7 0.413583 0.089034 0.962769
Si Si8 0.205742 0.840202 0.953040
O O1 0.255516 0.790182 0.090033
O O2 0.099956 0.700648 0.072516
O O3 0.873604 0.781537 0.164752
O O4 0.062366 0.810716 0.028843
O O5 0.873834 0.572575 0.139129
O O6 0.109938 0.478303 0.060300
O O7 0.244273 0.589937 0.046557
O O8 0.012302 0.571316 0.006827
O O9 0.587363 0.750518 0.079180
O O10 0.641866 0.654720 0.137976
O O11 0.380089 0.664966 0.095862
O O12 0.732720 0.632541 0.015220
O O13 0.211219 0.725127 0.801952
O O14 0.035780 0.633010 0.896757
O O15 0.500000 0.409391 0.750000
O O16 0.755501 0.324775 0.721945
O O17 0.500000 0.758460 0.250000
#
# Coordination Sequence:
#
# PCOD9266661 Si02
#       8
#     8   8   8   8   8   8   8   8
#     4  10  21  35  53  91 119 147 186 240 298 341
#     4  10  20  40  60  82 121 155 200 230 289 355
#     4  10  21  33  59  90 115 146 195 243 296 333
#     4  11  20  36  57  87 121 148 194 240 295 341
#     4  10  19  38  58  87 112 153 195 238 285 356
#     4  11  21  34  58  85 116 152 186 239 292 345
#     4  10  22  36  60  87 117 157 193 242 284 348
#     4  10  20  34  59  86 118 149 186 248 287 339
#
# _framework density 18.877022
#
# number of rings (size 3 to 8) (size 9 to 14) (size 15 to 20)
#    0.000    1.750    5.000    0.750    1.750    0.500 
#    0.000    1.875    0.000    0.000    0.000    0.000 
#    0.000    0.000    0.000    0.000    0.000    0.000 
#
# Total GULP energy -178246.185156 kJ/mol
# GULP energy per Si atom -5570.193286 kJ/mol
# Density = 1.883406 g / cm^3
# Si number density = 18.877022 Si / 1000 Ang^3
#
#
#
# Elastic Constant Matrix: (Units=GPa)
#
#
# Indices 1 2 3 4 5 6 
#
# 1 26.6658 19.1186 14.4807 0.0000 5.2166 0.0000
# 2 19.1186 144.6379 43.7931 0.0000 -2.5566 0.0000
# 3 14.4807 43.7931 110.6454 0.0000 -14.4688 0.0000
# 4 0.0000 0.0000 0.0000 15.8595 0.0000 0.0110
# 5 5.2166 -2.5566 -14.4688 0.0000 23.4449 0.0000
# 6 0.0000 0.0000 0.0000 0.0110 0.0000 19.4882
#
#
#
# Elastic Compliance Matrix: (Units=1/GPa)
#
#
# Indices 1 2 3 4 5 6 
#
# 1 0.047116 -0.004584 -0.006296 0.000000 -0.014869 0.000000
# 2 -0.004584 0.008330 -0.002660 0.000000 0.000287 0.000000
# 3 -0.006296 -0.002660 0.012031 0.000000 0.008536 0.000000
# 4 0.000000 0.000000 0.000000 0.063054 0.000000 -0.000036
# 5 -0.014869 0.000287 0.008536 0.000000 0.051261 0.000000
# 6 0.000000 0.000000 0.000000 -0.000036 0.000000 0.051313
#
#
# Mechanical properties :
#
#
# Convention : Reuss Voigt Hill
#
# Bulk Modulus (GPa) = 24.75452 48.52599 36.64026
# Shear Modulus (GPa) = 18.27152 25.39563 21.83357
#
# Velocity S-wave (km/s) = 3.11452 3.67184 3.40460
# Velocity P-wave (km/s) = 5.10644 6.61353 5.90823
#
# Compressibility (1/GPa) = 0.04039666
#
# Stress axis : x y z
#
# Youngs Moduli (GPa) = 21.22418 120.04644 83.12076
#
# Poissons Ratio (x) = 0.55034 0.52334
# Poissons Ratio (y) = 0.09730 0.22106
# Poissons Ratio (z) = 0.13363 0.31926
#
# Static dielectric constant tensor:
#      x y z
#    x 1.690280 0.000000 -0.010560 
#    y 0.000000 1.661650 0.000000 
#    z -0.010560 0.000000 1.702830 
# 
# From -- ./inp_files/192955.got.cif
#   From: 2010.05.17/outbox.cif.g08.bks.cpg/sg15_97_cif.got.tgz:192955.got - 2010.06.03 18:47:42.
