data_PCOD9266562
_publ_section_title
;
Structure prediction by ZEFSAII (Michael W. Deem and Ramdas Pophale) SiO2 
 PCOD9266562
Probable space group: C 2/C
;
_chemical_formula_sum "Si O2"
_cell_formula_units_Z 32
_cell_length_a 8.764769
_cell_length_b 33.374616
_cell_length_c 5.386003
_cell_angle_alpha 90.000000
_cell_angle_beta 57.014379
_cell_angle_gamma 90.000000
_cell_volume 1321.555801
_symmetry_space_group_name_H-M "C 2/C"
_symmetry_group_IT_number 15
_symmetry_cell_setting 'monoclinic'
loop_
_space_group_symop_operation_xyz
x,y,z
-x,y,1/2-z
-x,-y,-z
x,-y,1/2+z
1/2+x,1/2+y,z
1/2-x,1/2+y,1/2-z
1/2-x,1/2-y,-z
1/2+x,1/2-y,1/2+z
loop_
_atom_site_type_symbol
_atom_site_label
_atom_site_fract_x
_atom_site_fract_y
_atom_site_fract_z
Si Si1 0.000000 0.336969 0.250000
Si Si2 0.815020 0.610630 0.567303
Si Si3 0.500000 0.334524 0.250000
Si Si4 0.742402 0.775726 0.256483
Si Si5 0.209946 0.516595 0.832721
O O1 0.156603 0.369114 0.185939
O O2 0.062766 0.304126 0.402115
O O3 0.665034 0.635595 0.550009
O O4 0.781902 0.563806 0.627792
O O5 0.000000 0.615391 0.250000
O O6 0.417956 0.304886 0.116398
O O7 0.750000 0.750000 0.500000
O O8 0.750000 0.750000 0.000000
O O9 0.292178 0.505419 0.496404
O O10 0.000000 0.500000 0.000000
#
# Coordination Sequence:
#
# PCOD9266562 Si02
#       5
#     4   8   4   8   8
#     4  10  24  38  66  92 130 174 226 270 356 402
#     4  11  23  43  70  99 143 184 231 296 352 414
#     4  10  26  46  68 110 136 178 240 290 354 420
#     4  11  24  45  69  96 136 180 225 286 346 422
#     4  10  19  37  67  96 132 187 234 273 342 420
#
# _framework density 24.213885999999999
#
# number of rings (size 3 to 8) (size 9 to 14) (size 15 to 20)
#    0.000    1.500    2.500    3.000    7.000    0.000 
#    4.500    1.250    0.000    0.000    0.000    0.000 
#    0.000    0.000    0.000    0.000    0.000    0.000 
#
# Total GULP energy -89151.790805 kJ/mol
# GULP energy per Si atom -5571.986925 kJ/mol
# Density = 2.415877 g / cm^3
# Si number density = 24.213886 Si / 1000 Ang^3
#
#
#
# Elastic Constant Matrix: (Units=GPa)
#
#
# Indices 1 2 3 4 5 6 
#
# 1 133.1686 86.5575 67.2671 0.0000 13.5615 0.0000
# 2 86.5575 216.4644 63.6615 0.0000 16.9806 0.0000
# 3 67.2671 63.6615 118.8078 0.0000 29.3539 0.0000
# 4 0.0000 0.0000 0.0000 0.6480 0.0000 -22.0873
# 5 13.5615 16.9806 29.3539 0.0000 36.4827 0.0000
# 6 0.0000 0.0000 0.0000 -22.0873 0.0000 -9.9531
#
#
#
# Elastic Compliance Matrix: (Units=1/GPa)
#
#
# Indices 1 2 3 4 5 6 
#
# 1 0.012393 -0.003443 -0.005528 0.000000 0.001444 0.000000
# 2 -0.003443 0.006442 -0.001345 0.000000 -0.000636 0.000000
# 3 -0.005528 -0.001345 0.014485 0.000000 -0.008973 0.000000
# 4 0.000000 0.000000 0.000000 0.020136 0.000000 -0.044684
# 5 0.001444 -0.000636 -0.008973 0.000000 0.034390 0.000000
# 6 0.000000 0.000000 0.000000 -0.044684 0.000000 -0.001311
#
#
# Mechanical properties :
#
#
# Convention : Reuss Voigt Hill
#
# Bulk Modulus (GPa) = 78.82573 100.37922 89.60247
# Shear Modulus (GPa) = 44.88484 22.16582 33.52533
#
# Velocity S-wave (km/s) = 4.31011 3.02887 3.72499
# Velocity P-wave (km/s) = 7.57588 7.33330 7.45558
#
# Compressibility (1/GPa) = 0.01268621
#
# Stress axis : x y z
#
# Youngs Moduli (GPa) = 80.69360 155.23275 69.03654
#
# Poissons Ratio (x) = 0.53443 0.38167
# Poissons Ratio (y) = 0.27781 0.09288
# Poissons Ratio (z) = 0.44611 0.20885
#
# Static dielectric constant tensor:
#      x y z
#    x 1.960500 0.000000 0.027090 
#    y 0.000000 1.920550 0.000000 
#    z 0.027090 0.000000 1.871810 
# 
# From -- ./inp_files/2605.got.cif
#   From: 2010.05.17/outbox.cif.g08.bks.cpg/sg15_2_cif.got.tgz:2605.got - 2010.06.03 18:47:42.
