data_PCOD9266999
_publ_section_title
;
Structure prediction by ZEFSAII (Michael W. Deem and Ramdas Pophale) SiO2 
 PCOD9266999
Probable space group: C 2/C
;
_chemical_formula_sum "Si O2"
_cell_formula_units_Z 48
_cell_length_a 17.465884
_cell_length_b 23.818534
_cell_length_c 7.113234
_cell_angle_alpha 90.000000
_cell_angle_beta 128.727774
_cell_angle_gamma 90.000000
_cell_volume 2308.543871
_symmetry_space_group_name_H-M "C 2/C"
_symmetry_group_IT_number 15
_symmetry_cell_setting 'monoclinic'
loop_
_space_group_symop_operation_xyz
x,y,z
-x,y,1/2-z
-x,-y,-z
x,-y,1/2+z
1/2+x,1/2+y,z
1/2-x,1/2+y,1/2-z
1/2-x,1/2-y,-z
1/2+x,1/2-y,1/2+z
loop_
_atom_site_type_symbol
_atom_site_label
_atom_site_fract_x
_atom_site_fract_y
_atom_site_fract_z
Si Si1 0.782040 0.622399 0.051051
Si Si2 0.607768 0.084318 0.927316
Si Si3 0.110293 0.202546 0.851989
Si Si4 0.607457 0.262495 0.942079
Si Si5 0.682407 0.203722 0.722382
Si Si6 0.106046 0.454720 0.004057
O O1 0.824751 0.618847 0.326664
O O2 0.804362 0.562119 0.994434
O O3 0.673389 0.647894 0.896515
O O4 0.837674 0.660805 0.978292
O O5 0.619654 0.210594 0.815910
O O6 0.500000 0.109684 0.750000
O O7 0.597306 0.021890 0.002729
O O8 0.111420 0.243794 0.672683
O O9 0.000000 0.191811 0.750000
O O10 0.166729 0.236000 0.099919
O O11 0.703057 0.300651 0.048376
O O12 0.500000 0.288433 0.750000
O O13 0.631587 0.071859 0.746209
O O14 0.000000 0.436049 0.750000
#
# Coordination Sequence:
#
# PCOD9266999 Si02
#       6
#     8   8   8   8   8   8
#     4  11  23  37  60  97 122 161 215 252 303 378
#     4  11  20  39  64  90 132 165 198 248 318 379
#     4  11  23  43  62  82 127 169 211 258 305 360
#     4  10  19  38  64  82 116 168 199 249 306 352
#     4  10  23  40  58  90 125 158 214 250 303 366
#     4  11  20  38  63  92 128 168 200 247 315 385
#
# _framework density 20.792327
#
# number of rings (size 3 to 8) (size 9 to 14) (size 15 to 20)
#    0.000    1.333    5.000    3.000    0.000    6.000 
#    3.000    4.167    0.000    1.000    0.000    0.000 
#    0.000    0.000    0.000    0.000    0.000    0.000 
#
# Total GULP energy -133724.508094 kJ/mol
# GULP energy per Si atom -5571.854504 kJ/mol
# Density = 2.074500 g / cm^3
# Si number density = 20.792327 Si / 1000 Ang^3
#
#
#
# Elastic Constant Matrix: (Units=GPa)
#
#
# Indices 1 2 3 4 5 6 
#
# 1 142.4765 35.0392 62.9578 0.0000 -13.7951 0.0000
# 2 35.0392 49.7119 35.3806 0.0000 3.4529 0.0000
# 3 62.9578 35.3806 121.3597 0.0000 -17.1984 0.0000
# 4 0.0000 0.0000 0.0000 28.6170 0.0000 -16.6361
# 5 -13.7951 3.4529 -17.1984 0.0000 52.6465 0.0000
# 6 0.0000 0.0000 0.0000 -16.6361 0.0000 33.0743
#
#
#
# Elastic Compliance Matrix: (Units=1/GPa)
#
#
# Indices 1 2 3 4 5 6 
#
# 1 0.009874 -0.004553 -0.003551 0.000000 0.001726 0.000000
# 2 -0.004553 0.028436 -0.006670 0.000000 -0.005237 0.000000
# 3 -0.003551 -0.006670 0.012537 0.000000 0.003603 0.000000
# 4 0.000000 0.000000 0.000000 0.049385 0.000000 0.024840
# 5 0.001726 -0.005237 0.003603 0.000000 0.020967 0.000000
# 6 0.000000 0.000000 0.000000 0.024840 0.000000 0.042729
#
#
# Mechanical properties :
#
#
# Convention : Reuss Voigt Hill
#
# Bulk Modulus (GPa) = 46.94848 64.47817 55.71332
# Shear Modulus (GPa) = 24.92810 34.87894 29.90352
#
# Velocity S-wave (km/s) = 3.46628 4.10016 3.79647
# Velocity P-wave (km/s) = 6.21682 7.31389 6.78756
#
# Compressibility (1/GPa) = 0.02129994
#
# Stress axis : x y z
#
# Youngs Moduli (GPa) = 101.27119 35.16648 79.76283
#
# Poissons Ratio (x) = 0.16011 0.28321
# Poissons Ratio (y) = 0.46107 0.53205
# Poissons Ratio (z) = 0.35958 0.23458
#
# Static dielectric constant tensor:
#      x y z
#    x 1.820150 0.000000 -0.034590 
#    y 0.000000 1.824390 0.000000 
#    z -0.034590 0.000000 1.779340 
# 
# From -- ./inp_files/124098.got.cif
#   From: 2010.05.17/outbox.cif.g08.bks.cpg/sg15_63_cif.got.tgz:124098.got - 2010.06.03 18:47:42.
