data_PCOD9266346
_publ_section_title
;
Structure prediction by ZEFSAII (Michael W. Deem and Ramdas Pophale) SiO2 
 PCOD9266346
Probable space group: C 2/C
;
_chemical_formula_sum "Si O2"
_cell_formula_units_Z 44
_cell_length_a 18.597215
_cell_length_b 25.994374
_cell_length_c 10.071375
_cell_angle_alpha 90.000000
_cell_angle_beta 155.014811
_cell_angle_gamma 90.000000
_cell_volume 2056.475151
_symmetry_space_group_name_H-M "C 2/C"
_symmetry_group_IT_number 15
_symmetry_cell_setting 'monoclinic'
loop_
_space_group_symop_operation_xyz
x,y,z
-x,y,1/2-z
-x,-y,-z
x,-y,1/2+z
1/2+x,1/2+y,z
1/2-x,1/2+y,1/2-z
1/2-x,1/2-y,-z
1/2+x,1/2-y,1/2+z
loop_
_atom_site_type_symbol
_atom_site_label
_atom_site_fract_x
_atom_site_fract_y
_atom_site_fract_z
Si Si1 0.500000 0.931305 0.750000
Si Si2 0.115847 0.209654 0.826872
Si Si3 0.808533 0.494445 0.227684
Si Si4 0.119467 0.795129 0.819767
Si Si5 0.908235 0.907874 0.738514
Si Si6 0.787297 0.900901 0.037869
O O1 0.347868 0.965733 0.431533
O O2 0.390418 0.899946 0.675263
O O3 0.191116 0.154391 0.995266
O O4 0.000000 0.231123 0.750000
O O5 0.003662 0.200448 0.510661
O O6 0.250000 0.250000 0.000000
O O7 0.000000 0.500000 0.500000
O O8 0.712842 0.457003 0.965141
O O9 0.724083 0.550510 0.080203
O O10 0.192436 0.853479 0.945365
O O11 0.000000 0.785843 0.750000
O O12 0.250000 0.750000 0.000000
O O13 0.000000 0.912524 0.750000
O O14 0.050329 0.908195 0.091822
#
# Coordination Sequence:
#
# PCOD9266346 Si02
#       6
#     4   8   8   8   8   8
#     4  10  20  38  62  94 126 176 214 268 330 396
#     4  11  25  44  67 100 132 172 223 276 338 395
#     4  10  21  37  58  93 127 164 218 260 331 387
#     4  10  22  41  68  96 128 171 224 270 330 395
#     4  10  19  37  63  89 122 171 216 263 329 393
#     4  10  22  39  64  93 128 170 221 272 326 401
#
# _framework density 21.395833
#
# number of rings (size 3 to 8) (size 9 to 14) (size 15 to 20)
#    0.000    1.818    1.818    1.636    1.273    3.636 
#   13.091    0.000    4.000    0.000    0.000    0.000 
#    0.000    0.000    0.000    0.000    0.000    0.000 
#
# Total GULP energy -122637.903875 kJ/mol
# GULP energy per Si atom -5574.450176 kJ/mol
# Density = 2.134713 g / cm^3
# Si number density = 21.395833 Si / 1000 Ang^3
#
#
#
# Elastic Constant Matrix: (Units=GPa)
#
#
# Indices 1 2 3 4 5 6 
#
# 1 76.8699 13.3165 5.0451 0.0000 14.3147 0.0000
# 2 13.3165 139.1039 57.5953 0.0000 27.7227 0.0000
# 3 5.0451 57.5953 73.5662 0.0000 1.2448 0.0000
# 4 0.0000 0.0000 0.0000 58.2882 0.0000 12.0695
# 5 14.3147 27.7227 1.2448 0.0000 28.7302 0.0000
# 6 0.0000 0.0000 0.0000 12.0695 0.0000 30.9410
#
#
#
# Elastic Compliance Matrix: (Units=1/GPa)
#
#
# Indices 1 2 3 4 5 6 
#
# 1 0.014440 0.000813 -0.001493 0.000000 -0.007915 0.000000
# 2 0.000813 0.014519 -0.011187 0.000000 -0.013931 0.000000
# 3 -0.001493 -0.011187 0.022275 0.000000 0.010574 0.000000
# 4 0.000000 0.000000 0.000000 0.018664 0.000000 -0.007280
# 5 -0.007915 -0.013931 0.010574 0.000000 0.051734 0.000000
# 6 0.000000 0.000000 0.000000 -0.007280 0.000000 0.035159
#
#
# Mechanical properties :
#
#
# Convention : Reuss Voigt Hill
#
# Bulk Modulus (GPa) = 36.36324 49.05041 42.70682
# Shear Modulus (GPa) = 26.35841 37.83076 32.09459
#
# Velocity S-wave (km/s) = 3.51371 4.20948 3.87724
# Velocity P-wave (km/s) = 5.78739 6.82652 6.32832
#
# Compressibility (1/GPa) = 0.02750030
#
# Stress axis : x y z
#
# Youngs Moduli (GPa) = 69.25226 68.87345 44.89285
#
# Poissons Ratio (x) = -0.05600 0.06702
# Poissons Ratio (y) = -0.05631 0.50223
# Poissons Ratio (z) = 0.10339 0.77051
#
# Static dielectric constant tensor:
#      x y z
#    x 1.855950 0.000000 -0.040870 
#    y 0.000000 1.912410 0.000000 
#    z -0.040870 0.000000 1.771040 
# 
# From -- ./inp_files/115043.got.cif
#   From: 2010.05.17/outbox.cif.g08.bks.cpg/sg15_58_cif.got.tgz:115043.got - 2010.06.03 18:47:42.
