data_PCOD9266981
_publ_section_title
;
Structure prediction by ZEFSAII (Michael W. Deem and Ramdas Pophale) SiO2 
 PCOD9266981
Probable space group: C 2/C
;
_chemical_formula_sum "Si O2"
_cell_formula_units_Z 56
_cell_length_a 27.823303
_cell_length_b 5.439779
_cell_length_c 15.660641
_cell_angle_alpha 90.000000
_cell_angle_beta 114.351992
_cell_angle_gamma 90.000000
_cell_volume 2159.394079
_symmetry_space_group_name_H-M "C 2/C"
_symmetry_group_IT_number 15
_symmetry_cell_setting 'monoclinic'
loop_
_space_group_symop_operation_xyz
x,y,z
-x,y,1/2-z
-x,-y,-z
x,-y,1/2+z
1/2+x,1/2+y,z
1/2-x,1/2+y,1/2-z
1/2-x,1/2-y,-z
1/2+x,1/2-y,1/2+z
loop_
_atom_site_type_symbol
_atom_site_label
_atom_site_fract_x
_atom_site_fract_y
_atom_site_fract_z
Si Si1 0.356292 0.071386 0.026759
Si Si2 0.058920 0.293925 0.794588
Si Si3 0.217551 0.464079 0.318298
Si Si4 0.402314 0.045882 0.834470
Si Si5 0.936755 0.043897 0.957514
Si Si6 0.260109 0.034301 0.855527
Si Si7 0.372609 0.566663 0.088740
O O1 0.323101 0.023102 0.917987
O O2 0.418324 0.107872 0.097652
O O3 0.335703 0.340067 0.036712
O O4 0.346579 0.830032 0.075551
O O5 0.064199 0.505498 0.728364
O O6 0.000000 0.207046 0.750000
O O7 0.096246 0.054415 0.809054
O O8 0.157102 0.463272 0.244835
O O9 0.235807 0.213019 0.374261
O O10 0.251179 0.465517 0.253820
O O11 0.233453 0.720537 0.371122
O O12 0.413004 0.296557 0.895178
O O13 0.419570 0.798150 0.898563
O O14 0.912347 0.079621 0.035069
O O15 0.000000 0.000000 0.000000
#
# Coordination Sequence:
#
# PCOD9266981 Si02
#       7
#     8   8   8   8   8   8   8
#     4  10  22  39  69  89 128 168 227 256 322 396
#     4  10  26  44  67  92 137 179 221 259 336 398
#     4  10  21  36  64  92 132 159 217 266 338 372
#     4  12  26  43  65 100 137 169 217 283 326 381
#     4  12  25  40  67  95 132 168 226 275 329 374
#     4  10  19  38  63  95 120 172 209 270 325 401
#     4  10  22  40  64  91 126 172 219 264 321 393
#
# _framework density 25.933201
#
# number of rings (size 3 to 8) (size 9 to 14) (size 15 to 20)
#    0.857    0.571    0.000    5.571    4.000    2.857 
#    0.000    1.429    0.000    0.000    0.000    0.000 
#    0.000    0.000    0.000    0.000    0.000    0.000 
#
# Total GULP energy -156075.823248 kJ/mol
# GULP energy per Si atom -5574.136545 kJ/mol
# Density = 2.587418 g / cm^3
# Si number density = 25.933201 Si / 1000 Ang^3
#
#
#
# Elastic Constant Matrix: (Units=GPa)
#
#
# Indices 1 2 3 4 5 6 
#
# 1 67.6363 -1.9553 30.3300 0.0000 9.0012 0.0000
# 2 -1.9553 270.8936 42.3948 0.0000 61.2218 0.0000
# 3 30.3300 42.3948 104.5793 0.0000 29.1807 0.0000
# 4 0.0000 0.0000 0.0000 36.3185 0.0000 14.5072
# 5 9.0012 61.2218 29.1807 0.0000 75.1613 0.0000
# 6 0.0000 0.0000 0.0000 14.5072 0.0000 -0.4941
#
#
#
# Elastic Compliance Matrix: (Units=1/GPa)
#
#
# Indices 1 2 3 4 5 6 
#
# 1 0.017287 0.001165 -0.005207 0.000000 -0.000998 0.000000
# 2 0.001165 0.004680 -0.001270 0.000000 -0.003459 0.000000
# 3 -0.005207 -0.001270 0.012476 0.000000 -0.003186 0.000000
# 4 0.000000 0.000000 0.000000 0.002163 0.000000 0.063516
# 5 -0.000998 -0.003459 -0.003186 0.000000 0.017478 0.000000
# 6 0.000000 0.000000 0.000000 0.063516 0.000000 -0.159010
#
#
# Mechanical properties :
#
#
# Convention : Reuss Voigt Hill
#
# Bulk Modulus (GPa) = 41.98470 64.96090 53.47280
# Shear Modulus (GPa) = -57.89632 47.01980 -5.43826
#
# Velocity S-wave (km/s) = -4.73008 4.26268 -1.44968
# Velocity P-wave (km/s) = 3.68874 7.02360 4.22636
#
# Compressibility (1/GPa) = 0.02381820
#
# Stress axis : x y z
#
# Youngs Moduli (GPa) = 57.84838 213.65921 80.15297
#
# Poissons Ratio (x) = -0.24895 0.41739
# Poissons Ratio (y) = -0.06740 0.10181
# Poissons Ratio (z) = 0.30124 0.27139
#
# Static dielectric constant tensor:
#      x y z
#    x 2.104690 0.000000 -0.130070 
#    y 0.000000 2.065870 0.000000 
#    z -0.130070 0.000000 2.057080 
# 
# From -- ./inp_files/223950.got.cif
#   From: 2010.05.17/outbox.cif.g08.bks.cpg/sg15_112_cif.got.tgz:223950.got - 2010.06.03 18:47:42.
