data_PCOD9266135
_publ_section_title
;
Structure prediction by ZEFSAII (Michael W. Deem and Ramdas Pophale) SiO2 
 PCOD9266135
Probable space group: C 2/C
;
_chemical_formula_sum "Si O2"
_cell_formula_units_Z 48
_cell_length_a 13.399682
_cell_length_b 13.730708
_cell_length_c 24.460314
_cell_angle_alpha 90.000000
_cell_angle_beta 32.420307
_cell_angle_gamma 90.000000
_cell_volume 2412.772252
_symmetry_space_group_name_H-M "C 2/C"
_symmetry_group_IT_number 15
_symmetry_cell_setting 'monoclinic'
loop_
_space_group_symop_operation_xyz
x,y,z
-x,y,1/2-z
-x,-y,-z
x,-y,1/2+z
1/2+x,1/2+y,z
1/2-x,1/2+y,1/2-z
1/2-x,1/2-y,-z
1/2+x,1/2-y,1/2+z
loop_
_atom_site_type_symbol
_atom_site_label
_atom_site_fract_x
_atom_site_fract_y
_atom_site_fract_z
Si Si1 0.113827 0.217742 0.883557
Si Si2 0.030573 0.434340 0.932446
Si Si3 0.067280 0.030575 0.278935
Si Si4 0.672388 0.570731 0.521769
Si Si5 0.300130 0.634899 0.543598
Si Si6 0.531481 0.736016 0.346775
O O1 0.083004 0.324248 0.923397
O O2 0.203953 0.154957 0.890274
O O3 0.258793 0.230279 0.765778
O O4 0.915354 0.168825 0.961669
O O5 0.212297 0.475320 0.818878
O O6 0.000000 0.500000 0.000000
O O7 0.862767 0.425604 0.967565
O O8 0.001914 0.141139 0.321702
O O9 0.000000 0.003993 0.250000
O O10 0.977749 0.962161 0.364408
O O11 0.685228 0.479982 0.474394
O O12 0.471838 0.692299 0.433661
O O13 0.115840 0.680487 0.600702
#
# Coordination Sequence:
#
# PCOD9266135 Si02
#       6
#     8   8   8   8   8   8
#     4  11  23  40  62  90 131 162 204 255 319 369
#     4  11  23  39  63  89 122 168 208 258 303 367
#     4  10  19  37  60  90 119 155 218 259 298 362
#     4  11  24  38  60  91 128 163 201 254 322 374
#     4  10  21  38  64  92 121 161 212 257 312 364
#     4   9  20  36  63  91 121 157 215 263 299 360
#
# _framework density 19.894127999999998
#
# number of rings (size 3 to 8) (size 9 to 14) (size 15 to 20)
#    0.000    1.667    1.667    3.500    7.000    0.000 
#    0.000    0.000    0.000    0.000    0.000    0.000 
#    0.000    0.000    0.000    0.000    0.000    0.000 
#
# Total GULP energy -133892.789554 kJ/mol
# GULP energy per Si atom -5578.866231 kJ/mol
# Density = 1.984885 g / cm^3
# Si number density = 19.894128 Si / 1000 Ang^3
#
#
#
# Elastic Constant Matrix: (Units=GPa)
#
#
# Indices 1 2 3 4 5 6 
#
# 1 32.8614 -4.0181 5.9626 0.0001 -13.8741 0.0000
# 2 -4.0181 42.9748 21.3203 -0.0002 0.7638 0.0000
# 3 5.9626 21.3203 86.0829 -0.0007 -11.7474 0.0001
# 4 0.0001 -0.0002 -0.0007 19.4105 -0.0003 -10.6004
# 5 -13.8741 0.7638 -11.7474 -0.0003 27.9363 -0.0001
# 6 0.0000 0.0000 0.0001 -10.6004 -0.0001 22.4301
#
#
#
# Elastic Compliance Matrix: (Units=1/GPa)
#
#
# Indices 1 2 3 4 5 6 
#
# 1 0.039050 0.003858 -0.001091 0.000000 0.018830 0.000000
# 2 0.003858 0.027276 -0.007281 0.000000 -0.001892 0.000000
# 3 -0.001091 -0.007281 0.014267 0.000001 0.005657 0.000000
# 4 0.000000 0.000000 0.000001 0.069440 0.000001 0.032817
# 5 0.018830 -0.001892 0.005657 0.000001 0.047578 0.000001
# 6 0.000000 0.000000 0.000000 0.032817 0.000001 0.060092
#
#
# Mechanical properties :
#
#
# Convention : Reuss Voigt Hill
#
# Bulk Modulus (GPa) = 13.97311 23.16097 18.56704
# Shear Modulus (GPa) = 17.20654 23.19899 20.20277
#
# Velocity S-wave (km/s) = 2.94412 3.41856 3.19017
# Velocity P-wave (km/s) = 4.31232 5.22010 4.78777
#
# Compressibility (1/GPa) = 0.07156602
#
# Stress axis : x y z
#
# Youngs Moduli (GPa) = 25.60792 36.66249 70.08942
#
# Poissons Ratio (x) = -0.14143 0.07645
# Poissons Ratio (y) = -0.09879 0.51031
# Poissons Ratio (z) = 0.02793 0.26693
#
# Static dielectric constant tensor:
#      x y z
#    x 1.691430 0.000000 -0.008710 
#    y 0.000000 1.711790 0.000000 
#    z -0.008710 0.000000 1.712460 
# 
# From -- ./inp_files/144061.got.cif
#   From: 2010.05.17/outbox.cif.g08.bks.cpg/sg15_73_cif.got.tgz:144061.got - 2010.06.03 18:47:42.
