data_PCOD9266947
_publ_section_title
;
Structure prediction by ZEFSAII (Michael W. Deem and Ramdas Pophale) SiO2 
 PCOD9266947
Probable space group: C 2/C
;
_chemical_formula_sum "Si O2"
_cell_formula_units_Z 56
_cell_length_a 9.706002
_cell_length_b 14.266539
_cell_length_c 26.683998
_cell_angle_alpha 90.000000
_cell_angle_beta 54.311008
_cell_angle_gamma 90.000000
_cell_volume 3001.031471
_symmetry_space_group_name_H-M "C 2/C"
_symmetry_group_IT_number 15
_symmetry_cell_setting 'monoclinic'
loop_
_space_group_symop_operation_xyz
x,y,z
-x,y,1/2-z
-x,-y,-z
x,-y,1/2+z
1/2+x,1/2+y,z
1/2-x,1/2+y,1/2-z
1/2-x,1/2-y,-z
1/2+x,1/2-y,1/2+z
loop_
_atom_site_type_symbol
_atom_site_label
_atom_site_fract_x
_atom_site_fract_y
_atom_site_fract_z
Si Si1 0.532545 0.923383 0.797995
Si Si2 0.094234 0.222866 0.177337
Si Si3 0.075929 0.974761 0.787854
Si Si4 0.487676 0.585266 0.906132
Si Si5 0.501553 0.799188 0.896296
Si Si6 0.339368 0.088283 0.887475
Si Si7 0.129285 0.475902 0.517020
O O1 0.500000 0.887524 0.750000
O O2 0.728629 0.949518 0.762785
O O3 0.468956 0.846387 0.850024
O O4 0.429233 0.017720 0.829943
O O5 0.294344 0.207033 0.142804
O O6 0.087680 0.308438 0.139572
O O7 0.000000 0.247809 0.250000
O O8 0.014494 0.123643 0.178535
O O9 0.000000 0.005558 0.750000
O O10 0.051907 0.046904 0.838617
O O11 0.435753 0.694102 0.913552
O O12 0.640825 0.582830 0.914120
O O13 0.322650 0.527743 0.957313
O O14 0.425267 0.873233 0.951414
O O15 0.377805 0.048036 0.934540
O O16 0.000000 0.500000 0.500000
#
# Coordination Sequence:
#
# PCOD9266947 Si02
#       7
#     8   8   8   8   8   8   8
#     4  11  20  37  59  93 127 157 196 254 306 368
#     4  10  19  38  63  90 122 162 199 247 305 370
#     4  11  22  37  63  92 129 159 202 249 308 366
#     4  11  23  42  64  89 119 172 202 248 305 369
#     4  10  22  40  62  90 124 159 202 254 305 356
#     4  10  23  39  64  87 120 163 208 245 307 368
#     4  11  24  44  64  88 123 158 211 262 305 356
#
# _framework density 18.660250999999999
#
# number of rings (size 3 to 8) (size 9 to 14) (size 15 to 20)
#    0.000    1.429    4.286    2.143    4.000    0.571 
#    2.571    7.857    0.000    0.000    0.000    0.000 
#    0.000    0.000    0.000    0.000    0.000    0.000 
#
# Total GULP energy -156235.790216 kJ/mol
# GULP energy per Si atom -5579.849651 kJ/mol
# Density = 1.861778 g / cm^3
# Si number density = 18.660251 Si / 1000 Ang^3
#
#
#
# Elastic Constant Matrix: (Units=GPa)
#
#
# Indices 1 2 3 4 5 6 
#
# 1 73.6134 11.4484 27.7372 -0.0001 15.7832 0.0000
# 2 11.4484 90.5712 27.2343 -0.0001 29.6176 0.0000
# 3 27.7372 27.2343 76.6789 -0.0001 10.5419 0.0000
# 4 -0.0001 -0.0001 -0.0001 9.1438 0.0001 -6.9109
# 5 15.7832 29.6176 10.5419 0.0001 32.5295 0.0000
# 6 0.0000 0.0000 0.0000 -6.9109 0.0000 19.2703
#
#
#
# Elastic Compliance Matrix: (Units=1/GPa)
#
#
# Indices 1 2 3 4 5 6 
#
# 1 0.017304 0.002439 -0.005930 0.000000 -0.008695 0.000000
# 2 0.002439 0.017190 -0.004891 0.000000 -0.015250 0.000000
# 3 -0.005930 -0.004891 0.016658 0.000000 0.001932 0.000000
# 4 0.000000 0.000000 0.000000 0.150031 -0.000001 0.053806
# 5 -0.008695 -0.015250 0.001932 -0.000001 0.048219 0.000000
# 6 0.000000 0.000000 0.000000 0.053806 0.000000 0.071190
#
#
# Mechanical properties :
#
#
# Convention : Reuss Voigt Hill
#
# Bulk Modulus (GPa) = 29.08023 41.52259 35.30141
# Shear Modulus (GPa) = 14.33406 23.81830 19.07618
#
# Velocity S-wave (km/s) = 2.77458 3.57658 3.20079
# Velocity P-wave (km/s) = 5.08746 6.27344 5.71132
#
# Compressibility (1/GPa) = 0.03438762
#
# Stress axis : x y z
#
# Youngs Moduli (GPa) = 57.79049 58.17209 60.03053
#
# Poissons Ratio (x) = -0.14190 0.35600
# Poissons Ratio (y) = -0.14097 0.29363
# Poissons Ratio (z) = 0.34272 0.28454
#
# Static dielectric constant tensor:
#      x y z
#    x 1.644240 0.000000 -0.002580 
#    y 0.000000 1.651860 0.000000 
#    z -0.002580 0.000000 1.639150 
# 
# From -- ./inp_files/264614.got.cif
#   From: 2010.05.17/outbox.cif.g08.bks.cpg/sg15_133_cif.got.tgz:264614.got - 2010.06.03 18:47:42.
