data_PCOD9266773
_publ_section_title
;
Structure prediction by ZEFSAII (Michael W. Deem and Ramdas Pophale) SiO2 
 PCOD9266773
Probable space group: C 2/C
;
_chemical_formula_sum "Si O2"
_cell_formula_units_Z 48
_cell_length_a 15.189011
_cell_length_b 9.408008
_cell_length_c 19.457884
_cell_angle_alpha 90.000000
_cell_angle_beta 126.253161
_cell_angle_gamma 90.000000
_cell_volume 2242.227919
_symmetry_space_group_name_H-M "C 2/C"
_symmetry_group_IT_number 15
_symmetry_cell_setting 'monoclinic'
loop_
_space_group_symop_operation_xyz
x,y,z
-x,y,1/2-z
-x,-y,-z
x,-y,1/2+z
1/2+x,1/2+y,z
1/2-x,1/2+y,1/2-z
1/2-x,1/2-y,-z
1/2+x,1/2-y,1/2+z
loop_
_atom_site_type_symbol
_atom_site_label
_atom_site_fract_x
_atom_site_fract_y
_atom_site_fract_z
Si Si1 0.976585 0.570940 0.635451
Si Si2 0.165856 0.508625 0.069016
Si Si3 0.673151 0.251702 0.664324
Si Si4 0.904563 0.942247 0.409585
Si Si5 0.407821 0.188651 0.333351
Si Si6 0.781401 0.265352 0.094324
O O1 0.903624 0.536008 0.532381
O O2 0.893884 0.649911 0.648349
O O3 0.076633 0.676624 0.663172
O O4 0.025341 0.420230 0.682099
O O5 0.176587 0.345252 0.096677
O O6 0.109058 0.589424 0.106855
O O7 0.277152 0.601310 0.116604
O O8 0.648231 0.417283 0.645437
O O9 0.792449 0.254014 0.752691
O O10 0.961444 0.833429 0.383182
O O11 0.812740 0.854467 0.409784
O O12 0.000000 0.000000 0.500000
O O13 0.750000 0.250000 0.000000
#
# Coordination Sequence:
#
# PCOD9266773 Si02
#       6
#     8   8   8   8   8   8
#     4  10  19  38  61  78 106 149 190 231 272 325
#     4   9  18  36  58  81 106 145 188 226 273 333
#     4  11  20  34  56  83 112 145 182 229 275 329
#     4  11  20  34  57  84 110 141 183 230 275 331
#     4  10  20  34  54  82 111 145 184 221 273 338
#     4   9  19  36  58  82 105 139 189 233 276 324
#
# _framework density 21.407281000000001
#
# number of rings (size 3 to 8) (size 9 to 14) (size 15 to 20)
#    0.000    2.000    0.000    8.000    0.000    0.000 
#    0.000   16.667    0.000    6.000    0.000    0.000 
#    0.000    0.000    0.000    0.000    0.000    0.000 
#
# Total GULP energy -133738.353310 kJ/mol
# GULP energy per Si atom -5572.431388 kJ/mol
# Density = 2.135856 g / cm^3
# Si number density = 21.407281 Si / 1000 Ang^3
#
#
#
# Elastic Constant Matrix: (Units=GPa)
#
#
# Indices 1 2 3 4 5 6 
#
# 1 91.2211 46.2938 12.8377 0.0000 16.6043 0.0000
# 2 46.2938 149.7378 3.8750 0.0000 2.5689 0.0000
# 3 12.8377 3.8750 51.9790 0.0000 10.7956 0.0000
# 4 0.0000 0.0000 0.0000 31.9537 0.0000 14.2001
# 5 16.6043 2.5689 10.7956 0.0000 29.6391 0.0000
# 6 0.0000 0.0000 0.0000 14.2001 0.0000 34.8358
#
#
#
# Elastic Compliance Matrix: (Units=1/GPa)
#
#
# Indices 1 2 3 4 5 6 
#
# 1 0.014763 -0.004393 -0.001818 0.000000 -0.007228 0.000000
# 2 -0.004393 0.008004 0.000131 0.000000 0.001720 0.000000
# 3 -0.001818 0.000131 0.021062 0.000000 -0.006665 0.000000
# 4 0.000000 0.000000 0.000000 0.038218 0.000000 -0.015579
# 5 -0.007228 0.001720 -0.006665 0.000000 0.040067 0.000000
# 6 0.000000 0.000000 0.000000 -0.015579 0.000000 0.035057
#
#
# Mechanical properties :
#
#
# Convention : Reuss Voigt Hill
#
# Bulk Modulus (GPa) = 31.57598 46.55008 39.06303
# Shear Modulus (GPa) = 27.79531 34.61449 31.20490
#
# Velocity S-wave (km/s) = 3.60725 4.02549 3.82210
# Velocity P-wave (km/s) = 5.66849 6.58774 6.14533
#
# Compressibility (1/GPa) = 0.03166964
#
# Stress axis : x y z
#
# Youngs Moduli (GPa) = 67.73531 124.94231 47.47928
#
# Poissons Ratio (x) = 0.54891 0.08630
# Poissons Ratio (y) = 0.29758 -0.00623
# Poissons Ratio (z) = 0.12311 -0.01639
#
# Static dielectric constant tensor:
#      x y z
#    x 1.855970 0.000000 -0.045390 
#    y 0.000000 1.730570 0.000000 
#    z -0.045390 0.000000 1.789140 
# 
# From -- ./inp_files/276396.got.cif
#   From: 2010.05.17/outbox.cif.g08.bks.cpg/sg15_139_cif.got.tgz:276396.got - 2010.06.03 18:47:42.
