data_PCOD9266452
_publ_section_title
;
Structure prediction by ZEFSAII (Michael W. Deem and Ramdas Pophale) SiO2 
 PCOD9266452
Probable space group: C 2/C
;
_chemical_formula_sum "Si O2"
_cell_formula_units_Z 64
_cell_length_a 20.163192
_cell_length_b 11.725009
_cell_length_c 26.767827
_cell_angle_alpha 90.000000
_cell_angle_beta 152.096291
_cell_angle_gamma 90.000000
_cell_volume 2961.552241
_symmetry_space_group_name_H-M "C 2/C"
_symmetry_group_IT_number 15
_symmetry_cell_setting 'monoclinic'
loop_
_space_group_symop_operation_xyz
x,y,z
-x,y,1/2-z
-x,-y,-z
x,-y,1/2+z
1/2+x,1/2+y,z
1/2-x,1/2+y,1/2-z
1/2-x,1/2-y,-z
1/2+x,1/2-y,1/2+z
loop_
_atom_site_type_symbol
_atom_site_label
_atom_site_fract_x
_atom_site_fract_y
_atom_site_fract_z
Si Si1 0.343653 0.858651 0.577595
Si Si2 0.295290 0.059186 0.469938
Si Si3 0.925261 0.660256 0.827542
Si Si4 0.420618 0.616688 0.093863
Si Si5 0.592008 0.426989 0.265120
Si Si6 0.374573 0.441202 0.986791
Si Si7 0.357455 0.918479 0.742639
Si Si8 0.144845 0.794784 0.202583
O O1 0.250000 0.750000 0.500000
O O2 0.258096 0.909335 0.566368
O O3 0.511393 0.857402 0.699043
O O4 0.333854 0.942525 0.523839
O O5 0.436405 0.124537 0.548416
O O6 0.214451 0.131812 0.459336
O O7 0.199025 0.017415 0.360755
O O8 0.899133 0.551190 0.774883
O O9 0.783980 0.675084 0.764782
O O10 0.974900 0.776563 0.834355
O O11 0.485655 0.503903 0.162445
O O12 0.403089 0.571185 0.024978
O O13 0.500000 0.376505 0.250000
O O14 0.658058 0.342559 0.268466
O O15 0.302554 0.420974 0.885274
O O16 0.507272 0.357334 0.086727
O O17 0.361707 0.842289 0.795950
#
# Coordination Sequence:
#
# PCOD9266452 Si02
#       8
#     8   8   8   8   8   8   8   8
#     4  10  19  37  64  98 132 158 203 280 321 370
#     4   9  20  39  65  93 122 170 224 261 329 389
#     4  11  25  42  61  92 135 173 220 280 327 400
#     4   9  20  42  66  90 130 171 217 278 328 383
#     4   9  20  38  66  95 118 174 226 264 330 399
#     4  10  22  42  66  96 127 174 213 264 332 398
#     4  11  25  40  66  99 125 175 225 261 333 404
#     4  11  25  41  62  94 139 171 212 280 337 387
#
# _framework density 21.610289000000002
#
# number of rings (size 3 to 8) (size 9 to 14) (size 15 to 20)
#    0.000    2.000    1.250    1.500    5.250    2.000 
#    2.250    6.250    0.000    0.000    0.000    0.000 
#    0.000    0.000    0.000    0.000    0.000    0.000 
#
# Total GULP energy -178240.771134 kJ/mol
# GULP energy per Si atom -5570.024098 kJ/mol
# Density = 2.156110 g / cm^3
# Si number density = 21.610289 Si / 1000 Ang^3
#
#
#
# Elastic Constant Matrix: (Units=GPa)
#
#
# Indices 1 2 3 4 5 6 
#
# 1 64.4693 30.5084 35.9976 0.0001 33.2338 0.0000
# 2 30.5084 108.6326 25.0005 -0.0015 8.5892 -0.0007
# 3 35.9976 25.0005 112.6132 -0.0028 19.2733 -0.0012
# 4 0.0001 -0.0015 -0.0028 28.6656 -0.0008 6.4234
# 5 33.2338 8.5892 19.2733 -0.0008 30.6282 -0.0004
# 6 0.0000 -0.0007 -0.0012 6.4234 -0.0004 19.2745
#
#
#
# Elastic Compliance Matrix: (Units=1/GPa)
#
#
# Indices 1 2 3 4 5 6 
#
# 1 0.043683 -0.007784 -0.005040 -0.000002 -0.042045 -0.000001
# 2 -0.007784 0.011152 -0.001006 0.000001 0.005952 0.000000
# 3 -0.005040 -0.001006 0.010905 0.000001 -0.001111 0.000000
# 4 -0.000002 0.000001 0.000001 0.037700 0.000002 -0.012564
# 5 -0.042045 0.005952 -0.001111 0.000002 0.077301 0.000001
# 6 -0.000001 0.000000 0.000000 -0.012564 0.000001 0.056069
#
#
# Mechanical properties :
#
#
# Convention : Reuss Voigt Hill
#
# Bulk Modulus (GPa) = 26.26049 52.08091 39.17070
# Shear Modulus (GPa) = 18.03995 28.66092 23.35043
#
# Velocity S-wave (km/s) = 2.89240 3.64574 3.29070
# Velocity P-wave (km/s) = 4.83041 6.47103 5.70995
#
# Compressibility (1/GPa) = 0.03808001
#
# Stress axis : x y z
#
# Youngs Moduli (GPa) = 22.89244 89.66735 91.70519
#
# Poissons Ratio (x) = 0.69794 0.46216
# Poissons Ratio (y) = 0.17819 0.09229
# Poissons Ratio (z) = 0.11537 0.09024
#
# Static dielectric constant tensor:
#      x y z
#    x 1.818100 0.000000 -0.032790 
#    y 0.000000 1.834610 0.000000 
#    z -0.032790 0.000000 1.918380 
# 
# From -- ./inp_files/300849.got.cif
#   From: 2010.05.17/outbox.cif.g08.bks.cpg/sg15_151_cif.got.tgz:300849.got - 2010.06.03 18:47:42.
