data_PCOD9266764
_publ_section_title
;
Structure prediction by ZEFSAII (Michael W. Deem and Ramdas Pophale) SiO2 
 PCOD9266764
Probable space group: C 2/C
;
_chemical_formula_sum "Si O2"
_cell_formula_units_Z 36
_cell_length_a 9.425234
_cell_length_b 15.914786
_cell_length_c 13.471384
_cell_angle_alpha 90.000000
_cell_angle_beta 52.770835
_cell_angle_gamma 90.000000
_cell_volume 1608.938209
_symmetry_space_group_name_H-M "C 2/C"
_symmetry_group_IT_number 15
_symmetry_cell_setting 'monoclinic'
loop_
_space_group_symop_operation_xyz
x,y,z
-x,y,1/2-z
-x,-y,-z
x,-y,1/2+z
1/2+x,1/2+y,z
1/2-x,1/2+y,1/2-z
1/2-x,1/2-y,-z
1/2+x,1/2-y,1/2+z
loop_
_atom_site_type_symbol
_atom_site_label
_atom_site_fract_x
_atom_site_fract_y
_atom_site_fract_z
Si Si1 0.000000 0.034756 0.750000
Si Si2 0.583244 0.089811 0.489656
Si Si3 0.962093 0.255523 0.382869
Si Si4 0.279324 0.396935 0.717537
Si Si5 0.673034 0.523842 0.491161
O O1 0.887556 0.076776 0.885951
O O2 0.737389 0.940650 0.001097
O O3 0.470689 0.158832 0.594917
O O4 0.643790 0.131739 0.360434
O O5 0.500000 0.000000 0.500000
O O6 0.750000 0.250000 0.500000
O O7 0.000000 0.260834 0.250000
O O8 0.075802 0.174653 0.366698
O O9 0.371018 0.473157 0.741521
O O10 0.209615 0.430268 0.641643
O O11 0.500000 0.500000 0.500000
#
# Coordination Sequence:
#
# PCOD9266764 Si02
#       5
#     4   8   8   8   8
#     4   8  14  32  52  92 118 152 206 262 310 390
#     4  11  25  41  62 101 136 170 225 280 338 408
#     4  12  22  41  68  97 133 177 230 283 333 403
#     4  10  19  38  60  92 129 164 221 276 326 394
#     4   9  18  35  63  87 127 169 210 270 333 394
#
# _framework density 22.375005000000002
#
# number of rings (size 3 to 8) (size 9 to 14) (size 15 to 20)
#    0.000    1.778    3.333    2.667    3.111    0.000 
#    4.000    1.111    0.000    0.000    0.000    0.000 
#    0.000    0.000    0.000    0.000    0.000    0.000 
#
# Total GULP energy -100243.942069 kJ/mol
# GULP energy per Si atom -5569.107893 kJ/mol
# Density = 2.232408 g / cm^3
# Si number density = 22.375005 Si / 1000 Ang^3
#
#
#
# Elastic Constant Matrix: (Units=GPa)
#
#
# Indices 1 2 3 4 5 6 
#
# 1 64.8159 27.3138 35.7757 0.0000 16.1870 0.0000
# 2 27.3138 89.5891 36.5900 0.0000 6.0575 0.0000
# 3 35.7757 36.5900 150.2175 0.0000 41.5413 0.0000
# 4 0.0000 0.0000 0.0000 33.5249 0.0000 0.2556
# 5 16.1870 6.0575 41.5413 0.0000 45.8121 0.0000
# 6 0.0000 0.0000 0.0000 0.2556 0.0000 27.1709
#
#
#
# Elastic Compliance Matrix: (Units=1/GPa)
#
#
# Indices 1 2 3 4 5 6 
#
# 1 0.019812 -0.004779 -0.002393 0.000000 -0.004198 0.000000
# 2 -0.004779 0.013622 -0.002868 0.000000 0.002488 0.000000
# 3 -0.002393 -0.002868 0.010126 0.000000 -0.007957 0.000000
# 4 0.000000 0.000000 0.000000 0.029831 0.000000 -0.000281
# 5 -0.004198 0.002488 -0.007957 0.000000 0.030198 0.000000
# 6 0.000000 0.000000 0.000000 -0.000281 0.000000 0.036807
#
#
# Mechanical properties :
#
#
# Convention : Reuss Voigt Hill
#
# Bulk Modulus (GPa) = 42.59030 55.99794 49.29412
# Shear Modulus (GPa) = 29.70850 34.96445 32.33648
#
# Velocity S-wave (km/s) = 3.64779 3.95733 3.80571
# Velocity P-wave (km/s) = 6.06778 6.77953 6.43350
#
# Compressibility (1/GPa) = 0.02347953
#
# Stress axis : x y z
#
# Youngs Moduli (GPa) = 50.47557 73.41000 98.75473
#
# Poissons Ratio (x) = 0.35081 0.23636
# Poissons Ratio (y) = 0.24121 0.28323
# Poissons Ratio (z) = 0.12081 0.21054
#
# Static dielectric constant tensor:
#      x y z
#    x 1.923690 0.000000 -0.110140 
#    y 0.000000 1.848260 0.000000 
#    z -0.110140 0.000000 2.073250 
# 
# From -- ./inp_files/144011.got.cif
#   From: 2010.05.17/outbox.cif.g08.bks.cpg/sg15_73_cif.got.tgz:144011.got - 2010.06.03 18:47:42.
