data_PCOD9266618
_publ_section_title
;
Structure prediction by ZEFSAII (Michael W. Deem and Ramdas Pophale) SiO2 
 PCOD9266618
Probable space group: C 2/C
;
_chemical_formula_sum "Si O2"
_cell_formula_units_Z 48
_cell_length_a 11.276046
_cell_length_b 25.255319
_cell_length_c 6.896207
_cell_angle_alpha 90.000000
_cell_angle_beta 118.809092
_cell_angle_gamma 90.000000
_cell_volume 1720.830974
_symmetry_space_group_name_H-M "C 2/C"
_symmetry_group_IT_number 15
_symmetry_cell_setting 'monoclinic'
loop_
_space_group_symop_operation_xyz
x,y,z
-x,y,1/2-z
-x,-y,-z
x,-y,1/2+z
1/2+x,1/2+y,z
1/2-x,1/2+y,1/2-z
1/2-x,1/2-y,-z
1/2+x,1/2-y,1/2+z
loop_
_atom_site_type_symbol
_atom_site_label
_atom_site_fract_x
_atom_site_fract_y
_atom_site_fract_z
Si Si1 0.168208 0.177609 0.518189
Si Si2 0.237149 0.092398 0.053806
Si Si3 0.500000 0.422480 0.750000
Si Si4 0.561504 0.147981 0.532707
Si Si5 0.000000 0.735145 0.750000
Si Si6 0.000000 0.556658 0.750000
Si Si7 0.000000 0.165127 0.750000
Si Si8 0.217626 0.016391 0.663927
O O1 0.311970 0.161098 0.719947
O O2 0.128745 0.225020 0.341532
O O3 0.084228 0.192428 0.647726
O O4 0.115051 0.124148 0.378353
O O5 0.363962 0.132024 0.110661
O O6 0.105260 0.128092 0.945938
O O7 0.229146 0.055095 0.856736
O O8 0.216819 0.047028 0.197945
O O9 0.418690 0.464865 0.548873
O O10 0.480340 0.199622 0.538842
O O11 0.489939 0.095696 0.558443
O O12 0.864267 0.524012 0.675410
#
# Coordination Sequence:
#
# PCOD9266618 Si02
#       8
#     8   8   4   8   4   4   4   8
#     4  10  20  35  59  91 111 148 194 245 292 344
#     4  10  22  36  56  84 119 160 192 235 283 339
#     4  11  19  35  56  90 118 142 207 238 272 348
#     4   9  18  38  55  83 115 148 191 239 295 331
#     4  10  20  34  67  80 112 143 204 237 299 346
#     4   9  18  37  58  79 117 162 181 244 277 346
#     4  10  19  38  55  81 129 145 182 251 300 322
#     4  11  22  35  57  84 119 157 202 225 286 339
#
# _framework density 27.893498999999998
#
# number of rings (size 3 to 8) (size 9 to 14) (size 15 to 20)
#    0.000    2.000    5.000    1.000    2.333    4.000 
#    0.000    3.333    0.000    7.000    0.000    0.000 
#    0.000    0.000    0.000    0.000    0.000    0.000 
#
# Total GULP energy -133868.875318 kJ/mol
# GULP energy per Si atom -5577.869805 kJ/mol
# Density = 2.783001 g / cm^3
# Si number density = 27.893499 Si / 1000 Ang^3
#
#
#
# Elastic Constant Matrix: (Units=GPa)
#
#
# Indices 1 2 3 4 5 6 
#
# 1 98.6682 6.7902 12.3964 0.0000 -3.5686 0.0000
# 2 6.7902 145.6903 9.3058 0.0000 -5.3154 0.0000
# 3 12.3964 9.3058 69.9543 0.0000 -13.5030 0.0000
# 4 0.0000 0.0000 0.0000 4.0300 0.0000 -12.3746
# 5 -3.5686 -5.3154 -13.5030 0.0000 47.8469 0.0000
# 6 0.0000 0.0000 0.0000 -12.3746 0.0000 20.5777
#
#
#
# Elastic Compliance Matrix: (Units=1/GPa)
#
#
# Indices 1 2 3 4 5 6 
#
# 1 0.010388 -0.000364 -0.001746 0.000000 0.000242 0.000000
# 2 -0.000364 0.006949 -0.000757 0.000000 0.000531 0.000000
# 3 -0.001746 -0.000757 0.015509 0.000000 0.004162 0.000000
# 4 0.000000 0.000000 0.000000 -0.293122 0.000000 -0.176271
# 5 0.000242 0.000531 0.004162 0.000000 0.022152 0.000000
# 6 0.000000 0.000000 0.000000 -0.176271 0.000000 -0.057406
#
#
# Mechanical properties :
#
#
# Convention : Reuss Voigt Hill
#
# Bulk Modulus (GPa) = 36.88500 41.25530 39.07015
# Shear Modulus (GPa) = -17.80883 33.54563 7.86840
#
# Velocity S-wave (km/s) = -2.52951 3.47166 1.68137
# Velocity P-wave (km/s) = 2.17278 5.55809 4.21979
#
# Compressibility (1/GPa) = 0.02711129
#
# Stress axis : x y z
#
# Youngs Moduli (GPa) = 96.26404 143.91428 64.48032
#
# Poissons Ratio (x) = 0.05236 0.11257
# Poissons Ratio (y) = 0.03502 0.04884
# Poissons Ratio (z) = 0.16806 0.10900
#
# Static dielectric constant tensor:
#      x y z
#    x 4.829100 0.000000 0.756070 
#    y 0.000000 2.132020 0.000000 
#    z 0.756070 0.000000 2.574850 
# 
# From -- ./inp_files/33866.got.cif
#   From: 2010.05.17/outbox.cif.g08.bks.cpg/sg15_17_cif.got.tgz:33866.got - 2010.06.03 18:47:42.
