data_PCOD9266769
_publ_section_title
;
Structure prediction by ZEFSAII (Michael W. Deem and Ramdas Pophale) SiO2 
 PCOD9266769
Probable space group: C 2/C
;
_chemical_formula_sum "Si O2"
_cell_formula_units_Z 32
_cell_length_a 8.134161
_cell_length_b 25.535975
_cell_length_c 7.635700
_cell_angle_alpha 90.000000
_cell_angle_beta 59.464512
_cell_angle_gamma 90.000000
_cell_volume 1366.079242
_symmetry_space_group_name_H-M "C 2/C"
_symmetry_group_IT_number 15
_symmetry_cell_setting 'monoclinic'
loop_
_space_group_symop_operation_xyz
x,y,z
-x,y,1/2-z
-x,-y,-z
x,-y,1/2+z
1/2+x,1/2+y,z
1/2-x,1/2+y,1/2-z
1/2-x,1/2-y,-z
1/2+x,1/2-y,1/2+z
loop_
_atom_site_type_symbol
_atom_site_label
_atom_site_fract_x
_atom_site_fract_y
_atom_site_fract_z
Si Si1 0.500000 0.366503 0.750000
Si Si2 0.500000 0.091509 0.250000
Si Si3 0.807466 0.781583 0.292453
Si Si4 0.590003 0.445368 0.013983
Si Si5 0.597214 0.819460 0.984252
O O1 0.456046 0.402743 0.608140
O O2 0.316892 0.333584 0.909644
O O3 0.319617 0.056096 0.398880
O O4 0.449828 0.131604 0.120540
O O5 0.750000 0.750000 0.500000
O O6 0.619590 0.811126 0.321174
O O7 0.868469 0.736444 0.126670
O O8 0.000000 0.811861 0.250000
O O9 0.500000 0.433390 0.250000
O O10 0.500000 0.500000 0.000000
#
# Coordination Sequence:
#
# PCOD9266769 Si02
#       5
#     4   4   8   8   8
#     4  10  24  44  68 102 144 168 242 280 332 426
#     4  10  22  40  68 100 140 176 234 276 336 426
#     4   9  16  31  60  89 131 179 230 271 337 383
#     4  11  24  48  74 101 136 180 219 290 361 411
#     4  10  19  38  60  95 136 184 222 287 323 397
#
# _framework density 23.424703000000001
#
# number of rings (size 3 to 8) (size 9 to 14) (size 15 to 20)
#    0.000    2.000    5.000    0.000    0.000    3.000 
#    4.500    0.000    0.000    0.000    0.000    0.000 
#    0.000    0.000    0.000    0.000    0.000    0.000 
#
# Total GULP energy -89253.435018 kJ/mol
# GULP energy per Si atom -5578.339689 kJ/mol
# Density = 2.337139 g / cm^3
# Si number density = 23.424703 Si / 1000 Ang^3
#
#
#
# Elastic Constant Matrix: (Units=GPa)
#
#
# Indices 1 2 3 4 5 6 
#
# 1 177.4955 56.8209 70.7156 0.0000 -68.1927 0.0000
# 2 56.8209 112.1986 62.2057 0.0000 -30.6861 0.0000
# 3 70.7156 62.2057 181.1983 0.0000 -58.5851 0.0000
# 4 0.0000 0.0000 0.0000 43.6421 0.0000 38.5608
# 5 -68.1927 -30.6861 -58.5851 0.0000 50.4338 0.0000
# 6 0.0000 0.0000 0.0000 38.5608 0.0000 341.6669
#
#
#
# Elastic Compliance Matrix: (Units=1/GPa)
#
#
# Indices 1 2 3 4 5 6 
#
# 1 0.012313 -0.002444 0.001499 0.000000 0.016903 0.000000
# 2 -0.002444 0.011941 -0.002987 0.000000 0.000492 0.000000
# 3 0.001499 -0.002987 0.009652 0.000000 0.011421 0.000000
# 4 0.000000 0.000000 0.000000 0.025452 0.000000 -0.002872
# 5 0.016903 0.000492 0.011421 0.000000 0.056248 0.000000
# 6 0.000000 0.000000 0.000000 -0.002872 0.000000 0.003251
#
#
# Mechanical properties :
#
#
# Convention : Reuss Voigt Hill
#
# Bulk Modulus (GPa) = 38.39920 94.48630 66.44275
# Shear Modulus (GPa) = 36.92733 105.89191 71.40962
#
# Velocity S-wave (km/s) = 3.97473 6.73078 5.52729
# Velocity P-wave (km/s) = 6.12314 10.04133 8.31628
#
# Compressibility (1/GPa) = 0.02604221
#
# Stress axis : x y z
#
# Youngs Moduli (GPa) = 81.21412 83.74744 103.60661
#
# Poissons Ratio (x) = 0.20465 -0.15526
# Poissons Ratio (y) = 0.19846 0.30943
# Poissons Ratio (z) = -0.12170 0.25012
#
# Static dielectric constant tensor:
#      x y z
#    x 2.345610 0.000000 0.330340 
#    y 0.000000 1.788940 0.000000 
#    z 0.330340 0.000000 2.279910 
# 
# From -- ./inp_files/24276.got.cif
#   From: 2010.05.17/outbox.cif.g08.bks.cpg/sg15_13_cif.got.tgz:24276.got - 2010.06.03 18:47:42.
