data_PCOD9266443
_publ_section_title
;
Structure prediction by ZEFSAII (Michael W. Deem and Ramdas Pophale) SiO2 
 PCOD9266443
Probable space group: C 2/C
;
_chemical_formula_sum "Si O2"
_cell_formula_units_Z 44
_cell_length_a 19.386910
_cell_length_b 15.299563
_cell_length_c 17.516772
_cell_angle_alpha 90.000000
_cell_angle_beta 159.190681
_cell_angle_gamma 90.000000
_cell_volume 1845.809140
_symmetry_space_group_name_H-M "C 2/C"
_symmetry_group_IT_number 15
_symmetry_cell_setting 'monoclinic'
loop_
_space_group_symop_operation_xyz
x,y,z
-x,y,1/2-z
-x,-y,-z
x,-y,1/2+z
1/2+x,1/2+y,z
1/2-x,1/2+y,1/2-z
1/2-x,1/2-y,-z
1/2+x,1/2-y,1/2+z
loop_
_atom_site_type_symbol
_atom_site_label
_atom_site_fract_x
_atom_site_fract_y
_atom_site_fract_z
Si Si1 0.617053 0.336505 0.024082
Si Si2 0.999224 0.672770 0.389309
Si Si3 0.500000 0.055927 0.250000
Si Si4 0.067150 0.639424 0.008294
Si Si5 0.161067 0.966817 0.812149
Si Si6 0.550646 0.634652 0.628675
O O1 0.624281 0.231588 0.028006
O O2 0.478557 0.383827 0.820483
O O3 0.837194 0.370801 0.255024
O O4 0.518060 0.357123 0.004485
O O5 0.928154 0.619890 0.243378
O O6 0.016432 0.777265 0.399023
O O7 0.896603 0.651783 0.363605
O O8 0.217125 0.640468 0.625012
O O9 0.688972 0.999405 0.468693
O O10 0.187159 0.560817 0.097358
O O11 0.014877 0.042769 0.631772
#
# Coordination Sequence:
#
# PCOD9266443 Si02
#       6
#     8   8   4   8   8   8
#     4  10  19  37  64  96 122 159 208 264 316 351
#     4   9  20  38  61  89 129 163 200 253 324 371
#     4  10  24  42  60  90 132 172 200 252 316 376
#     4  10  20  38  68  94 121 163 209 263 313 359
#     4  11  22  40  63  92 128 162 215 260 297 374
#     4   9  20  36  60  93 118 160 205 259 307 363
#
# _framework density 23.837783999999999
#
# number of rings (size 3 to 8) (size 9 to 14) (size 15 to 20)
#    0.000    2.182    1.818    0.545    2.545    9.455 
#    6.545    1.818    4.000    0.000    0.000    0.000 
#    0.000    0.000    0.000    0.000    0.000    0.000 
#
# Total GULP energy -122954.939426 kJ/mol
# GULP energy per Si atom -5588.860883 kJ/mol
# Density = 2.378353 g / cm^3
# Si number density = 23.837784 Si / 1000 Ang^3
#
#
#
# Elastic Constant Matrix: (Units=GPa)
#
#
# Indices 1 2 3 4 5 6 
#
# 1 58.9210 45.8737 32.6855 0.0015 -6.2802 -0.0063
# 2 45.8737 135.1335 53.8335 -0.0223 -21.5790 -0.0162
# 3 32.6855 53.8335 92.6437 0.1001 -16.2774 0.0315
# 4 0.0015 -0.0223 0.1001 3.3888 0.0138 -24.2014
# 5 -6.2802 -21.5790 -16.2774 0.0138 28.6144 0.0010
# 6 -0.0063 -0.0162 0.0315 -24.2014 0.0010 18.1134
#
#
#
# Elastic Compliance Matrix: (Units=1/GPa)
#
#
# Indices 1 2 3 4 5 6 
#
# 1 0.024904 -0.006757 -0.005328 -0.000023 -0.002660 -0.000019
# 2 -0.006757 0.012022 -0.003633 -0.000032 0.005517 -0.000028
# 3 -0.005328 -0.003633 0.015663 0.000086 0.005001 0.000083
# 4 -0.000023 -0.000032 0.000086 -0.034546 0.000038 -0.046157
# 5 -0.002660 0.005517 0.005001 0.000038 0.041369 0.000044
# 6 -0.000019 -0.000028 0.000083 -0.046157 0.000044 -0.006463
#
#
# Mechanical properties :
#
#
# Convention : Reuss Voigt Hill
#
# Bulk Modulus (GPa) = 47.26892 61.27593 54.27243
# Shear Modulus (GPa) = 54.68367 20.31034 37.49701
#
# Velocity S-wave (km/s) = 4.79476 2.92211 3.97042
# Velocity P-wave (km/s) = 7.10812 6.09476 6.62086
#
# Compressibility (1/GPa) = 0.02115555
#
# Stress axis : x y z
#
# Youngs Moduli (GPa) = 40.15390 83.18229 63.84455
#
# Poissons Ratio (x) = 0.56203 0.34014
# Poissons Ratio (y) = 0.27130 0.23192
# Poissons Ratio (z) = 0.21392 0.30216
#
# Static dielectric constant tensor:
#      x y z
#    x 1.938820 0.000000 -0.006820 
#    y 0.000000 1.940340 0.000000 
#    z -0.006820 0.000000 1.950020 
# 
# From -- ./inp_files/255670.got.cif
#   From: 2010.05.17/outbox.cif.g08.bks.cpg/sg15_128_cif.got.tgz:255670.got - 2010.06.03 18:47:42.
