data_PCOD9266884
_publ_section_title
;
Structure prediction by ZEFSAII (Michael W. Deem and Ramdas Pophale) SiO2 
 PCOD9266884
Probable space group: C 2/C
;
_chemical_formula_sum "Si O2"
_cell_formula_units_Z 56
_cell_length_a 9.398268
_cell_length_b 14.879295
_cell_length_c 19.602549
_cell_angle_alpha 90.000000
_cell_angle_beta 70.024963
_cell_angle_gamma 90.000000
_cell_volume 2576.305534
_symmetry_space_group_name_H-M "C 2/C"
_symmetry_group_IT_number 15
_symmetry_cell_setting 'monoclinic'
loop_
_space_group_symop_operation_xyz
x,y,z
-x,y,1/2-z
-x,-y,-z
x,-y,1/2+z
1/2+x,1/2+y,z
1/2-x,1/2+y,1/2-z
1/2-x,1/2-y,-z
1/2+x,1/2-y,1/2+z
loop_
_atom_site_type_symbol
_atom_site_label
_atom_site_fract_x
_atom_site_fract_y
_atom_site_fract_z
Si Si1 0.262404 0.583965 0.261485
Si Si2 0.000992 0.477377 0.616075
Si Si3 0.490767 0.671643 0.470764
Si Si4 0.688752 0.181135 0.151533
Si Si5 0.066788 0.947716 0.638079
Si Si6 0.520486 0.130577 0.513874
Si Si7 0.343306 0.360459 0.416150
O O1 0.130500 0.516441 0.306138
O O2 0.184523 0.665155 0.233141
O O3 0.350702 0.608453 0.316069
O O4 0.390710 0.546511 0.189718
O O5 0.053474 0.571664 0.575907
O O6 0.123093 0.409162 0.627587
O O7 0.934913 0.425615 0.560188
O O8 0.636531 0.690474 0.398938
O O9 0.406663 0.596645 0.440105
O O10 0.416991 0.768874 0.494061
O O11 0.557557 0.638205 0.531401
O O12 0.616400 0.270821 0.132532
O O13 0.127338 0.048592 0.628977
O O14 0.336240 0.140524 0.537204
#
# Coordination Sequence:
#
# PCOD9266884 Si02
#       7
#     8   8   8   8   8   8   8
#     4  10  22  40  54  82 119 163 194 236 288 357
#     4  11  19  37  59  87 119 149 192 247 294 341
#     4  10  19  38  62  91 114 150 196 250 294 349
#     4  10  20  36  65  86 116 150 201 240 291 352
#     4  10  22  39  60  80 124 159 192 240 302 343
#     4  10  20  34  64  88 116 149 192 246 307 337
#     4  11  18  39  62  93 113 152 202 246 287 355
#
# _framework density 21.736552
#
# number of rings (size 3 to 8) (size 9 to 14) (size 15 to 20)
#    0.000    1.714    4.286    1.714    0.000    0.000 
#    5.143    2.143    9.429    0.000    0.000    0.000 
#    0.000    0.000    0.000    0.000    0.000    0.000 
#
# Total GULP energy -156242.228427 kJ/mol
# GULP energy per Si atom -5580.079587 kJ/mol
# Density = 2.168708 g / cm^3
# Si number density = 21.736552 Si / 1000 Ang^3
#
#
#
# Elastic Constant Matrix: (Units=GPa)
#
#
# Indices 1 2 3 4 5 6 
#
# 1 52.8366 20.4067 19.3479 0.0000 16.3551 0.0000
# 2 20.4067 63.8334 23.5327 0.0000 29.7405 0.0000
# 3 19.3479 23.5327 88.9242 0.0000 21.5317 0.0000
# 4 0.0000 0.0000 0.0000 25.6246 0.0000 2.2526
# 5 16.3551 29.7405 21.5317 0.0000 43.0966 0.0000
# 6 0.0000 0.0000 0.0000 2.2526 0.0000 17.5070
#
#
#
# Elastic Compliance Matrix: (Units=1/GPa)
#
#
# Indices 1 2 3 4 5 6 
#
# 1 0.022954 -0.004271 -0.002808 0.000000 -0.004360 0.000000
# 2 -0.004271 0.024409 -0.002098 0.000000 -0.014175 0.000000
# 3 -0.002808 -0.002098 0.013427 0.000000 -0.004195 0.000000
# 4 0.000000 0.000000 0.000000 0.039472 0.000000 -0.005079
# 5 -0.004360 -0.014175 -0.004195 0.000000 0.036737 0.000000
# 6 0.000000 0.000000 0.000000 -0.005079 0.000000 0.057774
#
#
# Mechanical properties :
#
#
# Convention : Reuss Voigt Hill
#
# Bulk Modulus (GPa) = 23.56486 36.90764 30.23625
# Shear Modulus (GPa) = 22.00003 26.73274 24.36639
#
# Velocity S-wave (km/s) = 3.18484 3.51073 3.35175
# Velocity P-wave (km/s) = 4.93851 5.78360 5.37768
#
# Compressibility (1/GPa) = 0.04243607
#
# Stress axis : x y z
#
# Youngs Moduli (GPa) = 43.56546 40.96834 74.47409
#
# Poissons Ratio (x) = 0.17499 0.20913
# Poissons Ratio (y) = 0.18608 0.15624
# Poissons Ratio (z) = 0.12234 0.08595
#
# Static dielectric constant tensor:
#      x y z
#    x 1.881670 0.000000 -0.001230 
#    y 0.000000 1.787500 0.000000 
#    z -0.001230 0.000000 1.805950 
# 
# From -- ./inp_files/197749.got.cif
#   From: 2010.05.17/outbox.cif.g08.bks.cpg/sg15_99_cif.got.tgz:197749.got - 2010.06.03 18:47:42.
