data_PCOD9266010
_publ_section_title
;
Structure prediction by ZEFSAII (Michael W. Deem and Ramdas Pophale) SiO2 
 PCOD9266010
Probable space group: C 2/C
;
_chemical_formula_sum "Si O2"
_cell_formula_units_Z 56
_cell_length_a 21.661399
_cell_length_b 13.543891
_cell_length_c 24.447290
_cell_angle_alpha 90.000000
_cell_angle_beta 25.153608
_cell_angle_gamma 90.000000
_cell_volume 3048.576804
_symmetry_space_group_name_H-M "C 2/C"
_symmetry_group_IT_number 15
_symmetry_cell_setting 'monoclinic'
loop_
_space_group_symop_operation_xyz
x,y,z
-x,y,1/2-z
-x,-y,-z
x,-y,1/2+z
1/2+x,1/2+y,z
1/2-x,1/2+y,1/2-z
1/2-x,1/2-y,-z
1/2+x,1/2-y,1/2+z
loop_
_atom_site_type_symbol
_atom_site_label
_atom_site_fract_x
_atom_site_fract_y
_atom_site_fract_z
Si Si1 0.697288 0.745069 0.289133
Si Si2 0.801699 0.423380 0.132133
Si Si3 0.607781 0.533280 0.210453
Si Si4 0.841249 0.671908 0.964848
Si Si5 0.157450 0.599492 0.720257
Si Si6 0.447090 0.648179 0.436857
Si Si7 0.620655 0.064372 0.335486
O O1 0.684346 0.818522 0.350219
O O2 0.694271 0.815065 0.236967
O O3 0.567468 0.665023 0.386738
O O4 0.836164 0.677157 0.189175
O O5 0.672291 0.445122 0.194663
O O6 0.793217 0.502568 0.187682
O O7 0.950860 0.447463 0.982442
O O8 0.500000 0.499133 0.250000
O O9 0.526345 0.607062 0.318750
O O10 0.734419 0.591119 0.075997
O O11 0.889132 0.741109 0.975938
O O12 0.000398 0.628916 0.819382
O O13 0.750000 0.750000 0.000000
O O14 0.298429 0.591958 0.568793
O O15 0.147117 0.494120 0.758428
#
# Coordination Sequence:
#
# PCOD9266010 Si02
#       7
#     8   8   8   8   8   8   8
#     4  10  20  36  59  86 120 156 198 251 308 355
#     4  10  21  37  59  87 118 162 201 245 308 365
#     4  12  23  40  58  86 124 162 201 242 295 372
#     4  11  21  37  56  83 118 161 196 231 297 367
#     4  10  22  35  56  88 124 153 195 250 303 363
#     4  11  22  34  55  89 123 151 195 248 299 357
#     4  10  19  37  59  85 120 157 199 250 306 363
#
# _framework density 18.369228
#
# number of rings (size 3 to 8) (size 9 to 14) (size 15 to 20)
#    0.000    1.429    4.286    2.571    2.000    0.571 
#    2.571    0.000    0.000    0.857    3.714    0.000 
#    0.000    0.000    0.000    0.000    0.000    0.000 
#
# Total GULP energy -155872.411211 kJ/mol
# GULP energy per Si atom -5566.871829 kJ/mol
# Density = 1.832742 g / cm^3
# Si number density = 18.369228 Si / 1000 Ang^3
#
#
#
# Elastic Constant Matrix: (Units=GPa)
#
#
# Indices 1 2 3 4 5 6 
#
# 1 84.1305 20.2031 44.2082 0.0002 -20.9787 0.0002
# 2 20.2031 40.3140 19.5334 0.0027 -2.0395 -0.0008
# 3 44.2082 19.5334 73.7388 -0.0003 -11.9299 -0.0005
# 4 0.0002 0.0027 -0.0003 15.2713 -0.0005 -1.1508
# 5 -20.9787 -2.0395 -11.9299 -0.0005 23.3587 0.0000
# 6 0.0002 -0.0008 -0.0005 -1.1508 0.0000 32.4120
#
#
#
# Elastic Compliance Matrix: (Units=1/GPa)
#
#
# Indices 1 2 3 4 5 6 
#
# 1 0.021606 -0.005676 -0.009146 0.000001 0.014237 0.000000
# 2 -0.005676 0.029996 -0.005390 -0.000005 -0.005231 0.000000
# 3 -0.009146 -0.005390 0.020785 0.000002 0.001931 0.000000
# 4 0.000001 -0.000005 0.000002 0.065658 0.000003 0.002331
# 5 0.014237 -0.005231 0.001931 0.000003 0.056127 0.000000
# 6 0.000000 0.000000 0.000000 0.002331 0.000000 0.030936
#
#
# Mechanical properties :
#
#
# Convention : Reuss Voigt Hill
#
# Bulk Modulus (GPa) = 31.28536 40.67475 35.98006
# Shear Modulus (GPa) = 18.10384 21.82430 19.96407
#
# Velocity S-wave (km/s) = 3.14276 3.45061 3.30027
# Velocity P-wave (km/s) = 5.49887 6.16981 5.84398
#
# Compressibility (1/GPa) = 0.03196383
#
# Stress axis : x y z
#
# Youngs Moduli (GPa) = 46.28451 33.33734 48.11225
#
# Poissons Ratio (x) = 0.18921 0.44004
# Poissons Ratio (y) = 0.26269 0.25931
# Poissons Ratio (z) = 0.42332 0.17968
#
# Static dielectric constant tensor:
#      x y z
#    x 1.669980 0.000000 -0.013970 
#    y 0.000000 1.646310 0.000000 
#    z -0.013970 0.000000 1.721910 
# 
# From -- ./inp_files/302293.got.cif
#   From: 2010.05.17/outbox.cif.g08.bks.cpg/sg15_152_cif.got.tgz:302293.got - 2010.06.03 18:47:42.
