data_PCOD9266759
_publ_section_title
;
Structure prediction by ZEFSAII (Michael W. Deem and Ramdas Pophale) SiO2 
 PCOD9266759
Probable space group: C 2/C
;
_chemical_formula_sum "Si O2"
_cell_formula_units_Z 40
_cell_length_a 13.949273
_cell_length_b 9.734206
_cell_length_c 12.823869
_cell_angle_alpha 90.000000
_cell_angle_beta 101.214972
_cell_angle_gamma 90.000000
_cell_volume 1708.039254
_symmetry_space_group_name_H-M "C 2/C"
_symmetry_group_IT_number 15
_symmetry_cell_setting 'monoclinic'
loop_
_space_group_symop_operation_xyz
x,y,z
-x,y,1/2-z
-x,-y,-z
x,-y,1/2+z
1/2+x,1/2+y,z
1/2-x,1/2+y,1/2-z
1/2-x,1/2-y,-z
1/2+x,1/2-y,1/2+z
loop_
_atom_site_type_symbol
_atom_site_label
_atom_site_fract_x
_atom_site_fract_y
_atom_site_fract_z
Si Si1 0.111779 0.479683 0.418439
Si Si2 0.856872 0.263255 0.467407
Si Si3 0.726614 0.613102 0.380080
Si Si4 0.517397 0.304168 0.877382
Si Si5 0.766643 0.613477 0.741926
O O1 0.084713 0.633218 0.444339
O O2 0.031515 0.361685 0.393377
O O3 0.190219 0.437187 0.523881
O O4 0.167612 0.476842 0.321086
O O5 0.750000 0.250000 0.500000
O O6 0.828631 0.321865 0.348357
O O7 0.934940 0.150241 0.443126
O O8 0.626593 0.641318 0.419912
O O9 0.701084 0.496155 0.289104
O O10 0.762660 0.753292 0.331664
O O11 0.500000 0.329442 0.750000
#
# Coordination Sequence:
#
# PCOD9266759 Si02
#       5
#     8   8   8   8   8
#     4  10  21  37  64  88 124 162 208 258 307 363
#     4  11  22  37  63  91 124 163 208 255 305 370
#     4  10  21  37  66  88 125 164 203 253 316 368
#     4  11  20  38  61  91 119 163 208 252 308 363
#     4  10  19  38  60  91 119 162 201 250 307 364
#
# _framework density 23.418665000000001
#
# number of rings (size 3 to 8) (size 9 to 14) (size 15 to 20)
#    0.000    1.600    4.000    4.200    0.000    0.000 
#    0.000    4.000    8.800    0.000    0.000    0.000 
#    0.000    0.000    0.000    0.000    0.000    0.000 
#
# Total GULP energy -111419.699952 kJ/mol
# GULP energy per Si atom -5570.984998 kJ/mol
# Density = 2.336536 g / cm^3
# Si number density = 23.418665 Si / 1000 Ang^3
#
#
#
# Elastic Constant Matrix: (Units=GPa)
#
#
# Indices 1 2 3 4 5 6 
#
# 1 110.9163 19.2952 33.4500 0.0000 -32.3640 0.0000
# 2 19.2952 52.5449 12.0826 0.0000 -16.4667 0.0000
# 3 33.4500 12.0826 106.6269 0.0000 -18.4974 0.0000
# 4 0.0000 0.0000 0.0000 35.0235 0.0000 -0.8638
# 5 -32.3640 -16.4667 -18.4974 0.0000 38.7589 0.0000
# 6 0.0000 0.0000 0.0000 -0.8638 0.0000 24.6917
#
#
#
# Elastic Compliance Matrix: (Units=1/GPa)
#
#
# Indices 1 2 3 4 5 6 
#
# 1 0.012488 -0.001312 -0.002242 0.000000 0.008800 0.000000
# 2 -0.001312 0.022181 -0.000716 0.000000 0.007986 0.000000
# 3 -0.002242 -0.000716 0.010669 0.000000 0.002915 0.000000
# 4 0.000000 0.000000 0.000000 0.028577 0.000000 0.001000
# 5 0.008800 0.007986 0.002915 0.000000 0.037932 0.000000
# 6 0.000000 0.000000 0.000000 0.001000 0.000000 0.040534
#
#
# Mechanical properties :
#
#
# Convention : Reuss Voigt Hill
#
# Bulk Modulus (GPa) = 27.17745 44.41595 35.79670
# Shear Modulus (GPa) = 28.87029 33.37884 31.12456
#
# Velocity S-wave (km/s) = 3.51492 3.77942 3.64957
# Velocity P-wave (km/s) = 5.30124 6.16868 5.75134
#
# Compressibility (1/GPa) = 0.03679521
#
# Stress axis : x y z
#
# Youngs Moduli (GPa) = 80.07653 45.08447 93.73141
#
# Poissons Ratio (x) = 0.05917 0.21018
# Poissons Ratio (y) = 0.10509 0.06715
# Poissons Ratio (z) = 0.17956 0.03230
#
# Static dielectric constant tensor:
#      x y z
#    x 2.009050 0.000000 -0.061470 
#    y 0.000000 2.025980 0.000000 
#    z -0.061470 0.000000 1.864580 
# 
# From -- ./inp_files/94616.got.cif
#   From: 2010.05.17/outbox.cif.g08.bks.cpg/sg15_48_cif.got.tgz:94616.got - 2010.06.03 18:47:42.
