data_PCOD9266304
_publ_section_title
;
Structure prediction by ZEFSAII (Michael W. Deem and Ramdas Pophale) SiO2 
 PCOD9266304
Probable space group: C 2/C
;
_chemical_formula_sum "Si O2"
_cell_formula_units_Z 56
_cell_length_a 11.579945
_cell_length_b 11.407688
_cell_length_c 18.395896
_cell_angle_alpha 90.000000
_cell_angle_beta 88.511509
_cell_angle_gamma 90.000000
_cell_volume 2429.285205
_symmetry_space_group_name_H-M "C 2/C"
_symmetry_group_IT_number 15
_symmetry_cell_setting 'monoclinic'
loop_
_space_group_symop_operation_xyz
x,y,z
-x,y,1/2-z
-x,-y,-z
x,-y,1/2+z
1/2+x,1/2+y,z
1/2-x,1/2+y,1/2-z
1/2-x,1/2-y,-z
1/2+x,1/2-y,1/2+z
loop_
_atom_site_type_symbol
_atom_site_label
_atom_site_fract_x
_atom_site_fract_y
_atom_site_fract_z
Si Si1 0.082159 0.965230 0.311266
Si Si2 0.807542 0.149926 0.558913
Si Si3 0.612785 0.587492 0.092960
Si Si4 0.646846 0.093951 0.390206
Si Si5 0.885801 0.709552 0.790880
Si Si6 0.101650 0.491222 0.613836
Si Si7 0.786506 0.644541 0.271899
O O1 0.178496 0.052376 0.276894
O O2 0.000000 0.916554 0.250000
O O3 0.997732 0.031408 0.368846
O O4 0.145030 0.873872 0.361183
O O5 0.890913 0.108587 0.492685
O O6 0.820853 0.292606 0.559217
O O7 0.694859 0.061437 0.562797
O O8 0.734217 0.520386 0.104754
O O9 0.628047 0.709708 0.137521
O O10 0.525738 0.035863 0.413528
O O11 0.641515 0.121912 0.303254
O O12 0.907301 0.579597 0.817534
O O13 0.778615 0.732306 0.739672
O O14 0.000000 0.752794 0.750000
O O15 0.150973 0.374630 0.652367
#
# Coordination Sequence:
#
# PCOD9266304 Si02
#       7
#     8   8   8   8   8   8   8
#     4  11  20  41  68  90 121 169 213 268 332 392
#     4  11  25  40  64  94 131 172 212 272 340 389
#     4  11  21  41  64  91 129 171 217 269 333 404
#     4  11  22  41  63  92 131 169 220 271 324 402
#     4  11  19  38  64  90 124 170 214 271 328 385
#     4  11  24  39  63  96 131 171 220 274 332 390
#     4  10  19  37  62  94 126 158 217 278 323 387
#
# _framework density 23.052047999999999
#
# number of rings (size 3 to 8) (size 9 to 14) (size 15 to 20)
#    0.000    1.143    7.143    2.143    0.000    1.714 
#    0.000    0.000    0.000    4.286    0.000    0.000 
#    0.000    0.000    0.000    0.000    0.000    0.000 
#
# Total GULP energy -156080.189331 kJ/mol
# GULP energy per Si atom -5574.292476 kJ/mol
# Density = 2.299958 g / cm^3
# Si number density = 23.052048 Si / 1000 Ang^3
#
#
#
# Elastic Constant Matrix: (Units=GPa)
#
#
# Indices 1 2 3 4 5 6 
#
# 1 111.2289 25.7944 31.0119 0.0000 -18.6560 0.0000
# 2 25.7944 52.2011 16.8363 0.0000 -8.7131 0.0000
# 3 31.0119 16.8363 109.2474 0.0000 -35.9456 0.0000
# 4 0.0000 0.0000 0.0000 42.9246 0.0000 8.0534
# 5 -18.6560 -8.7131 -35.9456 0.0000 34.6850 0.0000
# 6 0.0000 0.0000 0.0000 8.0534 0.0000 24.2793
#
#
#
# Elastic Compliance Matrix: (Units=1/GPa)
#
#
# Indices 1 2 3 4 5 6 
#
# 1 0.010954 -0.004421 -0.001297 0.000000 0.003437 0.000000
# 2 -0.004421 0.022123 -0.001682 0.000000 0.001437 0.000000
# 3 -0.001297 -0.001682 0.014283 0.000000 0.013681 0.000000
# 4 0.000000 0.000000 0.000000 0.024843 0.000000 -0.008240
# 5 0.003437 0.001437 0.013681 0.000000 0.045219 0.000000
# 6 0.000000 0.000000 0.000000 -0.008240 0.000000 0.043921
#
#
# Mechanical properties :
#
#
# Convention : Reuss Voigt Hill
#
# Bulk Modulus (GPa) = 30.71243 46.66250 38.68746
# Shear Modulus (GPa) = 26.73870 33.64677 30.19274
#
# Velocity S-wave (km/s) = 3.40947 3.82462 3.62299
# Velocity P-wave (km/s) = 5.37134 6.30791 5.85837
#
# Compressibility (1/GPa) = 0.03256011
#
# Stress axis : x y z
#
# Youngs Moduli (GPa) = 91.29286 45.20114 70.01528
#
# Poissons Ratio (x) = 0.19981 0.09084
# Poissons Ratio (y) = 0.40357 0.11775
# Poissons Ratio (z) = 0.11844 0.07602
#
# Static dielectric constant tensor:
#      x y z
#    x 1.950990 0.000000 0.042340 
#    y 0.000000 2.004600 0.000000 
#    z 0.042340 0.000000 1.869630 
# 
# From -- ./inp_files/237056.got.cif
#   From: 2010.05.17/outbox.cif.g08.bks.cpg/sg15_119_cif.got.tgz:237056.got - 2010.06.03 18:47:42.
