data_PCOD9266210
_publ_section_title
;
Structure prediction by ZEFSAII (Michael W. Deem and Ramdas Pophale) SiO2 
 PCOD9266210
Probable space group: C 2/C
;
_chemical_formula_sum "Si O2"
_cell_formula_units_Z 24
_cell_length_a 8.240083
_cell_length_b 11.907728
_cell_length_c 9.338340
_cell_angle_alpha 90.000000
_cell_angle_beta 72.102311
_cell_angle_gamma 90.000000
_cell_volume 871.942228
_symmetry_space_group_name_H-M "C 2/C"
_symmetry_group_IT_number 15
_symmetry_cell_setting 'monoclinic'
loop_
_space_group_symop_operation_xyz
x,y,z
-x,y,1/2-z
-x,-y,-z
x,-y,1/2+z
1/2+x,1/2+y,z
1/2-x,1/2+y,1/2-z
1/2-x,1/2-y,-z
1/2+x,1/2-y,1/2+z
loop_
_atom_site_type_symbol
_atom_site_label
_atom_site_fract_x
_atom_site_fract_y
_atom_site_fract_z
Si Si1 0.152493 0.909758 0.314362
Si Si2 0.239382 0.580771 0.420949
Si Si3 0.117964 0.335385 0.465005
O O1 0.127549 0.895517 0.488786
O O2 0.322001 0.842885 0.217481
O O3 0.000000 0.873083 0.250000
O O4 0.187214 0.037532 0.248504
O O5 0.162308 0.462671 0.502826
O O6 0.083825 0.667131 0.452593
O O7 0.250000 0.250000 0.500000
#
# Coordination Sequence:
#
# PCOD9266210 Si02
#       3
#     8   8   8
#     4  10  19  37  61  90 124 173 216 253 336 386
#     4   9  20  37  64  85 126 175 204 266 333 372
#     4   9  20  37  59  90 126 165 222 262 317 387
#
# _framework density 27.524761999999999
#
# number of rings (size 3 to 8) (size 9 to 14) (size 15 to 20)
#    2.000    0.667    0.000    2.000    0.000    0.000 
#    6.000    5.000    0.000    0.000    0.000    0.000 
#    0.000    0.000    0.000    0.000    0.000    0.000 
#
# Total GULP energy -66868.223646 kJ/mol
# GULP energy per Si atom -5572.351970 kJ/mol
# Density = 2.746211 g / cm^3
# Si number density = 27.524762 Si / 1000 Ang^3
#
#
#
# Elastic Constant Matrix: (Units=GPa)
#
#
# Indices 1 2 3 4 5 6 
#
# 1 157.8451 49.5279 33.5787 0.0000 3.9931 0.0000
# 2 49.5279 136.4248 9.5668 0.0000 -0.3023 0.0000
# 3 33.5787 9.5668 110.0737 0.0000 -1.4618 0.0000
# 4 0.0000 0.0000 0.0000 6.3527 0.0000 -13.1495
# 5 3.9931 -0.3023 -1.4618 0.0000 53.6475 0.0000
# 6 0.0000 0.0000 0.0000 -13.1495 0.0000 47.7454
#
#
#
# Elastic Compliance Matrix: (Units=1/GPa)
#
#
# Indices 1 2 3 4 5 6 
#
# 1 0.007622 -0.002621 -0.002106 0.000000 -0.000639 0.000000
# 2 -0.002621 0.008276 0.000083 0.000000 0.000244 0.000000
# 3 -0.002106 0.000083 0.009726 0.000000 0.000422 0.000000
# 4 0.000000 0.000000 0.000000 0.366143 0.000000 0.100839
# 5 -0.000639 0.000244 0.000422 0.000000 0.018701 0.000000
# 6 0.000000 0.000000 0.000000 0.100839 0.000000 0.048716
#
#
# Mechanical properties :
#
#
# Convention : Reuss Voigt Hill
#
# Bulk Modulus (GPa) = 61.20980 65.52115 63.36547
# Shear Modulus (GPa) = 10.55039 42.32711 26.43875
#
# Velocity S-wave (km/s) = 1.95994 3.92571 3.10263
# Velocity P-wave (km/s) = 5.23528 6.66366 5.99219
#
# Compressibility (1/GPa) = 0.01633725
#
# Stress axis : x y z
#
# Youngs Moduli (GPa) = 131.20241 120.82855 102.82174
#
# Poissons Ratio (x) = 0.31667 0.21652
# Poissons Ratio (y) = 0.34385 -0.00858
# Poissons Ratio (z) = 0.27629 -0.01008
#
# Static dielectric constant tensor:
#      x y z
#    x 2.181650 0.000000 -0.085650 
#    y 0.000000 2.214420 0.000000 
#    z -0.085650 0.000000 2.189980 
# 
# From -- ./inp_files/74731.got.cif
#   From: 2010.05.17/outbox.cif.g08.bks.cpg/sg15_38_cif.got.tgz:74731.got - 2010.06.03 18:47:42.
