data_PCOD9266932
_publ_section_title
;
Structure prediction by ZEFSAII (Michael W. Deem and Ramdas Pophale) SiO2 
 PCOD9266932
Probable space group: C 2/C
;
_chemical_formula_sum "Si O2"
_cell_formula_units_Z 56
_cell_length_a 16.175940
_cell_length_b 9.395685
_cell_length_c 19.474879
_cell_angle_alpha 90.000000
_cell_angle_beta 112.777097
_cell_angle_gamma 90.000000
_cell_volume 2729.054031
_symmetry_space_group_name_H-M "C 2/C"
_symmetry_group_IT_number 15
_symmetry_cell_setting 'monoclinic'
loop_
_space_group_symop_operation_xyz
x,y,z
-x,y,1/2-z
-x,-y,-z
x,-y,1/2+z
1/2+x,1/2+y,z
1/2-x,1/2+y,1/2-z
1/2-x,1/2-y,-z
1/2+x,1/2-y,1/2+z
loop_
_atom_site_type_symbol
_atom_site_label
_atom_site_fract_x
_atom_site_fract_y
_atom_site_fract_z
Si Si1 0.781811 0.959773 0.859907
Si Si2 0.341815 0.663405 0.521155
Si Si3 0.377730 0.274403 0.361493
Si Si4 0.423183 0.733781 0.329088
Si Si5 0.404295 0.039000 0.253616
Si Si6 0.024741 0.958344 0.333702
Si Si7 0.995190 0.333069 0.497298
O O1 0.833895 0.854710 0.823287
O O2 0.676312 0.929690 0.825029
O O3 0.792872 0.123190 0.839010
O O4 0.826076 0.936351 0.948987
O O5 0.250000 0.750000 0.500000
O O6 0.379860 0.580655 0.600773
O O7 0.418686 0.775144 0.523925
O O8 0.382483 0.141164 0.311674
O O9 0.453124 0.385024 0.360466
O O10 0.409870 0.224895 0.446271
O O11 0.496215 0.623118 0.323442
O O12 0.466903 0.784090 0.413892
O O13 0.405669 0.874421 0.278861
O O14 0.500000 0.069565 0.250000
O O15 0.000000 0.902533 0.250000
O O16 0.000000 0.500000 0.500000
#
# Coordination Sequence:
#
# PCOD9266932 Si02
#       7
#     8   8   8   8   8   8   8
#     4  10  23  41  62  89 126 165 212 261 310 379
#     4  10  23  39  63  94 126 163 213 262 316 380
#     4  10  21  38  63  89 118 166 212 249 312 379
#     4  10  21  41  62  91 123 165 212 262 314 377
#     4  12  24  37  63  92 129 164 206 265 317 373
#     4  10  21  39  63  92 126 165 206 262 319 376
#     4  10  19  38  63  88 117 160 209 257 306 371
#
# _framework density 20.519931
#
# number of rings (size 3 to 8) (size 9 to 14) (size 15 to 20)
#    0.000    1.714    1.429    2.571    6.000    3.429 
#    2.571    1.429    0.000    6.000    0.000    0.000 
#    0.000    0.000    0.000    0.000    0.000    0.000 
#
# Total GULP energy -156136.618429 kJ/mol
# GULP energy per Si atom -5576.307801 kJ/mol
# Density = 2.047323 g / cm^3
# Si number density = 20.519931 Si / 1000 Ang^3
#
#
#
# Elastic Constant Matrix: (Units=GPa)
#
#
# Indices 1 2 3 4 5 6 
#
# 1 73.6457 28.9574 43.7658 0.0000 19.3549 0.0000
# 2 28.9574 136.0519 41.2634 0.0000 5.9452 0.0000
# 3 43.7658 41.2634 97.9398 0.0000 16.4020 0.0000
# 4 0.0000 0.0000 0.0000 25.1408 0.0000 0.5983
# 5 19.3549 5.9452 16.4020 0.0000 29.6711 0.0000
# 6 0.0000 0.0000 0.0000 0.5983 0.0000 22.7662
#
#
#
# Elastic Compliance Matrix: (Units=1/GPa)
#
#
# Indices 1 2 3 4 5 6 
#
# 1 0.020961 -0.001935 -0.006972 0.000000 -0.009432 0.000000
# 2 -0.001935 0.008608 -0.002959 0.000000 0.001173 0.000000
# 3 -0.006972 -0.002959 0.015110 0.000000 -0.003212 0.000000
# 4 0.000000 0.000000 0.000000 0.039801 0.000000 -0.001046
# 5 -0.009432 0.001173 -0.003212 0.000000 0.041396 0.000000
# 6 0.000000 0.000000 0.000000 -0.001046 0.000000 0.043952
#
#
# Mechanical properties :
#
#
# Convention : Reuss Voigt Hill
#
# Bulk Modulus (GPa) = 47.73539 59.51229 53.62384
# Shear Modulus (GPa) = 24.93237 28.42568 26.67902
#
# Velocity S-wave (km/s) = 3.48951 3.72596 3.60967
# Velocity P-wave (km/s) = 6.28880 6.89750 6.60017
#
# Compressibility (1/GPa) = 0.02094882
#
# Stress axis : x y z
#
# Youngs Moduli (GPa) = 47.70675 116.17151 66.17952
#
# Poissons Ratio (x) = 0.22475 0.46142
# Poissons Ratio (y) = 0.09230 0.19579
# Poissons Ratio (z) = 0.33263 0.34370
#
# Static dielectric constant tensor:
#      x y z
#    x 1.938080 0.000000 0.062790 
#    y 0.000000 1.780870 0.000000 
#    z 0.062790 0.000000 1.708330 
# 
# From -- ./inp_files/247586.got.cif
#   From: 2010.05.17/outbox.cif.g08.bks.cpg/sg15_124_cif.got.tgz:247586.got - 2010.06.03 18:47:42.
