data_PCOD9266315
_publ_section_title
;
Structure prediction by ZEFSAII (Michael W. Deem and Ramdas Pophale) SiO2 
 PCOD9266315
Probable space group: C 2/C
;
_chemical_formula_sum "Si O2"
_cell_formula_units_Z 36
_cell_length_a 9.606246
_cell_length_b 10.757040
_cell_length_c 15.054444
_cell_angle_alpha 90.000000
_cell_angle_beta 63.926328
_cell_angle_gamma 90.000000
_cell_volume 1397.328731
_symmetry_space_group_name_H-M "C 2/C"
_symmetry_group_IT_number 15
_symmetry_cell_setting 'monoclinic'
loop_
_space_group_symop_operation_xyz
x,y,z
-x,y,1/2-z
-x,-y,-z
x,-y,1/2+z
1/2+x,1/2+y,z
1/2-x,1/2+y,1/2-z
1/2-x,1/2-y,-z
1/2+x,1/2-y,1/2+z
loop_
_atom_site_type_symbol
_atom_site_label
_atom_site_fract_x
_atom_site_fract_y
_atom_site_fract_z
Si Si1 0.669501 0.092837 0.363660
Si Si2 0.261649 0.460100 0.110107
Si Si3 0.000000 0.357872 0.750000
Si Si4 0.992395 0.335894 0.405483
Si Si5 0.028939 0.938026 0.621870
O O1 0.605177 0.183092 0.304286
O O2 0.585868 0.139230 0.476954
O O3 0.852500 0.078350 0.330185
O O4 0.609529 0.950801 0.360436
O O5 0.147227 0.344813 0.127546
O O6 0.390012 0.464767 0.150063
O O7 0.135904 0.567500 0.160207
O O8 0.353537 0.473753 0.992000
O O9 0.045886 0.195062 0.383379
#
# Coordination Sequence:
#
# PCOD9266315 Si02
#       5
#     8   8   4   8   8
#     4   9  18  34  57  81 112 148 180 225 282 324
#     4   9  19  35  57  82 109 141 182 227 272 323
#     4  10  20  36  52  80 124 146 168 232 288 326
#     4   9  18  37  60  81 108 146 188 230 269 323
#     4  10  19  37  63  83 102 146 197 228 261 326
#
# _framework density 25.763444
#
# number of rings (size 3 to 8) (size 9 to 14) (size 15 to 20)
#    0.000    2.667    0.000    4.000    0.000    0.889 
#    0.000   45.556    0.000    0.000    0.000    0.000 
#    0.000    0.000    0.000    0.000    0.000    0.000 
#
# Total GULP energy -100362.416563 kJ/mol
# GULP energy per Si atom -5575.689809 kJ/mol
# Density = 2.570480 g / cm^3
# Si number density = 25.763444 Si / 1000 Ang^3
#
#
#
# Elastic Constant Matrix: (Units=GPa)
#
#
# Indices 1 2 3 4 5 6 
#
# 1 213.5539 49.1699 45.9320 0.0000 13.0227 0.0000
# 2 49.1699 116.6679 31.8365 0.0000 -1.1906 0.0000
# 3 45.9320 31.8365 64.1509 0.0000 10.0820 0.0000
# 4 0.0000 0.0000 0.0000 8.3415 0.0000 2.2527
# 5 13.0227 -1.1906 10.0820 0.0000 56.6794 0.0000
# 6 0.0000 0.0000 0.0000 2.2527 0.0000 23.8958
#
#
#
# Elastic Compliance Matrix: (Units=1/GPa)
#
#
# Indices 1 2 3 4 5 6 
#
# 1 0.005788 -0.001562 -0.003246 0.000000 -0.000785 0.000000
# 2 -0.001562 0.010404 -0.004255 0.000000 0.001334 0.000000
# 3 -0.003246 -0.004255 0.020494 0.000000 -0.002989 0.000000
# 4 0.000000 0.000000 0.000000 0.123015 0.000000 -0.011597
# 5 -0.000785 0.001334 -0.002989 0.000000 0.018383 0.000000
# 6 0.000000 0.000000 0.000000 -0.011597 0.000000 0.042942
#
#
# Mechanical properties :
#
#
# Convention : Reuss Voigt Hill
#
# Bulk Modulus (GPa) = 53.87601 72.02771 62.95186
# Shear Modulus (GPa) = 20.38009 35.61229 27.99619
#
# Velocity S-wave (km/s) = 2.81561 3.72194 3.30003
# Velocity P-wave (km/s) = 5.61493 6.81824 6.24563
#
# Compressibility (1/GPa) = 0.01856114
#
# Stress axis : x y z
#
# Youngs Moduli (GPa) = 172.76286 96.11486 48.79565
#
# Poissons Ratio (x) = 0.15011 0.15839
# Poissons Ratio (y) = 0.26981 0.20762
# Poissons Ratio (z) = 0.56077 0.40895
#
# Static dielectric constant tensor:
#      x y z
#    x 2.062800 0.000000 0.059920 
#    y 0.000000 1.979730 0.000000 
#    z 0.059920 0.000000 2.093170 
# 
# From -- ./inp_files/188352.got.cif
#   From: 2010.05.17/outbox.cif.g08.bks.cpg/sg15_95_cif.got.tgz:188352.got - 2010.06.03 18:47:42.
