data_PCOD9266501
_publ_section_title
;
Structure prediction by ZEFSAII (Michael W. Deem and Ramdas Pophale) SiO2 
 PCOD9266501
Probable space group: C 2/C
;
_chemical_formula_sum "Si O2"
_cell_formula_units_Z 60
_cell_length_a 8.027793
_cell_length_b 26.606872
_cell_length_c 19.246982
_cell_angle_alpha 90.000000
_cell_angle_beta 44.110028
_cell_angle_gamma 90.000000
_cell_volume 2861.448091
_symmetry_space_group_name_H-M "C 2/C"
_symmetry_group_IT_number 15
_symmetry_cell_setting 'monoclinic'
loop_
_space_group_symop_operation_xyz
x,y,z
-x,y,1/2-z
-x,-y,-z
x,-y,1/2+z
1/2+x,1/2+y,z
1/2-x,1/2+y,1/2-z
1/2-x,1/2-y,-z
1/2+x,1/2-y,1/2+z
loop_
_atom_site_type_symbol
_atom_site_label
_atom_site_fract_x
_atom_site_fract_y
_atom_site_fract_z
Si Si1 0.008799 0.678338 0.079993
Si Si2 0.750496 0.294756 0.787176
Si Si3 0.649459 0.373462 0.921887
Si Si4 0.832417 0.400817 0.447719
Si Si5 0.262116 0.423677 0.870501
Si Si6 0.000000 0.455253 0.750000
Si Si7 0.525268 0.212586 0.560050
Si Si8 0.227684 0.518096 0.803029
O O1 0.240247 0.665925 0.056488
O O2 0.804351 0.702163 0.190104
O O3 0.902995 0.623906 0.093775
O O4 0.050028 0.709064 0.997972
O O5 0.595289 0.339986 0.867734
O O6 0.667409 0.240524 0.835402
O O7 0.000000 0.305729 0.750000
O O8 0.837080 0.417031 0.844784
O O9 0.407192 0.396126 0.025999
O O10 0.719035 0.424229 0.552415
O O11 0.922293 0.343947 0.432260
O O12 0.052378 0.434628 0.358035
O O13 0.500000 0.419171 0.750000
O O14 0.143112 0.475254 0.882016
O O15 0.176848 0.489652 0.744434
O O16 0.750000 0.250000 0.500000
O O17 0.500000 0.529293 0.750000
#
# Coordination Sequence:
#
# PCOD9266501 Si02
#       8
#     8   8   8   8   8   4   8   8
#     4  10  21  37  66  94 129 171 220 285 351 381
#     4  10  20  38  64  91 125 165 219 278 340 390
#     4  11  19  39  64  98 126 165 230 296 333 404
#     4  11  24  40  65  94 139 174 226 280 341 417
#     4  10  19  37  65  97 125 167 222 284 340 394
#     4  12  22  42  70 102 138 178 230 288 338 416
#     4  11  24  41  61  96 132 174 227 281 331 416
#     4  11  24  44  65  97 141 184 225 277 346 417
#
# _framework density 20.968402999999999
#
# number of rings (size 3 to 8) (size 9 to 14) (size 15 to 20)
#    0.000    1.333    4.667    2.800    1.867    3.200 
#    4.800    1.333    0.000    0.000    0.000    0.000 
#    0.000    0.000    0.000    0.000    0.000    0.000 
#
# Total GULP energy -167231.675820 kJ/mol
# GULP energy per Si atom -5574.389194 kJ/mol
# Density = 2.092068 g / cm^3
# Si number density = 20.968403 Si / 1000 Ang^3
#
#
#
# Elastic Constant Matrix: (Units=GPa)
#
#
# Indices 1 2 3 4 5 6 
#
# 1 84.5398 34.3099 34.1595 0.0000 -2.5081 0.0000
# 2 34.3099 123.6996 46.5718 0.0000 -6.9631 0.0000
# 3 34.1595 46.5718 55.4891 0.0000 -10.3468 -0.0001
# 4 0.0000 0.0000 0.0000 26.9831 0.0000 -5.8753
# 5 -2.5081 -6.9631 -10.3468 0.0000 21.3790 0.0000
# 6 0.0000 0.0000 -0.0001 -5.8753 0.0000 23.5506
#
#
#
# Elastic Compliance Matrix: (Units=1/GPa)
#
#
# Indices 1 2 3 4 5 6 
#
# 1 0.016023 -0.001005 -0.009597 0.000000 -0.003092 0.000000
# 2 -0.001005 0.011903 -0.009531 0.000000 -0.000854 0.000000
# 3 -0.009597 -0.009531 0.034228 0.000000 0.012336 0.000000
# 4 0.000000 0.000000 0.000000 0.039189 0.000000 0.009777
# 5 -0.003092 -0.000854 0.012336 0.000000 0.052104 0.000000
# 6 0.000000 0.000000 0.000000 0.009777 0.000000 0.044901
#
#
# Mechanical properties :
#
#
# Convention : Reuss Voigt Hill
#
# Bulk Modulus (GPa) = 45.68415 54.86791 50.27603
# Shear Modulus (GPa) = 20.33269 24.29500 22.31385
#
# Velocity S-wave (km/s) = 3.11735 3.40758 3.26569
# Velocity P-wave (km/s) = 5.89844 6.45801 6.18456
#
# Compressibility (1/GPa) = 0.02188943
#
# Stress axis : x y z
#
# Youngs Moduli (GPa) = 62.41191 84.01230 29.21545
#
# Poissons Ratio (x) = 0.08444 0.28037
# Poissons Ratio (y) = 0.06273 0.27844
# Poissons Ratio (z) = 0.59894 0.80069
#
# Static dielectric constant tensor:
#      x y z
#    x 1.863880 0.000000 -0.025960 
#    y 0.000000 1.766250 0.000000 
#    z -0.025960 0.000000 1.822250 
# 
# From -- ./inp_files/234548.got.cif
#   From: 2010.05.17/outbox.cif.g08.bks.cpg/sg15_118_cif.got.tgz:234548.got - 2010.06.03 18:47:42.
