data_PCOD9266464
_publ_section_title
;
Structure prediction by ZEFSAII (Michael W. Deem and Ramdas Pophale) SiO2 
 PCOD9266464
Probable space group: C 2/C
;
_chemical_formula_sum "Si O2"
_cell_formula_units_Z 36
_cell_length_a 7.256225
_cell_length_b 17.325821
_cell_length_c 23.441821
_cell_angle_alpha 90.000000
_cell_angle_beta 136.584313
_cell_angle_gamma 90.000000
_cell_volume 2025.506626
_symmetry_space_group_name_H-M "C 2/C"
_symmetry_group_IT_number 15
_symmetry_cell_setting 'monoclinic'
loop_
_space_group_symop_operation_xyz
x,y,z
-x,y,1/2-z
-x,-y,-z
x,-y,1/2+z
1/2+x,1/2+y,z
1/2-x,1/2+y,1/2-z
1/2-x,1/2-y,-z
1/2+x,1/2-y,1/2+z
loop_
_atom_site_type_symbol
_atom_site_label
_atom_site_fract_x
_atom_site_fract_y
_atom_site_fract_z
Si Si1 0.624957 0.571915 0.922124
Si Si2 0.000000 0.185126 0.250000
Si Si3 0.047118 0.534404 0.824384
Si Si4 0.655562 0.940554 0.612407
Si Si5 0.158371 0.181195 0.727331
O O1 0.364351 0.549020 0.900439
O O2 0.693069 0.502851 0.893241
O O3 0.536129 0.644838 0.864322
O O4 0.887286 0.584394 0.018899
O O5 0.844266 0.130249 0.171019
O O6 0.793729 0.241251 0.235675
O O7 0.000000 0.501270 0.750000
O O8 0.930937 0.482377 0.848352
O O9 0.886513 0.615559 0.788269
O O10 0.000000 0.192290 0.750000
#
# Coordination Sequence:
#
# PCOD9266464 Si02
#       5
#     8   4   8   8   8
#     4  10  21  40  65  89 116 160 195 248 295 351
#     4  12  24  38  58  90 120 156 194 248 292 354
#     4  10  19  37  65  86 114 162 197 235 295 360
#     4  11  23  38  64  93 119 145 210 251 286 344
#     4  11  21  39  60  83 122 164 195 230 307 356
#
# _framework density 17.773330999999999
#
# number of rings (size 3 to 8) (size 9 to 14) (size 15 to 20)
#    0.000    1.333    5.556    3.333    0.000    3.556 
#    0.000    1.111    0.000    0.000    0.000    0.000 
#    0.000    0.000    0.000    0.000    0.000    0.000 
#
# Total GULP energy -100543.278109 kJ/mol
# GULP energy per Si atom -5585.737673 kJ/mol
# Density = 1.773288 g / cm^3
# Si number density = 17.773331 Si / 1000 Ang^3
#
#
#
# Elastic Constant Matrix: (Units=GPa)
#
#
# Indices 1 2 3 4 5 6 
#
# 1 92.1572 44.2537 43.7692 0.0003 0.9493 0.0000
# 2 44.2537 111.8524 84.3552 0.0001 1.2497 0.0000
# 3 43.7692 84.3552 125.5421 0.0003 18.5529 0.0002
# 4 0.0003 0.0001 0.0003 6.9450 0.0002 9.5717
# 5 0.9493 1.2497 18.5529 0.0002 25.8175 0.0000
# 6 0.0000 0.0000 0.0002 9.5717 0.0000 23.8278
#
#
#
# Elastic Compliance Matrix: (Units=1/GPa)
#
#
# Indices 1 2 3 4 5 6 
#
# 1 0.013774 -0.003369 -0.002783 -0.000001 0.001657 0.000000
# 2 -0.003369 0.020937 -0.014278 0.000000 0.009371 0.000000
# 3 -0.002783 -0.014278 0.020600 0.000000 -0.014010 0.000000
# 4 -0.000001 0.000000 0.000000 0.322576 -0.000003 -0.129580
# 5 0.001657 0.009371 -0.014010 -0.000003 0.048287 0.000001
# 6 0.000000 0.000000 0.000000 -0.129580 0.000001 0.094020
#
#
# Mechanical properties :
#
#
# Convention : Reuss Voigt Hill
#
# Bulk Modulus (GPa) = 69.20562 74.92308 72.06435
# Shear Modulus (GPa) = 8.83593 21.79631 15.31612
#
# Velocity S-wave (km/s) = 2.23209 3.50573 2.93874
# Velocity P-wave (km/s) = 6.75762 7.65723 7.22144
#
# Compressibility (1/GPa) = 0.01444969
#
# Stress axis : x y z
#
# Youngs Moduli (GPa) = 72.60283 47.76296 48.54325
#
# Poissons Ratio (x) = 0.16091 0.13510
# Poissons Ratio (y) = 0.24460 0.69311
# Poissons Ratio (z) = 0.20207 0.68197
#
# Static dielectric constant tensor:
#      x y z
#    x 1.606460 0.000000 0.009280 
#    y 0.000000 1.579150 0.000000 
#    z 0.009280 0.000000 1.608130 
# 
# From -- ./inp_files/263785.got.cif
#   From: 2010.05.17/outbox.cif.g08.bks.cpg/sg15_132_cif.got.tgz:263785.got - 2010.06.03 18:47:42.
