data_PCOD9266850
_publ_section_title
;
Structure prediction by ZEFSAII (Michael W. Deem and Ramdas Pophale) SiO2 
 PCOD9266850
Probable space group: C 2/C
;
_chemical_formula_sum "Si O2"
_cell_formula_units_Z 40
_cell_length_a 10.234126
_cell_length_b 12.340187
_cell_length_c 22.464409
_cell_angle_alpha 90.000000
_cell_angle_beta 39.849069
_cell_angle_gamma 90.000000
_cell_volume 1817.891378
_symmetry_space_group_name_H-M "C 2/C"
_symmetry_group_IT_number 15
_symmetry_cell_setting 'monoclinic'
loop_
_space_group_symop_operation_xyz
x,y,z
-x,y,1/2-z
-x,-y,-z
x,-y,1/2+z
1/2+x,1/2+y,z
1/2-x,1/2+y,1/2-z
1/2-x,1/2-y,-z
1/2+x,1/2-y,1/2+z
loop_
_atom_site_type_symbol
_atom_site_label
_atom_site_fract_x
_atom_site_fract_y
_atom_site_fract_z
Si Si1 0.701125 0.947767 0.066577
Si Si2 0.698261 0.860195 0.481864
Si Si3 0.076746 0.973430 0.281242
Si Si4 0.894661 0.686989 0.610425
Si Si5 0.322152 0.570323 0.135438
O O1 0.585806 0.838770 0.086757
O O2 0.699117 0.990785 0.134892
O O3 0.939518 0.936898 0.967118
O O4 0.621700 0.046978 0.053260
O O5 0.750000 0.750000 0.500000
O O6 0.550543 0.841857 0.477181
O O7 0.900605 0.909510 0.379238
O O8 0.226258 0.889016 0.198583
O O9 0.000000 0.039090 0.250000
O O10 0.192674 0.039886 0.290750
O O11 0.786450 0.802788 0.642304
#
# Coordination Sequence:
#
# PCOD9266850 Si02
#       5
#     8   8   8   8   8
#     4  10  21  37  61  89 117 154 206 259 305 372
#     4  10  19  38  62  86 117 164 204 250 312 371
#     4   9  22  40  55  82 126 153 196 255 308 370
#     4  11  21  38  62  90 118 163 207 249 317 373
#     4  10  21  40  58  85 126 154 199 264 305 366
#
# _framework density 22.003515
#
# number of rings (size 3 to 8) (size 9 to 14) (size 15 to 20)
#    0.000    2.000    2.000    1.200    0.000    2.400 
#    7.200    0.000    0.000    0.000    0.000    0.000 
#    0.000    0.000    0.000    0.000    0.000    0.000 
#
# Total GULP energy -111520.812156 kJ/mol
# GULP energy per Si atom -5576.040608 kJ/mol
# Density = 2.195343 g / cm^3
# Si number density = 22.003515 Si / 1000 Ang^3
#
#
#
# Elastic Constant Matrix: (Units=GPa)
#
#
# Indices 1 2 3 4 5 6 
#
# 1 104.2926 -10.4705 24.3658 0.0001 25.9613 0.0000
# 2 -10.4705 16.7602 -6.0320 0.0000 6.5912 0.0000
# 3 24.3658 -6.0320 63.2347 0.0002 21.6502 -0.0001
# 4 0.0001 0.0000 0.0002 10.5502 0.0000 14.0574
# 5 25.9613 6.5912 21.6502 0.0000 38.4240 0.0000
# 6 0.0000 0.0000 -0.0001 14.0574 0.0000 31.4647
#
#
#
# Elastic Compliance Matrix: (Units=1/GPa)
#
#
# Indices 1 2 3 4 5 6 
#
# 1 0.013794 0.013088 -0.000133 0.000000 -0.011490 0.000000
# 2 0.013088 0.085049 0.013744 -0.000002 -0.031176 0.000001
# 3 -0.000133 0.013744 0.022244 -0.000001 -0.014802 0.000001
# 4 0.000000 -0.000002 -0.000001 0.234198 0.000002 -0.104632
# 5 -0.011490 -0.031176 -0.014802 0.000002 0.047477 -0.000001
# 6 0.000000 0.000001 0.000001 -0.104632 -0.000001 0.078528
#
#
# Mechanical properties :
#
#
# Convention : Reuss Voigt Hill
#
# Bulk Modulus (GPa) = 5.73116 22.22381 13.97748
# Shear Modulus (GPa) = 10.28698 27.84940 19.06819
#
# Velocity S-wave (km/s) = 2.16456 3.56150 2.94700
# Velocity P-wave (km/s) = 2.97614 5.19946 4.23626
#
# Compressibility (1/GPa) = 0.17448473
#
# Stress axis : x y z
#
# Youngs Moduli (GPa) = 72.49766 11.75798 44.95612
#
# Poissons Ratio (x) = -0.15389 0.00596
# Poissons Ratio (y) = -0.94886 -0.61787
# Poissons Ratio (z) = 0.00961 -0.16160
#
# Static dielectric constant tensor:
#      x y z
#    x 1.962150 0.000000 -0.038450 
#    y 0.000000 1.823280 0.000000 
#    z -0.038450 0.000000 1.822060 
# 
# From -- ./inp_files/133292.got.cif
#   From: 2010.05.17/outbox.cif.g08.bks.cpg/sg15_67_cif.got.tgz:133292.got - 2010.06.03 18:47:42.
