data_PCOD9266935
_publ_section_title
;
Structure prediction by ZEFSAII (Michael W. Deem and Ramdas Pophale) SiO2 
 PCOD9266935
Probable space group: C 2/C
;
_chemical_formula_sum "Si O2"
_cell_formula_units_Z 40
_cell_length_a 12.162932
_cell_length_b 8.239954
_cell_length_c 18.561885
_cell_angle_alpha 90.000000
_cell_angle_beta 65.398552
_cell_angle_gamma 90.000000
_cell_volume 1691.440765
_symmetry_space_group_name_H-M "C 2/C"
_symmetry_group_IT_number 15
_symmetry_cell_setting 'monoclinic'
loop_
_space_group_symop_operation_xyz
x,y,z
-x,y,1/2-z
-x,-y,-z
x,-y,1/2+z
1/2+x,1/2+y,z
1/2-x,1/2+y,1/2-z
1/2-x,1/2-y,-z
1/2+x,1/2-y,1/2+z
loop_
_atom_site_type_symbol
_atom_site_label
_atom_site_fract_x
_atom_site_fract_y
_atom_site_fract_z
Si Si1 0.727101 0.202876 0.395407
Si Si2 0.628078 0.005024 0.678763
Si Si3 0.371043 0.480307 0.967734
Si Si4 0.525550 0.996318 0.908594
Si Si5 0.373705 0.656422 0.107493
O O1 0.830097 0.308285 0.329481
O O2 0.664184 0.327140 0.469883
O O3 0.785866 0.051866 0.422574
O O4 0.624317 0.141762 0.370361
O O5 0.500000 0.974396 0.750000
O O6 0.595172 0.975410 0.603849
O O7 0.744086 0.902533 0.670431
O O8 0.510539 0.456964 0.906850
O O9 0.363385 0.634830 0.022616
O O10 0.587440 0.168547 0.875650
O O11 0.500000 0.000000 0.000000
#
# Coordination Sequence:
#
# PCOD9266935 Si02
#       5
#     8   8   8   8   8
#     4  10  19  38  63  88 125 160 199 249 312 361
#     4  11  26  44  59  85 129 172 205 247 304 373
#     4   9  17  36  62  95 123 154 194 260 311 354
#     4  12  22  39  66  97 120 154 208 262 311 362
#     4  10  20  37  63  92 127 155 201 256 308 363
#
# _framework density 23.648478000000001
#
# number of rings (size 3 to 8) (size 9 to 14) (size 15 to 20)
#    0.000    1.600    4.000    2.400    0.000    4.800 
#    0.000    1.000    0.000    0.000    0.000    0.000 
#    0.000    0.000    0.000    0.000    0.000    0.000 
#
# Total GULP energy -111748.996997 kJ/mol
# GULP energy per Si atom -5587.449850 kJ/mol
# Density = 2.359465 g / cm^3
# Si number density = 23.648478 Si / 1000 Ang^3
#
#
#
# Elastic Constant Matrix: (Units=GPa)
#
#
# Indices 1 2 3 4 5 6 
#
# 1 104.2668 17.4132 13.9436 0.0000 -34.9954 0.0000
# 2 17.4132 24.1352 -6.0020 0.0000 -7.7769 0.0000
# 3 13.9436 -6.0020 94.5524 0.0000 -37.3174 0.0000
# 4 0.0000 0.0000 0.0000 17.9441 0.0000 -21.8447
# 5 -34.9954 -7.7769 -37.3174 0.0000 43.6038 0.0000
# 6 0.0000 0.0000 0.0000 -21.8447 0.0000 38.8938
#
#
#
# Elastic Compliance Matrix: (Units=1/GPa)
#
#
# Indices 1 2 3 4 5 6 
#
# 1 0.014499 -0.005699 0.002554 0.000000 0.012806 0.000000
# 2 -0.005699 0.051771 0.009009 0.000000 0.012369 0.000000
# 3 0.002554 0.009009 0.018445 0.000000 0.019442 0.000000
# 4 0.000000 0.000000 0.000000 0.176211 0.000000 0.098969
# 5 0.012806 0.012369 0.019442 0.000000 0.052057 0.000000
# 6 0.000000 0.000000 0.000000 0.098969 0.000000 0.081297
#
#
# Mechanical properties :
#
#
# Convention : Reuss Voigt Hill
#
# Bulk Modulus (GPa) = 10.36887 30.40711 20.38799
# Shear Modulus (GPa) = 12.05688 33.26162 22.65925
#
# Velocity S-wave (km/s) = 2.26041 3.75440 3.09879
# Velocity P-wave (km/s) = 3.34764 5.62849 4.63069
#
# Compressibility (1/GPa) = 0.09644256
#
# Stress axis : x y z
#
# Youngs Moduli (GPa) = 68.96911 19.31577 54.21611
#
# Poissons Ratio (x) = 0.11009 -0.13849
# Poissons Ratio (y) = 0.39308 -0.48842
# Poissons Ratio (z) = -0.17617 -0.17401
#
# Static dielectric constant tensor:
#      x y z
#    x 1.883740 0.000000 0.021290 
#    y 0.000000 1.918900 0.000000 
#    z 0.021290 0.000000 2.008790 
# 
# From -- ./inp_files/235881.got.cif
#   From: 2010.05.17/outbox.cif.g08.bks.cpg/sg15_118_cif.got.tgz:235881.got - 2010.06.03 18:47:42.
