data_PCOD9266692
_publ_section_title
;
Structure prediction by ZEFSAII (Michael W. Deem and Ramdas Pophale) SiO2 
 PCOD9266692
Probable space group: C 2/C
;
_chemical_formula_sum "Si O2"
_cell_formula_units_Z 56
_cell_length_a 14.769831
_cell_length_b 25.692375
_cell_length_c 7.934919
_cell_angle_alpha 90.000000
_cell_angle_beta 126.326206
_cell_angle_gamma 90.000000
_cell_volume 2425.898850
_symmetry_space_group_name_H-M "C 2/C"
_symmetry_group_IT_number 15
_symmetry_cell_setting 'monoclinic'
loop_
_space_group_symop_operation_xyz
x,y,z
-x,y,1/2-z
-x,-y,-z
x,-y,1/2+z
1/2+x,1/2+y,z
1/2-x,1/2+y,1/2-z
1/2-x,1/2-y,-z
1/2+x,1/2-y,1/2+z
loop_
_atom_site_type_symbol
_atom_site_label
_atom_site_fract_x
_atom_site_fract_y
_atom_site_fract_z
Si Si1 0.327123 0.222945 0.728669
Si Si2 0.390339 0.896490 0.233679
Si Si3 0.190344 0.995180 0.585947
Si Si4 0.447173 0.320207 0.936753
Si Si5 0.811342 0.565653 0.978490
Si Si6 0.348997 0.420335 0.695076
Si Si7 0.815125 0.173095 0.641777
O O1 0.250000 0.250000 0.500000
O O2 0.367509 0.165065 0.728575
O O3 0.433545 0.261222 0.860726
O O4 0.257231 0.214520 0.827666
O O5 0.500000 0.907161 0.250000
O O6 0.401895 0.922226 0.433219
O O7 0.281109 0.915647 0.008832
O O8 0.307653 0.970977 0.638273
O O9 0.132838 0.944153 0.599207
O O10 0.220776 0.032536 0.773421
O O11 0.116848 0.033451 0.392003
O O12 0.398975 0.363009 0.755285
O O13 0.573097 0.335581 0.123309
O O14 0.367268 0.318110 0.014704
O O15 0.761845 0.622220 0.961930
#
# Coordination Sequence:
#
# PCOD9266692 Si02
#       7
#     8   8   8   8   8   8   8
#     4  11  23  39  61  88 120 156 195 252 300 349
#     4  10  22  39  59  88 117 152 202 247 295 355
#     4   9  18  35  62  84 115 159 189 242 297 342
#     4  11  22  39  63  86 122 160 198 240 292 362
#     4   9  18  38  58  84 121 152 195 241 295 344
#     4  10  19  38  59  85 119 155 192 241 297 342
#     4  10  23  40  59  90 120 160 199 238 295 359
#
# _framework density 23.084228
#
# number of rings (size 3 to 8) (size 9 to 14) (size 15 to 20)
#    0.000    2.000    2.857    0.429    2.000    0.000 
#    0.000   16.429    0.000    0.000    0.000    0.000 
#    0.000    0.000    0.000    0.000    0.000    0.000 
#
# Total GULP energy -155941.681409 kJ/mol
# GULP energy per Si atom -5569.345765 kJ/mol
# Density = 2.303169 g / cm^3
# Si number density = 23.084228 Si / 1000 Ang^3
#
#
#
# Elastic Constant Matrix: (Units=GPa)
#
#
# Indices 1 2 3 4 5 6 
#
# 1 57.2361 -10.7105 -1.3448 0.0000 1.3168 0.0000
# 2 -10.7105 97.4169 2.3812 0.0000 -4.5140 0.0000
# 3 -1.3448 2.3812 21.4122 0.0000 -8.1193 0.0000
# 4 0.0000 0.0000 0.0000 26.3942 0.0000 -24.5693
# 5 1.3168 -4.5140 -8.1193 0.0000 28.8792 0.0000
# 6 0.0000 0.0000 0.0000 -24.5693 0.0000 -12.2070
#
#
#
# Elastic Compliance Matrix: (Units=1/GPa)
#
#
# Indices 1 2 3 4 5 6 
#
# 1 0.017858 0.001931 0.000798 0.000000 -0.000288 0.000000
# 2 0.001931 0.010556 -0.000515 0.000000 0.001417 0.000000
# 3 0.000798 -0.000515 0.052346 0.000000 0.014600 0.000000
# 4 0.000000 0.000000 0.000000 0.013185 0.000000 -0.026537
# 5 -0.000288 0.001417 0.014600 0.000000 0.038966 0.000000
# 6 0.000000 0.000000 0.000000 -0.026537 0.000000 -0.028508
#
#
# Mechanical properties :
#
#
# Convention : Reuss Voigt Hill
#
# Bulk Modulus (GPa) = 11.73913 17.41301 14.57607
# Shear Modulus (GPa) = 38.94940 20.99590 29.97265
#
# Velocity S-wave (km/s) = 4.11210 3.01912 3.60725
# Velocity P-wave (km/s) = 5.25759 4.43994 4.86597
#
# Compressibility (1/GPa) = 0.08518522
#
# Stress axis : x y z
#
# Youngs Moduli (GPa) = 55.99696 94.73576 19.10376
#
# Poissons Ratio (x) = -0.18289 -0.01524
# Poissons Ratio (y) = -0.10811 0.00984
# Poissons Ratio (z) = -0.04466 0.04882
#
# Static dielectric constant tensor:
#      x y z
#    x 2.027400 0.000000 -0.128570 
#    y 0.000000 1.844130 0.000000 
#    z -0.128570 0.000000 1.906980 
# 
# From -- ./inp_files/43595.got.cif
#   From: 2010.05.17/outbox.cif.g08.bks.cpg/sg15_22_cif.got.tgz:43595.got - 2010.06.03 18:47:42.
