data_PCOD9266673
_publ_section_title
;
Structure prediction by ZEFSAII (Michael W. Deem and Ramdas Pophale) SiO2 
 PCOD9266673
Probable space group: C 2/C
;
_chemical_formula_sum "Si O2"
_cell_formula_units_Z 64
_cell_length_a 9.152683
_cell_length_b 23.687242
_cell_length_c 24.849075
_cell_angle_alpha 90.000000
_cell_angle_beta 139.263545
_cell_angle_gamma 90.000000
_cell_volume 3515.663757
_symmetry_space_group_name_H-M "C 2/C"
_symmetry_group_IT_number 15
_symmetry_cell_setting 'monoclinic'
loop_
_space_group_symop_operation_xyz
x,y,z
-x,y,1/2-z
-x,-y,-z
x,-y,1/2+z
1/2+x,1/2+y,z
1/2-x,1/2+y,1/2-z
1/2-x,1/2-y,-z
1/2+x,1/2-y,1/2+z
loop_
_atom_site_type_symbol
_atom_site_label
_atom_site_fract_x
_atom_site_fract_y
_atom_site_fract_z
Si Si1 0.323280 0.416717 0.655316
Si Si2 0.371905 0.687006 0.089493
Si Si3 0.529617 0.327332 0.512480
Si Si4 0.749160 0.868675 0.171007
Si Si5 0.695860 0.106514 0.482986
Si Si6 0.953709 0.697932 0.672622
Si Si7 0.785915 0.467968 0.416561
Si Si8 0.649265 0.791498 0.050841
O O1 0.500000 0.402079 0.750000
O O2 0.361165 0.371126 0.619182
O O3 0.359629 0.481653 0.648081
O O4 0.061805 0.410617 0.599533
O O5 0.478661 0.738974 0.153322
O O6 0.475402 0.675134 0.060364
O O7 0.114219 0.704989 0.008154
O O8 0.658468 0.382522 0.528704
O O9 0.302132 0.319499 0.414079
O O10 0.689461 0.272948 0.548560
O O11 0.614346 0.845781 0.184885
O O12 0.641379 0.920001 0.106318
O O13 0.772656 0.815626 0.137157
O O14 0.000000 0.889590 0.250000
O O15 0.807315 0.064370 0.557315
O O16 0.689209 0.165408 0.513891
O O17 0.000000 0.698427 0.750000
O O18 0.000000 0.500000 0.500000
#
# Coordination Sequence:
#
# PCOD9266673 Si02
#       8
#     8   8   8   8   8   8   8   8
#     4  10  20  39  60  81 109 155 199 244 280 340
#     4  10  19  38  59  80 115 161 196 222 286 364
#     4  11  19  36  58  81 119 155 189 232 290 352
#     4  11  21  36  58  89 120 148 192 243 300 344
#     4   9  20  33  57  88 107 142 203 239 280 342
#     4  11  23  36  55  90 124 152 186 240 303 355
#     4   9  20  38  64  80 107 151 210 244 283 346
#     4   9  17  35  54  79 112 158 191 219 274 360
#
# _framework density 18.204245
#
# number of rings (size 3 to 8) (size 9 to 14) (size 15 to 20)
#    0.000    2.000    2.500    2.625    3.500    0.000 
#    2.250    1.250    0.000    0.000    0.000    0.000 
#    0.000    0.000    0.000    0.000    0.000    0.000 
#
# Total GULP energy -178248.417607 kJ/mol
# GULP energy per Si atom -5570.263050 kJ/mol
# Density = 1.816281 g / cm^3
# Si number density = 18.204245 Si / 1000 Ang^3
#
#
#
# Elastic Constant Matrix: (Units=GPa)
#
#
# Indices 1 2 3 4 5 6 
#
# 1 68.7805 45.6193 39.4401 0.0003 -27.0084 0.0013
# 2 45.6193 94.6556 24.4513 0.0000 -15.8856 0.0001
# 3 39.4401 24.4513 91.2793 -0.0004 -19.3269 0.0000
# 4 0.0003 0.0000 -0.0004 26.8190 0.0000 -5.4424
# 5 -27.0084 -15.8856 -19.3269 0.0000 20.7096 0.0004
# 6 0.0013 0.0001 0.0000 -5.4424 0.0004 18.9534
#
#
#
# Elastic Compliance Matrix: (Units=1/GPa)
#
#
# Indices 1 2 3 4 5 6 
#
# 1 0.041222 -0.011691 -0.006475 -0.000001 0.038749 -0.000004
# 2 -0.011691 0.015630 0.000218 0.000000 -0.003054 0.000001
# 3 -0.006475 0.000218 0.014883 0.000000 0.005612 0.000000
# 4 -0.000001 0.000000 0.000000 0.039594 -0.000001 0.011369
# 5 0.038749 -0.003054 0.005612 -0.000001 0.101715 -0.000005
# 6 -0.000004 0.000001 0.000000 0.011369 -0.000005 0.056026
#
#
# Mechanical properties :
#
#
# Convention : Reuss Voigt Hill
#
# Bulk Modulus (GPa) = 27.90294 52.63742 40.27018
# Shear Modulus (GPa) = 15.77720 22.97671 19.37695
#
# Velocity S-wave (km/s) = 2.94713 3.55655 3.26608
# Velocity P-wave (km/s) = 5.19055 6.77075 6.03261
#
# Compressibility (1/GPa) = 0.03583851
#
# Stress axis : x y z
#
# Youngs Moduli (GPa) = 24.25898 63.97816 67.19059
#
# Poissons Ratio (x) = 0.74798 0.43506
# Poissons Ratio (y) = 0.28362 -0.01464
# Poissons Ratio (z) = 0.15708 -0.01394
#
# Static dielectric constant tensor:
#      x y z
#    x 1.651810 0.000000 -0.013970 
#    y 0.000000 1.672080 0.000000 
#    z -0.013970 0.000000 1.670550 
# 
# From -- ./inp_files/234415.got.cif
#   From: 2010.05.17/outbox.cif.g08.bks.cpg/sg15_118_cif.got.tgz:234415.got - 2010.06.03 18:47:42.
