data_PCOD9266184
_publ_section_title
;
Structure prediction by ZEFSAII (Michael W. Deem and Ramdas Pophale) SiO2 
 PCOD9266184
Probable space group: C 2/C
;
_chemical_formula_sum "Si O2"
_cell_formula_units_Z 48
_cell_length_a 28.199623
_cell_length_b 10.149770
_cell_length_c 17.337782
_cell_angle_alpha 90.000000
_cell_angle_beta 30.095151
_cell_angle_gamma 90.000000
_cell_volume 2488.340827
_symmetry_space_group_name_H-M "C 2/C"
_symmetry_group_IT_number 15
_symmetry_cell_setting 'monoclinic'
loop_
_space_group_symop_operation_xyz
x,y,z
-x,y,1/2-z
-x,-y,-z
x,-y,1/2+z
1/2+x,1/2+y,z
1/2-x,1/2+y,1/2-z
1/2-x,1/2-y,-z
1/2+x,1/2-y,1/2+z
loop_
_atom_site_type_symbol
_atom_site_label
_atom_site_fract_x
_atom_site_fract_y
_atom_site_fract_z
Si Si1 0.912313 0.263211 0.565939
Si Si2 0.640236 0.476248 0.908601
Si Si3 0.738453 0.369355 0.913538
Si Si4 0.453896 0.199251 0.484412
Si Si5 0.131581 0.619641 0.132520
Si Si6 0.843574 0.483545 0.560009
O O1 0.818694 0.294465 0.749606
O O2 0.900689 0.358578 0.509956
O O3 0.001061 0.303882 0.493946
O O4 0.909845 0.111958 0.543585
O O5 0.682890 0.466821 0.935165
O O6 0.731668 0.459781 0.724667
O O7 0.574487 0.349043 0.992064
O O8 0.794237 0.429240 0.907336
O O9 0.669803 0.257884 0.044303
O O10 0.534315 0.149157 0.312478
O O11 0.367314 0.102716 0.586607
O O12 0.127503 0.524319 0.065901
#
# Coordination Sequence:
#
# PCOD9266184 Si02
#       6
#     8   8   8   8   8   8
#     4  10  21  36  57  91 122 151 198 251 300 346
#     4  11  20  37  58  92 118 156 199 250 298 352
#     4   9  19  35  60  86 116 154 196 241 289 356
#     4  11  22  36  63  87 116 159 207 243 287 364
#     4  10  19  37  61  87 112 156 204 238 284 352
#     4  11  20  37  60  87 119 160 197 244 298 357
#
# _framework density 19.289961999999999
#
# number of rings (size 3 to 8) (size 9 to 14) (size 15 to 20)
#    0.000    1.667    3.333    2.500    0.000    0.000 
#    0.000    0.833    7.333    0.000    0.000    0.000 
#    0.000    0.000    0.000    0.000    0.000    0.000 
#
# Total GULP energy -134021.199095 kJ/mol
# GULP energy per Si atom -5584.216629 kJ/mol
# Density = 1.924606 g / cm^3
# Si number density = 19.289962 Si / 1000 Ang^3
#
#
#
# Elastic Constant Matrix: (Units=GPa)
#
#
# Indices 1 2 3 4 5 6 
#
# 1 86.6043 15.1353 30.4179 0.0000 8.6554 0.0000
# 2 15.1353 54.9182 -2.0478 0.0001 10.7357 0.0000
# 3 30.4179 -2.0478 37.1706 0.0000 10.5431 0.0000
# 4 0.0000 0.0001 0.0000 23.3186 0.0000 9.6208
# 5 8.6554 10.7357 10.5431 0.0000 11.2077 0.0000
# 6 0.0000 0.0000 0.0000 9.6208 0.0000 15.7274
#
#
#
# Elastic Compliance Matrix: (Units=1/GPa)
#
#
# Indices 1 2 3 4 5 6 
#
# 1 0.018335 -0.007841 -0.018482 0.000000 0.010737 0.000000
# 2 -0.007841 0.028850 0.019268 0.000000 -0.039705 0.000000
# 3 -0.018482 0.019268 0.060388 0.000000 -0.060991 0.000000
# 4 0.000000 0.000000 0.000000 0.057361 0.000001 -0.035089
# 5 0.010737 -0.039705 -0.060991 0.000001 0.176340 -0.000001
# 6 0.000000 0.000000 0.000000 -0.035089 -0.000001 0.085048
#
#
# Mechanical properties :
#
#
# Convention : Reuss Voigt Hill
#
# Bulk Modulus (GPa) = 10.69931 29.52265 20.11098
# Shear Modulus (GPa) = 10.60247 19.06326 14.83287
#
# Velocity S-wave (km/s) = 2.34698 3.14705 2.77599
# Velocity P-wave (km/s) = 3.59208 5.34258 4.55226
#
# Compressibility (1/GPa) = 0.09346401
#
# Stress axis : x y z
#
# Youngs Moduli (GPa) = 54.53920 34.66183 16.55946
#
# Poissons Ratio (x) = 0.27179 0.30605
# Poissons Ratio (y) = 0.42766 -0.31907
# Poissons Ratio (z) = 1.00799 -0.66787
#
# Static dielectric constant tensor:
#      x y z
#    x 1.709420 0.000000 -0.020170 
#    y 0.000000 1.648350 0.000000 
#    z -0.020170 0.000000 1.672100 
# 
# From -- ./inp_files/177007.got.cif
#   From: 2010.05.17/outbox.cif.g08.bks.cpg/sg15_89_cif.got.tgz:177007.got - 2010.06.03 18:47:42.
