data_PCOD9266513
_publ_section_title
;
Structure prediction by ZEFSAII (Michael W. Deem and Ramdas Pophale) SiO2 
 PCOD9266513
Probable space group: C 2/C
;
_chemical_formula_sum "Si O2"
_cell_formula_units_Z 40
_cell_length_a 12.965880
_cell_length_b 15.304942
_cell_length_c 16.819228
_cell_angle_alpha 90.000000
_cell_angle_beta 148.629465
_cell_angle_gamma 90.000000
_cell_volume 1737.478316
_symmetry_space_group_name_H-M "C 2/C"
_symmetry_group_IT_number 15
_symmetry_cell_setting 'monoclinic'
loop_
_space_group_symop_operation_xyz
x,y,z
-x,y,1/2-z
-x,-y,-z
x,-y,1/2+z
1/2+x,1/2+y,z
1/2-x,1/2+y,1/2-z
1/2-x,1/2-y,-z
1/2+x,1/2-y,1/2+z
loop_
_atom_site_type_symbol
_atom_site_label
_atom_site_fract_x
_atom_site_fract_y
_atom_site_fract_z
Si Si1 0.311164 0.437076 0.566849
Si Si2 0.412858 0.093885 0.432443
Si Si3 0.744748 0.277894 0.355291
Si Si4 0.447272 0.369677 0.908004
Si Si5 0.623590 0.377440 0.463226
O O1 0.500000 0.445134 0.750000
O O2 0.157357 0.387843 0.523185
O O3 0.365460 0.380807 0.525005
O O4 0.282662 0.536993 0.515837
O O5 0.577463 0.157305 0.504198
O O6 0.228361 0.081528 0.252753
O O7 0.500000 0.000000 0.500000
O O8 0.847966 0.226199 0.350072
O O9 0.728684 0.199944 0.409809
O O10 0.552722 0.332273 0.203267
O O11 0.473978 0.401877 0.015608
#
# Coordination Sequence:
#
# PCOD9266513 Si02
#       5
#     8   8   8   8   8
#     4  10  21  37  61  91 126 159 204 257 313 365
#     4  11  22  40  61  90 123 167 206 256 310 371
#     4  10  19  37  66  87 124 160 204 250 313 360
#     4   9  19  38  63  87 124 158 205 253 310 366
#     4  10  20  39  64  91 122 164 203 256 309 371
#
# _framework density 23.02187
#
# number of rings (size 3 to 8) (size 9 to 14) (size 15 to 20)
#    1.200    0.800    2.000    3.000    0.000    0.800 
#    0.000    8.000    0.000    0.000    0.000    0.000 
#    0.000    0.000    0.000    0.000    0.000    0.000 
#
# Total GULP energy -111393.968793 kJ/mol
# GULP energy per Si atom -5569.698440 kJ/mol
# Density = 2.296947 g / cm^3
# Si number density = 23.021870 Si / 1000 Ang^3
#
#
#
# Elastic Constant Matrix: (Units=GPa)
#
#
# Indices 1 2 3 4 5 6 
#
# 1 92.8186 12.7672 26.1628 0.0026 -38.3573 -0.0005
# 2 12.7672 56.1070 2.6072 0.0043 -1.8879 0.0000
# 3 26.1628 2.6072 58.9001 0.0030 -5.7345 0.0006
# 4 0.0026 0.0043 0.0030 31.3159 0.0019 -14.2203
# 5 -38.3573 -1.8879 -5.7345 0.0019 28.6468 -0.0001
# 6 -0.0005 0.0000 0.0006 -14.2203 -0.0001 34.5979
#
#
#
# Elastic Compliance Matrix: (Units=1/GPa)
#
#
# Indices 1 2 3 4 5 6 
#
# 1 0.029481 -0.005024 -0.009242 -0.000003 0.037293 -0.000001
# 2 -0.005024 0.018746 0.000884 -0.000002 -0.005315 -0.000001
# 3 -0.009242 0.000884 0.020239 -0.000001 -0.008265 -0.000001
# 4 -0.000003 -0.000002 -0.000001 0.039260 -0.000008 0.016136
# 5 0.037293 -0.005315 -0.008265 -0.000008 0.082838 -0.000002
# 6 -0.000001 -0.000001 -0.000001 0.016136 -0.000002 0.035536
#
#
# Mechanical properties :
#
#
# Convention : Reuss Voigt Hill
#
# Bulk Modulus (GPa) = 23.97880 32.32224 28.15052
# Shear Modulus (GPa) = 18.74304 29.99803 24.37054
#
# Velocity S-wave (km/s) = 2.85641 3.61366 3.25712
# Velocity P-wave (km/s) = 4.61704 5.61085 5.13803
#
# Compressibility (1/GPa) = 0.04170350
#
# Stress axis : x y z
#
# Youngs Moduli (GPa) = 33.91975 53.34351 49.40891
#
# Poissons Ratio (x) = 0.26801 0.45664
# Poissons Ratio (y) = 0.17042 -0.04370
# Poissons Ratio (z) = 0.31349 -0.04718
#
# Static dielectric constant tensor:
#      x y z
#    x 2.107920 -0.000010 0.045860 
#    y -0.000010 2.020640 0.000000 
#    z 0.045860 0.000000 1.698520 
# 
# From -- ./inp_files/205831.got.cif
#   From: 2010.05.17/outbox.cif.g08.bks.cpg/sg15_103_cif.got.tgz:205831.got - 2010.06.03 18:47:42.
