data_PCOD9266808
_publ_section_title
;
Structure prediction by ZEFSAII (Michael W. Deem and Ramdas Pophale) SiO2 
 PCOD9266808
Probable space group: C 2/C
;
_chemical_formula_sum "Si O2"
_cell_formula_units_Z 40
_cell_length_a 17.180694
_cell_length_b 8.076373
_cell_length_c 11.690319
_cell_angle_alpha 90.000000
_cell_angle_beta 79.827752
_cell_angle_gamma 90.000000
_cell_volume 1596.623997
_symmetry_space_group_name_H-M "C 2/C"
_symmetry_group_IT_number 15
_symmetry_cell_setting 'monoclinic'
loop_
_space_group_symop_operation_xyz
x,y,z
-x,y,1/2-z
-x,-y,-z
x,-y,1/2+z
1/2+x,1/2+y,z
1/2-x,1/2+y,1/2-z
1/2-x,1/2-y,-z
1/2+x,1/2-y,1/2+z
loop_
_atom_site_type_symbol
_atom_site_label
_atom_site_fract_x
_atom_site_fract_y
_atom_site_fract_z
Si Si1 0.770105 0.395117 0.214621
Si Si2 0.628619 0.599643 0.249993
Si Si3 0.632968 0.699256 0.616661
Si Si4 0.974877 0.725769 0.561392
Si Si5 0.413773 0.115050 0.146173
O O1 0.694075 0.479925 0.294146
O O2 0.826090 0.274793 0.272534
O O3 0.725484 0.294161 0.125821
O O4 0.825683 0.541414 0.153532
O O5 0.614833 0.495823 0.139110
O O6 0.550916 0.635564 0.342503
O O7 0.598083 0.767067 0.509836
O O8 0.589231 0.794052 0.732017
O O9 0.969492 0.548011 0.625244
O O10 0.052756 0.728930 0.464097
#
# Coordination Sequence:
#
# PCOD9266808 Si02
#       5
#     8   8   8   8   8
#     4   9  17  37  59  88 128 162 197 268 301 360
#     4   9  19  35  59  89 121 164 205 256 304 368
#     4  10  19  38  61  88 123 165 203 252 309 367
#     4  10  22  37  63  90 123 168 202 253 319 371
#     4  10  20  38  59  90 124 159 206 257 306 366
#
# _framework density 25.052861
#
# number of rings (size 3 to 8) (size 9 to 14) (size 15 to 20)
#    1.200    1.200    2.000    0.600    0.000    4.000 
#    0.000    5.000    0.000    9.600    0.000    0.000 
#    0.000    0.000    0.000    0.000    0.000    0.000 
#
# Total GULP energy -111503.658387 kJ/mol
# GULP energy per Si atom -5575.182919 kJ/mol
# Density = 2.499584 g / cm^3
# Si number density = 25.052861 Si / 1000 Ang^3
#
#
#
# Elastic Constant Matrix: (Units=GPa)
#
#
# Indices 1 2 3 4 5 6 
#
# 1 108.9977 27.4045 26.9446 0.0000 -4.7369 0.0000
# 2 27.4045 79.5546 28.0829 0.0000 3.3131 0.0000
# 3 26.9446 28.0829 76.1988 0.0000 -2.0841 0.0000
# 4 0.0000 0.0000 0.0000 39.4804 0.0000 -11.0381
# 5 -4.7369 3.3131 -2.0841 0.0000 27.7398 0.0000
# 6 0.0000 0.0000 0.0000 -11.0381 0.0000 18.9496
#
#
#
# Elastic Compliance Matrix: (Units=1/GPa)
#
#
# Indices 1 2 3 4 5 6 
#
# 1 0.010623 -0.002797 -0.002672 0.000000 0.001947 0.000000
# 2 -0.002797 0.015313 -0.004727 0.000000 -0.002662 0.000000
# 3 -0.002672 -0.004727 0.015846 0.000000 0.001299 0.000000
# 4 0.000000 0.000000 0.000000 0.030257 0.000000 0.017624
# 5 0.001947 -0.002662 0.001299 0.000000 0.036797 0.000000
# 6 0.000000 0.000000 0.000000 0.017624 0.000000 0.063038
#
#
# Mechanical properties :
#
#
# Convention : Reuss Voigt Hill
#
# Bulk Modulus (GPa) = 46.75308 47.73501 47.24404
# Shear Modulus (GPa) = 25.07561 29.38857 27.23209
#
# Velocity S-wave (km/s) = 3.16715 3.42872 3.30052
# Velocity P-wave (km/s) = 5.66363 5.89660 5.78129
#
# Compressibility (1/GPa) = 0.02138897
#
# Stress axis : x y z
#
# Youngs Moduli (GPa) = 94.13551 65.30350 63.10632
#
# Poissons Ratio (x) = 0.18266 0.16864
# Poissons Ratio (y) = 0.26331 0.29832
# Poissons Ratio (z) = 0.25155 0.30871
#
# Static dielectric constant tensor:
#      x y z
#    x 2.006950 0.000000 -0.013470 
#    y 0.000000 2.023930 0.000000 
#    z -0.013470 0.000000 1.956550 
# 
# From -- ./inp_files/109642.got.cif
#   From: 2010.05.17/outbox.cif.g08.bks.cpg/sg15_55_cif.got.tgz:109642.got - 2010.06.03 18:47:42.
