data_PCOD9266219
_publ_section_title
;
Structure prediction by ZEFSAII (Michael W. Deem and Ramdas Pophale) SiO2 
 PCOD9266219
Probable space group: C 2/C
;
_chemical_formula_sum "Si O2"
_cell_formula_units_Z 64
_cell_length_a 16.630497
_cell_length_b 13.945393
_cell_length_c 17.155851
_cell_angle_alpha 90.000000
_cell_angle_beta 39.970347
_cell_angle_gamma 90.000000
_cell_volume 2555.922859
_symmetry_space_group_name_H-M "C 2/C"
_symmetry_group_IT_number 15
_symmetry_cell_setting 'monoclinic'
loop_
_space_group_symop_operation_xyz
x,y,z
-x,y,1/2-z
-x,-y,-z
x,-y,1/2+z
1/2+x,1/2+y,z
1/2-x,1/2+y,1/2-z
1/2-x,1/2-y,-z
1/2+x,1/2-y,1/2+z
loop_
_atom_site_type_symbol
_atom_site_label
_atom_site_fract_x
_atom_site_fract_y
_atom_site_fract_z
Si Si1 0.581801 0.821034 0.357232
Si Si2 0.089601 0.122391 0.370395
Si Si3 0.318958 0.023752 0.162522
Si Si4 0.130016 0.620702 0.112922
Si Si5 0.903270 0.911319 0.888063
Si Si6 0.021852 0.693770 0.398329
Si Si7 0.593751 0.378950 0.049292
Si Si8 0.631025 0.083290 0.551625
O O1 0.657489 0.722591 0.294131
O O2 0.501340 0.790970 0.493439
O O3 0.486676 0.846693 0.359036
O O4 0.651832 0.918960 0.326335
O O5 0.171508 0.040389 0.268810
O O6 0.088981 0.097382 0.461268
O O7 0.953992 0.125419 0.432618
O O8 0.378386 0.105976 0.176503
O O9 0.371161 0.042879 0.036708
O O10 0.000000 0.653248 0.250000
O O11 0.106265 0.650866 0.041844
O O12 0.262205 0.657257 0.045511
O O13 0.126156 0.505712 0.114303
O O14 0.766992 0.874871 0.966635
O O15 0.000000 0.882783 0.750000
O O16 0.908631 0.027531 0.894710
O O17 0.016143 0.798666 0.361437
#
# Coordination Sequence:
#
# PCOD9266219 Si02
#       8
#     8   8   8   8   8   8   8   8
#     4  10  21  39  67  93 124 171 218 264 321 380
#     4  11  24  41  64  98 131 169 219 269 327 389
#     4  11  19  39  70  92 130 166 220 264 319 391
#     4  11  20  35  61  96 131 167 215 260 317 384
#     4  11  23  43  66  90 132 176 218 265 323 394
#     4  10  19  37  61  92 127 171 207 261 321 389
#     4  10  24  38  61  96 137 167 208 272 337 377
#     4  10  20  40  67  92 123 173 215 264 320 373
#
# _framework density 25.039881000000001
#
# number of rings (size 3 to 8) (size 9 to 14) (size 15 to 20)
#    0.000    1.500    3.750    2.250    0.000    2.000 
#    0.000    1.875    0.000    0.000    0.000    0.000 
#    0.000    0.000    0.000    0.000    0.000    0.000 
#
# Total GULP energy -178511.641877 kJ/mol
# GULP energy per Si atom -5578.488809 kJ/mol
# Density = 2.498289 g / cm^3
# Si number density = 25.039881 Si / 1000 Ang^3
#
#
#
# Elastic Constant Matrix: (Units=GPa)
#
#
# Indices 1 2 3 4 5 6 
#
# 1 141.0840 22.2139 11.8866 0.0000 -12.4994 0.0000
# 2 22.2139 93.5574 9.8025 0.0000 -14.9290 0.0000
# 3 11.8866 9.8025 31.4493 0.0000 -0.4084 0.0000
# 4 0.0000 0.0000 0.0000 17.9749 0.0000 3.1217
# 5 -12.4994 -14.9290 -0.4084 0.0000 24.2518 0.0000
# 6 0.0000 0.0000 0.0000 3.1217 0.0000 35.7146
#
#
#
# Elastic Compliance Matrix: (Units=1/GPa)
#
#
# Indices 1 2 3 4 5 6 
#
# 1 0.007762 -0.001046 -0.002565 0.000000 0.003314 0.000000
# 2 -0.001046 0.012416 -0.003383 0.000000 0.007047 0.000000
# 3 -0.002565 -0.003383 0.033784 0.000000 -0.002836 0.000000
# 4 0.000000 0.000000 0.000000 0.056490 0.000000 -0.004938
# 5 0.003314 0.007047 -0.002836 0.000000 0.047232 0.000000
# 6 0.000000 0.000000 0.000000 -0.004938 0.000000 0.028431
#
#
# Mechanical properties :
#
#
# Convention : Reuss Voigt Hill
#
# Bulk Modulus (GPa) = 25.01554 39.32187 32.16870
# Shear Modulus (GPa) = 23.42697 30.40078 26.91387
#
# Velocity S-wave (km/s) = 3.06205 3.48817 3.28203
# Velocity P-wave (km/s) = 4.74484 5.65339 5.21893
#
# Compressibility (1/GPa) = 0.03997515
#
# Stress axis : x y z
#
# Youngs Moduli (GPa) = 128.82802 80.54201 29.59945
#
# Poissons Ratio (x) = 0.08421 0.07592
# Poissons Ratio (y) = 0.13469 0.10014
# Poissons Ratio (z) = 0.33044 0.27250
#
# Static dielectric constant tensor:
#      x y z
#    x 1.985070 0.000000 0.002860 
#    y 0.000000 2.134370 0.000000 
#    z 0.002860 0.000000 2.006320 
# 
# From -- ./inp_files/205683.got.cif
#   From: 2010.05.17/outbox.cif.g08.bks.cpg/sg15_103_cif.got.tgz:205683.got - 2010.06.03 18:47:42.
