data_PCOD9266195
_publ_section_title
;
Structure prediction by ZEFSAII (Michael W. Deem and Ramdas Pophale) SiO2 
 PCOD9266195
Probable space group: C 2/C
;
_chemical_formula_sum "Si O2"
_cell_formula_units_Z 64
_cell_length_a 9.420666
_cell_length_b 20.862761
_cell_length_c 17.223804
_cell_angle_alpha 90.000000
_cell_angle_beta 87.780392
_cell_angle_gamma 90.000000
_cell_volume 3382.645605
_symmetry_space_group_name_H-M "C 2/C"
_symmetry_group_IT_number 15
_symmetry_cell_setting 'monoclinic'
loop_
_space_group_symop_operation_xyz
x,y,z
-x,y,1/2-z
-x,-y,-z
x,-y,1/2+z
1/2+x,1/2+y,z
1/2-x,1/2+y,1/2-z
1/2-x,1/2-y,-z
1/2+x,1/2-y,1/2+z
loop_
_atom_site_type_symbol
_atom_site_label
_atom_site_fract_x
_atom_site_fract_y
_atom_site_fract_z
Si Si1 0.859308 0.272242 0.219831
Si Si2 0.391898 0.676950 0.679857
Si Si3 0.910080 0.617174 0.468450
Si Si4 0.322124 0.707232 0.066285
Si Si5 0.084825 0.749651 0.479403
Si Si6 0.343231 0.463929 0.229230
Si Si7 0.081110 0.528438 0.173938
Si Si8 0.387320 0.088331 0.647831
O O1 0.751736 0.288449 0.290332
O O2 0.788435 0.233019 0.152156
O O3 0.903272 0.339875 0.179486
O O4 0.000000 0.240120 0.250000
O O5 0.500000 0.684871 0.750000
O O6 0.438889 0.709756 0.599182
O O7 0.363657 0.600542 0.676892
O O8 0.755371 0.640714 0.443302
O O9 0.955407 0.566171 0.403183
O O10 0.886540 0.591331 0.555265
O O11 0.019004 0.677893 0.470206
O O12 0.250000 0.750000 0.000000
O O13 0.488381 0.715762 0.046754
O O14 0.250000 0.750000 0.500000
O O15 0.500000 0.485675 0.250000
O O16 0.246011 0.516916 0.189889
O O17 0.252386 0.440401 0.306784
O O18 0.000000 0.558109 0.250000
O O19 0.017604 0.456938 0.167253
#
# Coordination Sequence:
#
# PCOD9266195 Si02
#       8
#     8   8   8   8   8   8   8   8
#     4  11  19  33  58  85 112 150 200 241 285 346
#     4  10  20  32  57  85 112 148 194 242 293 342
#     4  11  23  38  63  82 122 162 196 238 303 364
#     4  10  20  37  56  79 122 158 187 237 297 356
#     4  11  23  37  57  89 126 154 190 249 297 354
#     4   9  20  36  62  87 117 147 199 256 290 339
#     4  10  22  41  61  87 118 158 200 243 295 357
#     4  10  19  37  61  88 114 155 201 249 291 346
#
# _framework density 18.920102
#
# number of rings (size 3 to 8) (size 9 to 14) (size 15 to 20)
#    0.000    1.750    2.500    4.500    5.250    1.500 
#    0.000    3.750    0.000    0.000    0.000    0.000 
#    0.000    0.000    0.000    0.000    0.000    0.000 
#
# Total GULP energy -178473.120850 kJ/mol
# GULP energy per Si atom -5577.285027 kJ/mol
# Density = 1.887704 g / cm^3
# Si number density = 18.920102 Si / 1000 Ang^3
#
#
#
# Elastic Constant Matrix: (Units=GPa)
#
#
# Indices 1 2 3 4 5 6 
#
# 1 101.4748 10.5538 -6.3886 0.0000 9.9614 0.0000
# 2 10.5538 33.9643 29.6586 0.0000 2.0396 0.0000
# 3 -6.3886 29.6586 84.3730 0.0000 -1.2827 0.0000
# 4 0.0000 0.0000 0.0000 21.6951 0.0000 7.1091
# 5 9.9614 2.0396 -1.2827 0.0000 25.0636 0.0000
# 6 0.0000 0.0000 0.0000 7.1091 0.0000 8.1283
#
#
#
# Elastic Compliance Matrix: (Units=1/GPa)
#
#
# Indices 1 2 3 4 5 6 
#
# 1 0.010976 -0.005569 0.002732 0.000000 -0.003769 0.000000
# 2 -0.005569 0.045761 -0.016543 0.000000 -0.002357 0.000000
# 3 0.002732 -0.016543 0.017892 0.000000 0.001176 0.000000
# 4 0.000000 0.000000 0.000000 0.064610 0.000000 -0.056509
# 5 -0.003769 -0.002357 0.001176 0.000000 0.041649 0.000000
# 6 0.000000 0.000000 0.000000 -0.056509 0.000000 0.172452
#
#
# Mechanical properties :
#
#
# Convention : Reuss Voigt Hill
#
# Bulk Modulus (GPa) = 27.88123 31.93996 29.91059
# Shear Modulus (GPa) = 12.37449 23.37663 17.87556
#
# Velocity S-wave (km/s) = 2.56019 3.51884 3.07708
# Velocity P-wave (km/s) = 4.84848 5.78168 5.33552
#
# Compressibility (1/GPa) = 0.03586643
#
# Stress axis : x y z
#
# Youngs Moduli (GPa) = 91.10871 21.85278 55.89064
#
# Poissons Ratio (x) = 0.12171 -0.15267
# Poissons Ratio (y) = 0.50743 0.92461
# Poissons Ratio (z) = -0.24887 0.36152
#
# Static dielectric constant tensor:
#      x y z
#    x 1.699740 0.000000 0.003020 
#    y 0.000000 1.672680 0.000000 
#    z 0.003020 0.000000 1.706460 
# 
# From -- ./inp_files/192164.got.cif
#   From: 2010.05.17/outbox.cif.g08.bks.cpg/sg15_97_cif.got.tgz:192164.got - 2010.06.03 18:47:42.
