data_PCOD9266768
_publ_section_title
;
Structure prediction by ZEFSAII (Michael W. Deem and Ramdas Pophale) SiO2 
 PCOD9266768
Probable space group: C 2/C
;
_chemical_formula_sum "Si O2"
_cell_formula_units_Z 48
_cell_length_a 6.261633
_cell_length_b 22.300861
_cell_length_c 16.928453
_cell_angle_alpha 90.000000
_cell_angle_beta 108.174865
_cell_angle_gamma 90.000000
_cell_volume 2245.949228
_symmetry_space_group_name_H-M "C 2/C"
_symmetry_group_IT_number 15
_symmetry_cell_setting 'monoclinic'
loop_
_space_group_symop_operation_xyz
x,y,z
-x,y,1/2-z
-x,-y,-z
x,-y,1/2+z
1/2+x,1/2+y,z
1/2-x,1/2+y,1/2-z
1/2-x,1/2-y,-z
1/2+x,1/2-y,1/2+z
loop_
_atom_site_type_symbol
_atom_site_label
_atom_site_fract_x
_atom_site_fract_y
_atom_site_fract_z
Si Si1 0.309629 0.308634 0.957143
Si Si2 0.500000 0.665416 0.750000
Si Si3 0.825302 0.130094 0.895321
Si Si4 0.314471 0.991129 0.165230
Si Si5 0.500000 0.441439 0.750000
Si Si6 0.046063 0.733597 0.665341
Si Si7 0.045904 0.386738 0.663490
O O1 0.447075 0.286851 0.896222
O O2 0.076449 0.339118 0.904813
O O3 0.250000 0.250000 0.000000
O O4 0.468165 0.351522 0.026245
O O5 0.406070 0.629137 0.813261
O O6 0.704732 0.705397 0.805425
O O7 0.740590 0.062897 0.899279
O O8 0.633431 0.181552 0.877436
O O9 0.500000 0.968491 0.250000
O O10 0.423671 0.049208 0.137236
O O11 0.113157 0.017629 0.195499
O O12 0.691811 0.400306 0.810968
O O13 0.000000 0.752683 0.750000
O O14 0.000000 0.369910 0.750000
#
# Coordination Sequence:
#
# PCOD9266768 Si02
#       7
#     8   4   8   8   4   8   8
#     4  12  25  45  62  96 141 171 223 283 317 389
#     4  10  19  38  60  94 124 170 223 268 324 392
#     4  11  22  39  66  96 135 171 217 277 340 385
#     4   9  18  38  65  97 126 163 221 274 324 401
#     4   8  17  42  70  96 124 172 225 266 338 398
#     4  10  23  42  65  93 125 185 224 266 331 390
#     4   9  22  43  65  95 126 173 220 271 329 398
#
# _framework density 21.37181
#
# number of rings (size 3 to 8) (size 9 to 14) (size 15 to 20)
#    0.000    2.333    1.667    2.500    1.167    2.000 
#   18.000    0.833    0.000    0.000    0.000    0.000 
#    0.000    0.000    0.000    0.000    0.000    0.000 
#
# Total GULP energy -134174.226702 kJ/mol
# GULP energy per Si atom -5590.592779 kJ/mol
# Density = 2.132317 g / cm^3
# Si number density = 21.371810 Si / 1000 Ang^3
#
#
#
# Elastic Constant Matrix: (Units=GPa)
#
#
# Indices 1 2 3 4 5 6 
#
# 1 109.2923 39.5494 32.1302 0.0000 25.0537 0.0000
# 2 39.5494 119.0796 67.2074 0.0000 22.4545 0.0000
# 3 32.1302 67.2074 88.7866 0.0000 26.9271 0.0000
# 4 0.0000 0.0000 0.0000 41.3478 0.0000 8.4566
# 5 25.0537 22.4545 26.9271 0.0000 32.2945 0.0000
# 6 0.0000 0.0000 0.0000 8.4566 0.0000 17.6813
#
#
#
# Elastic Compliance Matrix: (Units=1/GPa)
#
#
# Indices 1 2 3 4 5 6 
#
# 1 0.011750 -0.002403 -0.000235 0.000000 -0.007249 0.000000
# 2 -0.002403 0.015191 -0.010696 0.000000 0.000220 0.000000
# 3 -0.000235 -0.010696 0.022933 0.000000 -0.011502 0.000000
# 4 0.000000 0.000000 0.000000 0.026807 0.000000 -0.012821
# 5 -0.007249 0.000220 -0.011502 0.000000 0.046026 0.000000
# 6 0.000000 0.000000 0.000000 -0.012821 0.000000 0.062689
#
#
# Mechanical properties :
#
#
# Convention : Reuss Voigt Hill
#
# Bulk Modulus (GPa) = 43.09194 66.10362 54.59778
# Shear Modulus (GPa) = 22.74793 30.14945 26.44869
#
# Velocity S-wave (km/s) = 3.26604 3.76002 3.52170
# Velocity P-wave (km/s) = 5.86766 7.06029 6.49142
#
# Compressibility (1/GPa) = 0.02320619
#
# Stress axis : x y z
#
# Youngs Moduli (GPa) = 85.10551 65.82761 43.60579
#
# Poissons Ratio (x) = 0.15820 0.01023
# Poissons Ratio (y) = 0.20453 0.46642
# Poissons Ratio (z) = 0.01996 0.70410
#
# Static dielectric constant tensor:
#      x y z
#    x 1.799970 0.000000 -0.019370 
#    y 0.000000 1.787850 0.000000 
#    z -0.019370 0.000000 1.779020 
# 
# From -- ./inp_files/185571.got.cif
#   From: 2010.05.17/outbox.cif.g08.bks.cpg/sg15_93_cif.got.tgz:185571.got - 2010.06.03 18:47:42.
