data_PCOD9266776
_publ_section_title
;
Structure prediction by ZEFSAII (Michael W. Deem and Ramdas Pophale) SiO2 
 PCOD9266776
Probable space group: C 2/C
;
_chemical_formula_sum "Si O2"
_cell_formula_units_Z 64
_cell_length_a 23.432742
_cell_length_b 18.009473
_cell_length_c 15.314303
_cell_angle_alpha 90.000000
_cell_angle_beta 154.411517
_cell_angle_gamma 90.000000
_cell_volume 2791.316243
_symmetry_space_group_name_H-M "C 2/C"
_symmetry_group_IT_number 15
_symmetry_cell_setting 'monoclinic'
loop_
_space_group_symop_operation_xyz
x,y,z
-x,y,1/2-z
-x,-y,-z
x,-y,1/2+z
1/2+x,1/2+y,z
1/2-x,1/2+y,1/2-z
1/2-x,1/2-y,-z
1/2+x,1/2-y,1/2+z
loop_
_atom_site_type_symbol
_atom_site_label
_atom_site_fract_x
_atom_site_fract_y
_atom_site_fract_z
Si Si1 0.227394 0.191564 0.312776
Si Si2 0.815213 0.030839 0.824451
Si Si3 0.740172 0.085877 0.468108
Si Si4 0.989526 0.103373 0.913445
Si Si5 0.145903 0.289522 0.968195
Si Si6 0.344198 0.051552 0.540721
Si Si7 0.356193 0.168564 0.309393
Si Si8 0.338587 0.845303 0.310271
O O1 0.267264 0.129701 0.437447
O O2 0.326579 0.179773 0.369212
O O3 0.228029 0.277872 0.334667
O O4 0.084330 0.169826 0.074028
O O5 0.898581 0.082666 0.871643
O O6 0.748711 0.080563 0.806976
O O7 0.702410 0.991018 0.611366
O O8 0.918881 0.965912 0.986026
O O9 0.887644 0.110911 0.694774
O O10 0.656422 0.143842 0.412518
O O11 0.709757 0.097030 0.325521
O O12 0.703421 0.004208 0.449838
O O13 0.000000 0.255374 0.750000
O O14 0.274150 0.234734 0.145714
O O15 0.152264 0.322476 0.074531
O O16 0.500000 0.062168 0.750000
O O17 0.510459 0.154890 0.510813
#
# Coordination Sequence:
#
# PCOD9266776 Si02
#       8
#     8   8   8   8   8   8   8   8
#     4  10  24  36  54  89 123 157 190 249 299 353
#     4   9  18  34  60  85 105 151 203 254 283 351
#     4  11  19  33  59  87 115 159 200 237 288 364
#     4   9  18  34  54  83 115 149 200 235 293 354
#     4  11  20  31  51  85 127 161 187 232 294 375
#     4  10  19  38  61  80 109 155 208 240 286 350
#     4  11  24  33  53  93 127 159 184 244 304 357
#     4  11  20  35  55  85 123 160 195 237 303 357
#
# _framework density 22.928252000000001
#
# number of rings (size 3 to 8) (size 9 to 14) (size 15 to 20)
#    0.000    1.750    3.750    3.000    5.250    0.000 
#    0.000    5.625    0.000    0.750    6.500    0.000 
#    0.000    0.000    0.000    0.000    0.000    0.000 
#
# Total GULP energy -178774.235783 kJ/mol
# GULP energy per Si atom -5586.694868 kJ/mol
# Density = 2.287607 g / cm^3
# Si number density = 22.928252 Si / 1000 Ang^3
#
#
#
# Elastic Constant Matrix: (Units=GPa)
#
#
# Indices 1 2 3 4 5 6 
#
# 1 39.7249 10.5416 16.7316 0.0000 17.7890 0.0000
# 2 10.5416 97.4315 33.7633 0.0000 9.1781 0.0000
# 3 16.7316 33.7633 106.8773 0.0000 35.1293 0.0000
# 4 0.0000 0.0000 0.0000 13.9416 0.0000 -0.4643
# 5 17.7890 9.1781 35.1293 0.0000 23.7919 0.0000
# 6 0.0000 0.0000 0.0000 -0.4643 0.0000 25.9054
#
#
#
# Elastic Compliance Matrix: (Units=1/GPa)
#
#
# Indices 1 2 3 4 5 6 
#
# 1 0.041365 -0.003436 0.008432 0.000000 -0.042053 0.000000
# 2 -0.003436 0.011851 -0.004950 0.000000 0.005306 0.000000
# 3 0.008432 -0.004950 0.021460 0.000000 -0.036081 0.000000
# 4 0.000000 0.000000 0.000000 0.071771 0.000000 0.001286
# 5 -0.042053 0.005306 -0.036081 0.000000 0.124701 0.000000
# 6 0.000000 0.000000 0.000000 0.001286 0.000000 0.038625
#
#
# Mechanical properties :
#
#
# Convention : Reuss Voigt Hill
#
# Bulk Modulus (GPa) = 13.37474 40.67851 27.02663
# Shear Modulus (GPa) = 14.94310 24.92760 19.93535
#
# Velocity S-wave (km/s) = 2.55568 3.30085 2.95187
# Velocity P-wave (km/s) = 3.81505 5.68398 4.84057
#
# Compressibility (1/GPa) = 0.07476780
#
# Stress axis : x y z
#
# Youngs Moduli (GPa) = 24.17501 84.38199 46.59938
#
# Poissons Ratio (x) = 0.28995 -0.39294
# Poissons Ratio (y) = 0.08307 0.23066
# Poissons Ratio (z) = -0.20385 0.41769
#
# Static dielectric constant tensor:
#      x y z
#    x 1.861770 0.000000 0.012150 
#    y 0.000000 1.936800 0.000000 
#    z 0.012150 0.000000 1.868790 
# 
# From -- ./inp_files/259529.got.cif
#   From: 2010.05.17/outbox.cif.g08.bks.cpg/sg15_130_cif.got.tgz:259529.got - 2010.06.03 18:47:42.
