data_PCOD9266913
_publ_section_title
;
Structure prediction by ZEFSAII (Michael W. Deem and Ramdas Pophale) SiO2 
 PCOD9266913
Probable space group: C 2/C
;
_chemical_formula_sum "Si O2"
_cell_formula_units_Z 56
_cell_length_a 14.763429
_cell_length_b 12.963479
_cell_length_c 15.776814
_cell_angle_alpha 90.000000
_cell_angle_beta 52.917082
_cell_angle_gamma 90.000000
_cell_volume 2408.809206
_symmetry_space_group_name_H-M "C 2/C"
_symmetry_group_IT_number 15
_symmetry_cell_setting 'monoclinic'
loop_
_space_group_symop_operation_xyz
x,y,z
-x,y,1/2-z
-x,-y,-z
x,-y,1/2+z
1/2+x,1/2+y,z
1/2-x,1/2+y,1/2-z
1/2-x,1/2-y,-z
1/2+x,1/2-y,1/2+z
loop_
_atom_site_type_symbol
_atom_site_label
_atom_site_fract_x
_atom_site_fract_y
_atom_site_fract_z
Si Si1 0.940074 0.522857 0.877469
Si Si2 0.260940 0.514893 0.118908
Si Si3 0.503742 0.748288 0.350074
Si Si4 0.633583 0.106866 0.344334
Si Si5 0.043040 0.023100 0.094131
Si Si6 0.679268 0.469842 0.186001
Si Si7 0.241133 0.806673 0.270693
O O1 0.814372 0.488459 0.924170
O O2 0.000000 0.523237 0.750000
O O3 0.950166 0.640857 0.902932
O O4 0.012736 0.446221 0.895469
O O5 0.202213 0.592963 0.216537
O O6 0.246694 0.403189 0.172006
O O7 0.390863 0.531476 0.019436
O O8 0.500000 0.736425 0.250000
O O9 0.445476 0.646643 0.419519
O O10 0.636260 0.753207 0.298524
O O11 0.644292 0.227638 0.354720
O O12 0.710224 0.041757 0.366428
O O13 0.111399 0.986508 0.138970
O O14 0.912931 0.999978 0.189169
O O15 0.715081 0.355629 0.193707
#
# Coordination Sequence:
#
# PCOD9266913 Si02
#       7
#     8   8   8   8   8   8   8
#     4   9  17  35  57  84 115 155 193 238 295 356
#     4  10  22  38  62  86 116 157 206 236 291 365
#     4  11  16  34  61  84 115 152 195 239 301 343
#     4  10  19  38  63  84 118 158 199 244 300 347
#     4  11  22  38  58  88 121 156 195 251 294 348
#     4  10  21  38  60  85 119 158 196 245 301 351
#     4  11  20  37  63  88 110 158 200 242 294 356
#
# _framework density 23.248002
#
# number of rings (size 3 to 8) (size 9 to 14) (size 15 to 20)
#    0.000    1.714    8.571    0.000    0.000    2.857 
#    7.714    2.857    0.000    0.000    0.000    0.000 
#    0.000    0.000    0.000    0.000    0.000    0.000 
#
# Total GULP energy -156505.536246 kJ/mol
# GULP energy per Si atom -5589.483437 kJ/mol
# Density = 2.319509 g / cm^3
# Si number density = 23.248002 Si / 1000 Ang^3
#
#
#
# Elastic Constant Matrix: (Units=GPa)
#
#
# Indices 1 2 3 4 5 6 
#
# 1 127.4401 32.7870 1.9539 0.0000 -4.9012 0.0000
# 2 32.7870 82.2937 -10.9885 0.0000 3.6143 0.0000
# 3 1.9539 -10.9885 74.0302 0.0000 -8.4224 0.0000
# 4 0.0000 0.0000 0.0000 6.4237 0.0000 9.3923
# 5 -4.9012 3.6143 -8.4224 0.0000 26.8593 0.0000
# 6 0.0000 0.0000 0.0000 9.3923 0.0000 6.0957
#
#
#
# Elastic Compliance Matrix: (Units=1/GPa)
#
#
# Indices 1 2 3 4 5 6 
#
# 1 0.008882 -0.003699 -0.000563 0.000000 0.001942 0.000000
# 2 -0.003699 0.013971 0.001950 0.000000 -0.001943 0.000000
# 3 -0.000563 0.001950 0.014280 0.000000 0.004113 0.000000
# 4 0.000000 0.000000 0.000000 -0.124255 0.000000 0.191452
# 5 0.001942 -0.001943 0.004113 0.000000 0.039137 0.000000
# 6 0.000000 0.000000 0.000000 0.191452 0.000000 -0.130940
#
#
# Mechanical properties :
#
#
# Convention : Reuss Voigt Hill
#
# Bulk Modulus (GPa) = 30.75917 36.80765 33.78341
# Shear Modulus (GPa) = -30.58742 25.20985 -2.68878
#
# Velocity S-wave (km/s) = -3.63119 3.29658 -1.07660
# Velocity P-wave (km/s) = 2.07874 5.50971 3.60803
#
# Compressibility (1/GPa) = 0.03251064
#
# Stress axis : x y z
#
# Youngs Moduli (GPa) = 112.58970 71.57619 70.02674
#
# Poissons Ratio (x) = 0.26476 0.03939
# Poissons Ratio (y) = 0.41648 -0.13657
# Poissons Ratio (z) = 0.06333 -0.13960
#
# Static dielectric constant tensor:
#      x y z
#    x 1.889490 0.000000 0.024130 
#    y 0.000000 1.839550 0.000000 
#    z 0.024130 0.000000 1.947930 
# 
# From -- ./inp_files/182107.got.cif
#   From: 2010.05.17/outbox.cif.g08.bks.cpg/sg15_92_cif.got.tgz:182107.got - 2010.06.03 18:47:42.
