data_PCOD9266565
_publ_section_title
;
Structure prediction by ZEFSAII (Michael W. Deem and Ramdas Pophale) SiO2 
 PCOD9266565
Probable space group: C 2/C
;
_chemical_formula_sum "Si O2"
_cell_formula_units_Z 52
_cell_length_a 21.169956
_cell_length_b 11.315741
_cell_length_c 14.174076
_cell_angle_alpha 90.000000
_cell_angle_beta 135.841171
_cell_angle_gamma 90.000000
_cell_volume 2365.441494
_symmetry_space_group_name_H-M "C 2/C"
_symmetry_group_IT_number 15
_symmetry_cell_setting 'monoclinic'
loop_
_space_group_symop_operation_xyz
x,y,z
-x,y,1/2-z
-x,-y,-z
x,-y,1/2+z
1/2+x,1/2+y,z
1/2-x,1/2+y,1/2-z
1/2-x,1/2-y,-z
1/2+x,1/2-y,1/2+z
loop_
_atom_site_type_symbol
_atom_site_label
_atom_site_fract_x
_atom_site_fract_y
_atom_site_fract_z
Si Si1 0.843618 0.464436 0.085792
Si Si2 0.500000 0.500000 0.000000
Si Si3 0.340317 0.520066 0.191636
Si Si4 0.000000 0.363567 0.750000
Si Si5 0.000000 0.091590 0.250000
Si Si6 0.049031 0.739727 0.498078
Si Si7 0.791570 0.710926 0.698577
Si Si8 0.412585 0.227916 0.512351
O O1 0.808218 0.382908 0.133300
O O2 0.917965 0.555744 0.199257
O O3 0.757620 0.526248 0.943349
O O4 0.894334 0.378612 0.065155
O O5 0.399970 0.530142 0.840345
O O6 0.543854 0.619743 0.003998
O O7 0.411857 0.518666 0.182334
O O8 0.319057 0.659773 0.187124
O O9 0.036620 0.292416 0.877447
O O10 0.026850 0.171976 0.369020
O O11 0.968313 0.692731 0.480051
O O12 0.141571 0.690484 0.642714
O O13 0.686426 0.718890 0.612127
#
# Coordination Sequence:
#
# PCOD9266565 Si02
#       8
#     8   4   8   4   4   8   8   8
#     4  11  21  39  65 101 140 178 214 274 345 404
#     4  10  22  42  66  86 124 166 216 284 338 384
#     4  10  20  35  63 102 129 160 226 275 325 393
#     4  12  29  45  60  92 148 188 217 263 350 442
#     4  12  15  33  64 102 124 154 217 297 320 364
#     4  11  25  46  62  93 127 175 231 278 338 414
#     4  10  19  37  67  98 129 165 228 283 321 393
#     4  11  19  36  69 100 128 166 229 285 323 380
#
# _framework density 21.98321
#
# number of rings (size 3 to 8) (size 9 to 14) (size 15 to 20)
#    0.000    1.231    6.154    2.308    0.000    4.308 
#    0.000   10.769    0.000    0.000    0.000    0.000 
#    0.000    0.000    0.000    0.000    0.000    0.000 
#
# Total GULP energy -144831.034271 kJ/mol
# GULP energy per Si atom -5570.424395 kJ/mol
# Density = 2.193318 g / cm^3
# Si number density = 21.983210 Si / 1000 Ang^3
#
#
#
# Elastic Constant Matrix: (Units=GPa)
#
#
# Indices 1 2 3 4 5 6 
#
# 1 59.1721 2.1393 33.3675 0.0000 4.2883 0.0000
# 2 2.1393 20.8157 15.5192 0.0000 0.3262 0.0000
# 3 33.3675 15.5192 168.7631 0.0000 12.0980 0.0000
# 4 0.0000 0.0000 0.0000 35.2884 0.0000 -6.1307
# 5 4.2883 0.3262 12.0980 0.0000 42.7868 0.0000
# 6 0.0000 0.0000 0.0000 -6.1307 0.0000 15.2846
#
#
#
# Elastic Compliance Matrix: (Units=1/GPa)
#
#
# Indices 1 2 3 4 5 6 
#
# 1 0.019067 0.000879 -0.003790 0.000000 -0.000846 0.000000
# 2 0.000879 0.051657 -0.004991 0.000000 0.000929 0.000000
# 3 -0.003790 -0.004991 0.007251 0.000000 -0.001632 0.000000
# 4 0.000000 0.000000 0.000000 0.030460 0.000000 0.012218
# 5 -0.000846 0.000929 -0.001632 0.000000 0.023911 0.000000
# 6 0.000000 0.000000 0.000000 0.012218 0.000000 0.070326
#
#
# Mechanical properties :
#
#
# Convention : Reuss Voigt Hill
#
# Bulk Modulus (GPa) = 16.08464 38.97811 27.53137
# Shear Modulus (GPa) = 20.90322 31.85363 26.37843
#
# Velocity S-wave (km/s) = 3.08697 3.81070 3.46777
# Velocity P-wave (km/s) = 4.47644 6.09354 5.34648
#
# Compressibility (1/GPa) = 0.06217111
#
# Stress axis : x y z
#
# Youngs Moduli (GPa) = 52.44776 19.35865 137.91626
#
# Poissons Ratio (x) = -0.01702 0.52271
# Poissons Ratio (y) = -0.04612 0.68830
# Poissons Ratio (z) = 0.19878 0.09661
#
# Static dielectric constant tensor:
#      x y z
#    x 1.670020 0.000000 0.034120 
#    y 0.000000 1.853440 0.000000 
#    z 0.034120 0.000000 1.806260 
# 
# From -- ./inp_files/173216.got.cif
#   From: 2010.05.17/outbox.cif.g08.bks.cpg/sg15_87_cif.got.tgz:173216.got - 2010.06.03 18:47:42.
