data_PCOD9266775
_publ_section_title
;
Structure prediction by ZEFSAII (Michael W. Deem and Ramdas Pophale) SiO2 
 PCOD9266775
Probable space group: C 2/C
;
_chemical_formula_sum "Si O2"
_cell_formula_units_Z 40
_cell_length_a 11.607273
_cell_length_b 8.948890
_cell_length_c 16.754968
_cell_angle_alpha 90.000000
_cell_angle_beta 100.689638
_cell_angle_gamma 90.000000
_cell_volume 1710.173689
_symmetry_space_group_name_H-M "C 2/C"
_symmetry_group_IT_number 15
_symmetry_cell_setting 'monoclinic'
loop_
_space_group_symop_operation_xyz
x,y,z
-x,y,1/2-z
-x,-y,-z
x,-y,1/2+z
1/2+x,1/2+y,z
1/2-x,1/2+y,1/2-z
1/2-x,1/2-y,-z
1/2+x,1/2-y,1/2+z
loop_
_atom_site_type_symbol
_atom_site_label
_atom_site_fract_x
_atom_site_fract_y
_atom_site_fract_z
Si Si1 0.786631 0.544119 0.584734
Si Si2 0.676668 0.757647 0.084218
Si Si3 0.075344 0.193235 0.469286
Si Si4 0.188828 0.016929 0.347501
Si Si5 0.740675 0.799334 0.261028
O O1 0.774882 0.366543 0.580507
O O2 0.876702 0.641721 0.545130
O O3 0.659777 0.616071 0.544683
O O4 0.809340 0.588739 0.679561
O O5 0.558946 0.710852 0.025606
O O6 0.727893 0.923013 0.082395
O O7 0.653654 0.755706 0.177417
O O8 0.093147 0.095267 0.390573
O O9 0.161146 0.892307 0.276223
O O10 0.261015 0.147795 0.312479
#
# Coordination Sequence:
#
# PCOD9266775 Si02
#       5
#     8   8   8   8   8
#     4  10  20  38  57  87 118 143 188 241 273 333
#     4  10  19  38  61  79 112 153 186 229 280 338
#     4  10  22  37  61  83 115 152 184 230 292 327
#     4   9  19  35  60  82 109 152 188 233 277 332
#     4   9  17  37  58  80 118 146 186 242 273 323
#
# _framework density 23.389434999999999
#
# number of rings (size 3 to 8) (size 9 to 14) (size 15 to 20)
#    1.200    1.200    2.000    0.600    0.000    4.000 
#    0.000   13.000    4.400    0.000    0.000    0.000 
#    0.000    0.000    0.000    0.000    0.000    0.000 
#
# Total GULP energy -111380.831871 kJ/mol
# GULP energy per Si atom -5569.041594 kJ/mol
# Density = 2.333620 g / cm^3
# Si number density = 23.389435 Si / 1000 Ang^3
#
#
#
# Elastic Constant Matrix: (Units=GPa)
#
#
# Indices 1 2 3 4 5 6 
#
# 1 48.0177 44.8734 6.1907 0.0000 -5.6702 0.0000
# 2 44.8734 133.3184 9.7869 0.0000 -9.0415 0.0000
# 3 6.1907 9.7869 68.7338 0.0000 -19.5878 0.0000
# 4 0.0000 0.0000 0.0000 22.0572 0.0000 -2.4912
# 5 -5.6702 -9.0415 -19.5878 0.0000 12.6413 0.0000
# 6 0.0000 0.0000 0.0000 -2.4912 0.0000 18.9802
#
#
#
# Elastic Compliance Matrix: (Units=1/GPa)
#
#
# Indices 1 2 3 4 5 6 
#
# 1 0.030960 -0.009929 0.001001 0.000000 0.008337 0.000000
# 2 -0.009929 0.011096 0.000550 0.000000 0.004335 0.000000
# 3 0.001001 0.000550 0.026182 0.000000 0.041411 0.000000
# 4 0.000000 0.000000 0.000000 0.046019 0.000000 0.006040
# 5 0.008337 0.004335 0.041411 0.000000 0.150112 0.000000
# 6 0.000000 0.000000 0.000000 0.006040 0.000000 0.053479
#
#
# Mechanical properties :
#
#
# Convention : Reuss Voigt Hill
#
# Bulk Modulus (GPa) = 19.42448 41.30798 30.36623
# Shear Modulus (GPa) = 14.21403 23.35034 18.78219
#
# Velocity S-wave (km/s) = 2.46786 3.16306 2.83684
# Velocity P-wave (km/s) = 4.05503 5.57129 4.87250
#
# Compressibility (1/GPa) = 0.05148144
#
# Stress axis : x y z
#
# Youngs Moduli (GPa) = 32.30013 90.11960 38.19446
#
# Poissons Ratio (x) = 0.89478 -0.03824
# Poissons Ratio (y) = 0.32070 -0.02099
# Poissons Ratio (z) = -0.03233 -0.04952
#
# Static dielectric constant tensor:
#      x y z
#    x 1.813290 0.000000 0.000380 
#    y 0.000000 1.930950 0.000000 
#    z 0.000380 0.000000 1.971220 
# 
# From -- ./inp_files/241807.got.cif
#   From: 2010.05.17/outbox.cif.g08.bks.cpg/sg15_121_cif.got.tgz:241807.got - 2010.06.03 18:47:42.
