data_PCOD9266604
_publ_section_title
;
Structure prediction by ZEFSAII (Michael W. Deem and Ramdas Pophale) SiO2 
 PCOD9266604
Probable space group: C 2/C
;
_chemical_formula_sum "Si O2"
_cell_formula_units_Z 40
_cell_length_a 15.751881
_cell_length_b 14.457982
_cell_length_c 13.710599
_cell_angle_alpha 90.000000
_cell_angle_beta 139.110100
_cell_angle_gamma 90.000000
_cell_volume 2043.984271
_symmetry_space_group_name_H-M "C 2/C"
_symmetry_group_IT_number 15
_symmetry_cell_setting 'monoclinic'
loop_
_space_group_symop_operation_xyz
x,y,z
-x,y,1/2-z
-x,-y,-z
x,-y,1/2+z
1/2+x,1/2+y,z
1/2-x,1/2+y,1/2-z
1/2-x,1/2-y,-z
1/2+x,1/2-y,1/2+z
loop_
_atom_site_type_symbol
_atom_site_label
_atom_site_fract_x
_atom_site_fract_y
_atom_site_fract_z
Si Si1 0.008101 0.632328 0.050500
Si Si2 0.164413 0.465219 0.536347
Si Si3 0.367429 0.533994 0.837295
Si Si4 0.279446 0.044879 0.122813
Si Si5 0.533488 0.317923 0.388010
O O1 0.950803 0.731616 0.026505
O O2 0.079148 0.617473 0.007937
O O3 0.897269 0.556041 0.966395
O O4 0.886751 0.603864 0.274632
O O5 0.308313 0.462877 0.706865
O O6 0.168991 0.491816 0.427446
O O7 0.407982 0.626399 0.817648
O O8 0.500000 0.500000 0.000000
O O9 0.271287 0.531855 0.845226
O O10 0.158979 0.114220 0.994442
O O11 0.500000 0.285903 0.250000
#
# Coordination Sequence:
#
# PCOD9266604 Si02
#       5
#     8   8   8   8   8
#     4  10  23  33  54  86 110 138 188 230 268 330
#     4  10  19  38  53  76 114 150 172 223 285 325
#     4   9  20  34  53  83 108 142 185 225 269 336
#     4  10  20  36  57  79 111 150 184 217 279 339
#     4  11  20  33  56  84 110 137 187 237 272 308
#
# _framework density 19.569621999999999
#
# number of rings (size 3 to 8) (size 9 to 14) (size 15 to 20)
#    0.000    2.000    2.000    1.800    2.800    1.600 
#    0.000    1.000    0.000    0.000   31.200    0.000 
#    0.000    0.000    0.000    0.000    0.000    0.000 
#
# Total GULP energy -111427.661198 kJ/mol
# GULP energy per Si atom -5571.383060 kJ/mol
# Density = 1.952508 g / cm^3
# Si number density = 19.569622 Si / 1000 Ang^3
#
#
#
# Elastic Constant Matrix: (Units=GPa)
#
#
# Indices 1 2 3 4 5 6 
#
# 1 107.4207 37.0058 35.5167 0.0000 -32.0380 0.0000
# 2 37.0058 58.7803 -2.9573 0.0000 -14.0740 0.0000
# 3 35.5167 -2.9573 56.5205 0.0000 -0.9083 0.0000
# 4 0.0000 0.0000 0.0000 21.2923 0.0000 -6.1291
# 5 -32.0380 -14.0740 -0.9083 0.0000 33.6788 0.0000
# 6 0.0000 0.0000 0.0000 -6.1291 0.0000 31.6125
#
#
#
# Elastic Compliance Matrix: (Units=1/GPa)
#
#
# Indices 1 2 3 4 5 6 
#
# 1 0.023153 -0.011275 -0.014867 0.000000 0.016912 0.000000
# 2 -0.011275 0.024465 0.008361 0.000000 -0.000276 0.000000
# 3 -0.014867 0.008361 0.027313 0.000000 -0.009912 0.000000
# 4 0.000000 0.000000 0.000000 0.049742 0.000000 0.009644
# 5 0.016912 -0.000276 -0.009912 0.000000 0.045398 0.000000
# 6 0.000000 0.000000 0.000000 0.009644 0.000000 0.033503
#
#
# Mechanical properties :
#
#
# Convention : Reuss Voigt Hill
#
# Bulk Modulus (GPa) = 25.40103 40.20577 32.80340
# Shear Modulus (GPa) = 19.82088 27.52713 23.67400
#
# Velocity S-wave (km/s) = 3.18597 3.75457 3.48189
# Velocity P-wave (km/s) = 5.15188 6.27577 5.74139
#
# Compressibility (1/GPa) = 0.03936849
#
# Stress axis : x y z
#
# Youngs Moduli (GPa) = 43.19104 40.87445 36.61243
#
# Poissons Ratio (x) = 0.46085 0.54432
# Poissons Ratio (y) = 0.48697 -0.30610
# Poissons Ratio (z) = 0.64213 -0.34173
#
# Static dielectric constant tensor:
#      x y z
#    x 1.745390 0.000000 0.037550 
#    y 0.000000 1.676770 0.000000 
#    z 0.037550 0.000000 1.792290 
# 
# From -- ./inp_files/95780.got.cif
#   From: 2010.05.17/outbox.cif.g08.bks.cpg/sg15_48_cif.got.tgz:95780.got - 2010.06.03 18:47:42.
