data_PCOD9266168
_publ_section_title
;
Structure prediction by ZEFSAII (Michael W. Deem and Ramdas Pophale) SiO2 
 PCOD9266168
Probable space group: C 2/C
;
_chemical_formula_sum "Si O2"
_cell_formula_units_Z 60
_cell_length_a 12.444142
_cell_length_b 24.652213
_cell_length_c 11.523885
_cell_angle_alpha 90.000000
_cell_angle_beta 137.192111
_cell_angle_gamma 90.000000
_cell_volume 2402.350091
_symmetry_space_group_name_H-M "C 2/C"
_symmetry_group_IT_number 15
_symmetry_cell_setting 'monoclinic'
loop_
_space_group_symop_operation_xyz
x,y,z
-x,y,1/2-z
-x,-y,-z
x,-y,1/2+z
1/2+x,1/2+y,z
1/2-x,1/2+y,1/2-z
1/2-x,1/2-y,-z
1/2+x,1/2-y,1/2+z
loop_
_atom_site_type_symbol
_atom_site_label
_atom_site_fract_x
_atom_site_fract_y
_atom_site_fract_z
Si Si1 0.667395 0.928857 0.895433
Si Si2 0.371613 0.295301 0.549391
Si Si3 0.686642 0.875175 0.520421
Si Si4 0.100775 0.078329 0.119784
Si Si5 0.500000 0.033997 0.750000
Si Si6 0.624092 0.456386 0.238637
Si Si7 0.650038 0.271414 0.313900
Si Si8 0.481466 0.211980 0.993591
O O1 0.500000 0.900274 0.750000
O O2 0.789324 0.905690 0.901892
O O3 0.633852 0.990373 0.820618
O O4 0.721833 0.935188 0.071319
O O5 0.500000 0.300282 0.750000
O O6 0.250000 0.250000 0.500000
O O7 0.264330 0.349019 0.466673
O O8 0.472561 0.271192 0.523937
O O9 0.833091 0.886437 0.722580
O O10 0.584755 0.928016 0.410098
O O11 0.568232 0.832800 0.486191
O O12 0.126315 0.017764 0.192400
O O13 0.933781 0.077235 0.919539
O O14 0.500000 0.456310 0.250000
O O15 0.500000 0.303961 0.250000
O O16 0.750000 0.250000 0.500000
O O17 0.571672 0.220632 0.185748
O O18 0.793281 0.296828 0.351954
#
# Coordination Sequence:
#
# PCOD9266168 Si02
#       8
#     8   8   8   8   4   8   8   8
#     4   9  19  37  61  88 120 164 225 268 330 406
#     4  10  22  38  61  91 134 175 212 258 335 411
#     4  11  23  35  58  97 137 169 224 285 333 409
#     4  10  19  37  61  83 124 172 217 269 338 387
#     4  10  22  36  56  96 132 158 226 284 332 394
#     4   9  18  34  58  85 113 164 215 264 329 397
#     4   9  19  38  65  92 116 167 228 259 307 407
#     4  10  20  36  64  90 131 176 210 264 351 391
#
# _framework density 24.975543999999999
#
# number of rings (size 3 to 8) (size 9 to 14) (size 15 to 20)
#    0.400    1.867    1.333    1.600    5.600    2.667 
#    2.400    2.000    0.000   12.000    0.000    0.000 
#    0.000    0.000    0.000    0.000    0.000    0.000 
#
# Total GULP energy -167271.602839 kJ/mol
# GULP energy per Si atom -5575.720095 kJ/mol
# Density = 2.491870 g / cm^3
# Si number density = 24.975544 Si / 1000 Ang^3
#
#
#
# Elastic Constant Matrix: (Units=GPa)
#
#
# Indices 1 2 3 4 5 6 
#
# 1 113.4210 41.1989 34.3076 0.0000 12.0442 0.0000
# 2 41.1989 60.2618 24.6667 0.0000 4.3790 0.0000
# 3 34.3076 24.6667 162.3524 0.0000 7.6687 0.0000
# 4 0.0000 0.0000 0.0000 20.8206 0.0000 -3.2044
# 5 12.0442 4.3790 7.6687 0.0000 36.8004 0.0000
# 6 0.0000 0.0000 0.0000 -3.2044 0.0000 16.5636
#
#
#
# Elastic Compliance Matrix: (Units=1/GPa)
#
#
# Indices 1 2 3 4 5 6 
#
# 1 0.012297 -0.007669 -0.001299 0.000000 -0.002841 0.000000
# 2 -0.007669 0.022566 -0.001818 0.000000 0.000203 0.000000
# 3 -0.001299 -0.001818 0.006746 0.000000 -0.000764 0.000000
# 4 0.000000 0.000000 0.000000 0.049503 0.000000 0.009577
# 5 -0.002841 0.000203 -0.000764 0.000000 0.028239 0.000000
# 6 0.000000 0.000000 0.000000 0.009577 0.000000 0.062226
#
#
# Mechanical properties :
#
#
# Convention : Reuss Voigt Hill
#
# Bulk Modulus (GPa) = 49.90424 59.59796 54.75110
# Shear Modulus (GPa) = 23.82900 30.56104 27.19502
#
# Velocity S-wave (km/s) = 3.09219 3.50185 3.30338
# Velocity P-wave (km/s) = 5.72481 6.34547 6.04311
#
# Compressibility (1/GPa) = 0.02003838
#
# Stress axis : x y z
#
# Youngs Moduli (GPa) = 81.32057 44.31371 148.23054
#
# Poissons Ratio (x) = 0.33983 0.19258
# Poissons Ratio (y) = 0.62363 0.26943
# Poissons Ratio (z) = 0.10565 0.08055
#
# Static dielectric constant tensor:
#      x y z
#    x 2.055870 0.000000 -0.002950 
#    y 0.000000 2.186920 0.000000 
#    z -0.002950 0.000000 2.008950 
# 
# From -- ./inp_files/92624.got.cif
#   From: 2010.05.17/outbox.cif.g08.bks.cpg/sg15_47_cif.got.tgz:92624.got - 2010.06.03 18:47:42.
