data_PCOD9266228
_publ_section_title
;
Structure prediction by ZEFSAII (Michael W. Deem and Ramdas Pophale) SiO2 
 PCOD9266228
Probable space group: C 2/C
;
_chemical_formula_sum "Si O2"
_cell_formula_units_Z 56
_cell_length_a 13.874080
_cell_length_b 12.475151
_cell_length_c 19.299333
_cell_angle_alpha 90.000000
_cell_angle_beta 58.356348
_cell_angle_gamma 90.000000
_cell_volume 2843.733905
_symmetry_space_group_name_H-M "C 2/C"
_symmetry_group_IT_number 15
_symmetry_cell_setting 'monoclinic'
loop_
_space_group_symop_operation_xyz
x,y,z
-x,y,1/2-z
-x,-y,-z
x,-y,1/2+z
1/2+x,1/2+y,z
1/2-x,1/2+y,1/2-z
1/2-x,1/2-y,-z
1/2+x,1/2-y,1/2+z
loop_
_atom_site_type_symbol
_atom_site_label
_atom_site_fract_x
_atom_site_fract_y
_atom_site_fract_z
Si Si1 0.542419 0.008448 0.624329
Si Si2 0.825890 0.549166 0.290392
Si Si3 0.726409 0.230757 0.823456
Si Si4 0.993252 0.744404 0.836528
Si Si5 0.381671 0.470327 0.873331
Si Si6 0.133610 0.965481 0.276376
Si Si7 0.299366 0.141033 0.517670
O O1 0.623183 0.002560 0.660951
O O2 0.415156 0.977923 0.696116
O O3 0.542751 0.135738 0.609741
O O4 0.590429 0.917044 0.555695
O O5 0.809965 0.673375 0.311379
O O6 0.702140 0.513867 0.314038
O O7 0.620732 0.264767 0.815870
O O8 0.807459 0.147922 0.754824
O O9 0.681597 0.176009 0.910309
O O10 0.000000 0.727600 0.750000
O O11 0.913267 0.847604 0.880010
O O12 0.349499 0.473231 0.803631
O O13 0.500072 0.533653 0.836594
O O14 0.290559 0.541974 0.947922
O O15 0.250000 0.250000 0.500000
#
# Coordination Sequence:
#
# PCOD9266228 Si02
#       7
#     8   8   8   8   8   8   8
#     4  11  24  38  64  90 130 164 207 258 312 372
#     4  11  20  38  64  96 118 164 211 260 314 360
#     4  11  22  37  67  90 126 162 207 264 310 370
#     4  12  20  41  66  95 125 158 209 267 304 367
#     4  10  22  37  66  87 124 163 203 258 312 366
#     4  10  19  37  61  97 117 154 212 258 310 363
#     4  11  25  44  58  91 133 168 206 255 314 377
#
# _framework density 19.692419999999998
#
# number of rings (size 3 to 8) (size 9 to 14) (size 15 to 20)
#    0.000    1.143    7.143    0.000    2.000    2.286 
#    0.000    2.857    3.143    0.000    0.000    0.000 
#    0.000    0.000    0.000    0.000    0.000    0.000 
#
# Total GULP energy -156035.945049 kJ/mol
# GULP energy per Si atom -5572.712323 kJ/mol
# Density = 1.964760 g / cm^3
# Si number density = 19.692420 Si / 1000 Ang^3
#
#
#
# Elastic Constant Matrix: (Units=GPa)
#
#
# Indices 1 2 3 4 5 6 
#
# 1 72.0598 14.0715 -4.3290 0.0000 10.3194 0.0000
# 2 14.0715 113.1073 4.1133 0.0000 -6.5000 0.0000
# 3 -4.3290 4.1133 30.7982 0.0000 -5.5865 0.0000
# 4 0.0000 0.0000 0.0000 27.1059 0.0000 -10.0782
# 5 10.3194 -6.5000 -5.5865 0.0000 13.6849 0.0000
# 6 0.0000 0.0000 0.0000 -10.0782 0.0000 39.0419
#
#
#
# Elastic Compliance Matrix: (Units=1/GPa)
#
#
# Indices 1 2 3 4 5 6 
#
# 1 0.016393 -0.002830 0.000212 0.000000 -0.013619 0.000000
# 2 -0.002830 0.009584 -0.000502 0.000000 0.006481 0.000000
# 3 0.000212 -0.000502 0.035093 0.000000 0.013927 0.000000
# 4 0.000000 0.000000 0.000000 0.040809 0.000000 0.010534
# 5 -0.013619 0.006481 0.013927 0.000000 0.092107 0.000000
# 6 0.000000 0.000000 0.000000 0.010534 0.000000 0.028333
#
#
# Mechanical properties :
#
#
# Convention : Reuss Voigt Hill
#
# Bulk Modulus (GPa) = 18.23847 27.07520 22.65684
# Shear Modulus (GPa) = 20.25647 29.44052 24.84849
#
# Velocity S-wave (km/s) = 3.21073 3.87074 3.55608
# Velocity P-wave (km/s) = 4.79862 5.80997 5.32835
#
# Compressibility (1/GPa) = 0.05482915
#
# Stress axis : x y z
#
# Youngs Moduli (GPa) = 61.00165 104.34150 28.49606
#
# Poissons Ratio (x) = 0.29526 -0.00603
# Poissons Ratio (y) = 0.17262 0.01431
# Poissons Ratio (z) = -0.01292 0.05240
#
# Static dielectric constant tensor:
#      x y z
#    x 1.667190 0.000000 0.015550 
#    y 0.000000 1.771340 0.000000 
#    z 0.015550 0.000000 1.709100 
# 
# From -- ./inp_files/243338.got.cif
#   From: 2010.05.17/outbox.cif.g08.bks.cpg/sg15_122_cif.got.tgz:243338.got - 2010.06.03 18:47:42.
