data_PCOD9266466
_publ_section_title
;
Structure prediction by ZEFSAII (Michael W. Deem and Ramdas Pophale) SiO2 
 PCOD9266466
Probable space group: C 2/C
;
_chemical_formula_sum "Si O2"
_cell_formula_units_Z 48
_cell_length_a 10.785157
_cell_length_b 14.595378
_cell_length_c 17.309244
_cell_angle_alpha 90.000000
_cell_angle_beta 137.246421
_cell_angle_gamma 90.000000
_cell_volume 1849.658594
_symmetry_space_group_name_H-M "C 2/C"
_symmetry_group_IT_number 15
_symmetry_cell_setting 'monoclinic'
loop_
_space_group_symop_operation_xyz
x,y,z
-x,y,1/2-z
-x,-y,-z
x,-y,1/2+z
1/2+x,1/2+y,z
1/2-x,1/2+y,1/2-z
1/2-x,1/2-y,-z
1/2+x,1/2-y,1/2+z
loop_
_atom_site_type_symbol
_atom_site_label
_atom_site_fract_x
_atom_site_fract_y
_atom_site_fract_z
Si Si1 0.598912 0.682283 0.395434
Si Si2 0.837548 0.306083 0.371227
Si Si3 0.738665 0.980807 0.438556
Si Si4 0.153356 0.646541 0.125481
Si Si5 0.305771 0.964725 0.257464
Si Si6 0.114841 0.325882 0.874031
O O1 0.750000 0.750000 0.500000
O O2 0.420089 0.727695 0.352366
O O3 0.636880 0.582488 0.450480
O O4 0.670370 0.680360 0.339622
O O5 0.732043 0.379687 0.272142
O O6 0.725272 0.255429 0.386417
O O7 0.000210 0.362319 0.488362
O O8 0.525784 0.948668 0.348076
O O9 0.782721 0.971279 0.367650
O O10 0.733931 0.088484 0.457868
O O11 0.205834 0.555051 0.195398
O O12 0.036579 0.703956 0.133986
O O13 0.000000 0.368610 0.750000
#
# Coordination Sequence:
#
# PCOD9266466 Si02
#       6
#     8   8   8   8   8   8
#     4  10  21  37  64  98 117 155 209 265 300 357
#     4  11  23  37  63 100 121 156 212 267 303 352
#     4  10  19  39  62  86 123 169 207 239 316 376
#     4  10  20  40  63  89 121 163 207 245 308 375
#     4  10  19  37  65  86 120 173 205 239 301 393
#     4  11  23  40  61  89 127 171 203 247 314 378
#
# _framework density 25.950734000000001
#
# number of rings (size 3 to 8) (size 9 to 14) (size 15 to 20)
#    0.000    1.667    6.667    1.000    2.333    3.333 
#    0.000    0.000    3.667    0.000    0.000    0.000 
#    0.000    0.000    0.000    0.000    0.000    0.000 
#
# Total GULP energy -134254.708064 kJ/mol
# GULP energy per Si atom -5593.946169 kJ/mol
# Density = 2.589167 g / cm^3
# Si number density = 25.950734 Si / 1000 Ang^3
#
#
#
# Elastic Constant Matrix: (Units=GPa)
#
#
# Indices 1 2 3 4 5 6 
#
# 1 215.2075 68.7146 59.4072 0.0000 -29.1115 0.0000
# 2 68.7146 127.6587 25.6101 0.0000 -3.2150 0.0000
# 3 59.4072 25.6101 50.0253 0.0000 -11.0180 0.0000
# 4 0.0000 0.0000 0.0000 -15.0591 0.0000 -6.5008
# 5 -29.1115 -3.2150 -11.0180 0.0000 38.4232 0.0000
# 6 0.0000 0.0000 0.0000 -6.5008 0.0000 51.1057
#
#
#
# Elastic Compliance Matrix: (Units=1/GPa)
#
#
# Indices 1 2 3 4 5 6 
#
# 1 0.008067 -0.002777 -0.007326 0.000000 0.003779 0.000000
# 2 -0.002777 0.009699 -0.002083 0.000000 -0.001890 0.000000
# 3 -0.007326 -0.002083 0.030416 0.000000 0.002997 0.000000
# 4 0.000000 0.000000 0.000000 -0.062948 0.000000 -0.008007
# 5 0.003779 -0.001890 0.002997 0.000000 0.029590 0.000000
# 6 0.000000 0.000000 0.000000 -0.008007 0.000000 0.018549
#
#
# Mechanical properties :
#
#
# Convention : Reuss Voigt Hill
#
# Bulk Modulus (GPa) = 42.00066 77.81725 59.90895
# Shear Modulus (GPa) = 76.12533 30.83792 53.48162
#
# Velocity S-wave (km/s) = 5.42201 3.45095 4.54463
# Velocity P-wave (km/s) = 7.44430 6.77719 7.11856
#
# Compressibility (1/GPa) = 0.02380915
#
# Stress axis : x y z
#
# Youngs Moduli (GPa) = 123.96422 103.10697 32.87740
#
# Poissons Ratio (x) = 0.28636 0.24085
# Poissons Ratio (y) = 0.34429 0.06849
# Poissons Ratio (z) = 0.90811 0.21480
#
# Static dielectric constant tensor:
#      x y z
#    x 1.964380 0.000000 0.153210 
#    y 0.000000 2.022100 0.000000 
#    z 0.153210 0.000000 1.938690 
# 
# From -- ./inp_files/189974.got.cif
#   From: 2010.05.17/outbox.cif.g08.bks.cpg/sg15_95_cif.got.tgz:189974.got - 2010.06.03 18:47:42.
