data_PCOD9266973
_publ_section_title
;
Structure prediction by ZEFSAII (Michael W. Deem and Ramdas Pophale) SiO2 
 PCOD9266973
Probable space group: C 2/C
;
_chemical_formula_sum "Si O2"
_cell_formula_units_Z 64
_cell_length_a 31.087596
_cell_length_b 19.232842
_cell_length_c 15.179943
_cell_angle_alpha 90.000000
_cell_angle_beta 21.200066
_cell_angle_gamma 90.000000
_cell_volume 3282.161631
_symmetry_space_group_name_H-M "C 2/C"
_symmetry_group_IT_number 15
_symmetry_cell_setting 'monoclinic'
loop_
_space_group_symop_operation_xyz
x,y,z
-x,y,1/2-z
-x,-y,-z
x,-y,1/2+z
1/2+x,1/2+y,z
1/2-x,1/2+y,1/2-z
1/2-x,1/2-y,-z
1/2+x,1/2-y,1/2+z
loop_
_atom_site_type_symbol
_atom_site_label
_atom_site_fract_x
_atom_site_fract_y
_atom_site_fract_z
Si Si1 0.800498 0.138350 0.386107
Si Si2 0.585880 0.227621 0.234547
Si Si3 0.375460 0.911786 0.584730
Si Si4 0.319149 0.781658 0.240762
Si Si5 0.802679 0.413461 0.917338
Si Si6 0.563793 0.346849 0.423372
Si Si7 0.857192 0.540741 0.928207
Si Si8 0.686776 0.750286 0.821909
O O1 0.711158 0.155174 0.636447
O O2 0.811485 0.210338 0.310952
O O3 0.746288 0.081731 0.424855
O O4 0.931713 0.122899 0.172277
O O5 0.454308 0.213735 0.448626
O O6 0.630598 0.160381 0.202282
O O7 0.576655 0.291840 0.318859
O O8 0.689359 0.243893 0.968220
O O9 0.311969 0.933431 0.796957
O O10 0.516501 0.921692 0.327896
O O11 0.338511 0.956298 0.569175
O O12 0.351403 0.830700 0.608865
O O13 0.220273 0.774905 0.354841
O O14 0.862984 0.466446 0.870020
O O15 0.668143 0.401921 0.207240
O O16 0.593529 0.300763 0.452569
#
# Coordination Sequence:
#
# PCOD9266973 Si02
#       8
#     8   8   8   8   8   8   8   8
#     4  10  22  38  55  89 122 160 196 245 300 370
#     4  10  19  38  63  94 113 151 202 261 313 349
#     4  11  22  40  63  88 116 162 208 251 302 369
#     4  10  21  34  59  89 126 152 195 255 305 354
#     4  11  21  43  63  85 123 162 199 261 305 364
#     4  10  21  37  66  88 118 154 201 253 314 352
#     4  11  25  40  60  89 123 164 209 241 309 377
#     4  11  19  36  62  89 121 152 204 254 302 363
#
# _framework density 19.499344000000001
#
# number of rings (size 3 to 8) (size 9 to 14) (size 15 to 20)
#    0.000    1.500    3.750    2.250    3.500    1.000 
#   13.500    0.625    0.000    0.000    0.000    0.000 
#    0.000    0.000    0.000    0.000    0.000    0.000 
#
# Total GULP energy -178690.990131 kJ/mol
# GULP energy per Si atom -5584.093442 kJ/mol
# Density = 1.945496 g / cm^3
# Si number density = 19.499344 Si / 1000 Ang^3
#
#
#
# Elastic Constant Matrix: (Units=GPa)
#
#
# Indices 1 2 3 4 5 6 
#
# 1 100.0414 13.8281 19.4104 0.0000 -7.4691 0.0000
# 2 13.8281 26.6330 21.0220 -0.0001 6.2474 0.0001
# 3 19.4104 21.0220 64.5873 -0.0001 -21.0342 0.0001
# 4 0.0000 -0.0001 -0.0001 4.7278 0.0002 -0.6454
# 5 -7.4691 6.2474 -21.0342 0.0002 30.5624 -0.0001
# 6 0.0000 0.0001 0.0001 -0.6454 -0.0001 23.5136
#
#
#
# Elastic Compliance Matrix: (Units=1/GPa)
#
#
# Indices 1 2 3 4 5 6 
#
# 1 0.011252 -0.007296 0.000482 0.000000 0.004573 0.000000
# 2 -0.007296 0.084346 -0.040544 0.000003 -0.046928 0.000000
# 3 0.000482 -0.040544 0.040306 -0.000001 0.036146 0.000000
# 4 0.000000 0.000003 -0.000001 0.212311 -0.000003 0.005828
# 5 0.004573 -0.046928 0.036146 -0.000003 0.068307 0.000000
# 6 0.000000 0.000000 0.000000 0.005828 0.000000 0.042688
#
#
# Mechanical properties :
#
#
# Convention : Reuss Voigt Hill
#
# Bulk Modulus (GPa) = 24.27796 33.30920 28.79358
# Shear Modulus (GPa) = 8.80818 20.89417 14.85118
#
# Velocity S-wave (km/s) = 2.12767 3.27698 2.76275
# Velocity P-wave (km/s) = 4.30275 5.60691 4.99755
#
# Compressibility (1/GPa) = 0.04118962
#
# Stress axis : x y z
#
# Youngs Moduli (GPa) = 88.87182 11.85596 24.81036
#
# Poissons Ratio (x) = 0.08650 -0.01197
# Poissons Ratio (y) = 0.64840 1.00590
# Poissons Ratio (z) = -0.04288 0.48068
#
# Static dielectric constant tensor:
#      x y z
#    x 1.695020 0.000000 0.009300 
#    y 0.000000 1.665820 0.000000 
#    z 0.009300 0.000000 1.696370 
# 
# From -- ./inp_files/146099.got.cif
#   From: 2010.05.17/outbox.cif.g08.bks.cpg/sg15_74_cif.got.tgz:146099.got - 2010.06.03 18:47:42.
