data_PCOD9266063
_publ_section_title
;
Structure prediction by ZEFSAII (Michael W. Deem and Ramdas Pophale) SiO2 
 PCOD9266063
Probable space group: C 2/C
;
_chemical_formula_sum "Si O2"
_cell_formula_units_Z 48
_cell_length_a 20.841750
_cell_length_b 9.139879
_cell_length_c 15.161610
_cell_angle_alpha 90.000000
_cell_angle_beta 62.591724
_cell_angle_gamma 90.000000
_cell_volume 2563.953201
_symmetry_space_group_name_H-M "C 2/C"
_symmetry_group_IT_number 15
_symmetry_cell_setting 'monoclinic'
loop_
_space_group_symop_operation_xyz
x,y,z
-x,y,1/2-z
-x,-y,-z
x,-y,1/2+z
1/2+x,1/2+y,z
1/2-x,1/2+y,1/2-z
1/2-x,1/2-y,-z
1/2+x,1/2-y,1/2+z
loop_
_atom_site_type_symbol
_atom_site_label
_atom_site_fract_x
_atom_site_fract_y
_atom_site_fract_z
Si Si1 0.673751 0.307262 0.007376
Si Si2 0.847640 0.184574 0.687859
Si Si3 0.832043 0.343316 0.349752
Si Si4 0.915754 0.643639 0.300437
Si Si5 0.340201 0.365105 0.001309
Si Si6 0.202063 0.144362 0.283875
O O1 0.652782 0.474118 0.044404
O O2 0.680624 0.314410 0.897346
O O3 0.750000 0.250000 0.000000
O O4 0.613537 0.205295 0.088235
O O5 0.898106 0.238159 0.734915
O O6 0.879850 0.162584 0.569300
O O7 0.785336 0.307938 0.721517
O O8 0.810877 0.026273 0.728319
O O9 0.870077 0.497087 0.312330
O O10 0.745735 0.361694 0.420192
O O11 0.858637 0.258597 0.419556
O O12 0.840738 0.241105 0.259454
O O13 0.000000 0.612504 0.250000
#
# Coordination Sequence:
#
# PCOD9266063 Si02
#       6
#     8   8   8   8   8   8
#     4  11  19  37  61  91 115 154 204 245 297 352
#     4  10  19  37  59  93 120 154 197 251 310 348
#     4  10  20  36  55  92 119 156 198 248 302 342
#     4  12  25  40  57  85 128 165 197 245 308 368
#     4   9  19  35  63  89 115 146 203 263 288 346
#     4  10  20  33  65  91 118 148 204 260 293 351
#
# _framework density 18.72109
#
# number of rings (size 3 to 8) (size 9 to 14) (size 15 to 20)
#    0.000    1.667    3.333    3.000    0.000    2.667 
#    0.000   10.000    0.000    0.000    0.000    0.000 
#    0.000    0.000    0.000    0.000    0.000    0.000 
#
# Total GULP energy -133867.111094 kJ/mol
# GULP energy per Si atom -5577.796296 kJ/mol
# Density = 1.867848 g / cm^3
# Si number density = 18.721090 Si / 1000 Ang^3
#
#
#
# Elastic Constant Matrix: (Units=GPa)
#
#
# Indices 1 2 3 4 5 6 
#
# 1 36.2882 23.9154 30.1518 0.0000 7.9894 0.0000
# 2 23.9154 118.3024 35.5802 0.0000 16.2796 0.0000
# 3 30.1518 35.5802 59.3666 0.0000 12.1834 0.0000
# 4 0.0000 0.0000 0.0000 31.4452 0.0000 11.1237
# 5 7.9894 16.2796 12.1834 0.0000 23.6134 0.0000
# 6 0.0000 0.0000 0.0000 11.1237 0.0000 11.1670
#
#
#
# Elastic Compliance Matrix: (Units=1/GPa)
#
#
# Indices 1 2 3 4 5 6 
#
# 1 0.048677 -0.002653 -0.022511 0.000000 -0.003025 0.000000
# 2 -0.002653 0.010879 -0.004269 0.000000 -0.004399 0.000000
# 3 -0.022511 -0.004269 0.032065 0.000000 -0.005984 0.000000
# 4 0.000000 0.000000 0.000000 0.049105 0.000000 -0.048915
# 5 -0.003025 -0.004399 -0.005984 0.000000 0.049493 0.000000
# 6 0.000000 0.000000 0.000000 -0.048915 0.000000 0.138275
#
#
# Mechanical properties :
#
#
# Convention : Reuss Voigt Hill
#
# Bulk Modulus (GPa) = 30.53287 43.69467 37.11377
# Shear Modulus (GPa) = 12.55404 21.53242 17.04323
#
# Velocity S-wave (km/s) = 2.59237 3.39509 3.02052
# Velocity P-wave (km/s) = 5.03043 6.22570 5.65971
#
# Compressibility (1/GPa) = 0.03275159
#
# Stress axis : x y z
#
# Youngs Moduli (GPa) = 20.54376 91.92191 31.18700
#
# Poissons Ratio (x) = 0.24391 0.70206
# Poissons Ratio (y) = 0.05451 0.13315
# Poissons Ratio (z) = 0.46247 0.39246
#
# Static dielectric constant tensor:
#      x y z
#    x 1.642470 0.000000 0.027520 
#    y 0.000000 1.667280 0.000000 
#    z 0.027520 0.000000 1.663820 
# 
# From -- ./inp_files/166151.got.cif
#   From: 2010.05.17/outbox.cif.g08.bks.cpg/sg15_84_cif.got.tgz:166151.got - 2010.06.03 18:47:42.
