data_PCOD9266652
_publ_section_title
;
Structure prediction by ZEFSAII (Michael W. Deem and Ramdas Pophale) SiO2 
 PCOD9266652
Probable space group: C 2/C
;
_chemical_formula_sum "Si O2"
_cell_formula_units_Z 56
_cell_length_a 29.477826
_cell_length_b 9.266485
_cell_length_c 10.315169
_cell_angle_alpha 90.000000
_cell_angle_beta 66.294791
_cell_angle_gamma 90.000000
_cell_volume 2579.912426
_symmetry_space_group_name_H-M "C 2/C"
_symmetry_group_IT_number 15
_symmetry_cell_setting 'monoclinic'
loop_
_space_group_symop_operation_xyz
x,y,z
-x,y,1/2-z
-x,-y,-z
x,-y,1/2+z
1/2+x,1/2+y,z
1/2-x,1/2+y,1/2-z
1/2-x,1/2-y,-z
1/2+x,1/2-y,1/2+z
loop_
_atom_site_type_symbol
_atom_site_label
_atom_site_fract_x
_atom_site_fract_y
_atom_site_fract_z
Si Si1 0.444430 0.059881 0.046217
Si Si2 0.465497 0.677631 0.664611
Si Si3 0.801049 0.127957 0.582461
Si Si4 0.378325 0.786613 0.146789
Si Si5 0.939951 0.951468 0.517403
Si Si6 0.778861 0.135685 0.305769
Si Si7 0.586852 0.298364 0.610075
O O1 0.438913 0.171699 0.171814
O O2 0.402194 0.939297 0.088396
O O3 0.438222 0.161180 0.928584
O O4 0.500000 0.000000 0.000000
O O5 0.500000 0.684250 0.750000
O O6 0.429300 0.552101 0.654557
O O7 0.511154 0.643124 0.512445
O O8 0.786298 0.091399 0.448957
O O9 0.772297 0.276890 0.648731
O O10 0.859451 0.163870 0.513750
O O11 0.787203 0.999039 0.698554
O O12 0.398237 0.663208 0.027759
O O13 0.320448 0.759002 0.228626
O O14 0.403074 0.739180 0.254135
O O15 0.944759 0.061766 0.392399
#
# Coordination Sequence:
#
# PCOD9266652 Si02
#       7
#     8   8   8   8   8   8   8
#     4  11  24  38  54  87 125 162 210 251 310 377
#     4  10  21  35  54  81 114 154 201 251 296 363
#     4  10  22  44  68  97 129 164 212 262 332 387
#     4  11  22  39  62  86 121 164 204 259 317 368
#     4  10  19  38  58  83 111 154 207 248 305 368
#     4  10  23  42  69  97 129 166 209 267 324 397
#     4  10  23  40  61  88 124 161 207 264 312 383
#
# _framework density 21.706164000000001
#
# number of rings (size 3 to 8) (size 9 to 14) (size 15 to 20)
#    0.000    1.714    2.857    0.857    4.000    0.571 
#    0.000    1.429    0.000    0.000    0.000    0.000 
#    0.000    0.000    0.000    0.000    0.000    0.000 
#
# Total GULP energy -156032.718493 kJ/mol
# GULP energy per Si atom -5572.597089 kJ/mol
# Density = 2.165676 g / cm^3
# Si number density = 21.706164 Si / 1000 Ang^3
#
#
#
# Elastic Constant Matrix: (Units=GPa)
#
#
# Indices 1 2 3 4 5 6 
#
# 1 59.2339 11.6428 5.8179 0.0000 -0.6838 0.0000
# 2 11.6428 120.0223 26.9895 0.0000 2.5551 0.0000
# 3 5.8179 26.9895 46.6909 0.0000 4.2653 0.0000
# 4 0.0000 0.0000 0.0000 26.0973 0.0000 -5.9837
# 5 -0.6838 2.5551 4.2653 0.0000 33.0677 0.0000
# 6 0.0000 0.0000 0.0000 -5.9837 0.0000 30.7569
#
#
#
# Elastic Compliance Matrix: (Units=1/GPa)
#
#
# Indices 1 2 3 4 5 6 
#
# 1 0.017299 -0.001372 -0.001421 0.000000 0.000647 0.000000
# 2 -0.001372 0.009685 -0.005421 0.000000 -0.000078 0.000000
# 3 -0.001421 -0.005421 0.024987 0.000000 -0.002834 0.000000
# 4 0.000000 0.000000 0.000000 0.040107 0.000000 0.007803
# 5 0.000647 -0.000078 -0.002834 0.000000 0.030626 0.000000
# 6 0.000000 0.000000 0.000000 0.007803 0.000000 0.034031
#
#
# Mechanical properties :
#
#
# Convention : Reuss Voigt Hill
#
# Bulk Modulus (GPa) = 28.13512 34.98306 31.55909
# Shear Modulus (GPa) = 27.02535 30.08417 28.55476
#
# Velocity S-wave (km/s) = 3.53236 3.72691 3.63094
# Velocity P-wave (km/s) = 5.44304 5.88824 5.67001
#
# Compressibility (1/GPa) = 0.03554277
#
# Stress axis : x y z
#
# Youngs Moduli (GPa) = 57.80671 103.24738 40.02122
#
# Poissons Ratio (x) = 0.14168 0.05689
# Poissons Ratio (y) = 0.07932 0.21694
# Poissons Ratio (z) = 0.08217 0.55966
#
# Static dielectric constant tensor:
#      x y z
#    x 1.837310 0.000000 0.005880 
#    y 0.000000 1.827710 0.000000 
#    z 0.005880 0.000000 1.922350 
# 
# From -- ./inp_files/122015.got.cif
#   From: 2010.05.17/outbox.cif.g08.bks.cpg/sg15_62_cif.got.tgz:122015.got - 2010.06.03 18:47:42.
