data_PCOD9266307
_publ_section_title
;
Structure prediction by ZEFSAII (Michael W. Deem and Ramdas Pophale) SiO2 
 PCOD9266307
Probable space group: C 2/C
;
_chemical_formula_sum "Si O2"
_cell_formula_units_Z 40
_cell_length_a 11.621411
_cell_length_b 17.712195
_cell_length_c 11.164105
_cell_angle_alpha 90.000000
_cell_angle_beta 137.241674
_cell_angle_gamma 90.000000
_cell_volume 1560.147755
_symmetry_space_group_name_H-M "C 2/C"
_symmetry_group_IT_number 15
_symmetry_cell_setting 'monoclinic'
loop_
_space_group_symop_operation_xyz
x,y,z
-x,y,1/2-z
-x,-y,-z
x,-y,1/2+z
1/2+x,1/2+y,z
1/2-x,1/2+y,1/2-z
1/2-x,1/2-y,-z
1/2+x,1/2-y,1/2+z
loop_
_atom_site_type_symbol
_atom_site_label
_atom_site_fract_x
_atom_site_fract_y
_atom_site_fract_z
Si Si1 0.741757 0.769265 0.705096
Si Si2 0.698763 0.058379 0.412199
Si Si3 0.246530 0.026881 0.792697
Si Si4 0.486421 0.135100 0.865422
Si Si5 0.522955 0.659152 0.927568
O O1 0.646033 0.821172 0.538019
O O2 0.841445 0.697695 0.729218
O O3 0.600167 0.731468 0.685071
O O4 0.884616 0.817133 0.879719
O O5 0.500000 0.076187 0.250000
O O6 0.748135 0.004115 0.563163
O O7 0.815976 0.132552 0.527909
O O8 0.750226 0.027385 0.319834
O O9 0.415176 0.078184 0.908505
O O10 0.092277 0.084844 0.654655
O O11 0.500000 0.093224 0.750000
#
# Coordination Sequence:
#
# PCOD9266307 Si02
#       5
#     8   8   8   8   8
#     4   9  20  39  64  96 132 174 218 268 330 397
#     4  12  25  45  68  98 133 175 224 275 328 391
#     4  11  25  44  67  97 133 175 223 274 330 391
#     4  10  19  37  62  95 133 174 220 271 328 394
#     4  10  22  43  68  96 132 172 219 272 329 395
#
# _framework density 25.638597000000001
#
# number of rings (size 3 to 8) (size 9 to 14) (size 15 to 20)
#    0.000    1.600    0.000    4.200    0.000    1.600 
#    0.000   33.000    0.000    0.000    0.000    0.000 
#    0.000    0.000    0.000    0.000    0.000    0.000 
#
# Total GULP energy -111758.467305 kJ/mol
# GULP energy per Si atom -5587.923365 kJ/mol
# Density = 2.558024 g / cm^3
# Si number density = 25.638597 Si / 1000 Ang^3
#
#
#
# Elastic Constant Matrix: (Units=GPa)
#
#
# Indices 1 2 3 4 5 6 
#
# 1 64.9449 13.1631 57.8052 0.0000 -19.6711 0.0000
# 2 13.1631 61.3715 46.0332 0.0000 -10.5049 0.0000
# 3 57.8052 46.0332 153.7934 0.0000 -5.6892 0.0000
# 4 0.0000 0.0000 0.0000 52.3173 0.0000 -0.1146
# 5 -19.6711 -10.5049 -5.6892 0.0000 45.7776 0.0000
# 6 0.0000 0.0000 0.0000 -0.1146 0.0000 32.4460
#
#
#
# Elastic Compliance Matrix: (Units=1/GPa)
#
#
# Indices 1 2 3 4 5 6 
#
# 1 0.028379 0.004654 -0.011622 0.000000 0.011818 0.000000
# 2 0.004654 0.022553 -0.008272 0.000000 0.006147 0.000000
# 3 -0.011622 -0.008272 0.013152 0.000000 -0.005258 0.000000
# 4 0.000000 0.000000 0.000000 0.019114 0.000000 0.000068
# 5 0.011818 0.006147 -0.005258 0.000000 0.027680 0.000000
# 6 0.000000 0.000000 0.000000 0.000068 0.000000 0.030821
#
#
# Mechanical properties :
#
#
# Convention : Reuss Voigt Hill
#
# Bulk Modulus (GPa) = 29.75996 57.12366 43.44181
# Shear Modulus (GPa) = 27.26557 36.98205 32.12381
#
# Velocity S-wave (km/s) = 3.26461 3.80206 3.54354
# Velocity P-wave (km/s) = 5.08359 6.45003 5.80714
#
# Compressibility (1/GPa) = 0.03360219
#
# Stress axis : x y z
#
# Youngs Moduli (GPa) = 35.23787 44.33972 76.03324
#
# Poissons Ratio (x) = -0.20634 0.88367
# Poissons Ratio (y) = -0.16399 0.62897
# Poissons Ratio (z) = 0.40954 0.36679
#
# Static dielectric constant tensor:
#      x y z
#    x 2.109700 0.000000 0.024730 
#    y 0.000000 2.073860 0.000000 
#    z 0.024730 0.000000 1.986160 
# 
# From -- ./inp_files/89332.got.cif
#   From: 2010.05.17/outbox.cif.g08.bks.cpg/sg15_45_cif.got.tgz:89332.got - 2010.06.03 18:47:42.
