data_PCOD9266846
_publ_section_title
;
Structure prediction by ZEFSAII (Michael W. Deem and Ramdas Pophale) SiO2 
 PCOD9266846
Probable space group: C 2/C
;
_chemical_formula_sum "Si O2"
_cell_formula_units_Z 36
_cell_length_a 6.414630
_cell_length_b 12.650022
_cell_length_c 23.007870
_cell_angle_alpha 90.000000
_cell_angle_beta 69.219210
_cell_angle_gamma 90.000000
_cell_volume 1745.521582
_symmetry_space_group_name_H-M "C 2/C"
_symmetry_group_IT_number 15
_symmetry_cell_setting 'monoclinic'
loop_
_space_group_symop_operation_xyz
x,y,z
-x,y,1/2-z
-x,-y,-z
x,-y,1/2+z
1/2+x,1/2+y,z
1/2-x,1/2+y,1/2-z
1/2-x,1/2-y,-z
1/2+x,1/2-y,1/2+z
loop_
_atom_site_type_symbol
_atom_site_label
_atom_site_fract_x
_atom_site_fract_y
_atom_site_fract_z
Si Si1 0.500000 0.231263 0.250000
Si Si2 0.770901 0.041774 0.091333
Si Si3 0.884879 0.834503 0.023939
Si Si4 0.550327 0.404446 0.807623
Si Si5 0.407065 0.784293 0.637181
O O1 0.722203 0.160653 0.223786
O O2 0.532497 0.281211 0.310452
O O3 0.903982 0.028410 0.138985
O O4 0.547364 0.106920 0.125232
O O5 0.735033 0.931006 0.062938
O O6 0.925144 0.113147 0.034264
O O7 0.972398 0.776936 0.072812
O O8 0.750000 0.750000 0.000000
O O9 0.500000 0.457523 0.750000
O O10 0.350569 0.320875 0.839184
#
# Coordination Sequence:
#
# PCOD9266846 Si02
#       5
#     4   8   8   8   8
#     4   8  18  34  64  86 114 156 196 244 294 344
#     4  10  22  39  58  88 121 153 198 241 289 351
#     4  11  22  39  60  88 123 155 196 242 289 351
#     4   9  17  36  63  84 116 156 192 245 295 341
#     4  10  19  38  62  85 120 158 193 244 295 342
#
# _framework density 20.624206999999998
#
# number of rings (size 3 to 8) (size 9 to 14) (size 15 to 20)
#    0.000    2.222    2.222    0.667    0.000    0.889 
#    6.000    0.000   39.111    0.000    0.000    0.000 
#    0.000    0.000    0.000    0.000    0.000    0.000 
#
# Total GULP energy -100332.956019 kJ/mol
# GULP energy per Si atom -5574.053112 kJ/mol
# Density = 2.057727 g / cm^3
# Si number density = 20.624207 Si / 1000 Ang^3
#
#
#
# Elastic Constant Matrix: (Units=GPa)
#
#
# Indices 1 2 3 4 5 6 
#
# 1 91.2528 28.0409 43.5060 0.0000 5.5731 0.0000
# 2 28.0409 77.0938 40.8563 0.0000 18.6403 0.0000
# 3 43.5060 40.8563 156.9309 0.0000 40.2789 0.0000
# 4 0.0000 0.0000 0.0000 9.8553 0.0000 9.7797
# 5 5.5731 18.6403 40.2789 0.0000 40.5809 0.0000
# 6 0.0000 0.0000 0.0000 9.7797 0.0000 15.9240
#
#
#
# Elastic Compliance Matrix: (Units=1/GPa)
#
#
# Indices 1 2 3 4 5 6 
#
# 1 0.013701 -0.003885 -0.003706 0.000000 0.003581 0.000000
# 2 -0.003885 0.016664 -0.001924 0.000000 -0.005211 0.000000
# 3 -0.003706 -0.001924 0.010122 0.000000 -0.008654 0.000000
# 4 0.000000 0.000000 0.000000 0.259796 0.000000 -0.159553
# 5 0.003581 -0.005211 -0.008654 0.000000 0.035133 0.000000
# 6 0.000000 0.000000 0.000000 -0.159553 0.000000 0.160787
#
#
# Mechanical properties :
#
#
# Convention : Reuss Voigt Hill
#
# Bulk Modulus (GPa) = 46.60631 61.12044 53.86337
# Shear Modulus (GPa) = 9.57150 27.46367 18.51759
#
# Velocity S-wave (km/s) = 2.15661 3.65310 2.99968
# Velocity P-wave (km/s) = 5.37106 6.89153 6.17824
#
# Compressibility (1/GPa) = 0.02145632
#
# Stress axis : x y z
#
# Youngs Moduli (GPa) = 72.98961 60.01010 98.79891
#
# Poissons Ratio (x) = 0.23315 0.36614
# Poissons Ratio (y) = 0.28358 0.19006
# Poissons Ratio (z) = 0.27050 0.11544
#
# Static dielectric constant tensor:
#      x y z
#    x 1.717200 0.000000 0.033380 
#    y 0.000000 1.719260 0.000000 
#    z 0.033380 0.000000 1.799510 
# 
# From -- ./inp_files/226467.got.cif
#   From: 2010.05.17/outbox.cif.g08.bks.cpg/sg15_114_cif.got.tgz:226467.got - 2010.06.03 18:47:42.
