data_PCOD9266761
_publ_section_title
;
Structure prediction by ZEFSAII (Michael W. Deem and Ramdas Pophale) SiO2 
 PCOD9266761
Probable space group: C 2/C
;
_chemical_formula_sum "Si O2"
_cell_formula_units_Z 60
_cell_length_a 20.740875
_cell_length_b 14.899370
_cell_length_c 15.857469
_cell_angle_alpha 90.000000
_cell_angle_beta 141.423781
_cell_angle_gamma 90.000000
_cell_volume 3055.650882
_symmetry_space_group_name_H-M "C 2/C"
_symmetry_group_IT_number 15
_symmetry_cell_setting 'monoclinic'
loop_
_space_group_symop_operation_xyz
x,y,z
-x,y,1/2-z
-x,-y,-z
x,-y,1/2+z
1/2+x,1/2+y,z
1/2-x,1/2+y,1/2-z
1/2-x,1/2-y,-z
1/2+x,1/2-y,1/2+z
loop_
_atom_site_type_symbol
_atom_site_label
_atom_site_fract_x
_atom_site_fract_y
_atom_site_fract_z
Si Si1 0.852461 0.913491 0.246833
Si Si2 0.852558 0.480483 0.992764
Si Si3 0.329876 0.778244 0.654792
Si Si4 0.728111 0.850546 0.721816
Si Si5 0.926785 0.899327 0.820133
Si Si6 0.733902 0.644723 0.485648
Si Si7 0.000000 0.592038 0.250000
Si Si8 0.655734 0.658530 0.580722
O O1 0.878879 0.816696 0.235950
O O2 0.826409 0.897625 0.317404
O O3 0.937048 0.992380 0.328769
O O4 0.746426 0.952979 0.100147
O O5 0.828138 0.404698 0.037265
O O6 0.952925 0.532612 0.125752
O O7 0.841564 0.430414 0.891072
O O8 0.250000 0.750000 0.500000
O O9 0.282837 0.826981 0.690498
O O10 0.412035 0.844879 0.698481
O O11 0.844508 0.874085 0.809798
O O12 0.693139 0.759268 0.638400
O O13 0.867337 0.875534 0.673455
O O14 0.033478 0.847958 0.938229
O O15 0.750000 0.750000 0.500000
O O16 0.715393 0.618037 0.562544
#
# Coordination Sequence:
#
# PCOD9266761 Si02
#       8
#     8   8   8   8   8   8   4   8
#     4   9  21  42  58  88 126 159 211 278 303 379
#     4  10  22  43  62  95 136 158 218 267 322 388
#     4  11  23  44  68  88 129 172 220 263 327 380
#     4   9  22  41  63  94 130 164 207 279 322 378
#     4  10  21  38  62  93 129 159 217 265 312 394
#     4  10  19  38  60  91 129 168 198 256 319 380
#     4  12  26  42  68  98 126 180 216 274 322 402
#     4  11  19  37  65  92 122 172 208 250 332 382
#
# _framework density 19.635750999999999
#
# number of rings (size 3 to 8) (size 9 to 14) (size 15 to 20)
#    0.000    2.133    4.000    0.800    0.000    5.867 
#    4.800    0.000    0.000    0.000    0.000    0.000 
#    0.000    0.000    0.000    0.000    0.000    0.000 
#
# Total GULP energy -167269.855661 kJ/mol
# GULP energy per Si atom -5575.661855 kJ/mol
# Density = 1.959106 g / cm^3
# Si number density = 19.635751 Si / 1000 Ang^3
#
#
#
# Elastic Constant Matrix: (Units=GPa)
#
#
# Indices 1 2 3 4 5 6 
#
# 1 64.2021 18.1059 39.5407 0.0000 -29.3369 0.0000
# 2 18.1059 91.4150 29.3622 0.0000 -7.5336 0.0000
# 3 39.5407 29.3622 66.6655 0.0000 -10.7817 0.0000
# 4 0.0000 0.0000 0.0000 31.2239 0.0000 0.0099
# 5 -29.3369 -7.5336 -10.7817 0.0000 31.8530 0.0000
# 6 0.0000 0.0000 0.0000 0.0099 0.0000 27.9350
#
#
#
# Elastic Compliance Matrix: (Units=1/GPa)
#
#
# Indices 1 2 3 4 5 6 
#
# 1 0.043024 0.000787 -0.020552 0.000000 0.032856 0.000000
# 2 0.000787 0.012798 -0.005815 0.000000 0.001784 0.000000
# 3 -0.020552 -0.005815 0.028000 0.000000 -0.010826 0.000000
# 4 0.000000 0.000000 0.000000 0.032027 0.000000 -0.000011
# 5 0.032856 0.001784 -0.010826 0.000000 0.058412 0.000000
# 6 0.000000 0.000000 0.000000 -0.000011 0.000000 0.035797
#
#
# Mechanical properties :
#
#
# Convention : Reuss Voigt Hill
#
# Bulk Modulus (GPa) = 30.61538 44.03336 37.32437
# Shear Modulus (GPa) = 18.37521 27.22064 22.79792
#
# Velocity S-wave (km/s) = 3.06241 3.72732 3.41110
# Velocity P-wave (km/s) = 5.30377 6.40294 5.87910
#
# Compressibility (1/GPa) = 0.03266332
#
# Stress axis : x y z
#
# Youngs Moduli (GPa) = 23.24266 78.13713 35.71398
#
# Poissons Ratio (x) = -0.06151 0.73398
# Poissons Ratio (y) = -0.01830 0.20769
# Poissons Ratio (z) = 0.47767 0.45439
#
# Static dielectric constant tensor:
#      x y z
#    x 1.690610 0.000000 -0.022950 
#    y 0.000000 1.712710 0.000000 
#    z -0.022950 0.000000 1.710760 
# 
# From -- ./inp_files/168652.got.cif
#   From: 2010.05.17/outbox.cif.g08.bks.cpg/sg15_85_cif.got.tgz:168652.got - 2010.06.03 18:47:42.
