data_PCOD9266747
_publ_section_title
;
Structure prediction by ZEFSAII (Michael W. Deem and Ramdas Pophale) SiO2 
 PCOD9266747
Probable space group: C 2/C
;
_chemical_formula_sum "Si O2"
_cell_formula_units_Z 48
_cell_length_a 23.073820
_cell_length_b 9.622378
_cell_length_c 18.180995
_cell_angle_alpha 90.000000
_cell_angle_beta 37.737777
_cell_angle_gamma 90.000000
_cell_volume 2470.617202
_symmetry_space_group_name_H-M "C 2/C"
_symmetry_group_IT_number 15
_symmetry_cell_setting 'monoclinic'
loop_
_space_group_symop_operation_xyz
x,y,z
-x,y,1/2-z
-x,-y,-z
x,-y,1/2+z
1/2+x,1/2+y,z
1/2-x,1/2+y,1/2-z
1/2-x,1/2-y,-z
1/2+x,1/2-y,1/2+z
loop_
_atom_site_type_symbol
_atom_site_label
_atom_site_fract_x
_atom_site_fract_y
_atom_site_fract_z
Si Si1 0.392404 0.713541 0.729655
Si Si2 0.396195 0.875134 0.174897
Si Si3 0.444066 0.909992 0.963353
Si Si4 0.145574 0.765274 0.070467
Si Si5 0.730452 0.437799 0.869873
Si Si6 0.904244 0.056454 0.133932
O O1 0.481926 0.782867 0.599722
O O2 0.413122 0.726905 0.795564
O O3 0.302452 0.806731 0.797688
O O4 0.378086 0.556354 0.721425
O O5 0.410008 0.710804 0.160891
O O6 0.487704 0.957007 0.114733
O O7 0.300453 0.931307 0.309020
O O8 0.389487 0.921586 0.095246
O O9 0.383138 0.861462 0.954551
O O10 0.250000 0.750000 0.000000
O O11 0.154919 0.901467 0.009629
O O12 0.674697 0.444418 0.850186
O O13 0.000000 0.000000 0.000000
#
# Coordination Sequence:
#
# PCOD9266747 Si02
#       6
#     8   8   8   8   8   8
#     4  10  21  36  62  87 119 166 209 253 308 379
#     4  10  21  36  60  90 124 155 211 259 315 356
#     4  10  19  38  60  88 118 158 207 260 299 373
#     4  10  20  36  59  88 116 160 206 246 306 373
#     4  10  21  37  58  86 125 157 204 261 308 373
#     4  12  21  36  57  93 123 159 206 262 317 368
#
# _framework density 19.428343000000002
#
# number of rings (size 3 to 8) (size 9 to 14) (size 15 to 20)
#    0.000    1.667    3.333    1.500    2.333    0.000 
#    0.000    0.833    0.000   22.000    0.000    0.000 
#    0.000    0.000    0.000    0.000    0.000    0.000 
#
# Total GULP energy -133837.420334 kJ/mol
# GULP energy per Si atom -5576.559181 kJ/mol
# Density = 1.938412 g / cm^3
# Si number density = 19.428343 Si / 1000 Ang^3
#
#
#
# Elastic Constant Matrix: (Units=GPa)
#
#
# Indices 1 2 3 4 5 6 
#
# 1 130.1926 41.0897 10.4631 0.0000 0.2172 0.0000
# 2 41.0897 146.2490 14.4553 0.0000 -7.9124 0.0000
# 3 10.4631 14.4553 47.6792 -0.0001 4.7039 0.0000
# 4 0.0000 0.0000 -0.0001 14.9419 0.0000 8.0727
# 5 0.2172 -7.9124 4.7039 0.0000 27.6149 0.0000
# 6 0.0000 0.0000 0.0000 8.0727 0.0000 30.3223
#
#
#
# Elastic Compliance Matrix: (Units=1/GPa)
#
#
# Indices 1 2 3 4 5 6 
#
# 1 0.008499 -0.002307 -0.001113 0.000000 -0.000538 0.000000
# 2 -0.002307 0.007838 -0.002129 0.000000 0.002627 0.000000
# 3 -0.001113 -0.002129 0.022297 0.000000 -0.004399 0.000000
# 4 0.000000 0.000000 0.000000 0.078170 0.000000 -0.020811
# 5 -0.000538 0.002627 -0.004399 0.000000 0.037719 0.000000
# 6 0.000000 0.000000 0.000000 -0.020811 0.000000 0.038519
#
#
# Mechanical properties :
#
#
# Convention : Reuss Voigt Hill
#
# Bulk Modulus (GPa) = 36.31470 50.68189 43.49829
# Shear Modulus (GPa) = 23.43900 31.78335 27.61117
#
# Velocity S-wave (km/s) = 3.47714 4.04905 3.77394
# Velocity P-wave (km/s) = 5.90363 6.92841 6.43645
#
# Compressibility (1/GPa) = 0.02753706
#
# Stress axis : x y z
#
# Youngs Moduli (GPa) = 117.65560 127.57661 44.84859
#
# Poissons Ratio (x) = 0.29433 0.04990
# Poissons Ratio (y) = 0.27145 0.09550
# Poissons Ratio (z) = 0.13090 0.27165
#
# Static dielectric constant tensor:
#      x y z
#    x 1.686700 0.000000 -0.022240 
#    y 0.000000 1.669880 0.000000 
#    z -0.022240 0.000000 1.790720 
# 
# From -- ./inp_files/176960.got.cif
#   From: 2010.05.17/outbox.cif.g08.bks.cpg/sg15_89_cif.got.tgz:176960.got - 2010.06.03 18:47:42.
