data_PCOD9266691
_publ_section_title
;
Structure prediction by ZEFSAII (Michael W. Deem and Ramdas Pophale) SiO2 
 PCOD9266691
Probable space group: C 2/C
;
_chemical_formula_sum "Si O2"
_cell_formula_units_Z 48
_cell_length_a 17.592969
_cell_length_b 11.606478
_cell_length_c 13.879397
_cell_angle_alpha 90.000000
_cell_angle_beta 50.344331
_cell_angle_gamma 90.000000
_cell_volume 2181.930290
_symmetry_space_group_name_H-M "C 2/C"
_symmetry_group_IT_number 15
_symmetry_cell_setting 'monoclinic'
loop_
_space_group_symop_operation_xyz
x,y,z
-x,y,1/2-z
-x,-y,-z
x,-y,1/2+z
1/2+x,1/2+y,z
1/2-x,1/2+y,1/2-z
1/2-x,1/2-y,-z
1/2+x,1/2-y,1/2+z
loop_
_atom_site_type_symbol
_atom_site_label
_atom_site_fract_x
_atom_site_fract_y
_atom_site_fract_z
Si Si1 0.690378 0.838292 0.116269
Si Si2 0.300758 0.716147 0.103453
Si Si3 0.355906 0.295201 0.129298
Si Si4 0.938398 0.032190 0.714146
Si Si5 0.741432 0.058017 0.977350
Si Si6 0.032681 0.785078 0.870867
O O1 0.768303 0.856560 0.140955
O O2 0.592262 0.783938 0.241363
O O3 0.750000 0.750000 0.000000
O O4 0.674732 0.956875 0.072684
O O5 0.200488 0.715852 0.248052
O O6 0.307041 0.841578 0.047426
O O7 0.389834 0.700150 0.104497
O O8 0.291749 0.623172 0.026899
O O9 0.419165 0.386433 0.139455
O O10 0.431717 0.234304 0.995210
O O11 0.829642 0.003587 0.843021
O O12 0.000000 0.091268 0.750000
O O13 0.991826 0.913546 0.645601
#
# Coordination Sequence:
#
# PCOD9266691 Si02
#       6
#     8   8   8   8   8   8
#     4  11  22  38  61  85 119 159 192 248 292 350
#     4   9  21  38  62  83 116 160 190 245 285 351
#     4  10  22  37  58  91 119 150 199 243 297 347
#     4  11  20  33  62  93 117 147 190 260 306 338
#     4  10  19  38  59  85 116 152 203 232 294 347
#     4  11  21  36  58  87 121 149 191 241 301 347
#
# _framework density 21.998868999999999
#
# number of rings (size 3 to 8) (size 9 to 14) (size 15 to 20)
#    0.000    1.667    1.667    3.500    0.000    0.000 
#    0.000    0.833    3.667    0.000    0.000    0.000 
#    0.000    0.000    0.000    0.000    0.000    0.000 
#
# Total GULP energy -134194.039038 kJ/mol
# GULP energy per Si atom -5591.418293 kJ/mol
# Density = 2.194880 g / cm^3
# Si number density = 21.998869 Si / 1000 Ang^3
#
#
#
# Elastic Constant Matrix: (Units=GPa)
#
#
# Indices 1 2 3 4 5 6 
#
# 1 81.8851 11.8385 14.7086 0.0000 12.3600 0.0000
# 2 11.8385 53.6296 31.5738 0.0000 0.3297 0.0000
# 3 14.7086 31.5738 154.6740 0.0000 -13.6660 0.0000
# 4 0.0000 0.0000 0.0000 20.0393 0.0000 4.4494
# 5 12.3600 0.3297 -13.6660 0.0000 33.6812 0.0000
# 6 0.0000 0.0000 0.0000 4.4494 0.0000 20.7682
#
#
#
# Elastic Compliance Matrix: (Units=1/GPa)
#
#
# Indices 1 2 3 4 5 6 
#
# 1 0.013599 -0.002182 -0.001335 0.000000 -0.005511 0.000000
# 2 -0.002182 0.021679 -0.004321 0.000000 -0.001164 0.000000
# 3 -0.001335 -0.004321 0.007801 0.000000 0.003697 0.000000
# 4 0.000000 0.000000 0.000000 0.052394 0.000000 -0.011225
# 5 -0.005511 -0.001164 0.003697 0.000000 0.033224 0.000000
# 6 0.000000 0.000000 0.000000 -0.011225 0.000000 0.050555
#
#
# Mechanical properties :
#
#
# Convention : Reuss Voigt Hill
#
# Bulk Modulus (GPa) = 36.49136 45.15893 40.82514
# Shear Modulus (GPa) = 24.50225 30.36891 27.43558
#
# Velocity S-wave (km/s) = 3.34098 3.71951 3.53531
# Velocity P-wave (km/s) = 5.61308 6.24650 5.93824
#
# Compressibility (1/GPa) = 0.02740375
#
# Stress axis : x y z
#
# Youngs Moduli (GPa) = 73.53323 46.12732 128.19220
#
# Poissons Ratio (x) = 0.10067 0.17109
# Poissons Ratio (y) = 0.16048 0.55388
# Poissons Ratio (z) = 0.09814 0.19930
#
# Static dielectric constant tensor:
#      x y z
#    x 1.793700 0.000000 0.020240 
#    y 0.000000 1.769010 0.000000 
#    z 0.020240 0.000000 1.844700 
# 
# From -- ./inp_files/167132.got.cif
#   From: 2010.05.17/outbox.cif.g08.bks.cpg/sg15_84_cif.got.tgz:167132.got - 2010.06.03 18:47:42.
