data_PCOD9266483
_publ_section_title
;
Structure prediction by ZEFSAII (Michael W. Deem and Ramdas Pophale) SiO2 
 PCOD9266483
Probable space group: C 2/C
;
_chemical_formula_sum "Si O2"
_cell_formula_units_Z 56
_cell_length_a 28.507512
_cell_length_b 10.229910
_cell_length_c 18.945048
_cell_angle_alpha 90.000000
_cell_angle_beta 26.936876
_cell_angle_gamma 90.000000
_cell_volume 2502.841050
_symmetry_space_group_name_H-M "C 2/C"
_symmetry_group_IT_number 15
_symmetry_cell_setting 'monoclinic'
loop_
_space_group_symop_operation_xyz
x,y,z
-x,y,1/2-z
-x,-y,-z
x,-y,1/2+z
1/2+x,1/2+y,z
1/2-x,1/2+y,1/2-z
1/2-x,1/2-y,-z
1/2+x,1/2-y,1/2+z
loop_
_atom_site_type_symbol
_atom_site_label
_atom_site_fract_x
_atom_site_fract_y
_atom_site_fract_z
Si Si1 0.869426 0.620262 0.289141
Si Si2 0.189145 0.141329 0.730230
Si Si3 0.374583 0.856340 0.195767
Si Si4 0.722878 0.541492 0.073013
Si Si5 0.906725 0.420917 0.993729
Si Si6 0.151259 0.222229 0.050908
Si Si7 0.429476 0.770302 0.484294
O O1 0.852306 0.749866 0.267660
O O2 0.878715 0.504461 0.218709
O O3 0.772020 0.583092 0.467827
O O4 0.977302 0.611137 0.186799
O O5 0.313188 0.135643 0.573689
O O6 0.140494 0.179321 0.871162
O O7 0.168877 0.003543 0.717687
O O8 0.399218 0.855520 0.080805
O O9 0.260552 0.805616 0.364453
O O10 0.460621 0.780758 0.124880
O O11 0.823226 0.635293 0.951116
O O12 0.651165 0.617384 0.113696
O O13 0.892225 0.577678 0.025356
O O14 0.069299 0.221188 0.097926
#
# Coordination Sequence:
#
# PCOD9266483 Si02
#       7
#     8   8   8   8   8   8   8
#     4  10  21  39  60  87 125 158 206 262 303 378
#     4  12  21  35  66  92 125 161 204 258 329 362
#     4  10  19  37  65  92 121 155 207 266 307 360
#     4  10  23  40  59  88 125 168 201 251 321 366
#     4  11  20  36  63  97 119 158 213 259 310 373
#     4  10  21  41  63  87 126 162 214 260 298 376
#     4  11  20  37  65  93 119 165 214 260 307 368
#
# _framework density 22.374573999999999
#
# number of rings (size 3 to 8) (size 9 to 14) (size 15 to 20)
#    0.000    1.429    5.714    1.286    0.000    0.571 
#    2.571    2.857   12.571    0.000    0.000    0.000 
#    0.000    0.000    0.000    0.000    0.000    0.000 
#
# Total GULP energy -156452.818744 kJ/mol
# GULP energy per Si atom -5587.600669 kJ/mol
# Density = 2.232365 g / cm^3
# Si number density = 22.374574 Si / 1000 Ang^3
#
#
#
# Elastic Constant Matrix: (Units=GPa)
#
#
# Indices 1 2 3 4 5 6 
#
# 1 152.9324 46.3350 26.2571 0.0000 2.2000 0.0000
# 2 46.3350 69.0230 28.9853 -0.0001 4.7343 0.0000
# 3 26.2571 28.9853 53.9720 0.0000 3.3716 0.0000
# 4 0.0000 -0.0001 0.0000 35.7258 0.0000 4.7095
# 5 2.2000 4.7343 3.3716 0.0000 31.2413 0.0000
# 6 0.0000 0.0000 0.0000 4.7095 0.0000 23.9530
#
#
#
# Elastic Compliance Matrix: (Units=1/GPa)
#
#
# Indices 1 2 3 4 5 6 
#
# 1 0.008287 -0.005014 -0.001359 0.000000 0.000323 0.000000
# 2 -0.005014 0.021838 -0.009166 0.000000 -0.001967 0.000000
# 3 -0.001359 -0.009166 0.024182 0.000000 -0.001125 0.000000
# 4 0.000000 0.000000 0.000000 0.028736 0.000000 -0.005650
# 5 0.000323 -0.001967 -0.001125 0.000000 0.032406 0.000000
# 6 0.000000 0.000000 0.000000 -0.005650 0.000000 0.042859
#
#
# Mechanical properties :
#
#
# Convention : Reuss Voigt Hill
#
# Bulk Modulus (GPa) = 43.04950 53.23138 48.14044
# Shear Modulus (GPa) = 25.36432 29.80736 27.58584
#
# Velocity S-wave (km/s) = 3.37058 3.65389 3.51509
# Velocity P-wave (km/s) = 5.86770 6.45321 6.16741
#
# Compressibility (1/GPa) = 0.02322907
#
# Stress axis : x y z
#
# Youngs Moduli (GPa) = 120.67489 45.79179 41.35367
#
# Poissons Ratio (x) = 0.22962 0.05618
# Poissons Ratio (y) = 0.60512 0.37903
# Poissons Ratio (z) = 0.16395 0.41971
#
# Static dielectric constant tensor:
#      x y z
#    x 1.823920 0.000000 0.010770 
#    y 0.000000 1.832160 0.000000 
#    z 0.010770 0.000000 1.861810 
# 
# From -- ./inp_files/258970.got.cif
#   From: 2010.05.17/outbox.cif.g08.bks.cpg/sg15_130_cif.got.tgz:258970.got - 2010.06.03 18:47:42.
