data_PCOD9266921
_publ_section_title
;
Structure prediction by ZEFSAII (Michael W. Deem and Ramdas Pophale) SiO2 
 PCOD9266921
Probable space group: C 2/C
;
_chemical_formula_sum "Si O2"
_cell_formula_units_Z 52
_cell_length_a 11.842423
_cell_length_b 11.478410
_cell_length_c 15.705001
_cell_angle_alpha 90.000000
_cell_angle_beta 106.826759
_cell_angle_gamma 90.000000
_cell_volume 2043.411748
_symmetry_space_group_name_H-M "C 2/C"
_symmetry_group_IT_number 15
_symmetry_cell_setting 'monoclinic'
loop_
_space_group_symop_operation_xyz
x,y,z
-x,y,1/2-z
-x,-y,-z
x,-y,1/2+z
1/2+x,1/2+y,z
1/2-x,1/2+y,1/2-z
1/2-x,1/2-y,-z
1/2+x,1/2-y,1/2+z
loop_
_atom_site_type_symbol
_atom_site_label
_atom_site_fract_x
_atom_site_fract_y
_atom_site_fract_z
Si Si1 0.136634 0.785436 0.180740
Si Si2 0.561192 0.307145 0.487952
Si Si3 0.316174 0.117548 0.594556
Si Si4 0.500000 0.515359 0.750000
Si Si5 0.373635 0.552232 0.064404
Si Si6 0.362169 0.945426 0.742584
Si Si7 0.064581 0.413904 0.082812
O O1 0.243095 0.797874 0.138530
O O2 0.173249 0.686794 0.253487
O O3 0.088489 0.902097 0.215174
O O4 0.021411 0.747279 0.101858
O O5 0.629835 0.414386 0.460125
O O6 0.469088 0.378510 0.527869
O O7 0.620445 0.199059 0.549257
O O8 0.452857 0.138669 0.610744
O O9 0.250973 0.103389 0.490889
O O10 0.300700 0.001062 0.647766
O O11 0.579502 0.441150 0.830539
O O12 0.500000 0.946146 0.750000
O O13 0.356062 0.018495 0.830128
O O14 0.000000 0.500000 0.000000
#
# Coordination Sequence:
#
# PCOD9266921 Si02
#       7
#     8   8   8   4   8   8   8
#     4  10  19  38  63  86 120 162 202 249 307 365
#     4   9  19  39  63  86 124 159 196 252 312 359
#     4  10  24  39  58  95 124 153 211 260 292 362
#     4  10  20  38  66  90 114 168 198 246 322 370
#     4   9  20  39  62  93 120 154 205 259 301 359
#     4  10  21  40  61  85 127 168 198 242 313 372
#     4  11  22  40  63  89 121 171 201 241 313 367
#
# _framework density 25.447638999999999
#
# number of rings (size 3 to 8) (size 9 to 14) (size 15 to 20)
#    0.000    2.154    2.308    0.923    0.000    4.923 
#    6.923    1.538    0.000    0.000    0.000    0.000 
#    0.000    0.000    0.000    0.000    0.000    0.000 
#
# Total GULP energy -145423.791237 kJ/mol
# GULP energy per Si atom -5593.222740 kJ/mol
# Density = 2.538972 g / cm^3
# Si number density = 25.447639 Si / 1000 Ang^3
#
#
#
# Elastic Constant Matrix: (Units=GPa)
#
#
# Indices 1 2 3 4 5 6 
#
# 1 60.6268 1.1072 6.4165 0.0000 -2.3915 0.0000
# 2 1.1072 85.9710 16.7892 0.0000 -3.4231 0.0000
# 3 6.4165 16.7892 122.7118 0.0000 6.1618 0.0000
# 4 0.0000 0.0000 0.0000 48.0820 0.0000 -11.6687
# 5 -2.3915 -3.4231 6.1618 0.0000 20.9834 0.0000
# 6 0.0000 0.0000 0.0000 -11.6687 0.0000 7.0021
#
#
#
# Elastic Compliance Matrix: (Units=1/GPa)
#
#
# Indices 1 2 3 4 5 6 
#
# 1 0.016685 0.000067 -0.000992 0.000000 0.002204 0.000000
# 2 0.000067 0.012078 -0.001782 0.000000 0.002501 0.000000
# 3 -0.000992 -0.001782 0.008592 0.000000 -0.002927 0.000000
# 4 0.000000 0.000000 0.000000 0.034920 0.000000 0.058194
# 5 0.002204 0.002501 -0.002927 0.000000 0.049175 0.000000
# 6 0.000000 0.000000 0.000000 0.058194 0.000000 0.239792
#
#
# Mechanical properties :
#
#
# Convention : Reuss Voigt Hill
#
# Bulk Modulus (GPa) = 31.30783 35.32616 33.31699
# Shear Modulus (GPa) = 13.25190 31.54660 22.39925
#
# Velocity S-wave (km/s) = 2.28447 3.52471 2.97005
# Velocity P-wave (km/s) = 4.39181 5.52058 4.98823
#
# Compressibility (1/GPa) = 0.03194089
#
# Stress axis : x y z
#
# Youngs Moduli (GPa) = 59.93378 82.79175 116.39028
#
# Poissons Ratio (x) = -0.00552 0.11549
# Poissons Ratio (y) = -0.00399 0.20737
# Poissons Ratio (z) = 0.05947 0.14750
#
# Static dielectric constant tensor:
#      x y z
#    x 1.994210 0.000000 -0.053290 
#    y 0.000000 2.027180 0.000000 
#    z -0.053290 0.000000 1.992190 
# 
# From -- ./inp_files/152565.got.cif
#   From: 2010.05.17/outbox.cif.g08.bks.cpg/sg15_77_cif.got.tgz:152565.got - 2010.06.03 18:47:42.
