data_PCOD9266861
_publ_section_title
;
Structure prediction by ZEFSAII (Michael W. Deem and Ramdas Pophale) SiO2 
 PCOD9266861
Probable space group: C 2/C
;
_chemical_formula_sum "Si O2"
_cell_formula_units_Z 48
_cell_length_a 18.334836
_cell_length_b 9.595329
_cell_length_c 14.292471
_cell_angle_alpha 90.000000
_cell_angle_beta 82.065958
_cell_angle_gamma 90.000000
_cell_volume 2490.387715
_symmetry_space_group_name_H-M "C 2/C"
_symmetry_group_IT_number 15
_symmetry_cell_setting 'monoclinic'
loop_
_space_group_symop_operation_xyz
x,y,z
-x,y,1/2-z
-x,-y,-z
x,-y,1/2+z
1/2+x,1/2+y,z
1/2-x,1/2+y,1/2-z
1/2-x,1/2-y,-z
1/2+x,1/2-y,1/2+z
loop_
_atom_site_type_symbol
_atom_site_label
_atom_site_fract_x
_atom_site_fract_y
_atom_site_fract_z
Si Si1 0.176937 0.626218 0.612488
Si Si2 0.784336 0.693021 0.397938
Si Si3 0.871652 0.961558 0.368066
Si Si4 0.533649 0.492672 0.390095
Si Si5 0.344493 0.335404 0.042981
Si Si6 0.351172 0.683214 0.219803
O O1 0.181685 0.460905 0.601705
O O2 0.262818 0.675376 0.598879
O O3 0.142357 0.704263 0.528115
O O4 0.140095 0.683480 0.714013
O O5 0.750000 0.750000 0.500000
O O6 0.845855 0.805393 0.362362
O O7 0.718047 0.696074 0.335514
O O8 0.959620 0.971955 0.344665
O O9 0.846623 0.031787 0.471039
O O10 0.836631 0.057424 0.294761
O O11 0.500000 0.500000 0.500000
O O12 0.594705 0.370552 0.389645
O O13 0.577660 0.630807 0.350673
#
# Coordination Sequence:
#
# PCOD9266861 Si02
#       6
#     8   8   8   8   8   8
#     4  10  20  36  59  93 128 158 211 267 326 370
#     4  12  21  37  58  94 129 163 208 274 324 379
#     4  10  21  36  62  91 125 165 214 259 320 390
#     4  10  19  38  62  88 117 168 211 253 315 393
#     4   9  18  37  60  88 124 164 203 262 317 392
#     4  11  22  37  60  90 122 168 218 268 308 379
#
# _framework density 19.274107000000001
#
# number of rings (size 3 to 8) (size 9 to 14) (size 15 to 20)
#    0.000    1.667    3.333    2.500    0.000    0.000 
#    0.000    0.833    0.000   12.000    0.000    0.000 
#    0.000    0.000    0.000    0.000    0.000    0.000 
#
# Total GULP energy -133871.523753 kJ/mol
# GULP energy per Si atom -5577.980156 kJ/mol
# Density = 1.923024 g / cm^3
# Si number density = 19.274107 Si / 1000 Ang^3
#
#
#
# Elastic Constant Matrix: (Units=GPa)
#
#
# Indices 1 2 3 4 5 6 
#
# 1 94.6809 34.1867 28.0524 0.0000 1.8624 0.0000
# 2 34.1867 154.3336 41.4428 0.0000 4.5309 0.0000
# 3 28.0524 41.4428 81.5168 0.0000 -5.3980 0.0000
# 4 0.0000 0.0000 0.0000 28.8647 0.0000 -6.9740
# 5 1.8624 4.5309 -5.3980 0.0000 36.0839 0.0000
# 6 0.0000 0.0000 0.0000 -6.9740 0.0000 31.1506
#
#
#
# Elastic Compliance Matrix: (Units=1/GPa)
#
#
# Indices 1 2 3 4 5 6 
#
# 1 0.012217 -0.001777 -0.003361 0.000000 -0.000910 0.000000
# 2 -0.001777 0.007847 -0.003471 0.000000 -0.001413 0.000000
# 3 -0.003361 -0.003471 0.015382 0.000000 0.002910 0.000000
# 4 0.000000 0.000000 0.000000 0.036626 0.000000 0.008200
# 5 -0.000910 -0.001413 0.002910 0.000000 0.028373 0.000000
# 6 0.000000 0.000000 0.000000 0.008200 0.000000 0.033938
#
#
# Mechanical properties :
#
#
# Convention : Reuss Voigt Hill
#
# Bulk Modulus (GPa) = 54.86474 59.76612 57.31543
# Shear Modulus (GPa) = 31.71055 34.34313 33.02684
#
# Velocity S-wave (km/s) = 4.06056 4.22575 4.14398
# Velocity P-wave (km/s) = 7.10714 7.40845 7.25936
#
# Compressibility (1/GPa) = 0.01822664
#
# Stress axis : x y z
#
# Youngs Moduli (GPa) = 81.85198 127.44209 65.01269
#
# Poissons Ratio (x) = 0.22646 0.21852
# Poissons Ratio (y) = 0.14545 0.22568
# Poissons Ratio (z) = 0.27512 0.44239
#
# Static dielectric constant tensor:
#      x y z
#    x 1.715610 0.000000 -0.017180 
#    y 0.000000 1.627690 0.000000 
#    z -0.017180 0.000000 1.749680 
# 
# From -- ./inp_files/165724.got.cif
#   From: 2010.05.17/outbox.cif.g08.bks.cpg/sg15_83_cif.got.tgz:165724.got - 2010.06.03 18:47:42.
