data_PCOD9266573
_publ_section_title
;
Structure prediction by ZEFSAII (Michael W. Deem and Ramdas Pophale) SiO2 
 PCOD9266573
Probable space group: C 2/C
;
_chemical_formula_sum "Si O2"
_cell_formula_units_Z 48
_cell_length_a 21.746405
_cell_length_b 11.532509
_cell_length_c 18.174520
_cell_angle_alpha 90.000000
_cell_angle_beta 147.713824
_cell_angle_gamma 90.000000
_cell_volume 2434.647836
_symmetry_space_group_name_H-M "C 2/C"
_symmetry_group_IT_number 15
_symmetry_cell_setting 'monoclinic'
loop_
_space_group_symop_operation_xyz
x,y,z
-x,y,1/2-z
-x,-y,-z
x,-y,1/2+z
1/2+x,1/2+y,z
1/2-x,1/2+y,1/2-z
1/2-x,1/2-y,-z
1/2+x,1/2-y,1/2+z
loop_
_atom_site_type_symbol
_atom_site_label
_atom_site_fract_x
_atom_site_fract_y
_atom_site_fract_z
Si Si1 0.429268 0.462257 0.606226
Si Si2 0.206330 0.618822 0.385530
Si Si3 0.372934 0.500516 0.296654
Si Si4 0.680332 0.132250 0.524132
Si Si5 0.551911 0.328144 0.006178
Si Si6 0.531140 0.892933 0.582543
O O1 0.500000 0.431763 0.750000
O O2 0.319501 0.540383 0.509050
O O3 0.480518 0.534642 0.853019
O O4 0.403679 0.348198 0.531583
O O5 0.242978 0.750795 0.403114
O O6 0.145718 0.613688 0.404009
O O7 0.131143 0.576688 0.241263
O O8 0.258538 0.472207 0.136158
O O9 0.380329 0.422372 0.376216
O O10 0.417241 0.628842 0.364392
O O11 0.574761 0.146645 0.472824
O O12 0.564403 0.209101 0.060250
O O13 0.500000 0.000000 0.500000
#
# Coordination Sequence:
#
# PCOD9266573 Si02
#       6
#     8   8   8   8   8   8
#     4  10  19  37  68  91 116 153 219 254 297 350
#     4  11  23  38  64  91 127 158 198 260 310 362
#     4   9  18  37  65  89 115 152 208 265 279 351
#     4  11  23  38  62  91 126 156 205 252 315 358
#     4   9  20  39  60  90 115 161 217 244 294 350
#     4  12  27  40  58  91 131 168 193 247 316 374
#
# _framework density 19.715378000000001
#
# number of rings (size 3 to 8) (size 9 to 14) (size 15 to 20)
#    1.000    0.667    3.333    1.500    2.333    0.000 
#    0.000    1.667    0.000    3.000    0.000    0.000 
#    0.000    0.000    0.000    0.000    0.000    0.000 
#
# Total GULP energy -133701.900511 kJ/mol
# GULP energy per Si atom -5570.912521 kJ/mol
# Density = 1.967050 g / cm^3
# Si number density = 19.715378 Si / 1000 Ang^3
#
#
#
# Elastic Constant Matrix: (Units=GPa)
#
#
# Indices 1 2 3 4 5 6 
#
# 1 50.8188 -0.8916 19.5236 0.0000 -21.1655 0.0000
# 2 -0.8916 25.8572 19.0566 0.0000 -20.0131 0.0000
# 3 19.5236 19.0566 118.8092 0.0000 -38.7149 0.0000
# 4 0.0000 0.0000 0.0000 17.6175 0.0000 -1.4239
# 5 -21.1655 -20.0131 -38.7149 0.0000 37.5923 0.0000
# 6 0.0000 0.0000 0.0000 -1.4239 0.0000 4.6980
#
#
#
# Elastic Compliance Matrix: (Units=1/GPa)
#
#
# Indices 1 2 3 4 5 6 
#
# 1 0.034459 0.027719 0.001538 0.000000 0.035742 0.000000
# 2 0.027719 0.088206 0.002535 0.000000 0.065175 0.000000
# 3 0.001538 0.002535 0.012762 0.000000 0.015359 0.000000
# 4 0.000000 0.000000 0.000000 0.058187 0.000000 0.017635
# 5 0.035742 0.065175 0.015359 0.000000 0.097240 0.000000
# 6 0.000000 0.000000 0.000000 0.017635 0.000000 0.218200
#
#
# Mechanical properties :
#
#
# Convention : Reuss Voigt Hill
#
# Bulk Modulus (GPa) = 5.02483 30.09583 17.56033
# Shear Modulus (GPa) = 9.76927 22.50134 16.13531
#
# Velocity S-wave (km/s) = 2.22843 3.38199 2.86389
# Velocity P-wave (km/s) = 3.02910 5.52710 4.45669
#
# Compressibility (1/GPa) = 0.19901171
#
# Stress axis : x y z
#
# Youngs Moduli (GPa) = 29.01965 11.33708 78.35542
#
# Poissons Ratio (x) = -0.31425 -0.12054
# Poissons Ratio (y) = -0.80438 -0.19863
# Poissons Ratio (z) = -0.04464 -0.02874
#
# Static dielectric constant tensor:
#      x y z
#    x 1.689920 0.000000 0.014740 
#    y 0.000000 1.680180 0.000000 
#    z 0.014740 0.000000 1.713400 
# 
# From -- ./inp_files/167927.got.cif
#   From: 2010.05.17/outbox.cif.g08.bks.cpg/sg15_84_cif.got.tgz:167927.got - 2010.06.03 18:47:42.
