data_PCOD9266493
_publ_section_title
;
Structure prediction by ZEFSAII (Michael W. Deem and Ramdas Pophale) SiO2 
 PCOD9266493
Probable space group: C 2/C
;
_chemical_formula_sum "Si O2"
_cell_formula_units_Z 56
_cell_length_a 12.124368
_cell_length_b 14.601010
_cell_length_c 24.024079
_cell_angle_alpha 90.000000
_cell_angle_beta 148.300908
_cell_angle_gamma 90.000000
_cell_volume 2234.739485
_symmetry_space_group_name_H-M "C 2/C"
_symmetry_group_IT_number 15
_symmetry_cell_setting 'monoclinic'
loop_
_space_group_symop_operation_xyz
x,y,z
-x,y,1/2-z
-x,-y,-z
x,-y,1/2+z
1/2+x,1/2+y,z
1/2-x,1/2+y,1/2-z
1/2-x,1/2-y,-z
1/2+x,1/2-y,1/2+z
loop_
_atom_site_type_symbol
_atom_site_label
_atom_site_fract_x
_atom_site_fract_y
_atom_site_fract_z
Si Si1 0.223194 0.651287 0.331562
Si Si2 0.181145 0.395844 0.575627
Si Si3 0.937529 0.109058 0.866417
Si Si4 0.815550 0.912846 0.124953
Si Si5 0.808585 0.446448 0.792442
Si Si6 0.667468 0.302353 0.069553
Si Si7 0.733568 0.000425 0.925513
O O1 0.253045 0.629486 0.279725
O O2 0.425446 0.698015 0.444904
O O3 0.205155 0.554103 0.355860
O O4 0.000000 0.697997 0.250000
O O5 0.297389 0.480416 0.596622
O O6 0.226104 0.415146 0.659969
O O7 0.260373 0.295607 0.594213
O O8 0.925710 0.397744 0.458893
O O9 0.835388 0.181209 0.864795
O O10 0.107978 0.145948 0.895288
O O11 0.786606 0.045005 0.765293
O O12 0.053593 0.038733 0.957817
O O13 0.000000 0.906594 0.250000
O O14 0.053717 0.463646 0.888130
O O15 0.769303 0.391636 0.085503
#
# Coordination Sequence:
#
# PCOD9266493 Si02
#       7
#     8   8   8   8   8   8   8
#     4   9  18  34  63  91 127 169 201 251 324 382
#     4  11  26  43  65  94 130 166 217 262 307 378
#     4  11  20  40  69  90 123 174 211 255 320 378
#     4  11  24  47  66  82 127 187 212 239 319 395
#     4  11  19  38  65  93 122 176 209 244 322 396
#     4  11  22  41  63 103 130 151 214 281 309 353
#     4  10  19  37  65  95 128 159 207 265 319 375
#
# _framework density 25.05885
#
# number of rings (size 3 to 8) (size 9 to 14) (size 15 to 20)
#    0.000    1.429    5.714    0.857    0.000    1.143 
#    5.143    0.714    0.000    0.000    0.000    0.000 
#    0.000    0.000    0.000    0.000    0.000    0.000 
#
# Total GULP energy -156622.399974 kJ/mol
# GULP energy per Si atom -5593.657142 kJ/mol
# Density = 2.500181 g / cm^3
# Si number density = 25.058850 Si / 1000 Ang^3
#
#
#
# Elastic Constant Matrix: (Units=GPa)
#
#
# Indices 1 2 3 4 5 6 
#
# 1 37.0076 -20.4096 -2.5611 -0.0001 -14.5122 0.0000
# 2 -20.4096 115.9464 -1.9954 -0.0001 -6.6759 0.0000
# 3 -2.5611 -1.9954 113.2148 -0.0001 -14.3209 -0.0001
# 4 -0.0001 -0.0001 -0.0001 4.3821 -0.0001 -7.9906
# 5 -14.5122 -6.6759 -14.3209 -0.0001 34.2634 0.0000
# 6 0.0000 0.0000 -0.0001 -7.9906 0.0000 12.2864
#
#
#
# Elastic Compliance Matrix: (Units=1/GPa)
#
#
# Indices 1 2 3 4 5 6 
#
# 1 0.039540 0.008162 0.003545 -0.000010 0.019820 -0.000006
# 2 0.008162 0.010424 0.001122 -0.000004 0.005957 -0.000002
# 3 0.003545 0.001122 0.009661 -0.000003 0.005758 -0.000002
# 4 -0.000010 -0.000004 -0.000003 -1.227556 -0.000010 -0.798355
# 5 0.019820 0.005957 0.005758 -0.000010 0.041148 -0.000007
# 6 -0.000006 -0.000002 -0.000002 -0.798355 -0.000007 -0.437828
#
#
# Mechanical properties :
#
#
# Convention : Reuss Voigt Hill
#
# Bulk Modulus (GPa) = 11.72546 24.02627 17.87586
# Shear Modulus (GPa) = -3.20135 29.59537 13.19701
#
# Velocity S-wave (km/s) = -1.13151 3.44035 2.29736
# Velocity P-wave (km/s) = 1.72692 5.03886 3.76645
#
# Compressibility (1/GPa) = 0.08528453
#
# Stress axis : x y z
#
# Youngs Moduli (GPa) = 25.29056 95.93464 103.50767
#
# Poissons Ratio (x) = -0.78305 -0.36697
# Poissons Ratio (y) = -0.20643 -0.11612
# Poissons Ratio (z) = -0.08966 -0.10763
#
# Static dielectric constant tensor:
#      x y z
#    x 2.017310 0.000000 0.026800 
#    y 0.000000 2.000420 0.000000 
#    z 0.026800 0.000000 2.029490 
# 
# From -- ./inp_files/296599.got.cif
#   From: 2010.05.17/outbox.cif.g08.bks.cpg/sg15_149_cif.got.tgz:296599.got - 2010.06.03 18:47:42.
