data_PCOD9266302
_publ_section_title
;
Structure prediction by ZEFSAII (Michael W. Deem and Ramdas Pophale) SiO2 
 PCOD9266302
Probable space group: C 2/C
;
_chemical_formula_sum "Si O2"
_cell_formula_units_Z 56
_cell_length_a 12.008364
_cell_length_b 25.958194
_cell_length_c 11.505699
_cell_angle_alpha 90.000000
_cell_angle_beta 130.477136
_cell_angle_gamma 90.000000
_cell_volume 2728.128352
_symmetry_space_group_name_H-M "C 2/C"
_symmetry_group_IT_number 15
_symmetry_cell_setting 'monoclinic'
loop_
_space_group_symop_operation_xyz
x,y,z
-x,y,1/2-z
-x,-y,-z
x,-y,1/2+z
1/2+x,1/2+y,z
1/2-x,1/2+y,1/2-z
1/2-x,1/2-y,-z
1/2+x,1/2-y,1/2+z
loop_
_atom_site_type_symbol
_atom_site_label
_atom_site_fract_x
_atom_site_fract_y
_atom_site_fract_z
Si Si1 0.201177 0.107219 0.621194
Si Si2 0.067585 0.859990 0.426259
Si Si3 0.617209 0.162198 0.411909
Si Si4 0.053240 0.747448 0.526459
Si Si5 0.242776 0.269804 0.365048
Si Si6 0.586080 0.070295 0.528834
Si Si7 0.632220 0.970067 0.432067
O O1 0.236418 0.167753 0.619472
O O2 0.299656 0.090966 0.798263
O O3 0.249510 0.067860 0.549988
O O4 0.033829 0.107022 0.554801
O O5 0.240985 0.867589 0.536955
O O6 0.069121 0.802231 0.477579
O O7 0.000000 0.862642 0.250000
O O8 0.500000 0.188877 0.250000
O O9 0.654335 0.205348 0.531931
O O10 0.529043 0.117041 0.413815
O O11 0.102221 0.744893 0.693670
O O12 0.879588 0.739775 0.399194
O O13 0.250000 0.250000 0.500000
O O14 0.445076 0.052717 0.505946
O O15 0.664935 0.027215 0.502328
O O16 0.500000 0.975376 0.250000
#
# Coordination Sequence:
#
# PCOD9266302 Si02
#       7
#     8   8   8   8   8   8   8
#     4  10  21  40  63  89 128 174 210 265 333 389
#     4  11  21  40  61  87 131 176 211 256 327 392
#     4  12  22  35  62  92 124 163 221 272 312 371
#     4  11  22  38  56  93 124 172 213 261 313 386
#     4  11  23  37  61  92 133 171 212 256 327 394
#     4  10  19  37  62  94 122 161 213 266 325 382
#     4   9  20  36  63  93 126 159 213 273 326 387
#
# _framework density 20.526893000000001
#
# number of rings (size 3 to 8) (size 9 to 14) (size 15 to 20)
#    0.000    1.429    2.857    3.429    2.000    1.143 
#    0.000    0.714    0.000    0.000    0.000    0.000 
#    0.000    0.000    0.000    0.000    0.000    0.000 
#
# Total GULP energy -155892.652789 kJ/mol
# GULP energy per Si atom -5567.594742 kJ/mol
# Density = 2.048017 g / cm^3
# Si number density = 20.526893 Si / 1000 Ang^3
#
#
#
# Elastic Constant Matrix: (Units=GPa)
#
#
# Indices 1 2 3 4 5 6 
#
# 1 105.1407 59.8080 27.8065 0.0000 -9.8473 0.0000
# 2 59.8080 79.9636 12.2440 0.0000 -7.8755 0.0000
# 3 27.8065 12.2440 60.2512 0.0000 1.8690 0.0000
# 4 0.0000 0.0000 0.0000 27.6966 0.0000 -8.4761
# 5 -9.8473 -7.8755 1.8690 0.0000 26.4825 0.0000
# 6 0.0000 0.0000 0.0000 -8.4761 0.0000 40.6079
#
#
#
# Elastic Compliance Matrix: (Units=1/GPa)
#
#
# Indices 1 2 3 4 5 6 
#
# 1 0.018693 -0.012682 -0.006162 0.000000 0.003614 0.000000
# 2 -0.012682 0.021955 0.001338 0.000000 0.001719 0.000000
# 3 -0.006162 0.001338 0.019270 0.000000 -0.003253 0.000000
# 4 0.000000 0.000000 0.000000 0.038569 0.000000 0.008051
# 5 0.003614 0.001719 -0.003253 0.000000 0.039846 0.000000
# 6 0.000000 0.000000 0.000000 0.008051 0.000000 0.026306
#
#
# Mechanical properties :
#
#
# Convention : Reuss Voigt Hill
#
# Bulk Modulus (GPa) = 40.15026 49.45249 44.80137
# Shear Modulus (GPa) = 24.04377 28.65722 26.35050
#
# Velocity S-wave (km/s) = 3.42618 3.74047 3.58677
# Velocity P-wave (km/s) = 5.93750 6.54207 6.24710
#
# Compressibility (1/GPa) = 0.02490644
#
# Stress axis : x y z
#
# Youngs Moduli (GPa) = 53.49541 45.54677 51.89394
#
# Poissons Ratio (x) = 0.57762 0.31977
# Poissons Ratio (y) = 0.67842 -0.06942
# Poissons Ratio (z) = 0.32964 -0.06093
#
# Static dielectric constant tensor:
#      x y z
#    x 1.973100 0.000000 -0.071660 
#    y 0.000000 1.736290 0.000000 
#    z -0.071660 0.000000 1.823090 
# 
# From -- ./inp_files/92088.got.cif
#   From: 2010.05.17/outbox.cif.g08.bks.cpg/sg15_47_cif.got.tgz:92088.got - 2010.06.03 18:47:42.
