data_PCOD9266398
_publ_section_title
;
Structure prediction by ZEFSAII (Michael W. Deem and Ramdas Pophale) SiO2 
 PCOD9266398
Probable space group: C 2/C
;
_chemical_formula_sum "Si O2"
_cell_formula_units_Z 56
_cell_length_a 15.027438
_cell_length_b 13.432882
_cell_length_c 14.005201
_cell_angle_alpha 90.000000
_cell_angle_beta 122.190862
_cell_angle_gamma 90.000000
_cell_volume 2392.525719
_symmetry_space_group_name_H-M "C 2/C"
_symmetry_group_IT_number 15
_symmetry_cell_setting 'monoclinic'
loop_
_space_group_symop_operation_xyz
x,y,z
-x,y,1/2-z
-x,-y,-z
x,-y,1/2+z
1/2+x,1/2+y,z
1/2-x,1/2+y,1/2-z
1/2-x,1/2-y,-z
1/2+x,1/2-y,1/2+z
loop_
_atom_site_type_symbol
_atom_site_label
_atom_site_fract_x
_atom_site_fract_y
_atom_site_fract_z
Si Si1 0.293876 0.735689 0.843371
Si Si2 0.735771 0.542850 0.357820
Si Si3 0.754234 0.467075 0.087247
Si Si4 0.596462 0.777094 0.099377
Si Si5 0.415153 0.557047 0.387434
Si Si6 0.572853 0.973321 0.167385
Si Si7 0.995326 0.309453 0.636389
O O1 0.251386 0.837310 0.865980
O O2 0.295488 0.640077 0.912712
O O3 0.209825 0.711905 0.712348
O O4 0.404500 0.760315 0.858507
O O5 0.741932 0.510544 0.469973
O O6 0.627671 0.517439 0.238976
O O7 0.832822 0.498976 0.353099
O O8 0.691693 0.550820 0.110892
O O9 0.871002 0.460939 0.197882
O O10 0.552297 0.670878 0.106304
O O11 0.528751 0.869278 0.102911
O O12 0.599401 0.778419 0.986606
O O13 0.500000 0.500000 0.500000
O O14 0.503614 0.071289 0.131243
O O15 0.000000 0.283443 0.750000
#
# Coordination Sequence:
#
# PCOD9266398 Si02
#       7
#     8   8   8   8   8   8   8
#     4   9  20  40  62  92 125 157 209 257 305 374
#     4   9  19  36  63  88 116 164 204 258 312 361
#     4  10  19  37  64  87 118 164 204 253 314 366
#     4  10  21  41  61  83 124 165 198 260 306 357
#     4  10  21  38  56  86 125 159 212 254 300 370
#     4   9  21  39  60  88 122 151 205 258 307 372
#     4  11  23  39  62  93 126 163 203 253 314 372
#
# _framework density 23.406226
#
# number of rings (size 3 to 8) (size 9 to 14) (size 15 to 20)
#    0.000    2.286    0.000    2.571    2.000    1.143 
#   10.286    0.000    6.286    0.000    0.000    0.000 
#    0.000    0.000    0.000    0.000    0.000    0.000 
#
# Total GULP energy -156502.932783 kJ/mol
# GULP energy per Si atom -5589.390457 kJ/mol
# Density = 2.335295 g / cm^3
# Si number density = 23.406226 Si / 1000 Ang^3
#
#
#
# Elastic Constant Matrix: (Units=GPa)
#
#
# Indices 1 2 3 4 5 6 
#
# 1 29.1304 -1.6512 22.0133 0.0000 -1.2370 0.0000
# 2 -1.6512 64.9103 -7.4429 0.0000 6.6593 0.0000
# 3 22.0133 -7.4429 189.6160 0.0000 -11.0133 0.0000
# 4 0.0000 0.0000 0.0000 35.2078 0.0000 2.7219
# 5 -1.2370 6.6593 -11.0133 0.0000 27.4318 0.0000
# 6 0.0000 0.0000 0.0000 2.7219 0.0000 19.9531
#
#
#
# Elastic Compliance Matrix: (Units=1/GPa)
#
#
# Indices 1 2 3 4 5 6 
#
# 1 0.037644 0.000475 -0.004361 0.000000 -0.000169 0.000000
# 2 0.000475 0.015836 0.000353 0.000000 -0.003681 0.000000
# 3 -0.004361 0.000353 0.005916 0.000000 0.002093 0.000000
# 4 0.000000 0.000000 0.000000 0.028706 0.000000 -0.003916
# 5 -0.000169 -0.003681 0.002093 0.000000 0.038180 0.000000
# 6 0.000000 0.000000 0.000000 -0.003916 0.000000 0.050652
#
#
# Mechanical properties :
#
#
# Convention : Reuss Voigt Hill
#
# Bulk Modulus (GPa) = 19.11031 34.38832 26.74932
# Shear Modulus (GPa) = 24.82084 34.56771 29.69427
#
# Velocity S-wave (km/s) = 3.25997 3.84716 3.56567
# Velocity P-wave (km/s) = 4.72781 5.87010 5.32965
#
# Compressibility (1/GPa) = 0.05232777
#
# Stress axis : x y z
#
# Youngs Moduli (GPa) = 26.56466 63.14703 169.04625
#
# Poissons Ratio (x) = -0.02998 0.73728
# Poissons Ratio (y) = -0.01261 -0.05962
# Poissons Ratio (z) = 0.11586 -0.02227
#
# Static dielectric constant tensor:
#      x y z
#    x 1.895410 0.000000 0.032320 
#    y 0.000000 1.913950 0.000000 
#    z 0.032320 0.000000 1.909870 
# 
# From -- ./inp_files/105801.got.cif
#   From: 2010.05.17/outbox.cif.g08.bks.cpg/sg15_53_cif.got.tgz:105801.got - 2010.06.03 18:47:42.
