data_PCOD9266430
_publ_section_title
;
Structure prediction by ZEFSAII (Michael W. Deem and Ramdas Pophale) SiO2 
 PCOD9266430
Probable space group: C 2/C
;
_chemical_formula_sum "Si O2"
_cell_formula_units_Z 44
_cell_length_a 13.058999
_cell_length_b 24.669780
_cell_length_c 8.665605
_cell_angle_alpha 90.000000
_cell_angle_beta 43.098983
_cell_angle_gamma 90.000000
_cell_volume 1907.482523
_symmetry_space_group_name_H-M "C 2/C"
_symmetry_group_IT_number 15
_symmetry_cell_setting 'monoclinic'
loop_
_space_group_symop_operation_xyz
x,y,z
-x,y,1/2-z
-x,-y,-z
x,-y,1/2+z
1/2+x,1/2+y,z
1/2-x,1/2+y,1/2-z
1/2-x,1/2-y,-z
1/2+x,1/2-y,1/2+z
loop_
_atom_site_type_symbol
_atom_site_label
_atom_site_fract_x
_atom_site_fract_y
_atom_site_fract_z
Si Si1 0.633994 0.538936 0.284456
Si Si2 0.785309 0.543336 0.789578
Si Si3 0.500000 0.889964 0.250000
Si Si4 0.433536 0.614380 0.657295
Si Si5 0.486630 0.267762 0.434206
Si Si6 0.192272 0.291653 0.931530
O O1 0.500000 0.500000 0.500000
O O2 0.776372 0.515761 0.221365
O O3 0.566693 0.597319 0.395309
O O4 0.678499 0.537418 0.057916
O O5 0.933760 0.571374 0.689968
O O6 0.711999 0.583196 0.742335
O O7 0.362023 0.850019 0.447224
O O8 0.500000 0.597414 0.750000
O O9 0.410743 0.678305 0.683774
O O10 0.500000 0.242295 0.250000
O O11 0.322156 0.288931 0.659403
O O12 0.546202 0.230947 0.505269
O O13 0.250000 0.250000 0.000000
#
# Coordination Sequence:
#
# PCOD9266430 Si02
#       6
#     8   8   4   8   8   8
#     4  10  19  37  64  93 124 170 221 281 333 404
#     4  11  23  39  64  95 136 174 229 277 345 413
#     4  12  26  42  68 100 140 184 232 284 354 412
#     4  10  20  37  64  96 129 172 226 280 337 406
#     4  11  24  41  68 100 136 175 229 293 352 407
#     4  12  23  44  68  97 134 184 234 284 346 421
#
# _framework density 23.067053999999999
#
# number of rings (size 3 to 8) (size 9 to 14) (size 15 to 20)
#    0.000    1.091    1.818    7.091    0.000    2.182 
#    0.000    0.000    0.000    0.000    0.000    0.000 
#    0.000    0.000    0.000    0.000    0.000    0.000 
#
# Total GULP energy -122785.502786 kJ/mol
# GULP energy per Si atom -5581.159218 kJ/mol
# Density = 2.301455 g / cm^3
# Si number density = 23.067054 Si / 1000 Ang^3
#
#
#
# Elastic Constant Matrix: (Units=GPa)
#
#
# Indices 1 2 3 4 5 6 
#
# 1 130.1933 31.5502 11.9508 0.0000 8.2467 0.0000
# 2 31.5502 34.3274 -12.5323 0.0000 -8.4160 0.0000
# 3 11.9508 -12.5323 96.5472 0.0000 -1.0442 0.0000
# 4 0.0000 0.0000 0.0000 23.4157 0.0000 -12.4225
# 5 8.2467 -8.4160 -1.0442 0.0000 43.1691 0.0000
# 6 0.0000 0.0000 0.0000 -12.4225 0.0000 42.9786
#
#
#
# Elastic Compliance Matrix: (Units=1/GPa)
#
#
# Indices 1 2 3 4 5 6 
#
# 1 0.011348 -0.012723 -0.003107 0.000000 -0.004723 0.000000
# 2 -0.012723 0.046515 0.007739 0.000000 0.011686 0.000000
# 3 -0.003107 0.007739 0.011773 0.000000 0.002387 0.000000
# 4 0.000000 0.000000 0.000000 0.050441 0.000000 0.014579
# 5 -0.004723 0.011686 0.002387 0.000000 0.026403 0.000000
# 6 0.000000 0.000000 0.000000 0.014579 0.000000 0.027481
#
#
# Mechanical properties :
#
#
# Convention : Reuss Voigt Hill
#
# Bulk Modulus (GPa) = 18.70754 35.88947 27.29850
# Shear Modulus (GPa) = 24.04288 37.25265 30.64776
#
# Velocity S-wave (km/s) = 3.23198 4.02303 3.64900
# Velocity P-wave (km/s) = 4.69630 6.09690 5.44185
#
# Compressibility (1/GPa) = 0.05345439
#
# Stress axis : x y z
#
# Youngs Moduli (GPa) = 88.11769 21.49837 84.94263
#
# Poissons Ratio (x) = 0.27352 0.26394
# Poissons Ratio (y) = 1.12110 -0.65738
# Poissons Ratio (z) = 0.27381 -0.16638
#
# Static dielectric constant tensor:
#      x y z
#    x 1.940470 0.000000 -0.059860 
#    y 0.000000 1.918820 0.000000 
#    z -0.059860 0.000000 1.900680 
# 
# From -- ./inp_files/33990.got.cif
#   From: 2010.05.17/outbox.cif.g08.bks.cpg/sg15_17_cif.got.tgz:33990.got - 2010.06.03 18:47:42.
