data_PCOD9266294
_publ_section_title
;
Structure prediction by ZEFSAII (Michael W. Deem and Ramdas Pophale) SiO2 
 PCOD9266294
Probable space group: C 2/C
;
_chemical_formula_sum "Si O2"
_cell_formula_units_Z 28
_cell_length_a 11.945822
_cell_length_b 15.241130
_cell_length_c 8.334502
_cell_angle_alpha 90.000000
_cell_angle_beta 133.889710
_cell_angle_gamma 90.000000
_cell_volume 1093.585388
_symmetry_space_group_name_H-M "C 2/C"
_symmetry_group_IT_number 15
_symmetry_cell_setting 'monoclinic'
loop_
_space_group_symop_operation_xyz
x,y,z
-x,y,1/2-z
-x,-y,-z
x,-y,1/2+z
1/2+x,1/2+y,z
1/2-x,1/2+y,1/2-z
1/2-x,1/2-y,-z
1/2+x,1/2-y,1/2+z
loop_
_atom_site_type_symbol
_atom_site_label
_atom_site_fract_x
_atom_site_fract_y
_atom_site_fract_z
Si Si1 0.104444 0.210742 0.695153
Si Si2 0.000000 0.728905 0.750000
Si Si3 0.173868 0.592915 0.759177
Si Si4 0.874272 0.406707 0.764812
O O1 0.227333 0.134136 0.786477
O O2 0.184102 0.307057 0.791459
O O3 0.000000 0.198319 0.750000
O O4 0.017108 0.218225 0.434701
O O5 0.155344 0.668645 0.873360
O O6 0.228780 0.494083 0.848024
O O7 0.991616 0.585010 0.532427
O O8 0.000000 0.412539 0.750000
#
# Coordination Sequence:
#
# PCOD9266294 Si02
#       4
#     8   4   8   8
#     4  10  22  38  64  93 125 160 203 254 310 359
#     4  10  20  36  64  92 118 166 204 252 304 356
#     4  10  19  37  62  92 124 155 213 253 295 368
#     4   9  19  35  62  91 114 164 207 250 300 357
#
# _framework density 25.603853999999998
#
# number of rings (size 3 to 8) (size 9 to 14) (size 15 to 20)
#    0.000    2.286    1.429    0.857    0.000   10.286 
#    0.000    0.000    3.143    8.571    3.714    0.000 
#    0.000    0.000    0.000    0.000    0.000    0.000 
#
# Total GULP energy -78059.520982 kJ/mol
# GULP energy per Si atom -5575.680070 kJ/mol
# Density = 2.554558 g / cm^3
# Si number density = 25.603854 Si / 1000 Ang^3
#
#
#
# Elastic Constant Matrix: (Units=GPa)
#
#
# Indices 1 2 3 4 5 6 
#
# 1 151.9724 64.7303 42.2402 0.0000 -29.6594 0.0000
# 2 64.7303 180.0185 15.4037 0.0000 9.1476 0.0000
# 3 42.2402 15.4037 87.6998 0.0000 -24.2744 0.0000
# 4 0.0000 0.0000 0.0000 26.7326 0.0000 -6.1071
# 5 -29.6594 9.1476 -24.2744 0.0000 35.5905 0.0000
# 6 0.0000 0.0000 0.0000 -6.1071 0.0000 50.0101
#
#
#
# Elastic Compliance Matrix: (Units=1/GPa)
#
#
# Indices 1 2 3 4 5 6 
#
# 1 0.010499 -0.004029 -0.002023 0.000000 0.008405 0.000000
# 2 -0.004029 0.007391 -0.001002 0.000000 -0.005941 0.000000
# 3 -0.002023 -0.001002 0.014987 0.000000 0.008794 0.000000
# 4 0.000000 0.000000 0.000000 0.038481 0.000000 0.004699
# 5 0.008405 -0.005941 0.008794 0.000000 0.042627 0.000000
# 6 0.000000 0.000000 0.000000 0.004699 0.000000 0.020570
#
#
# Mechanical properties :
#
#
# Convention : Reuss Voigt Hill
#
# Bulk Modulus (GPa) = 53.27772 73.82657 63.55215
# Shear Modulus (GPa) = 32.27503 42.28771 37.28137
#
# Velocity S-wave (km/s) = 3.55428 4.06842 3.82001
# Velocity P-wave (km/s) = 6.13983 7.13905 6.65821
#
# Compressibility (1/GPa) = 0.01876957
#
# Stress axis : x y z
#
# Youngs Moduli (GPa) = 95.24808 135.29221 66.72601
#
# Poissons Ratio (x) = 0.54512 0.13496
# Poissons Ratio (y) = 0.38377 0.06686
# Poissons Ratio (z) = 0.19264 0.13556
#
# Static dielectric constant tensor:
#      x y z
#    x 1.996860 0.000000 -0.025920 
#    y 0.000000 2.167200 0.000000 
#    z -0.025920 0.000000 2.273340 
# 
# From -- ./inp_files/27744.got.cif
#   From: 2010.05.17/outbox.cif.g08.bks.cpg/sg15_14_cif.got.tgz:27744.got - 2010.06.03 18:47:42.
