data_PCOD9266368
_publ_section_title
;
Structure prediction by ZEFSAII (Michael W. Deem and Ramdas Pophale) SiO2 
 PCOD9266368
Probable space group: C 2/C
;
_chemical_formula_sum "Si O2"
_cell_formula_units_Z 48
_cell_length_a 17.403852
_cell_length_b 6.639991
_cell_length_c 17.604248
_cell_angle_alpha 90.000000
_cell_angle_beta 78.153537
_cell_angle_gamma 90.000000
_cell_volume 1991.042298
_symmetry_space_group_name_H-M "C 2/C"
_symmetry_group_IT_number 15
_symmetry_cell_setting 'monoclinic'
loop_
_space_group_symop_operation_xyz
x,y,z
-x,y,1/2-z
-x,-y,-z
x,-y,1/2+z
1/2+x,1/2+y,z
1/2-x,1/2+y,1/2-z
1/2-x,1/2-y,-z
1/2+x,1/2-y,1/2+z
loop_
_atom_site_type_symbol
_atom_site_label
_atom_site_fract_x
_atom_site_fract_y
_atom_site_fract_z
Si Si1 0.063707 0.471046 0.419309
Si Si2 0.296778 0.302029 0.630279
Si Si3 0.158112 0.052233 0.605710
Si Si4 0.158556 0.279406 0.001262
Si Si5 0.921973 0.554307 0.354179
Si Si6 0.797018 0.670313 0.801483
O O1 0.114786 0.266630 0.406447
O O2 0.127963 0.641530 0.427056
O O3 0.000000 0.500000 0.500000
O O4 0.010691 0.499725 0.355789
O O5 0.270074 0.533369 0.644854
O O6 0.278795 0.214858 0.718192
O O7 0.236888 0.187740 0.585784
O O8 0.128385 0.936677 0.536698
O O9 0.180582 0.876336 0.660199
O O10 0.091837 0.208135 0.643957
O O11 0.127382 0.449508 0.066561
O O12 0.250000 0.250000 0.000000
O O13 0.876062 0.462408 0.292566
#
# Coordination Sequence:
#
# PCOD9266368 Si02
#       6
#     8   8   8   8   8   8
#     4  10  22  42  62  95 133 174 208 265 336 396
#     4  11  20  38  68  93 127 161 223 282 324 391
#     4  10  20  39  60  97 125 166 219 271 325 389
#     4  10  19  37  63  92 124 171 224 261 316 389
#     4   9  22  39  61  90 138 167 208 271 333 398
#     4  10  21  38  67  96 121 166 224 278 330 384
#
# _framework density 24.107977000000002
#
# number of rings (size 3 to 8) (size 9 to 14) (size 15 to 20)
#    0.000    2.000    3.333    0.000    0.000    2.000 
#    9.000    5.000    0.000    6.000    0.000    0.000 
#    0.000    0.000    0.000    0.000    0.000    0.000 
#
# Total GULP energy -133933.921826 kJ/mol
# GULP energy per Si atom -5580.580076 kJ/mol
# Density = 2.405311 g / cm^3
# Si number density = 24.107977 Si / 1000 Ang^3
#
#
#
# Elastic Constant Matrix: (Units=GPa)
#
#
# Indices 1 2 3 4 5 6 
#
# 1 144.2736 55.1992 29.8685 0.0000 5.0466 0.0000
# 2 55.1992 152.0426 39.5085 0.0000 1.1117 0.0000
# 3 29.8685 39.5085 52.9427 0.0000 -7.0803 0.0000
# 4 0.0000 0.0000 0.0000 34.7319 0.0000 4.9349
# 5 5.0466 1.1117 -7.0803 0.0000 42.6035 0.0000
# 6 0.0000 0.0000 0.0000 4.9349 0.0000 40.2248
#
#
#
# Elastic Compliance Matrix: (Units=1/GPa)
#
#
# Indices 1 2 3 4 5 6 
#
# 1 0.008526 -0.002211 -0.003363 0.000000 -0.001511 0.000000
# 2 -0.002211 0.008798 -0.005435 0.000000 -0.000871 0.000000
# 3 -0.003363 -0.005435 0.025480 0.000000 0.004775 0.000000
# 4 0.000000 0.000000 0.000000 0.029303 0.000000 -0.003595
# 5 -0.001511 -0.000871 0.004775 0.000000 0.024467 0.000000
# 6 0.000000 0.000000 0.000000 -0.003595 0.000000 0.025301
#
#
# Mechanical properties :
#
#
# Convention : Reuss Voigt Hill
#
# Bulk Modulus (GPa) = 48.10522 66.49015 57.29769
# Shear Modulus (GPa) = 33.15178 38.49089 35.82133
#
# Velocity S-wave (km/s) = 3.71231 4.00009 3.85888
# Velocity P-wave (km/s) = 6.19454 6.99816 6.60858
#
# Compressibility (1/GPa) = 0.02078777
#
# Stress axis : x y z
#
# Youngs Moduli (GPa) = 117.28778 113.65777 39.24672
#
# Poissons Ratio (x) = 0.25125 0.13197
# Poissons Ratio (y) = 0.25927 0.21331
# Poissons Ratio (z) = 0.39439 0.61774
#
# Static dielectric constant tensor:
#      x y z
#    x 1.947480 0.000000 -0.022250 
#    y 0.000000 1.943910 0.000000 
#    z -0.022250 0.000000 2.101510 
# 
# From -- ./inp_files/275624.got.cif
#   From: 2010.05.17/outbox.cif.g08.bks.cpg/sg15_138_cif.got.tgz:275624.got - 2010.06.03 18:47:42.
