data_PCOD9266048
_publ_section_title
;
Structure prediction by ZEFSAII (Michael W. Deem and Ramdas Pophale) SiO2 
 PCOD9266048
Probable space group: C 2/C
;
_chemical_formula_sum "Si O2"
_cell_formula_units_Z 48
_cell_length_a 13.299339
_cell_length_b 13.364628
_cell_length_c 15.691303
_cell_angle_alpha 90.000000
_cell_angle_beta 109.326913
_cell_angle_gamma 90.000000
_cell_volume 2631.811972
_symmetry_space_group_name_H-M "C 2/C"
_symmetry_group_IT_number 15
_symmetry_cell_setting 'monoclinic'
loop_
_space_group_symop_operation_xyz
x,y,z
-x,y,1/2-z
-x,-y,-z
x,-y,1/2+z
1/2+x,1/2+y,z
1/2-x,1/2+y,1/2-z
1/2-x,1/2-y,-z
1/2+x,1/2-y,1/2+z
loop_
_atom_site_type_symbol
_atom_site_label
_atom_site_fract_x
_atom_site_fract_y
_atom_site_fract_z
Si Si1 0.873034 0.225791 0.725523
Si Si2 0.658403 0.667061 0.960932
Si Si3 0.125742 0.457702 0.762697
Si Si4 0.910682 0.791035 0.424352
Si Si5 0.109102 0.444714 0.558461
Si Si6 0.229904 0.034908 0.551160
O O1 0.833404 0.154248 0.639429
O O2 0.840132 0.342276 0.707814
O O3 0.855051 0.193157 0.816651
O O4 0.000000 0.228939 0.750000
O O5 0.537713 0.699861 0.947210
O O6 0.750000 0.750000 0.000000
O O7 0.671258 0.570347 0.022632
O O8 0.135919 0.473677 0.663908
O O9 0.194847 0.527053 0.844346
O O10 0.000000 0.466753 0.750000
O O11 0.898368 0.675660 0.445401
O O12 0.852388 0.872637 0.467007
O O13 0.196489 0.466072 0.511799
O O14 0.000000 0.500000 0.500000
#
# Coordination Sequence:
#
# PCOD9266048 Si02
#       6
#     8   8   8   8   8   8
#     4   8  17  35  58  81 114 153 207 258 288 357
#     4  11  20  37  62  91 114 162 214 251 301 372
#     4  10  19  37  59  90 117 154 214 258 293 363
#     4  10  23  40  57  87 131 157 199 259 319 362
#     4  11  22  40  63  87 119 166 210 251 304 381
#     4  12  23  36  62  91 126 159 197 262 325 364
#
# _framework density 18.238385999999998
#
# number of rings (size 3 to 8) (size 9 to 14) (size 15 to 20)
#    0.000    1.667    3.333    3.000    2.333    0.000 
#    0.000    0.000    0.000    0.000    0.000    0.000 
#    0.000    0.000    0.000    0.000    0.000    0.000 
#
# Total GULP energy -133642.755711 kJ/mol
# GULP energy per Si atom -5568.448155 kJ/mol
# Density = 1.819687 g / cm^3
# Si number density = 18.238386 Si / 1000 Ang^3
#
#
#
# Elastic Constant Matrix: (Units=GPa)
#
#
# Indices 1 2 3 4 5 6 
#
# 1 67.2671 18.5060 18.1845 0.0000 -0.2111 0.0000
# 2 18.5060 45.6659 22.8774 0.0000 8.0037 0.0000
# 3 18.1845 22.8774 93.0094 0.0000 2.8932 0.0000
# 4 0.0000 0.0000 0.0000 28.7471 0.0000 -1.5349
# 5 -0.2111 8.0037 2.8932 0.0000 24.2785 0.0000
# 6 0.0000 0.0000 0.0000 -1.5349 0.0000 36.9366
#
#
#
# Elastic Compliance Matrix: (Units=1/GPa)
#
#
# Indices 1 2 3 4 5 6 
#
# 1 0.017150 -0.006466 -0.001840 0.000000 0.002500 0.000000
# 2 -0.006466 0.028865 -0.005558 0.000000 -0.008910 0.000000
# 3 -0.001840 -0.005558 0.012468 0.000000 0.000331 0.000000
# 4 0.000000 0.000000 0.000000 0.034863 0.000000 0.001449
# 5 0.002500 -0.008910 0.000331 0.000000 0.044108 0.000000
# 6 0.000000 0.000000 0.000000 0.001449 0.000000 0.027134
#
#
# Mechanical properties :
#
#
# Convention : Reuss Voigt Hill
#
# Bulk Modulus (GPa) = 32.51693 36.11980 34.31837
# Shear Modulus (GPa) = 24.68277 27.75074 26.21676
#
# Velocity S-wave (km/s) = 3.68277 3.90495 3.79548
# Velocity P-wave (km/s) = 5.99594 6.33867 6.16968
#
# Compressibility (1/GPa) = 0.03075321
#
# Stress axis : x y z
#
# Youngs Moduli (GPa) = 58.30745 34.64420 80.20315
#
# Poissons Ratio (x) = 0.22402 0.14760
# Poissons Ratio (y) = 0.37704 0.44580
# Poissons Ratio (z) = 0.10731 0.19257
#
# Static dielectric constant tensor:
#      x y z
#    x 1.641040 0.000000 0.014920 
#    y 0.000000 1.663660 0.000000 
#    z 0.014920 0.000000 1.688660 
# 
# From -- ./inp_files/151921.got.cif
#   From: 2010.05.17/outbox.cif.g08.bks.cpg/sg15_76_cif.got.tgz:151921.got - 2010.06.03 18:47:42.
