data_PCOD9266316
_publ_section_title
;
Structure prediction by ZEFSAII (Michael W. Deem and Ramdas Pophale) SiO2 
 PCOD9266316
Probable space group: C 2/C
;
_chemical_formula_sum "Si O2"
_cell_formula_units_Z 64
_cell_length_a 28.836887
_cell_length_b 12.114369
_cell_length_c 14.267981
_cell_angle_alpha 90.000000
_cell_angle_beta 138.536867
_cell_angle_gamma 90.000000
_cell_volume 3300.351569
_symmetry_space_group_name_H-M "C 2/C"
_symmetry_group_IT_number 15
_symmetry_cell_setting 'monoclinic'
loop_
_space_group_symop_operation_xyz
x,y,z
-x,y,1/2-z
-x,-y,-z
x,-y,1/2+z
1/2+x,1/2+y,z
1/2-x,1/2+y,1/2-z
1/2-x,1/2-y,-z
1/2+x,1/2-y,1/2+z
loop_
_atom_site_type_symbol
_atom_site_label
_atom_site_fract_x
_atom_site_fract_y
_atom_site_fract_z
Si Si1 0.133597 0.161292 0.290275
Si Si2 0.358563 0.904819 0.757520
Si Si3 0.203856 0.999448 0.038335
Si Si4 0.418690 0.893218 0.247264
Si Si5 0.479178 0.592512 0.118405
Si Si6 0.322891 0.685649 0.629299
Si Si7 0.078956 0.664599 0.958121
Si Si8 0.655321 0.509581 0.674390
O O1 0.178493 0.108415 0.443399
O O2 0.126887 0.292623 0.279830
O O3 0.052770 0.122333 0.182284
O O4 0.163840 0.104484 0.243205
O O5 0.371723 0.789872 0.723085
O O6 0.282046 0.960812 0.632418
O O7 0.407463 0.996704 0.787608
O O8 0.369774 0.871315 0.882171
O O9 0.194103 0.986383 0.133948
O O10 0.159424 0.102753 0.928416
O O11 0.400766 0.891125 0.109293
O O12 0.501305 0.870194 0.372043
O O13 0.500000 0.541220 0.250000
O O14 0.433723 0.703780 0.073437
O O15 0.426738 0.523974 0.975254
O O16 0.250000 0.750000 0.500000
O O17 0.321826 0.607020 0.719538
#
# Coordination Sequence:
#
# PCOD9266316 Si02
#       8
#     8   8   8   8   8   8   8   8
#     4  10  21  37  58  91 120 148 195 249 298 349
#     4  11  22  38  60  83 116 163 195 231 299 351
#     4  10  22  39  58  87 117 157 195 243 295 360
#     4  10  21  39  59  88 118 144 199 254 285 351
#     4  11  17  35  65  85 115 152 200 241 297 363
#     4   9  21  39  58  81 115 157 198 233 282 363
#     4  10  19  37  63  83 109 159 198 235 297 354
#     4  11  20  37  62  86 121 153 194 249 301 350
#
# _framework density 19.391871999999999
#
# number of rings (size 3 to 8) (size 9 to 14) (size 15 to 20)
#    0.000    1.750    5.000    0.750    0.000    3.500 
#    6.750    0.000    0.000    0.000    0.000    0.000 
#    0.000    0.000    0.000    0.000    0.000    0.000 
#
# Total GULP energy -178353.360371 kJ/mol
# GULP energy per Si atom -5573.542512 kJ/mol
# Density = 1.934774 g / cm^3
# Si number density = 19.391872 Si / 1000 Ang^3
#
#
#
# Elastic Constant Matrix: (Units=GPa)
#
#
# Indices 1 2 3 4 5 6 
#
# 1 32.6675 8.8566 1.0739 0.0000 -14.6517 0.0000
# 2 8.8566 87.7616 14.6509 0.0000 -12.7761 0.0000
# 3 1.0739 14.6509 68.4203 0.0000 -15.4771 0.0000
# 4 0.0000 0.0000 0.0000 17.9678 0.0000 0.4201
# 5 -14.6517 -12.7761 -15.4771 0.0000 21.8644 0.0000
# 6 0.0000 0.0000 0.0000 0.4201 0.0000 19.3566
#
#
#
# Elastic Compliance Matrix: (Units=1/GPa)
#
#
# Indices 1 2 3 4 5 6 
#
# 1 0.046890 -0.000707 0.007656 0.000000 0.036427 0.000000
# 2 -0.000707 0.012550 -0.001339 0.000000 0.005912 0.000000
# 3 0.007656 -0.001339 0.018771 0.000000 0.017635 0.000000
# 4 0.000000 0.000000 0.000000 0.055683 0.000000 -0.001208
# 5 0.036427 0.005912 0.017635 0.000000 0.086085 0.000000
# 6 0.000000 0.000000 0.000000 -0.001208 0.000000 0.051688
#
#
# Mechanical properties :
#
#
# Convention : Reuss Voigt Hill
#
# Bulk Modulus (GPa) = 11.18191 26.44579 18.81385
# Shear Modulus (GPa) = 17.22606 22.78897 20.00752
#
# Velocity S-wave (km/s) = 2.98369 3.43181 3.21557
# Velocity P-wave (km/s) = 4.20104 5.41944 4.84866
#
# Compressibility (1/GPa) = 0.08943017
#
# Stress axis : x y z
#
# Youngs Moduli (GPa) = 21.32673 79.68120 53.27287
#
# Poissons Ratio (x) = 0.05633 -0.40783
# Poissons Ratio (y) = 0.01508 0.07133
# Poissons Ratio (z) = -0.16327 0.10669
#
# Static dielectric constant tensor:
#      x y z
#    x 1.658450 0.000000 -0.002010 
#    y 0.000000 1.695310 0.000000 
#    z -0.002010 0.000000 1.734620 
# 
# From -- ./inp_files/181790.got.cif
#   From: 2010.05.17/outbox.cif.g08.bks.cpg/sg15_91_cif.got.tgz:181790.got - 2010.06.03 18:47:42.
