data_PCOD9266799
_publ_section_title
;
Structure prediction by ZEFSAII (Michael W. Deem and Ramdas Pophale) SiO2 
 PCOD9266799
Probable space group: C 2/C
;
_chemical_formula_sum "Si O2"
_cell_formula_units_Z 56
_cell_length_a 7.270582
_cell_length_b 12.604409
_cell_length_c 24.276232
_cell_angle_alpha 90.000000
_cell_angle_beta 94.589171
_cell_angle_gamma 90.000000
_cell_volume 2217.575253
_symmetry_space_group_name_H-M "C 2/C"
_symmetry_group_IT_number 15
_symmetry_cell_setting 'monoclinic'
loop_
_space_group_symop_operation_xyz
x,y,z
-x,y,1/2-z
-x,-y,-z
x,-y,1/2+z
1/2+x,1/2+y,z
1/2-x,1/2+y,1/2-z
1/2-x,1/2-y,-z
1/2+x,1/2-y,1/2+z
loop_
_atom_site_type_symbol
_atom_site_label
_atom_site_fract_x
_atom_site_fract_y
_atom_site_fract_z
Si Si1 0.918047 0.258837 0.660868
Si Si2 0.234974 0.952090 0.290144
Si Si3 0.195004 0.548821 0.023911
Si Si4 0.771265 0.144025 0.141819
Si Si5 0.292397 0.333583 0.048928
Si Si6 0.168171 0.503402 0.326411
Si Si7 0.882704 0.346217 0.082128
O O1 0.834631 0.162812 0.693313
O O2 0.922139 0.217587 0.597819
O O3 0.812136 0.370686 0.664027
O O4 0.126418 0.296069 0.678241
O O5 0.141031 0.047714 0.322426
O O6 0.452151 0.972768 0.309375
O O7 0.222243 0.966492 0.224624
O O8 0.178287 0.591323 0.085420
O O9 0.337130 0.450430 0.027475
O O10 0.221722 0.640050 0.978868
O O11 0.000000 0.500000 0.000000
O O12 0.881598 0.237404 0.115916
O O13 0.100576 0.356111 0.076141
O O14 0.250000 0.250000 0.000000
O O15 0.205838 0.437246 0.382034
#
# Coordination Sequence:
#
# PCOD9266799 Si02
#       7
#     8   8   8   8   8   8   8
#     4  11  20  41  65  88 119 169 213 252 308 380
#     4  10  21  42  64  90 121 169 217 252 315 387
#     4  10  19  38  61  86 122 166 207 245 304 389
#     4  11  23  40  62  94 131 160 202 268 319 372
#     4  11  20  37  64  92 119 165 218 246 302 386
#     4  10  22  40  66  89 123 168 213 259 315 379
#     4  11  22  40  60  93 134 159 202 268 324 363
#
# _framework density 25.252806
#
# number of rings (size 3 to 8) (size 9 to 14) (size 15 to 20)
#    0.000    1.429    2.857    5.571    2.000    0.000 
#    5.143    1.429    0.000    0.000    0.000    0.000 
#    0.000    0.000    0.000    0.000    0.000    0.000 
#
# Total GULP energy -156595.699778 kJ/mol
# GULP energy per Si atom -5592.703564 kJ/mol
# Density = 2.519533 g / cm^3
# Si number density = 25.252806 Si / 1000 Ang^3
#
#
#
# Elastic Constant Matrix: (Units=GPa)
#
#
# Indices 1 2 3 4 5 6 
#
# 1 44.8213 50.8422 27.2480 0.0000 3.6025 0.0000
# 2 50.8422 224.4662 80.2616 0.0000 -19.4335 0.0000
# 3 27.2480 80.2616 145.7378 0.0000 -19.5374 0.0000
# 4 0.0000 0.0000 0.0000 54.5305 0.0000 -13.3823
# 5 3.6025 -19.4335 -19.5374 0.0000 20.2227 0.0000
# 6 0.0000 0.0000 0.0000 -13.3823 0.0000 36.4731
#
#
#
# Elastic Compliance Matrix: (Units=1/GPa)
#
#
# Indices 1 2 3 4 5 6 
#
# 1 0.035828 -0.008023 -0.004790 0.000000 -0.018720 0.000000
# 2 -0.008023 0.007479 -0.001681 0.000000 0.006992 0.000000
# 3 -0.004790 -0.001681 0.009858 0.000000 0.008761 0.000000
# 4 0.000000 0.000000 0.000000 0.020153 0.000000 0.007394
# 5 -0.018720 0.006992 0.008761 0.000000 0.067967 0.000000
# 6 0.000000 0.000000 0.000000 0.007394 0.000000 0.030131
#
#
# Mechanical properties :
#
#
# Convention : Reuss Voigt Hill
#
# Bulk Modulus (GPa) = 41.36320 81.30322 61.33321
# Shear Modulus (GPa) = 23.98511 39.35682 31.67096
#
# Velocity S-wave (km/s) = 3.08523 3.95208 3.54525
# Velocity P-wave (km/s) = 5.39506 7.28635 6.41083
#
# Compressibility (1/GPa) = 0.02417608
#
# Stress axis : x y z
#
# Youngs Moduli (GPa) = 27.91100 133.71048 101.44448
#
# Poissons Ratio (x) = 1.07280 0.48588
# Poissons Ratio (y) = 0.22394 0.17057
# Poissons Ratio (z) = 0.13368 0.22482
#
# Static dielectric constant tensor:
#      x y z
#    x 2.110390 0.000000 -0.006940 
#    y 0.000000 2.077970 0.000000 
#    z -0.006940 0.000000 1.974910 
# 
# From -- ./inp_files/268429.got.cif
#   From: 2010.05.17/outbox.cif.g08.bks.cpg/sg15_135_cif.got.tgz:268429.got - 2010.06.03 18:47:42.
