data_PCOD9266669
_publ_section_title
;
Structure prediction by ZEFSAII (Michael W. Deem and Ramdas Pophale) SiO2 
 PCOD9266669
Probable space group: C 2/C
;
_chemical_formula_sum "Si O2"
_cell_formula_units_Z 52
_cell_length_a 10.553372
_cell_length_b 9.152841
_cell_length_c 24.965381
_cell_angle_alpha 90.000000
_cell_angle_beta 78.817265
_cell_angle_gamma 90.000000
_cell_volume 2365.704026
_symmetry_space_group_name_H-M "C 2/C"
_symmetry_group_IT_number 15
_symmetry_cell_setting 'monoclinic'
loop_
_space_group_symop_operation_xyz
x,y,z
-x,y,1/2-z
-x,-y,-z
x,-y,1/2+z
1/2+x,1/2+y,z
1/2-x,1/2+y,1/2-z
1/2-x,1/2-y,-z
1/2+x,1/2-y,1/2+z
loop_
_atom_site_type_symbol
_atom_site_label
_atom_site_fract_x
_atom_site_fract_y
_atom_site_fract_z
Si Si1 0.498142 0.358023 0.640403
Si Si2 0.000000 0.317032 0.250000
Si Si3 0.574836 0.363480 0.188088
Si Si4 0.397340 0.976980 0.837886
Si Si5 0.156666 0.606873 0.871215
Si Si6 0.259074 0.172465 0.924253
Si Si7 0.865692 0.570651 0.027741
O O1 0.476372 0.288445 0.701795
O O2 0.509297 0.529423 0.649805
O O3 0.384510 0.275376 0.618607
O O4 0.628637 0.288711 0.603681
O O5 0.896169 0.431672 0.282330
O O6 0.500000 0.374169 0.250000
O O7 0.588452 0.194153 0.171343
O O8 0.723721 0.416398 0.178094
O O9 0.528300 0.026957 0.859010
O O10 0.278526 0.042728 0.880912
O O11 0.193325 0.542373 0.925435
O O12 0.133262 0.273236 0.941273
O O13 0.289725 0.104193 0.979636
O O14 0.000000 0.500000 0.000000
#
# Coordination Sequence:
#
# PCOD9266669 Si02
#       7
#     8   4   8   8   8   8   8
#     4  10  19  38  58  91 121 160 213 257 312 376
#     4   8  16  36  60  80 122 154 202 258 300 364
#     4  12  24  41  61  90 130 164 203 268 315 377
#     4  10  21  42  59  92 126 163 212 257 313 382
#     4  10  23  40  63  90 122 165 210 258 311 387
#     4   9  20  34  65  90 122 168 204 263 315 372
#     4  11  17  36  68  92 120 170 213 253 329 376
#
# _framework density 21.980771000000001
#
# number of rings (size 3 to 8) (size 9 to 14) (size 15 to 20)
#    0.000    2.154    6.154    0.000    0.000    1.231 
#    2.769    0.769    0.000    2.769    0.000    0.000 
#    0.000    0.000    0.000    0.000    0.000    0.000 
#
# Total GULP energy -144803.045091 kJ/mol
# GULP energy per Si atom -5569.347888 kJ/mol
# Density = 2.193074 g / cm^3
# Si number density = 21.980771 Si / 1000 Ang^3
#
#
#
# Elastic Constant Matrix: (Units=GPa)
#
#
# Indices 1 2 3 4 5 6 
#
# 1 62.7784 37.2332 24.9536 0.0000 -19.6698 0.0000
# 2 37.2332 157.5981 55.0061 0.0000 -12.0961 0.0000
# 3 24.9536 55.0061 116.4483 0.0000 -19.0333 0.0000
# 4 0.0000 0.0000 0.0000 34.3495 0.0000 -2.1978
# 5 -19.6698 -12.0961 -19.0333 0.0000 15.4748 0.0000
# 6 0.0000 0.0000 0.0000 -2.1978 0.0000 39.4310
#
#
#
# Elastic Compliance Matrix: (Units=1/GPa)
#
#
# Indices 1 2 3 4 5 6 
#
# 1 0.029216 -0.004808 0.001835 0.000000 0.035635 0.000000
# 2 -0.004808 0.008434 -0.003599 0.000000 -0.003944 0.000000
# 3 0.001835 -0.003599 0.012285 0.000000 0.014630 0.000000
# 4 0.000000 0.000000 0.000000 0.029217 0.000000 0.001629
# 5 0.035635 -0.003944 0.014630 0.000000 0.124827 0.000000
# 6 0.000000 0.000000 0.000000 0.001629 0.000000 0.025452
#
#
# Mechanical properties :
#
#
# Convention : Reuss Voigt Hill
#
# Bulk Modulus (GPa) = 27.17899 63.46784 45.32341
# Shear Modulus (GPa) = 19.62024 32.49320 26.05672
#
# Velocity S-wave (km/s) = 2.99090 3.84898 3.44675
# Velocity P-wave (km/s) = 4.93143 6.97781 6.04189
#
# Compressibility (1/GPa) = 0.03679313
#
# Stress axis : x y z
#
# Youngs Moduli (GPa) = 34.22725 118.56259 81.39780
#
# Poissons Ratio (x) = 0.57002 -0.14935
# Poissons Ratio (y) = 0.16456 0.29291
# Poissons Ratio (z) = -0.06280 0.42665
#
# Static dielectric constant tensor:
#      x y z
#    x 1.871520 0.000000 -0.011680 
#    y 0.000000 1.864170 0.000000 
#    z -0.011680 0.000000 1.855320 
# 
# From -- ./inp_files/291111.got.cif
#   From: 2010.05.17/outbox.cif.g08.bks.cpg/sg15_146_cif.got.tgz:291111.got - 2010.06.03 18:47:42.
