data_PCOD9266147
_publ_section_title
;
Structure prediction by ZEFSAII (Michael W. Deem and Ramdas Pophale) SiO2 
 PCOD9266147
Probable space group: C 2/C
;
_chemical_formula_sum "Si O2"
_cell_formula_units_Z 48
_cell_length_a 11.688382
_cell_length_b 15.392373
_cell_length_c 19.724143
_cell_angle_alpha 90.000000
_cell_angle_beta 40.090713
_cell_angle_gamma 90.000000
_cell_volume 2285.302740
_symmetry_space_group_name_H-M "C 2/C"
_symmetry_group_IT_number 15
_symmetry_cell_setting 'monoclinic'
loop_
_space_group_symop_operation_xyz
x,y,z
-x,y,1/2-z
-x,-y,-z
x,-y,1/2+z
1/2+x,1/2+y,z
1/2-x,1/2+y,1/2-z
1/2-x,1/2-y,-z
1/2+x,1/2-y,1/2+z
loop_
_atom_site_type_symbol
_atom_site_label
_atom_site_fract_x
_atom_site_fract_y
_atom_site_fract_z
Si Si1 0.065571 0.985962 0.548537
Si Si2 0.117230 0.862166 0.757964
Si Si3 0.328035 0.028462 0.622163
Si Si4 0.345571 0.352862 0.399611
Si Si5 0.524682 0.017864 0.663981
Si Si6 0.483931 0.180138 0.145543
O O1 0.274753 0.967204 0.449462
O O2 0.975986 0.908608 0.633946
O O3 0.060476 0.077076 0.592776
O O4 0.000000 0.000000 0.500000
O O5 0.286538 0.806708 0.705722
O O6 0.000000 0.821651 0.750000
O O7 0.209711 0.943218 0.679055
O O8 0.205104 0.100501 0.646160
O O9 0.395045 0.054057 0.665841
O O10 0.500000 0.000000 0.500000
O O11 0.453925 0.265158 0.344122
O O12 0.146836 0.331721 0.518754
O O13 0.500000 0.052493 0.750000
O O14 0.483779 0.913749 0.682148
#
# Coordination Sequence:
#
# PCOD9266147 Si02
#       6
#     8   8   8   8   8   8
#     4  11  21  34  59  91 126 162 216 267 317 375
#     4  11  19  33  60  93 123 171 211 259 324 382
#     4  11  17  35  60  88 123 160 220 264 304 376
#     4  10  19  37  60  93 123 167 219 263 313 387
#     4  10  20  37  60  92 126 166 213 269 320 378
#     4   9  20  35  60  88 131 165 210 265 327 379
#
# _framework density 21.003781
#
# number of rings (size 3 to 8) (size 9 to 14) (size 15 to 20)
#    0.000    1.667    6.667    2.000    0.000    0.000 
#    3.000    0.000    3.667    8.000    0.000    0.000 
#    0.000    0.000    0.000    0.000    0.000    0.000 
#
# Total GULP energy -133878.234348 kJ/mol
# GULP energy per Si atom -5578.259764 kJ/mol
# Density = 2.095598 g / cm^3
# Si number density = 21.003781 Si / 1000 Ang^3
#
#
#
# Elastic Constant Matrix: (Units=GPa)
#
#
# Indices 1 2 3 4 5 6 
#
# 1 195.7849 55.9165 52.9891 -0.0001 1.5278 0.0000
# 2 55.9165 56.0290 20.6706 -0.0002 0.6166 0.0001
# 3 52.9891 20.6706 75.0737 -0.0004 -0.2171 0.0001
# 4 -0.0001 -0.0002 -0.0004 13.5373 0.0001 -12.3981
# 5 1.5278 0.6166 -0.2171 0.0001 39.2524 -0.0001
# 6 0.0000 0.0001 0.0001 -12.3981 -0.0001 35.2059
#
#
#
# Elastic Compliance Matrix: (Units=1/GPa)
#
#
# Indices 1 2 3 4 5 6 
#
# 1 0.008037 -0.006595 -0.003858 0.000000 -0.000231 0.000000
# 2 -0.006595 0.025283 -0.002307 0.000000 -0.000153 0.000000
# 3 -0.003858 -0.002307 0.016679 0.000001 0.000279 0.000000
# 4 0.000000 0.000000 0.000001 0.109036 0.000000 0.038398
# 5 -0.000231 -0.000153 0.000279 0.000000 0.025489 0.000000
# 6 0.000000 0.000000 0.000000 0.038398 0.000000 0.041926
#
#
# Mechanical properties :
#
#
# Convention : Reuss Voigt Hill
#
# Bulk Modulus (GPa) = 40.84999 65.11557 52.98278
# Shear Modulus (GPa) = 19.22122 30.75321 24.98722
#
# Velocity S-wave (km/s) = 3.02840 3.83061 3.45288
# Velocity P-wave (km/s) = 5.63199 7.11575 6.41690
#
# Compressibility (1/GPa) = 0.02447981
#
# Stress axis : x y z
#
# Youngs Moduli (GPa) = 124.42265 39.55294 59.95594
#
# Poissons Ratio (x) = 0.26086 0.23128
# Poissons Ratio (y) = 0.82060 0.13829
# Poissons Ratio (z) = 0.47997 0.09123
#
# Static dielectric constant tensor:
#      x y z
#    x 1.920250 0.000000 -0.013770 
#    y 0.000000 1.744310 0.000000 
#    z -0.013770 0.000000 1.845340 
# 
# From -- ./inp_files/238945.got.cif
#   From: 2010.05.17/outbox.cif.g08.bks.cpg/sg15_120_cif.got.tgz:238945.got - 2010.06.03 18:47:42.
