data_PCOD9266364
_publ_section_title
;
Structure prediction by ZEFSAII (Michael W. Deem and Ramdas Pophale) SiO2 
 PCOD9266364
Probable space group: C 2/C
;
_chemical_formula_sum "Si O2"
_cell_formula_units_Z 44
_cell_length_a 28.057119
_cell_length_b 12.207387
_cell_length_c 14.698001
_cell_angle_alpha 90.000000
_cell_angle_beta 24.037041
_cell_angle_gamma 90.000000
_cell_volume 2050.536112
_symmetry_space_group_name_H-M "C 2/C"
_symmetry_group_IT_number 15
_symmetry_cell_setting 'monoclinic'
loop_
_space_group_symop_operation_xyz
x,y,z
-x,y,1/2-z
-x,-y,-z
x,-y,1/2+z
1/2+x,1/2+y,z
1/2-x,1/2+y,1/2-z
1/2-x,1/2-y,-z
1/2+x,1/2-y,1/2+z
loop_
_atom_site_type_symbol
_atom_site_label
_atom_site_fract_x
_atom_site_fract_y
_atom_site_fract_z
Si Si1 0.862628 0.019486 0.756329
Si Si2 0.135009 0.415851 0.172982
Si Si3 0.969897 0.344147 0.605531
Si Si4 0.500000 0.787539 0.250000
Si Si5 0.098132 0.162269 0.639001
Si Si6 0.675068 0.719567 0.799607
O O1 0.852973 0.082284 0.869157
O O2 0.814654 0.099359 0.761026
O O3 0.000000 0.000000 0.500000
O O4 0.774143 0.918412 0.916351
O O5 0.085322 0.540171 0.268702
O O6 0.069828 0.359915 0.202095
O O7 0.093370 0.361799 0.340307
O O8 0.966373 0.260682 0.694705
O O9 0.889964 0.288946 0.666575
O O10 0.405811 0.719457 0.471391
O O11 0.202966 0.218032 0.400788
O O12 0.000000 0.104999 0.750000
#
# Coordination Sequence:
#
# PCOD9266364 Si02
#       6
#     8   8   8   4   8   8
#     4  11  23  42  62  88 127 165 194 253 315 363
#     4  10  19  37  63  92 118 150 212 246 298 352
#     4   9  18  37  63  84 111 162 197 255 295 348
#     4  10  24  36  64  94 120 164 202 260 288 364
#     4  11  22  39  62  89 120 167 207 242 306 367
#     4  10  20  44  58  81 129 160 199 246 312 356
#
# _framework density 21.457802999999998
#
# number of rings (size 3 to 8) (size 9 to 14) (size 15 to 20)
#    0.000    1.818    3.636    1.091    3.818    0.000 
#    4.909    2.727    0.000    0.000    0.000    0.000 
#    0.000    0.000    0.000    0.000    0.000    0.000 
#
# Total GULP energy -122894.451489 kJ/mol
# GULP energy per Si atom -5586.111431 kJ/mol
# Density = 2.140896 g / cm^3
# Si number density = 21.457803 Si / 1000 Ang^3
#
#
#
# Elastic Constant Matrix: (Units=GPa)
#
#
# Indices 1 2 3 4 5 6 
#
# 1 44.8190 -5.5567 35.6569 0.0000 11.0194 0.0000
# 2 -5.5567 15.6577 4.9381 0.0000 4.5193 0.0000
# 3 35.6569 4.9381 169.7469 0.0000 -1.8640 0.0000
# 4 0.0000 0.0000 0.0000 29.9397 0.0000 -5.5846
# 5 11.0194 4.5193 -1.8640 0.0000 33.5278 0.0000
# 6 0.0000 0.0000 0.0000 -5.5846 0.0000 -4.6696
#
#
#
# Elastic Compliance Matrix: (Units=1/GPa)
#
#
# Indices 1 2 3 4 5 6 
#
# 1 0.034506 0.018891 -0.007955 0.000000 -0.014330 0.000000
# 2 0.018891 0.077502 -0.006410 0.000000 -0.017012 0.000000
# 3 -0.007955 -0.006410 0.007792 0.000000 0.003912 0.000000
# 4 0.000000 0.000000 0.000000 0.027309 0.000000 -0.032660
# 5 -0.014330 -0.017012 0.003912 0.000000 0.037046 0.000000
# 6 0.000000 0.000000 0.000000 -0.032660 0.000000 -0.175093
#
#
# Mechanical properties :
#
#
# Convention : Reuss Voigt Hill
#
# Bulk Modulus (GPa) = 7.76086 33.36668 20.56377
# Shear Modulus (GPa) = 116.38527 24.77194 70.57860
#
# Velocity S-wave (km/s) = 7.37271 3.40140 5.74136
# Velocity P-wave (km/s) = 8.72356 5.56864 7.31814
#
# Compressibility (1/GPa) = 0.12885163
#
# Stress axis : x y z
#
# Youngs Moduli (GPa) = 28.98024 12.90290 128.34305
#
# Poissons Ratio (x) = -0.24375 1.02100
# Poissons Ratio (y) = -0.54746 0.82263
# Poissons Ratio (z) = 0.23055 0.08270
#
# Static dielectric constant tensor:
#      x y z
#    x 1.756860 0.000000 -0.008660 
#    y 0.000000 1.771260 0.000000 
#    z -0.008660 0.000000 1.819640 
# 
# From -- ./inp_files/143037.got.cif
#   From: 2010.05.17/outbox.cif.g08.bks.cpg/sg15_72_cif.got.tgz:143037.got - 2010.06.03 18:47:42.
