data_PCOD9266107
_publ_section_title
;
Structure prediction by ZEFSAII (Michael W. Deem and Ramdas Pophale) SiO2 
 PCOD9266107
Probable space group: C 2/C
;
_chemical_formula_sum "Si O2"
_cell_formula_units_Z 60
_cell_length_a 17.632220
_cell_length_b 10.716659
_cell_length_c 16.816371
_cell_angle_alpha 90.000000
_cell_angle_beta 101.766479
_cell_angle_gamma 90.000000
_cell_volume 3110.824793
_symmetry_space_group_name_H-M "C 2/C"
_symmetry_group_IT_number 15
_symmetry_cell_setting 'monoclinic'
loop_
_space_group_symop_operation_xyz
x,y,z
-x,y,1/2-z
-x,-y,-z
x,-y,1/2+z
1/2+x,1/2+y,z
1/2-x,1/2+y,1/2-z
1/2-x,1/2-y,-z
1/2+x,1/2-y,1/2+z
loop_
_atom_site_type_symbol
_atom_site_label
_atom_site_fract_x
_atom_site_fract_y
_atom_site_fract_z
Si Si1 0.540990 0.077533 0.891880
Si Si2 0.280728 0.963332 0.093613
Si Si3 0.936642 0.367216 0.922642
Si Si4 0.500000 0.247381 0.750000
Si Si5 0.253153 0.767017 0.661910
Si Si6 0.349827 0.346968 0.322178
Si Si7 0.354888 0.396929 0.741998
Si Si8 0.772781 0.497205 0.907582
O O1 0.488718 0.157817 0.822372
O O2 0.629324 0.074772 0.879770
O O3 0.505372 0.939353 0.892747
O O4 0.541471 0.136176 0.979939
O O5 0.273368 0.107292 0.119239
O O6 0.222996 0.881448 0.135703
O O7 0.259696 0.956158 0.995786
O O8 0.912327 0.234961 0.881879
O O9 0.858793 0.452190 0.902371
O O10 0.427132 0.333601 0.716455
O O11 0.319193 0.730137 0.739673
O O12 0.180313 0.802381 0.701210
O O13 0.236243 0.645921 0.605090
O O14 0.378870 0.478358 0.294284
O O15 0.288107 0.434657 0.665602
#
# Coordination Sequence:
#
# PCOD9266107 Si02
#       8
#     8   8   8   4   8   8   8   8
#     4  10  24  37  62  89 118 157 195 248 304 351
#     4  10  22  37  61  94 113 154 204 245 298 354
#     4  10  21  41  59  88 121 155 195 243 305 359
#     4  12  24  40  58  82 122 150 204 246 296 362
#     4  10  19  37  60  86 116 152 190 243 296 354
#     4  10  21  37  62  83 123 156 197 243 296 363
#     4  10  22  38  59  87 113 161 194 242 304 358
#     4  10  20  36  64  86 118 149 201 247 287 359
#
# _framework density 19.287489999999998
#
# number of rings (size 3 to 8) (size 9 to 14) (size 15 to 20)
#    0.000    1.867    1.333    2.000    3.733    1.067 
#    4.800    0.667    0.000    0.000    0.000    0.000 
#    0.000    0.000    0.000    0.000    0.000    0.000 
#
# Total GULP energy -167542.403228 kJ/mol
# GULP energy per Si atom -5584.746774 kJ/mol
# Density = 1.924359 g / cm^3
# Si number density = 19.287490 Si / 1000 Ang^3
#
#
#
# Elastic Constant Matrix: (Units=GPa)
#
#
# Indices 1 2 3 4 5 6 
#
# 1 33.6001 14.7910 26.7944 0.0000 2.4075 0.0000
# 2 14.7910 61.9842 37.6868 0.0000 9.4279 0.0000
# 3 26.7944 37.6868 72.4149 0.0000 10.7559 0.0000
# 4 0.0000 0.0000 0.0000 13.1812 0.0000 16.3562
# 5 2.4075 9.4279 10.7559 0.0000 23.9886 0.0000
# 6 0.0000 0.0000 0.0000 16.3562 0.0000 23.2847
#
#
#
# Elastic Compliance Matrix: (Units=1/GPa)
#
#
# Indices 1 2 3 4 5 6 
#
# 1 0.042471 -0.001136 -0.015596 0.000000 0.003177 0.000000
# 2 -0.001136 0.024002 -0.011450 0.000000 -0.004186 0.000000
# 3 -0.015596 -0.011450 0.026396 0.000000 -0.005770 0.000000
# 4 0.000000 0.000000 0.000000 0.591060 0.000000 -0.415186
# 5 0.003177 -0.004186 -0.005770 0.000000 0.045600 0.000000
# 6 0.000000 0.000000 0.000000 -0.415186 0.000000 0.334591
#
#
# Mechanical properties :
#
#
# Convention : Reuss Voigt Hill
#
# Bulk Modulus (GPa) = 27.39190 36.28264 31.83727
# Shear Modulus (GPa) = 4.41443 18.00603 11.21023
#
# Velocity S-wave (km/s) = 1.51450 3.05874 2.41346
# Velocity P-wave (km/s) = 4.15825 5.59704 4.93041
#
# Compressibility (1/GPa) = 0.03650715
#
# Stress axis : x y z
#
# Youngs Moduli (GPa) = 23.54563 41.66286 37.88510
#
# Poissons Ratio (x) = 0.04731 0.59084
# Poissons Ratio (y) = 0.02674 0.43377
# Poissons Ratio (z) = 0.36721 0.47702
#
# Static dielectric constant tensor:
#      x y z
#    x 1.664010 0.000000 -0.004140 
#    y 0.000000 1.666250 0.000000 
#    z -0.004140 0.000000 1.653780 
# 
# From -- ./inp_files/160959.got.cif
#   From: 2010.05.17/outbox.cif.g08.bks.cpg/sg15_81_cif.got.tgz:160959.got - 2010.06.03 18:47:42.
