data_PCOD9266898
_publ_section_title
;
Structure prediction by ZEFSAII (Michael W. Deem and Ramdas Pophale) SiO2 
 PCOD9266898
Probable space group: C 2/C
;
_chemical_formula_sum "Si O2"
_cell_formula_units_Z 56
_cell_length_a 9.057128
_cell_length_b 16.743492
_cell_length_c 25.434932
_cell_angle_alpha 90.000000
_cell_angle_beta 133.584889
_cell_angle_gamma 90.000000
_cell_volume 2793.944769
_symmetry_space_group_name_H-M "C 2/C"
_symmetry_group_IT_number 15
_symmetry_cell_setting 'monoclinic'
loop_
_space_group_symop_operation_xyz
x,y,z
-x,y,1/2-z
-x,-y,-z
x,-y,1/2+z
1/2+x,1/2+y,z
1/2-x,1/2+y,1/2-z
1/2-x,1/2-y,-z
1/2+x,1/2-y,1/2+z
loop_
_atom_site_type_symbol
_atom_site_label
_atom_site_fract_x
_atom_site_fract_y
_atom_site_fract_z
Si Si1 0.437608 0.793889 0.675541
Si Si2 0.840639 0.741835 0.446381
Si Si3 0.519046 0.352122 0.934561
Si Si4 0.265176 0.655605 0.177231
Si Si5 0.591084 0.999859 0.082160
Si Si6 0.349720 0.484962 0.011511
Si Si7 0.242450 0.145066 0.925999
O O1 0.500000 0.773736 0.750000
O O2 0.616414 0.842133 0.690674
O O3 0.393771 0.715524 0.629987
O O4 0.222116 0.840464 0.624540
O O5 0.640112 0.708351 0.426582
O O6 0.898138 0.825544 0.487356
O O7 0.791059 0.731094 0.373458
O O8 0.039144 0.685871 0.506373
O O9 0.586590 0.440708 0.936037
O O10 0.500000 0.657187 0.250000
O O11 0.214362 0.576740 0.130623
O O12 0.719044 0.919071 0.110976
O O13 0.382343 0.000013 0.063874
O O14 0.500000 0.000000 0.000000
O O15 0.341862 0.403355 0.043762
O O16 0.500000 0.500000 0.000000
#
# Coordination Sequence:
#
# PCOD9266898 Si02
#       7
#     8   8   8   8   8   8   8
#     4  11  26  43  59  92 133 174 217 267 318 380
#     4  10  19  38  62  94 119 169 205 256 316 386
#     4  10  21  35  64  94 129 158 206 267 320 372
#     4  12  24  40  67  90 126 174 217 257 319 392
#     4  10  19  40  65  94 122 164 214 257 313 395
#     4  11  20  33  60 102 125 151 204 277 319 371
#     4  10  21  40  67  88 131 163 213 259 318 389
#
# _framework density 20.043344999999999
#
# number of rings (size 3 to 8) (size 9 to 14) (size 15 to 20)
#    0.000    1.429    4.286    2.571    2.000    1.714 
#    0.000    0.000    0.000    0.857    0.000    0.000 
#    0.000    0.000    0.000    0.000    0.000    0.000 
#
# Total GULP energy -156180.719242 kJ/mol
# GULP energy per Si atom -5577.882830 kJ/mol
# Density = 1.999773 g / cm^3
# Si number density = 20.043345 Si / 1000 Ang^3
#
#
#
# Elastic Constant Matrix: (Units=GPa)
#
#
# Indices 1 2 3 4 5 6 
#
# 1 148.0681 25.8526 54.5619 0.0000 9.4999 0.0000
# 2 25.8526 78.3134 27.4759 0.0000 7.5619 0.0000
# 3 54.5619 27.4759 93.8798 0.0000 14.6916 0.0000
# 4 0.0000 0.0000 0.0000 9.4337 0.0000 -2.7660
# 5 9.4999 7.5619 14.6916 0.0000 28.1763 0.0000
# 6 0.0000 0.0000 0.0000 -2.7660 0.0000 31.5285
#
#
#
# Elastic Compliance Matrix: (Units=1/GPa)
#
#
# Indices 1 2 3 4 5 6 
#
# 1 0.008699 -0.001216 -0.004673 0.000000 -0.000170 0.000000
# 2 -0.001216 0.014484 -0.003254 0.000000 -0.001781 0.000000
# 3 -0.004673 -0.003254 0.015175 0.000000 -0.005464 0.000000
# 4 0.000000 0.000000 0.000000 0.108802 0.000000 0.009545
# 5 -0.000170 -0.001781 -0.005464 0.000000 0.038875 0.000000
# 6 0.000000 0.000000 0.000000 0.009545 0.000000 0.032555
#
#
# Mechanical properties :
#
#
# Convention : Reuss Voigt Hill
#
# Bulk Modulus (GPa) = 49.81908 59.56024 54.68966
# Shear Modulus (GPa) = 20.52826 27.98575 24.25700
#
# Velocity S-wave (km/s) = 3.20377 3.74071 3.48261
# Velocity P-wave (km/s) = 6.21250 6.95970 6.59669
#
# Compressibility (1/GPa) = 0.02007263
#
# Stress axis : x y z
#
# Youngs Moduli (GPa) = 114.95730 69.04146 65.89628
#
# Poissons Ratio (x) = 0.08393 0.30795
# Poissons Ratio (y) = 0.13975 0.21442
# Poissons Ratio (z) = 0.53723 0.22465
#
# Static dielectric constant tensor:
#      x y z
#    x 1.797880 0.000000 -0.029650 
#    y 0.000000 1.764560 0.000000 
#    z -0.029650 0.000000 1.692190 
# 
# From -- ./inp_files/265609.got.cif
#   From: 2010.05.17/outbox.cif.g08.bks.cpg/sg15_133_cif.got.tgz:265609.got - 2010.06.03 18:47:42.
