data_PCOD9266484
_publ_section_title
;
Structure prediction by ZEFSAII (Michael W. Deem and Ramdas Pophale) SiO2 
 PCOD9266484
Probable space group: C 2/C
;
_chemical_formula_sum "Si O2"
_cell_formula_units_Z 44
_cell_length_a 9.329028
_cell_length_b 10.712409
_cell_length_c 17.059449
_cell_angle_alpha 90.000000
_cell_angle_beta 89.146354
_cell_angle_gamma 90.000000
_cell_volume 1704.670079
_symmetry_space_group_name_H-M "C 2/C"
_symmetry_group_IT_number 15
_symmetry_cell_setting 'monoclinic'
loop_
_space_group_symop_operation_xyz
x,y,z
-x,y,1/2-z
-x,-y,-z
x,-y,1/2+z
1/2+x,1/2+y,z
1/2-x,1/2+y,1/2-z
1/2-x,1/2-y,-z
1/2+x,1/2-y,1/2+z
loop_
_atom_site_type_symbol
_atom_site_label
_atom_site_fract_x
_atom_site_fract_y
_atom_site_fract_z
Si Si1 0.000000 0.864618 0.250000
Si Si2 0.217648 0.443656 0.548715
Si Si3 0.914703 0.713882 0.593408
Si Si4 0.807871 0.133377 0.432128
Si Si5 0.977172 0.357213 0.649573
Si Si6 0.236216 0.532116 0.795565
O O1 0.039469 0.772534 0.178319
O O2 0.854783 0.936433 0.231225
O O3 0.134486 0.380991 0.474923
O O4 0.326301 0.340268 0.579301
O O5 0.301337 0.562861 0.515101
O O6 0.091555 0.453226 0.613570
O O7 0.860262 0.646773 0.673219
O O8 0.078200 0.759014 0.585307
O O9 0.643674 0.171765 0.415184
O O10 0.831162 0.023868 0.366979
O O11 0.873539 0.419376 0.716051
#
# Coordination Sequence:
#
# PCOD9266484 Si02
#       6
#     4   8   8   8   8   8
#     4  12  22  48  62  78 126 174 200 254 312 342
#     4  10  19  38  63  92 131 155 193 253 311 368
#     4  10  19  37  65  92 126 160 189 246 318 359
#     4   9  21  39  59 100 122 148 206 254 299 369
#     4  10  23  43  61  90 122 161 207 254 298 363
#     4   9  23  41  60  87 122 154 210 253 287 369
#
# _framework density 25.811446
#
# number of rings (size 3 to 8) (size 9 to 14) (size 15 to 20)
#    1.091    1.091    1.818    1.091    0.000    2.182 
#    3.273    0.000    0.000    0.000    0.000    0.000 
#    0.000    0.000    0.000    0.000    0.000    0.000 
#
# Total GULP energy -122881.659858 kJ/mol
# GULP energy per Si atom -5585.529994 kJ/mol
# Density = 2.575270 g / cm^3
# Si number density = 25.811446 Si / 1000 Ang^3
#
#
#
# Elastic Constant Matrix: (Units=GPa)
#
#
# Indices 1 2 3 4 5 6 
#
# 1 95.4164 28.4476 8.5633 0.0000 -30.2336 0.0000
# 2 28.4476 93.2940 13.0274 0.0000 -11.7974 0.0000
# 3 8.5633 13.0274 48.0919 0.0000 -23.1664 0.0000
# 4 0.0000 0.0000 0.0000 22.7947 0.0000 -19.1197
# 5 -30.2336 -11.7974 -23.1664 0.0000 36.6091 0.0000
# 6 0.0000 0.0000 0.0000 -19.1197 0.0000 49.1737
#
#
#
# Elastic Compliance Matrix: (Units=1/GPa)
#
#
# Indices 1 2 3 4 5 6 
#
# 1 0.016031 -0.003704 0.005684 0.000000 0.015642 0.000000
# 2 -0.003704 0.012147 -0.003192 0.000000 -0.001164 0.000000
# 3 0.005684 -0.003192 0.032239 0.000000 0.024067 0.000000
# 4 0.000000 0.000000 0.000000 0.065102 0.000000 0.025313
# 5 0.015642 -0.001164 0.024067 0.000000 0.055088 0.000000
# 6 0.000000 0.000000 0.000000 0.025313 0.000000 0.030178
#
#
# Mechanical properties :
#
#
# Convention : Reuss Voigt Hill
#
# Bulk Modulus (GPa) = 17.24323 37.43096 27.33710
# Shear Modulus (GPa) = 21.50173 34.16643 27.83408
#
# Velocity S-wave (km/s) = 2.88936 3.64221 3.28740
# Velocity P-wave (km/s) = 4.22210 5.67633 5.00234
#
# Compressibility (1/GPa) = 0.05799378
#
# Stress axis : x y z
#
# Youngs Moduli (GPa) = 62.37908 82.32711 31.01812
#
# Poissons Ratio (x) = 0.30493 -0.17631
# Poissons Ratio (y) = 0.23105 0.09900
# Poissons Ratio (z) = -0.35456 0.26276
#
# Static dielectric constant tensor:
#      x y z
#    x 2.064780 0.000000 0.007090 
#    y 0.000000 1.980230 0.000000 
#    z 0.007090 0.000000 2.161130 
# 
# From -- ./inp_files/287312.got.cif
#   From: 2010.05.17/outbox.cif.g08.bks.cpg/sg15_144_cif.got.tgz:287312.got - 2010.06.03 18:47:42.
