data_PCOD9266762
_publ_section_title
;
Structure prediction by ZEFSAII (Michael W. Deem and Ramdas Pophale) SiO2 
 PCOD9266762
Probable space group: C 2/C
;
_chemical_formula_sum "Si O2"
_cell_formula_units_Z 40
_cell_length_a 19.927877
_cell_length_b 11.007964
_cell_length_c 16.829914
_cell_angle_alpha 90.000000
_cell_angle_beta 152.792005
_cell_angle_gamma 90.000000
_cell_volume 1688.018025
_symmetry_space_group_name_H-M "C 2/C"
_symmetry_group_IT_number 15
_symmetry_cell_setting 'monoclinic'
loop_
_space_group_symop_operation_xyz
x,y,z
-x,y,1/2-z
-x,-y,-z
x,-y,1/2+z
1/2+x,1/2+y,z
1/2-x,1/2+y,1/2-z
1/2-x,1/2-y,-z
1/2+x,1/2-y,1/2+z
loop_
_atom_site_type_symbol
_atom_site_label
_atom_site_fract_x
_atom_site_fract_y
_atom_site_fract_z
Si Si1 0.109435 0.102582 0.148010
Si Si2 0.776061 0.090432 0.630613
Si Si3 0.171008 0.764178 0.156123
Si Si4 0.746819 0.859461 0.432153
Si Si5 0.000000 0.510251 0.250000
Si Si6 0.500000 0.451923 0.250000
O O1 0.255902 0.133070 0.254041
O O2 0.171186 0.048094 0.294419
O O3 0.003156 0.218803 0.033314
O O4 0.000000 0.000000 0.000000
O O5 0.773267 0.158268 0.710752
O O6 0.622394 0.086209 0.425242
O O7 0.910196 0.131717 0.716742
O O8 0.227177 0.809101 0.129032
O O9 0.750000 0.750000 0.500000
O O10 0.592519 0.926690 0.286207
O O11 0.876218 0.959494 0.581663
#
# Coordination Sequence:
#
# PCOD9266762 Si02
#       6
#     8   8   8   8   4   4
#     4  10  23  43  66 101 137 174 227 294 338 418
#     4  10  22  43  65 102 134 186 231 283 350 409
#     4  11  23  41  69  98 135 186 234 280 353 422
#     4  11  22  33  60  99 138 178 219 290 354 417
#     4  10  23  38  58  97 140 178 226 288 342 402
#     4  10  19  38  60  91 148 174 220 288 344 404
#
# _framework density 23.696428999999998
#
# number of rings (size 3 to 8) (size 9 to 14) (size 15 to 20)
#    0.000    1.600    2.000    3.000    5.600    0.800 
#    3.600    0.000    0.000   14.400    0.000    0.000 
#    0.000    0.000    0.000    0.000    0.000    0.000 
#
# Total GULP energy -111651.543026 kJ/mol
# GULP energy per Si atom -5582.577151 kJ/mol
# Density = 2.364250 g / cm^3
# Si number density = 23.696429 Si / 1000 Ang^3
#
#
#
# Elastic Constant Matrix: (Units=GPa)
#
#
# Indices 1 2 3 4 5 6 
#
# 1 134.3417 20.9875 42.0029 0.0000 -11.7263 0.0000
# 2 20.9875 30.1864 22.8015 0.0000 -0.6634 0.0000
# 3 42.0029 22.8015 147.1706 -0.0001 4.3079 0.0000
# 4 0.0000 0.0000 -0.0001 18.8932 0.0000 -1.8428
# 5 -11.7263 -0.6634 4.3079 0.0000 45.2453 0.0000
# 6 0.0000 0.0000 0.0000 -1.8428 0.0000 34.4776
#
#
#
# Elastic Compliance Matrix: (Units=1/GPa)
#
#
# Indices 1 2 3 4 5 6 
#
# 1 0.008996 -0.004765 -0.001901 0.000000 0.002442 0.000000
# 2 -0.004765 0.040098 -0.004847 0.000000 -0.000186 0.000000
# 3 -0.001901 -0.004847 0.008127 0.000000 -0.001337 0.000000
# 4 0.000000 0.000000 0.000000 0.053207 0.000000 0.002844
# 5 0.002442 -0.000186 -0.001337 0.000000 0.022859 0.000000
# 6 0.000000 0.000000 0.000000 0.002844 0.000000 0.029156
#
#
# Mechanical properties :
#
#
# Convention : Reuss Voigt Hill
#
# Bulk Modulus (GPa) = 29.24377 53.69804 41.47091
# Shear Modulus (GPa) = 25.39792 34.78367 30.09079
#
# Velocity S-wave (km/s) = 3.27739 3.83546 3.56735
# Velocity P-wave (km/s) = 5.16619 6.50571 5.87426
#
# Compressibility (1/GPa) = 0.03419532
#
# Stress axis : x y z
#
# Youngs Moduli (GPa) = 111.16620 24.93912 123.04076
#
# Poissons Ratio (x) = 0.11883 0.23385
# Poissons Ratio (y) = 0.52970 0.59639
# Poissons Ratio (z) = 0.21128 0.12088
#
# Static dielectric constant tensor:
#      x y z
#    x 1.966840 0.000000 -0.021730 
#    y 0.000000 2.074210 0.000000 
#    z -0.021730 0.000000 1.867480 
# 
# From -- ./inp_files/69255.got.cif
#   From: 2010.05.17/outbox.cif.g08.bks.cpg/sg15_35_cif.got.tgz:69255.got - 2010.06.03 18:47:42.
