data_PCOD9266957
_publ_section_title
;
Structure prediction by ZEFSAII (Michael W. Deem and Ramdas Pophale) SiO2 
 PCOD9266957
Probable space group: C 2/C
;
_chemical_formula_sum "Si O2"
_cell_formula_units_Z 44
_cell_length_a 25.263035
_cell_length_b 8.643782
_cell_length_c 13.992464
_cell_angle_alpha 90.000000
_cell_angle_beta 42.199619
_cell_angle_gamma 90.000000
_cell_volume 2052.433065
_symmetry_space_group_name_H-M "C 2/C"
_symmetry_group_IT_number 15
_symmetry_cell_setting 'monoclinic'
loop_
_space_group_symop_operation_xyz
x,y,z
-x,y,1/2-z
-x,-y,-z
x,-y,1/2+z
1/2+x,1/2+y,z
1/2-x,1/2+y,1/2-z
1/2-x,1/2-y,-z
1/2+x,1/2-y,1/2+z
loop_
_atom_site_type_symbol
_atom_site_label
_atom_site_fract_x
_atom_site_fract_y
_atom_site_fract_z
Si Si1 0.071170 0.202179 0.867018
Si Si2 0.806665 0.436927 0.698043
Si Si3 0.500000 0.209587 0.750000
Si Si4 0.229336 0.720639 0.640157
Si Si5 0.035481 0.445066 0.553736
Si Si6 0.573984 0.630161 0.302091
O O1 0.140849 0.312282 0.812292
O O2 0.015350 0.290818 0.864755
O O3 0.101964 0.043400 0.781576
O O4 0.011265 0.151589 0.032934
O O5 0.756780 0.547443 0.836107
O O6 0.766578 0.343597 0.665079
O O7 0.870543 0.557161 0.568360
O O8 0.433374 0.321502 0.798344
O O9 0.517316 0.088755 0.644741
O O10 0.250000 0.750000 0.500000
O O11 0.135610 0.753359 0.765765
O O12 0.000000 0.500000 0.500000
#
# Coordination Sequence:
#
# PCOD9266957 Si02
#       6
#     8   8   4   8   8   8
#     4  10  21  42  70  95 129 172 216 285 331 387
#     4  11  22  44  66  96 136 180 222 274 342 393
#     4  12  20  36  66  98 126 166 220 272 328 382
#     4  12  26  44  68  98 137 185 225 272 338 414
#     4  10  19  38  63  91 125 166 214 269 320 386
#     4  11  22  40  67 101 131 165 226 275 330 394
#
# _framework density 21.437968999999999
#
# number of rings (size 3 to 8) (size 9 to 14) (size 15 to 20)
#    0.000    1.091    5.455    3.273    0.000    0.727 
#    0.000    5.455    0.000    0.000    0.000    0.000 
#    0.000    0.000    0.000    0.000    0.000    0.000 
#
# Total GULP energy -122512.278416 kJ/mol
# GULP energy per Si atom -5568.739928 kJ/mol
# Density = 2.138918 g / cm^3
# Si number density = 21.437969 Si / 1000 Ang^3
#
#
#
# Elastic Constant Matrix: (Units=GPa)
#
#
# Indices 1 2 3 4 5 6 
#
# 1 140.0619 53.1110 34.2425 0.0000 16.2023 0.0000
# 2 53.1110 117.9104 28.1061 0.0002 28.2098 0.0000
# 3 34.2425 28.1061 49.6915 0.0001 20.3591 0.0000
# 4 0.0000 0.0002 0.0001 26.0531 -0.0001 0.4925
# 5 16.2023 28.2098 20.3591 -0.0001 26.5066 0.0000
# 6 0.0000 0.0000 0.0000 0.4925 0.0000 58.6091
#
#
#
# Elastic Compliance Matrix: (Units=1/GPa)
#
#
# Indices 1 2 3 4 5 6 
#
# 1 0.009562 -0.003503 -0.005459 0.000000 0.002075 0.000000
# 2 -0.003503 0.012821 -0.000182 0.000000 -0.011364 0.000000
# 3 -0.005459 -0.000182 0.032893 0.000000 -0.021734 0.000000
# 4 0.000000 0.000000 0.000000 0.038389 0.000000 -0.000323
# 5 0.002075 -0.011364 -0.021734 0.000000 0.065246 0.000000
# 6 0.000000 0.000000 0.000000 -0.000323 0.000000 0.017065
#
#
# Mechanical properties :
#
#
# Convention : Reuss Voigt Hill
#
# Bulk Modulus (GPa) = 27.03421 59.84254 43.43837
# Shear Modulus (GPa) = 24.20219 35.04737 29.62478
#
# Velocity S-wave (km/s) = 3.36362 4.04769 3.72140
# Velocity P-wave (km/s) = 5.26527 7.05832 6.22667
#
# Compressibility (1/GPa) = 0.03699017
#
# Stress axis : x y z
#
# Youngs Moduli (GPa) = 104.57730 77.99775 30.40119
#
# Poissons Ratio (x) = 0.27319 0.16595
# Poissons Ratio (y) = 0.36629 0.00554
# Poissons Ratio (z) = 0.57084 0.01421
#
# Static dielectric constant tensor:
#      x y z
#    x 1.797960 0.000000 -0.001750 
#    y 0.000000 1.680970 0.000000 
#    z -0.001750 0.000000 1.936160 
# 
# From -- ./inp_files/171703.got.cif
#   From: 2010.05.17/outbox.cif.g08.bks.cpg/sg15_86_cif.got.tgz:171703.got - 2010.06.03 18:47:42.
