data_PCOD9266629
_publ_section_title
;
Structure prediction by ZEFSAII (Michael W. Deem and Ramdas Pophale) SiO2 
 PCOD9266629
Probable space group: C 2/C
;
_chemical_formula_sum "Si O2"
_cell_formula_units_Z 40
_cell_length_a 12.474906
_cell_length_b 5.105217
_cell_length_c 34.371859
_cell_angle_alpha 90.000000
_cell_angle_beta 134.920895
_cell_angle_gamma 90.000000
_cell_volume 1550.023529
_symmetry_space_group_name_H-M "C 2/C"
_symmetry_group_IT_number 15
_symmetry_cell_setting 'monoclinic'
loop_
_space_group_symop_operation_xyz
x,y,z
-x,y,1/2-z
-x,-y,-z
x,-y,1/2+z
1/2+x,1/2+y,z
1/2-x,1/2+y,1/2-z
1/2-x,1/2-y,-z
1/2+x,1/2-y,1/2+z
loop_
_atom_site_type_symbol
_atom_site_label
_atom_site_fract_x
_atom_site_fract_y
_atom_site_fract_z
Si Si1 0.335521 0.458015 0.995166
Si Si2 0.057434 0.995276 0.221004
Si Si3 0.084502 0.728592 0.597649
Si Si4 0.422740 0.006239 0.818901
Si Si5 0.162417 0.220725 0.579655
O O1 0.260911 0.581073 0.937513
O O2 0.250000 0.250000 0.000000
O O3 0.417320 0.696890 0.038940
O O4 0.484639 0.290184 0.021079
O O5 0.240029 0.003235 0.267536
O O6 0.015851 0.771013 0.179522
O O7 0.000000 0.945257 0.250000
O O8 0.007063 0.274608 0.191515
O O9 0.063793 0.599662 0.633753
O O10 0.179885 0.517198 0.597231
O O11 0.165842 0.012020 0.616126
#
# Coordination Sequence:
#
# PCOD9266629 Si02
#       5
#     8   8   8   8   8
#     4   9  20  36  57  78 116 157 197 240 303 345
#     4  10  21  40  62  86 119 153 191 238 311 363
#     4  10  19  38  56  82 117 148 201 246 292 355
#     4  10  21  38  63  86 119 154 190 250 295 355
#     4   9  20  36  54  78 115 152 194 243 292 351
#
# _framework density 25.806061
#
# number of rings (size 3 to 8) (size 9 to 14) (size 15 to 20)
#    1.200    1.200    0.000    2.400    0.000    0.800 
#    3.600    0.000    0.000    0.000    0.000    0.000 
#    0.000    0.000    0.000    0.000    0.000    0.000 
#
# Total GULP energy -111771.472878 kJ/mol
# GULP energy per Si atom -5588.573644 kJ/mol
# Density = 2.574733 g / cm^3
# Si number density = 25.806061 Si / 1000 Ang^3
#
#
#
# Elastic Constant Matrix: (Units=GPa)
#
#
# Indices 1 2 3 4 5 6 
#
# 1 109.8079 52.5053 23.3591 0.0001 -17.4818 0.0001
# 2 52.5053 151.1475 19.9155 0.0004 -0.9172 -0.0002
# 3 23.3591 19.9155 66.9312 0.0001 -21.5917 0.0000
# 4 0.0001 0.0004 0.0001 35.2912 -0.0003 -12.1298
# 5 -17.4818 -0.9172 -21.5917 -0.0003 36.7181 0.0000
# 6 0.0001 -0.0002 0.0000 -12.1298 0.0000 40.7731
#
#
#
# Elastic Compliance Matrix: (Units=1/GPa)
#
#
# Indices 1 2 3 4 5 6 
#
# 1 0.012084 -0.003972 -0.001495 0.000000 0.004775 0.000000
# 2 -0.003972 0.008240 -0.001986 0.000000 -0.002853 0.000000
# 3 -0.001495 -0.001986 0.019509 0.000000 0.010710 0.000000
# 4 0.000000 0.000000 0.000000 0.031563 0.000000 0.009390
# 5 0.004775 -0.002853 0.010710 0.000000 0.035735 0.000000
# 6 0.000000 0.000000 0.000000 0.009390 0.000000 0.027319
#
#
# Mechanical properties :
#
#
# Convention : Reuss Voigt Hill
#
# Bulk Modulus (GPa) = 40.11753 57.71626 48.91689
# Shear Modulus (GPa) = 31.71277 38.03027 34.87152
#
# Velocity S-wave (km/s) = 3.50935 3.84304 3.67998
# Velocity P-wave (km/s) = 5.65688 6.48890 6.08712
#
# Compressibility (1/GPa) = 0.02492676
#
# Stress axis : x y z
#
# Youngs Moduli (GPa) = 82.75258 121.35702 51.25937
#
# Poissons Ratio (x) = 0.48201 0.07664
# Poissons Ratio (y) = 0.32868 0.10181
# Poissons Ratio (z) = 0.12373 0.24103
#
# Static dielectric constant tensor:
#      x y z
#    x 2.114990 0.000000 0.055030 
#    y 0.000000 1.985060 0.000000 
#    z 0.055030 0.000000 2.079430 
# 
# From -- ./inp_files/294319.got.cif
#   From: 2010.05.17/outbox.cif.g08.bks.cpg/sg15_148_cif.got.tgz:294319.got - 2010.06.03 18:47:42.
