data_PCOD9266563
_publ_section_title
;
Structure prediction by ZEFSAII (Michael W. Deem and Ramdas Pophale) SiO2 
 PCOD9266563
Probable space group: C 2/C
;
_chemical_formula_sum "Si O2"
_cell_formula_units_Z 48
_cell_length_a 9.805564
_cell_length_b 25.407341
_cell_length_c 10.938930
_cell_angle_alpha 90.000000
_cell_angle_beta 127.003929
_cell_angle_gamma 90.000000
_cell_volume 2176.370404
_symmetry_space_group_name_H-M "C 2/C"
_symmetry_group_IT_number 15
_symmetry_cell_setting 'monoclinic'
loop_
_space_group_symop_operation_xyz
x,y,z
-x,y,1/2-z
-x,-y,-z
x,-y,1/2+z
1/2+x,1/2+y,z
1/2-x,1/2+y,1/2-z
1/2-x,1/2-y,-z
1/2+x,1/2-y,1/2+z
loop_
_atom_site_type_symbol
_atom_site_label
_atom_site_fract_x
_atom_site_fract_y
_atom_site_fract_z
Si Si1 0.147650 0.048454 0.992128
Si Si2 0.304040 0.712542 0.172099
Si Si3 0.281631 0.427839 0.226151
Si Si4 0.297358 0.825558 0.152886
Si Si5 0.177448 0.102105 0.268415
Si Si6 0.076190 0.540808 0.920532
O O1 0.189808 0.087371 0.900534
O O2 0.945910 0.038704 0.859231
O O3 0.168826 0.071404 0.137338
O O4 0.280611 0.000938 0.044336
O O5 0.500000 0.724054 0.250000
O O6 0.235645 0.769244 0.176359
O O7 0.289930 0.662757 0.251421
O O8 0.248757 0.686712 0.013162
O O9 0.270313 0.376301 0.308228
O O10 0.113900 0.465700 0.125346
O O11 0.500000 0.830883 0.250000
O O12 0.325018 0.080175 0.436589
O O13 0.000000 0.098597 0.250000
O O14 0.000000 0.560966 0.750000
#
# Coordination Sequence:
#
# PCOD9266563 Si02
#       6
#     8   8   8   8   8   8
#     4  11  28  44  65  95 135 178 228 273 334 406
#     4   9  18  35  63  99 127 166 218 275 325 387
#     4  11  24  46  64  96 136 178 218 278 336 396
#     4  10  19  37  67  97 128 168 222 270 330 396
#     4  11  24  43  67  98 135 172 222 282 335 396
#     4  12  27  44  68  94 132 178 225 275 333 398
#
# _framework density 22.055070000000001
#
# number of rings (size 3 to 8) (size 9 to 14) (size 15 to 20)
#    0.000    1.333    0.000    6.000    7.000    1.333 
#    0.000    0.833    0.000    2.000    0.000    0.000 
#    0.000    0.000    0.000    0.000    0.000    0.000 
#
# Total GULP energy -133604.882566 kJ/mol
# GULP energy per Si atom -5566.870107 kJ/mol
# Density = 2.200487 g / cm^3
# Si number density = 22.055070 Si / 1000 Ang^3
#
#
#
# Elastic Constant Matrix: (Units=GPa)
#
#
# Indices 1 2 3 4 5 6 
#
# 1 103.6804 60.8440 53.3973 0.0000 7.5380 0.0000
# 2 60.8440 184.5287 46.1693 0.0000 2.9012 0.0000
# 3 53.3973 46.1693 134.1993 0.0000 21.6410 0.0000
# 4 0.0000 0.0000 0.0000 23.3236 0.0000 -2.9136
# 5 7.5380 2.9012 21.6410 0.0000 44.6579 0.0000
# 6 0.0000 0.0000 0.0000 -2.9136 0.0000 15.0186
#
#
#
# Elastic Compliance Matrix: (Units=1/GPa)
#
#
# Indices 1 2 3 4 5 6 
#
# 1 0.013940 -0.003511 -0.004335 0.000000 -0.000024 0.000000
# 2 -0.003511 0.006832 -0.001060 0.000000 0.000663 0.000000
# 3 -0.004335 -0.001060 0.010210 0.000000 -0.004147 0.000000
# 4 0.000000 0.000000 0.000000 0.043940 0.000000 0.008524
# 5 -0.000024 0.000663 -0.004147 0.000000 0.024363 0.000000
# 6 0.000000 0.000000 0.000000 0.008524 0.000000 0.068238
#
#
# Mechanical properties :
#
#
# Convention : Reuss Voigt Hill
#
# Bulk Modulus (GPa) = 75.93445 82.58105 79.25775
# Shear Modulus (GPa) = 26.35401 34.06652 30.21027
#
# Velocity S-wave (km/s) = 3.46051 3.93442 3.70505
# Velocity P-wave (km/s) = 7.10430 7.62653 7.37004
#
# Compressibility (1/GPa) = 0.01316925
#
# Stress axis : x y z
#
# Youngs Moduli (GPa) = 71.73674 146.37359 97.94523
#
# Poissons Ratio (x) = 0.51398 0.42456
# Poissons Ratio (y) = 0.25190 0.10383
# Poissons Ratio (z) = 0.31095 0.15516
#
# Static dielectric constant tensor:
#      x y z
#    x 1.926410 0.000000 -0.031680 
#    y 0.000000 1.944130 0.000000 
#    z -0.031680 0.000000 1.867290 
# 
# From -- ./inp_files/80939.got.cif
#   From: 2010.05.17/outbox.cif.g08.bks.cpg/sg15_41_cif.got.tgz:80939.got - 2010.06.03 18:47:42.
