data_PCOD9266706
_publ_section_title
;
Structure prediction by ZEFSAII (Michael W. Deem and Ramdas Pophale) SiO2 
 PCOD9266706
Probable space group: C 2/C
;
_chemical_formula_sum "Si O2"
_cell_formula_units_Z 52
_cell_length_a 20.794321
_cell_length_b 9.439218
_cell_length_c 28.978276
_cell_angle_alpha 90.000000
_cell_angle_beta 150.592080
_cell_angle_gamma 90.000000
_cell_volume 2792.905112
_symmetry_space_group_name_H-M "C 2/C"
_symmetry_group_IT_number 15
_symmetry_cell_setting 'monoclinic'
loop_
_space_group_symop_operation_xyz
x,y,z
-x,y,1/2-z
-x,-y,-z
x,-y,1/2+z
1/2+x,1/2+y,z
1/2-x,1/2+y,1/2-z
1/2-x,1/2-y,-z
1/2+x,1/2-y,1/2+z
loop_
_atom_site_type_symbol
_atom_site_label
_atom_site_fract_x
_atom_site_fract_y
_atom_site_fract_z
Si Si1 0.140092 0.454761 0.108767
Si Si2 0.251090 0.763871 0.853430
Si Si3 0.620492 0.928644 0.205954
Si Si4 0.000000 0.206347 0.250000
Si Si5 0.899800 0.204558 0.091486
Si Si6 0.939894 0.067036 0.022260
Si Si7 0.198090 0.128301 0.133014
O O1 0.239227 0.570587 0.149743
O O2 0.129525 0.462258 0.157739
O O3 0.185245 0.296375 0.124913
O O4 0.000000 0.500000 0.000000
O O5 0.226181 0.688717 0.789046
O O6 0.379722 0.703664 0.958030
O O7 0.130506 0.718998 0.811335
O O8 0.485593 0.846184 0.133592
O O9 0.663505 0.063714 0.263804
O O10 0.054159 0.139669 0.330948
O O11 0.750000 0.250000 0.000000
O O12 0.923276 0.094465 0.065361
O O13 0.856260 0.938615 0.948642
O O14 0.091179 0.066670 0.102735
#
# Coordination Sequence:
#
# PCOD9266706 Si02
#       7
#     8   8   8   4   8   8   8
#     4  12  21  35  58  89 121 160 199 251 313 383
#     4  10  20  37  59  85 119 154 210 246 308 368
#     4  10  22  36  56  91 117 157 202 257 311 357
#     4  10  22  34  58  88 116 158 206 258 288 358
#     4  11  20  37  63  88 120 157 215 262 299 368
#     4  10  19  38  59  88 114 157 198 257 313 355
#     4  10  21  37  58  87 127 150 198 258 316 373
#
# _framework density 18.618604999999999
#
# number of rings (size 3 to 8) (size 9 to 14) (size 15 to 20)
#    0.000    1.538    4.615    0.923    2.154    0.000 
#    0.000    0.000    3.385    0.923    0.000    0.000 
#    0.000    0.000    0.000    0.000    0.000    0.000 
#
# Total GULP energy -144801.592634 kJ/mol
# GULP energy per Si atom -5569.292024 kJ/mol
# Density = 1.857623 g / cm^3
# Si number density = 18.618605 Si / 1000 Ang^3
#
#
#
# Elastic Constant Matrix: (Units=GPa)
#
#
# Indices 1 2 3 4 5 6 
#
# 1 89.0621 18.0946 46.5133 0.0000 -17.8737 0.0000
# 2 18.0946 127.5492 30.5711 0.0001 -4.6420 0.0000
# 3 46.5133 30.5711 86.5441 0.0002 -18.4267 0.0000
# 4 0.0000 0.0001 0.0002 22.8148 0.0000 -6.4008
# 5 -17.8737 -4.6420 -18.4267 0.0000 43.8672 0.0000
# 6 0.0000 0.0000 0.0000 -6.4008 0.0000 16.8598
#
#
#
# Elastic Compliance Matrix: (Units=1/GPa)
#
#
# Indices 1 2 3 4 5 6 
#
# 1 0.016016 -0.000280 -0.007826 0.000000 0.003209 0.000000
# 2 -0.000280 0.008577 -0.002977 0.000000 -0.000457 0.000000
# 3 -0.007826 -0.002977 0.017644 0.000000 0.003908 0.000000
# 4 0.000000 0.000000 0.000000 0.049056 0.000000 0.018624
# 5 0.003209 -0.000457 0.003908 0.000000 0.025697 0.000000
# 6 0.000000 0.000000 0.000000 0.018624 0.000000 0.066383
#
#
# Mechanical properties :
#
#
# Convention : Reuss Voigt Hill
#
# Bulk Modulus (GPa) = 49.81848 54.83483 52.32665
# Shear Modulus (GPa) = 23.55951 30.57344 27.06648
#
# Velocity S-wave (km/s) = 3.56107 4.05667 3.81692
# Velocity P-wave (km/s) = 6.61239 7.17340 6.89860
#
# Compressibility (1/GPa) = 0.02007287
#
# Stress axis : x y z
#
# Youngs Moduli (GPa) = 62.43745 116.59651 56.67533
#
# Poissons Ratio (x) = 0.03260 0.44353
# Poissons Ratio (y) = 0.01746 0.16870
# Poissons Ratio (z) = 0.48863 0.34706
#
# Static dielectric constant tensor:
#      x y z
#    x 1.660240 0.000000 0.010120 
#    y 0.000000 1.655440 0.000000 
#    z 0.010120 0.000000 1.710850 
# 
# From -- ./inp_files/166234.got.cif
#   From: 2010.05.17/outbox.cif.g08.bks.cpg/sg15_84_cif.got.tgz:166234.got - 2010.06.03 18:47:42.
