data_PCOD9266030
_publ_section_title
;
Structure prediction by ZEFSAII (Michael W. Deem and Ramdas Pophale) SiO2 
 PCOD9266030
Probable space group: C 2/C
;
_chemical_formula_sum "Si O2"
_cell_formula_units_Z 64
_cell_length_a 18.670617
_cell_length_b 15.894995
_cell_length_c 12.851982
_cell_angle_alpha 90.000000
_cell_angle_beta 119.196645
_cell_angle_gamma 90.000000
_cell_volume 3329.498806
_symmetry_space_group_name_H-M "C 2/C"
_symmetry_group_IT_number 15
_symmetry_cell_setting 'monoclinic'
loop_
_space_group_symop_operation_xyz
x,y,z
-x,y,1/2-z
-x,-y,-z
x,-y,1/2+z
1/2+x,1/2+y,z
1/2-x,1/2+y,1/2-z
1/2-x,1/2-y,-z
1/2+x,1/2-y,1/2+z
loop_
_atom_site_type_symbol
_atom_site_label
_atom_site_fract_x
_atom_site_fract_y
_atom_site_fract_z
Si Si1 0.372023 0.489693 0.384118
Si Si2 0.647126 0.212421 0.100391
Si Si3 0.084332 0.382732 0.353711
Si Si4 0.244134 0.126834 0.583530
Si Si5 0.580433 0.967105 0.991879
Si Si6 0.514044 0.791146 0.879912
Si Si7 0.252138 0.934980 0.850052
Si Si8 0.020353 0.100252 0.885747
O O1 0.292763 0.448028 0.377485
O O2 0.334189 0.537413 0.258472
O O3 0.414904 0.543464 0.505368
O O4 0.436659 0.420508 0.389379
O O5 0.693545 0.291759 0.083527
O O6 0.575413 0.222358 0.132089
O O7 0.713391 0.145334 0.188116
O O8 0.603241 0.165655 0.973212
O O9 0.159184 0.364397 0.330429
O O10 0.077765 0.480678 0.381330
O O11 0.000000 0.352070 0.250000
O O12 0.238125 0.100040 0.457716
O O13 0.565109 0.867656 0.967043
O O14 0.500000 0.000000 0.000000
O O15 0.671655 0.996990 0.096478
O O16 0.500000 0.813403 0.750000
O O17 0.550067 0.696846 0.911421
O O18 0.000000 0.080498 0.750000
#
# Coordination Sequence:
#
# PCOD9266030 Si02
#       8
#     8   8   8   8   8   8   8   8
#     4  11  22  40  66  87 119 165 209 265 315 366
#     4  10  20  41  57  87 128 159 197 261 317 360
#     4  10  21  35  61  91 119 158 204 250 309 381
#     4  10  21  40  60  86 126 160 201 262 321 363
#     4  10  19  37  59  87 128 161 203 250 311 375
#     4  11  21  38  64  89 128 171 206 260 317 379
#     4  10  22  37  62  90 124 164 208 258 312 386
#     4  10  23  43  62  89 122 163 218 262 312 382
#
# _framework density 19.222111999999999
#
# number of rings (size 3 to 8) (size 9 to 14) (size 15 to 20)
#    0.000    2.000    3.750    2.625    1.750    2.000 
#    6.750    0.625    0.000    6.000    0.000    0.000 
#    0.000    0.000    0.000    0.000    0.000    0.000 
#
# Total GULP energy -178147.873019 kJ/mol
# GULP energy per Si atom -5567.121032 kJ/mol
# Density = 1.917836 g / cm^3
# Si number density = 19.222112 Si / 1000 Ang^3
#
#
#
# Elastic Constant Matrix: (Units=GPa)
#
#
# Indices 1 2 3 4 5 6 
#
# 1 105.6161 32.1027 35.0881 0.0000 1.2648 0.0000
# 2 32.1027 100.3339 40.0286 0.0000 -1.2701 0.0000
# 3 35.0881 40.0286 69.0333 0.0000 12.1009 0.0000
# 4 0.0000 0.0000 0.0000 8.9866 0.0000 -4.9232
# 5 1.2648 -1.2701 12.1009 0.0000 24.5781 0.0000
# 6 0.0000 0.0000 0.0000 -4.9232 0.0000 32.8800
#
#
#
# Elastic Compliance Matrix: (Units=1/GPa)
#
#
# Indices 1 2 3 4 5 6 
#
# 1 0.011712 -0.001574 -0.005385 0.000000 0.001967 0.000000
# 2 -0.001574 0.013713 -0.007978 0.000000 0.004718 0.000000
# 3 -0.005385 -0.007978 0.023939 0.000000 -0.011921 0.000000
# 4 0.000000 0.000000 0.000000 0.121221 0.000000 0.018151
# 5 0.001967 0.004718 -0.011921 0.000000 0.046699 0.000000
# 6 0.000000 0.000000 0.000000 0.018151 0.000000 0.033131
#
#
# Mechanical properties :
#
#
# Convention : Reuss Voigt Hill
#
# Bulk Modulus (GPa) = 51.31132 54.38025 52.84578
# Shear Modulus (GPa) = 17.43455 24.47320 20.95387
#
# Velocity S-wave (km/s) = 3.01492 3.57203 3.30524
# Velocity P-wave (km/s) = 6.23470 6.73531 6.48984
#
# Compressibility (1/GPa) = 0.01948888
#
# Stress axis : x y z
#
# Youngs Moduli (GPa) = 85.38080 72.92311 41.77303
#
# Poissons Ratio (x) = 0.11479 0.22496
# Poissons Ratio (y) = 0.13439 0.33328
# Poissons Ratio (z) = 0.45979 0.58181
#
# Static dielectric constant tensor:
#      x y z
#    x 1.698770 0.000000 0.001680 
#    y 0.000000 1.722360 0.000000 
#    z 0.001680 0.000000 1.691400 
# 
# From -- ./inp_files/162294.got.cif
#   From: 2010.05.17/outbox.cif.g08.bks.cpg/sg15_82_cif.got.tgz:162294.got - 2010.06.03 18:47:42.
