data_PCOD9266137
_publ_section_title
;
Structure prediction by ZEFSAII (Michael W. Deem and Ramdas Pophale) SiO2 
 PCOD9266137
Probable space group: C 2/C
;
_chemical_formula_sum "Si O2"
_cell_formula_units_Z 60
_cell_length_a 5.908985
_cell_length_b 17.141933
_cell_length_c 30.980246
_cell_angle_alpha 90.000000
_cell_angle_beta 116.569150
_cell_angle_gamma 90.000000
_cell_volume 2806.641875
_symmetry_space_group_name_H-M "C 2/C"
_symmetry_group_IT_number 15
_symmetry_cell_setting 'monoclinic'
loop_
_space_group_symop_operation_xyz
x,y,z
-x,y,1/2-z
-x,-y,-z
x,-y,1/2+z
1/2+x,1/2+y,z
1/2-x,1/2+y,1/2-z
1/2-x,1/2-y,-z
1/2+x,1/2-y,1/2+z
loop_
_atom_site_type_symbol
_atom_site_label
_atom_site_fract_x
_atom_site_fract_y
_atom_site_fract_z
Si Si1 0.500000 0.789383 0.250000
Si Si2 0.822979 0.106972 0.955701
Si Si3 0.351143 0.463304 0.547100
Si Si4 0.160498 0.765575 0.674888
Si Si5 0.139381 0.485711 0.115993
Si Si6 0.649306 0.123054 0.377853
Si Si7 0.987370 0.137650 0.832332
Si Si8 0.600241 0.742321 0.593114
O O1 0.389598 0.735314 0.278592
O O2 0.718156 0.844107 0.288359
O O3 0.899510 0.195470 0.951595
O O4 0.579499 0.080129 0.906566
O O5 0.757019 0.089286 0.999609
O O6 0.046448 0.046155 0.962418
O O7 0.161215 0.478582 0.569830
O O8 0.591423 0.418620 0.587297
O O9 0.322808 0.831465 0.664696
O O10 0.307366 0.685520 0.677667
O O11 0.887581 0.766477 0.628470
O O12 0.404518 0.448233 0.152181
O O13 0.055951 0.554746 0.140012
O O14 0.573782 0.184820 0.408969
O O15 0.977651 0.176368 0.878736
#
# Coordination Sequence:
#
# PCOD9266137 Si02
#       8
#     4   8   8   8   8   8   8   8
#     4  10  22  36  68 106 108 142 204 268 304 366
#     4  10  20  35  61  88 127 167 219 254 292 352
#     4  10  21  37  55  93 128 169 211 255 299 352
#     4  10  20  40  61  97 118 152 201 255 305 372
#     4  11  20  38  61  94 123 169 200 254 305 366
#     4  10  23  36  59  92 128 166 199 244 316 364
#     4  10  20  36  65  97 117 149 204 253 305 366
#     4  10  19  37  60  90 119 167 204 252 298 361
#
# _framework density 21.377862
#
# number of rings (size 3 to 8) (size 9 to 14) (size 15 to 20)
#    0.000    1.867    2.667    1.600    0.000    0.533 
#    0.000    2.667    0.000    0.000  156.000    0.000 
#    0.000    0.000    0.000    0.000    0.000    0.000 
#
# Total GULP energy -167567.834482 kJ/mol
# GULP energy per Si atom -5585.594483 kJ/mol
# Density = 2.132920 g / cm^3
# Si number density = 21.377862 Si / 1000 Ang^3
#
#
#
# Elastic Constant Matrix: (Units=GPa)
#
#
# Indices 1 2 3 4 5 6 
#
# 1 72.4788 26.9162 9.2469 0.0000 -19.5485 0.0000
# 2 26.9162 81.2172 18.4703 0.0000 -7.6667 0.0000
# 3 9.2469 18.4703 43.6471 0.0000 -14.4954 0.0000
# 4 0.0000 0.0000 0.0000 11.2825 0.0000 -2.8814
# 5 -19.5485 -7.6667 -14.4954 0.0000 31.1152 0.0000
# 6 0.0000 0.0000 0.0000 -2.8814 0.0000 29.2924
#
#
#
# Elastic Compliance Matrix: (Units=1/GPa)
#
#
# Indices 1 2 3 4 5 6 
#
# 1 0.018668 -0.005613 0.002196 0.000000 0.011368 0.000000
# 2 -0.005613 0.015328 -0.006168 0.000000 -0.002623 0.000000
# 3 0.002196 -0.006168 0.029587 0.000000 0.013643 0.000000
# 4 0.000000 0.000000 0.000000 0.090917 0.000000 0.008943
# 5 0.011368 -0.002623 0.013643 0.000000 0.044990 0.000000
# 6 0.000000 0.000000 0.000000 0.008943 0.000000 0.035018
#
#
# Mechanical properties :
#
#
# Convention : Reuss Voigt Hill
#
# Bulk Modulus (GPa) = 22.51668 34.06776 28.29222
# Shear Modulus (GPa) = 18.62315 23.85199 21.23757
#
# Velocity S-wave (km/s) = 2.95471 3.34388 3.15530
# Velocity P-wave (km/s) = 4.71126 5.55692 5.15147
#
# Compressibility (1/GPa) = 0.04441153
#
# Stress axis : x y z
#
# Youngs Moduli (GPa) = 53.56897 65.23996 33.79851
#
# Poissons Ratio (x) = 0.36618 -0.07421
# Poissons Ratio (y) = 0.30067 0.20849
# Poissons Ratio (z) = -0.11763 0.40243
#
# Static dielectric constant tensor:
#      x y z
#    x 1.814240 0.000000 -0.016810 
#    y 0.000000 1.771250 0.000000 
#    z -0.016810 0.000000 1.776940 
# 
# From -- ./inp_files/305830.got.cif
#   From: 2010.05.17/outbox.cif.g08.bks.cpg/sg15_153_cif.got.tgz:305830.got - 2010.06.03 18:47:42.
