data_PCOD9266029
_publ_section_title
;
Structure prediction by ZEFSAII (Michael W. Deem and Ramdas Pophale) SiO2 
 PCOD9266029
Probable space group: C 2/C
;
_chemical_formula_sum "Si O2"
_cell_formula_units_Z 48
_cell_length_a 9.144152
_cell_length_b 22.646075
_cell_length_c 11.011817
_cell_angle_alpha 90.000000
_cell_angle_beta 83.157915
_cell_angle_gamma 90.000000
_cell_volume 2264.077919
_symmetry_space_group_name_H-M "C 2/C"
_symmetry_group_IT_number 15
_symmetry_cell_setting 'monoclinic'
loop_
_space_group_symop_operation_xyz
x,y,z
-x,y,1/2-z
-x,-y,-z
x,-y,1/2+z
1/2+x,1/2+y,z
1/2-x,1/2+y,1/2-z
1/2-x,1/2-y,-z
1/2+x,1/2-y,1/2+z
loop_
_atom_site_type_symbol
_atom_site_label
_atom_site_fract_x
_atom_site_fract_y
_atom_site_fract_z
Si Si1 0.321674 0.039556 0.779212
Si Si2 0.205081 0.244694 0.361597
Si Si3 0.842220 0.532439 0.507284
Si Si4 0.422061 0.251473 0.008344
Si Si5 0.362452 0.652176 0.692595
Si Si6 0.414142 0.853016 0.868507
O O1 0.500000 0.042225 0.750000
O O2 0.269644 0.025003 0.646663
O O3 0.257614 0.103090 0.822848
O O4 0.274853 0.995040 0.890979
O O5 0.250000 0.250000 0.500000
O O6 0.284363 0.295521 0.277511
O O7 0.274849 0.181324 0.325474
O O8 0.029838 0.249806 0.382852
O O9 0.868334 0.601446 0.476500
O O10 0.000000 0.500000 0.500000
O O11 0.438101 0.313902 0.073834
O O12 0.477970 0.197423 0.087209
O O13 0.250000 0.250000 0.000000
O O14 0.500000 0.624772 0.750000
O O15 0.500000 0.884667 0.750000
#
# Coordination Sequence:
#
# PCOD9266029 Si02
#       6
#     8   8   8   8   8   8
#     4  10  23  41  67  95 129 170 227 282 322 393
#     4  10  19  37  59  87 124 165 206 252 329 389
#     4  10  22  40  65  97 123 174 229 273 327 380
#     4  11  24  35  59  97 125 166 211 269 330 391
#     4  12  22  41  63  96 131 171 219 267 345 400
#     4  11  19  39  63  87 128 170 215 264 325 398
#
# _framework density 21.200683000000001
#
# number of rings (size 3 to 8) (size 9 to 14) (size 15 to 20)
#    0.000    1.333    5.000    3.500    7.000    0.000 
#    0.000    0.833    0.000    0.000    0.000    0.000 
#    0.000    0.000    0.000    0.000    0.000    0.000 
#
# Total GULP energy -133872.148449 kJ/mol
# GULP energy per Si atom -5578.006185 kJ/mol
# Density = 2.115243 g / cm^3
# Si number density = 21.200683 Si / 1000 Ang^3
#
#
#
# Elastic Constant Matrix: (Units=GPa)
#
#
# Indices 1 2 3 4 5 6 
#
# 1 87.8723 9.7065 4.7141 0.0000 -11.4333 0.0000
# 2 9.7065 83.0971 22.4510 0.0000 0.9032 0.0000
# 3 4.7141 22.4510 121.5377 0.0000 -6.5380 0.0000
# 4 0.0000 0.0000 0.0000 14.9197 0.0000 4.9263
# 5 -11.4333 0.9032 -6.5380 0.0000 23.1154 0.0000
# 6 0.0000 0.0000 0.0000 4.9263 0.0000 29.4158
#
#
#
# Elastic Compliance Matrix: (Units=1/GPa)
#
#
# Indices 1 2 3 4 5 6 
#
# 1 0.012352 -0.001548 0.000141 0.000000 0.006210 0.000000
# 2 -0.001548 0.012892 -0.002427 0.000000 -0.001956 0.000000
# 3 0.000141 -0.002427 0.008814 0.000000 0.002657 0.000000
# 4 0.000000 0.000000 0.000000 0.070949 0.000000 -0.011882
# 5 0.006210 -0.001956 0.002657 0.000000 0.047161 0.000000
# 6 0.000000 0.000000 0.000000 -0.011882 0.000000 0.035985
#
#
# Mechanical properties :
#
#
# Convention : Reuss Voigt Hill
#
# Bulk Modulus (GPa) = 37.89446 40.69449 39.29448
# Shear Modulus (GPa) = 24.43602 30.53255 27.48429
#
# Velocity S-wave (km/s) = 3.39869 3.79907 3.60444
# Velocity P-wave (km/s) = 5.77186 6.20327 5.99145
#
# Compressibility (1/GPa) = 0.02638908
#
# Stress axis : x y z
#
# Youngs Moduli (GPa) = 80.96128 77.56840 113.46050
#
# Poissons Ratio (x) = 0.12010 -0.01600
# Poissons Ratio (y) = 0.12536 0.27532
# Poissons Ratio (z) = -0.01141 0.18823
#
# Static dielectric constant tensor:
#      x y z
#    x 1.802920 0.000000 0.066580 
#    y 0.000000 1.750440 0.000000 
#    z 0.066580 0.000000 1.824720 
# 
# From -- ./inp_files/79115.got.cif
#   From: 2010.05.17/outbox.cif.g08.bks.cpg/sg15_40_cif.got.tgz:79115.got - 2010.06.03 18:47:42.
