data_PCOD9266786
_publ_section_title
;
Structure prediction by ZEFSAII (Michael W. Deem and Ramdas Pophale) SiO2 
 PCOD9266786
Probable space group: C 2/C
;
_chemical_formula_sum "Si O2"
_cell_formula_units_Z 56
_cell_length_a 27.804904
_cell_length_b 11.625738
_cell_length_c 25.225488
_cell_angle_alpha 90.000000
_cell_angle_beta 163.584218
_cell_angle_gamma 90.000000
_cell_volume 2304.424083
_symmetry_space_group_name_H-M "C 2/C"
_symmetry_group_IT_number 15
_symmetry_cell_setting 'monoclinic'
loop_
_space_group_symop_operation_xyz
x,y,z
-x,y,1/2-z
-x,-y,-z
x,-y,1/2+z
1/2+x,1/2+y,z
1/2-x,1/2+y,1/2-z
1/2-x,1/2-y,-z
1/2+x,1/2-y,1/2+z
loop_
_atom_site_type_symbol
_atom_site_label
_atom_site_fract_x
_atom_site_fract_y
_atom_site_fract_z
Si Si1 0.710098 0.178650 0.405188
Si Si2 0.373004 0.808425 0.235335
Si Si3 0.173363 0.434656 0.410819
Si Si4 0.762070 0.574525 0.404406
Si Si5 0.371514 0.901697 0.432315
Si Si6 0.261399 0.983661 0.203444
Si Si7 0.450542 0.329529 0.067112
O O1 0.750000 0.250000 0.500000
O O2 0.871000 0.143420 0.540870
O O3 0.628101 0.057214 0.335474
O O4 0.611274 0.258305 0.259051
O O5 0.264656 0.846621 0.068348
O O6 0.374005 0.674377 0.248713
O O7 0.560040 0.858192 0.420666
O O8 0.291838 0.874774 0.198418
O O9 0.269203 0.459377 0.567050
O O10 0.000000 0.382231 0.250000
O O11 0.786499 0.465377 0.392727
O O12 0.569176 0.939154 0.631461
O O13 0.367200 0.767264 0.440582
O O14 0.273525 0.943623 0.276645
O O15 0.092475 0.054118 0.009861
#
# Coordination Sequence:
#
# PCOD9266786 Si02
#       7
#     8   8   8   8   8   8   8
#     4  12  23  39  65  95 133 171 211 271 330 395
#     4  10  20  40  59  90 121 165 211 262 319 380
#     4  10  19  38  61  84 123 170 204 251 328 392
#     4  10  21  38  64  87 123 165 216 256 325 387
#     4  10  22  42  66  90 130 178 212 269 335 388
#     4  10  22  42  67  89 131 176 218 264 330 398
#     4  12  22  43  65  98 127 175 224 263 332 396
#
# _framework density 24.301081
#
# number of rings (size 3 to 8) (size 9 to 14) (size 15 to 20)
#    0.000    1.429    2.857    4.286    2.000    0.000 
#    5.143    0.714    0.000    0.000    0.000    0.000 
#    0.000    0.000    0.000    0.000    0.000    0.000 
#
# Total GULP energy -156279.135939 kJ/mol
# GULP energy per Si atom -5581.397712 kJ/mol
# Density = 2.424577 g / cm^3
# Si number density = 24.301081 Si / 1000 Ang^3
#
#
#
# Elastic Constant Matrix: (Units=GPa)
#
#
# Indices 1 2 3 4 5 6 
#
# 1 58.9893 15.2343 8.3944 0.0041 -25.5544 0.0036
# 2 15.2343 114.7610 26.1726 0.0020 -11.8841 0.0036
# 3 8.3944 26.1726 51.7949 -0.0010 -8.9529 0.0018
# 4 0.0041 0.0020 -0.0010 29.3584 -0.0069 -8.1968
# 5 -25.5544 -11.8841 -8.9529 -0.0069 35.2810 -0.0034
# 6 0.0036 0.0036 0.0018 -8.1968 -0.0034 31.9141
#
#
#
# Elastic Compliance Matrix: (Units=1/GPa)
#
#
# Indices 1 2 3 4 5 6 
#
# 1 0.024952 -0.001432 -0.000293 0.000000 0.017516 -0.000001
# 2 -0.001432 0.010089 -0.004662 -0.000001 0.001178 -0.000001
# 3 -0.000293 -0.004662 0.022384 0.000002 0.003898 0.000000
# 4 0.000000 -0.000001 0.000002 0.036693 0.000009 0.009424
# 5 0.017516 0.001178 0.003898 0.000009 0.042417 0.000004
# 6 -0.000001 -0.000001 0.000000 0.009424 0.000004 0.033755
#
#
# Mechanical properties :
#
#
# Convention : Reuss Voigt Hill
#
# Bulk Modulus (GPa) = 22.39579 36.12755 29.26167
# Shear Modulus (GPa) = 25.25925 31.02695 28.14310
#
# Velocity S-wave (km/s) = 3.22752 3.57707 3.40678
# Velocity P-wave (km/s) = 4.80886 5.65327 5.24808
#
# Compressibility (1/GPa) = 0.04465124
#
# Stress axis : x y z
#
# Youngs Moduli (GPa) = 40.07735 99.11624 44.67458
#
# Poissons Ratio (x) = 0.14190 0.01308
# Poissons Ratio (y) = 0.05738 0.20829
# Poissons Ratio (z) = 0.01173 0.46213
#
# Static dielectric constant tensor:
#      x y z
#    x 1.876700 0.000000 0.009210 
#    y 0.000000 1.930320 0.000000 
#    z 0.009210 0.000000 2.075140 
# 
# From -- ./inp_files/284635.got.cif
#   From: 2010.05.17/outbox.cif.g08.bks.cpg/sg15_143_cif.got.tgz:284635.got - 2010.06.03 18:47:42.
