data_PCOD9266865
_publ_section_title
;
Structure prediction by ZEFSAII (Michael W. Deem and Ramdas Pophale) SiO2 
 PCOD9266865
Probable space group: C 2/C
;
_chemical_formula_sum "Si O2"
_cell_formula_units_Z 32
_cell_length_a 20.366152
_cell_length_b 12.125585
_cell_length_c 14.010001
_cell_angle_alpha 90.000000
_cell_angle_beta 27.950744
_cell_angle_gamma 90.000000
_cell_volume 1621.646663
_symmetry_space_group_name_H-M "C 2/C"
_symmetry_group_IT_number 15
_symmetry_cell_setting 'monoclinic'
loop_
_space_group_symop_operation_xyz
x,y,z
-x,y,1/2-z
-x,-y,-z
x,-y,1/2+z
1/2+x,1/2+y,z
1/2-x,1/2+y,1/2-z
1/2-x,1/2-y,-z
1/2+x,1/2-y,1/2+z
loop_
_atom_site_type_symbol
_atom_site_label
_atom_site_fract_x
_atom_site_fract_y
_atom_site_fract_z
Si Si1 0.799378 0.891858 0.000789
Si Si2 0.385768 0.572376 0.590427
Si Si3 0.473615 0.216976 0.651213
Si Si4 0.861943 0.490934 0.469381
O O1 0.876397 0.952731 0.988580
O O2 0.659403 0.839395 0.227911
O O3 0.890775 0.795033 0.834468
O O4 0.737699 0.960646 0.992042
O O5 0.500000 0.500000 0.500000
O O6 0.436645 0.698969 0.526119
O O7 0.236285 0.551778 0.830173
O O8 0.572503 0.120811 0.566972
O O9 0.000000 0.549792 0.250000
#
# Coordination Sequence:
#
# PCOD9266865 Si02
#       4
#     8   8   8   8
#     4  10  19  38  62  88 121 145 193 255 287 336
#     4  12  23  33  60  96 115 152 196 240 296 349
#     4  10  20  38  65  90 115 148 197 253 293 333
#     4  10  22  38  60  90 118 153 195 244 296 340
#
# _framework density 19.733027
#
# number of rings (size 3 to 8) (size 9 to 14) (size 15 to 20)
#    0.000    1.500    2.500    6.750    0.000    4.000 
#    0.000    0.000    0.000    9.000    0.000    0.000 
#    0.000    0.000    0.000    0.000    0.000    0.000 
#
# Total GULP energy -89114.054999 kJ/mol
# GULP energy per Si atom -5569.628437 kJ/mol
# Density = 1.968811 g / cm^3
# Si number density = 19.733027 Si / 1000 Ang^3
#
#
#
# Elastic Constant Matrix: (Units=GPa)
#
#
# Indices 1 2 3 4 5 6 
#
# 1 131.1922 31.1551 32.4317 0.0000 -11.2199 0.0000
# 2 31.1551 47.0590 51.8535 0.0000 7.5842 0.0000
# 3 32.4317 51.8535 153.4968 0.0000 9.7856 0.0000
# 4 0.0000 0.0000 0.0000 52.1124 0.0000 4.4424
# 5 -11.2199 7.5842 9.7856 0.0000 24.2603 0.0000
# 6 0.0000 0.0000 0.0000 4.4424 0.0000 26.1045
#
#
#
# Elastic Compliance Matrix: (Units=1/GPa)
#
#
# Indices 1 2 3 4 5 6 
#
# 1 0.010090 -0.007928 0.000093 0.000000 0.007107 0.000000
# 2 -0.007928 0.040991 -0.011415 0.000000 -0.011877 0.000000
# 3 0.000093 -0.011415 0.010388 0.000000 -0.000578 0.000000
# 4 0.000000 0.000000 0.000000 0.019472 0.000000 -0.003314
# 5 0.007107 -0.011877 -0.000578 0.000000 0.048453 0.000000
# 6 0.000000 0.000000 0.000000 -0.003314 0.000000 0.038871
#
#
# Mechanical properties :
#
#
# Convention : Reuss Voigt Hill
#
# Bulk Modulus (GPa) = 43.53684 62.51427 53.02555
# Shear Modulus (GPa) = 23.31858 34.91596 29.11727
#
# Velocity S-wave (km/s) = 3.44132 4.21101 3.84547
# Velocity P-wave (km/s) = 6.15638 7.44260 6.82984
#
# Compressibility (1/GPa) = 0.02296906
#
# Stress axis : x y z
#
# Youngs Moduli (GPa) = 99.10865 24.39564 96.26383
#
# Poissons Ratio (x) = 0.19341 -0.00898
# Poissons Ratio (y) = 0.78576 1.09886
# Poissons Ratio (z) = -0.00925 0.27848
#
# Static dielectric constant tensor:
#      x y z
#    x 1.767900 0.000000 -0.040780 
#    y 0.000000 1.698340 0.000000 
#    z -0.040780 0.000000 1.759870 
# 
# From -- ./inp_files/167064.got.cif
#   From: 2010.05.17/outbox.cif.g08.bks.cpg/sg15_84_cif.got.tgz:167064.got - 2010.06.03 18:47:42.
