data_PCOD9266257
_publ_section_title
;
Structure prediction by ZEFSAII (Michael W. Deem and Ramdas Pophale) SiO2 
 PCOD9266257
Probable space group: C 2/C
;
_chemical_formula_sum "Si O2"
_cell_formula_units_Z 60
_cell_length_a 13.779076
_cell_length_b 23.791033
_cell_length_c 17.393217
_cell_angle_alpha 90.000000
_cell_angle_beta 149.014661
_cell_angle_gamma 90.000000
_cell_volume 2935.402393
_symmetry_space_group_name_H-M "C 2/C"
_symmetry_group_IT_number 15
_symmetry_cell_setting 'monoclinic'
loop_
_space_group_symop_operation_xyz
x,y,z
-x,y,1/2-z
-x,-y,-z
x,-y,1/2+z
1/2+x,1/2+y,z
1/2-x,1/2+y,1/2-z
1/2-x,1/2-y,-z
1/2+x,1/2-y,1/2+z
loop_
_atom_site_type_symbol
_atom_site_label
_atom_site_fract_x
_atom_site_fract_y
_atom_site_fract_z
Si Si1 0.065321 0.458975 0.111650
Si Si2 0.284155 0.255600 0.113004
Si Si3 0.335947 0.563982 0.079197
Si Si4 0.500000 0.223361 0.750000
Si Si5 0.791109 0.320935 0.973110
Si Si6 0.716715 0.011989 0.363033
Si Si7 0.028633 0.356665 0.994141
Si Si8 0.834757 0.366362 0.700401
O O1 0.201277 0.485041 0.267895
O O2 0.139275 0.404912 0.115579
O O3 0.000000 0.500000 0.000000
O O4 0.870988 0.445199 0.024688
O O5 0.500000 0.273146 0.250000
O O6 0.157053 0.303463 0.063509
O O7 0.250640 0.196460 0.135150
O O8 0.250000 0.250000 0.000000
O O9 0.500000 0.547343 0.250000
O O10 0.340173 0.632078 0.074879
O O11 0.335120 0.527263 0.001219
O O12 0.679193 0.264244 0.877564
O O13 0.468793 0.187605 0.651433
O O14 0.862115 0.341303 0.939204
O O15 0.500000 0.013591 0.250000
O O16 0.779517 0.077128 0.398021
O O17 0.933102 0.375854 0.849642
O O18 0.000000 0.363011 0.750000
#
# Coordination Sequence:
#
# PCOD9266257 Si02
#       8
#     8   8   8   4   8   8   8   8
#     4  10  20  38  64  90 119 156 209 257 301 370
#     4  11  22  39  61  88 127 165 204 252 306 369
#     4  10  21  39  63  87 121 159 203 257 311 359
#     4  10  22  42  58  88 122 162 206 250 318 374
#     4  10  23  38  63  87 124 160 207 256 308 375
#     4   9  19  36  65  90 113 164 205 244 306 377
#     4  11  22  37  64  92 122 162 205 254 311 364
#     4  10  19  37  62  86 124 160 202 249 309 370
#
# _framework density 20.440128000000001
#
# number of rings (size 3 to 8) (size 9 to 14) (size 15 to 20)
#    0.000    1.867    4.667    0.000    6.533    0.000 
#    0.000    3.333    5.867    0.000    0.000    0.000 
#    0.000    0.000    0.000    0.000    0.000    0.000 
#
# Total GULP energy -167104.625322 kJ/mol
# GULP energy per Si atom -5570.154177 kJ/mol
# Density = 2.039361 g / cm^3
# Si number density = 20.440128 Si / 1000 Ang^3
#
#
#
# Elastic Constant Matrix: (Units=GPa)
#
#
# Indices 1 2 3 4 5 6 
#
# 1 60.3764 34.5046 17.9880 -0.0004 -31.7851 0.0052
# 2 34.5046 137.1901 30.1530 -0.0001 -21.0154 0.0026
# 3 17.9880 30.1530 87.5034 -0.0026 -29.1871 0.0388
# 4 -0.0004 -0.0001 -0.0026 34.5734 -0.0010 -62.2284
# 5 -31.7851 -21.0154 -29.1871 -0.0010 32.7861 0.0141
# 6 0.0052 0.0026 0.0388 -62.2284 0.0141 1068.8117
#
#
#
# Elastic Compliance Matrix: (Units=1/GPa)
#
#
# Indices 1 2 3 4 5 6 
#
# 1 0.038886 -0.005132 0.007470 0.000000 0.041059 -0.000001
# 2 -0.005132 0.008902 -0.002516 0.000000 -0.001510 0.000000
# 3 0.007470 -0.002516 0.017975 0.000000 0.021631 -0.000001
# 4 0.000000 0.000000 0.000000 0.032310 0.000001 0.001881
# 5 0.041059 -0.001510 0.021631 0.000001 0.088595 -0.000002
# 6 -0.000001 0.000000 -0.000001 0.001881 -0.000002 0.001045
#
#
# Mechanical properties :
#
#
# Convention : Reuss Voigt Hill
#
# Bulk Modulus (GPa) = 15.28915 50.04012 32.66464
# Shear Modulus (GPa) = 23.82427 240.72921 132.27674
#
# Velocity S-wave (km/s) = 3.41774 10.86409 8.05324
# Velocity P-wave (km/s) = 4.80321 13.48725 10.12365
#
# Compressibility (1/GPa) = 0.06540588
#
# Stress axis : x y z
#
# Youngs Moduli (GPa) = 25.71641 112.33772 55.63421
#
# Poissons Ratio (x) = 0.57656 -0.41560
# Poissons Ratio (y) = 0.13199 0.13997
# Poissons Ratio (z) = -0.19211 0.28263
#
# Static dielectric constant tensor:
#      x y z
#    x 1.721030 0.000000 -0.001130 
#    y 0.000000 1.847360 0.000000 
#    z -0.001130 0.000000 1.687030 
# 
# From -- ./inp_files/207257.got.cif
#   From: 2010.05.17/outbox.cif.g08.bks.cpg/sg15_104_cif.got.tgz:207257.got - 2010.06.03 18:47:42.
