data_PCOD9266650
_publ_section_title
;
Structure prediction by ZEFSAII (Michael W. Deem and Ramdas Pophale) SiO2 
 PCOD9266650
Probable space group: C 2/C
;
_chemical_formula_sum "Si O2"
_cell_formula_units_Z 64
_cell_length_a 12.609981
_cell_length_b 7.452861
_cell_length_c 24.458944
_cell_angle_alpha 90.000000
_cell_angle_beta 95.827532
_cell_angle_gamma 90.000000
_cell_volume 2286.782803
_symmetry_space_group_name_H-M "C 2/C"
_symmetry_group_IT_number 15
_symmetry_cell_setting 'monoclinic'
loop_
_space_group_symop_operation_xyz
x,y,z
-x,y,1/2-z
-x,-y,-z
x,-y,1/2+z
1/2+x,1/2+y,z
1/2-x,1/2+y,1/2-z
1/2-x,1/2-y,-z
1/2+x,1/2-y,1/2+z
loop_
_atom_site_type_symbol
_atom_site_label
_atom_site_fract_x
_atom_site_fract_y
_atom_site_fract_z
Si Si1 0.833634 0.984432 0.224334
Si Si2 0.295325 0.399197 0.892327
Si Si3 0.947324 0.712351 0.023826
Si Si4 0.977271 0.383745 0.859865
Si Si5 0.854108 0.441240 0.712535
Si Si6 0.800402 0.525098 0.924943
Si Si7 0.518480 0.461524 0.666381
Si Si8 0.145472 0.902450 0.995623
O O1 0.857796 0.773254 0.221628
O O2 0.905519 0.067071 0.276996
O O3 0.894639 0.072011 0.175133
O O4 0.710562 0.995543 0.237062
O O5 0.228610 0.488045 0.840508
O O6 0.244071 0.204390 0.899284
O O7 0.417940 0.364002 0.878630
O O8 0.304337 0.516389 0.946571
O O9 0.952126 0.606885 0.080925
O O10 0.915036 0.919556 0.030510
O O11 0.872211 0.619381 0.975972
O O12 0.064584 0.744318 0.004697
O O13 0.031451 0.480952 0.810520
O O14 0.865560 0.447337 0.878011
O O15 0.970199 0.172829 0.846569
O O16 0.730243 0.378415 0.952203
#
# Coordination Sequence:
#
# PCOD9266650 Si02
#       8
#     8   8   8   8   8   8   8   8
#     4   9  20  37  57  83 103 140 185 235 297 349
#     4  10  19  38  58  81 108 154 193 231 275 347
#     4  10  20  37  58  82 118 162 190 236 284 339
#     4  11  21  37  55  84 116 149 185 240 286 334
#     4  10  21  37  61  79 111 143 186 237 290 350
#     4  11  23  35  54  89 120 149 199 241 279 333
#     4   9  19  38  58  74 110 148 184 227 294 357
#     4  10  20  37  59  82 118 160 199 228 282 344
#
# _framework density 27.986916000000001
#
# number of rings (size 3 to 8) (size 9 to 14) (size 15 to 20)
#    0.000    2.000    1.250    3.375    0.000    2.500 
#    4.500    0.000    0.000    0.000    0.000    0.000 
#    0.000    0.000    0.000    0.000    0.000    0.000 
#
# Total GULP energy -179067.508315 kJ/mol
# GULP energy per Si atom -5595.859635 kJ/mol
# Density = 2.792322 g / cm^3
# Si number density = 27.986916 Si / 1000 Ang^3
#
#
#
# Elastic Constant Matrix: (Units=GPa)
#
#
# Indices 1 2 3 4 5 6 
#
# 1 127.4476 4.2307 60.7174 0.0000 -64.0946 0.0000
# 2 4.2307 54.4521 10.9441 0.0000 -23.7625 0.0000
# 3 60.7174 10.9441 167.0475 0.0000 -31.1336 0.0000
# 4 0.0000 0.0000 0.0000 19.7379 0.0000 -13.9031
# 5 -64.0946 -23.7625 -31.1336 0.0000 78.5313 0.0000
# 6 0.0000 0.0000 0.0000 -13.9031 0.0000 40.4912
#
#
#
# Elastic Compliance Matrix: (Units=1/GPa)
#
#
# Indices 1 2 3 4 5 6 
#
# 1 0.016133 0.005296 -0.003734 0.000000 0.013289 0.000000
# 2 0.005296 0.022904 -0.001434 0.000000 0.010685 0.000000
# 3 -0.003734 -0.001434 0.007330 0.000000 -0.000576 0.000000
# 4 0.000000 0.000000 0.000000 0.066827 0.000000 0.022946
# 5 0.013289 0.010685 -0.000576 0.000000 0.026585 0.000000
# 6 0.000000 0.000000 0.000000 0.022946 0.000000 0.032575
#
#
# Mechanical properties :
#
#
# Convention : Reuss Voigt Hill
#
# Bulk Modulus (GPa) = 21.44852 55.63685 38.54268
# Shear Modulus (GPa) = 26.64688 45.95575 36.30131
#
# Velocity S-wave (km/s) = 3.08899 4.05661 3.60541
# Velocity P-wave (km/s) = 4.51696 6.47025 5.57974
#
# Compressibility (1/GPa) = 0.04662326
#
# Stress axis : x y z
#
# Youngs Moduli (GPa) = 61.98557 43.66013 136.42106
#
# Poissons Ratio (x) = -0.23124 0.50940
# Poissons Ratio (y) = -0.32830 0.19567
# Poissons Ratio (z) = 0.23146 0.06262
#
# Static dielectric constant tensor:
#      x y z
#    x 2.402440 0.000000 -0.045140 
#    y 0.000000 2.133040 0.000000 
#    z -0.045140 0.000000 2.173940 
# 
# From -- ./inp_files/295152.got.cif
#   From: 2010.05.17/outbox.cif.g08.bks.cpg/sg15_148_cif.got.tgz:295152.got - 2010.06.03 18:47:42.
