data_PCOD9266746
_publ_section_title
;
Structure prediction by ZEFSAII (Michael W. Deem and Ramdas Pophale) SiO2 
 PCOD9266746
Probable space group: C 2/C
;
_chemical_formula_sum "Si O2"
_cell_formula_units_Z 60
_cell_length_a 19.411602
_cell_length_b 14.421138
_cell_length_c 25.498285
_cell_angle_alpha 90.000000
_cell_angle_beta 159.289639
_cell_angle_gamma 90.000000
_cell_volume 2524.283761
_symmetry_space_group_name_H-M "C 2/C"
_symmetry_group_IT_number 15
_symmetry_cell_setting 'monoclinic'
loop_
_space_group_symop_operation_xyz
x,y,z
-x,y,1/2-z
-x,-y,-z
x,-y,1/2+z
1/2+x,1/2+y,z
1/2-x,1/2+y,1/2-z
1/2-x,1/2-y,-z
1/2+x,1/2-y,1/2+z
loop_
_atom_site_type_symbol
_atom_site_label
_atom_site_fract_x
_atom_site_fract_y
_atom_site_fract_z
Si Si1 0.720739 0.296663 0.423620
Si Si2 0.476532 0.077148 0.374381
Si Si3 0.220467 0.622118 0.759917
Si Si4 0.699812 0.117546 0.357516
Si Si5 0.106886 0.814022 0.728087
Si Si6 0.000000 0.280220 0.250000
Si Si7 0.641772 0.586767 0.531310
Si Si8 0.489781 0.110408 0.986389
O O1 0.500000 0.305163 0.250000
O O2 0.750000 0.250000 0.500000
O O3 0.803982 0.400258 0.485522
O O4 0.803593 0.212731 0.446543
O O5 0.352671 0.124053 0.240854
O O6 0.476301 0.133355 0.428480
O O7 0.413304 0.970603 0.329871
O O8 0.129957 0.717719 0.714171
O O9 0.378122 0.604102 0.919494
O O10 0.206548 0.631815 0.686195
O O11 0.500000 0.110043 0.250000
O O12 0.812079 0.021233 0.444568
O O13 0.315166 0.846891 0.899993
O O14 0.967707 0.787715 0.677460
O O15 0.032829 0.886170 0.631715
O O16 0.178316 0.348089 0.360289
O O17 0.500000 0.000000 0.000000
#
# Coordination Sequence:
#
# PCOD9266746 Si02
#       8
#     8   8   8   8   8   4   8   8
#     4  11  21  39  64  88 123 158 215 269 321 384
#     4  10  21  41  65  88 124 172 206 264 329 370
#     4   9  20  40  65  88 129 170 203 262 319 374
#     4  10  19  38  60  87 121 163 202 261 322 374
#     4  11  22  40  65  99 126 173 218 255 312 396
#     4  10  20  36  64  98 140 164 206 268 330 370
#     4  10  20  36  65  93 127 167 209 258 316 382
#     4  10  23  45  63  86 135 172 210 267 323 372
#
# _framework density 23.769119
#
# number of rings (size 3 to 8) (size 9 to 14) (size 15 to 20)
#    0.000    1.867    3.333    2.000    0.000    2.133 
#    7.200    7.333    1.467    0.000    0.000    0.000 
#    0.000    0.000    0.000    0.000    0.000    0.000 
#
# Total GULP energy -167029.100471 kJ/mol
# GULP energy per Si atom -5567.636682 kJ/mol
# Density = 2.371502 g / cm^3
# Si number density = 23.769119 Si / 1000 Ang^3
#
#
#
# Elastic Constant Matrix: (Units=GPa)
#
#
# Indices 1 2 3 4 5 6 
#
# 1 46.2783 31.4955 21.3296 -0.0436 -23.1530 -0.0369
# 2 31.4955 97.1990 34.8370 -0.0411 -11.0057 -0.0305
# 3 21.3296 34.8370 110.1606 -0.0848 -21.6065 -0.0656
# 4 -0.0436 -0.0411 -0.0848 40.9584 0.0492 -0.9931
# 5 -23.1530 -11.0057 -21.6065 0.0492 38.5475 0.0278
# 6 -0.0369 -0.0305 -0.0656 -0.9931 0.0278 0.1024
#
#
#
# Elastic Compliance Matrix: (Units=1/GPa)
#
#
# Indices 1 2 3 4 5 6 
#
# 1 0.038792 -0.010161 -0.000330 0.000175 0.020209 0.006978
# 2 -0.010161 0.014334 -0.003326 -0.000013 -0.003874 -0.000605
# 3 -0.000330 -0.003326 0.011203 0.000166 0.005127 0.006289
# 4 0.000175 -0.000013 0.000166 0.031928 -0.000069 0.309833
# 5 0.020209 -0.003874 0.005127 -0.000069 0.039849 -0.002055
# 6 0.006978 -0.000605 0.006289 0.309833 -0.002055 12.778039
#
#
# Mechanical properties :
#
#
# Convention : Reuss Voigt Hill
#
# Bulk Modulus (GPa) = 27.25164 47.66246 37.45705
# Shear Modulus (GPa) = 0.38598 26.98671 13.68635
#
# Velocity S-wave (km/s) = 0.40341 3.37318 2.40219
# Velocity P-wave (km/s) = 3.42155 5.93859 4.84634
#
# Compressibility (1/GPa) = 0.03669505
#
# Stress axis : x y z
#
# Youngs Moduli (GPa) = 25.77872 69.76524 89.26432
#
# Poissons Ratio (x) = 0.70889 0.02943
# Poissons Ratio (y) = 0.26194 0.29687
# Poissons Ratio (z) = 0.00850 0.23202
#
# Static dielectric constant tensor:
#      x y z
#    x 1.996700 -0.000130 0.039350 
#    y -0.000130 1.931570 -0.000030 
#    z 0.039350 -0.000030 1.999120 
# 
# From -- ./inp_files/302373.got.cif
#   From: 2010.05.17/outbox.cif.g08.bks.cpg/sg15_152_cif.got.tgz:302373.got - 2010.06.03 18:47:42.
