data_PCOD9266085
_publ_section_title
;
Structure prediction by ZEFSAII (Michael W. Deem and Ramdas Pophale) SiO2 
 PCOD9266085
Probable space group: C 2/C
;
_chemical_formula_sum "Si O2"
_cell_formula_units_Z 56
_cell_length_a 11.091183
_cell_length_b 9.065048
_cell_length_c 27.942821
_cell_angle_alpha 90.000000
_cell_angle_beta 70.052210
_cell_angle_gamma 90.000000
_cell_volume 2640.875208
_symmetry_space_group_name_H-M "C 2/C"
_symmetry_group_IT_number 15
_symmetry_cell_setting 'monoclinic'
loop_
_space_group_symop_operation_xyz
x,y,z
-x,y,1/2-z
-x,-y,-z
x,-y,1/2+z
1/2+x,1/2+y,z
1/2-x,1/2+y,1/2-z
1/2-x,1/2-y,-z
1/2+x,1/2-y,1/2+z
loop_
_atom_site_type_symbol
_atom_site_label
_atom_site_fract_x
_atom_site_fract_y
_atom_site_fract_z
Si Si1 0.999160 0.848073 0.306105
Si Si2 0.880690 0.018380 0.131201
Si Si3 0.568094 0.312883 0.052357
Si Si4 0.894044 0.256108 0.398870
Si Si5 0.479788 0.145792 0.533303
Si Si6 0.733558 0.477308 0.100190
Si Si7 0.396900 0.918119 0.867659
O O1 0.000000 0.874000 0.250000
O O2 0.989366 0.675143 0.320508
O O3 0.868956 0.914698 0.347928
O O4 0.113869 0.926818 0.319801
O O5 0.985775 0.146387 0.122911
O O6 0.748696 0.087823 0.132016
O O7 0.940647 0.903051 0.084675
O O8 0.681064 0.420089 0.055598
O O9 0.585803 0.167582 0.083809
O O10 0.566586 0.270124 0.997446
O O11 0.897316 0.301314 0.454077
O O12 0.915006 0.407319 0.368330
O O13 0.774850 0.154061 0.399392
O O14 0.500000 0.000000 0.500000
O O15 0.371237 0.095175 0.585658
#
# Coordination Sequence:
#
# PCOD9266085 Si02
#       7
#     8   8   8   8   8   8   8
#     4   9  20  43  65  84 112 147 194 244 301 357
#     4   9  21  39  61  83 119 153 187 243 293 340
#     4   9  20  37  53  82 116 160 196 230 280 338
#     4  10  21  36  55  84 118 154 197 237 281 343
#     4  12  22  33  55  88 121 160 201 237 280 341
#     4   9  22  37  58  82 116 159 191 246 295 342
#     4  10  19  37  60  83 117 150 187 240 288 343
#
# _framework density 21.205093000000002
#
# number of rings (size 3 to 8) (size 9 to 14) (size 15 to 20)
#    0.000    2.857    1.429    2.143    2.000    4.000 
#    0.000    8.571    0.000    0.000    0.000    0.000 
#    0.000    0.000    0.000    0.000    0.000    0.000 
#
# Total GULP energy -156163.321744 kJ/mol
# GULP energy per Si atom -5577.261491 kJ/mol
# Density = 2.115683 g / cm^3
# Si number density = 21.205093 Si / 1000 Ang^3
#
#
#
# Elastic Constant Matrix: (Units=GPa)
#
#
# Indices 1 2 3 4 5 6 
#
# 1 37.7465 11.6102 8.0869 0.0000 2.7096 0.0000
# 2 11.6102 148.9982 20.4517 0.0000 4.6587 0.0000
# 3 8.0869 20.4517 69.8508 0.0000 11.5671 0.0000
# 4 0.0000 0.0000 0.0000 16.6341 0.0000 4.6549
# 5 2.7096 4.6587 11.5671 0.0000 11.6032 0.0000
# 6 0.0000 0.0000 0.0000 4.6549 0.0000 36.9678
#
#
#
# Elastic Compliance Matrix: (Units=1/GPa)
#
#
# Indices 1 2 3 4 5 6 
#
# 1 0.027746 -0.001760 -0.002085 0.000000 -0.003694 0.000000
# 2 -0.001760 0.007112 -0.001765 0.000000 -0.000685 0.000000
# 3 -0.002085 -0.001765 0.017818 0.000000 -0.016567 0.000000
# 4 0.000000 0.000000 0.000000 0.062313 0.000000 -0.007846
# 5 -0.003694 -0.000685 -0.016567 0.000000 0.103836 0.000000
# 6 0.000000 0.000000 0.000000 -0.007846 0.000000 0.028039
#
#
# Mechanical properties :
#
#
# Convention : Reuss Voigt Hill
#
# Bulk Modulus (GPa) = 24.12272 37.43257 30.77764
# Shear Modulus (GPa) = 18.38890 27.47081 22.92985
#
# Velocity S-wave (km/s) = 2.94801 3.60318 3.29194
# Velocity P-wave (km/s) = 4.79461 5.91621 5.38469
#
# Compressibility (1/GPa) = 0.04145469
#
# Stress axis : x y z
#
# Youngs Moduli (GPa) = 36.04139 140.60014 56.12334
#
# Poissons Ratio (x) = 0.24750 0.11703
# Poissons Ratio (y) = 0.06344 0.09907
# Poissons Ratio (z) = 0.07515 0.24819
#
# Static dielectric constant tensor:
#      x y z
#    x 1.818610 0.000000 -0.003960 
#    y 0.000000 1.827370 0.000000 
#    z -0.003960 0.000000 1.757490 
# 
# From -- ./inp_files/309910.got.cif
#   From: 2010.05.17/outbox.cif.g08.bks.cpg/sg15_155_cif.got.tgz:309910.got - 2010.06.03 18:47:42.
