data_PCOD9266842
_publ_section_title
;
Structure prediction by ZEFSAII (Michael W. Deem and Ramdas Pophale) SiO2 
 PCOD9266842
Probable space group: C 2/C
;
_chemical_formula_sum "Si O2"
_cell_formula_units_Z 56
_cell_length_a 11.875508
_cell_length_b 15.523079
_cell_length_c 20.584766
_cell_angle_alpha 90.000000
_cell_angle_beta 55.915528
_cell_angle_gamma 90.000000
_cell_volume 3142.806526
_symmetry_space_group_name_H-M "C 2/C"
_symmetry_group_IT_number 15
_symmetry_cell_setting 'monoclinic'
loop_
_space_group_symop_operation_xyz
x,y,z
-x,y,1/2-z
-x,-y,-z
x,-y,1/2+z
1/2+x,1/2+y,z
1/2-x,1/2+y,1/2-z
1/2-x,1/2-y,-z
1/2+x,1/2-y,1/2+z
loop_
_atom_site_type_symbol
_atom_site_label
_atom_site_fract_x
_atom_site_fract_y
_atom_site_fract_z
Si Si1 0.809743 0.500503 0.505544
Si Si2 0.144328 0.949205 0.438576
Si Si3 0.809871 0.182344 0.930796
Si Si4 0.839365 0.757282 0.288170
Si Si5 0.888527 0.573982 0.116019
Si Si6 0.384351 0.720284 0.634735
Si Si7 0.155846 0.447459 0.721413
O O1 0.735185 0.446556 0.474272
O O2 0.724560 0.587307 0.537853
O O3 0.814972 0.457511 0.574612
O O4 0.960389 0.532956 0.437015
O O5 0.136748 0.851787 0.413055
O O6 0.232374 0.001807 0.356343
O O7 0.000000 0.000000 0.500000
O O8 0.761762 0.199115 0.872855
O O9 0.967748 0.197931 0.886825
O O10 0.750000 0.250000 0.000000
O O11 0.796289 0.786015 0.229869
O O12 0.825779 0.654376 0.298273
O O13 0.000000 0.774409 0.250000
O O14 0.887675 0.678597 0.114948
O O15 0.831149 0.544192 0.204614
O O16 0.000000 0.469317 0.750000
#
# Coordination Sequence:
#
# PCOD9266842 Si02
#       7
#     8   8   8   8   8   8   8
#     4  11  22  37  60  90 119 154 200 245 303 351
#     4  12  24  37  59  94 125 157 194 254 315 358
#     4  11  18  32  59  89 119 145 195 253 302 350
#     4   8  18  32  55  83 110 152 196 245 287 340
#     4  10  22  40  61  86 115 162 203 249 285 362
#     4  10  21  37  56  84 120 155 198 241 300 357
#     4  10  19  38  62  84 119 156 205 244 294 357
#
# _framework density 17.818469
#
# number of rings (size 3 to 8) (size 9 to 14) (size 15 to 20)
#    0.000    1.714    4.286    1.714    2.000    0.571 
#    0.000    0.714    0.000    0.000    0.000    0.000 
#    0.000    0.000    0.000    0.000    0.000    0.000 
#
# Total GULP energy -155897.743570 kJ/mol
# GULP energy per Si atom -5567.776556 kJ/mol
# Density = 1.777791 g / cm^3
# Si number density = 17.818469 Si / 1000 Ang^3
#
#
#
# Elastic Constant Matrix: (Units=GPa)
#
#
# Indices 1 2 3 4 5 6 
#
# 1 80.7776 32.3236 39.1316 0.0000 25.3617 0.0000
# 2 32.3236 79.0134 55.5777 0.0000 21.3640 0.0000
# 3 39.1316 55.5777 126.1023 0.0000 25.1849 0.0000
# 4 0.0000 0.0000 0.0000 42.4013 0.0000 9.6564
# 5 25.3617 21.3640 25.1849 0.0000 35.3890 0.0000
# 6 0.0000 0.0000 0.0000 9.6564 0.0000 23.1591
#
#
#
# Elastic Compliance Matrix: (Units=1/GPa)
#
#
# Indices 1 2 3 4 5 6 
#
# 1 0.017589 -0.003151 -0.002252 0.000000 -0.009100 0.000000
# 2 -0.003151 0.020154 -0.006908 0.000000 -0.004993 0.000000
# 3 -0.002252 -0.006908 0.012261 0.000000 -0.002942 0.000000
# 4 0.000000 0.000000 0.000000 0.026059 0.000000 -0.010865
# 5 -0.009100 -0.004993 -0.002942 0.000000 0.039887 0.000000
# 6 0.000000 0.000000 0.000000 -0.010865 0.000000 0.047710
#
#
# Mechanical properties :
#
#
# Convention : Reuss Voigt Hill
#
# Bulk Modulus (GPa) = 39.39704 59.99546 49.69625
# Shear Modulus (GPa) = 25.41427 30.78058 28.09743
#
# Velocity S-wave (km/s) = 3.78072 4.16077 3.97529
# Velocity P-wave (km/s) = 6.42002 7.53831 7.00153
#
# Compressibility (1/GPa) = 0.02538262
#
# Stress axis : x y z
#
# Youngs Moduli (GPa) = 56.85511 49.61852 81.56098
#
# Poissons Ratio (x) = 0.15634 0.18367
# Poissons Ratio (y) = 0.17914 0.56339
# Poissons Ratio (z) = 0.12803 0.34274
#
# Static dielectric constant tensor:
#      x y z
#    x 1.622900 0.000000 -0.007180 
#    y 0.000000 1.595270 0.000000 
#    z -0.007180 0.000000 1.751460 
# 
# From -- ./inp_files/199067.got.cif
#   From: 2010.05.17/outbox.cif.g08.bks.cpg/sg15_100_cif.got.tgz:199067.got - 2010.06.03 18:47:42.
