data_PCOD9266162
_publ_section_title
;
Structure prediction by ZEFSAII (Michael W. Deem and Ramdas Pophale) SiO2 
 PCOD9266162
Probable space group: C 2/C
;
_chemical_formula_sum "Si O2"
_cell_formula_units_Z 56
_cell_length_a 9.503815
_cell_length_b 23.339654
_cell_length_c 16.222226
_cell_angle_alpha 90.000000
_cell_angle_beta 45.488406
_cell_angle_gamma 90.000000
_cell_volume 2566.010982
_symmetry_space_group_name_H-M "C 2/C"
_symmetry_group_IT_number 15
_symmetry_cell_setting 'monoclinic'
loop_
_space_group_symop_operation_xyz
x,y,z
-x,y,1/2-z
-x,-y,-z
x,-y,1/2+z
1/2+x,1/2+y,z
1/2-x,1/2+y,1/2-z
1/2-x,1/2-y,-z
1/2+x,1/2-y,1/2+z
loop_
_atom_site_type_symbol
_atom_site_label
_atom_site_fract_x
_atom_site_fract_y
_atom_site_fract_z
Si Si1 0.691598 0.292583 0.729901
Si Si2 0.077501 0.087707 0.309862
Si Si3 0.452510 0.612441 0.865017
Si Si4 0.139156 0.663688 0.773797
Si Si5 0.550557 0.970288 0.891115
Si Si6 0.835609 0.005040 0.499119
Si Si7 0.548716 0.846672 0.498325
O O1 0.500000 0.290242 0.750000
O O2 0.662071 0.349671 0.798741
O O3 0.692300 0.230425 0.770093
O O4 0.888319 0.300903 0.594228
O O5 0.234488 0.035183 0.238852
O O6 0.000000 0.094749 0.250000
O O7 0.889582 0.065296 0.436204
O O8 0.500000 0.605115 0.750000
O O9 0.653636 0.631370 0.826091
O O10 0.375635 0.551213 0.927049
O O11 0.273824 0.658614 0.938385
O O12 0.050592 0.644147 0.898659
O O13 0.000000 0.658807 0.750000
O O14 0.396107 0.997784 0.890839
O O15 0.520326 0.904190 0.927353
O O16 0.500000 0.000000 0.000000
O O17 0.000000 0.000000 0.500000
#
# Coordination Sequence:
#
# PCOD9266162 Si02
#       7
#     8   8   8   8   8   8   8
#     4   9  20  37  57  87 115 148 198 235 285 343
#     4  10  19  37  61  82 115 156 191 229 280 357
#     4   9  20  40  61  81 115 157 194 230 281 355
#     4  10  21  37  59  88 116 145 193 250 288 327
#     4  10  20  35  63  83 107 155 192 224 281 351
#     4  11  23  37  55  90 121 144 186 242 291 334
#     4   9  20  38  60  82 114 154 196 230 282 354
#
# _framework density 21.823758000000002
#
# number of rings (size 3 to 8) (size 9 to 14) (size 15 to 20)
#    0.000    2.286    1.429    0.429    4.000    4.571 
#    2.571    0.000   12.571    0.000    0.000    0.000 
#    0.000    0.000    0.000    0.000    0.000    0.000 
#
# Total GULP energy -155930.168704 kJ/mol
# GULP energy per Si atom -5568.934597 kJ/mol
# Density = 2.177409 g / cm^3
# Si number density = 21.823758 Si / 1000 Ang^3
#
#
#
# Elastic Constant Matrix: (Units=GPa)
#
#
# Indices 1 2 3 4 5 6 
#
# 1 95.0878 -3.3070 20.4262 0.0000 -17.5952 0.0000
# 2 -3.3070 36.8194 5.2411 0.0000 -4.5333 0.0000
# 3 20.4262 5.2411 59.4217 0.0000 -21.3282 0.0000
# 4 0.0000 0.0000 0.0000 -4.7671 0.0000 -80.3356
# 5 -17.5952 -4.5333 -21.3282 0.0000 26.8419 0.0000
# 6 0.0000 0.0000 0.0000 -80.3356 0.0000 -354.3020
#
#
#
# Elastic Compliance Matrix: (Units=1/GPa)
#
#
# Indices 1 2 3 4 5 6 
#
# 1 0.012286 0.002228 -0.001950 0.000000 0.006880 0.000000
# 2 0.002228 0.028189 -0.001426 0.000000 0.005089 0.000000
# 3 -0.001950 -0.001426 0.023894 0.000000 0.017467 0.000000
# 4 0.000000 0.000000 0.000000 0.074358 0.000000 -0.016860
# 5 0.006880 0.005089 0.017467 0.000000 0.056504 0.000000
# 6 0.000000 0.000000 0.000000 -0.016860 0.000000 0.001000
#
#
# Mechanical properties :
#
#
# Convention : Reuss Voigt Hill
#
# Bulk Modulus (GPa) = 16.10981 26.22773 21.16877
# Shear Modulus (GPa) = 22.80822 -55.18086 -16.18632
#
# Velocity S-wave (km/s) = 3.23632 -5.03385 -2.72634
# Velocity P-wave (km/s) = 4.62200 4.66285 0.43549
#
# Compressibility (1/GPa) = 0.06207400
#
# Stress axis : x y z
#
# Youngs Moduli (GPa) = 81.39202 35.47453 41.85068
#
# Poissons Ratio (x) = -0.07905 0.08162
# Poissons Ratio (y) = -0.18136 0.05967
# Poissons Ratio (z) = 0.15874 0.05058
#
# Static dielectric constant tensor:
#      x y z
#    x 1.861030 0.000000 -0.057680 
#    y 0.000000 2.000830 0.000000 
#    z -0.057680 0.000000 1.871890 
# 
# From -- ./inp_files/193187.got.cif
#   From: 2010.05.17/outbox.cif.g08.bks.cpg/sg15_97_cif.got.tgz:193187.got - 2010.06.03 18:47:42.
