data_PCOD9266524
_publ_section_title
;
Structure prediction by ZEFSAII (Michael W. Deem and Ramdas Pophale) SiO2 
 PCOD9266524
Probable space group: C 2/C
;
_chemical_formula_sum "Si O2"
_cell_formula_units_Z 64
_cell_length_a 9.503033
_cell_length_b 22.059075
_cell_length_c 16.018923
_cell_angle_alpha 90.000000
_cell_angle_beta 84.559235
_cell_angle_gamma 90.000000
_cell_volume 3342.887992
_symmetry_space_group_name_H-M "C 2/C"
_symmetry_group_IT_number 15
_symmetry_cell_setting 'monoclinic'
loop_
_space_group_symop_operation_xyz
x,y,z
-x,y,1/2-z
-x,-y,-z
x,-y,1/2+z
1/2+x,1/2+y,z
1/2-x,1/2+y,1/2-z
1/2-x,1/2-y,-z
1/2+x,1/2-y,1/2+z
loop_
_atom_site_type_symbol
_atom_site_label
_atom_site_fract_x
_atom_site_fract_y
_atom_site_fract_z
Si Si1 0.794899 0.945112 0.520001
Si Si2 0.881956 0.926340 0.941606
Si Si3 0.336083 0.350038 0.781501
Si Si4 0.636486 0.364839 0.390663
Si Si5 0.174907 0.856910 0.131845
Si Si6 0.147720 0.565829 0.195538
Si Si7 0.668700 0.788062 0.236798
Si Si8 0.145883 0.966415 0.265079
O O1 0.775057 0.889413 0.456178
O O2 0.670105 0.946148 0.595648
O O3 0.947142 0.935524 0.558730
O O4 0.812851 0.008428 0.468090
O O5 0.828074 0.896216 0.859626
O O6 0.844910 0.876076 0.013564
O O7 0.500000 0.348248 0.750000
O O8 0.243871 0.376779 0.712150
O O9 0.294266 0.279980 0.793926
O O10 0.485601 0.335082 0.376365
O O11 0.761324 0.332011 0.335536
O O12 0.624890 0.433036 0.354258
O O13 0.266250 0.807298 0.176496
O O14 0.163644 0.912602 0.198122
O O15 0.221627 0.508721 0.235867
O O16 0.000000 0.574445 0.250000
O O17 0.500000 0.795238 0.250000
O O18 0.000000 0.999724 0.250000
#
# Coordination Sequence:
#
# PCOD9266524 Si02
#       8
#     8   8   8   8   8   8   8   8
#     4  10  20  37  62  94 120 149 204 244 297 360
#     4  10  19  37  66  92 115 153 202 252 286 357
#     4  11  23  41  62  82 118 164 208 241 289 365
#     4   9  18  36  63  91 112 151 204 248 292 352
#     4   9  19  37  63  86 112 156 205 248 283 352
#     4  12  24  37  55  89 126 161 190 245 312 355
#     4  10  22  39  60  85 119 159 201 252 301 347
#     4   9  17  33  58  85 115 153 197 235 293 362
#
# _framework density 19.145122000000001
#
# number of rings (size 3 to 8) (size 9 to 14) (size 15 to 20)
#    0.000    2.000    2.500    2.250    1.750    3.500 
#    2.250    1.875    0.000    0.000    0.000    0.000 
#    0.000    0.000    0.000    0.000    0.000    0.000 
#
# Total GULP energy -178397.858759 kJ/mol
# GULP energy per Si atom -5574.933086 kJ/mol
# Density = 1.910155 g / cm^3
# Si number density = 19.145122 Si / 1000 Ang^3
#
#
#
# Elastic Constant Matrix: (Units=GPa)
#
#
# Indices 1 2 3 4 5 6 
#
# 1 59.6426 25.5624 16.0030 0.0000 -11.8968 0.0000
# 2 25.5624 77.7830 28.7772 0.0000 2.1901 0.0000
# 3 16.0030 28.7772 94.2623 0.0000 -7.4151 0.0000
# 4 0.0000 0.0000 0.0000 20.7435 0.0000 -0.1132
# 5 -11.8968 2.1901 -7.4151 0.0000 26.1006 0.0000
# 6 0.0000 0.0000 0.0000 -0.1132 0.0000 6.0332
#
#
#
# Elastic Compliance Matrix: (Units=1/GPa)
#
#
# Indices 1 2 3 4 5 6 
#
# 1 0.022199 -0.007332 -0.000702 0.000000 0.010534 0.000000
# 2 -0.007332 0.017080 -0.004445 0.000000 -0.006038 0.000000
# 3 -0.000702 -0.004445 0.012365 0.000000 0.003566 0.000000
# 4 0.000000 0.000000 0.000000 0.048213 0.000000 0.000904
# 5 0.010534 -0.006038 0.003566 0.000000 0.044635 0.000000
# 6 0.000000 0.000000 0.000000 0.000904 0.000000 0.165766
#
#
# Mechanical properties :
#
#
# Convention : Reuss Voigt Hill
#
# Bulk Modulus (GPa) = 37.47117 41.37480 39.42299
# Shear Modulus (GPa) = 14.53022 21.33183 17.93102
#
# Velocity S-wave (km/s) = 2.75790 3.34161 3.06369
# Velocity P-wave (km/s) = 5.45491 6.04537 5.75771
#
# Compressibility (1/GPa) = 0.02668718
#
# Stress axis : x y z
#
# Youngs Moduli (GPa) = 45.04794 58.54686 80.87211
#
# Poissons Ratio (x) = 0.42929 0.05673
# Poissons Ratio (y) = 0.33031 0.35944
# Poissons Ratio (z) = 0.03160 0.26022
#
# Static dielectric constant tensor:
#      x y z
#    x 1.666820 0.000000 -0.002860 
#    y 0.000000 1.674010 0.000000 
#    z -0.002860 0.000000 1.726340 
# 
# From -- ./inp_files/137851.got.cif
#   From: 2010.05.17/outbox.cif.g08.bks.cpg/sg15_69_cif.got.tgz:137851.got - 2010.06.03 18:47:42.
