data_PCOD9266648
_publ_section_title
;
Structure prediction by ZEFSAII (Michael W. Deem and Ramdas Pophale) SiO2 
 PCOD9266648
Probable space group: C 2/C
;
_chemical_formula_sum "Si O2"
_cell_formula_units_Z 40
_cell_length_a 13.873883
_cell_length_b 20.929674
_cell_length_c 9.322738
_cell_angle_alpha 90.000000
_cell_angle_beta 33.212086
_cell_angle_gamma 90.000000
_cell_volume 1482.785073
_symmetry_space_group_name_H-M "C 2/C"
_symmetry_group_IT_number 15
_symmetry_cell_setting 'monoclinic'
loop_
_space_group_symop_operation_xyz
x,y,z
-x,y,1/2-z
-x,-y,-z
x,-y,1/2+z
1/2+x,1/2+y,z
1/2-x,1/2+y,1/2-z
1/2-x,1/2-y,-z
1/2+x,1/2-y,1/2+z
loop_
_atom_site_type_symbol
_atom_site_label
_atom_site_fract_x
_atom_site_fract_y
_atom_site_fract_z
Si Si1 0.187754 0.023618 0.200728
Si Si2 0.000000 0.123840 0.250000
Si Si3 0.998555 0.651560 0.597878
Si Si4 0.000000 0.815380 0.250000
Si Si5 0.635620 0.722947 0.300888
Si Si6 0.683908 0.915585 0.659561
O O1 0.147829 0.073574 0.120594
O O2 0.271214 0.053203 0.239866
O O3 0.000000 0.000000 0.500000
O O4 0.295644 0.967636 0.989268
O O5 0.016354 0.172766 0.361614
O O6 0.179822 0.691876 0.385133
O O7 0.002488 0.616694 0.439850
O O8 0.850906 0.706815 0.783899
O O9 0.000000 0.615645 0.750000
O O10 0.970360 0.770444 0.420767
O O11 0.833344 0.862807 0.440739
#
# Coordination Sequence:
#
# PCOD9266648 Si02
#       6
#     8   4   8   4   8   8
#     4  12  19  35  63 101 130 166 221 277 320 388
#     4  12  19  34  64 100 116 167 224 268 312 394
#     4  11  24  44  64  96 133 179 222 273 329 400
#     4  10  19  38  58 104 124 161 214 284 328 374
#     4  11  24  38  69  95 131 171 222 272 336 389
#     4  11  22  36  64  94 133 170 217 276 326 384
#
# _framework density 26.976262999999999
#
# number of rings (size 3 to 8) (size 9 to 14) (size 15 to 20)
#    0.000    0.800    9.000    0.600    0.000    3.200 
#    0.000    1.000    4.400    0.000    0.000    0.000 
#    0.000    0.000    0.000    0.000    0.000    0.000 
#
# Total GULP energy -111765.221053 kJ/mol
# GULP energy per Si atom -5588.261053 kJ/mol
# Density = 2.691486 g / cm^3
# Si number density = 26.976263 Si / 1000 Ang^3
#
#
#
# Elastic Constant Matrix: (Units=GPa)
#
#
# Indices 1 2 3 4 5 6 
#
# 1 93.6185 13.4204 7.6020 0.0000 -10.7058 0.0001
# 2 13.4204 78.9100 2.7956 0.0000 -4.6718 0.0000
# 3 7.6020 2.7956 93.2920 0.0001 6.7439 0.0001
# 4 0.0000 0.0000 0.0001 63.9743 0.0000 13.8937
# 5 -10.7058 -4.6718 6.7439 0.0000 31.5850 -0.0002
# 6 0.0001 0.0000 0.0001 13.8937 -0.0002 35.5375
#
#
#
# Elastic Compliance Matrix: (Units=1/GPa)
#
#
# Indices 1 2 3 4 5 6 
#
# 1 0.011461 -0.001678 -0.001164 0.000000 0.003885 0.000000
# 2 -0.001678 0.013056 -0.000359 0.000000 0.001439 0.000000
# 3 -0.001164 -0.000359 0.011027 0.000000 -0.002802 0.000000
# 4 0.000000 0.000000 0.000000 0.017082 0.000000 -0.006678
# 5 0.003885 0.001439 -0.002802 0.000000 0.033789 0.000000
# 6 0.000000 0.000000 0.000000 -0.006678 0.000000 0.030750
#
#
# Mechanical properties :
#
#
# Convention : Reuss Voigt Hill
#
# Bulk Modulus (GPa) = 34.31436 34.82849 34.57142
# Shear Modulus (GPa) = 37.51482 42.35287 39.93384
#
# Velocity S-wave (km/s) = 3.73320 3.96663 3.85168
# Velocity P-wave (km/s) = 5.59734 5.82389 5.71174
#
# Compressibility (1/GPa) = 0.02914232
#
# Stress axis : x y z
#
# Youngs Moduli (GPa) = 87.25216 76.59360 90.68459
#
# Poissons Ratio (x) = 0.12852 0.10560
# Poissons Ratio (y) = 0.14640 0.03251
# Poissons Ratio (z) = 0.10160 0.02746
#
# Static dielectric constant tensor:
#      x y z
#    x 2.099980 0.000000 -0.079340 
#    y 0.000000 2.160500 0.000000 
#    z -0.079340 0.000000 2.232920 
# 
# From -- ./inp_files/41976.got.cif
#   From: 2010.05.17/outbox.cif.g08.bks.cpg/sg15_21_cif.got.tgz:41976.got - 2010.06.03 18:47:42.
