data_PCOD9266997
_publ_section_title
;
Structure prediction by ZEFSAII (Michael W. Deem and Ramdas Pophale) SiO2 
 PCOD9266997
Probable space group: C 2/C
;
_chemical_formula_sum "Si O2"
_cell_formula_units_Z 48
_cell_length_a 29.510995
_cell_length_b 9.186810
_cell_length_c 19.854160
_cell_angle_alpha 90.000000
_cell_angle_beta 151.776476
_cell_angle_gamma 90.000000
_cell_volume 2545.546036
_symmetry_space_group_name_H-M "C 2/C"
_symmetry_group_IT_number 15
_symmetry_cell_setting 'monoclinic'
loop_
_space_group_symop_operation_xyz
x,y,z
-x,y,1/2-z
-x,-y,-z
x,-y,1/2+z
1/2+x,1/2+y,z
1/2-x,1/2+y,1/2-z
1/2-x,1/2-y,-z
1/2+x,1/2-y,1/2+z
loop_
_atom_site_type_symbol
_atom_site_label
_atom_site_fract_x
_atom_site_fract_y
_atom_site_fract_z
Si Si1 0.555808 0.854579 0.099641
Si Si2 0.107447 0.577356 0.415252
Si Si3 0.193579 0.605929 0.904705
Si Si4 0.809333 0.542007 0.832995
Si Si5 0.356278 0.265689 0.332146
Si Si6 0.259307 0.681241 0.439536
O O1 0.605019 0.866483 0.237376
O O2 0.640056 0.847843 0.154050
O O3 0.470481 0.736663 0.990605
O O4 0.500000 0.000000 0.000000
O O5 0.162126 0.477455 0.431819
O O6 0.126422 0.525946 0.515730
O O7 0.148217 0.741922 0.469920
O O8 0.000000 0.576534 0.250000
O O9 0.250000 0.750000 0.000000
O O10 0.257550 0.491068 0.945828
O O11 0.705560 0.602137 0.719016
O O12 0.810226 0.382188 0.802378
O O13 0.330545 0.242027 0.220297
O O14 0.250000 0.750000 0.500000
#
# Coordination Sequence:
#
# PCOD9266997 Si02
#       6
#     8   8   8   8   8   8
#     4  10  19  38  64  81 117 165 197 230 308 371
#     4  10  21  36  59  88 112 158 206 239 294 376
#     4  11  22  38  59  90 122 155 193 256 313 358
#     4  10  21  34  61  85 116 148 202 247 287 351
#     4  10  20  37  59  86 112 157 198 248 292 361
#     4   9  19  36  58  80 116 152 199 245 295 361
#
# _framework density 18.856466000000001
#
# number of rings (size 3 to 8) (size 9 to 14) (size 15 to 20)
#    0.000    2.000    3.333    2.000    4.667    0.000 
#    0.000    5.000    0.000    0.000    0.000    0.000 
#    0.000    0.000    0.000    0.000    0.000    0.000 
#
# Total GULP energy -133639.157476 kJ/mol
# GULP energy per Si atom -5568.298228 kJ/mol
# Density = 1.881355 g / cm^3
# Si number density = 18.856466 Si / 1000 Ang^3
#
#
#
# Elastic Constant Matrix: (Units=GPa)
#
#
# Indices 1 2 3 4 5 6 
#
# 1 38.2328 5.1151 29.2361 0.0000 -16.7326 0.0000
# 2 5.1151 50.3545 34.6267 0.0000 5.2683 0.0000
# 3 29.2361 34.6267 108.0317 0.0000 -16.7295 0.0000
# 4 0.0000 0.0000 0.0000 20.4428 0.0000 -5.0758
# 5 -16.7326 5.2683 -16.7295 0.0000 32.7308 0.0000
# 6 0.0000 0.0000 0.0000 -5.0758 0.0000 24.6082
#
#
#
# Elastic Compliance Matrix: (Units=1/GPa)
#
#
# Indices 1 2 3 4 5 6 
#
# 1 0.039404 -0.000054 -0.008172 0.000000 0.015976 0.000000
# 2 -0.000054 0.028164 -0.010554 0.000000 -0.009956 0.000000
# 3 -0.008172 -0.010554 0.015711 0.000000 0.005551 0.000000
# 4 0.000000 0.000000 0.000000 0.051558 0.000000 0.010634
# 5 0.015976 -0.009956 0.005551 0.000000 0.043159 0.000000
# 6 0.000000 0.000000 0.000000 0.010634 0.000000 0.042830
#
#
# Mechanical properties :
#
#
# Convention : Reuss Voigt Hill
#
# Bulk Modulus (GPa) = 21.87387 37.17499 29.52443
# Shear Modulus (GPa) = 18.27312 24.06576 21.16944
#
# Velocity S-wave (km/s) = 3.11636 3.57635 3.35425
# Velocity P-wave (km/s) = 4.95725 6.06723 5.54011
#
# Compressibility (1/GPa) = 0.04571664
#
# Stress axis : x y z
#
# Youngs Moduli (GPa) = 25.37827 35.50636 63.65107
#
# Poissons Ratio (x) = 0.00193 0.52017
# Poissons Ratio (y) = 0.00138 0.67178
# Poissons Ratio (z) = 0.20740 0.37474
#
# Static dielectric constant tensor:
#      x y z
#    x 1.790690 0.000000 -0.008520 
#    y 0.000000 1.417290 0.000000 
#    z -0.008520 0.000000 1.680230 
# 
# From -- ./inp_files/224674.got.cif
#   From: 2010.05.17/outbox.cif.g08.bks.cpg/sg15_113_cif.got.tgz:224674.got - 2010.06.03 18:47:42.
