data_PCOD9266372
_publ_section_title
;
Structure prediction by ZEFSAII (Michael W. Deem and Ramdas Pophale) SiO2 
 PCOD9266372
Probable space group: C 2/C
;
_chemical_formula_sum "Si O2"
_cell_formula_units_Z 56
_cell_length_a 25.842464
_cell_length_b 8.705610
_cell_length_c 16.073722
_cell_angle_alpha 90.000000
_cell_angle_beta 140.934545
_cell_angle_gamma 90.000000
_cell_volume 2278.942415
_symmetry_space_group_name_H-M "C 2/C"
_symmetry_group_IT_number 15
_symmetry_cell_setting 'monoclinic'
loop_
_space_group_symop_operation_xyz
x,y,z
-x,y,1/2-z
-x,-y,-z
x,-y,1/2+z
1/2+x,1/2+y,z
1/2-x,1/2+y,1/2-z
1/2-x,1/2-y,-z
1/2+x,1/2-y,1/2+z
loop_
_atom_site_type_symbol
_atom_site_label
_atom_site_fract_x
_atom_site_fract_y
_atom_site_fract_z
Si Si1 0.655723 0.557999 0.785184
Si Si2 0.913678 0.630532 0.248731
Si Si3 0.799029 0.594799 0.546292
Si Si4 0.912979 0.271542 0.553342
Si Si5 0.271592 0.931550 0.279578
Si Si6 0.650824 0.787786 0.564767
Si Si7 0.011286 0.069407 0.361296
O O1 0.625528 0.731569 0.749100
O O2 0.698874 0.521341 0.752520
O O3 0.577121 0.454518 0.707723
O O4 0.727386 0.530022 0.941963
O O5 0.864338 0.472338 0.192233
O O6 0.904546 0.691079 0.140907
O O7 0.010784 0.625776 0.384465
O O8 0.750000 0.750000 0.500000
O O9 0.848322 0.623312 0.521792
O O10 0.831542 0.313002 0.401916
O O11 0.941720 0.095089 0.579075
O O12 0.222933 0.840785 0.148520
O O13 0.323332 0.086498 0.334745
O O14 0.566526 0.698985 0.472113
O O15 0.000000 0.108758 0.250000
#
# Coordination Sequence:
#
# PCOD9266372 Si02
#       7
#     8   8   8   8   8   8   8
#     4  10  21  38  63  93 121 159 207 263 305 372
#     4  10  19  37  63  93 120 157 203 253 312 358
#     4  11  23  37  60  95 126 156 204 263 315 357
#     4  10  19  37  65  92 118 162 202 249 308 371
#     4  11  24  42  62  88 125 171 210 245 309 375
#     4  11  25  41  60  87 125 169 204 253 305 378
#     4  11  21  38  66  95 121 155 207 263 320 364
#
# _framework density 24.572801999999999
#
# number of rings (size 3 to 8) (size 9 to 14) (size 15 to 20)
#    0.000    1.429    5.714    2.143    0.000    4.000 
#    0.000    1.429    0.000    7.714    0.000    0.000 
#    0.000    0.000    0.000    0.000    0.000    0.000 
#
# Total GULP energy -156730.683014 kJ/mol
# GULP energy per Si atom -5597.524393 kJ/mol
# Density = 2.451687 g / cm^3
# Si number density = 24.572802 Si / 1000 Ang^3
#
#
#
# Elastic Constant Matrix: (Units=GPa)
#
#
# Indices 1 2 3 4 5 6 
#
# 1 55.7146 19.7331 29.4847 0.0000 12.9043 0.0000
# 2 19.7331 80.1202 35.7929 0.0000 6.8936 0.0000
# 3 29.4847 35.7929 113.2761 0.0000 18.5481 0.0000
# 4 0.0000 0.0000 0.0000 40.7040 0.0000 5.1346
# 5 12.9043 6.8936 18.5481 0.0000 21.9332 0.0000
# 6 0.0000 0.0000 0.0000 5.1346 0.0000 27.2761
#
#
#
# Elastic Compliance Matrix: (Units=1/GPa)
#
#
# Indices 1 2 3 4 5 6 
#
# 1 0.023180 -0.003363 -0.003379 0.000000 -0.009724 0.000000
# 2 -0.003363 0.015033 -0.003975 0.000000 0.000616 0.000000
# 3 -0.003379 -0.003975 0.012110 0.000000 -0.007004 0.000000
# 4 0.000000 0.000000 0.000000 0.025165 0.000000 -0.004737
# 5 -0.009724 0.000616 -0.007004 0.000000 0.057043 0.000000
# 6 0.000000 0.000000 0.000000 -0.004737 0.000000 0.037554
#
#
# Mechanical properties :
#
#
# Convention : Reuss Voigt Hill
#
# Bulk Modulus (GPa) = 34.61580 46.57027 40.59303
# Shear Modulus (GPa) = 24.85719 28.92269 26.88994
#
# Velocity S-wave (km/s) = 3.18397 3.43450 3.31160
# Velocity P-wave (km/s) = 5.25686 5.89243 5.58370
#
# Compressibility (1/GPa) = 0.02888854
#
# Stress axis : x y z
#
# Youngs Moduli (GPa) = 43.14076 66.52228 82.57334
#
# Poissons Ratio (x) = 0.22372 0.27899
# Poissons Ratio (y) = 0.14508 0.32827
# Poissons Ratio (z) = 0.14576 0.26446
#
# Static dielectric constant tensor:
#      x y z
#    x 1.937310 0.000000 -0.012130 
#    y 0.000000 1.978280 0.000000 
#    z -0.012130 0.000000 1.931390 
# 
# From -- ./inp_files/259026.got.cif
#   From: 2010.05.17/outbox.cif.g08.bks.cpg/sg15_130_cif.got.tgz:259026.got - 2010.06.03 18:47:42.
