data_PCOD9266795
_publ_section_title
;
Structure prediction by ZEFSAII (Michael W. Deem and Ramdas Pophale) SiO2 
 PCOD9266795
Probable space group: C 2/C
;
_chemical_formula_sum "Si O2"
_cell_formula_units_Z 56
_cell_length_a 9.033639
_cell_length_b 23.856406
_cell_length_c 17.650233
_cell_angle_alpha 90.000000
_cell_angle_beta 45.154953
_cell_angle_gamma 90.000000
_cell_volume 2696.960255
_symmetry_space_group_name_H-M "C 2/C"
_symmetry_group_IT_number 15
_symmetry_cell_setting 'monoclinic'
loop_
_space_group_symop_operation_xyz
x,y,z
-x,y,1/2-z
-x,-y,-z
x,-y,1/2+z
1/2+x,1/2+y,z
1/2-x,1/2+y,1/2-z
1/2-x,1/2-y,-z
1/2+x,1/2-y,1/2+z
loop_
_atom_site_type_symbol
_atom_site_label
_atom_site_fract_x
_atom_site_fract_y
_atom_site_fract_z
Si Si1 0.948069 0.489700 0.661156
Si Si2 0.741097 0.593653 0.140668
Si Si3 0.342915 0.792581 0.684529
Si Si4 0.732281 0.281222 0.425282
Si Si5 0.206994 0.403687 0.055699
Si Si6 0.264949 0.304231 0.612221
Si Si7 0.311469 0.565366 0.107785
O O1 0.846933 0.465510 0.621973
O O2 0.784144 0.469318 0.785854
O O3 0.016042 0.554152 0.639986
O O4 0.172262 0.459305 0.590599
O O5 0.500000 0.590527 0.250000
O O6 0.832495 0.643141 0.159819
O O7 0.770687 0.607086 0.042258
O O8 0.228475 0.758834 0.659661
O O9 0.583196 0.783499 0.622887
O O10 0.234317 0.778976 0.803614
O O11 0.750000 0.250000 0.500000
O O12 0.830187 0.343071 0.393666
O O13 0.488997 0.294268 0.498295
O O14 0.436812 0.431166 0.992673
O O15 0.241304 0.370140 0.638313
#
# Coordination Sequence:
#
# PCOD9266795 Si02
#       7
#     8   8   8   8   8   8   8
#     4  11  20  36  61  88 115 158 200 260 310 365
#     4  12  20  36  62  92 120 156 208 264 309 364
#     4  11  20  37  64  89 119 163 208 261 305 367
#     4  11  23  37  59  93 126 159 203 256 310 377
#     4  11  23  37  57  91 125 161 205 252 318 382
#     4  10  20  39  63  90 116 158 213 257 308 364
#     4  10  19  38  61  86 119 152 209 256 310 374
#
# _framework density 20.764118
#
# number of rings (size 3 to 8) (size 9 to 14) (size 15 to 20)
#    0.000    1.143    5.714    3.000    0.000    0.000 
#    0.000    2.857    0.000    0.000    3.714    0.000 
#    0.000    0.000    0.000    0.000    0.000    0.000 
#
# Total GULP energy -156138.142752 kJ/mol
# GULP energy per Si atom -5576.362241 kJ/mol
# Density = 2.071686 g / cm^3
# Si number density = 20.764118 Si / 1000 Ang^3
#
#
#
# Elastic Constant Matrix: (Units=GPa)
#
#
# Indices 1 2 3 4 5 6 
#
# 1 88.5986 33.1419 17.3707 0.0000 15.9594 0.0000
# 2 33.1419 112.4737 32.5510 0.0000 2.1541 0.0000
# 3 17.3707 32.5510 38.6838 0.0000 -5.6707 0.0000
# 4 0.0000 0.0000 0.0000 -7.2445 0.0000 -4.0380
# 5 15.9594 2.1541 -5.6707 0.0000 20.9122 0.0000
# 6 0.0000 0.0000 0.0000 -4.0380 0.0000 31.5314
#
#
#
# Elastic Compliance Matrix: (Units=1/GPa)
#
#
# Indices 1 2 3 4 5 6 
#
# 1 0.016139 -0.002370 -0.007313 0.000000 -0.014056 0.000000
# 2 -0.002370 0.012441 -0.009713 0.000000 -0.002107 0.000000
# 3 -0.007313 -0.009713 0.039857 0.000000 0.017390 0.000000
# 4 0.000000 0.000000 0.000000 -0.128840 0.000000 -0.016500
# 5 -0.014056 -0.002107 0.017390 0.000000 0.063478 0.000000
# 6 0.000000 0.000000 0.000000 -0.016500 0.000000 0.029601
#
#
# Mechanical properties :
#
#
# Convention : Reuss Voigt Hill
#
# Bulk Modulus (GPa) = 33.73355 45.09816 39.41586
# Shear Modulus (GPa) = 61.46212 19.48599 40.47405
#
# Velocity S-wave (km/s) = 5.44651 3.06673 4.41980
# Velocity P-wave (km/s) = 7.47221 5.85715 6.71342
#
# Compressibility (1/GPa) = 0.02964408
#
# Stress axis : x y z
#
# Youngs Moduli (GPa) = 61.96129 80.38151 25.08969
#
# Poissons Ratio (x) = 0.19049 0.18349
# Poissons Ratio (y) = 0.14684 0.24370
# Poissons Ratio (z) = 0.45315 0.78075
#
# Static dielectric constant tensor:
#      x y z
#    x 1.789340 0.000000 0.011780 
#    y 0.000000 1.788560 0.000000 
#    z 0.011780 0.000000 1.798420 
# 
# From -- ./inp_files/233777.got.cif
#   From: 2010.05.17/outbox.cif.g08.bks.cpg/sg15_117_cif.got.tgz:233777.got - 2010.06.03 18:47:42.
