data_PCOD9266601
_publ_section_title
;
Structure prediction by ZEFSAII (Michael W. Deem and Ramdas Pophale) SiO2 
 PCOD9266601
Probable space group: C 2/C
;
_chemical_formula_sum "Si O2"
_cell_formula_units_Z 60
_cell_length_a 27.082931
_cell_length_b 16.369634
_cell_length_c 9.338050
_cell_angle_alpha 90.000000
_cell_angle_beta 51.094669
_cell_angle_gamma 90.000000
_cell_volume 3221.614157
_symmetry_space_group_name_H-M "C 2/C"
_symmetry_group_IT_number 15
_symmetry_cell_setting 'monoclinic'
loop_
_space_group_symop_operation_xyz
x,y,z
-x,y,1/2-z
-x,-y,-z
x,-y,1/2+z
1/2+x,1/2+y,z
1/2-x,1/2+y,1/2-z
1/2-x,1/2-y,-z
1/2+x,1/2-y,1/2+z
loop_
_atom_site_type_symbol
_atom_site_label
_atom_site_fract_x
_atom_site_fract_y
_atom_site_fract_z
Si Si1 0.236494 0.681015 0.196783
Si Si2 0.685137 0.178226 0.783116
Si Si3 0.399809 0.691219 0.196958
Si Si4 0.727912 0.590326 0.109621
Si Si5 0.630423 0.696221 0.923064
Si Si6 0.465759 0.387967 0.079635
Si Si7 0.000000 0.000320 0.750000
Si Si8 0.255954 0.406157 0.372320
O O1 0.280363 0.747984 0.195336
O O2 0.246353 0.602655 0.276980
O O3 0.167256 0.719571 0.334084
O O4 0.253457 0.658313 0.005911
O O5 0.622778 0.223172 0.834129
O O6 0.727098 0.145642 0.573760
O O7 0.693684 0.106130 0.885552
O O8 0.342991 0.626172 0.273952
O O9 0.404011 0.699674 0.361502
O O10 0.466037 0.654441 0.023809
O O11 0.733325 0.494069 0.077936
O O12 0.682859 0.623057 0.830839
O O13 0.586165 0.677547 0.869100
O O14 0.469390 0.445521 0.930790
O O15 0.453010 0.442445 0.242812
#
# Coordination Sequence:
#
# PCOD9266601 Si02
#       8
#     8   8   8   8   8   8   4   8
#     4  10  20  36  54  79 108 146 181 235 272 322
#     4  10  19  38  52  74 109 144 183 227 267 330
#     4  11  20  36  59  75 108 155 184 220 265 329
#     4  11  20  34  55  81 111 143 181 224 282 330
#     4  11  20  37  55  78 111 146 187 223 264 331
#     4  11  24  38  57  78 113 148 193 213 274 317
#     4  10  24  38  48  80 120 140 182 234 250 310
#     4  11  23  31  55  86 110 139 182 231 287 321
#
# _framework density 18.624203999999999
#
# number of rings (size 3 to 8) (size 9 to 14) (size 15 to 20)
#    0.000    1.333    5.333    3.200    3.733    3.200 
#    0.000    0.000    0.000    0.000    0.000    5.600 
#    0.000    0.000    0.000    0.000    0.000    0.000 
#
# Total GULP energy -167222.078101 kJ/mol
# GULP energy per Si atom -5574.069270 kJ/mol
# Density = 1.858181 g / cm^3
# Si number density = 18.624204 Si / 1000 Ang^3
#
#
#
# Elastic Constant Matrix: (Units=GPa)
#
#
# Indices 1 2 3 4 5 6 
#
# 1 85.5082 19.6501 7.5324 0.0000 4.8696 0.0000
# 2 19.6501 54.8422 -5.8604 0.0000 -7.6846 0.0000
# 3 7.5324 -5.8604 34.4866 0.0000 16.2540 0.0000
# 4 0.0000 0.0000 0.0000 19.0636 0.0000 17.6510
# 5 4.8696 -7.6846 16.2540 0.0000 27.7732 0.0000
# 6 0.0000 0.0000 0.0000 17.6510 0.0000 32.0842
#
#
#
# Elastic Compliance Matrix: (Units=1/GPa)
#
#
# Indices 1 2 3 4 5 6 
#
# 1 0.013299 -0.005369 -0.002786 0.000000 -0.002187 0.000000
# 2 -0.005369 0.021164 0.002162 0.000000 0.005532 0.000000
# 3 -0.002786 0.002162 0.040682 0.000000 -0.022722 0.000000
# 4 0.000000 0.000000 0.000000 0.106918 0.000000 -0.058820
# 5 -0.002187 0.005532 -0.022722 0.000000 0.051218 0.000000
# 6 0.000000 0.000000 0.000000 -0.058820 0.000000 0.063528
#
#
# Mechanical properties :
#
#
# Convention : Reuss Voigt Hill
#
# Bulk Modulus (GPa) = 15.83357 24.16458 19.99907
# Shear Modulus (GPa) = 15.15853 26.01852 20.58853
#
# Velocity S-wave (km/s) = 2.85602 3.74174 3.32847
# Velocity P-wave (km/s) = 4.40407 5.62765 5.05303
#
# Compressibility (1/GPa) = 0.06315697
#
# Stress axis : x y z
#
# Youngs Moduli (GPa) = 75.19592 47.24994 24.58101
#
# Poissons Ratio (x) = 0.25369 0.06849
# Poissons Ratio (y) = 0.40373 -0.05314
# Poissons Ratio (z) = 0.20953 -0.10214
#
# Static dielectric constant tensor:
#      x y z
#    x 1.684250 0.000000 0.026080 
#    y 0.000000 1.694080 0.000000 
#    z 0.026080 0.000000 1.658310 
# 
# From -- ./inp_files/66872.got.cif
#   From: 2010.05.17/outbox.cif.g08.bks.cpg/sg15_34_cif.got.tgz:66872.got - 2010.06.03 18:47:42.
