data_PCOD9266635
_publ_section_title
;
Structure prediction by ZEFSAII (Michael W. Deem and Ramdas Pophale) SiO2 
 PCOD9266635
Probable space group: C 2/C
;
_chemical_formula_sum "Si O2"
_cell_formula_units_Z 40
_cell_length_a 25.741931
_cell_length_b 9.683978
_cell_length_c 7.971735
_cell_angle_alpha 90.000000
_cell_angle_beta 50.637662
_cell_angle_gamma 90.000000
_cell_volume 1536.426836
_symmetry_space_group_name_H-M "C 2/C"
_symmetry_group_IT_number 15
_symmetry_cell_setting 'monoclinic'
loop_
_space_group_symop_operation_xyz
x,y,z
-x,y,1/2-z
-x,-y,-z
x,-y,1/2+z
1/2+x,1/2+y,z
1/2-x,1/2+y,1/2-z
1/2-x,1/2-y,-z
1/2+x,1/2-y,1/2+z
loop_
_atom_site_type_symbol
_atom_site_label
_atom_site_fract_x
_atom_site_fract_y
_atom_site_fract_z
Si Si1 0.069667 0.705086 0.902496
Si Si2 0.830975 0.392269 0.595464
Si Si3 0.872073 0.001023 0.725022
Si Si4 0.278081 0.610432 0.655221
Si Si5 0.915516 0.301176 0.739262
O O1 0.086313 0.660143 0.059605
O O2 0.992229 0.673148 0.026459
O O3 0.078468 0.871818 0.881673
O O4 0.118256 0.642554 0.660878
O O5 0.700069 0.435015 0.573862
O O6 0.789031 0.531288 0.666322
O O7 0.774508 0.270614 0.702480
O O8 0.868555 0.372005 0.695811
O O9 0.848537 0.063953 0.596264
O O10 0.898784 0.137377 0.763014
#
# Coordination Sequence:
#
# PCOD9266635 Si02
#       5
#     8   8   8   8   8
#     4  10  20  36  61  94 128 163 209 271 329 371
#     4  10  23  42  60  98 133 166 212 264 314 386
#     4  10  19  38  56  96 127 158 202 266 320 374
#     4  10  22  38  62  90 136 168 208 258 320 386
#     4  10  20  36  61  94 128 163 209 271 329 371
#
# _framework density 26.034431999999999
#
# number of rings (size 3 to 8) (size 9 to 14) (size 15 to 20)
#    0.000    2.000    2.000    1.200    0.000    6.400 
#    3.600    0.000    0.000    0.000    0.000   47.600 
#    0.000    0.000    0.000    0.000    0.000    0.000 
#
# Total GULP energy -111954.724995 kJ/mol
# GULP energy per Si atom -5597.736250 kJ/mol
# Density = 2.597518 g / cm^3
# Si number density = 26.034432 Si / 1000 Ang^3
#
#
#
# Elastic Constant Matrix: (Units=GPa)
#
#
# Indices 1 2 3 4 5 6 
#
# 1 154.8639 57.8758 72.2760 0.0000 -0.9222 0.0000
# 2 57.8758 105.7911 51.8714 0.0000 -21.7042 0.0000
# 3 72.2760 51.8714 107.1083 0.0000 -9.3273 0.0000
# 4 0.0000 0.0000 0.0000 21.7818 0.0000 16.8215
# 5 -0.9222 -21.7042 -9.3273 0.0000 39.7265 0.0000
# 6 0.0000 0.0000 0.0000 16.8215 0.0000 21.2679
#
#
#
# Elastic Compliance Matrix: (Units=1/GPa)
#
#
# Indices 1 2 3 4 5 6 
#
# 1 0.010349 -0.003575 -0.005514 0.000000 -0.003008 0.000000
# 2 -0.003575 0.014919 -0.004196 0.000000 0.007083 0.000000
# 3 -0.005514 -0.004196 0.015189 0.000000 0.001146 0.000000
# 4 0.000000 0.000000 0.000000 0.117963 0.000000 -0.093301
# 5 -0.003008 0.007083 0.001146 0.000000 0.029241 0.000000
# 6 0.000000 0.000000 0.000000 -0.093301 0.000000 0.120814
#
#
# Mechanical properties :
#
#
# Convention : Reuss Voigt Hill
#
# Bulk Modulus (GPa) = 72.00995 81.31219 76.66107
# Shear Modulus (GPa) = 14.72006 28.93794 21.82900
#
# Velocity S-wave (km/s) = 2.38041 3.33757 2.89877
# Velocity P-wave (km/s) = 5.93925 6.79359 6.38074
#
# Compressibility (1/GPa) = 0.01388697
#
# Stress axis : x y z
#
# Youngs Moduli (GPa) = 96.62966 67.02958 65.83794
#
# Poissons Ratio (x) = 0.23963 0.36302
# Poissons Ratio (y) = 0.34546 0.27624
# Poissons Ratio (z) = 0.53280 0.28124
#
# Static dielectric constant tensor:
#      x y z
#    x 2.083380 0.000000 0.081570 
#    y 0.000000 2.153080 0.000000 
#    z 0.081570 0.000000 2.015360 
# 
# From -- ./inp_files/172582.got.cif
#   From: 2010.05.17/outbox.cif.g08.bks.cpg/sg15_87_cif.got.tgz:172582.got - 2010.06.03 18:47:42.
