data_PCOD9266791
_publ_section_title
;
Structure prediction by ZEFSAII (Michael W. Deem and Ramdas Pophale) SiO2 
 PCOD9266791
Probable space group: C 2/C
;
_chemical_formula_sum "Si O2"
_cell_formula_units_Z 44
_cell_length_a 8.276988
_cell_length_b 12.961946
_cell_length_c 20.660482
_cell_angle_alpha 90.000000
_cell_angle_beta 52.689387
_cell_angle_gamma 90.000000
_cell_volume 1762.980034
_symmetry_space_group_name_H-M "C 2/C"
_symmetry_group_IT_number 15
_symmetry_cell_setting 'monoclinic'
loop_
_space_group_symop_operation_xyz
x,y,z
-x,y,1/2-z
-x,-y,-z
x,-y,1/2+z
1/2+x,1/2+y,z
1/2-x,1/2+y,1/2-z
1/2-x,1/2-y,-z
1/2+x,1/2-y,1/2+z
loop_
_atom_site_type_symbol
_atom_site_label
_atom_site_fract_x
_atom_site_fract_y
_atom_site_fract_z
Si Si1 0.724604 0.901644 0.073814
Si Si2 0.420298 0.842787 0.041299
Si Si3 0.783645 0.439878 0.625398
Si Si4 0.799966 0.870551 0.574037
Si Si5 0.327120 0.366766 0.717046
Si Si6 0.000000 0.320238 0.250000
O O1 0.579869 0.834728 0.062221
O O2 0.644424 0.880739 0.165402
O O3 0.711390 0.025282 0.064044
O O4 0.958639 0.876230 0.002174
O O5 0.263733 0.750263 0.069339
O O6 0.312705 0.948918 0.086958
O O7 0.562234 0.860637 0.945088
O O8 0.558379 0.405617 0.661351
O O9 0.791795 0.434078 0.701046
O O10 0.755521 0.875606 0.661520
O O11 0.352092 0.253148 0.742457
#
# Coordination Sequence:
#
# PCOD9266791 Si02
#       6
#     8   8   8   8   8   4
#     4  11  23  36  59  91 111 152 196 249 283 360
#     4  11  20  41  60  82 117 157 190 245 294 352
#     4   9  21  35  62  81 113 155 194 233 293 348
#     4  11  22  37  61  83 119 148 196 241 301 343
#     4  10  19  38  61  86 110 157 192 233 289 361
#     4  10  20  36  60  84 114 148 204 230 292 346
#
# _framework density 24.957742
#
# number of rings (size 3 to 8) (size 9 to 14) (size 15 to 20)
#    0.000    1.818    3.636    2.727    2.545    0.000 
#    0.000    5.455    8.000    0.000    0.000    0.000 
#    0.000    0.000    0.000    0.000    0.000    0.000 
#
# Total GULP energy -123060.219997 kJ/mol
# GULP energy per Si atom -5593.646364 kJ/mol
# Density = 2.490094 g / cm^3
# Si number density = 24.957742 Si / 1000 Ang^3
#
#
#
# Elastic Constant Matrix: (Units=GPa)
#
#
# Indices 1 2 3 4 5 6 
#
# 1 44.1128 9.5575 22.2343 0.0000 16.0724 0.0000
# 2 9.5575 135.5662 39.7426 0.0000 -3.8069 0.0000
# 3 22.2343 39.7426 181.1664 -0.0001 18.7581 0.0000
# 4 0.0000 0.0000 -0.0001 35.2106 0.0000 12.1384
# 5 16.0724 -3.8069 18.7581 0.0000 35.9194 0.0000
# 6 0.0000 0.0000 0.0000 12.1384 0.0000 9.2617
#
#
#
# Elastic Compliance Matrix: (Units=1/GPa)
#
#
# Indices 1 2 3 4 5 6 
#
# 1 0.028324 -0.001788 -0.001852 0.000000 -0.011896 0.000000
# 2 -0.001788 0.008113 -0.001831 0.000000 0.002616 0.000000
# 3 -0.001852 -0.001831 0.006431 0.000000 -0.002724 0.000000
# 4 0.000000 0.000000 0.000000 0.051808 0.000000 -0.067900
# 5 -0.011896 0.002616 -0.002724 0.000000 0.034863 0.000000
# 6 0.000000 0.000000 0.000000 -0.067900 0.000000 0.196963
#
#
# Mechanical properties :
#
#
# Convention : Reuss Voigt Hill
#
# Bulk Modulus (GPa) = 31.32304 55.99044 43.65674
# Shear Modulus (GPa) = 14.36426 35.36573 24.86500
#
# Velocity S-wave (km/s) = 2.40165 3.76842 3.15982
# Velocity P-wave (km/s) = 4.50203 6.43564 5.55363
#
# Compressibility (1/GPa) = 0.03192538
#
# Stress axis : x y z
#
# Youngs Moduli (GPa) = 35.30516 123.26182 155.50114
#
# Poissons Ratio (x) = 0.22039 0.28803
# Poissons Ratio (y) = 0.06312 0.28475
# Poissons Ratio (z) = 0.06539 0.22571
#
# Static dielectric constant tensor:
#      x y z
#    x 2.052500 0.000000 0.039310 
#    y 0.000000 2.014500 0.000000 
#    z 0.039310 0.000000 1.938440 
# 
# From -- ./inp_files/196283.got.cif
#   From: 2010.05.17/outbox.cif.g08.bks.cpg/sg15_99_cif.got.tgz:196283.got - 2010.06.03 18:47:42.
