data_PCOD9266925
_publ_section_title
;
Structure prediction by ZEFSAII (Michael W. Deem and Ramdas Pophale) SiO2 
 PCOD9266925
Probable space group: C 2/C
;
_chemical_formula_sum "Si O2"
_cell_formula_units_Z 48
_cell_length_a 16.390128
_cell_length_b 8.287553
_cell_length_c 15.843779
_cell_angle_alpha 90.000000
_cell_angle_beta 122.261643
_cell_angle_gamma 90.000000
_cell_volume 1819.878365
_symmetry_space_group_name_H-M "C 2/C"
_symmetry_group_IT_number 15
_symmetry_cell_setting 'monoclinic'
loop_
_space_group_symop_operation_xyz
x,y,z
-x,y,1/2-z
-x,-y,-z
x,-y,1/2+z
1/2+x,1/2+y,z
1/2-x,1/2+y,1/2-z
1/2-x,1/2-y,-z
1/2+x,1/2-y,1/2+z
loop_
_atom_site_type_symbol
_atom_site_label
_atom_site_fract_x
_atom_site_fract_y
_atom_site_fract_z
Si Si1 0.554829 0.949021 0.689488
Si Si2 0.645403 0.198161 0.087047
Si Si3 0.167101 0.491401 0.946910
Si Si4 0.957217 0.894693 0.346958
Si Si5 0.359579 0.291721 0.774467
Si Si6 0.161745 0.835078 0.539639
O O1 0.576696 0.927657 0.599857
O O2 0.581006 0.762366 0.725794
O O3 0.441338 0.962627 0.644908
O O4 0.604475 0.118464 0.735829
O O5 0.597065 0.364159 0.092275
O O6 0.751037 0.182884 0.184587
O O7 0.656680 0.154276 0.995695
O O8 0.251838 0.463378 0.926697
O O9 0.190806 0.344435 0.023769
O O10 0.069231 0.883314 0.431909
O O11 0.925087 0.057052 0.284873
O O12 0.362531 0.303402 0.876958
#
# Coordination Sequence:
#
# PCOD9266925 Si02
#       6
#     8   8   8   8   8   8
#     4   9  20  37  61  85 117 158 198 243 296 356
#     4  10  20  36  59  88 119 154 200 249 297 346
#     4  10  19  38  63  87 123 159 195 256 301 352
#     4   9  21  36  58  90 113 155 204 243 286 362
#     4  12  20  36  62  89 117 157 205 246 291 364
#     4  10  20  36  62  92 117 158 207 241 304 363
#
# _framework density 26.375387
#
# number of rings (size 3 to 8) (size 9 to 14) (size 15 to 20)
#    1.000    1.000    1.667    3.000    0.000    0.000 
#    0.000    5.000    3.667    2.000    0.000    0.000 
#    0.000    0.000    0.000    0.000    0.000    0.000 
#
# Total GULP energy -134181.304910 kJ/mol
# GULP energy per Si atom -5590.887705 kJ/mol
# Density = 2.631536 g / cm^3
# Si number density = 26.375387 Si / 1000 Ang^3
#
#
#
# Elastic Constant Matrix: (Units=GPa)
#
#
# Indices 1 2 3 4 5 6 
#
# 1 142.3337 54.1788 8.1974 0.0000 16.6254 0.0000
# 2 54.1788 160.8661 45.4090 0.0000 2.7531 0.0000
# 3 8.1974 45.4090 70.9702 0.0000 25.8599 0.0000
# 4 0.0000 0.0000 0.0000 30.4433 0.0000 -0.1992
# 5 16.6254 2.7531 25.8599 0.0000 38.3323 0.0000
# 6 0.0000 0.0000 0.0000 -0.1992 0.0000 26.5099
#
#
#
# Elastic Compliance Matrix: (Units=1/GPa)
#
#
# Indices 1 2 3 4 5 6 
#
# 1 0.009057 -0.004010 0.003773 0.000000 -0.006186 0.000000
# 2 -0.004010 0.009760 -0.008168 0.000000 0.006548 0.000000
# 3 0.003773 -0.008168 0.025542 0.000000 -0.018281 0.000000
# 4 0.000000 0.000000 0.000000 0.032850 0.000000 0.000247
# 5 -0.006186 0.006548 -0.018281 0.000000 0.040633 0.000000
# 6 0.000000 0.000000 0.000000 0.000247 0.000000 0.037724
#
#
# Mechanical properties :
#
#
# Convention : Reuss Voigt Hill
#
# Bulk Modulus (GPa) = 36.29629 65.52673 50.91151
# Shear Modulus (GPa) = 27.53942 36.81610 32.17776
#
# Velocity S-wave (km/s) = 3.23481 3.74016 3.49663
# Velocity P-wave (km/s) = 5.26719 6.59921 5.97046
#
# Compressibility (1/GPa) = 0.02755102
#
# Stress axis : x y z
#
# Youngs Moduli (GPa) = 110.40878 102.45535 39.15139
#
# Poissons Ratio (x) = 0.41082 -0.14773
# Poissons Ratio (y) = 0.44271 0.31978
# Poissons Ratio (z) = -0.41662 0.83685
#
# Static dielectric constant tensor:
#      x y z
#    x 2.209510 0.000000 -0.148190 
#    y 0.000000 2.082550 0.000000 
#    z -0.148190 0.000000 2.145800 
# 
# From -- ./inp_files/279447.got.cif
#   From: 2010.05.17/outbox.cif.g08.bks.cpg/sg15_140_cif.got.tgz:279447.got - 2010.06.03 18:47:42.
