data_PCOD9266950
_publ_section_title
;
Structure prediction by ZEFSAII (Michael W. Deem and Ramdas Pophale) SiO2 
 PCOD9266950
Probable space group: C 2/C
;
_chemical_formula_sum "Si O2"
_cell_formula_units_Z 52
_cell_length_a 9.048489
_cell_length_b 20.247149
_cell_length_c 14.410531
_cell_angle_alpha 90.000000
_cell_angle_beta 111.498084
_cell_angle_gamma 90.000000
_cell_volume 2456.425223
_symmetry_space_group_name_H-M "C 2/C"
_symmetry_group_IT_number 15
_symmetry_cell_setting 'monoclinic'
loop_
_space_group_symop_operation_xyz
x,y,z
-x,y,1/2-z
-x,-y,-z
x,-y,1/2+z
1/2+x,1/2+y,z
1/2-x,1/2+y,1/2-z
1/2-x,1/2-y,-z
1/2+x,1/2-y,1/2+z
loop_
_atom_site_type_symbol
_atom_site_label
_atom_site_fract_x
_atom_site_fract_y
_atom_site_fract_z
Si Si1 0.148598 0.256730 0.883977
Si Si2 0.331503 0.179365 0.307965
Si Si3 0.869717 0.530543 0.395891
Si Si4 0.500000 0.334181 0.750000
Si Si5 0.334017 0.429594 0.378582
Si Si6 0.000000 0.452111 0.250000
Si Si7 0.500000 0.357871 0.250000
Si Si8 0.971078 0.058392 0.096572
O O1 0.177117 0.310840 0.807449
O O2 0.969630 0.272797 0.872625
O O3 0.135752 0.187805 0.826910
O O4 0.250000 0.250000 0.000000
O O5 0.372385 0.107687 0.362412
O O6 0.161153 0.202902 0.305685
O O7 0.688718 0.524349 0.395256
O O8 0.000000 0.500000 0.500000
O O9 0.909661 0.492498 0.310000
O O10 0.462184 0.385793 0.822140
O O11 0.147152 0.416575 0.332965
O O12 0.418738 0.400245 0.309750
O O13 0.389136 0.506634 0.392220
O O14 0.410206 0.405330 0.490965
#
# Coordination Sequence:
#
# PCOD9266950 Si02
#       8
#     8   8   8   4   8   4   4   8
#     4  10  23  45  67  92 116 170 227 274 316 377
#     4   9  21  39  65  93 124 164 214 266 326 378
#     4  11  21  39  61 100 134 171 208 262 318 402
#     4  10  19  38  63  90 127 160 203 272 318 402
#     4  11  22  38  58  91 126 177 204 262 311 386
#     4  12  22  35  59  92 137 163 216 250 318 394
#     4  10  23  43  62  86 128 159 225 262 320 370
#     4  10  22  38  61  90 134 171 214 238 338 393
#
# _framework density 21.168973999999999
#
# number of rings (size 3 to 8) (size 9 to 14) (size 15 to 20)
#    0.000    1.846    1.538    4.154    2.154    2.462 
#    0.000    3.846    0.000    0.000    0.000    0.000 
#    0.000    0.000    0.000    0.000    0.000    0.000 
#
# Total GULP energy -144795.765238 kJ/mol
# GULP energy per Si atom -5569.067894 kJ/mol
# Density = 2.112079 g / cm^3
# Si number density = 21.168974 Si / 1000 Ang^3
#
#
#
# Elastic Constant Matrix: (Units=GPa)
#
#
# Indices 1 2 3 4 5 6 
#
# 1 54.6661 4.0583 7.5180 0.0000 19.7204 0.0000
# 2 4.0583 26.6595 27.7498 0.0000 6.6982 0.0000
# 3 7.5180 27.7498 149.9580 0.0000 16.0402 0.0000
# 4 0.0000 0.0000 0.0000 32.1454 0.0000 -13.8523
# 5 19.7204 6.6982 16.0402 0.0000 34.7105 0.0000
# 6 0.0000 0.0000 0.0000 -13.8523 0.0000 41.0455
#
#
#
# Elastic Compliance Matrix: (Units=1/GPa)
#
#
# Indices 1 2 3 4 5 6 
#
# 1 0.023025 -0.000577 0.000357 0.000000 -0.013135 0.000000
# 2 -0.000577 0.047402 -0.008205 0.000000 -0.005028 0.000000
# 3 0.000357 -0.008205 0.008438 0.000000 -0.002519 0.000000
# 4 0.000000 0.000000 0.000000 0.036403 0.000000 0.012285
# 5 -0.013135 -0.005028 -0.002519 0.000000 0.038407 0.000000
# 6 0.000000 0.000000 0.000000 0.012285 0.000000 0.028509
#
#
# Mechanical properties :
#
#
# Convention : Reuss Voigt Hill
#
# Bulk Modulus (GPa) = 16.12481 34.43731 25.28106
# Shear Modulus (GPa) = 22.75778 34.37743 28.56761
#
# Velocity S-wave (km/s) = 3.28236 4.03420 3.67754
# Velocity P-wave (km/s) = 4.69030 6.16465 5.47731
#
# Compressibility (1/GPa) = 0.06201625
#
# Stress axis : x y z
#
# Youngs Moduli (GPa) = 43.43107 21.09628 118.50558
#
# Poissons Ratio (x) = 0.01217 -0.04236
# Poissons Ratio (y) = 0.02505 0.97234
# Poissons Ratio (z) = -0.01552 0.17309
#
# Static dielectric constant tensor:
#      x y z
#    x 1.812470 0.000000 -0.001720 
#    y 0.000000 1.775750 0.000000 
#    z -0.001720 0.000000 1.805190 
# 
# From -- ./inp_files/137565.got.cif
#   From: 2010.05.17/outbox.cif.g08.bks.cpg/sg15_69_cif.got.tgz:137565.got - 2010.06.03 18:47:42.
