data_PCOD9266784
_publ_section_title
;
Structure prediction by ZEFSAII (Michael W. Deem and Ramdas Pophale) SiO2 
 PCOD9266784
Probable space group: C 2/C
;
_chemical_formula_sum "Si O2"
_cell_formula_units_Z 52
_cell_length_a 10.027492
_cell_length_b 11.188706
_cell_length_c 26.152204
_cell_angle_alpha 90.000000
_cell_angle_beta 119.530596
_cell_angle_gamma 90.000000
_cell_volume 2552.971493
_symmetry_space_group_name_H-M "C 2/C"
_symmetry_group_IT_number 15
_symmetry_cell_setting 'monoclinic'
loop_
_space_group_symop_operation_xyz
x,y,z
-x,y,1/2-z
-x,-y,-z
x,-y,1/2+z
1/2+x,1/2+y,z
1/2-x,1/2+y,1/2-z
1/2-x,1/2-y,-z
1/2+x,1/2-y,1/2+z
loop_
_atom_site_type_symbol
_atom_site_label
_atom_site_fract_x
_atom_site_fract_y
_atom_site_fract_z
Si Si1 0.137587 0.010688 0.360835
Si Si2 0.756997 0.942341 0.439811
Si Si3 0.183479 0.314078 0.225292
Si Si4 0.017724 0.120416 0.069842
Si Si5 0.927642 0.399444 0.397856
Si Si6 0.161757 0.262908 0.332996
Si Si7 0.500000 0.662089 0.750000
O O1 0.036671 0.053731 0.389126
O O2 0.209902 0.125864 0.345329
O O3 0.289746 0.941384 0.407339
O O4 0.041492 0.925134 0.305102
O O5 0.878089 0.894149 0.503699
O O6 0.589743 0.965074 0.432314
O O7 0.723266 0.838931 0.391835
O O8 0.835224 0.054716 0.426678
O O9 0.136598 0.410819 0.173161
O O10 0.205286 0.334242 0.289819
O O11 0.345602 0.265971 0.234904
O O12 0.022787 0.244946 0.197806
O O13 0.046988 0.258834 0.087243
#
# Coordination Sequence:
#
# PCOD9266784 Si02
#       7
#     8   8   8   8   8   8   4
#     4  11  22  37  64  86 123 160 195 251 304 354
#     4  10  22  41  63  89 118 163 204 243 307 347
#     4   9  18  35  60  83 118 154 194 242 297 351
#     4  11  22  42  63  86 124 158 200 259 289 355
#     4  10  22  41  60  92 119 157 202 245 303 362
#     4  10  19  38  61  84 118 162 196 240 301 363
#     4  10  20  34  56  92 118 150 202 246 298 362
#
# _framework density 20.368421999999999
#
# number of rings (size 3 to 8) (size 9 to 14) (size 15 to 20)
#    0.000    1.846    3.077    2.308    0.000    0.615 
#    8.308    1.538    0.000    0.000    0.000    0.000 
#    0.000    0.000    0.000    0.000    0.000    0.000 
#
# Total GULP energy -144735.646466 kJ/mol
# GULP energy per Si atom -5566.755633 kJ/mol
# Density = 2.032206 g / cm^3
# Si number density = 20.368422 Si / 1000 Ang^3
#
#
#
# Elastic Constant Matrix: (Units=GPa)
#
#
# Indices 1 2 3 4 5 6 
#
# 1 132.4083 36.4940 30.1775 0.0000 27.3655 0.0000
# 2 36.4940 38.2766 20.2951 0.0000 4.9037 0.0000
# 3 30.1775 20.2951 75.7006 0.0000 -0.2675 0.0000
# 4 0.0000 0.0000 0.0000 10.3009 0.0000 4.2283
# 5 27.3655 4.9037 -0.2675 0.0000 27.3869 0.0000
# 6 0.0000 0.0000 0.0000 4.2283 0.0000 20.8356
#
#
#
# Elastic Compliance Matrix: (Units=1/GPa)
#
#
# Indices 1 2 3 4 5 6 
#
# 1 0.013218 -0.009692 -0.002712 0.000000 -0.011499 0.000000
# 2 -0.009692 0.038423 -0.006428 0.000000 0.002742 0.000000
# 3 -0.002712 -0.006428 0.016028 0.000000 0.004017 0.000000
# 4 0.000000 0.000000 0.000000 0.105901 0.000000 -0.021491
# 5 -0.011499 0.002742 0.004017 0.000000 0.047552 0.000000
# 6 0.000000 0.000000 0.000000 -0.021491 0.000000 0.052356
#
#
# Mechanical properties :
#
#
# Convention : Reuss Voigt Hill
#
# Bulk Modulus (GPa) = 33.32544 46.70209 40.01376
# Shear Modulus (GPa) = 15.56939 22.33262 18.95101
#
# Velocity S-wave (km/s) = 2.76776 3.31484 3.05357
# Velocity P-wave (km/s) = 5.15857 6.13427 5.66746
#
# Compressibility (1/GPa) = 0.03000711
#
# Stress axis : x y z
#
# Youngs Moduli (GPa) = 75.65356 26.02615 62.38928
#
# Poissons Ratio (x) = 0.25224 0.16918
# Poissons Ratio (y) = 0.73321 0.40103
# Poissons Ratio (z) = 0.20515 0.16729
#
# Static dielectric constant tensor:
#      x y z
#    x 1.780490 0.000000 -0.007150 
#    y 0.000000 1.716080 0.000000 
#    z -0.007150 0.000000 1.770060 
# 
# From -- ./inp_files/287616.got.cif
#   From: 2010.05.17/outbox.cif.g08.bks.cpg/sg15_144_cif.got.tgz:287616.got - 2010.06.03 18:47:42.
