data_PCOD9266749
_publ_section_title
;
Structure prediction by ZEFSAII (Michael W. Deem and Ramdas Pophale) SiO2 
 PCOD9266749
Probable space group: C 2/C
;
_chemical_formula_sum "Si O2"
_cell_formula_units_Z 56
_cell_length_a 8.425615
_cell_length_b 30.756493
_cell_length_c 11.910747
_cell_angle_alpha 90.000000
_cell_angle_beta 110.876287
_cell_angle_gamma 90.000000
_cell_volume 2883.951556
_symmetry_space_group_name_H-M "C 2/C"
_symmetry_group_IT_number 15
_symmetry_cell_setting 'monoclinic'
loop_
_space_group_symop_operation_xyz
x,y,z
-x,y,1/2-z
-x,-y,-z
x,-y,1/2+z
1/2+x,1/2+y,z
1/2-x,1/2+y,1/2-z
1/2-x,1/2-y,-z
1/2+x,1/2-y,1/2+z
loop_
_atom_site_type_symbol
_atom_site_label
_atom_site_fract_x
_atom_site_fract_y
_atom_site_fract_z
Si Si1 0.835366 0.539210 0.583214
Si Si2 0.280251 0.071045 0.814045
Si Si3 0.488247 0.234376 0.883862
Si Si4 0.196993 0.170468 0.774062
Si Si5 0.862999 0.037159 0.499358
Si Si6 0.429783 0.408545 0.609022
Si Si7 0.176558 0.816283 0.004094
O O1 0.752414 0.558831 0.676597
O O2 0.810793 0.487362 0.579410
O O3 0.726981 0.559262 0.454800
O O4 0.027468 0.554552 0.620747
O O5 0.263971 0.122791 0.824364
O O6 0.159196 0.049043 0.875918
O O7 0.500000 0.237555 0.750000
O O8 0.313729 0.208183 0.856633
O O9 0.525133 0.281985 0.942805
O O10 0.643045 0.206494 0.976910
O O11 0.202771 0.172651 0.640886
O O12 0.000000 0.175159 0.750000
O O13 0.922667 0.078384 0.442662
O O14 0.000000 0.000000 0.500000
O O15 0.500000 0.414603 0.750000
O O16 0.363955 0.360080 0.571539
#
# Coordination Sequence:
#
# PCOD9266749 Si02
#       7
#     8   8   8   8   8   8   8
#     4  10  23  39  64  90 115 161 204 267 306 372
#     4  11  22  41  66  89 121 157 213 261 309 370
#     4   9  20  36  62  89 120 157 205 259 303 366
#     4  11  22  35  61  91 124 154 204 258 313 375
#     4  10  24  38  60  88 122 160 200 259 310 372
#     4  11  22  37  59  87 125 162 203 250 316 376
#     4  10  19  38  60  88 120 160 212 248 307 372
#
# _framework density 19.417801999999998
#
# number of rings (size 3 to 8) (size 9 to 14) (size 15 to 20)
#    0.000    1.714    1.429    2.571   10.000    0.571 
#    0.000    0.000    0.000    0.000    0.000    0.000 
#    0.000    0.000    0.000    0.000    0.000    0.000 
#
# Total GULP energy -156159.272928 kJ/mol
# GULP energy per Si atom -5577.116890 kJ/mol
# Density = 1.937361 g / cm^3
# Si number density = 19.417802 Si / 1000 Ang^3
#
#
#
# Elastic Constant Matrix: (Units=GPa)
#
#
# Indices 1 2 3 4 5 6 
#
# 1 82.3186 19.2651 25.7814 0.0000 4.9002 0.0000
# 2 19.2651 74.6237 16.7941 0.0000 10.8799 0.0000
# 3 25.7814 16.7941 96.2611 0.0000 9.4574 0.0000
# 4 0.0000 0.0000 0.0000 38.9880 0.0000 1.6493
# 5 4.9002 10.8799 9.4574 0.0000 35.6336 0.0000
# 6 0.0000 0.0000 0.0000 1.6493 0.0000 16.0362
#
#
#
# Elastic Compliance Matrix: (Units=1/GPa)
#
#
# Indices 1 2 3 4 5 6 
#
# 1 0.013819 -0.002822 -0.003190 0.000000 -0.000192 0.000000
# 2 -0.002822 0.015019 -0.001491 0.000000 -0.003802 0.000000
# 3 -0.003190 -0.001491 0.011721 0.000000 -0.002217 0.000000
# 4 0.000000 0.000000 0.000000 0.025761 0.000000 -0.002650
# 5 -0.000192 -0.003802 -0.002217 0.000000 0.029839 0.000000
# 6 0.000000 0.000000 0.000000 -0.002650 0.000000 0.062632
#
#
# Mechanical properties :
#
#
# Convention : Reuss Voigt Hill
#
# Bulk Modulus (GPa) = 39.13392 41.87606 40.50499
# Shear Modulus (GPa) = 27.42541 30.88907 29.15724
#
# Velocity S-wave (km/s) = 3.76225 3.99276 3.87922
# Velocity P-wave (km/s) = 6.25061 6.54743 6.40074
#
# Compressibility (1/GPa) = 0.02555328
#
# Stress axis : x y z
#
# Youngs Moduli (GPa) = 72.36540 66.58291 85.31924
#
# Poissons Ratio (x) = 0.18787 0.27216
# Poissons Ratio (y) = 0.20419 0.12721
# Poissons Ratio (z) = 0.23084 0.09928
#
# Static dielectric constant tensor:
#      x y z
#    x 1.743430 0.000000 -0.001910 
#    y 0.000000 1.698880 0.000000 
#    z -0.001910 0.000000 1.678220 
# 
# From -- ./inp_files/82274.got.cif
#   From: 2010.05.17/outbox.cif.g08.bks.cpg/sg15_42_cif.got.tgz:82274.got - 2010.06.03 18:47:42.
