data_PCOD9266133
_publ_section_title
;
Structure prediction by ZEFSAII (Michael W. Deem and Ramdas Pophale) SiO2 
 PCOD9266133
Probable space group: C 2/C
;
_chemical_formula_sum "Si O2"
_cell_formula_units_Z 64
_cell_length_a 18.314958
_cell_length_b 9.358422
_cell_length_c 28.863478
_cell_angle_alpha 90.000000
_cell_angle_beta 138.561115
_cell_angle_gamma 90.000000
_cell_volume 3274.142827
_symmetry_space_group_name_H-M "C 2/C"
_symmetry_group_IT_number 15
_symmetry_cell_setting 'monoclinic'
loop_
_space_group_symop_operation_xyz
x,y,z
-x,y,1/2-z
-x,-y,-z
x,-y,1/2+z
1/2+x,1/2+y,z
1/2-x,1/2+y,1/2-z
1/2-x,1/2-y,-z
1/2+x,1/2-y,1/2+z
loop_
_atom_site_type_symbol
_atom_site_label
_atom_site_fract_x
_atom_site_fract_y
_atom_site_fract_z
Si Si1 0.091191 0.785857 0.435422
Si Si2 0.501210 0.992994 0.555899
Si Si3 0.861716 0.163952 0.788424
Si Si4 0.285204 0.904281 0.577989
Si Si5 0.884233 0.399388 0.721678
Si Si6 0.626192 0.819322 0.431418
Si Si7 0.939579 0.711414 0.770119
Si Si8 0.742947 0.896935 0.697318
O O1 0.057013 0.648773 0.450284
O O2 0.162631 0.891894 0.500251
O O3 0.155877 0.727959 0.420715
O O4 0.983070 0.858718 0.365156
O O5 0.436680 0.121582 0.552128
O O6 0.500000 0.000000 0.500000
O O7 0.631847 0.974396 0.627447
O O8 0.866971 0.261371 0.744968
O O9 0.797908 0.263023 0.793401
O O10 0.803194 0.015866 0.755266
O O11 0.295994 0.904839 0.638177
O O12 0.344126 0.043464 0.585976
O O13 0.893600 0.547904 0.755059
O O14 0.000000 0.382819 0.750000
O O15 0.750000 0.750000 0.500000
O O16 0.528115 0.748231 0.352905
O O17 0.841253 0.824849 0.714783
O O18 0.000000 0.701762 0.750000
#
# Coordination Sequence:
#
# PCOD9266133 Si02
#       8
#     8   8   8   8   8   8   8   8
#     4   9  20  37  58  87 124 160 206 251 316 377
#     4  10  23  41  61  89 133 170 208 263 334 391
#     4  11  22  40  63  89 121 168 210 264 320 394
#     4  10  19  37  60  89 124 165 199 262 313 386
#     4  11  19  37  66  90 125 165 214 255 324 382
#     4  11  23  40  67  95 128 170 215 272 339 400
#     4  11  23  43  66  94 127 169 220 275 332 400
#     4  11  25  42  65  88 130 166 218 269 331 393
#
# _framework density 19.5471
#
# number of rings (size 3 to 8) (size 9 to 14) (size 15 to 20)
#    0.000    1.500    3.750    3.000    5.250    0.500 
#    0.000    0.000    0.000    3.000    0.000    0.000 
#    0.000    0.000    0.000    0.000    0.000    0.000 
#
# Total GULP energy -178250.364604 kJ/mol
# GULP energy per Si atom -5570.323894 kJ/mol
# Density = 1.950261 g / cm^3
# Si number density = 19.547100 Si / 1000 Ang^3
#
#
#
# Elastic Constant Matrix: (Units=GPa)
#
#
# Indices 1 2 3 4 5 6 
#
# 1 30.5041 -69.3637 96.7766 0.0000 22.7166 0.0000
# 2 -69.3637 -94.9501 125.5015 0.0000 49.2630 0.0000
# 3 96.7766 125.5015 43.5493 0.0000 -21.9008 0.0000
# 4 0.0000 0.0000 0.0000 57.6877 0.0000 49.4805
# 5 22.7166 49.2630 -21.9008 0.0000 17.0408 0.0000
# 6 0.0000 0.0000 0.0000 49.4805 0.0000 87.8335
#
#
#
# Elastic Compliance Matrix: (Units=1/GPa)
#
#
# Indices 1 2 3 4 5 6 
#
# 1 0.013340 -0.008778 -0.001495 0.000000 0.005672 0.000000
# 2 -0.008778 0.005384 0.005787 0.000000 0.003574 0.000000
# 3 -0.001495 0.005787 0.006206 0.000000 -0.006761 0.000000
# 4 0.000000 0.000000 0.000000 0.033542 0.000000 -0.018896
# 5 0.005672 0.003574 -0.006761 0.000000 0.032100 0.000000
# 6 0.000000 0.000000 0.000000 -0.018896 0.000000 0.022030
#
#
# Mechanical properties :
#
#
# Convention : Reuss Voigt Hill
#
# Bulk Modulus (GPa) = 62.65968 31.65911 47.15940
# Shear Modulus (GPa) = 39.40282 20.92499 30.16390
#
# Velocity S-wave (km/s) = 4.49462 3.27538 3.93254
# Velocity P-wave (km/s) = 7.68511 5.52591 6.69315
#
# Compressibility (1/GPa) = 0.01595923
#
# Stress axis : x y z
#
# Youngs Moduli (GPa) = 74.96229 185.71919 161.12753
#
# Poissons Ratio (x) = 1.63028 0.24087
# Poissons Ratio (y) = 0.65803 -0.93249
# Poissons Ratio (z) = 0.11206 -1.07481
#
# Static dielectric constant tensor:
#      x y z
#    x 1.700110 0.000000 0.024210 
#    y 0.000000 1.637630 0.000000 
#    z 0.024210 0.000000 1.740900 
# 
# From -- ./inp_files/315713.got.cif
#   From: 2010.05.17/outbox.cif.g08.bks.cpg/sg15_158_cif.got.tgz:315713.got - 2010.06.03 18:47:42.
