data_PCOD9266329
_publ_section_title
;
Structure prediction by ZEFSAII (Michael W. Deem and Ramdas Pophale) SiO2 
 PCOD9266329
Probable space group: C 2/C
;
_chemical_formula_sum "Si O2"
_cell_formula_units_Z 48
_cell_length_a 20.460656
_cell_length_b 17.078307
_cell_length_c 9.516221
_cell_angle_alpha 90.000000
_cell_angle_beta 127.371593
_cell_angle_gamma 90.000000
_cell_volume 2642.656151
_symmetry_space_group_name_H-M "C 2/C"
_symmetry_group_IT_number 15
_symmetry_cell_setting 'monoclinic'
loop_
_space_group_symop_operation_xyz
x,y,z
-x,y,1/2-z
-x,-y,-z
x,-y,1/2+z
1/2+x,1/2+y,z
1/2-x,1/2+y,1/2-z
1/2-x,1/2-y,-z
1/2+x,1/2-y,1/2+z
loop_
_atom_site_type_symbol
_atom_site_label
_atom_site_fract_x
_atom_site_fract_y
_atom_site_fract_z
Si Si1 0.299715 0.032889 0.501657
Si Si2 0.951512 0.557943 0.330973
Si Si3 0.053084 0.842089 0.953814
Si Si4 0.809273 0.030103 0.877595
Si Si5 0.421394 0.161142 0.548599
Si Si6 0.961637 0.069507 0.546121
O O1 0.224856 0.044391 0.511432
O O2 0.344084 0.112317 0.507591
O O3 0.368017 0.983470 0.673615
O O4 0.265432 0.983391 0.326182
O O5 0.935524 0.632332 0.408125
O O6 0.000000 0.573359 0.250000
O O7 0.000000 0.500000 0.500000
O O8 0.082946 0.754695 0.960387
O O9 0.000000 0.870023 0.750000
O O10 0.131201 0.897677 0.081111
O O11 0.990405 0.852630 0.002471
O O12 0.866222 0.952519 0.938878
O O13 0.500000 0.140356 0.750000
O O14 0.000000 0.067792 0.750000
O O15 0.000000 0.000000 0.500000
#
# Coordination Sequence:
#
# PCOD9266329 Si02
#       6
#     8   8   8   8   8   8
#     4  12  21  35  61  90 117 153 198 248 303 358
#     4  12  20  38  62  84 111 153 206 242 283 358
#     4  10  22  41  61  87 122 160 204 248 295 356
#     4  11  21  35  61  91 119 156 195 246 304 360
#     4  11  23  40  62  88 118 158 205 251 295 355
#     4  10  19  37  63  87 119 160 208 243 285 360
#
# _framework density 18.163543000000001
#
# number of rings (size 3 to 8) (size 9 to 14) (size 15 to 20)
#    0.000    1.000    5.000    5.000    0.000    1.333 
#    0.000    0.833    0.000    0.000    0.000    0.000 
#    0.000    0.000    0.000    0.000    0.000    0.000 
#
# Total GULP energy -133891.258964 kJ/mol
# GULP energy per Si atom -5578.802457 kJ/mol
# Density = 1.812220 g / cm^3
# Si number density = 18.163543 Si / 1000 Ang^3
#
#
#
# Elastic Constant Matrix: (Units=GPa)
#
#
# Indices 1 2 3 4 5 6 
#
# 1 120.0664 30.1037 23.1236 0.0000 -17.5161 0.0000
# 2 30.1037 78.0127 31.3715 0.0000 4.5597 0.0000
# 3 23.1236 31.3715 117.4666 0.0000 -9.5071 0.0000
# 4 0.0000 0.0000 0.0000 19.6955 0.0000 4.2666
# 5 -17.5161 4.5597 -9.5071 0.0000 37.0926 0.0000
# 6 0.0000 0.0000 0.0000 4.2666 0.0000 26.0210
#
#
#
# Elastic Compliance Matrix: (Units=1/GPa)
#
#
# Indices 1 2 3 4 5 6 
#
# 1 0.010193 -0.004030 -0.000511 0.000000 0.005178 0.000000
# 2 -0.004030 0.016246 -0.003943 0.000000 -0.004911 0.000000
# 3 -0.000511 -0.003943 0.009892 0.000000 0.002779 0.000000
# 4 0.000000 0.000000 0.000000 0.052643 0.000000 -0.008632
# 5 0.005178 -0.004911 0.002779 0.000000 0.030721 0.000000
# 6 0.000000 0.000000 0.000000 -0.008632 0.000000 0.039846
#
#
# Mechanical properties :
#
#
# Convention : Reuss Voigt Hill
#
# Bulk Modulus (GPa) = 51.64732 53.86038 52.75385
# Shear Modulus (GPa) = 27.32790 31.95827 29.64308
#
# Velocity S-wave (km/s) = 3.88306 4.19916 4.04420
# Velocity P-wave (km/s) = 6.97141 7.29575 7.13542
#
# Compressibility (1/GPa) = 0.01936209
#
# Stress axis : x y z
#
# Youngs Moduli (GPa) = 98.10583 61.55235 101.09603
#
# Poissons Ratio (x) = 0.24808 0.05167
# Poissons Ratio (y) = 0.39541 0.39862
# Poissons Ratio (z) = 0.05014 0.24270
#
# Static dielectric constant tensor:
#      x y z
#    x 1.678140 0.000000 -0.005040 
#    y 0.000000 1.634880 0.000000 
#    z -0.005040 0.000000 1.614480 
# 
# From -- ./inp_files/56410.got.cif
#   From: 2010.05.17/outbox.cif.g08.bks.cpg/sg15_29_cif.got.tgz:56410.got - 2010.06.03 18:47:42.
