data_PCOD9266118
_publ_section_title
;
Structure prediction by ZEFSAII (Michael W. Deem and Ramdas Pophale) SiO2 
 PCOD9266118
Probable space group: C 2/C
;
_chemical_formula_sum "Si O2"
_cell_formula_units_Z 48
_cell_length_a 11.299128
_cell_length_b 9.996286
_cell_length_c 21.362455
_cell_angle_alpha 90.000000
_cell_angle_beta 132.230184
_cell_angle_gamma 90.000000
_cell_volume 1786.614548
_symmetry_space_group_name_H-M "C 2/C"
_symmetry_group_IT_number 15
_symmetry_cell_setting 'monoclinic'
loop_
_space_group_symop_operation_xyz
x,y,z
-x,y,1/2-z
-x,-y,-z
x,-y,1/2+z
1/2+x,1/2+y,z
1/2-x,1/2+y,1/2-z
1/2-x,1/2-y,-z
1/2+x,1/2-y,1/2+z
loop_
_atom_site_type_symbol
_atom_site_label
_atom_site_fract_x
_atom_site_fract_y
_atom_site_fract_z
Si Si1 0.560569 0.807181 0.059765
Si Si2 0.607973 0.238293 0.882318
Si Si3 0.739072 0.178797 0.799410
Si Si4 0.550684 0.082432 0.109869
Si Si5 0.480229 0.539606 0.668225
Si Si6 0.365704 0.173855 0.148430
O O1 0.405894 0.789485 0.048551
O O2 0.686448 0.686967 0.109998
O O3 0.625685 0.947428 0.110374
O O4 0.516982 0.837810 0.973497
O O5 0.721583 0.177516 0.868687
O O6 0.433758 0.187863 0.793581
O O7 0.602642 0.400055 0.876599
O O8 0.819843 0.321551 0.813201
O O9 0.855212 0.068092 0.811120
O O10 0.408800 0.068782 0.109901
O O11 0.500000 0.535942 0.750000
O O12 0.385784 0.678711 0.623881
O O13 0.500000 0.158591 0.250000
#
# Coordination Sequence:
#
# PCOD9266118 Si02
#       6
#     8   8   8   8   8   8
#     4  11  23  39  62  90 127 168 202 263 331 371
#     4  11  22  37  60  92 122 162 211 269 312 378
#     4  10  22  38  59  88 122 160 214 261 312 376
#     4  10  23  41  61  88 127 165 212 260 316 394
#     4  10  19  37  60  87 118 161 204 261 319 360
#     4  10  21  41  64  92 118 166 218 261 315 375
#
# _framework density 26.866454999999998
#
# number of rings (size 3 to 8) (size 9 to 14) (size 15 to 20)
#    0.000    1.667    1.667    4.500    4.667    2.000 
#    3.000    3.333    0.000    0.000    0.000    0.000 
#    0.000    0.000    0.000    0.000    0.000    0.000 
#
# Total GULP energy -134368.704914 kJ/mol
# GULP energy per Si atom -5598.696038 kJ/mol
# Density = 2.680531 g / cm^3
# Si number density = 26.866455 Si / 1000 Ang^3
#
#
#
# Elastic Constant Matrix: (Units=GPa)
#
#
# Indices 1 2 3 4 5 6 
#
# 1 196.6047 40.1669 39.2951 0.0000 -22.6043 0.0000
# 2 40.1669 78.4133 15.9955 0.0000 -15.6539 0.0000
# 3 39.2951 15.9955 57.7784 0.0000 -24.1130 0.0000
# 4 0.0000 0.0000 0.0000 26.4956 0.0000 -10.9403
# 5 -22.6043 -15.6539 -24.1130 0.0000 48.2967 0.0000
# 6 0.0000 0.0000 0.0000 -10.9403 0.0000 36.6077
#
#
#
# Elastic Compliance Matrix: (Units=1/GPa)
#
#
# Indices 1 2 3 4 5 6 
#
# 1 0.006325 -0.002449 -0.003435 0.000000 0.000451 0.000000
# 2 -0.002449 0.014861 -0.001158 0.000000 0.003092 0.000000
# 3 -0.003435 -0.001158 0.024174 0.000000 0.010086 0.000000
# 4 0.000000 0.000000 0.000000 0.043055 0.000000 0.012867
# 5 0.000451 0.003092 0.010086 0.000000 0.026955 0.000000
# 6 0.000000 0.000000 0.000000 0.012867 0.000000 0.031162
#
#
# Mechanical properties :
#
#
# Convention : Reuss Voigt Hill
#
# Bulk Modulus (GPa) = 31.97439 58.19015 45.08227
# Shear Modulus (GPa) = 29.23264 38.10259 33.66762
#
# Velocity S-wave (km/s) = 3.30217 3.77001 3.54382
# Velocity P-wave (km/s) = 5.14453 6.37626 5.79323
#
# Compressibility (1/GPa) = 0.03127503
#
# Stress axis : x y z
#
# Youngs Moduli (GPa) = 158.09659 67.28998 41.36723
#
# Poissons Ratio (x) = 0.16481 0.14211
# Poissons Ratio (y) = 0.38721 0.04790
# Poissons Ratio (z) = 0.54312 0.07792
#
# Static dielectric constant tensor:
#      x y z
#    x 2.242700 0.000000 0.053580 
#    y 0.000000 2.085030 0.000000 
#    z 0.053580 0.000000 2.117950 
# 
# From -- ./inp_files/268552.got.cif
#   From: 2010.05.17/outbox.cif.g08.bks.cpg/sg15_135_cif.got.tgz:268552.got - 2010.06.03 18:47:42.
