data_PCOD9266175
_publ_section_title
;
Structure prediction by ZEFSAII (Michael W. Deem and Ramdas Pophale) SiO2 
 PCOD9266175
Probable space group: C 2/C
;
_chemical_formula_sum "Si O2"
_cell_formula_units_Z 60
_cell_length_a 18.377870
_cell_length_b 8.962936
_cell_length_c 14.110856
_cell_angle_alpha 90.000000
_cell_angle_beta 87.683657
_cell_angle_gamma 90.000000
_cell_volume 2322.436383
_symmetry_space_group_name_H-M "C 2/C"
_symmetry_group_IT_number 15
_symmetry_cell_setting 'monoclinic'
loop_
_space_group_symop_operation_xyz
x,y,z
-x,y,1/2-z
-x,-y,-z
x,-y,1/2+z
1/2+x,1/2+y,z
1/2-x,1/2+y,1/2-z
1/2-x,1/2-y,-z
1/2+x,1/2-y,1/2+z
loop_
_atom_site_type_symbol
_atom_site_label
_atom_site_fract_x
_atom_site_fract_y
_atom_site_fract_z
Si Si1 0.770256 0.901793 0.945587
Si Si2 0.106818 0.386632 0.951132
Si Si3 0.903711 0.765506 0.229080
Si Si4 0.228431 0.709491 0.722298
Si Si5 0.402954 0.163565 0.438528
Si Si6 0.483144 0.344072 0.952544
Si Si7 0.000000 0.042586 0.250000
Si Si8 0.754679 0.901150 0.610376
O O1 0.687127 0.949890 0.925687
O O2 0.802552 0.837902 0.847043
O O3 0.750000 0.750000 0.000000
O O4 0.798043 0.017753 0.022570
O O5 0.073794 0.357722 0.849628
O O6 0.078884 0.494274 0.034786
O O7 0.090532 0.225996 0.999306
O O8 0.816670 0.778741 0.222593
O O9 0.924603 0.718238 0.333409
O O10 0.938068 0.928610 0.215397
O O11 0.207001 0.776618 0.826339
O O12 0.221444 0.541129 0.678148
O O13 0.447945 0.248348 0.516161
O O14 0.315670 0.174618 0.434209
O O15 0.476992 0.361588 0.841062
O O16 0.500000 0.500000 0.000000
#
# Coordination Sequence:
#
# PCOD9266175 Si02
#       8
#     8   8   8   8   8   8   4   8
#     4   8  16  34  57  82 116 161 199 235 303 359
#     4  10  20  36  63  87 118 162 205 251 301 362
#     4  10  19  37  61  84 121 167 198 249 318 362
#     4   9  18  34  60  84 118 159 208 246 302 366
#     4  10  21  38  61  89 122 159 205 252 304 364
#     4  12  23  39  61  90 122 157 206 248 307 371
#     4  12  24  40  60  90 120 156 200 258 304 362
#     4   9  18  36  58  86 117 158 199 253 298 356
#
# _framework density 25.834935999999999
#
# number of rings (size 3 to 8) (size 9 to 14) (size 15 to 20)
#    0.000    2.133    2.667    0.400    0.000    1.067 
#    7.200    2.000    0.000    0.000    0.000    0.000 
#    0.000    0.000    0.000    0.000    0.000    0.000 
#
# Total GULP energy -167331.355783 kJ/mol
# GULP energy per Si atom -5577.711859 kJ/mol
# Density = 2.577613 g / cm^3
# Si number density = 25.834936 Si / 1000 Ang^3
#
#
#
# Elastic Constant Matrix: (Units=GPa)
#
#
# Indices 1 2 3 4 5 6 
#
# 1 61.1831 6.6679 21.9564 0.0000 14.5340 0.0000
# 2 6.6679 115.6949 44.8978 0.0000 -3.1441 0.0000
# 3 21.9564 44.8978 132.7646 0.0000 12.5715 0.0000
# 4 0.0000 0.0000 0.0000 59.3089 0.0000 8.4895
# 5 14.5340 -3.1441 12.5715 0.0000 23.5805 0.0000
# 6 0.0000 0.0000 0.0000 8.4895 0.0000 27.9813
#
#
#
# Elastic Compliance Matrix: (Units=1/GPa)
#
#
# Indices 1 2 3 4 5 6 
#
# 1 0.019799 -0.000678 -0.001981 0.000000 -0.011237 0.000000
# 2 -0.000678 0.010220 -0.003699 0.000000 0.003753 0.000000
# 3 -0.001981 -0.003699 0.009523 0.000000 -0.004349 0.000000
# 4 0.000000 0.000000 0.000000 0.017626 0.000000 -0.005348
# 5 -0.011237 0.003753 -0.004349 0.000000 0.052153 0.000000
# 6 0.000000 0.000000 0.000000 -0.005348 0.000000 0.037361
#
#
# Mechanical properties :
#
#
# Convention : Reuss Voigt Hill
#
# Bulk Modulus (GPa) = 37.27871 50.74297 44.01084
# Shear Modulus (GPa) = 29.70194 37.91552 33.80873
#
# Velocity S-wave (km/s) = 3.39437 3.83509 3.62144
# Velocity P-wave (km/s) = 5.46107 6.26853 5.87868
#
# Compressibility (1/GPa) = 0.02682496
#
# Stress axis : x y z
#
# Youngs Moduli (GPa) = 50.50880 97.84624 105.01299
#
# Poissons Ratio (x) = 0.06631 0.20803
# Poissons Ratio (y) = 0.03423 0.38849
# Poissons Ratio (z) = 0.10006 0.36198
#
# Static dielectric constant tensor:
#      x y z
#    x 2.188780 0.000000 0.017080 
#    y 0.000000 1.908940 0.000000 
#    z 0.017080 0.000000 2.097970 
# 
# From -- ./inp_files/171931.got.cif
#   From: 2010.05.17/outbox.cif.g08.bks.cpg/sg15_86_cif.got.tgz:171931.got - 2010.06.03 18:47:42.
