data_PCOD9266853
_publ_section_title
;
Structure prediction by ZEFSAII (Michael W. Deem and Ramdas Pophale) SiO2 
 PCOD9266853
Probable space group: C 2/C
;
_chemical_formula_sum "Si O2"
_cell_formula_units_Z 56
_cell_length_a 29.305424
_cell_length_b 14.034206
_cell_length_c 9.400976
_cell_angle_alpha 90.000000
_cell_angle_beta 131.030145
_cell_angle_gamma 90.000000
_cell_volume 2916.687697
_symmetry_space_group_name_H-M "C 2/C"
_symmetry_group_IT_number 15
_symmetry_cell_setting 'monoclinic'
loop_
_space_group_symop_operation_xyz
x,y,z
-x,y,1/2-z
-x,-y,-z
x,-y,1/2+z
1/2+x,1/2+y,z
1/2-x,1/2+y,1/2-z
1/2-x,1/2-y,-z
1/2+x,1/2-y,1/2+z
loop_
_atom_site_type_symbol
_atom_site_label
_atom_site_fract_x
_atom_site_fract_y
_atom_site_fract_z
Si Si1 0.322782 0.304927 0.758998
Si Si2 0.377359 0.927951 0.618803
Si Si3 0.059487 0.294393 0.965166
Si Si4 0.055116 0.387242 0.254409
Si Si5 0.255762 0.970516 0.773570
Si Si6 0.282778 0.325277 0.365096
Si Si7 0.841514 0.675564 0.313810
O O1 0.288538 0.402592 0.727729
O O2 0.315866 0.290473 0.575920
O O3 0.283612 0.221812 0.755238
O O4 0.392467 0.292021 0.940871
O O5 0.403535 0.883090 0.528141
O O6 0.370369 0.845619 0.721203
O O7 0.424841 0.008991 0.761018
O O8 0.313216 0.981722 0.470658
O O9 0.000000 0.279149 0.750000
O O10 0.043804 0.321136 0.095098
O O11 0.110196 0.348716 0.464388
O O12 0.000000 0.395209 0.250000
O O13 0.286953 0.900083 0.723905
O O14 0.220817 0.061697 0.643459
O O15 0.314692 0.279033 0.293702
#
# Coordination Sequence:
#
# PCOD9266853 Si02
#       7
#     8   8   8   8   8   8   8
#     4  10  21  38  60  90 122 166 206 251 315 368
#     4  11  22  36  58  97 127 157 200 256 309 371
#     4  12  24  40  61  88 130 166 207 255 304 370
#     4  11  22  39  60  85 119 166 207 242 308 369
#     4  10  20  35  61  90 126 157 203 260 308 362
#     4  10  19  38  62  86 121 164 204 253 312 368
#     4  10  21  35  58  89 123 158 198 248 305 373
#
# _framework density 19.199863000000001
#
# number of rings (size 3 to 8) (size 9 to 14) (size 15 to 20)
#    0.000    1.429    2.857    3.857    2.000    2.286 
#    2.571    0.000    0.000    1.714    0.000    0.000 
#    0.000    0.000    0.000    0.000    0.000    0.000 
#
# Total GULP energy -156337.266500 kJ/mol
# GULP energy per Si atom -5583.473804 kJ/mol
# Density = 1.915616 g / cm^3
# Si number density = 19.199863 Si / 1000 Ang^3
#
#
#
# Elastic Constant Matrix: (Units=GPa)
#
#
# Indices 1 2 3 4 5 6 
#
# 1 111.3715 33.8464 44.7627 0.0000 -0.9520 0.0000
# 2 33.8464 66.1940 11.1142 0.0000 9.3565 0.0000
# 3 44.7627 11.1142 69.3374 0.0000 10.3940 0.0000
# 4 0.0000 0.0000 0.0000 18.9077 0.0000 0.6997
# 5 -0.9520 9.3565 10.3940 0.0000 35.5723 0.0000
# 6 0.0000 0.0000 0.0000 0.6997 0.0000 19.7935
#
#
#
# Elastic Compliance Matrix: (Units=1/GPa)
#
#
# Indices 1 2 3 4 5 6 
#
# 1 0.014733 -0.006677 -0.009165 0.000000 0.004828 0.000000
# 2 -0.006677 0.018982 0.002137 0.000000 -0.005796 0.000000
# 3 -0.009165 0.002137 0.021039 0.000000 -0.006955 0.000000
# 4 0.000000 0.000000 0.000000 0.052958 0.000000 -0.001872
# 5 0.004828 -0.005796 -0.006955 0.000000 0.031798 0.000000
# 6 0.000000 0.000000 0.000000 -0.001872 0.000000 0.050588
#
#
# Mechanical properties :
#
#
# Convention : Reuss Voigt Hill
#
# Bulk Modulus (GPa) = 36.57194 47.37215 41.97205
# Shear Modulus (GPa) = 22.06325 25.33334 23.69829
#
# Velocity S-wave (km/s) = 3.39357 3.63637 3.51706
# Velocity P-wave (km/s) = 5.86894 6.50828 6.19686
#
# Compressibility (1/GPa) = 0.02734337
#
# Stress axis : x y z
#
# Youngs Moduli (GPa) = 67.87513 52.68243 47.53107
#
# Poissons Ratio (x) = 0.35176 0.43561
# Poissons Ratio (y) = 0.45320 -0.10156
# Poissons Ratio (z) = 0.62206 -0.11257
#
# Static dielectric constant tensor:
#      x y z
#    x 1.684970 0.000000 0.002920 
#    y 0.000000 1.670340 0.000000 
#    z 0.002920 0.000000 1.710190 
# 
# From -- ./inp_files/69984.got.cif
#   From: 2010.05.17/outbox.cif.g08.bks.cpg/sg15_35_cif.got.tgz:69984.got - 2010.06.03 18:47:42.
