data_PCOD9266564
_publ_section_title
;
Structure prediction by ZEFSAII (Michael W. Deem and Ramdas Pophale) SiO2 
 PCOD9266564
Probable space group: C 2/C
;
_chemical_formula_sum "Si O2"
_cell_formula_units_Z 60
_cell_length_a 11.505577
_cell_length_b 14.458826
_cell_length_c 16.599582
_cell_angle_alpha 90.000000
_cell_angle_beta 84.513361
_cell_angle_gamma 90.000000
_cell_volume 2748.807355
_symmetry_space_group_name_H-M "C 2/C"
_symmetry_group_IT_number 15
_symmetry_cell_setting 'monoclinic'
loop_
_space_group_symop_operation_xyz
x,y,z
-x,y,1/2-z
-x,-y,-z
x,-y,1/2+z
1/2+x,1/2+y,z
1/2-x,1/2+y,1/2-z
1/2-x,1/2-y,-z
1/2+x,1/2-y,1/2+z
loop_
_atom_site_type_symbol
_atom_site_label
_atom_site_fract_x
_atom_site_fract_y
_atom_site_fract_z
Si Si1 0.000000 0.097556 0.250000
Si Si2 0.913494 0.794901 0.326013
Si Si3 0.268751 0.141515 0.996180
Si Si4 0.681163 0.346739 0.006834
Si Si5 0.050783 0.617302 0.385709
Si Si6 0.247791 0.648395 0.242584
Si Si7 0.977863 0.073550 0.430576
Si Si8 0.679474 0.014884 0.106512
O O1 0.881082 0.156378 0.259157
O O2 0.999430 0.046169 0.336489
O O3 0.867986 0.860445 0.399725
O O4 0.805392 0.741842 0.291519
O O5 0.000000 0.829815 0.250000
O O6 0.982046 0.711882 0.368306
O O7 0.390591 0.118526 0.031454
O O8 0.154860 0.103649 0.049073
O O9 0.250000 0.250000 0.000000
O O10 0.278979 0.089431 0.910029
O O11 0.750000 0.250000 0.000000
O O12 0.572829 0.348468 0.951040
O O13 0.769273 0.426857 0.972782
O O14 0.159703 0.617884 0.318284
O O15 0.958173 0.535484 0.379844
O O16 0.235981 0.566560 0.178151
O O17 0.000000 0.000000 0.500000
#
# Coordination Sequence:
#
# PCOD9266564 Si02
#       8
#     4   8   8   8   8   8   8   8
#     4  12  20  40  70  90 142 182 216 286 356 412
#     4   9  19  36  62 100 132 173 229 281 337 412
#     4  12  25  42  66  95 137 181 223 284 349 409
#     4  12  20  38  68  98 132 176 230 282 336 415
#     4  10  20  39  66  95 132 173 226 278 346 409
#     4  10  19  37  67  97 131 179 220 284 351 408
#     4  12  25  45  68 100 138 178 230 282 350 413
#     4  11  22  40  66  98 129 179 232 279 339 419
#
# _framework density 21.827648
#
# number of rings (size 3 to 8) (size 9 to 14) (size 15 to 20)
#    0.000    1.067    6.667    2.400    0.000    0.000 
#    1.200    0.000   11.733    0.000    0.000    0.000 
#    0.000    0.000    0.000    0.000    0.000    0.000 
#
# Total GULP energy -167526.005088 kJ/mol
# GULP energy per Si atom -5584.200170 kJ/mol
# Density = 2.177797 g / cm^3
# Si number density = 21.827648 Si / 1000 Ang^3
#
#
#
# Elastic Constant Matrix: (Units=GPa)
#
#
# Indices 1 2 3 4 5 6 
#
# 1 152.4267 11.2970 14.8964 0.0000 -2.3853 0.0000
# 2 11.2970 55.9914 7.5680 0.0000 -1.8603 0.0000
# 3 14.8964 7.5680 111.3547 0.0000 -7.2145 0.0000
# 4 0.0000 0.0000 0.0000 19.6433 0.0000 -9.8560
# 5 -2.3853 -1.8603 -7.2145 0.0000 36.8607 0.0000
# 6 0.0000 0.0000 0.0000 -9.8560 0.0000 17.5778
#
#
#
# Elastic Compliance Matrix: (Units=1/GPa)
#
#
# Indices 1 2 3 4 5 6 
#
# 1 0.006734 -0.001243 -0.000802 0.000000 0.000216 0.000000
# 2 -0.001243 0.018272 -0.001034 0.000000 0.000639 0.000000
# 3 -0.000802 -0.001034 0.009269 0.000000 0.001710 0.000000
# 4 0.000000 0.000000 0.000000 0.070837 0.000000 0.039719
# 5 0.000216 0.000639 0.001710 0.000000 0.027510 0.000000
# 6 0.000000 0.000000 0.000000 0.039719 0.000000 0.079161
#
#
# Mechanical properties :
#
#
# Convention : Reuss Voigt Hill
#
# Bulk Modulus (GPa) = 35.56739 43.03283 39.30011
# Shear Modulus (GPa) = 21.99606 33.88379 27.93992
#
# Velocity S-wave (km/s) = 3.17790 3.94424 3.58162
# Velocity P-wave (km/s) = 5.45852 6.36399 5.92856
#
# Compressibility (1/GPa) = 0.02811565
#
# Stress axis : x y z
#
# Youngs Moduli (GPa) = 148.48992 54.72941 107.88977
#
# Poissons Ratio (x) = 0.06804 0.08657
# Poissons Ratio (y) = 0.18459 0.11157
# Poissons Ratio (z) = 0.11915 0.05659
#
# Static dielectric constant tensor:
#      x y z
#    x 1.810370 0.000000 -0.004190 
#    y 0.000000 1.820510 0.000000 
#    z -0.004190 0.000000 1.840250 
# 
# From -- ./inp_files/197822.got.cif
#   From: 2010.05.17/outbox.cif.g08.bks.cpg/sg15_99_cif.got.tgz:197822.got - 2010.06.03 18:47:42.
