data_PCOD9266058
_publ_section_title
;
Structure prediction by ZEFSAII (Michael W. Deem and Ramdas Pophale) SiO2 
 PCOD9266058
Probable space group: C 2/C
;
_chemical_formula_sum "Si O2"
_cell_formula_units_Z 52
_cell_length_a 29.269657
_cell_length_b 9.124770
_cell_length_c 19.453865
_cell_angle_alpha 90.000000
_cell_angle_beta 156.142784
_cell_angle_gamma 90.000000
_cell_volume 2101.453214
_symmetry_space_group_name_H-M "C 2/C"
_symmetry_group_IT_number 15
_symmetry_cell_setting 'monoclinic'
loop_
_space_group_symop_operation_xyz
x,y,z
-x,y,1/2-z
-x,-y,-z
x,-y,1/2+z
1/2+x,1/2+y,z
1/2-x,1/2+y,1/2-z
1/2-x,1/2-y,-z
1/2+x,1/2-y,1/2+z
loop_
_atom_site_type_symbol
_atom_site_label
_atom_site_fract_x
_atom_site_fract_y
_atom_site_fract_z
Si Si1 0.083306 0.937999 0.757993
Si Si2 0.546104 0.257579 0.154632
Si Si3 0.638708 0.751864 0.217810
Si Si4 0.500000 0.758377 0.250000
Si Si5 0.715945 0.201285 0.275073
Si Si6 0.178549 0.923644 0.118683
Si Si7 0.024858 0.558181 0.917095
O O1 0.092196 0.851160 0.841742
O O2 0.954668 0.892404 0.560498
O O3 0.160986 0.876402 0.803599
O O4 0.079620 0.111564 0.751038
O O5 0.660657 0.212101 0.272851
O O6 0.492663 0.113837 0.113930
O O7 0.455639 0.298488 0.968752
O O8 0.743619 0.821076 0.322411
O O9 0.581668 0.877219 0.186780
O O10 0.462197 0.866525 0.138084
O O11 0.722643 0.364973 0.253398
O O12 0.818586 0.090460 0.405206
O O13 0.628378 0.105646 0.107674
#
# Coordination Sequence:
#
# PCOD9266058 Si02
#       7
#     8   8   8   4   8   8   8
#     4  11  24  38  62  92 125 166 206 258 300 372
#     4  11  19  38  59  90 125 153 205 261 317 351
#     4  10  19  37  59  91 127 157 193 253 324 359
#     4  10  22  44  60  80 122 178 222 226 310 372
#     4  11  22  34  61  96 124 156 197 257 322 364
#     4  12  21  35  61  98 128 154 203 254 316 370
#     4  10  19  40  59  82 121 170 201 248 300 372
#
# _framework density 24.744782000000001
#
# number of rings (size 3 to 8) (size 9 to 14) (size 15 to 20)
#    0.000    1.231    7.692    2.308    2.154    0.615 
#    0.000    3.077    0.000    0.923    0.000    0.000 
#    0.000    0.000    0.000    0.000    0.000    0.000 
#
# Total GULP energy -145233.038471 kJ/mol
# GULP energy per Si atom -5585.886095 kJ/mol
# Density = 2.468846 g / cm^3
# Si number density = 24.744782 Si / 1000 Ang^3
#
#
#
# Elastic Constant Matrix: (Units=GPa)
#
#
# Indices 1 2 3 4 5 6 
#
# 1 116.1322 46.1950 12.4000 0.0000 -4.5874 0.0000
# 2 46.1950 126.1631 -2.1190 0.0000 -13.7909 0.0000
# 3 12.4000 -2.1190 18.0455 0.0000 2.0369 0.0000
# 4 0.0000 0.0000 0.0000 14.0371 0.0000 4.9984
# 5 -4.5874 -13.7909 2.0369 0.0000 26.5688 0.0000
# 6 0.0000 0.0000 0.0000 4.9984 0.0000 44.7519
#
#
#
# Elastic Compliance Matrix: (Units=1/GPa)
#
#
# Indices 1 2 3 4 5 6 
#
# 1 0.011167 -0.004185 -0.008208 0.000000 0.000385 0.000000
# 2 -0.004185 0.009976 0.003575 0.000000 0.004181 0.000000
# 3 -0.008208 0.003575 0.061963 0.000000 -0.004312 0.000000
# 4 0.000000 0.000000 0.000000 0.074191 0.000000 -0.008286
# 5 0.000385 0.004181 -0.004312 0.000000 0.040206 0.000000
# 6 0.000000 0.000000 0.000000 -0.008286 0.000000 0.023271
#
#
# Mechanical properties :
#
#
# Convention : Reuss Voigt Hill
#
# Bulk Modulus (GPa) = 15.27441 41.47698 28.37570
# Shear Modulus (GPa) = 19.21364 30.66254 24.93809
#
# Velocity S-wave (km/s) = 2.78955 3.52398 3.17805
# Velocity P-wave (km/s) = 4.06960 5.77548 4.99589
#
# Compressibility (1/GPa) = 0.06546898
#
# Stress axis : x y z
#
# Youngs Moduli (GPa) = 89.54866 100.24489 16.13878
#
# Poissons Ratio (x) = 0.41949 0.13247
# Poissons Ratio (y) = 0.37473 -0.05769
# Poissons Ratio (z) = 0.73505 -0.35837
#
# Static dielectric constant tensor:
#      x y z
#    x 1.958470 0.000000 -0.014510 
#    y 0.000000 2.060500 0.000000 
#    z -0.014510 0.000000 2.038000 
# 
# From -- ./inp_files/171769.got.cif
#   From: 2010.05.17/outbox.cif.g08.bks.cpg/sg15_86_cif.got.tgz:171769.got - 2010.06.03 18:47:42.
