data_PCOD9266158
_publ_section_title
;
Structure prediction by ZEFSAII (Michael W. Deem and Ramdas Pophale) SiO2 
 PCOD9266158
Probable space group: C 2/C
;
_chemical_formula_sum "Si O2"
_cell_formula_units_Z 52
_cell_length_a 11.369257
_cell_length_b 15.624268
_cell_length_c 25.165186
_cell_angle_alpha 90.000000
_cell_angle_beta 145.760173
_cell_angle_gamma 90.000000
_cell_volume 2515.223179
_symmetry_space_group_name_H-M "C 2/C"
_symmetry_group_IT_number 15
_symmetry_cell_setting 'monoclinic'
loop_
_space_group_symop_operation_xyz
x,y,z
-x,y,1/2-z
-x,-y,-z
x,-y,1/2+z
1/2+x,1/2+y,z
1/2-x,1/2+y,1/2-z
1/2-x,1/2-y,-z
1/2+x,1/2-y,1/2+z
loop_
_atom_site_type_symbol
_atom_site_label
_atom_site_fract_x
_atom_site_fract_y
_atom_site_fract_z
Si Si1 0.598027 0.750381 0.699870
Si Si2 0.216145 0.598993 0.381099
Si Si3 0.308796 0.016800 0.236798
Si Si4 0.525738 0.386742 0.423632
Si Si5 0.735555 0.004953 0.569655
Si Si6 0.052061 0.128828 0.208169
Si Si7 0.500000 0.616252 0.750000
O O1 0.431441 0.820426 0.659229
O O2 0.495122 0.706876 0.609289
O O3 0.617082 0.678318 0.752143
O O4 0.820227 0.791272 0.767349
O O5 0.257998 0.585704 0.334405
O O6 0.416413 0.605566 0.493166
O O7 0.058101 0.519066 0.332761
O O8 0.215836 0.051477 0.257040
O O9 0.189854 0.932732 0.173825
O O10 0.708946 0.439644 0.461790
O O11 0.852397 0.057160 0.659747
O O12 0.500000 0.000000 0.500000
O O13 0.842656 0.911372 0.604334
O O14 0.000000 0.142491 0.250000
#
# Coordination Sequence:
#
# PCOD9266158 Si02
#       7
#     8   8   8   8   8   8   4
#     4  10  21  36  61  86 117 155 193 237 310 343
#     4  10  19  37  61  81 117 154 193 244 289 361
#     4   9  20  36  59  85 109 155 200 235 300 340
#     4  10  21  35  58  92 115 149 202 248 285 357
#     4  10  22  36  64  91 115 160 208 242 296 347
#     4  10  20  38  61  81 120 156 190 244 299 351
#     4  10  20  42  62  90 122 154 202 254 282 370
#
# _framework density 20.674109000000001
#
# number of rings (size 3 to 8) (size 9 to 14) (size 15 to 20)
#    0.000    2.154    0.769    2.769    4.308    0.000 
#    2.769    0.769    6.769    0.000    0.000    0.000 
#    0.000    0.000    0.000    0.000    0.000    0.000 
#
# Total GULP energy -144915.940562 kJ/mol
# GULP energy per Si atom -5573.690022 kJ/mol
# Density = 2.062705 g / cm^3
# Si number density = 20.674109 Si / 1000 Ang^3
#
#
#
# Elastic Constant Matrix: (Units=GPa)
#
#
# Indices 1 2 3 4 5 6 
#
# 1 102.4182 31.7752 19.2858 0.0000 5.8864 0.0000
# 2 31.7752 78.0452 31.3057 0.0000 7.1782 0.0000
# 3 19.2858 31.3057 50.1216 0.0001 5.9315 0.0000
# 4 0.0000 0.0000 0.0001 12.8195 0.0000 -2.6156
# 5 5.8864 7.1782 5.9315 0.0000 35.1999 0.0000
# 6 0.0000 0.0000 0.0000 -2.6156 0.0000 29.7247
#
#
#
# Elastic Compliance Matrix: (Units=1/GPa)
#
#
# Indices 1 2 3 4 5 6 
#
# 1 0.011342 -0.003778 -0.001909 0.000000 -0.000805 0.000000
# 2 -0.003778 0.018458 -0.009902 0.000000 -0.001464 0.000000
# 3 -0.001909 -0.009902 0.027135 0.000000 -0.002234 0.000000
# 4 0.000000 0.000000 0.000000 0.079432 0.000000 0.006990
# 5 -0.000805 -0.001464 -0.002234 0.000000 0.029219 0.000000
# 6 0.000000 0.000000 0.000000 0.006990 0.000000 0.034257
#
#
# Mechanical properties :
#
#
# Convention : Reuss Voigt Hill
#
# Bulk Modulus (GPa) = 38.82458 43.92425 41.37441
# Shear Modulus (GPa) = 20.86762 25.43003 23.14882
#
# Velocity S-wave (km/s) = 3.18049 3.51100 3.34982
# Velocity P-wave (km/s) = 5.68396 6.14234 5.91759
#
# Compressibility (1/GPa) = 0.02575688
#
# Stress axis : x y z
#
# Youngs Moduli (GPa) = 88.17010 54.17820 36.85268
#
# Poissons Ratio (x) = 0.20467 0.07036
# Poissons Ratio (y) = 0.33309 0.36490
# Poissons Ratio (z) = 0.16834 0.53646
#
# Static dielectric constant tensor:
#      x y z
#    x 1.783030 0.000000 0.003350 
#    y 0.000000 1.797830 0.000000 
#    z 0.003350 0.000000 1.757680 
# 
# From -- ./inp_files/293464.got.cif
#   From: 2010.05.17/outbox.cif.g08.bks.cpg/sg15_147_cif.got.tgz:293464.got - 2010.06.03 18:47:42.
