data_PCOD9266201
_publ_section_title
;
Structure prediction by ZEFSAII (Michael W. Deem and Ramdas Pophale) SiO2 
 PCOD9266201
Probable space group: C 2/C
;
_chemical_formula_sum "Si O2"
_cell_formula_units_Z 48
_cell_length_a 8.272227
_cell_length_b 14.415237
_cell_length_c 19.173758
_cell_angle_alpha 90.000000
_cell_angle_beta 76.898798
_cell_angle_gamma 90.000000
_cell_volume 2226.883989
_symmetry_space_group_name_H-M "C 2/C"
_symmetry_group_IT_number 15
_symmetry_cell_setting 'monoclinic'
loop_
_space_group_symop_operation_xyz
x,y,z
-x,y,1/2-z
-x,-y,-z
x,-y,1/2+z
1/2+x,1/2+y,z
1/2-x,1/2+y,1/2-z
1/2-x,1/2-y,-z
1/2+x,1/2-y,1/2+z
loop_
_atom_site_type_symbol
_atom_site_label
_atom_site_fract_x
_atom_site_fract_y
_atom_site_fract_z
Si Si1 0.635382 0.023147 0.045629
Si Si2 0.370366 0.786026 0.867666
Si Si3 0.771619 0.415356 0.335915
Si Si4 0.257181 0.777925 0.726708
Si Si5 0.619503 0.586297 0.585456
Si Si6 0.186589 0.983145 0.712987
O O1 0.620134 0.120303 0.088827
O O2 0.630540 0.945123 0.105473
O O3 0.811648 0.034534 0.988870
O O4 0.500000 0.000000 0.000000
O O5 0.249952 0.785129 0.811622
O O6 0.551367 0.773623 0.815723
O O7 0.337786 0.695409 0.917511
O O8 0.814182 0.315474 0.299681
O O9 0.577560 0.420413 0.380031
O O10 0.792389 0.487411 0.269801
O O11 0.189455 0.873509 0.702382
O O12 0.718409 0.539544 0.640205
O O13 0.000000 0.012128 0.750000
#
# Coordination Sequence:
#
# PCOD9266201 Si02
#       6
#     8   8   8   8   8   8
#     4  12  24  40  57  96 130 158 192 249 316 357
#     4  10  20  37  64  85 118 160 203 247 297 361
#     4  10  21  40  64  86 118 163 207 241 294 363
#     4  10  19  38  61  91 115 155 207 254 297 345
#     4  10  21  40  63  86 118 164 203 245 296 370
#     4  10  19  37  61  89 117 153 208 255 293 350
#
# _framework density 21.554780999999998
#
# number of rings (size 3 to 8) (size 9 to 14) (size 15 to 20)
#    0.000    1.667    3.333    2.000    0.000    0.000 
#    3.000    9.167    0.000    0.000    0.000    0.000 
#    0.000    0.000    0.000    0.000    0.000    0.000 
#
# Total GULP energy -133981.529617 kJ/mol
# GULP energy per Si atom -5582.563734 kJ/mol
# Density = 2.150572 g / cm^3
# Si number density = 21.554781 Si / 1000 Ang^3
#
#
#
# Elastic Constant Matrix: (Units=GPa)
#
#
# Indices 1 2 3 4 5 6 
#
# 1 56.5917 14.3254 35.1461 0.0000 12.0520 0.0000
# 2 14.3254 133.7844 69.5902 0.0000 24.3955 0.0000
# 3 35.1461 69.5902 125.6959 0.0000 29.3764 0.0000
# 4 0.0000 0.0000 0.0000 27.0897 0.0000 -7.1530
# 5 12.0520 24.3955 29.3764 0.0000 38.4616 0.0000
# 6 0.0000 0.0000 0.0000 -7.1530 0.0000 15.7971
#
#
#
# Elastic Compliance Matrix: (Units=1/GPa)
#
#
# Indices 1 2 3 4 5 6 
#
# 1 0.021788 0.001431 -0.006180 0.000000 -0.003015 0.000000
# 2 0.001431 0.010828 -0.005703 0.000000 -0.002961 0.000000
# 3 -0.006180 -0.005703 0.014051 0.000000 -0.005178 0.000000
# 4 0.000000 0.000000 0.000000 0.041927 0.000000 0.018985
# 5 -0.003015 -0.002961 -0.005178 0.000000 0.032778 0.000000
# 6 0.000000 0.000000 0.000000 0.018985 0.000000 0.071899
#
#
# Mechanical properties :
#
#
# Convention : Reuss Voigt Hill
#
# Bulk Modulus (GPa) = 38.81368 61.57726 50.19547
# Shear Modulus (GPa) = 22.44537 29.40370 25.92454
#
# Velocity S-wave (km/s) = 3.23045 3.69743 3.47180
# Velocity P-wave (km/s) = 5.65336 6.84528 6.27767
#
# Compressibility (1/GPa) = 0.02576411
#
# Stress axis : x y z
#
# Youngs Moduli (GPa) = 45.89607 92.35460 71.16715
#
# Poissons Ratio (x) = -0.13220 0.43982
# Poissons Ratio (y) = -0.06570 0.40587
# Poissons Ratio (z) = 0.28364 0.52670
#
# Static dielectric constant tensor:
#      x y z
#    x 1.827820 0.000000 -0.005880 
#    y 0.000000 1.771500 0.000000 
#    z -0.005880 0.000000 1.788460 
# 
# From -- ./inp_files/189220.got.cif
#   From: 2010.05.17/outbox.cif.g08.bks.cpg/sg15_95_cif.got.tgz:189220.got - 2010.06.03 18:47:42.
