data_PCOD9266607
_publ_section_title
;
Structure prediction by ZEFSAII (Michael W. Deem and Ramdas Pophale) SiO2 
 PCOD9266607
Probable space group: C 2/C
;
_chemical_formula_sum "Si O2"
_cell_formula_units_Z 48
_cell_length_a 13.660714
_cell_length_b 25.362216
_cell_length_c 5.462113
_cell_angle_alpha 90.000000
_cell_angle_beta 105.628179
_cell_angle_gamma 90.000000
_cell_volume 1822.473320
_symmetry_space_group_name_H-M "C 2/C"
_symmetry_group_IT_number 15
_symmetry_cell_setting 'monoclinic'
loop_
_space_group_symop_operation_xyz
x,y,z
-x,y,1/2-z
-x,-y,-z
x,-y,1/2+z
1/2+x,1/2+y,z
1/2-x,1/2+y,1/2-z
1/2-x,1/2-y,-z
1/2+x,1/2-y,1/2+z
loop_
_atom_site_type_symbol
_atom_site_label
_atom_site_fract_x
_atom_site_fract_y
_atom_site_fract_z
Si Si1 0.864703 0.899942 0.911769
Si Si2 0.297054 0.181768 0.221109
Si Si3 0.609907 0.140451 0.727162
Si Si4 0.884541 0.518256 0.720564
Si Si5 0.390816 0.400916 0.427265
Si Si6 0.931408 0.779071 0.450916
O O1 0.817791 0.840400 0.890750
O O2 0.844899 0.924794 0.638603
O O3 0.835537 0.922884 0.152440
O O4 0.987140 0.904583 0.999677
O O5 0.327219 0.149159 0.483046
O O6 0.336988 0.239188 0.333146
O O7 0.353595 0.167726 0.001313
O O8 0.500000 0.158795 0.750000
O O9 0.606797 0.078272 0.683731
O O10 0.839910 0.513911 0.417329
O O11 0.000000 0.497973 0.750000
O O12 0.384460 0.337448 0.435909
O O13 0.000000 0.775172 0.250000
O O14 0.000000 0.771771 0.750000
#
# Coordination Sequence:
#
# PCOD9266607 Si02
#       6
#     8   8   8   8   8   8
#     4  10  20  36  53  73  93 128 175 221 275 303
#     4  12  24  33  52  77 104 138 172 212 262 325
#     4  11  22  38  51  75 114 143 167 205 254 292
#     4   9  17  31  54  77  97 135 180 202 222 281
#     4  10  19  38  54  67  94 128 169 236 276 297
#     4  12  21  36  51  69  96 133 176 214 271 309
#
# _framework density 26.337831999999999
#
# number of rings (size 3 to 8) (size 9 to 14) (size 15 to 20)
#    0.000    1.333    3.333    5.000    0.000    4.000 
#    0.000    0.000    0.000    0.000    0.000    0.000 
#    0.000    0.000    0.000  210.000    0.000    0.000 
#
# Total GULP energy -133823.479430 kJ/mol
# GULP energy per Si atom -5575.978310 kJ/mol
# Density = 2.627789 g / cm^3
# Si number density = 26.337832 Si / 1000 Ang^3
#
#
#
# Elastic Constant Matrix: (Units=GPa)
#
#
# Indices 1 2 3 4 5 6 
#
# 1 131.2164 8.5139 58.1437 0.0000 -11.7417 0.0000
# 2 8.5139 45.7448 11.2986 0.0000 -12.2533 0.0000
# 3 58.1437 11.2986 258.6596 0.0000 -65.5345 0.0000
# 4 0.0000 0.0000 0.0000 5.7451 0.0000 -9.5887
# 5 -11.7417 -12.2533 -65.5345 0.0000 41.3951 0.0000
# 6 0.0000 0.0000 0.0000 -9.5887 0.0000 34.9859
#
#
#
# Elastic Compliance Matrix: (Units=1/GPa)
#
#
# Indices 1 2 3 4 5 6 
#
# 1 0.008578 -0.001462 -0.002267 0.000000 -0.001588 0.000000
# 2 -0.001462 0.024233 0.001640 0.000000 0.009356 0.000000
# 3 -0.002267 0.001640 0.007120 0.000000 0.011115 0.000000
# 4 0.000000 0.000000 0.000000 0.320810 0.000000 0.087926
# 5 -0.001588 0.009356 0.011115 0.000000 0.044072 0.000000
# 6 0.000000 0.000000 0.000000 0.087926 0.000000 0.052681
#
#
# Mechanical properties :
#
#
# Convention : Reuss Voigt Hill
#
# Bulk Modulus (GPa) = 27.96840 65.72591 46.84715
# Shear Modulus (GPa) = 10.55765 40.26952 25.41358
#
# Velocity S-wave (km/s) = 2.00431 3.91444 3.10967
# Velocity P-wave (km/s) = 3.99981 6.74088 5.54247
#
# Compressibility (1/GPa) = 0.03575464
#
# Stress axis : x y z
#
# Youngs Moduli (GPa) = 116.57460 41.26544 140.44941
#
# Poissons Ratio (x) = 0.06033 0.31837
# Poissons Ratio (y) = 0.17044 -0.23041
# Poissons Ratio (z) = 0.26425 -0.06770
#
# Static dielectric constant tensor:
#      x y z
#    x 2.341110 0.000000 0.079900 
#    y 0.000000 2.007050 0.000000 
#    z 0.079900 0.000000 2.221970 
# 
# From -- ./inp_files/8840.got.cif
#   From: 2010.05.17/outbox.cif.g08.bks.cpg/sg15_5_cif.got.tgz:8840.got - 2010.06.03 18:47:42.
