data_PCOD9266954
_publ_section_title
;
Structure prediction by ZEFSAII (Michael W. Deem and Ramdas Pophale) SiO2 
 PCOD9266954
Probable space group: C 2/C
;
_chemical_formula_sum "Si O2"
_cell_formula_units_Z 56
_cell_length_a 21.962856
_cell_length_b 9.894801
_cell_length_c 13.694850
_cell_angle_alpha 90.000000
_cell_angle_beta 66.248038
_cell_angle_gamma 90.000000
_cell_volume 2724.052812
_symmetry_space_group_name_H-M "C 2/C"
_symmetry_group_IT_number 15
_symmetry_cell_setting 'monoclinic'
loop_
_space_group_symop_operation_xyz
x,y,z
-x,y,1/2-z
-x,-y,-z
x,-y,1/2+z
1/2+x,1/2+y,z
1/2-x,1/2+y,1/2-z
1/2-x,1/2-y,-z
1/2+x,1/2-y,1/2+z
loop_
_atom_site_type_symbol
_atom_site_label
_atom_site_fract_x
_atom_site_fract_y
_atom_site_fract_z
Si Si1 0.169336 0.507363 0.408243
Si Si2 0.321734 0.514285 0.277051
Si Si3 0.602254 0.732597 0.400199
Si Si4 0.130795 0.736753 0.304269
Si Si5 0.786431 0.617605 0.425958
Si Si6 0.145444 0.017501 0.518557
Si Si7 0.465087 0.645200 0.513920
O O1 0.244563 0.547943 0.332943
O O2 0.140511 0.373639 0.375249
O O3 0.129053 0.634548 0.396232
O O4 0.174147 0.466102 0.517948
O O5 0.364130 0.628264 0.196520
O O6 0.324820 0.371104 0.220278
O O7 0.349593 0.489318 0.367955
O O8 0.613832 0.656522 0.496967
O O9 0.523114 0.740551 0.434872
O O10 0.162740 0.660301 0.191503
O O11 0.058045 0.803234 0.364197
O O12 0.750000 0.750000 0.500000
O O13 0.722650 0.528943 0.433712
O O14 0.099783 0.895045 0.508604
O O15 0.500000 0.500000 0.500000
#
# Coordination Sequence:
#
# PCOD9266954 Si02
#       7
#     8   8   8   8   8   8   8
#     4  11  23  38  63  99 133 167 214 282 329 388
#     4  11  20  37  67  96 119 177 216 266 334 383
#     4  11  21  42  61  92 135 168 212 276 326 387
#     4  12  22  39  66  94 129 174 221 262 339 392
#     4  11  20  38  64  97 132 166 217 271 329 389
#     4  10  19  38  63  91 124 161 225 268 303 393
#     4  10  23  41  64  91 124 173 222 265 320 396
#
# _framework density 20.557604000000001
#
# number of rings (size 3 to 8) (size 9 to 14) (size 15 to 20)
#    0.000    1.143    7.143    1.714    0.000    1.143 
#    2.571    3.571    0.000    0.000    0.000    0.000 
#    0.000    0.000    0.000    0.000    0.000    0.000 
#
# Total GULP energy -155961.189140 kJ/mol
# GULP energy per Si atom -5570.042469 kJ/mol
# Density = 2.051081 g / cm^3
# Si number density = 20.557604 Si / 1000 Ang^3
#
#
#
# Elastic Constant Matrix: (Units=GPa)
#
#
# Indices 1 2 3 4 5 6 
#
# 1 62.7356 24.2502 57.5078 0.0000 -8.6281 0.0000
# 2 24.2502 73.1790 44.1463 0.0000 4.8930 0.0000
# 3 57.5078 44.1463 100.8909 0.0000 -13.9967 0.0000
# 4 0.0000 0.0000 0.0000 33.4469 0.0000 1.4179
# 5 -8.6281 4.8930 -13.9967 0.0000 32.6454 0.0000
# 6 0.0000 0.0000 0.0000 1.4179 0.0000 23.5562
#
#
#
# Elastic Compliance Matrix: (Units=1/GPa)
#
#
# Indices 1 2 3 4 5 6 
#
# 1 0.033408 0.000455 -0.019166 0.000000 0.000544 0.000000
# 2 0.000455 0.020043 -0.010026 0.000000 -0.007182 0.000000
# 3 -0.019166 -0.010026 0.026293 0.000000 0.007710 0.000000
# 4 0.000000 0.000000 0.000000 0.029975 0.000000 -0.001804
# 5 0.000544 -0.007182 0.007710 0.000000 0.035158 0.000000
# 6 0.000000 0.000000 0.000000 -0.001804 0.000000 0.042560
#
#
# Mechanical properties :
#
#
# Convention : Reuss Voigt Hill
#
# Bulk Modulus (GPa) = 44.90372 54.29045 49.59708
# Shear Modulus (GPa) = 19.81505 25.32312 22.56908
#
# Velocity S-wave (km/s) = 3.10801 3.51353 3.31697
# Velocity P-wave (km/s) = 5.89660 6.55180 6.23282
#
# Compressibility (1/GPa) = 0.02226987
#
# Stress axis : x y z
#
# Youngs Moduli (GPa) = 29.93312 49.89331 38.03301
#
# Poissons Ratio (x) = -0.02271 0.72894
# Poissons Ratio (y) = -0.01362 0.38131
# Poissons Ratio (z) = 0.57370 0.50022
#
# Static dielectric constant tensor:
#      x y z
#    x 1.818240 0.000000 -0.010310 
#    y 0.000000 1.752520 0.000000 
#    z -0.010310 0.000000 1.820470 
# 
# From -- ./inp_files/172291.got.cif
#   From: 2010.05.17/outbox.cif.g08.bks.cpg/sg15_87_cif.got.tgz:172291.got - 2010.06.03 18:47:42.
