data_PCOD9266754
_publ_section_title
;
Structure prediction by ZEFSAII (Michael W. Deem and Ramdas Pophale) SiO2 
 PCOD9266754
Probable space group: C 2/C
;
_chemical_formula_sum "Si O2"
_cell_formula_units_Z 40
_cell_length_a 19.782304
_cell_length_b 8.995704
_cell_length_c 14.382771
_cell_angle_alpha 90.000000
_cell_angle_beta 129.291716
_cell_angle_gamma 90.000000
_cell_volume 1980.875923
_symmetry_space_group_name_H-M "C 2/C"
_symmetry_group_IT_number 15
_symmetry_cell_setting 'monoclinic'
loop_
_space_group_symop_operation_xyz
x,y,z
-x,y,1/2-z
-x,-y,-z
x,-y,1/2+z
1/2+x,1/2+y,z
1/2-x,1/2+y,1/2-z
1/2-x,1/2-y,-z
1/2+x,1/2-y,1/2+z
loop_
_atom_site_type_symbol
_atom_site_label
_atom_site_fract_x
_atom_site_fract_y
_atom_site_fract_z
Si Si1 0.857702 0.419743 0.091920
Si Si2 0.215970 0.899122 0.689168
Si Si3 0.789085 0.798486 0.406030
Si Si4 0.592144 0.946428 0.686487
Si Si5 0.909387 0.658291 0.995329
O O1 0.765959 0.381784 0.061897
O O2 0.918804 0.446945 0.234034
O O3 0.868321 0.286586 0.026155
O O4 0.862122 0.570031 0.036952
O O5 0.231347 0.829771 0.805166
O O6 0.311977 0.874741 0.726886
O O7 0.140739 0.806871 0.573468
O O8 0.195325 0.073587 0.657091
O O9 0.511666 0.834509 0.609555
O O10 0.594904 0.050901 0.598380
#
# Coordination Sequence:
#
# PCOD9266754 Si02
#       5
#     8   8   8   8   8
#     4  10  19  38  60  89 119 166 214 252 307 381
#     4  11  19  40  60  93 129 161 209 262 314 378
#     4  10  20  33  63  91 122 167 206 260 318 373
#     4  10  22  36  63  91 121 173 208 252 315 382
#     4  11  21  38  63  90 125 165 214 254 311 381
#
# _framework density 20.193087999999999
#
# number of rings (size 3 to 8) (size 9 to 14) (size 15 to 20)
#    0.000    1.600    6.000    0.600    0.000    3.200 
#    0.000    1.000    0.000    7.200    0.000    0.000 
#    0.000    0.000    0.000    0.000    0.000    0.000 
#
# Total GULP energy -111346.017422 kJ/mol
# GULP energy per Si atom -5567.300871 kJ/mol
# Density = 2.014713 g / cm^3
# Si number density = 20.193088 Si / 1000 Ang^3
#
#
#
# Elastic Constant Matrix: (Units=GPa)
#
#
# Indices 1 2 3 4 5 6 
#
# 1 35.2120 15.8264 29.6697 0.0000 1.1565 0.0000
# 2 15.8264 63.1216 32.9973 0.0000 -1.1382 0.0000
# 3 29.6697 32.9973 106.7870 0.0000 -1.6073 0.0000
# 4 0.0000 0.0000 0.0000 37.6025 0.0000 -0.1989
# 5 1.1565 -1.1382 -1.6073 0.0000 47.5056 0.0000
# 6 0.0000 0.0000 0.0000 -0.1989 0.0000 21.5505
#
#
#
# Elastic Compliance Matrix: (Units=1/GPa)
#
#
# Indices 1 2 3 4 5 6 
#
# 1 0.038357 -0.004842 -0.009181 0.000000 -0.001360 0.000000
# 2 -0.004842 0.019509 -0.004677 0.000000 0.000427 0.000000
# 3 -0.009181 -0.004677 0.013369 0.000000 0.000564 0.000000
# 4 0.000000 0.000000 0.000000 0.026595 0.000000 0.000245
# 5 -0.001360 0.000427 0.000564 0.000000 0.021113 0.000000
# 6 0.000000 0.000000 0.000000 0.000245 0.000000 0.046405
#
#
# Mechanical properties :
#
#
# Convention : Reuss Voigt Hill
#
# Bulk Modulus (GPa) = 29.55552 40.23419 34.89486
# Shear Modulus (GPa) = 23.36175 29.77353 26.56764
#
# Velocity S-wave (km/s) = 3.40504 3.84401 3.63117
# Velocity P-wave (km/s) = 5.48883 6.29840 5.90750
#
# Compressibility (1/GPa) = 0.03383462
#
# Stress axis : x y z
#
# Youngs Moduli (GPa) = 26.07116 51.25873 74.80048
#
# Poissons Ratio (x) = 0.24820 0.68676
# Poissons Ratio (y) = 0.12624 0.34981
# Poissons Ratio (z) = 0.23937 0.23971
#
# Static dielectric constant tensor:
#      x y z
#    x 1.768300 0.000000 -0.022880 
#    y 0.000000 1.715030 0.000000 
#    z -0.022880 0.000000 1.793970 
# 
# From -- ./inp_files/166016.got.cif
#   From: 2010.05.17/outbox.cif.g08.bks.cpg/sg15_84_cif.got.tgz:166016.got - 2010.06.03 18:47:42.
