data_PCOD9266687
_publ_section_title
;
Structure prediction by ZEFSAII (Michael W. Deem and Ramdas Pophale) SiO2 
 PCOD9266687
Probable space group: C 2/C
;
_chemical_formula_sum "Si O2"
_cell_formula_units_Z 48
_cell_length_a 10.671467
_cell_length_b 9.405233
_cell_length_c 23.970708
_cell_angle_alpha 90.000000
_cell_angle_beta 61.255708
_cell_angle_gamma 90.000000
_cell_volume 2109.417479
_symmetry_space_group_name_H-M "C 2/C"
_symmetry_group_IT_number 15
_symmetry_cell_setting 'monoclinic'
loop_
_space_group_symop_operation_xyz
x,y,z
-x,y,1/2-z
-x,-y,-z
x,-y,1/2+z
1/2+x,1/2+y,z
1/2-x,1/2+y,1/2-z
1/2-x,1/2-y,-z
1/2+x,1/2-y,1/2+z
loop_
_atom_site_type_symbol
_atom_site_label
_atom_site_fract_x
_atom_site_fract_y
_atom_site_fract_z
Si Si1 0.786048 0.591205 0.068024
Si Si2 0.243882 0.392329 0.124375
Si Si3 0.863666 0.078606 0.817634
Si Si4 0.450758 0.063118 0.927856
Si Si5 0.147656 0.186123 0.371831
Si Si6 0.336916 0.685512 0.263718
O O1 0.784301 0.759746 0.076684
O O2 0.642465 0.523471 0.126063
O O3 0.922087 0.534223 0.075098
O O4 0.818561 0.544998 0.998331
O O5 0.099606 0.451248 0.125247
O O6 0.344589 0.527455 0.107981
O O7 0.229878 0.315695 0.187650
O O8 0.786923 0.218639 0.856623
O O9 0.000000 0.115866 0.750000
O O10 0.778217 0.969834 0.794452
O O11 0.513346 0.222465 0.920137
O O12 0.160440 0.193963 0.302341
O O13 0.500000 0.682088 0.250000
#
# Coordination Sequence:
#
# PCOD9266687 Si02
#       6
#     8   8   8   8   8   8
#     4   9  21  42  66  90 127 167 204 259 311 368
#     4  11  22  39  64  93 124 166 209 255 312 371
#     4   9  20  39  58  85 121 161 202 251 314 366
#     4  10  21  43  65  90 128 165 208 254 313 372
#     4  11  22  38  60  92 123 157 209 260 306 373
#     4  10  19  38  59  84 122 165 204 255 314 367
#
# _framework density 22.755096999999999
#
# number of rings (size 3 to 8) (size 9 to 14) (size 15 to 20)
#    0.000    2.000    1.667    1.500    0.000    1.333 
#   15.000    7.500    0.000    0.000    0.000    0.000 
#    0.000    0.000    0.000    0.000    0.000    0.000 
#
# Total GULP energy -133698.774993 kJ/mol
# GULP energy per Si atom -5570.782291 kJ/mol
# Density = 2.270331 g / cm^3
# Si number density = 22.755097 Si / 1000 Ang^3
#
#
#
# Elastic Constant Matrix: (Units=GPa)
#
#
# Indices 1 2 3 4 5 6 
#
# 1 42.8679 19.3624 -7.4508 0.0000 9.5812 0.0000
# 2 19.3624 97.7798 -8.0160 0.0000 0.6045 0.0000
# 3 -7.4508 -8.0160 86.4720 0.0000 -19.5419 0.0000
# 4 0.0000 0.0000 0.0000 21.2232 0.0000 0.9046
# 5 9.5812 0.6045 -19.5419 0.0000 28.3996 0.0000
# 6 0.0000 0.0000 0.0000 0.9046 0.0000 15.1105
#
#
#
# Elastic Compliance Matrix: (Units=1/GPa)
#
#
# Indices 1 2 3 4 5 6 
#
# 1 0.027874 -0.005481 -0.000243 0.000000 -0.009454 0.000000
# 2 -0.005481 0.011390 0.001121 0.000000 0.002378 0.000000
# 3 -0.000243 0.001121 0.013808 0.000000 0.009559 0.000000
# 4 0.000000 0.000000 0.000000 0.047239 0.000000 -0.002828
# 5 -0.009454 0.002378 0.009559 0.000000 0.044929 0.000000
# 6 0.000000 0.000000 0.000000 -0.002828 0.000000 0.066349
#
#
# Mechanical properties :
#
#
# Convention : Reuss Voigt Hill
#
# Bulk Modulus (GPa) = 22.79712 26.10122 24.44917
# Shear Modulus (GPa) = 21.23907 27.82827 24.53367
#
# Velocity S-wave (km/s) = 3.05844 3.50086 3.28710
# Velocity P-wave (km/s) = 4.74471 5.27605 5.01742
#
# Compressibility (1/GPa) = 0.04386520
#
# Stress axis : x y z
#
# Youngs Moduli (GPa) = 35.87568 87.79917 72.42318
#
# Poissons Ratio (x) = 0.48124 0.01760
# Poissons Ratio (y) = 0.19664 -0.08118
# Poissons Ratio (z) = 0.00872 -0.09842
#
# Static dielectric constant tensor:
#      x y z
#    x 1.916340 0.000000 -0.018930 
#    y 0.000000 1.894360 0.000000 
#    z -0.018930 0.000000 1.881340 
# 
# From -- ./inp_files/267722.got.cif
#   From: 2010.05.17/outbox.cif.g08.bks.cpg/sg15_134_cif.got.tgz:267722.got - 2010.06.03 18:47:42.
