data_PCOD9266428
_publ_section_title
;
Structure prediction by ZEFSAII (Michael W. Deem and Ramdas Pophale) SiO2 
 PCOD9266428
Probable space group: C 2/C
;
_chemical_formula_sum "Si O2"
_cell_formula_units_Z 48
_cell_length_a 13.485904
_cell_length_b 12.319594
_cell_length_c 14.889771
_cell_angle_alpha 90.000000
_cell_angle_beta 125.341410
_cell_angle_gamma 90.000000
_cell_volume 2017.926984
_symmetry_space_group_name_H-M "C 2/C"
_symmetry_group_IT_number 15
_symmetry_cell_setting 'monoclinic'
loop_
_space_group_symop_operation_xyz
x,y,z
-x,y,1/2-z
-x,-y,-z
x,-y,1/2+z
1/2+x,1/2+y,z
1/2-x,1/2+y,1/2-z
1/2-x,1/2-y,-z
1/2+x,1/2-y,1/2+z
loop_
_atom_site_type_symbol
_atom_site_label
_atom_site_fract_x
_atom_site_fract_y
_atom_site_fract_z
Si Si1 0.752437 0.574670 0.721971
Si Si2 0.337883 0.614918 0.426647
Si Si3 0.626795 0.200236 0.879726
Si Si4 0.079016 0.349909 0.871911
Si Si5 0.046644 0.649951 0.552650
Si Si6 0.501609 0.606292 0.656455
O O1 0.703413 0.454858 0.678849
O O2 0.810617 0.624838 0.662743
O O3 0.845316 0.579906 0.850821
O O4 0.633607 0.639664 0.691163
O O5 0.218352 0.628117 0.424783
O O6 0.400418 0.726432 0.428817
O O7 0.430569 0.549762 0.539102
O O8 0.500000 0.242236 0.750000
O O9 0.558766 0.149391 0.929582
O O10 0.750000 0.250000 0.000000
O O11 0.067961 0.219171 0.862905
O O12 0.000000 0.397892 0.750000
O O13 0.026576 0.384346 0.939924
O O14 0.500000 0.545327 0.750000
#
# Coordination Sequence:
#
# PCOD9266428 Si02
#       6
#     8   8   8   8   8   8
#     4  11  23  41  62  93 133 170 213 271 329 392
#     4  11  22  38  63  93 125 165 216 271 325 386
#     4  10  22  41  65  93 135 183 222 269 333 402
#     4  10  20  37  64  92 120 162 214 269 326 385
#     4  10  21  42  66  92 129 175 219 273 332 397
#     4  10  19  37  64  93 123 161 212 271 325 382
#
# _framework density 23.786788000000001
#
# number of rings (size 3 to 8) (size 9 to 14) (size 15 to 20)
#    0.000    1.667    0.000    7.500    0.000    3.333 
#    0.000   15.000    0.000    0.000    0.000    0.000 
#    0.000    0.000    0.000    0.000    0.000    0.000 
#
# Total GULP energy -133699.777727 kJ/mol
# GULP energy per Si atom -5570.824072 kJ/mol
# Density = 2.373265 g / cm^3
# Si number density = 23.786788 Si / 1000 Ang^3
#
#
#
# Elastic Constant Matrix: (Units=GPa)
#
#
# Indices 1 2 3 4 5 6 
#
# 1 146.8683 -0.0530 59.0136 0.0000 -4.8978 0.0000
# 2 -0.0530 42.9711 31.0576 0.0000 -0.1821 0.0000
# 3 59.0136 31.0576 187.8787 0.0000 -12.1895 0.0000
# 4 0.0000 0.0000 0.0000 29.7140 0.0000 1.9269
# 5 -4.8978 -0.1821 -12.1895 0.0000 54.9402 0.0000
# 6 0.0000 0.0000 0.0000 1.9269 0.0000 10.7482
#
#
#
# Elastic Compliance Matrix: (Units=1/GPa)
#
#
# Indices 1 2 3 4 5 6 
#
# 1 0.007950 0.002057 -0.002832 0.000000 0.000087 0.000000
# 2 0.002057 0.027005 -0.005167 0.000000 -0.000873 0.000000
# 3 -0.002832 -0.005167 0.007152 0.000000 0.001317 0.000000
# 4 0.000000 0.000000 0.000000 0.034050 0.000000 -0.006104
# 5 0.000087 -0.000873 0.001317 0.000000 0.018499 0.000000
# 6 0.000000 0.000000 0.000000 -0.006104 0.000000 0.094133
#
#
# Mechanical properties :
#
#
# Convention : Reuss Voigt Hill
#
# Bulk Modulus (GPa) = 33.08716 61.97270 47.52993
# Shear Modulus (GPa) = 23.72528 38.26046 30.99287
#
# Velocity S-wave (km/s) = 3.16161 4.01493 3.61355
# Velocity P-wave (km/s) = 5.22186 6.89948 6.11844
#
# Compressibility (1/GPa) = 0.03022320
#
# Stress axis : x y z
#
# Youngs Moduli (GPa) = 125.78273 37.03075 139.83034
#
# Poissons Ratio (x) = -0.07616 0.39593
# Poissons Ratio (y) = -0.25869 0.72246
# Poissons Ratio (z) = 0.35616 0.19133
#
# Static dielectric constant tensor:
#      x y z
#    x 1.869450 0.000000 0.045380 
#    y 0.000000 1.941650 0.000000 
#    z 0.045380 0.000000 2.075700 
# 
# From -- ./inp_files/144396.got.cif
#   From: 2010.05.17/outbox.cif.g08.bks.cpg/sg15_73_cif.got.tgz:144396.got - 2010.06.03 18:47:42.
