data_PCOD9266212
_publ_section_title
;
Structure prediction by ZEFSAII (Michael W. Deem and Ramdas Pophale) SiO2 
 PCOD9266212
Probable space group: C 2/C
;
_chemical_formula_sum "Si O2"
_cell_formula_units_Z 48
_cell_length_a 24.580264
_cell_length_b 6.551821
_cell_length_c 18.976469
_cell_angle_alpha 90.000000
_cell_angle_beta 131.815463
_cell_angle_gamma 90.000000
_cell_volume 2277.680555
_symmetry_space_group_name_H-M "C 2/C"
_symmetry_group_IT_number 15
_symmetry_cell_setting 'monoclinic'
loop_
_space_group_symop_operation_xyz
x,y,z
-x,y,1/2-z
-x,-y,-z
x,-y,1/2+z
1/2+x,1/2+y,z
1/2-x,1/2+y,1/2-z
1/2-x,1/2-y,-z
1/2+x,1/2-y,1/2+z
loop_
_atom_site_type_symbol
_atom_site_label
_atom_site_fract_x
_atom_site_fract_y
_atom_site_fract_z
Si Si1 0.254415 0.943463 0.556010
Si Si2 0.989247 0.636074 0.061145
Si Si3 0.899925 0.981400 0.308445
Si Si4 0.641930 0.455431 0.575428
Si Si5 0.645251 0.306437 0.867014
Si Si6 0.955820 0.239184 0.097805
O O1 0.250000 0.750000 0.500000
O O2 0.215251 0.899919 0.596826
O O3 0.328971 0.074950 0.628750
O O4 0.201130 0.100959 0.471012
O O5 0.966582 0.478918 0.101613
O O6 0.921926 0.789462 0.991926
O O7 0.060586 0.763878 0.145510
O O8 0.000000 0.500000 0.000000
O O9 0.851664 0.021390 0.335617
O O10 0.857019 0.040767 0.201072
O O11 0.969440 0.134001 0.362345
O O12 0.605845 0.659401 0.510266
O O13 0.570830 0.313661 0.847193
#
# Coordination Sequence:
#
# PCOD9266212 Si02
#       6
#     8   8   8   8   8   8
#     4  10  22  44  61  80 115 175 218 249 311 378
#     4  11  18  34  63  94 124 161 196 248 326 391
#     4  11  21  36  58  99 126 148 205 263 314 373
#     4  10  20  36  61  87 125 160 206 253 311 384
#     4  10  23  40  60  85 125 163 208 262 309 372
#     4  10  19  37  61  90 125 162 192 249 327 382
#
# _framework density 21.074071
#
# number of rings (size 3 to 8) (size 9 to 14) (size 15 to 20)
#    0.000    1.667    3.333    2.500    0.000    1.333 
#    3.000    5.000    0.000    0.000    0.000    0.000 
#    0.000    0.000    0.000    0.000    0.000    0.000 
#
# Total GULP energy -133811.683277 kJ/mol
# GULP energy per Si atom -5575.486803 kJ/mol
# Density = 2.102611 g / cm^3
# Si number density = 21.074071 Si / 1000 Ang^3
#
#
#
# Elastic Constant Matrix: (Units=GPa)
#
#
# Indices 1 2 3 4 5 6 
#
# 1 150.1793 31.8118 25.3606 0.0000 -40.6492 0.0001
# 2 31.8118 93.5747 -0.7145 0.0001 -8.0056 0.0003
# 3 25.3606 -0.7145 46.7311 0.0000 -24.1818 0.0001
# 4 0.0000 0.0001 0.0000 21.6189 0.0000 -1.6484
# 5 -40.6492 -8.0056 -24.1818 0.0000 25.0126 0.0000
# 6 0.0001 0.0003 0.0001 -1.6484 0.0000 24.6189
#
#
#
# Elastic Compliance Matrix: (Units=1/GPa)
#
#
# Indices 1 2 3 4 5 6 
#
# 1 0.013578 -0.002124 0.007336 0.000000 0.028479 0.000000
# 2 -0.002124 0.011702 0.002969 0.000000 0.003164 0.000000
# 3 0.007336 0.002969 0.048275 0.000000 0.059543 0.000000
# 4 0.000000 0.000000 0.000000 0.046493 0.000000 0.003113
# 5 0.028479 0.003164 0.059543 0.000000 0.144840 0.000000
# 6 0.000000 0.000000 0.000000 0.003113 0.000000 0.040828
#
#
# Mechanical properties :
#
#
# Convention : Reuss Voigt Hill
#
# Bulk Modulus (GPa) = 11.12139 44.82232 27.97186
# Shear Modulus (GPa) = 15.65795 29.85190 22.75492
#
# Velocity S-wave (km/s) = 2.72875 3.76776 3.28953
# Velocity P-wave (km/s) = 3.90088 6.34374 5.26593
#
# Compressibility (1/GPa) = 0.08991679
#
# Stress axis : x y z
#
# Youngs Moduli (GPa) = 73.64752 85.45556 20.71468
#
# Poissons Ratio (x) = 0.18147 -0.15195
# Poissons Ratio (y) = 0.15640 -0.06150
# Poissons Ratio (z) = -0.54025 -0.25371
#
# Static dielectric constant tensor:
#      x y z
#    x 1.790550 0.000000 0.022460 
#    y 0.000000 1.781560 0.000000 
#    z 0.022460 0.000000 1.897260 
# 
# From -- ./inp_files/254457.got.cif
#   From: 2010.05.17/outbox.cif.g08.bks.cpg/sg15_128_cif.got.tgz:254457.got - 2010.06.03 18:47:42.
