data_PCOD9266300
_publ_section_title
;
Structure prediction by ZEFSAII (Michael W. Deem and Ramdas Pophale) SiO2 
 PCOD9266300
Probable space group: C 2/C
;
_chemical_formula_sum "Si O2"
_cell_formula_units_Z 48
_cell_length_a 8.989853
_cell_length_b 16.796226
_cell_length_c 22.617670
_cell_angle_alpha 90.000000
_cell_angle_beta 45.253730
_cell_angle_gamma 90.000000
_cell_volume 2425.559394
_symmetry_space_group_name_H-M "C 2/C"
_symmetry_group_IT_number 15
_symmetry_cell_setting 'monoclinic'
loop_
_space_group_symop_operation_xyz
x,y,z
-x,y,1/2-z
-x,-y,-z
x,-y,1/2+z
1/2+x,1/2+y,z
1/2-x,1/2+y,1/2-z
1/2-x,1/2-y,-z
1/2+x,1/2-y,1/2+z
loop_
_atom_site_type_symbol
_atom_site_label
_atom_site_fract_x
_atom_site_fract_y
_atom_site_fract_z
Si Si1 0.323126 0.458734 0.090495
Si Si2 0.000000 0.561213 0.250000
Si Si3 0.716639 0.837590 0.359511
Si Si4 0.000000 0.748979 0.750000
Si Si5 0.868183 0.866092 0.191948
Si Si6 0.264307 0.154119 0.988387
Si Si7 0.887712 0.166048 0.166643
O O1 0.120511 0.510847 0.165725
O O2 0.401852 0.432577 0.133205
O O3 0.500000 0.500000 0.000000
O O4 0.252287 0.380619 0.072992
O O5 0.179823 0.614231 0.230423
O O6 0.773523 0.885892 0.283440
O O7 0.495470 0.867595 0.446023
O O8 0.683666 0.747431 0.345758
O O9 0.904084 0.834678 0.353326
O O10 0.202018 0.694616 0.708606
O O11 0.992008 0.805747 0.808767
O O12 0.062477 0.122289 0.078903
O O13 0.250000 0.250000 0.000000
#
# Coordination Sequence:
#
# PCOD9266300 Si02
#       7
#     8   4   8   4   8   8   8
#     4  12  24  41  63  95 128 175 216 261 335 403
#     4  12  23  42  64  84 137 174 212 258 334 405
#     4   9  19  37  67  93 125 158 221 269 319 374
#     4  10  19  38  66  94 125 160 230 258 318 383
#     4  10  19  37  62  93 120 168 213 260 316 384
#     4  10  20  40  64  94 126 161 213 275 316 377
#     4  10  20  38  62  94 126 167 204 274 323 381
#
# _framework density 19.789249000000002
#
# number of rings (size 3 to 8) (size 9 to 14) (size 15 to 20)
#    0.000    1.667    1.667    6.500    0.000    0.000 
#    3.000    8.333    0.000    0.000    0.000    0.000 
#    0.000    0.000    0.000    0.000    0.000    0.000 
#
# Total GULP energy -133653.272158 kJ/mol
# GULP energy per Si atom -5568.886340 kJ/mol
# Density = 1.974421 g / cm^3
# Si number density = 19.789249 Si / 1000 Ang^3
#
#
#
# Elastic Constant Matrix: (Units=GPa)
#
#
# Indices 1 2 3 4 5 6 
#
# 1 161.3766 34.6426 60.9639 0.0002 -11.5458 -0.0006
# 2 34.6426 57.8482 42.9258 0.0000 6.6381 -0.0002
# 3 60.9639 42.9258 132.8983 -0.0002 -21.0517 -0.0006
# 4 0.0002 0.0000 -0.0002 38.1301 0.0001 4.7245
# 5 -11.5458 6.6381 -21.0517 0.0001 29.4707 0.0005
# 6 -0.0006 -0.0002 -0.0006 4.7245 0.0005 15.3042
#
#
#
# Elastic Compliance Matrix: (Units=1/GPa)
#
#
# Indices 1 2 3 4 5 6 
#
# 1 0.007909 -0.003397 -0.002164 0.000000 0.002318 0.000000
# 2 -0.003397 0.028432 -0.009980 0.000000 -0.014864 0.000000
# 3 -0.002164 -0.009980 0.013489 0.000000 0.011035 0.000000
# 4 0.000000 0.000000 0.000000 0.027269 0.000000 -0.008418
# 5 0.002318 -0.014864 0.011035 0.000000 0.046071 -0.000001
# 6 0.000000 0.000000 0.000000 -0.008418 -0.000001 0.067940
#
#
# Mechanical properties :
#
#
# Convention : Reuss Voigt Hill
#
# Bulk Modulus (GPa) = 53.33607 69.90974 61.62291
# Shear Modulus (GPa) = 21.88759 30.82039 26.35399
#
# Velocity S-wave (km/s) = 3.32932 3.95071 3.65325
# Velocity P-wave (km/s) = 6.46449 7.49764 7.00016
#
# Compressibility (1/GPa) = 0.01874904
#
# Stress axis : x y z
#
# Youngs Moduli (GPa) = 126.43604 35.17192 74.13663
#
# Poissons Ratio (x) = 0.11947 0.16042
# Poissons Ratio (y) = 0.42948 0.73986
# Poissons Ratio (z) = 0.27358 0.35100
#
# Static dielectric constant tensor:
#      x y z
#    x 1.708040 0.000000 -0.020250 
#    y 0.000000 1.758360 0.000000 
#    z -0.020250 0.000000 1.758030 
# 
# From -- ./inp_files/232539.got.cif
#   From: 2010.05.17/outbox.cif.g08.bks.cpg/sg15_117_cif.got.tgz:232539.got - 2010.06.03 18:47:42.
