data_PCOD9266643
_publ_section_title
;
Structure prediction by ZEFSAII (Michael W. Deem and Ramdas Pophale) SiO2 
 PCOD9266643
Probable space group: C 2/C
;
_chemical_formula_sum "Si O2"
_cell_formula_units_Z 56
_cell_length_a 26.456040
_cell_length_b 17.857098
_cell_length_c 10.413448
_cell_angle_alpha 90.000000
_cell_angle_beta 142.210005
_cell_angle_gamma 90.000000
_cell_volume 3014.582038
_symmetry_space_group_name_H-M "C 2/C"
_symmetry_group_IT_number 15
_symmetry_cell_setting 'monoclinic'
loop_
_space_group_symop_operation_xyz
x,y,z
-x,y,1/2-z
-x,-y,-z
x,-y,1/2+z
1/2+x,1/2+y,z
1/2-x,1/2+y,1/2-z
1/2-x,1/2-y,-z
1/2+x,1/2-y,1/2+z
loop_
_atom_site_type_symbol
_atom_site_label
_atom_site_fract_x
_atom_site_fract_y
_atom_site_fract_z
Si Si1 0.652838 0.610428 0.526572
Si Si2 0.837570 0.143821 0.655610
Si Si3 0.329170 0.938739 0.674347
Si Si4 0.925364 0.290616 0.854011
Si Si5 0.500000 0.831703 0.750000
Si Si6 0.053783 0.975941 0.230778
Si Si7 0.166698 0.572043 0.614302
Si Si8 0.500000 0.285777 0.750000
O O1 0.648201 0.611416 0.672152
O O2 0.628144 0.534039 0.405743
O O3 0.750256 0.621752 0.693918
O O4 0.576437 0.666115 0.345349
O O5 0.750080 0.110095 0.442018
O O6 0.849102 0.233020 0.678720
O O7 0.908444 0.105591 0.714251
O O8 0.401267 0.877106 0.821381
O O9 0.321147 0.960258 0.506899
O O10 0.339495 0.007964 0.790472
O O11 0.981625 0.285259 0.841179
O O12 0.966390 0.262422 0.065746
O O13 0.417657 0.880792 0.559139
O O14 0.000000 0.980236 0.250000
O O15 0.000000 0.000000 0.000000
#
# Coordination Sequence:
#
# PCOD9266643 Si02
#       8
#     8   8   8   8   4   8   8   4
#     4  10  19  38  57  87 117 151 190 241 291 339
#     4  10  20  36  58  84 116 153 193 232 291 354
#     4  10  21  38  62  86 114 150 197 246 288 344
#     4  10  22  39  58  83 117 156 194 233 295 348
#     4  10  24  43  57  84 122 152 194 258 288 326
#     4  12  20  31  54  85 118 150 186 237 289 343
#     4  10  22  39  62  85 115 151 198 247 296 327
#     4  10  20  39  63  82 116 160 192 228 292 368
#
# _framework density 18.576373
#
# number of rings (size 3 to 8) (size 9 to 14) (size 15 to 20)
#    0.000    1.714    3.571    1.286    1.000    5.143 
#    0.000    0.714    0.000    0.000    0.000    0.000 
#    0.000    0.000    0.000    0.000    0.000    0.000 
#
# Total GULP energy -155966.221964 kJ/mol
# GULP energy per Si atom -5570.222213 kJ/mol
# Density = 1.853409 g / cm^3
# Si number density = 18.576373 Si / 1000 Ang^3
#
#
#
# Elastic Constant Matrix: (Units=GPa)
#
#
# Indices 1 2 3 4 5 6 
#
# 1 89.7434 20.9524 32.1991 0.0000 0.1455 0.0000
# 2 20.9524 42.0041 12.4997 0.0000 -9.9057 0.0000
# 3 32.1991 12.4997 40.7382 0.0000 7.3115 0.0000
# 4 0.0000 0.0000 0.0000 18.1873 0.0000 -7.5142
# 5 0.1455 -9.9057 7.3115 0.0000 32.1570 0.0000
# 6 0.0000 0.0000 0.0000 -7.5142 0.0000 24.0079
#
#
#
# Elastic Compliance Matrix: (Units=1/GPa)
#
#
# Indices 1 2 3 4 5 6 
#
# 1 0.016416 -0.004354 -0.011869 0.000000 0.001283 0.000000
# 2 -0.004354 0.031110 -0.008161 0.000000 0.011458 0.000000
# 3 -0.011869 -0.008161 0.038443 0.000000 -0.011201 0.000000
# 4 0.000000 0.000000 0.000000 0.063149 0.000000 0.019765
# 5 0.001283 0.011458 -0.011201 0.000000 0.037168 0.000000
# 6 0.000000 0.000000 0.000000 0.019765 0.000000 0.047839
#
#
# Mechanical properties :
#
#
# Convention : Reuss Voigt Hill
#
# Bulk Modulus (GPa) = 26.88138 33.75424 30.31781
# Shear Modulus (GPa) = 16.93236 21.99275 19.46256
#
# Velocity S-wave (km/s) = 3.02238 3.44453 3.24034
# Velocity P-wave (km/s) = 5.16545 5.83350 5.50961
#
# Compressibility (1/GPa) = 0.03720046
#
# Stress axis : x y z
#
# Youngs Moduli (GPa) = 60.91649 32.14443 26.01277
#
# Poissons Ratio (x) = 0.13995 0.30876
# Poissons Ratio (y) = 0.26522 0.21228
# Poissons Ratio (z) = 0.72304 0.26232
#
# Static dielectric constant tensor:
#      x y z
#    x 1.674960 0.000000 0.047980 
#    y 0.000000 1.630610 0.000000 
#    z 0.047980 0.000000 1.670500 
# 
# From -- ./inp_files/62802.got.cif
#   From: 2010.05.17/outbox.cif.g08.bks.cpg/sg15_32_cif.got.tgz:62802.got - 2010.06.03 18:47:42.
