data_PCOD9266113
_publ_section_title
;
Structure prediction by ZEFSAII (Michael W. Deem and Ramdas Pophale) SiO2 
 PCOD9266113
Probable space group: C 2/C
;
_chemical_formula_sum "Si O2"
_cell_formula_units_Z 60
_cell_length_a 16.227237
_cell_length_b 9.438228
_cell_length_c 23.229543
_cell_angle_alpha 90.000000
_cell_angle_beta 124.918571
_cell_angle_gamma 90.000000
_cell_volume 2917.237305
_symmetry_space_group_name_H-M "C 2/C"
_symmetry_group_IT_number 15
_symmetry_cell_setting 'monoclinic'
loop_
_space_group_symop_operation_xyz
x,y,z
-x,y,1/2-z
-x,-y,-z
x,-y,1/2+z
1/2+x,1/2+y,z
1/2-x,1/2+y,1/2-z
1/2-x,1/2-y,-z
1/2+x,1/2-y,1/2+z
loop_
_atom_site_type_symbol
_atom_site_label
_atom_site_fract_x
_atom_site_fract_y
_atom_site_fract_z
Si Si1 0.679612 0.953456 0.343730
Si Si2 0.798917 0.586744 0.782605
Si Si3 0.386993 0.040544 0.938949
Si Si4 0.500000 0.192826 0.750000
Si Si5 0.308350 0.768191 0.963357
Si Si6 0.521309 0.564361 0.433966
Si Si7 0.848808 0.864677 0.950971
Si Si8 0.624219 0.619354 0.220659
O O1 0.677424 0.964741 0.273201
O O2 0.566576 0.910479 0.317060
O O3 0.753284 0.827715 0.393902
O O4 0.734679 0.086836 0.394851
O O5 0.869434 0.535568 0.863000
O O6 0.690803 0.519628 0.753792
O O7 0.810688 0.757512 0.785514
O O8 0.361950 0.198528 0.949855
O O9 0.317918 0.925719 0.943592
O O10 0.500000 0.000000 0.000000
O O11 0.415593 0.296982 0.740400
O O12 0.250000 0.750000 0.000000
O O13 0.417603 0.700310 0.019072
O O14 0.597390 0.433257 0.471823
O O15 0.418847 0.557858 0.430430
O O16 0.478045 0.586025 0.353919
#
# Coordination Sequence:
#
# PCOD9266113 Si02
#       8
#     8   8   8   4   8   8   8   8
#     4  10  21  40  63  91 125 171 211 254 328 390
#     4  11  21  35  60  92 123 162 207 267 309 377
#     4  12  22  37  60  96 125 158 221 272 310 378
#     4  10  22  36  62  92 124 168 210 256 314 394
#     4  11  23  39  64  94 133 172 207 262 330 394
#     4  10  19  37  60  86 124 164 205 254 316 378
#     4  10  20  36  61  91 121 157 211 267 308 369
#     4  11  21  38  61  92 124 161 209 256 318 383
#
# _framework density 20.567402999999999
#
# number of rings (size 3 to 8) (size 9 to 14) (size 15 to 20)
#    0.000    1.333    4.000    2.400    0.000    2.133 
#    0.000    2.667    0.000   19.200    0.000    0.000 
#    0.000    0.000    0.000    0.000    0.000    0.000 
#
# Total GULP energy -167235.681388 kJ/mol
# GULP energy per Si atom -5574.522713 kJ/mol
# Density = 2.052059 g / cm^3
# Si number density = 20.567403 Si / 1000 Ang^3
#
#
#
# Elastic Constant Matrix: (Units=GPa)
#
#
# Indices 1 2 3 4 5 6 
#
# 1 50.9414 27.9424 8.7962 0.0000 0.2177 0.0000
# 2 27.9424 135.2112 49.1589 0.0000 2.9388 0.0000
# 3 8.7962 49.1589 136.2191 0.0000 8.6681 0.0000
# 4 0.0000 0.0000 0.0000 23.1364 0.0000 -0.1740
# 5 0.2177 2.9388 8.6681 0.0000 27.1962 0.0000
# 6 0.0000 0.0000 0.0000 -0.1740 0.0000 16.0191
#
#
#
# Elastic Compliance Matrix: (Units=1/GPa)
#
#
# Indices 1 2 3 4 5 6 
#
# 1 0.022149 -0.004670 0.000239 0.000000 0.000251 0.000000
# 2 -0.004670 0.009497 -0.003126 0.000000 0.000008 0.000000
# 3 0.000239 -0.003126 0.008607 0.000000 -0.002407 0.000000
# 4 0.000000 0.000000 0.000000 0.043225 0.000000 0.000470
# 5 0.000251 0.000008 -0.002407 0.000000 0.037534 0.000000
# 6 0.000000 0.000000 0.000000 0.000470 0.000000 0.062431
#
#
# Mechanical properties :
#
#
# Convention : Reuss Voigt Hill
#
# Bulk Modulus (GPa) = 39.77764 54.90741 47.34252
# Shear Modulus (GPa) = 24.16180 29.03530 26.59855
#
# Velocity S-wave (km/s) = 3.43120 3.76136 3.60006
# Velocity P-wave (km/s) = 5.92280 6.75411 6.35207
#
# Compressibility (1/GPa) = 0.02513975
#
# Stress axis : x y z
#
# Youngs Moduli (GPa) = 45.14779 105.29247 116.18289
#
# Poissons Ratio (x) = 0.49168 -0.02776
# Poissons Ratio (y) = 0.21083 0.36323
# Poissons Ratio (z) = -0.01079 0.32918
#
# Static dielectric constant tensor:
#      x y z
#    x 1.804320 0.000000 -0.024190 
#    y 0.000000 1.775300 0.000000 
#    z -0.024190 0.000000 1.788270 
# 
# From -- ./inp_files/298401.got.cif
#   From: 2010.05.17/outbox.cif.g08.bks.cpg/sg15_150_cif.got.tgz:298401.got - 2010.06.03 18:47:42.
