data_PCOD9266128
_publ_section_title
;
Structure prediction by ZEFSAII (Michael W. Deem and Ramdas Pophale) SiO2 
 PCOD9266128
Probable space group: C 2/C
;
_chemical_formula_sum "Si O2"
_cell_formula_units_Z 64
_cell_length_a 14.935440
_cell_length_b 17.495068
_cell_length_c 11.190574
_cell_angle_alpha 90.000000
_cell_angle_beta 98.489990
_cell_angle_gamma 90.000000
_cell_volume 2892.015459
_symmetry_space_group_name_H-M "C 2/C"
_symmetry_group_IT_number 15
_symmetry_cell_setting 'monoclinic'
loop_
_space_group_symop_operation_xyz
x,y,z
-x,y,1/2-z
-x,-y,-z
x,-y,1/2+z
1/2+x,1/2+y,z
1/2-x,1/2+y,1/2-z
1/2-x,1/2-y,-z
1/2+x,1/2-y,1/2+z
loop_
_atom_site_type_symbol
_atom_site_label
_atom_site_fract_x
_atom_site_fract_y
_atom_site_fract_z
Si Si1 0.356273 0.609641 0.098810
Si Si2 0.731900 0.847562 0.791041
Si Si3 0.572190 0.014779 0.854662
Si Si4 0.537169 0.281904 0.061832
Si Si5 0.599464 0.540887 0.775817
Si Si6 0.232770 0.996894 0.100504
Si Si7 0.560578 0.890191 0.588993
Si Si8 0.357429 0.304065 0.164052
O O1 0.309049 0.650705 0.202640
O O2 0.412763 0.536709 0.153949
O O3 0.415832 0.665145 0.028320
O O4 0.279871 0.562439 0.009978
O O5 0.756959 0.911010 0.895537
O O6 0.641459 0.875405 0.700079
O O7 0.713957 0.764982 0.846246
O O8 0.500000 0.050872 0.750000
O O9 0.671577 0.022525 0.818580
O O10 0.528743 0.930835 0.873101
O O11 0.582368 0.053448 0.985099
O O12 0.542603 0.192895 0.031594
O O13 0.432880 0.295607 0.076101
O O14 0.594765 0.292810 0.195588
O O15 0.500000 0.575363 0.750000
O O16 0.643862 0.518630 0.660380
O O17 0.665640 0.605959 0.840862
#
# Coordination Sequence:
#
# PCOD9266128 Si02
#       8
#     8   8   8   8   8   8   8   8
#     4  11  23  39  65  91 127 164 214 258 320 374
#     4  10  21  36  61  93 124 161 204 262 307 377
#     4  11  21  36  60  90 128 169 200 252 314 380
#     4  10  20  36  58  90 118 162 207 264 305 370
#     4  11  23  41  62  92 120 163 215 267 313 374
#     4  11  21  38  58  93 125 163 206 262 313 380
#     4  10  21  34  59  91 123 158 209 248 311 372
#     4  10  19  37  60  88 118 156 209 260 313 364
#
# _framework density 22.129894
#
# number of rings (size 3 to 8) (size 9 to 14) (size 15 to 20)
#    0.000    1.500    5.000    0.750    1.750    5.000 
#    0.000    1.250    0.000    3.000    0.000    0.000 
#    0.000    0.000    0.000    0.000    0.000    0.000 
#
# Total GULP energy -178211.359413 kJ/mol
# GULP energy per Si atom -5569.104982 kJ/mol
# Density = 2.207953 g / cm^3
# Si number density = 22.129894 Si / 1000 Ang^3
#
#
#
# Elastic Constant Matrix: (Units=GPa)
#
#
# Indices 1 2 3 4 5 6 
#
# 1 75.3181 40.5295 30.6693 0.0000 -19.9453 0.0000
# 2 40.5295 146.6958 29.0784 0.0000 -23.1120 0.0000
# 3 30.6693 29.0784 59.4481 0.0000 -10.5713 0.0000
# 4 0.0000 0.0000 0.0000 -28.2603 0.0000 36.1478
# 5 -19.9453 -23.1120 -10.5713 0.0000 28.8502 0.0000
# 6 0.0000 0.0000 0.0000 36.1478 0.0000 -16.8493
#
#
#
# Elastic Compliance Matrix: (Units=1/GPa)
#
#
# Indices 1 2 3 4 5 6 
#
# 1 0.020155 -0.002657 -0.007487 0.000000 0.009062 0.000000
# 2 -0.002657 0.008646 -0.002090 0.000000 0.004324 0.000000
# 3 -0.007487 -0.002090 0.021916 0.000000 0.001180 0.000000
# 4 0.000000 0.000000 0.000000 0.020288 0.000000 0.043525
# 5 0.009062 0.004324 0.001180 0.000000 0.044824 0.000000
# 6 0.000000 0.000000 0.000000 0.043525 0.000000 0.034028
#
#
# Mechanical properties :
#
#
# Convention : Reuss Voigt Hill
#
# Bulk Modulus (GPa) = 38.09433 53.55737 45.82585
# Shear Modulus (GPa) = 27.31129 8.82712 18.06921
#
# Velocity S-wave (km/s) = 3.51684 1.99936 2.86056
# Velocity P-wave (km/s) = 5.80880 5.43910 5.62699
#
# Compressibility (1/GPa) = 0.02625062
#
# Stress axis : x y z
#
# Youngs Moduli (GPa) = 49.61514 115.65600 45.62866
#
# Poissons Ratio (x) = 0.30726 0.34163
# Poissons Ratio (y) = 0.13181 0.09535
# Poissons Ratio (z) = 0.37147 0.24169
#
# Static dielectric constant tensor:
#      x y z
#    x 1.855750 0.000000 0.058830 
#    y 0.000000 1.848440 0.000000 
#    z 0.058830 0.000000 1.894000 
# 
# From -- ./inp_files/98778.got.cif
#   From: 2010.05.17/outbox.cif.g08.bks.cpg/sg15_50_cif.got.tgz:98778.got - 2010.06.03 18:47:42.
