data_PCOD9266903
_publ_section_title
;
Structure prediction by ZEFSAII (Michael W. Deem and Ramdas Pophale) SiO2 
 PCOD9266903
Probable space group: C 2/C
;
_chemical_formula_sum "Si O2"
_cell_formula_units_Z 60
_cell_length_a 6.558324
_cell_length_b 26.515512
_cell_length_c 15.760780
_cell_angle_alpha 90.000000
_cell_angle_beta 96.132509
_cell_angle_gamma 90.000000
_cell_volume 2725.073374
_symmetry_space_group_name_H-M "C 2/C"
_symmetry_group_IT_number 15
_symmetry_cell_setting 'monoclinic'
loop_
_space_group_symop_operation_xyz
x,y,z
-x,y,1/2-z
-x,-y,-z
x,-y,1/2+z
1/2+x,1/2+y,z
1/2-x,1/2+y,1/2-z
1/2-x,1/2-y,-z
1/2+x,1/2-y,1/2+z
loop_
_atom_site_type_symbol
_atom_site_label
_atom_site_fract_x
_atom_site_fract_y
_atom_site_fract_z
Si Si1 0.500000 0.118338 0.250000
Si Si2 0.176149 0.968068 0.686016
Si Si3 0.314936 0.927546 0.134888
Si Si4 0.180593 0.632113 0.574770
Si Si5 0.508254 0.588621 0.030900
Si Si6 0.909747 0.837297 0.323865
Si Si7 0.149443 0.163795 0.336541
Si Si8 0.439101 0.778840 0.145902
O O1 0.673611 0.079360 0.291395
O O2 0.379048 0.153880 0.311533
O O3 0.066389 0.958508 0.591343
O O4 0.000000 0.971699 0.750000
O O5 0.301857 0.019621 0.681228
O O6 0.526331 0.910423 0.101369
O O7 0.251971 0.882419 0.196150
O O8 0.144353 0.925038 0.052414
O O9 0.279850 0.615654 0.489955
O O10 0.388382 0.635617 0.636644
O O11 0.077128 0.686752 0.589904
O O12 0.390025 0.626201 0.088364
O O13 0.789347 0.800462 0.379080
O O14 0.000000 0.806028 0.250000
O O15 0.081292 0.219303 0.363753
O O16 0.000000 0.152671 0.250000
O O17 0.500000 0.787376 0.250000
#
# Coordination Sequence:
#
# PCOD9266903 Si02
#       8
#     4   8   8   8   8   8   8   8
#     4  12  24  42  68  96 130 164 226 280 330 382
#     4  12  25  46  69  99 128 173 226 277 326 397
#     4  10  25  40  66  94 132 175 215 268 334 393
#     4  10  23  41  62 100 133 173 213 273 335 394
#     4  11  23  45  66  93 142 171 218 273 327 399
#     4  10  19  38  62  95 131 167 217 277 319 392
#     4  11  24  44  68  99 128 174 226 279 323 391
#     4  10  21  38  68  97 128 175 229 269 334 387
#
# _framework density 22.017755000000001
#
# number of rings (size 3 to 8) (size 9 to 14) (size 15 to 20)
#    0.000    1.333    4.000    0.800    2.800    4.267 
#    0.000    6.000    0.000    0.000    0.000    0.000 
#    0.000    0.000    0.000    0.000    0.000    0.000 
#
# Total GULP energy -167215.784272 kJ/mol
# GULP energy per Si atom -5573.859476 kJ/mol
# Density = 2.196764 g / cm^3
# Si number density = 22.017755 Si / 1000 Ang^3
#
#
#
# Elastic Constant Matrix: (Units=GPa)
#
#
# Indices 1 2 3 4 5 6 
#
# 1 135.5390 27.2136 32.5290 0.0000 -34.7360 0.0000
# 2 27.2136 97.2384 20.7191 0.0000 -24.7350 0.0000
# 3 32.5290 20.7191 65.5746 0.0000 -18.3342 0.0000
# 4 0.0000 0.0000 0.0000 40.4660 0.0000 -14.9307
# 5 -34.7360 -24.7350 -18.3342 0.0000 41.6086 0.0000
# 6 0.0000 0.0000 0.0000 -14.9307 0.0000 23.4420
#
#
#
# Elastic Compliance Matrix: (Units=1/GPa)
#
#
# Indices 1 2 3 4 5 6 
#
# 1 0.009880 -0.000443 -0.002884 0.000000 0.006714 0.000000
# 2 -0.000443 0.012387 -0.001983 0.000000 0.006121 0.000000
# 3 -0.002884 -0.001983 0.018595 0.000000 0.004607 0.000000
# 4 0.000000 0.000000 0.000000 0.032304 0.000000 0.020575
# 5 0.006714 0.006121 0.004607 0.000000 0.035307 0.000000
# 6 0.000000 0.000000 0.000000 0.020575 0.000000 0.055763
#
#
# Mechanical properties :
#
#
# Convention : Reuss Voigt Hill
#
# Bulk Modulus (GPa) = 33.06565 51.03060 42.04813
# Shear Modulus (GPa) = 27.03643 35.62933 31.33288
#
# Velocity S-wave (km/s) = 3.50800 4.02706 3.77646
# Velocity P-wave (km/s) = 5.60878 6.69704 6.17692
#
# Compressibility (1/GPa) = 0.03024286
#
# Stress axis : x y z
#
# Youngs Moduli (GPa) = 101.21896 80.72758 53.77752
#
# Poissons Ratio (x) = 0.03573 0.15509
# Poissons Ratio (y) = 0.04480 0.10665
# Poissons Ratio (z) = 0.29190 0.16009
#
# Static dielectric constant tensor:
#      x y z
#    x 1.830860 0.000000 0.015950 
#    y 0.000000 1.831500 0.000000 
#    z 0.015950 0.000000 1.924450 
# 
# From -- ./inp_files/186204.got.cif
#   From: 2010.05.17/outbox.cif.g08.bks.cpg/sg15_94_cif.got.tgz:186204.got - 2010.06.03 18:47:42.
