data_PCOD9266229
_publ_section_title
;
Structure prediction by ZEFSAII (Michael W. Deem and Ramdas Pophale) SiO2 
 PCOD9266229
Probable space group: C 2/C
;
_chemical_formula_sum "Si O2"
_cell_formula_units_Z 64
_cell_length_a 9.593271
_cell_length_b 28.237722
_cell_length_c 13.886749
_cell_angle_alpha 90.000000
_cell_angle_beta 48.441262
_cell_angle_gamma 90.000000
_cell_volume 2814.872897
_symmetry_space_group_name_H-M "C 2/C"
_symmetry_group_IT_number 15
_symmetry_cell_setting 'monoclinic'
loop_
_space_group_symop_operation_xyz
x,y,z
-x,y,1/2-z
-x,-y,-z
x,-y,1/2+z
1/2+x,1/2+y,z
1/2-x,1/2+y,1/2-z
1/2-x,1/2-y,-z
1/2+x,1/2-y,1/2+z
loop_
_atom_site_type_symbol
_atom_site_label
_atom_site_fract_x
_atom_site_fract_y
_atom_site_fract_z
Si Si1 0.289376 0.726437 0.377979
Si Si2 0.967810 0.763693 0.381731
Si Si3 0.649942 0.536028 0.542899
Si Si4 0.059911 0.866063 0.327742
Si Si5 0.675881 0.384634 0.599647
Si Si6 0.072993 0.945889 0.859837
Si Si7 0.055375 0.526247 0.335938
Si Si8 0.556588 0.083312 0.835630
O O1 0.500000 0.741445 0.250000
O O2 0.250000 0.750000 0.500000
O O3 0.297928 0.669914 0.390550
O O4 0.127373 0.736343 0.372216
O O5 0.750000 0.750000 0.500000
O O6 0.000000 0.756327 0.250000
O O7 0.002233 0.817675 0.406526
O O8 0.550105 0.584955 0.609426
O O9 0.553643 0.488246 0.623402
O O10 0.637573 0.533585 0.433173
O O11 0.863287 0.536234 0.477788
O O12 0.275826 0.880145 0.228239
O O13 0.000000 0.850830 0.250000
O O14 0.500000 0.401421 0.750000
O O15 0.557590 0.400830 0.559110
O O16 0.878156 0.405741 0.483419
O O17 0.273155 0.940097 0.717840
O O18 0.114104 0.471671 0.321273
O O19 0.000000 0.533506 0.250000
O O20 0.500000 0.087013 0.750000
#
# Coordination Sequence:
#
# PCOD9266229 Si02
#       8
#     8   8   8   8   8   8   8   8
#     4  11  27  48  79 114 146 188 253 318 388 452
#     4  11  27  53  78 108 152 199 246 320 394 462
#     4  10  19  37  61  97 136 188 244 284 347 428
#     4  11  26  41  68 104 139 179 246 301 359 437
#     4  11  26  42  64 104 148 178 229 309 375 423
#     4  10  19  37  62  92 143 188 235 290 349 429
#     4   9  18  35  60  94 135 188 242 287 343 428
#     4  11  22  41  73 101 134 193 250 290 342 430
#
# _framework density 22.736371999999999
#
# number of rings (size 3 to 8) (size 9 to 14) (size 15 to 20)
#    0.000    1.500    2.500    1.500    8.750    1.500 
#    2.250    1.875    0.000    0.000    0.000    0.000 
#    0.000    0.000    0.000    0.000    0.000    0.000 
#
# Total GULP energy -178276.825431 kJ/mol
# GULP energy per Si atom -5571.150795 kJ/mol
# Density = 2.268462 g / cm^3
# Si number density = 22.736372 Si / 1000 Ang^3
#
#
#
# Elastic Constant Matrix: (Units=GPa)
#
#
# Indices 1 2 3 4 5 6 
#
# 1 149.5461 49.8570 54.0907 0.0000 -29.3748 0.0000
# 2 49.8570 114.6855 41.7587 0.0000 -37.8429 0.0000
# 3 54.0907 41.7587 140.7953 0.0000 -25.4393 0.0000
# 4 0.0000 0.0000 0.0000 21.7097 0.0000 -22.5875
# 5 -29.3748 -37.8429 -25.4393 0.0000 43.1356 0.0000
# 6 0.0000 0.0000 0.0000 -22.5875 0.0000 32.3370
#
#
#
# Elastic Compliance Matrix: (Units=1/GPa)
#
#
# Indices 1 2 3 4 5 6 
#
# 1 0.008735 -0.002048 -0.002237 0.000000 0.002832 0.000000
# 2 -0.002048 0.013222 -0.001445 0.000000 0.009353 0.000000
# 3 -0.002237 -0.001445 0.008827 0.000000 0.002415 0.000000
# 4 0.000000 0.000000 0.000000 0.168571 0.000000 0.117747
# 5 0.002832 0.009353 0.002415 0.000000 0.034741 0.000000
# 6 0.000000 0.000000 0.000000 0.117747 0.000000 0.113171
#
#
# Mechanical properties :
#
#
# Convention : Reuss Voigt Hill
#
# Bulk Modulus (GPa) = 51.74765 77.38221 64.56493
# Shear Modulus (GPa) = 13.69231 36.72449 25.20840
#
# Velocity S-wave (km/s) = 2.45668 4.02335 3.33337
# Velocity P-wave (km/s) = 5.55485 7.46268 6.57829
#
# Compressibility (1/GPa) = 0.01932455
#
# Stress axis : x y z
#
# Youngs Moduli (GPa) = 114.48004 75.63007 113.29409
#
# Poissons Ratio (x) = 0.15492 0.25339
# Poissons Ratio (y) = 0.23450 0.16368
# Poissons Ratio (z) = 0.25604 0.10927
#
# Static dielectric constant tensor:
#      x y z
#    x 2.689930 0.000000 0.391620 
#    y 0.000000 1.857650 0.000000 
#    z 0.391620 0.000000 2.088630 
# 
# From -- ./inp_files/139826.got.cif
#   From: 2010.05.17/outbox.cif.g08.bks.cpg/sg15_70_cif.got.tgz:139826.got - 2010.06.03 18:47:42.
