data_PCOD9266044
_publ_section_title
;
Structure prediction by ZEFSAII (Michael W. Deem and Ramdas Pophale) SiO2 
 PCOD9266044
Probable space group: C 2/C
;
_chemical_formula_sum "Si O2"
_cell_formula_units_Z 52
_cell_length_a 9.026910
_cell_length_b 18.077516
_cell_length_c 17.105050
_cell_angle_alpha 90.000000
_cell_angle_beta 127.551046
_cell_angle_gamma 90.000000
_cell_volume 2212.950502
_symmetry_space_group_name_H-M "C 2/C"
_symmetry_group_IT_number 15
_symmetry_cell_setting 'monoclinic'
loop_
_space_group_symop_operation_xyz
x,y,z
-x,y,1/2-z
-x,-y,-z
x,-y,1/2+z
1/2+x,1/2+y,z
1/2-x,1/2+y,1/2-z
1/2-x,1/2-y,-z
1/2+x,1/2-y,1/2+z
loop_
_atom_site_type_symbol
_atom_site_label
_atom_site_fract_x
_atom_site_fract_y
_atom_site_fract_z
Si Si1 0.994988 0.703100 0.370404
Si Si2 0.257118 0.900586 0.086013
Si Si3 0.670137 0.910480 0.207832
Si Si4 0.338102 0.061305 0.369049
Si Si5 0.101986 0.829260 0.511583
Si Si6 0.267609 0.467428 0.028035
Si Si7 0.500000 0.671752 0.750000
O O1 0.065083 0.745709 0.470828
O O2 0.183041 0.668539 0.391237
O O3 0.833205 0.644348 0.335258
O O4 0.945142 0.771688 0.300690
O O5 0.462897 0.882677 0.119423
O O6 0.284330 0.892168 0.187908
O O7 0.081623 0.852832 0.000650
O O8 0.219858 0.984563 0.047308
O O9 0.819407 0.880427 0.194116
O O10 0.671379 0.999437 0.200918
O O11 0.553419 0.059105 0.468987
O O12 0.206171 0.028458 0.394889
O O13 0.110614 0.894375 0.447493
#
# Coordination Sequence:
#
# PCOD9266044 Si02
#       7
#     8   8   8   8   8   8   4
#     4  10  22  36  62  89 125 163 203 263 317 377
#     4  10  20  37  62  91 120 158 212 266 313 371
#     4  10  22  38  65  87 121 169 216 259 314 382
#     4   9  19  36  56  88 121 155 204 255 309 366
#     4  10  19  37  59  89 123 158 206 250 320 380
#     4   9  18  34  60  86 118 156 201 252 305 379
#     4  12  22  42  66  90 122 176 216 258 324 398
#
# _framework density 23.498041000000001
#
# number of rings (size 3 to 8) (size 9 to 14) (size 15 to 20)
#    0.000    2.154    1.538    1.385    0.000    7.385 
#    0.000    3.077    3.385    0.000    0.000    0.000 
#    0.000    0.000    0.000    0.000    0.000    0.000 
#
# Total GULP energy -144826.164112 kJ/mol
# GULP energy per Si atom -5570.237081 kJ/mol
# Density = 2.344456 g / cm^3
# Si number density = 23.498041 Si / 1000 Ang^3
#
#
#
# Elastic Constant Matrix: (Units=GPa)
#
#
# Indices 1 2 3 4 5 6 
#
# 1 100.2223 43.2422 13.0319 0.0000 17.8241 0.0000
# 2 43.2422 126.8991 8.0576 0.0000 9.9390 0.0000
# 3 13.0319 8.0576 12.5388 0.0000 -0.3518 0.0000
# 4 0.0000 0.0000 0.0000 22.3743 0.0000 1.1821
# 5 17.8241 9.9390 -0.3518 0.0000 25.7782 0.0000
# 6 0.0000 0.0000 0.0000 1.1821 0.0000 39.8482
#
#
#
# Elastic Compliance Matrix: (Units=1/GPa)
#
#
# Indices 1 2 3 4 5 6 
#
# 1 0.014854 -0.003494 -0.013448 0.000000 -0.009107 0.000000
# 2 -0.003494 0.009317 -0.002390 0.000000 -0.001209 0.000000
# 3 -0.013448 -0.002390 0.095588 0.000000 0.011524 0.000000
# 4 0.000000 0.000000 0.000000 0.044764 0.000000 -0.001328
# 5 -0.009107 -0.001209 0.011524 0.000000 0.045713 0.000000
# 6 0.000000 0.000000 0.000000 -0.001328 0.000000 0.025135
#
#
# Mechanical properties :
#
#
# Convention : Reuss Voigt Hill
#
# Bulk Modulus (GPa) = 12.33111 40.92484 26.62797
# Shear Modulus (GPa) = 16.60760 29.28870 22.94815
#
# Velocity S-wave (km/s) = 2.66139 3.53431 3.12845
# Velocity P-wave (km/s) = 3.83446 5.84031 4.94026
#
# Compressibility (1/GPa) = 0.08109573
#
# Stress axis : x y z
#
# Youngs Moduli (GPa) = 67.32297 107.32551 10.46152
#
# Poissons Ratio (x) = 0.37504 0.14069
# Poissons Ratio (y) = 0.23526 0.02500
# Poissons Ratio (z) = 0.90535 0.25646
#
# Static dielectric constant tensor:
#      x y z
#    x 1.932140 0.000000 -0.025260 
#    y 0.000000 1.925970 0.000000 
#    z -0.025260 0.000000 1.987160 
# 
# From -- ./inp_files/191138.got.cif
#   From: 2010.05.17/outbox.cif.g08.bks.cpg/sg15_96_cif.got.tgz:191138.got - 2010.06.03 18:47:42.
