data_PCOD9266340
_publ_section_title
;
Structure prediction by ZEFSAII (Michael W. Deem and Ramdas Pophale) SiO2 
 PCOD9266340
Probable space group: C 2/C
;
_chemical_formula_sum "Si O2"
_cell_formula_units_Z 56
_cell_length_a 17.223075
_cell_length_b 7.276778
_cell_length_c 22.337218
_cell_angle_alpha 90.000000
_cell_angle_beta 66.423615
_cell_angle_gamma 90.000000
_cell_volume 2565.809903
_symmetry_space_group_name_H-M "C 2/C"
_symmetry_group_IT_number 15
_symmetry_cell_setting 'monoclinic'
loop_
_space_group_symop_operation_xyz
x,y,z
-x,y,1/2-z
-x,-y,-z
x,-y,1/2+z
1/2+x,1/2+y,z
1/2-x,1/2+y,1/2-z
1/2-x,1/2-y,-z
1/2+x,1/2-y,1/2+z
loop_
_atom_site_type_symbol
_atom_site_label
_atom_site_fract_x
_atom_site_fract_y
_atom_site_fract_z
Si Si1 0.040690 0.997533 0.302999
Si Si2 0.729471 0.195828 0.925108
Si Si3 0.667775 0.057706 0.823521
Si Si4 0.840176 0.489217 0.945041
Si Si5 0.632108 0.629656 0.103107
Si Si6 0.506670 0.074911 0.318458
Si Si7 0.803991 0.779596 0.790168
O O1 0.131371 0.094469 0.269543
O O2 0.000000 0.024831 0.250000
O O3 0.966576 0.073890 0.369040
O O4 0.045845 0.778961 0.308181
O O5 0.758480 0.395579 0.938572
O O6 0.698238 0.192033 0.866693
O O7 0.809161 0.052772 0.910007
O O8 0.659028 0.110429 0.990868
O O9 0.569210 0.046431 0.839520
O O10 0.713248 0.870032 0.828456
O O11 0.704976 0.100958 0.746602
O O12 0.842979 0.709779 0.950606
O O13 0.917301 0.429812 0.878747
O O14 0.651244 0.734151 0.159980
O O15 0.500000 0.021202 0.250000
#
# Coordination Sequence:
#
# PCOD9266340 Si02
#       7
#     8   8   8   8   8   8   8
#     4   9  18  35  57  87 124 153 198 257 309 365
#     4  10  24  41  58  92 123 164 205 258 304 370
#     4  11  23  37  57  90 128 161 205 261 317 364
#     4  11  22  40  67  84 121 166 212 245 312 379
#     4  10  19  37  63  89 116 159 210 253 302 369
#     4  11  22  37  64  91 119 162 206 258 317 376
#     4  10  21  33  56  88 125 155 194 259 315 362
#
# _framework density 21.825467
#
# number of rings (size 3 to 8) (size 9 to 14) (size 15 to 20)
#    0.000    1.714    1.429    3.000    6.000    1.714 
#    0.000    0.000    0.000    1.714    0.000    0.000 
#    0.000    0.000    0.000    0.000    0.000    0.000 
#
# Total GULP energy -156154.635775 kJ/mol
# GULP energy per Si atom -5576.951278 kJ/mol
# Density = 2.177579 g / cm^3
# Si number density = 21.825467 Si / 1000 Ang^3
#
#
#
# Elastic Constant Matrix: (Units=GPa)
#
#
# Indices 1 2 3 4 5 6 
#
# 1 75.2132 5.6903 8.6219 0.0000 -2.5952 0.0000
# 2 5.6903 52.3405 -19.6904 -0.0001 -5.6372 0.0000
# 3 8.6219 -19.6904 53.5526 0.0000 -14.9585 0.0000
# 4 0.0000 -0.0001 0.0000 31.6822 0.0000 -5.6077
# 5 -2.5952 -5.6372 -14.9585 0.0000 25.3260 0.0000
# 6 0.0000 0.0000 0.0000 -5.6077 0.0000 21.2574
#
#
#
# Elastic Compliance Matrix: (Units=1/GPa)
#
#
# Indices 1 2 3 4 5 6 
#
# 1 0.013915 -0.003107 -0.003806 0.000000 -0.001513 0.000000
# 2 -0.003107 0.026181 0.013970 0.000000 0.013760 0.000000
# 3 -0.003806 0.013970 0.030158 0.000000 0.020532 0.000000
# 4 0.000000 0.000000 0.000000 0.033109 0.000000 0.008734
# 5 -0.001513 0.013760 0.020532 0.000000 0.054520 0.000000
# 6 0.000000 0.000000 0.000000 0.008734 0.000000 0.049347
#
#
# Mechanical properties :
#
#
# Convention : Reuss Voigt Hill
#
# Bulk Modulus (GPa) = 11.85283 18.92776 15.39029
# Shear Modulus (GPa) = 22.60019 28.08542 25.34280
#
# Velocity S-wave (km/s) = 3.22140 3.59112 3.41127
# Velocity P-wave (km/s) = 4.39080 5.08783 4.75211
#
# Compressibility (1/GPa) = 0.08436801
#
# Stress axis : x y z
#
# Youngs Moduli (GPa) = 71.86677 38.19548 33.15917
#
# Poissons Ratio (x) = 0.11869 0.12619
# Poissons Ratio (y) = 0.22332 -0.46324
# Poissons Ratio (z) = 0.27349 -0.53360
#
# Static dielectric constant tensor:
#      x y z
#    x 1.754280 0.000000 -0.033320 
#    y 0.000000 1.866500 0.000000 
#    z -0.033320 0.000000 1.867180 
# 
# From -- ./inp_files/276243.got.cif
#   From: 2010.05.17/outbox.cif.g08.bks.cpg/sg15_139_cif.got.tgz:276243.got - 2010.06.03 18:47:42.
