data_PCOD9266822
_publ_section_title
;
Structure prediction by ZEFSAII (Michael W. Deem and Ramdas Pophale) SiO2 
 PCOD9266822
Probable space group: C 2/C
;
_chemical_formula_sum "Si O2"
_cell_formula_units_Z 56
_cell_length_a 12.112236
_cell_length_b 13.832265
_cell_length_c 26.682408
_cell_angle_alpha 90.000000
_cell_angle_beta 142.974050
_cell_angle_gamma 90.000000
_cell_volume 2691.947427
_symmetry_space_group_name_H-M "C 2/C"
_symmetry_group_IT_number 15
_symmetry_cell_setting 'monoclinic'
loop_
_space_group_symop_operation_xyz
x,y,z
-x,y,1/2-z
-x,-y,-z
x,-y,1/2+z
1/2+x,1/2+y,z
1/2-x,1/2+y,1/2-z
1/2-x,1/2-y,-z
1/2+x,1/2-y,1/2+z
loop_
_atom_site_type_symbol
_atom_site_label
_atom_site_fract_x
_atom_site_fract_y
_atom_site_fract_z
Si Si1 0.346759 0.555747 0.411297
Si Si2 0.093062 0.024823 0.928671
Si Si3 0.519606 0.073656 0.914543
Si Si4 0.082960 0.382901 0.331660
Si Si5 0.121621 0.207665 0.995836
Si Si6 0.670953 0.491226 0.848185
Si Si7 0.175613 0.702001 0.054165
O O1 0.500000 0.500000 0.500000
O O2 0.449212 0.558019 0.394494
O O3 0.175693 0.484128 0.349437
O O4 0.306585 0.653933 0.427376
O O5 0.119501 0.047016 0.880237
O O6 0.021857 0.121433 0.929645
O O7 0.298052 0.994753 0.021697
O O8 0.459185 0.095567 0.835739
O O9 0.356591 0.027739 0.888503
O O10 0.595197 0.167594 0.971880
O O11 0.228298 0.305743 0.406826
O O12 0.000000 0.342293 0.250000
O O13 0.992157 0.291075 0.968381
O O14 0.250000 0.250000 0.000000
O O15 0.500000 0.496372 0.750000
O O16 0.697656 0.383196 0.879432
#
# Coordination Sequence:
#
# PCOD9266822 Si02
#       7
#     8   8   8   8   8   8   8
#     4  10  19  38  61  92 119 165 208 250 313 386
#     4  10  19  40  63  87 122 167 219 252 309 395
#     4  11  22  41  65  91 126 169 221 260 313 399
#     4  12  24  39  65  98 132 161 211 269 335 374
#     4  11  19  34  66  95 118 154 218 264 302 367
#     4  11  25  40  60  92 134 171 210 269 335 372
#     4  11  22  40  63  96 122 170 218 263 309 386
#
# _framework density 20.802785
#
# number of rings (size 3 to 8) (size 9 to 14) (size 15 to 20)
#    0.000    1.143    5.714    4.286    2.000    1.143 
#    0.000    0.000    0.000    3.429    0.000    0.000 
#    0.000    0.000    0.000    0.000    0.000    0.000 
#
# Total GULP energy -156029.567623 kJ/mol
# GULP energy per Si atom -5572.484558 kJ/mol
# Density = 2.075544 g / cm^3
# Si number density = 20.802785 Si / 1000 Ang^3
#
#
#
# Elastic Constant Matrix: (Units=GPa)
#
#
# Indices 1 2 3 4 5 6 
#
# 1 156.1127 11.5456 30.3172 0.0000 -20.5889 0.0000
# 2 11.5456 40.9264 12.4452 0.0000 -0.4539 0.0000
# 3 30.3172 12.4452 64.5326 -0.0001 -19.4868 0.0000
# 4 0.0000 0.0000 -0.0001 15.5052 0.0000 -0.4697
# 5 -20.5889 -0.4539 -19.4868 0.0000 28.1626 0.0000
# 6 0.0000 0.0000 0.0000 -0.4697 0.0000 45.6462
#
#
#
# Elastic Compliance Matrix: (Units=1/GPa)
#
#
# Indices 1 2 3 4 5 6 
#
# 1 0.007431 -0.001445 -0.001996 0.000000 0.004028 0.000000
# 2 -0.001445 0.026572 -0.005860 0.000000 -0.004682 0.000000
# 3 -0.001996 -0.005860 0.021610 0.000000 0.013399 0.000000
# 4 0.000000 0.000000 0.000000 0.064514 0.000000 0.000664
# 5 0.004028 -0.004682 0.013399 0.000000 0.047649 0.000000
# 6 0.000000 0.000000 0.000000 0.000664 0.000000 0.021914
#
#
# Mechanical properties :
#
#
# Convention : Reuss Voigt Hill
#
# Bulk Modulus (GPa) = 27.01832 41.13198 34.07515
# Shear Modulus (GPa) = 22.66246 31.68036 27.17141
#
# Velocity S-wave (km/s) = 3.30418 3.90666 3.61798
# Velocity P-wave (km/s) = 5.25098 6.33755 5.81968
#
# Compressibility (1/GPa) = 0.03701192
#
# Stress axis : x y z
#
# Youngs Moduli (GPa) = 134.56371 37.63420 46.27503
#
# Poissons Ratio (x) = 0.05437 0.09237
# Poissons Ratio (y) = 0.19441 0.27115
# Poissons Ratio (z) = 0.26862 0.22052
#
# Static dielectric constant tensor:
#      x y z
#    x 1.842410 0.000000 -0.023610 
#    y 0.000000 1.788200 0.000000 
#    z -0.023610 0.000000 1.771720 
# 
# From -- ./inp_files/292884.got.cif
#   From: 2010.05.17/outbox.cif.g08.bks.cpg/sg15_147_cif.got.tgz:292884.got - 2010.06.03 18:47:42.
