data_PCOD9266211
_publ_section_title
;
Structure prediction by ZEFSAII (Michael W. Deem and Ramdas Pophale) SiO2 
 PCOD9266211
Probable space group: C 2/C
;
_chemical_formula_sum "Si O2"
_cell_formula_units_Z 48
_cell_length_a 10.457546
_cell_length_b 15.053714
_cell_length_c 24.776973
_cell_angle_alpha 90.000000
_cell_angle_beta 147.688031
_cell_angle_gamma 90.000000
_cell_volume 2084.936787
_symmetry_space_group_name_H-M "C 2/C"
_symmetry_group_IT_number 15
_symmetry_cell_setting 'monoclinic'
loop_
_space_group_symop_operation_xyz
x,y,z
-x,y,1/2-z
-x,-y,-z
x,-y,1/2+z
1/2+x,1/2+y,z
1/2-x,1/2+y,1/2-z
1/2-x,1/2-y,-z
1/2+x,1/2-y,1/2+z
loop_
_atom_site_type_symbol
_atom_site_label
_atom_site_fract_x
_atom_site_fract_y
_atom_site_fract_z
Si Si1 0.002397 0.771962 0.344665
Si Si2 0.378091 0.541923 0.764852
Si Si3 0.836594 0.842272 0.505279
Si Si4 0.698416 0.943052 0.543157
Si Si5 0.069149 0.730347 0.057527
Si Si6 0.836583 0.590894 0.236867
O O1 0.855266 0.853199 0.266083
O O2 0.965492 0.681562 0.299501
O O3 0.911856 0.751823 0.372868
O O4 0.287822 0.791384 0.446381
O O5 0.500000 0.526113 0.750000
O O6 0.584109 0.510956 0.879948
O O7 0.186588 0.470917 0.718267
O O8 0.750000 0.750000 0.500000
O O9 0.649792 0.910986 0.465017
O O10 0.864122 0.818317 0.452950
O O11 0.086966 0.875332 0.620646
O O12 0.719914 0.853786 0.588067
O O13 0.500000 0.000000 0.500000
O O14 0.000000 0.544518 0.250000
#
# Coordination Sequence:
#
# PCOD9266211 Si02
#       6
#     8   8   8   8   8   8
#     4  11  22  38  65  90 128 169 210 267 318 386
#     4  11  24  40  62  93 125 170 219 259 325 387
#     4   9  20  37  63  90 123 165 208 260 319 382
#     4  10  19  37  61  90 125 159 211 263 312 383
#     4  10  20  38  61  95 125 163 214 257 329 380
#     4  11  22  42  65  94 131 170 216 271 324 383
#
# _framework density 23.022279000000001
#
# number of rings (size 3 to 8) (size 9 to 14) (size 15 to 20)
#    0.000    1.667    3.333    1.500    0.000    0.000 
#    0.000   12.500    0.000    0.000    0.000    0.000 
#    0.000    0.000    0.000    0.000    0.000    0.000 
#
# Total GULP energy -133798.700994 kJ/mol
# GULP energy per Si atom -5574.945875 kJ/mol
# Density = 2.296988 g / cm^3
# Si number density = 23.022279 Si / 1000 Ang^3
#
#
#
# Elastic Constant Matrix: (Units=GPa)
#
#
# Indices 1 2 3 4 5 6 
#
# 1 135.7774 39.9321 -3.2136 0.0001 -25.7447 0.0000
# 2 39.9321 109.0507 5.5113 0.0000 -6.6654 0.0000
# 3 -3.2136 5.5113 22.6471 0.0002 -5.0866 0.0001
# 4 0.0001 0.0000 0.0002 25.7828 0.0001 -3.7468
# 5 -25.7447 -6.6654 -5.0866 0.0001 26.5921 0.0001
# 6 0.0000 0.0000 0.0001 -3.7468 0.0001 49.2286
#
#
#
# Elastic Compliance Matrix: (Units=1/GPa)
#
#
# Indices 1 2 3 4 5 6 
#
# 1 0.010389 -0.003419 0.004569 0.000000 0.010075 0.000000
# 2 -0.003419 0.010511 -0.003338 0.000000 -0.001314 0.000000
# 3 0.004569 -0.003338 0.048506 0.000000 0.012865 0.000000
# 4 0.000000 0.000000 0.000000 0.039219 0.000000 0.002985
# 5 0.010075 -0.001314 0.012865 0.000000 0.049491 0.000000
# 6 0.000000 0.000000 0.000000 0.002985 0.000000 0.020541
#
#
# Mechanical properties :
#
#
# Convention : Reuss Voigt Hill
#
# Bulk Modulus (GPa) = 15.37783 39.10388 27.24086
# Shear Modulus (GPa) = 24.42491 35.33705 29.88098
#
# Velocity S-wave (km/s) = 3.26072 3.92204 3.60657
# Velocity P-wave (km/s) = 4.56842 6.12633 5.40381
#
# Compressibility (1/GPa) = 0.06502866
#
# Stress axis : x y z
#
# Youngs Moduli (GPa) = 96.25483 95.14278 20.61604
#
# Poissons Ratio (x) = 0.32533 -0.09420
# Poissons Ratio (y) = 0.32913 0.06882
# Poissons Ratio (z) = -0.43980 0.31761
#
# Static dielectric constant tensor:
#      x y z
#    x 1.985610 0.000000 0.090180 
#    y 0.000000 1.869130 0.000000 
#    z 0.090180 0.000000 1.960850 
# 
# From -- ./inp_files/293120.got.cif
#   From: 2010.05.17/outbox.cif.g08.bks.cpg/sg15_147_cif.got.tgz:293120.got - 2010.06.03 18:47:42.
