data_PCOD9266151
_publ_section_title
;
Structure prediction by ZEFSAII (Michael W. Deem and Ramdas Pophale) SiO2 
 PCOD9266151
Probable space group: C 2/C
;
_chemical_formula_sum "Si O2"
_cell_formula_units_Z 52
_cell_length_a 12.009492
_cell_length_b 16.605330
_cell_length_c 28.760994
_cell_angle_alpha 90.000000
_cell_angle_beta 151.234451
_cell_angle_gamma 90.000000
_cell_volume 2760.105836
_symmetry_space_group_name_H-M "C 2/C"
_symmetry_group_IT_number 15
_symmetry_cell_setting 'monoclinic'
loop_
_space_group_symop_operation_xyz
x,y,z
-x,y,1/2-z
-x,-y,-z
x,-y,1/2+z
1/2+x,1/2+y,z
1/2-x,1/2+y,1/2-z
1/2-x,1/2-y,-z
1/2+x,1/2-y,1/2+z
loop_
_atom_site_type_symbol
_atom_site_label
_atom_site_fract_x
_atom_site_fract_y
_atom_site_fract_z
Si Si1 0.384198 0.516428 0.157445
Si Si2 0.422593 0.309090 0.956616
Si Si3 0.286134 0.982908 0.231748
Si Si4 0.980376 0.625853 0.970491
Si Si5 0.860180 0.400955 0.073767
Si Si6 0.060911 0.951756 0.474825
Si Si7 0.500000 0.880799 0.750000
O O1 0.500000 0.528751 0.250000
O O2 0.589269 0.510803 0.195289
O O3 0.237735 0.433367 0.103450
O O4 0.199974 0.584831 0.075963
O O5 0.437128 0.215456 0.972389
O O6 0.217607 0.328713 0.845498
O O7 0.659210 0.343586 0.020199
O O8 0.374480 0.363490 0.984496
O O9 0.430139 0.059588 0.266420
O O10 0.450226 0.919529 0.317576
O O11 0.157021 0.949425 0.138976
O O12 0.034922 0.631740 0.935391
O O13 0.752016 0.489617 0.022450
O O14 0.000000 0.000000 0.500000
#
# Coordination Sequence:
#
# PCOD9266151 Si02
#       7
#     8   8   8   8   8   8   4
#     4  11  24  44  66  87 120 177 223 255 315 395
#     4  11  23  37  63  98 129 161 208 275 331 369
#     4  12  21  38  68  94 122 172 217 257 318 398
#     4  11  24  43  64  88 130 167 218 268 314 389
#     4  11  20  38  66  91 128 169 207 259 322 387
#     4  10  19  37  60  94 125 162 206 257 324 376
#     4  12  20  36  66  98 124 156 214 272 322 382
#
# _framework density 18.839858
#
# number of rings (size 3 to 8) (size 9 to 14) (size 15 to 20)
#    0.000    0.923    7.692    1.385    1.077    0.000 
#    2.769    0.769    0.000    0.000    0.000    0.000 
#    0.000    0.000    0.000    0.000    0.000    0.000 
#
# Total GULP energy -145248.701920 kJ/mol
# GULP energy per Si atom -5586.488535 kJ/mol
# Density = 1.879698 g / cm^3
# Si number density = 18.839858 Si / 1000 Ang^3
#
#
#
# Elastic Constant Matrix: (Units=GPa)
#
#
# Indices 1 2 3 4 5 6 
#
# 1 62.4008 2.5464 23.6492 -0.0003 2.1873 -0.0001
# 2 2.5464 79.0956 41.1702 0.0006 -19.0704 -0.0002
# 3 23.6492 41.1702 158.2927 0.0012 -16.5309 0.0007
# 4 -0.0003 0.0006 0.0012 9.7686 -0.0001 -3.8090
# 5 2.1873 -19.0704 -16.5309 -0.0001 25.0003 -0.0001
# 6 -0.0001 -0.0002 0.0007 -3.8090 -0.0001 16.0995
#
#
#
# Elastic Compliance Matrix: (Units=1/GPa)
#
#
# Indices 1 2 3 4 5 6 
#
# 1 0.017263 0.000190 -0.002977 0.000001 -0.003334 0.000001
# 2 0.000190 0.016947 -0.003317 0.000000 0.010718 0.000000
# 3 -0.002977 -0.003317 0.007936 -0.000001 0.002978 -0.000001
# 4 0.000001 0.000000 -0.000001 0.112772 -0.000001 0.026681
# 5 -0.003334 0.010718 0.002978 -0.000001 0.050436 0.000000
# 6 0.000001 0.000000 -0.000001 0.026681 0.000000 0.068426
#
#
# Mechanical properties :
#
#
# Convention : Reuss Voigt Hill
#
# Bulk Modulus (GPa) = 33.40189 48.28009 40.84099
# Shear Modulus (GPa) = 16.89379 25.66856 21.28118
#
# Velocity S-wave (km/s) = 2.99775 3.69516 3.36457
# Velocity P-wave (km/s) = 5.45435 6.62479 6.06785
#
# Compressibility (1/GPa) = 0.02993843
#
# Stress axis : x y z
#
# Youngs Moduli (GPa) = 57.92859 59.00610 126.01173
#
# Poissons Ratio (x) = -0.01120 0.37509
# Poissons Ratio (y) = -0.01100 0.41797
# Poissons Ratio (z) = 0.17243 0.19572
#
# Static dielectric constant tensor:
#      x y z
#    x 1.666940 0.000000 0.009000 
#    y 0.000000 1.639420 0.000000 
#    z 0.009000 0.000000 1.672430 
# 
# From -- ./inp_files/293437.got.cif
#   From: 2010.05.17/outbox.cif.g08.bks.cpg/sg15_147_cif.got.tgz:293437.got - 2010.06.03 18:47:42.
