data_PCOD9266287
_publ_section_title
;
Structure prediction by ZEFSAII (Michael W. Deem and Ramdas Pophale) SiO2 
 PCOD9266287
Probable space group: C 2/C
;
_chemical_formula_sum "Si O2"
_cell_formula_units_Z 36
_cell_length_a 9.685709
_cell_length_b 20.736771
_cell_length_c 8.329956
_cell_angle_alpha 90.000000
_cell_angle_beta 89.035808
_cell_angle_gamma 90.000000
_cell_volume 1672.837512
_symmetry_space_group_name_H-M "C 2/C"
_symmetry_group_IT_number 15
_symmetry_cell_setting 'monoclinic'
loop_
_space_group_symop_operation_xyz
x,y,z
-x,y,1/2-z
-x,-y,-z
x,-y,1/2+z
1/2+x,1/2+y,z
1/2-x,1/2+y,1/2-z
1/2-x,1/2-y,-z
1/2+x,1/2-y,1/2+z
loop_
_atom_site_type_symbol
_atom_site_label
_atom_site_fract_x
_atom_site_fract_y
_atom_site_fract_z
Si Si1 0.353773 0.829242 0.346990
Si Si2 0.661364 0.036218 0.770975
Si Si3 0.745866 0.588597 0.390457
Si Si4 0.000000 0.143454 0.250000
Si Si5 0.718709 0.793598 0.804656
O O1 0.500000 0.826667 0.250000
O O2 0.305724 0.903514 0.345584
O O3 0.363354 0.806103 0.530841
O O4 0.240391 0.781654 0.267279
O O5 0.500000 0.022793 0.750000
O O6 0.734455 0.969164 0.735486
O O7 0.695309 0.063287 0.945266
O O8 0.583391 0.604620 0.383644
O O9 0.820183 0.654853 0.331207
O O10 0.878751 0.184868 0.331910
#
# Coordination Sequence:
#
# PCOD9266287 Si02
#       5
#     8   8   8   4   8
#     4  10  19  37  62  91 124 159 203 252 304 365
#     4  11  23  37  60  91 125 163 206 252 305 367
#     4  10  21  40  60  90 123 164 202 255 302 364
#     4   8  20  40  64  86 122 162 200 248 302 368
#     4   9  19  39  63  88 125 160 202 252 304 366
#
# _framework density 21.520320000000002
#
# number of rings (size 3 to 8) (size 9 to 14) (size 15 to 20)
#    1.333    0.889    1.111    2.000    0.000    3.556 
#    0.000    0.000    0.000   10.667    0.000    0.000 
#    0.000    0.000    0.000    0.000    0.000    0.000 
#
# Total GULP energy -100246.027648 kJ/mol
# GULP energy per Si atom -5569.223758 kJ/mol
# Density = 2.147134 g / cm^3
# Si number density = 21.520320 Si / 1000 Ang^3
#
#
#
# Elastic Constant Matrix: (Units=GPa)
#
#
# Indices 1 2 3 4 5 6 
#
# 1 70.0148 -0.7967 20.9018 0.0000 -0.3487 0.0000
# 2 -0.7967 69.9716 -31.1097 0.0000 -9.0188 0.0000
# 3 20.9018 -31.1097 35.5233 0.0000 -0.1558 0.0000
# 4 0.0000 0.0000 0.0000 -5.1704 0.0000 -3.2401
# 5 -0.3487 -9.0188 -0.1558 0.0000 27.0516 0.0000
# 6 0.0000 0.0000 0.0000 -3.2401 0.0000 17.7923
#
#
#
# Elastic Compliance Matrix: (Units=1/GPa)
#
#
# Indices 1 2 3 4 5 6 
#
# 1 0.019978 -0.008783 -0.019458 0.000000 -0.002783 0.000000
# 2 -0.008783 0.029095 0.030691 0.000000 0.009764 0.000000
# 3 -0.019458 0.030691 0.066523 0.000000 0.010364 0.000000
# 4 0.000000 0.000000 0.000000 -0.173596 0.000000 -0.031613
# 5 -0.002783 0.009764 0.010364 0.000000 0.040245 0.000000
# 6 0.000000 0.000000 0.000000 -0.031613 0.000000 0.050447
#
#
# Mechanical properties :
#
#
# Convention : Reuss Voigt Hill
#
# Bulk Modulus (GPa) = 8.29908 17.05562 12.67735
# Shear Modulus (GPa) = 73.57494 20.36897 46.97196
#
# Velocity S-wave (km/s) = 5.85344 3.07986 4.67698
# Velocity P-wave (km/s) = 7.03907 4.53762 5.92193
#
# Compressibility (1/GPa) = 0.12049529
#
# Stress axis : x y z
#
# Youngs Moduli (GPa) = 50.05526 34.36995 15.03243
#
# Poissons Ratio (x) = 0.30185 0.29251
# Poissons Ratio (y) = 0.43961 -0.46136
# Poissons Ratio (z) = 0.97400 -1.05484
#
# Static dielectric constant tensor:
#      x y z
#    x 1.811550 0.000000 0.033520 
#    y 0.000000 1.875370 0.000000 
#    z 0.033520 0.000000 1.810710 
# 
# From -- ./inp_files/29800.got.cif
#   From: 2010.05.17/outbox.cif.g08.bks.cpg/sg15_15_cif.got.tgz:29800.got - 2010.06.03 18:47:42.
