data_PCOD9266303
_publ_section_title
;
Structure prediction by ZEFSAII (Michael W. Deem and Ramdas Pophale) SiO2 
 PCOD9266303
Probable space group: C 2/C
;
_chemical_formula_sum "Si O2"
_cell_formula_units_Z 64
_cell_length_a 28.798762
_cell_length_b 7.707705
_cell_length_c 14.713542
_cell_angle_alpha 90.000000
_cell_angle_beta 62.763637
_cell_angle_gamma 90.000000
_cell_volume 2903.885532
_symmetry_space_group_name_H-M "C 2/C"
_symmetry_group_IT_number 15
_symmetry_cell_setting 'monoclinic'
loop_
_space_group_symop_operation_xyz
x,y,z
-x,y,1/2-z
-x,-y,-z
x,-y,1/2+z
1/2+x,1/2+y,z
1/2-x,1/2+y,1/2-z
1/2-x,1/2-y,-z
1/2+x,1/2-y,1/2+z
loop_
_atom_site_type_symbol
_atom_site_label
_atom_site_fract_x
_atom_site_fract_y
_atom_site_fract_z
Si Si1 0.452792 0.362846 0.031918
Si Si2 0.337618 0.525869 0.696453
Si Si3 0.643283 0.670361 0.152556
Si Si4 0.082785 0.190795 0.673623
Si Si5 0.214891 0.005232 0.454356
Si Si6 0.812642 0.297049 0.872710
Si Si7 0.509231 0.172681 0.117573
Si Si8 0.451727 0.802700 0.345616
O O1 0.398320 0.420803 0.126131
O O2 0.481235 0.191186 0.047054
O O3 0.500000 0.500000 0.000000
O O4 0.438383 0.313759 0.943311
O O5 0.337211 0.355842 0.761978
O O6 0.310037 0.501382 0.623716
O O7 0.310254 0.674782 0.784353
O O8 0.608377 0.494613 0.167434
O O9 0.599900 0.812448 0.169301
O O10 0.690133 0.648175 0.037824
O O11 0.126899 0.326522 0.662998
O O12 0.062092 0.218681 0.589910
O O13 0.034866 0.232604 0.782091
O O14 0.201254 0.179255 0.525631
O O15 0.277221 0.033363 0.393505
O O16 0.525024 0.984569 0.139405
O O17 0.500000 0.716415 0.250000
#
# Coordination Sequence:
#
# PCOD9266303 Si02
#       8
#     8   8   8   8   8   8   8   8
#     4  12  23  37  64  92 123 171 223 263 308 397
#     4  10  19  37  62  94 123 157 224 276 319 379
#     4  10  20  36  65  89 123 165 220 269 313 390
#     4   9  18  36  60  83 118 162 208 251 308 385
#     4   9  18  37  63  92 113 158 211 277 320 385
#     4   9  19  36  67  84 120 160 214 267 328 378
#     4  11  21  38  57  87 131 169 200 259 330 379
#     4  12  24  37  55  89 133 171 202 264 329 383
#
# _framework density 22.039435999999998
#
# number of rings (size 3 to 8) (size 9 to 14) (size 15 to 20)
#    0.000    2.000    5.000    1.875    3.500    0.000 
#    0.000    1.250   11.000    3.750    0.000    0.000 
#    0.000    0.000    0.000    0.000    0.000    0.000 
#
# Total GULP energy -178235.252331 kJ/mol
# GULP energy per Si atom -5569.851635 kJ/mol
# Density = 2.198927 g / cm^3
# Si number density = 22.039436 Si / 1000 Ang^3
#
#
#
# Elastic Constant Matrix: (Units=GPa)
#
#
# Indices 1 2 3 4 5 6 
#
# 1 125.7395 22.0944 32.3964 0.0000 6.0505 0.0000
# 2 22.0944 59.4178 18.4659 0.0000 -3.2110 0.0000
# 3 32.3964 18.4659 84.3399 0.0000 23.0242 0.0000
# 4 0.0000 0.0000 0.0000 -5.5261 0.0000 14.8301
# 5 6.0505 -3.2110 23.0242 0.0000 38.6963 0.0000
# 6 0.0000 0.0000 0.0000 14.8301 0.0000 28.9758
#
#
#
# Elastic Compliance Matrix: (Units=1/GPa)
#
#
# Indices 1 2 3 4 5 6 
#
# 1 0.009156 -0.002456 -0.003024 0.000000 0.000164 0.000000
# 2 -0.002456 0.019430 -0.004603 0.000000 0.004735 0.000000
# 3 -0.003024 -0.004603 0.016717 0.000000 -0.009856 0.000000
# 4 0.000000 0.000000 0.000000 -0.076241 0.000000 0.039021
# 5 0.000164 0.004735 -0.009856 0.000000 0.032074 0.000000
# 6 0.000000 0.000000 0.000000 0.039021 0.000000 0.014540
#
#
# Mechanical properties :
#
#
# Convention : Reuss Voigt Hill
#
# Bulk Modulus (GPa) = 39.78397 46.15674 42.97035
# Shear Modulus (GPa) = 113.07127 25.53190 69.30159
#
# Velocity S-wave (km/s) = 7.17046 3.40731 5.61361
# Velocity P-wave (km/s) = 9.30830 6.03887 7.84577
#
# Compressibility (1/GPa) = 0.02513575
#
# Stress axis : x y z
#
# Youngs Moduli (GPa) = 109.22162 51.46741 59.82040
#
# Poissons Ratio (x) = 0.12640 0.18089
# Poissons Ratio (y) = 0.26824 0.27538
# Poissons Ratio (z) = 0.33027 0.23693
#
# Static dielectric constant tensor:
#      x y z
#    x 1.898330 0.000000 -0.012170 
#    y 0.000000 1.893920 0.000000 
#    z -0.012170 0.000000 2.046380 
# 
# From -- ./inp_files/180805.got.cif
#   From: 2010.05.17/outbox.cif.g08.bks.cpg/sg15_91_cif.got.tgz:180805.got - 2010.06.03 18:47:42.
