data_PCOD9266544
_publ_section_title
;
Structure prediction by ZEFSAII (Michael W. Deem and Ramdas Pophale) SiO2 
 PCOD9266544
Probable space group: C 2/C
;
_chemical_formula_sum "Si O2"
_cell_formula_units_Z 56
_cell_length_a 18.637793
_cell_length_b 10.686531
_cell_length_c 12.923358
_cell_angle_alpha 90.000000
_cell_angle_beta 70.795537
_cell_angle_gamma 90.000000
_cell_volume 2430.748010
_symmetry_space_group_name_H-M "C 2/C"
_symmetry_group_IT_number 15
_symmetry_cell_setting 'monoclinic'
loop_
_space_group_symop_operation_xyz
x,y,z
-x,y,1/2-z
-x,-y,-z
x,-y,1/2+z
1/2+x,1/2+y,z
1/2-x,1/2+y,1/2-z
1/2-x,1/2-y,-z
1/2+x,1/2-y,1/2+z
loop_
_atom_site_type_symbol
_atom_site_label
_atom_site_fract_x
_atom_site_fract_y
_atom_site_fract_z
Si Si1 0.447392 0.653307 0.599158
Si Si2 0.588899 0.365091 0.895794
Si Si3 0.350221 0.877371 0.905705
Si Si4 0.000000 0.144069 0.250000
Si Si5 0.268008 0.799958 0.137395
Si Si6 0.861071 0.836942 0.941160
Si Si7 0.776658 0.613177 0.862489
Si Si8 0.500000 0.812601 0.750000
O O1 0.417713 0.511912 0.627908
O O2 0.535195 0.647663 0.520636
O O3 0.401881 0.714400 0.525510
O O4 0.446411 0.729178 0.703546
O O5 0.546016 0.292601 0.822244
O O6 0.672387 0.313889 0.871612
O O7 0.305696 0.754236 0.885168
O O8 0.441092 0.878895 0.854476
O O9 0.326055 0.989831 0.842935
O O10 0.315833 0.889959 0.037726
O O11 0.927494 0.088963 0.348211
O O12 0.251059 0.856037 0.258224
O O13 0.823984 0.730063 0.887691
O O14 0.792102 0.911790 0.024467
#
# Coordination Sequence:
#
# PCOD9266544 Si02
#       8
#     8   8   8   4   8   8   8   4
#     4  10  21  36  63  95 135 170 218 276 335 387
#     4  10  19  38  64  98 129 170 217 276 343 380
#     4  11  27  44  68  97 134 180 223 270 337 399
#     4  10  19  37  66  98 130 162 209 289 330 382
#     4  11  23  47  67  94 135 174 225 285 323 399
#     4  10  22  40  65  97 129 165 229 278 324 399
#     4  11  24  45  67  96 131 182 221 269 335 405
#     4  12  23  45  60 100 142 176 221 275 324 412
#
# _framework density 23.038174999999999
#
# number of rings (size 3 to 8) (size 9 to 14) (size 15 to 20)
#    0.000    1.429    2.857    2.143    0.000    4.000 
#    7.714    1.429    0.000    0.000    0.000    0.000 
#    0.000    0.000    0.000    0.000    0.000    0.000 
#
# Total GULP energy -156142.926011 kJ/mol
# GULP energy per Si atom -5576.533072 kJ/mol
# Density = 2.298574 g / cm^3
# Si number density = 23.038175 Si / 1000 Ang^3
#
#
#
# Elastic Constant Matrix: (Units=GPa)
#
#
# Indices 1 2 3 4 5 6 
#
# 1 90.0466 -2.1847 33.6603 0.0000 -25.0468 0.0000
# 2 -2.1847 16.4349 11.6700 0.0000 -9.0925 0.0000
# 3 33.6603 11.6700 126.3670 0.0000 -8.2991 0.0000
# 4 0.0000 0.0000 0.0000 8.9270 0.0000 16.0333
# 5 -25.0468 -9.0925 -8.2991 0.0000 56.0323 0.0000
# 6 0.0000 0.0000 0.0000 16.0333 0.0000 10.4874
#
#
#
# Elastic Compliance Matrix: (Units=1/GPa)
#
#
# Indices 1 2 3 4 5 6 
#
# 1 0.015085 0.009324 -0.004380 0.000000 0.007607 0.000000
# 2 0.009324 0.076645 -0.008554 0.000000 0.015338 0.000000
# 3 -0.004380 -0.008554 0.009745 0.000000 -0.001902 0.000000
# 4 0.000000 0.000000 0.000000 -0.064164 0.000000 0.098095
# 5 0.007607 0.015338 -0.001902 0.000000 0.023454 0.000000
# 6 0.000000 0.000000 0.000000 0.098095 0.000000 -0.054617
#
#
# Mechanical properties :
#
#
# Convention : Reuss Voigt Hill
#
# Bulk Modulus (GPa) = 10.60958 35.45998 23.03478
# Shear Modulus (GPa) = 111.64014 27.73621 69.68817
#
# Velocity S-wave (km/s) = 6.96878 3.47352 5.50588
# Velocity P-wave (km/s) = 8.32870 5.61359 7.10210
#
# Compressibility (1/GPa) = 0.09425448
#
# Stress axis : x y z
#
# Youngs Moduli (GPa) = 66.29253 13.04711 102.61575
#
# Poissons Ratio (x) = -0.12165 0.44941
# Poissons Ratio (y) = -0.61809 0.87782
# Poissons Ratio (z) = 0.29033 0.11161
#
# Static dielectric constant tensor:
#      x y z
#    x 1.908000 0.000000 -0.030230 
#    y 0.000000 1.832750 0.000000 
#    z -0.030230 0.000000 1.915600 
# 
# From -- ./inp_files/111623.got.cif
#   From: 2010.05.17/outbox.cif.g08.bks.cpg/sg15_56_cif.got.tgz:111623.got - 2010.06.03 18:47:42.
