data_PCOD9266339
_publ_section_title
;
Structure prediction by ZEFSAII (Michael W. Deem and Ramdas Pophale) SiO2 
 PCOD9266339
Probable space group: C 2/C
;
_chemical_formula_sum "Si O2"
_cell_formula_units_Z 60
_cell_length_a 24.671118
_cell_length_b 9.067821
_cell_length_c 31.870914
_cell_angle_alpha 90.000000
_cell_angle_beta 24.414856
_cell_angle_gamma 90.000000
_cell_volume 2947.096073
_symmetry_space_group_name_H-M "C 2/C"
_symmetry_group_IT_number 15
_symmetry_cell_setting 'monoclinic'
loop_
_space_group_symop_operation_xyz
x,y,z
-x,y,1/2-z
-x,-y,-z
x,-y,1/2+z
1/2+x,1/2+y,z
1/2-x,1/2+y,1/2-z
1/2-x,1/2-y,-z
1/2+x,1/2-y,1/2+z
loop_
_atom_site_type_symbol
_atom_site_label
_atom_site_fract_x
_atom_site_fract_y
_atom_site_fract_z
Si Si1 0.000000 0.988978 0.750000
Si Si2 0.851855 0.033151 0.591679
Si Si3 0.937730 0.924186 0.202192
Si Si4 0.752801 0.325857 0.697404
Si Si5 0.175358 0.937323 0.482062
Si Si6 0.126121 0.723344 0.616925
Si Si7 0.993953 0.330424 0.382539
Si Si8 0.117185 0.621396 0.307293
O O1 0.895592 0.869195 0.840902
O O2 0.953920 0.077375 0.741282
O O3 0.820254 0.206868 0.619633
O O4 0.833564 0.988112 0.556417
O O5 0.746723 0.949024 0.694545
O O6 0.000000 0.000000 0.500000
O O7 0.913807 0.770747 0.195585
O O8 0.817610 0.034206 0.274533
O O9 0.073819 0.989370 0.086430
O O10 0.628627 0.238144 0.804550
O O11 0.849946 0.359913 0.666951
O O12 0.325516 0.916112 0.390510
O O13 0.118346 0.770015 0.518493
O O14 0.250000 0.750000 0.500000
O O15 0.010403 0.694854 0.665216
O O16 0.999615 0.503353 0.385854
#
# Coordination Sequence:
#
# PCOD9266339 Si02
#       8
#     4   8   8   8   8   8   8   8
#     4  12  20  38  64  90 130 166 216 252 328 374
#     4  11  22  38  62  91 121 160 215 269 311 371
#     4  11  22  40  62  92 129 168 201 262 325 392
#     4  10  19  39  62  84 117 170 209 248 313 381
#     4  10  20  39  64  90 117 160 217 262 304 368
#     4  10  19  37  63  89 114 157 221 260 288 373
#     4   9  19  38  59  87 113 159 205 253 300 364
#     4  11  23  39  60  92 127 161 203 262 333 379
#
# _framework density 20.359024000000002
#
# number of rings (size 3 to 8) (size 9 to 14) (size 15 to 20)
#    0.000    1.600    4.000    4.800    1.867    0.000 
#    2.400   10.000    0.000    0.000    0.000    0.000 
#    0.000    0.000    0.000    0.000    0.000    0.000 
#
# Total GULP energy -167204.629825 kJ/mol
# GULP energy per Si atom -5573.487661 kJ/mol
# Density = 2.031269 g / cm^3
# Si number density = 20.359024 Si / 1000 Ang^3
#
#
#
# Elastic Constant Matrix: (Units=GPa)
#
#
# Indices 1 2 3 4 5 6 
#
# 1 99.8081 17.4795 -5.5446 0.0026 16.3363 -0.0027
# 2 17.4795 95.5837 0.9084 -0.0006 -6.2387 0.0000
# 3 -5.5446 0.9084 42.7609 -0.0038 8.7383 0.0008
# 4 0.0026 -0.0006 -0.0038 15.9402 0.0004 2.5978
# 5 16.3363 -6.2387 8.7383 0.0004 30.5761 -0.0001
# 6 -0.0027 0.0000 0.0008 2.5978 -0.0001 25.4658
#
#
#
# Elastic Compliance Matrix: (Units=1/GPa)
#
#
# Indices 1 2 3 4 5 6 
#
# 1 0.011965 -0.002732 0.003218 -0.000001 -0.007869 0.000001
# 2 -0.002732 0.011247 -0.001445 0.000000 0.004168 0.000000
# 3 0.003218 -0.001445 0.025749 0.000006 -0.009373 -0.000001
# 4 -0.000001 0.000000 0.000006 0.063795 -0.000002 -0.006508
# 5 -0.007869 0.004168 -0.009373 -0.000002 0.040439 0.000000
# 6 0.000001 0.000000 -0.000001 -0.006508 0.000000 0.039932
#
#
# Mechanical properties :
#
#
# Convention : Reuss Voigt Hill
#
# Bulk Modulus (GPa) = 21.25758 29.31548 25.28653
# Shear Modulus (GPa) = 23.72744 29.41706 26.57225
#
# Velocity S-wave (km/s) = 3.41757 3.80533 3.61665
# Velocity P-wave (km/s) = 5.10266 5.80843 5.46694
#
# Compressibility (1/GPa) = 0.04704205
#
# Stress axis : x y z
#
# Youngs Moduli (GPa) = 83.58048 88.90930 38.83636
#
# Poissons Ratio (x) = 0.24292 -0.12496
# Poissons Ratio (y) = 0.22836 0.05611
# Poissons Ratio (z) = -0.26893 0.12846
#
# Static dielectric constant tensor:
#      x y z
#    x 1.825720 0.000000 0.011910 
#    y 0.000000 1.745330 0.000000 
#    z 0.011910 0.000000 1.711800 
# 
# From -- ./inp_files/318488.got.cif
#   From: 2010.05.17/outbox.cif.g08.bks.cpg/sg15_160_cif.got.tgz:318488.got - 2010.06.03 18:47:42.
