data_PCOD9266959
_publ_section_title
;
Structure prediction by ZEFSAII (Michael W. Deem and Ramdas Pophale) SiO2 
 PCOD9266959
Probable space group: C 2/C
;
_chemical_formula_sum "Si O2"
_cell_formula_units_Z 32
_cell_length_a 18.471330
_cell_length_b 5.223617
_cell_length_c 14.743958
_cell_angle_alpha 90.000000
_cell_angle_beta 118.090848
_cell_angle_gamma 90.000000
_cell_volume 1255.022933
_symmetry_space_group_name_H-M "C 2/C"
_symmetry_group_IT_number 15
_symmetry_cell_setting 'monoclinic'
loop_
_space_group_symop_operation_xyz
x,y,z
-x,y,1/2-z
-x,-y,-z
x,-y,1/2+z
1/2+x,1/2+y,z
1/2-x,1/2+y,1/2-z
1/2-x,1/2-y,-z
1/2+x,1/2-y,1/2+z
loop_
_atom_site_type_symbol
_atom_site_label
_atom_site_fract_x
_atom_site_fract_y
_atom_site_fract_z
Si Si1 0.815540 0.260562 0.956467
Si Si2 0.063740 0.664998 0.211671
Si Si3 0.998013 0.822340 0.909189
Si Si4 0.247185 0.733726 0.387569
O O1 0.786756 0.500966 0.881365
O O2 0.804214 0.001592 0.893777
O O3 0.750000 0.250000 0.000000
O O4 0.906958 0.259748 0.048711
O O5 0.050931 0.447166 0.126415
O O6 0.155805 0.678328 0.302318
O O7 0.000000 0.569970 0.250000
O O8 0.037819 0.958996 0.177649
O O9 0.000000 0.000000 0.000000
O O10 0.250000 0.750000 0.500000
#
# Coordination Sequence:
#
# PCOD9266959 Si02
#       4
#     8   8   8   8
#     4  10  19  38  63  91 128 176 223 274 337 414
#     4  12  23  42  71 103 135 187 247 293 349 438
#     4  12  26  44  67 102 146 186 231 303 372 420
#     4  10  20  36  62  96 128 165 224 288 332 394
#
# _framework density 25.497541999999999
#
# number of rings (size 3 to 8) (size 9 to 14) (size 15 to 20)
#    0.000    1.000    0.000   10.500    0.000    0.000 
#    0.000    5.000    0.000    0.000    0.000    0.000 
#    0.000    0.000    0.000    0.000    0.000    0.000 
#
# Total GULP energy -89464.557457 kJ/mol
# GULP energy per Si atom -5591.534841 kJ/mol
# Density = 2.543951 g / cm^3
# Si number density = 25.497542 Si / 1000 Ang^3
#
#
#
# Elastic Constant Matrix: (Units=GPa)
#
#
# Indices 1 2 3 4 5 6 
#
# 1 120.5435 19.7958 59.3906 0.0000 43.7951 0.0000
# 2 19.7958 246.0138 52.9918 0.0001 52.7838 0.0000
# 3 59.3906 52.9918 139.7902 0.0000 67.4264 0.0000
# 4 0.0000 0.0001 0.0000 49.8895 0.0000 18.7073
# 5 43.7951 52.7838 67.4264 0.0000 67.1080 0.0000
# 6 0.0000 0.0000 0.0000 18.7073 0.0000 19.2443
#
#
#
# Elastic Compliance Matrix: (Units=1/GPa)
#
#
# Indices 1 2 3 4 5 6 
#
# 1 0.011412 0.000817 -0.002437 0.000000 -0.005642 0.000000
# 2 0.000817 0.004949 -0.000172 0.000000 -0.004253 0.000000
# 3 -0.002437 -0.000172 0.014401 0.000000 -0.012744 0.000000
# 4 0.000000 0.000000 0.000000 0.031542 0.000000 -0.030662
# 5 -0.005642 -0.004253 -0.012744 0.000000 0.034733 0.000000
# 6 0.000000 0.000000 0.000000 -0.030662 0.000000 0.081770
#
#
# Mechanical properties :
#
#
# Convention : Reuss Voigt Hill
#
# Bulk Modulus (GPa) = 36.79398 85.63377 61.21388
# Shear Modulus (GPa) = 26.11679 52.19297 39.15488
#
# Velocity S-wave (km/s) = 3.20392 4.52927 3.92297
# Velocity P-wave (km/s) = 5.30552 7.81091 6.67678
#
# Compressibility (1/GPa) = 0.02717836
#
# Stress axis : x y z
#
# Youngs Moduli (GPa) = 87.62757 202.07901 69.44037
#
# Poissons Ratio (x) = -0.16512 0.16922
# Poissons Ratio (y) = -0.07160 0.01192
# Poissons Ratio (z) = 0.21355 0.03468
#
# Static dielectric constant tensor:
#      x y z
#    x 2.085200 0.000000 -0.201560 
#    y 0.000000 1.638480 0.000000 
#    z -0.201560 0.000000 2.090290 
# 
# From -- ./inp_files/164957.got.cif
#   From: 2010.05.17/outbox.cif.g08.bks.cpg/sg15_83_cif.got.tgz:164957.got - 2010.06.03 18:47:42.
