data_PCOD9266415
_publ_section_title
;
Structure prediction by ZEFSAII (Michael W. Deem and Ramdas Pophale) SiO2 
 PCOD9266415
Probable space group: C 2/C
;
_chemical_formula_sum "Si O2"
_cell_formula_units_Z 56
_cell_length_a 23.802183
_cell_length_b 5.225705
_cell_length_c 18.292104
_cell_angle_alpha 90.000000
_cell_angle_beta 85.375116
_cell_angle_gamma 90.000000
_cell_volume 2267.821932
_symmetry_space_group_name_H-M "C 2/C"
_symmetry_group_IT_number 15
_symmetry_cell_setting 'monoclinic'
loop_
_space_group_symop_operation_xyz
x,y,z
-x,y,1/2-z
-x,-y,-z
x,-y,1/2+z
1/2+x,1/2+y,z
1/2-x,1/2+y,1/2-z
1/2-x,1/2-y,-z
1/2+x,1/2-y,1/2+z
loop_
_atom_site_type_symbol
_atom_site_label
_atom_site_fract_x
_atom_site_fract_y
_atom_site_fract_z
Si Si1 0.980961 0.642433 0.895795
Si Si2 0.084862 0.591890 0.216246
Si Si3 0.579118 0.143746 0.977411
Si Si4 0.863902 0.677034 0.139026
Si Si5 0.304766 0.809993 0.333646
Si Si6 0.623766 0.480106 0.087017
Si Si7 0.790076 0.828407 0.675896
O O1 0.969747 0.526222 0.817328
O O2 0.041322 0.750090 0.914252
O O3 0.931227 0.842224 0.915170
O O4 0.964769 0.412773 0.952740
O O5 0.090389 0.667036 0.299890
O O6 0.133206 0.380089 0.201455
O O7 0.108432 0.813676 0.160564
O O8 0.606143 0.890000 0.939912
O O9 0.625674 0.309953 0.013825
O O10 0.833357 0.946347 0.149967
O O11 0.818626 0.442254 0.152520
O O12 0.319470 0.637227 0.401542
O O13 0.268313 0.064417 0.351695
O O14 0.279855 0.669804 0.264973
#
# Coordination Sequence:
#
# PCOD9266415 Si02
#       7
#     8   8   8   8   8   8   8
#     4   9  20  39  64  88 117 170 227 250 311 387
#     4   9  19  36  61  92 119 157 212 272 307 372
#     4  10  22  39  62  87 129 171 210 262 320 382
#     4  11  24  40  61  96 135 159 206 269 331 360
#     4  10  20  37  64  91 123 161 216 256 308 378
#     4  10  19  37  64  91 119 165 221 259 302 385
#     4  11  23  38  64  96 125 164 211 263 318 376
#
# _framework density 24.693297999999999
#
# number of rings (size 3 to 8) (size 9 to 14) (size 15 to 20)
#    0.000    2.000    1.429    2.143    4.000    0.571 
#    0.000    1.429    0.000    0.000    0.000    0.000 
#    0.000    0.000    0.000    0.000    0.000    0.000 
#
# Total GULP energy -156298.928334 kJ/mol
# GULP energy per Si atom -5582.104583 kJ/mol
# Density = 2.463709 g / cm^3
# Si number density = 24.693298 Si / 1000 Ang^3
#
#
#
# Elastic Constant Matrix: (Units=GPa)
#
#
# Indices 1 2 3 4 5 6 
#
# 1 63.9914 17.8039 32.2133 0.0000 8.7488 0.0000
# 2 17.8039 83.0253 26.4885 0.0000 11.8674 0.0000
# 3 32.2133 26.4885 91.3351 0.0000 4.2766 0.0000
# 4 0.0000 0.0000 0.0000 34.5301 0.0000 5.9382
# 5 8.7488 11.8674 4.2766 0.0000 33.7341 0.0000
# 6 0.0000 0.0000 0.0000 5.9382 0.0000 18.1902
#
#
#
# Elastic Compliance Matrix: (Units=1/GPa)
#
#
# Indices 1 2 3 4 5 6 
#
# 1 0.019787 -0.001695 -0.006312 0.000000 -0.003735 0.000000
# 2 -0.001695 0.014039 -0.003282 0.000000 -0.004083 0.000000
# 3 -0.006312 -0.003282 0.014080 0.000000 0.001007 0.000000
# 4 0.000000 0.000000 0.000000 0.030683 0.000000 -0.010016
# 5 -0.003735 -0.004083 0.001007 0.000000 0.031921 0.000000
# 6 0.000000 0.000000 0.000000 -0.010016 0.000000 0.058244
#
#
# Mechanical properties :
#
#
# Convention : Reuss Voigt Hill
#
# Bulk Modulus (GPa) = 39.48542 43.48480 41.48511
# Shear Modulus (GPa) = 25.02808 28.08063 26.55435
#
# Velocity S-wave (km/s) = 3.18710 3.37586 3.28284
# Velocity P-wave (km/s) = 5.43769 5.73092 5.58623
#
# Compressibility (1/GPa) = 0.02532580
#
# Stress axis : x y z
#
# Youngs Moduli (GPa) = 50.53825 71.23071 71.02403
#
# Poissons Ratio (x) = 0.12076 0.44832
# Poissons Ratio (y) = 0.08568 0.23313
# Poissons Ratio (z) = 0.31901 0.23380
#
# Static dielectric constant tensor:
#      x y z
#    x 2.021520 0.000000 0.069110 
#    y 0.000000 2.050070 0.000000 
#    z 0.069110 0.000000 1.985830 
# 
# From -- ./inp_files/254079.got.cif
#   From: 2010.05.17/outbox.cif.g08.bks.cpg/sg15_128_cif.got.tgz:254079.got - 2010.06.03 18:47:42.
