data_PCOD9266038
_publ_section_title
;
Structure prediction by ZEFSAII (Michael W. Deem and Ramdas Pophale) SiO2 
 PCOD9266038
Probable space group: C 2/C
;
_chemical_formula_sum "Si O2"
_cell_formula_units_Z 44
_cell_length_a 9.552587
_cell_length_b 17.732299
_cell_length_c 15.052238
_cell_angle_alpha 90.000000
_cell_angle_beta 114.811269
_cell_angle_gamma 90.000000
_cell_volume 2314.339402
_symmetry_space_group_name_H-M "C 2/C"
_symmetry_group_IT_number 15
_symmetry_cell_setting 'monoclinic'
loop_
_space_group_symop_operation_xyz
x,y,z
-x,y,1/2-z
-x,-y,-z
x,-y,1/2+z
1/2+x,1/2+y,z
1/2-x,1/2+y,1/2-z
1/2-x,1/2-y,-z
1/2+x,1/2-y,1/2+z
loop_
_atom_site_type_symbol
_atom_site_label
_atom_site_fract_x
_atom_site_fract_y
_atom_site_fract_z
Si Si1 0.500000 0.007900 0.750000
Si Si2 0.142573 0.025483 0.401569
Si Si3 0.671015 0.792202 0.836147
Si Si4 0.725375 0.856885 0.046961
Si Si5 0.052307 0.571065 0.952479
Si Si6 0.811028 0.077476 0.289726
O O1 0.502094 0.056041 0.839430
O O2 0.344659 0.958602 0.712104
O O3 0.264416 0.072139 0.492441
O O4 0.176006 0.052803 0.309464
O O5 0.966030 0.045004 0.375227
O O6 0.186573 0.937083 0.421368
O O7 0.500000 0.801671 0.750000
O O8 0.695132 0.705484 0.869996
O O9 0.787772 0.833251 0.798753
O O10 0.708463 0.833770 0.939794
O O11 0.549273 0.863020 0.034347
O O12 0.000000 0.500000 0.000000
#
# Coordination Sequence:
#
# PCOD9266038 Si02
#       6
#     4   8   8   8   8   8
#     4  12  20  32  62  88 114 160 206 248 324 358
#     4  10  22  39  65  88 130 158 213 268 312 359
#     4  11  23  37  63  89 127 168 212 251 326 385
#     4  10  22  41  60  92 124 168 207 269 310 379
#     4  10  19  37  59  88 121 154 204 270 304 365
#     4  11  21  37  61  95 118 167 210 258 312 378
#
# _framework density 19.011904000000001
#
# number of rings (size 3 to 8) (size 9 to 14) (size 15 to 20)
#    0.000    1.455    4.545    3.273    2.545    2.909 
#    0.000    4.545    0.000    0.000    0.000    0.000 
#    0.000    0.000    0.000    0.000    0.000    0.000 
#
# Total GULP energy -122658.653707 kJ/mol
# GULP energy per Si atom -5575.393350 kJ/mol
# Density = 1.896863 g / cm^3
# Si number density = 19.011904 Si / 1000 Ang^3
#
#
#
# Elastic Constant Matrix: (Units=GPa)
#
#
# Indices 1 2 3 4 5 6 
#
# 1 104.6263 34.2160 11.7232 0.0000 31.9316 0.0000
# 2 34.2160 80.0537 31.4197 0.0000 15.5057 0.0000
# 3 11.7232 31.4197 69.2881 0.0000 14.8773 0.0000
# 4 0.0000 0.0000 0.0000 23.9320 0.0000 5.5236
# 5 31.9316 15.5057 14.8773 0.0000 42.2866 0.0000
# 6 0.0000 0.0000 0.0000 5.5236 0.0000 21.7271
#
#
#
# Elastic Compliance Matrix: (Units=1/GPa)
#
#
# Indices 1 2 3 4 5 6 
#
# 1 0.013752 -0.004806 0.001843 0.000000 -0.009271 0.000000
# 2 -0.004806 0.017343 -0.006993 0.000000 -0.000270 0.000000
# 3 0.001843 -0.006993 0.018432 0.000000 -0.005312 0.000000
# 4 0.000000 0.000000 0.000000 0.044390 0.000000 -0.011285
# 5 -0.009271 -0.000270 -0.005312 0.000000 0.032617 0.000000
# 6 0.000000 0.000000 0.000000 -0.011285 0.000000 0.048894
#
#
# Mechanical properties :
#
#
# Convention : Reuss Voigt Hill
#
# Bulk Modulus (GPa) = 33.76566 45.40954 39.58760
# Shear Modulus (GPa) = 24.36504 29.36308 26.86406
#
# Velocity S-wave (km/s) = 3.58378 3.93422 3.76308
# Velocity P-wave (km/s) = 5.90961 6.67639 6.30467
#
# Compressibility (1/GPa) = 0.02961589
#
# Stress axis : x y z
#
# Youngs Moduli (GPa) = 72.71473 57.66145 54.25202
#
# Poissons Ratio (x) = 0.27710 -0.09999
# Poissons Ratio (y) = 0.34944 0.37940
# Poissons Ratio (z) = -0.13401 0.40324
#
# Static dielectric constant tensor:
#      x y z
#    x 1.683690 0.000000 0.013820 
#    y 0.000000 1.690790 0.000000 
#    z 0.013820 0.000000 1.677070 
# 
# From -- ./inp_files/134572.got.cif
#   From: 2010.05.17/outbox.cif.g08.bks.cpg/sg15_68_cif.got.tgz:134572.got - 2010.06.03 18:47:42.
