data_PCOD9266864
_publ_section_title
;
Structure prediction by ZEFSAII (Michael W. Deem and Ramdas Pophale) SiO2 
 PCOD9266864
Probable space group: C 2/C
;
_chemical_formula_sum "Si O2"
_cell_formula_units_Z 48
_cell_length_a 9.664432
_cell_length_b 24.784229
_cell_length_c 12.047206
_cell_angle_alpha 90.000000
_cell_angle_beta 56.895128
_cell_angle_gamma 90.000000
_cell_volume 2417.198005
_symmetry_space_group_name_H-M "C 2/C"
_symmetry_group_IT_number 15
_symmetry_cell_setting 'monoclinic'
loop_
_space_group_symop_operation_xyz
x,y,z
-x,y,1/2-z
-x,-y,-z
x,-y,1/2+z
1/2+x,1/2+y,z
1/2-x,1/2+y,1/2-z
1/2-x,1/2-y,-z
1/2+x,1/2-y,1/2+z
loop_
_atom_site_type_symbol
_atom_site_label
_atom_site_fract_x
_atom_site_fract_y
_atom_site_fract_z
Si Si1 0.694823 0.778902 0.137181
Si Si2 0.627978 0.076964 0.950867
Si Si3 0.320245 0.338045 0.469954
Si Si4 0.337118 0.605351 0.641961
Si Si5 0.177448 0.262172 0.695538
Si Si6 0.867585 0.468681 0.409909
O O1 0.500000 0.775053 0.250000
O O2 0.747242 0.841439 0.130772
O O3 0.791127 0.747763 0.191450
O O4 0.750000 0.750000 0.000000
O O5 0.657512 0.126899 0.018951
O O6 0.757054 0.087280 0.794018
O O7 0.455438 0.070537 0.961616
O O8 0.658581 0.023583 0.010492
O O9 0.475726 0.377326 0.415516
O O10 0.311571 0.300371 0.581240
O O11 0.326092 0.295346 0.366487
O O12 0.293809 0.557825 0.574256
O O13 0.000000 0.286883 0.750000
O O14 0.000000 0.476089 0.250000
#
# Coordination Sequence:
#
# PCOD9266864 Si02
#       6
#     8   8   8   8   8   8
#     4  12  25  41  64  95 132 172 217 268 327 389
#     4  10  19  38  62  88 120 170 206 260 316 388
#     4  11  22  38  65  92 129 163 221 257 321 384
#     4  11  21  40  62  92 124 170 211 265 320 389
#     4  11  23  40  62  96 128 172 212 266 316 394
#     4   9  21  37  61  92 126 159 216 263 321 381
#
# _framework density 19.857703999999998
#
# number of rings (size 3 to 8) (size 9 to 14) (size 15 to 20)
#    0.000    1.333    3.333    3.000    2.333    1.333 
#    0.000    3.333    0.000    2.000    0.000    0.000 
#    0.000    0.000    0.000    0.000    0.000    0.000 
#
# Total GULP energy -133926.883449 kJ/mol
# GULP energy per Si atom -5580.286810 kJ/mol
# Density = 1.981251 g / cm^3
# Si number density = 19.857704 Si / 1000 Ang^3
#
#
#
# Elastic Constant Matrix: (Units=GPa)
#
#
# Indices 1 2 3 4 5 6 
#
# 1 76.6262 39.4348 39.8139 0.0000 18.7138 0.0000
# 2 39.4348 79.7953 49.4670 0.0000 14.5782 0.0000
# 3 39.8139 49.4670 88.8094 0.0000 30.8797 0.0000
# 4 0.0000 0.0000 0.0000 19.1588 0.0000 -67.7487
# 5 18.7138 14.5782 30.8797 0.0000 34.7688 0.0000
# 6 0.0000 0.0000 0.0000 -67.7487 0.0000 -252.4390
#
#
#
# Elastic Compliance Matrix: (Units=1/GPa)
#
#
# Indices 1 2 3 4 5 6 
#
# 1 0.019343 -0.006623 -0.003368 0.000000 -0.004643 0.000000
# 2 -0.006623 0.021515 -0.010297 0.000000 0.003689 0.000000
# 3 -0.003368 -0.010297 0.023690 0.000000 -0.014910 0.000000
# 4 0.000000 0.000000 0.000000 0.026780 0.000000 -0.007187
# 5 -0.004643 0.003689 -0.014910 0.000000 0.042955 0.000000
# 6 0.000000 0.000000 0.000000 -0.007187 0.000000 -0.002032
#
#
# Mechanical properties :
#
#
# Convention : Reuss Voigt Hill
#
# Bulk Modulus (GPa) = 41.71874 55.85137 48.78506
# Shear Modulus (GPa) = 27.65218 -31.93461 -2.14121
#
# Velocity S-wave (km/s) = 3.73569 -4.01455 -1.03953
# Velocity P-wave (km/s) = 6.29775 2.58805 4.81454
#
# Compressibility (1/GPa) = 0.02397004
#
# Stress axis : x y z
#
# Youngs Moduli (GPa) = 51.69915 46.47976 42.21196
#
# Poissons Ratio (x) = 0.30783 0.14218
# Poissons Ratio (y) = 0.34240 0.43468
# Poissons Ratio (z) = 0.17414 0.47863
#
# Static dielectric constant tensor:
#      x y z
#    x 1.728450 0.000000 -0.039580 
#    y 0.000000 1.702700 0.000000 
#    z -0.039580 0.000000 1.768780 
# 
# From -- ./inp_files/79788.got.cif
#   From: 2010.05.17/outbox.cif.g08.bks.cpg/sg15_40_cif.got.tgz:79788.got - 2010.06.03 18:47:42.
