data_PCOD9266321
_publ_section_title
;
Structure prediction by ZEFSAII (Michael W. Deem and Ramdas Pophale) SiO2 
 PCOD9266321
Probable space group: C 2/C
;
_chemical_formula_sum "Si O2"
_cell_formula_units_Z 56
_cell_length_a 14.207146
_cell_length_b 14.190193
_cell_length_c 20.628632
_cell_angle_alpha 90.000000
_cell_angle_beta 133.681867
_cell_angle_gamma 90.000000
_cell_volume 3007.567898
_symmetry_space_group_name_H-M "C 2/C"
_symmetry_group_IT_number 15
_symmetry_cell_setting 'monoclinic'
loop_
_space_group_symop_operation_xyz
x,y,z
-x,y,1/2-z
-x,-y,-z
x,-y,1/2+z
1/2+x,1/2+y,z
1/2-x,1/2+y,1/2-z
1/2-x,1/2-y,-z
1/2+x,1/2-y,1/2+z
loop_
_atom_site_type_symbol
_atom_site_label
_atom_site_fract_x
_atom_site_fract_y
_atom_site_fract_z
Si Si1 0.871317 0.593869 0.752766
Si Si2 0.140315 0.323283 0.926594
Si Si3 0.236727 0.082767 0.819739
Si Si4 0.000000 0.230815 0.250000
Si Si5 0.235133 0.104672 0.409753
Si Si6 0.008389 0.385843 0.994104
Si Si7 0.664352 0.028596 0.906645
Si Si8 0.000000 0.208763 0.750000
O O1 0.768128 0.569915 0.759187
O O2 0.924279 0.700198 0.764539
O O3 0.813645 0.565399 0.655384
O O4 0.006064 0.539909 0.836050
O O5 0.047504 0.355309 0.941206
O O6 0.201567 0.419847 0.930068
O O7 0.058654 0.274219 0.832638
O O8 0.250000 0.250000 0.000000
O O9 0.110440 0.143417 0.772172
O O10 0.223949 0.989267 0.858782
O O11 0.365394 0.139581 0.904063
O O12 0.108426 0.167572 0.337292
O O13 0.369482 0.153003 0.449587
O O14 0.265355 0.078854 0.499160
O O15 0.000000 0.500000 0.000000
#
# Coordination Sequence:
#
# PCOD9266321 Si02
#       8
#     8   8   8   4   8   8   8   4
#     4  10  23  40  61  94 132 157 224 247 319 392
#     4  12  22  38  60  98 122 160 220 263 311 374
#     4  11  21  42  60  93 124 174 205 259 321 383
#     4  10  25  39  60 104 122 158 214 279 307 366
#     4  11  20  39  71  86 126 170 216 252 317 379
#     4  10  19  37  63  85 115 169 211 243 304 392
#     4  10  19  40  65  87 125 175 201 260 318 383
#     4  12  25  35  64  90 140 156 206 285 317 348
#
# _framework density 18.619696000000001
#
# number of rings (size 3 to 8) (size 9 to 14) (size 15 to 20)
#    0.000    1.429    5.714    2.143    2.000    2.286 
#    0.000    0.000    0.000    4.286    0.000    0.000 
#    0.000    0.000    0.000    0.000    0.000    0.000 
#
# Total GULP energy -156092.453550 kJ/mol
# GULP energy per Si atom -5574.730484 kJ/mol
# Density = 1.857732 g / cm^3
# Si number density = 18.619696 Si / 1000 Ang^3
#
#
#
# Elastic Constant Matrix: (Units=GPa)
#
#
# Indices 1 2 3 4 5 6 
#
# 1 103.3658 35.4839 68.4096 0.0000 -25.1525 0.0000
# 2 35.4839 86.1012 67.8649 0.0000 -6.6335 0.0000
# 3 68.4096 67.8649 149.3497 0.0000 -15.2114 0.0000
# 4 0.0000 0.0000 0.0000 28.7519 0.0000 -3.9084
# 5 -25.1525 -6.6335 -15.2114 0.0000 37.8520 0.0000
# 6 0.0000 0.0000 0.0000 -3.9084 0.0000 11.5098
#
#
#
# Elastic Compliance Matrix: (Units=1/GPa)
#
#
# Indices 1 2 3 4 5 6 
#
# 1 0.015988 -0.001313 -0.005910 0.000000 0.008019 0.000000
# 2 -0.001313 0.018204 -0.007752 0.000000 -0.000797 0.000000
# 3 -0.005910 -0.007752 0.012915 0.000000 -0.000095 0.000000
# 4 0.000000 0.000000 0.000000 0.036463 0.000000 0.012382
# 5 0.008019 -0.000797 -0.000095 0.000000 0.031569 0.000000
# 6 0.000000 0.000000 0.000000 0.012382 0.000000 0.091087
#
#
# Mechanical properties :
#
#
# Convention : Reuss Voigt Hill
#
# Bulk Modulus (GPa) = 58.28218 75.81482 67.04850
# Shear Modulus (GPa) = 20.67023 26.75998 23.71510
#
# Velocity S-wave (km/s) = 3.33547 3.79514 3.57270
# Velocity P-wave (km/s) = 6.79729 7.74661 7.28743
#
# Compressibility (1/GPa) = 0.01715790
#
# Stress axis : x y z
#
# Youngs Moduli (GPa) = 62.54886 54.93387 77.42728
#
# Poissons Ratio (x) = 0.07212 0.45758
# Poissons Ratio (y) = 0.08212 0.60019
# Poissons Ratio (z) = 0.36965 0.42583
#
# Static dielectric constant tensor:
#      x y z
#    x 1.684160 0.000000 -0.020080 
#    y 0.000000 1.669340 0.000000 
#    z -0.020080 0.000000 1.679800 
# 
# From -- ./inp_files/244603.got.cif
#   From: 2010.05.17/outbox.cif.g08.bks.cpg/sg15_123_cif.got.tgz:244603.got - 2010.06.03 18:47:42.
