data_PCOD9266586
_publ_section_title
;
Structure prediction by ZEFSAII (Michael W. Deem and Ramdas Pophale) SiO2 
 PCOD9266586
Probable space group: C 2/C
;
_chemical_formula_sum "Si O2"
_cell_formula_units_Z 52
_cell_length_a 8.262860
_cell_length_b 18.900362
_cell_length_c 14.572654
_cell_angle_alpha 90.000000
_cell_angle_beta 86.707107
_cell_angle_gamma 90.000000
_cell_volume 2272.069101
_symmetry_space_group_name_H-M "C 2/C"
_symmetry_group_IT_number 15
_symmetry_cell_setting 'monoclinic'
loop_
_space_group_symop_operation_xyz
x,y,z
-x,y,1/2-z
-x,-y,-z
x,-y,1/2+z
1/2+x,1/2+y,z
1/2-x,1/2+y,1/2-z
1/2-x,1/2-y,-z
1/2+x,1/2-y,1/2+z
loop_
_atom_site_type_symbol
_atom_site_label
_atom_site_fract_x
_atom_site_fract_y
_atom_site_fract_z
Si Si1 0.000000 0.678879 0.250000
Si Si2 0.081185 0.981147 0.651507
Si Si3 0.456446 0.784460 0.078307
Si Si4 0.718261 0.157033 0.087967
Si Si5 0.487143 0.595341 0.512992
Si Si6 0.187738 0.203463 0.860800
Si Si7 0.334663 0.908114 0.214087
O O1 0.882015 0.634777 0.319919
O O2 0.890620 0.732359 0.192529
O O3 0.974139 0.034655 0.590873
O O4 0.229720 0.029711 0.675860
O O5 0.000000 0.957514 0.750000
O O6 0.115823 0.920646 0.575464
O O7 0.349907 0.716911 0.110474
O O8 0.644699 0.775809 0.095241
O O9 0.392506 0.850532 0.138945
O O10 0.407300 0.806490 0.977508
O O11 0.828240 0.101194 0.029886
O O12 0.435104 0.667711 0.563063
O O13 0.233323 0.139478 0.789366
O O14 0.500000 0.937710 0.250000
#
# Coordination Sequence:
#
# PCOD9266586 Si02
#       7
#     4   8   8   8   8   8   8
#     4  12  24  38  68  94 140 178 216 260 330 402
#     4  11  22  44  67  93 124 173 228 275 323 385
#     4  10  21  39  66  96 135 163 217 265 332 399
#     4  11  23  41  60  98 134 172 210 272 327 403
#     4  11  24  41  69  93 130 173 224 273 329 390
#     4  11  21  40  66 101 126 179 212 263 331 410
#     4  10  19  37  69  97 127 168 220 278 325 393
#
# _framework density 22.886628000000002
#
# number of rings (size 3 to 8) (size 9 to 14) (size 15 to 20)
#    0.000    1.231    4.615    2.769    0.000    2.462 
#    5.538    4.615    0.000    0.000    0.000    0.000 
#    0.000    0.000    0.000    0.000    0.000    0.000 
#
# Total GULP energy -145370.901220 kJ/mol
# GULP energy per Si atom -5591.188508 kJ/mol
# Density = 2.283454 g / cm^3
# Si number density = 22.886628 Si / 1000 Ang^3
#
#
#
# Elastic Constant Matrix: (Units=GPa)
#
#
# Indices 1 2 3 4 5 6 
#
# 1 90.3363 11.4088 51.3905 0.0000 3.4158 0.0000
# 2 11.4088 31.0956 16.2697 0.0000 10.0625 0.0000
# 3 51.3905 16.2697 119.6637 0.0000 -17.6164 0.0000
# 4 0.0000 0.0000 0.0000 26.3319 0.0000 13.3465
# 5 3.4158 10.0625 -17.6164 0.0000 44.5448 0.0000
# 6 0.0000 0.0000 0.0000 13.3465 0.0000 16.2962
#
#
#
# Elastic Compliance Matrix: (Units=1/GPa)
#
#
# Indices 1 2 3 4 5 6 
#
# 1 0.015305 -0.000705 -0.007036 0.000000 -0.003797 0.000000
# 2 -0.000705 0.039740 -0.006810 0.000000 -0.011616 0.000000
# 3 -0.007036 -0.006810 0.013390 0.000000 0.007373 0.000000
# 4 0.000000 0.000000 0.000000 0.064930 0.000000 -0.053177
# 5 -0.003797 -0.011616 0.007373 0.000000 0.028280 0.000000
# 6 0.000000 0.000000 0.000000 -0.053177 0.000000 0.104915
#
#
# Mechanical properties :
#
#
# Convention : Reuss Voigt Hill
#
# Bulk Modulus (GPa) = 25.42488 44.35930 34.89209
# Shear Modulus (GPa) = 16.19308 28.23636 22.21472
#
# Velocity S-wave (km/s) = 2.66284 3.51629 3.11889
# Velocity P-wave (km/s) = 4.53734 5.99249 5.31495
#
# Compressibility (1/GPa) = 0.03933156
#
# Stress axis : x y z
#
# Youngs Moduli (GPa) = 65.33832 25.16359 74.68387
#
# Poissons Ratio (x) = 0.01775 0.52547
# Poissons Ratio (y) = 0.04609 0.50862
# Poissons Ratio (z) = 0.45971 0.17137
#
# Static dielectric constant tensor:
#      x y z
#    x 1.835480 0.000000 -0.008070 
#    y 0.000000 1.848270 0.000000 
#    z -0.008070 0.000000 1.910920 
# 
# From -- ./inp_files/136044.got.cif
#   From: 2010.05.17/outbox.cif.g08.bks.cpg/sg15_69_cif.got.tgz:136044.got - 2010.06.03 18:47:42.
