data_PCOD9266437
_publ_section_title
;
Structure prediction by ZEFSAII (Michael W. Deem and Ramdas Pophale) SiO2 
 PCOD9266437
Probable space group: C 2/C
;
_chemical_formula_sum "Si O2"
_cell_formula_units_Z 56
_cell_length_a 17.958095
_cell_length_b 8.901053
_cell_length_c 16.321927
_cell_angle_alpha 90.000000
_cell_angle_beta 100.693564
_cell_angle_gamma 90.000000
_cell_volume 2563.685302
_symmetry_space_group_name_H-M "C 2/C"
_symmetry_group_IT_number 15
_symmetry_cell_setting 'monoclinic'
loop_
_space_group_symop_operation_xyz
x,y,z
-x,y,1/2-z
-x,-y,-z
x,-y,1/2+z
1/2+x,1/2+y,z
1/2-x,1/2+y,1/2-z
1/2-x,1/2-y,-z
1/2+x,1/2-y,1/2+z
loop_
_atom_site_type_symbol
_atom_site_label
_atom_site_fract_x
_atom_site_fract_y
_atom_site_fract_z
Si Si1 0.477584 0.128111 0.609234
Si Si2 0.749299 0.070681 0.012608
Si Si3 0.357982 0.893109 0.619582
Si Si4 0.584214 0.295451 0.231282
Si Si5 0.100794 0.890194 0.470654
Si Si6 0.895798 0.597405 0.421344
Si Si7 0.460419 0.439318 0.863582
O O1 0.433425 0.154984 0.513973
O O2 0.500123 0.284638 0.652458
O O3 0.422005 0.019134 0.647708
O O4 0.552517 0.036182 0.601759
O O5 0.714704 0.982593 0.926867
O O6 0.750000 0.250000 0.000000
O O7 0.688604 0.047393 0.072811
O O8 0.830204 0.996060 0.043041
O O9 0.356220 0.780794 0.695419
O O10 0.384398 0.781864 0.551737
O O11 0.500000 0.259077 0.250000
O O12 0.599653 0.224506 0.145962
O O13 0.584280 0.473782 0.216376
O O14 0.088439 0.905927 0.565058
O O15 0.026220 0.947830 0.408684
#
# Coordination Sequence:
#
# PCOD9266437 Si02
#       7
#     8   8   8   8   8   8   8
#     4  10  19  37  64  95 122 167 224 268 308 384
#     4  11  23  40  64  96 128 174 227 268 314 391
#     4  11  23  41  65  95 136 172 214 273 339 389
#     4  12  22  41  60  95 133 168 203 270 342 389
#     4  11  21  39  65  96 126 175 219 268 317 382
#     4  10  20  38  63  90 132 171 213 263 327 388
#     4  11  21  36  66  96 128 162 222 271 316 386
#
# _framework density 21.843554999999999
#
# number of rings (size 3 to 8) (size 9 to 14) (size 15 to 20)
#    0.000    1.143    2.857    7.286    0.000    0.000 
#    2.571    2.857    0.000    0.000    0.000    0.000 
#    0.000    0.000    0.000    0.000    0.000    0.000 
#
# Total GULP energy -156579.949254 kJ/mol
# GULP energy per Si atom -5592.141045 kJ/mol
# Density = 2.179384 g / cm^3
# Si number density = 21.843555 Si / 1000 Ang^3
#
#
#
# Elastic Constant Matrix: (Units=GPa)
#
#
# Indices 1 2 3 4 5 6 
#
# 1 72.1661 12.9937 3.9118 0.0000 -4.7997 0.0000
# 2 12.9937 136.7075 40.5361 0.0000 17.6217 0.0000
# 3 3.9118 40.5361 64.0495 0.0000 5.1022 0.0000
# 4 0.0000 0.0000 0.0000 43.1696 0.0000 2.0517
# 5 -4.7997 17.6217 5.1022 0.0000 12.8798 0.0000
# 6 0.0000 0.0000 0.0000 2.0517 0.0000 33.0471
#
#
#
# Elastic Compliance Matrix: (Units=1/GPa)
#
#
# Indices 1 2 3 4 5 6 
#
# 1 0.014930 -0.002595 0.000005 0.000000 0.009112 0.000000
# 2 -0.002595 0.011039 -0.005729 0.000000 -0.013801 0.000000
# 3 0.000005 -0.005729 0.019220 0.000000 0.000225 0.000000
# 4 0.000000 0.000000 0.000000 0.023233 0.000000 -0.001442
# 5 0.009112 -0.013801 0.000225 0.000000 0.099829 0.000000
# 6 0.000000 0.000000 0.000000 -0.001442 0.000000 0.030349
#
#
# Mechanical properties :
#
#
# Convention : Reuss Voigt Hill
#
# Bulk Modulus (GPa) = 35.02465 43.08958 39.05711
# Shear Modulus (GPa) = 22.24632 32.18474 27.21553
#
# Velocity S-wave (km/s) = 3.19476 3.84268 3.53360
# Velocity P-wave (km/s) = 5.44773 6.28152 5.87943
#
# Compressibility (1/GPa) = 0.02855132
#
# Stress axis : x y z
#
# Youngs Moduli (GPa) = 66.97939 90.58673 52.02839
#
# Poissons Ratio (x) = 0.23507 -0.00024
# Poissons Ratio (y) = 0.17381 0.29805
# Poissons Ratio (z) = -0.00031 0.51894
#
# Static dielectric constant tensor:
#      x y z
#    x 1.795360 0.000000 0.002320 
#    y 0.000000 1.819740 0.000000 
#    z 0.002320 0.000000 1.839210 
# 
# From -- ./inp_files/213404.got.cif
#   From: 2010.05.17/outbox.cif.g08.bks.cpg/sg15_107_cif.got.tgz:213404.got - 2010.06.03 18:47:42.
