data_PCOD9266319
_publ_section_title
;
Structure prediction by ZEFSAII (Michael W. Deem and Ramdas Pophale) SiO2 
 PCOD9266319
Probable space group: C 2/C
;
_chemical_formula_sum "Si O2"
_cell_formula_units_Z 48
_cell_length_a 33.587361
_cell_length_b 15.155057
_cell_length_c 16.742632
_cell_angle_alpha 90.000000
_cell_angle_beta 17.887692
_cell_angle_gamma 90.000000
_cell_volume 2617.645371
_symmetry_space_group_name_H-M "C 2/C"
_symmetry_group_IT_number 15
_symmetry_cell_setting 'monoclinic'
loop_
_space_group_symop_operation_xyz
x,y,z
-x,y,1/2-z
-x,-y,-z
x,-y,1/2+z
1/2+x,1/2+y,z
1/2-x,1/2+y,1/2-z
1/2-x,1/2-y,-z
1/2+x,1/2-y,1/2+z
loop_
_atom_site_type_symbol
_atom_site_label
_atom_site_fract_x
_atom_site_fract_y
_atom_site_fract_z
Si Si1 0.000000 0.948171 0.750000
Si Si2 0.305523 0.541313 0.335265
Si Si3 0.266424 0.383076 0.281729
Si Si4 0.513923 0.066202 0.896185
Si Si5 0.783847 0.708442 0.349366
Si Si6 0.000000 0.534228 0.250000
Si Si7 0.569250 0.570276 0.764515
O O1 0.125944 0.892094 0.491106
O O2 0.968919 0.010637 0.736061
O O3 0.288056 0.461908 0.304743
O O4 0.167681 0.589908 0.602987
O O5 0.345770 0.490367 0.338558
O O6 0.433641 0.596021 0.066031
O O7 0.289126 0.290515 0.280341
O O8 0.125202 0.403807 0.517971
O O9 0.490202 0.021864 0.852720
O O10 0.411641 0.146104 0.103479
O O11 0.500000 0.000000 0.000000
O O12 0.750000 0.750000 0.500000
O O13 0.660134 0.648989 0.564452
#
# Coordination Sequence:
#
# PCOD9266319 Si02
#       7
#     4   8   8   8   8   4   8
#     4  10  22  38  60  86 116 162 204 234 304 372
#     4   9  19  38  63  85 113 157 208 235 293 376
#     4  10  21  38  59  89 121 154 195 257 306 348
#     4  11  21  39  66  94 119 166 210 252 303 375
#     4  12  22  38  60  90 123 155 200 263 316 353
#     4  10  22  42  62  90 122 166 216 248 296 390
#     4  10  19  37  63  84 116 158 201 242 297 370
#
# _framework density 18.33709
#
# number of rings (size 3 to 8) (size 9 to 14) (size 15 to 20)
#    0.000    1.667    3.333    2.000    0.000    1.333 
#    0.000    2.500    0.000    0.000    0.000    0.000 
#    0.000    0.000    0.000    0.000    0.000    0.000 
#
# Total GULP energy -133749.245915 kJ/mol
# GULP energy per Si atom -5572.885246 kJ/mol
# Density = 1.829535 g / cm^3
# Si number density = 18.337090 Si / 1000 Ang^3
#
#
#
# Elastic Constant Matrix: (Units=GPa)
#
#
# Indices 1 2 3 4 5 6 
#
# 1 81.7087 8.2530 39.8622 0.0000 -4.4002 0.0000
# 2 8.2530 68.5359 70.9105 0.0000 -3.8722 0.0000
# 3 39.8622 70.9105 167.0926 0.0000 -16.6567 0.0000
# 4 0.0000 0.0000 0.0000 -1.2348 0.0000 3.7486
# 5 -4.4002 -3.8722 -16.6567 0.0000 35.2097 0.0000
# 6 0.0000 0.0000 0.0000 3.7486 0.0000 23.6296
#
#
#
# Elastic Compliance Matrix: (Units=1/GPa)
#
#
# Indices 1 2 3 4 5 6 
#
# 1 0.014236 0.003219 -0.004775 0.000000 -0.000126 0.000000
# 2 0.003219 0.026948 -0.012456 0.000000 -0.002527 0.000000
# 3 -0.004775 -0.012456 0.012818 0.000000 0.004097 0.000000
# 4 0.000000 0.000000 0.000000 -0.546606 0.000000 0.086714
# 5 -0.000126 -0.002527 0.004097 0.000000 0.030046 0.000000
# 6 0.000000 0.000000 0.000000 0.086714 0.000000 0.028564
#
#
# Mechanical properties :
#
#
# Convention : Reuss Voigt Hill
#
# Bulk Modulus (GPa) = 38.49319 61.70987 50.10153
# Shear Modulus (GPa) = -12.58461 24.74165 6.07852
#
# Velocity S-wave (km/s) = -2.62256 3.67722 1.82266
# Velocity P-wave (km/s) = 3.44487 7.19412 5.64015
#
# Compressibility (1/GPa) = 0.02597862
#
# Stress axis : x y z
#
# Youngs Moduli (GPa) = 70.24398 37.10848 78.01377
#
# Poissons Ratio (x) = -0.11944 0.37249
# Poissons Ratio (y) = -0.22610 0.97173
# Poissons Ratio (z) = 0.33539 0.46222
#
# Static dielectric constant tensor:
#      x y z
#    x 1.632980 0.000000 0.016380 
#    y 0.000000 1.621440 0.000000 
#    z 0.016380 0.000000 1.689770 
# 
# From -- ./inp_files/182474.got.cif
#   From: 2010.05.17/outbox.cif.g08.bks.cpg/sg15_92_cif.got.tgz:182474.got - 2010.06.03 18:47:42.
