data_PCOD9266489
_publ_section_title
;
Structure prediction by ZEFSAII (Michael W. Deem and Ramdas Pophale) SiO2 
 PCOD9266489
Probable space group: C 2/C
;
_chemical_formula_sum "Si O2"
_cell_formula_units_Z 24
_cell_length_a 13.408600
_cell_length_b 6.899660
_cell_length_c 9.467208
_cell_angle_alpha 90.000000
_cell_angle_beta 80.761189
_cell_angle_gamma 90.000000
_cell_volume 864.494834
_symmetry_space_group_name_H-M "C 2/C"
_symmetry_group_IT_number 15
_symmetry_cell_setting 'monoclinic'
loop_
_space_group_symop_operation_xyz
x,y,z
-x,y,1/2-z
-x,-y,-z
x,-y,1/2+z
1/2+x,1/2+y,z
1/2-x,1/2+y,1/2-z
1/2-x,1/2-y,-z
1/2+x,1/2-y,1/2+z
loop_
_atom_site_type_symbol
_atom_site_label
_atom_site_fract_x
_atom_site_fract_y
_atom_site_fract_z
Si Si1 0.169924 0.615397 0.598857
Si Si2 0.020468 0.718022 0.396628
Si Si3 0.143816 0.109675 0.365976
O O1 0.250000 0.750000 0.500000
O O2 0.135395 0.739300 0.740898
O O3 0.238452 0.433469 0.629108
O O4 0.082985 0.600875 0.501260
O O5 0.920648 0.810206 0.488829
O O6 0.000000 0.620069 0.250000
O O7 0.908877 0.904835 0.157595
#
# Coordination Sequence:
#
# PCOD9266489 Si02
#       3
#     8   8   8
#     4  10  21  38  64  97 127 169 220 264 323 390
#     4  10  19  37  65  93 127 171 212 264 329 386
#     4  10  20  38  66  94 127 170 217 266 322 387
#
# _framework density 27.761877999999999
#
# number of rings (size 3 to 8) (size 9 to 14) (size 15 to 20)
#    0.000    2.000    0.000    7.000    0.000    0.000 
#    0.000   30.000    0.000   64.000    0.000    4.667 
#    0.000    0.000    0.000    0.000    0.000    0.000 
#
# Total GULP energy -67405.521358 kJ/mol
# GULP energy per Si atom -5617.126780 kJ/mol
# Density = 2.769869 g / cm^3
# Si number density = 27.761878 Si / 1000 Ang^3
#
#
#
# Elastic Constant Matrix: (Units=GPa)
#
#
# Indices 1 2 3 4 5 6 
#
# 1 199.4977 75.0990 105.0225 0.0000 43.0957 0.0000
# 2 75.0990 121.8359 66.8248 0.0000 29.2056 0.0000
# 3 105.0225 66.8248 263.1116 0.0000 27.3555 0.0000
# 4 0.0000 0.0000 0.0000 48.1646 0.0000 13.9174
# 5 43.0957 29.2056 27.3555 0.0000 61.5895 0.0000
# 6 0.0000 0.0000 0.0000 13.9174 0.0000 49.5149
#
#
#
# Elastic Compliance Matrix: (Units=1/GPa)
#
#
# Indices 1 2 3 4 5 6 
#
# 1 0.007915 -0.002974 -0.002070 0.000000 -0.003209 0.000000
# 2 -0.002974 0.011488 -0.001447 0.000000 -0.002724 0.000000
# 3 -0.002070 -0.001447 0.005004 0.000000 -0.000087 0.000000
# 4 0.000000 0.000000 0.000000 0.022597 0.000000 -0.006352
# 5 -0.003209 -0.002724 -0.000087 0.000000 0.019812 0.000000
# 6 0.000000 0.000000 0.000000 -0.006352 0.000000 0.021981
#
#
# Mechanical properties :
#
#
# Convention : Reuss Voigt Hill
#
# Bulk Modulus (GPa) = 87.54380 119.81531 103.67955
# Shear Modulus (GPa) = 47.35346 54.35373 50.85359
#
# Velocity S-wave (km/s) = 4.13449 4.42957 4.28457
# Velocity P-wave (km/s) = 7.37525 8.33147 7.86790
#
# Compressibility (1/GPa) = 0.01142285
#
# Stress axis : x y z
#
# Youngs Moduli (GPa) = 126.33810 87.04944 199.84911
#
# Poissons Ratio (x) = 0.25890 0.41378
# Poissons Ratio (y) = 0.37575 0.28924
# Poissons Ratio (z) = 0.26158 0.12599
#
# Static dielectric constant tensor:
#      x y z
#    x 2.353190 0.000000 0.003760 
#    y 0.000000 2.159040 0.000000 
#    z 0.003760 0.000000 2.069050 
# 
# From -- ./inp_files/36127.got.cif
#   From: 2010.05.17/outbox.cif.g08.bks.cpg/sg15_19_cif.got.tgz:36127.got - 2010.06.03 18:47:42.
