data_PCOD9266588
_publ_section_title
;
Structure prediction by ZEFSAII (Michael W. Deem and Ramdas Pophale) SiO2 
 PCOD9266588
Probable space group: C 2/C
;
_chemical_formula_sum "Si O2"
_cell_formula_units_Z 64
_cell_length_a 24.679433
_cell_length_b 13.353234
_cell_length_c 13.975863
_cell_angle_alpha 90.000000
_cell_angle_beta 136.373504
_cell_angle_gamma 90.000000
_cell_volume 3177.756634
_symmetry_space_group_name_H-M "C 2/C"
_symmetry_group_IT_number 15
_symmetry_cell_setting 'monoclinic'
loop_
_space_group_symop_operation_xyz
x,y,z
-x,y,1/2-z
-x,-y,-z
x,-y,1/2+z
1/2+x,1/2+y,z
1/2-x,1/2+y,1/2-z
1/2-x,1/2-y,-z
1/2+x,1/2-y,1/2+z
loop_
_atom_site_type_symbol
_atom_site_label
_atom_site_fract_x
_atom_site_fract_y
_atom_site_fract_z
Si Si1 0.182951 0.527564 0.786838
Si Si2 0.088105 0.823257 0.761213
Si Si3 0.438156 0.641192 0.947068
Si Si4 0.155460 0.660976 0.126077
Si Si5 0.175060 0.751804 0.696280
Si Si6 0.535865 0.334111 0.389260
Si Si7 0.084412 0.397630 0.333650
Si Si8 0.864765 0.972036 0.511284
O O1 0.148700 0.436648 0.682452
O O2 0.179484 0.634689 0.728062
O O3 0.136101 0.540714 0.825286
O O4 0.274775 0.505418 0.918060
O O5 0.157733 0.811399 0.773247
O O6 0.066729 0.709964 0.762094
O O7 0.109813 0.884789 0.883025
O O8 0.014905 0.870456 0.612110
O O9 0.402985 0.751612 0.915525
O O10 0.468589 0.631666 0.878198
O O11 0.376327 0.565492 0.916266
O O12 0.243319 0.706765 0.240136
O O13 0.132838 0.628178 0.990300
O O14 0.100873 0.772780 0.532592
O O15 0.500000 0.281587 0.250000
O O16 0.581314 0.431570 0.409016
O O17 0.000000 0.444376 0.250000
#
# Coordination Sequence:
#
# PCOD9266588 Si02
#       8
#     8   8   8   8   8   8   8   8
#     4  11  25  41  65 104 129 175 220 263 337 389
#     4  10  19  37  70 101 123 163 216 281 334 360
#     4  11  22  39  67  97 130 169 215 275 327 380
#     4  12  22  43  67  97 134 172 218 272 329 389
#     4  10  22  44  66  92 138 171 217 275 321 392
#     4  11  25  44  63  94 133 179 220 257 326 399
#     4  11  21  41  64  96 131 168 222 275 321 379
#     4  12  20  39  69 100 134 161 217 277 331 391
#
# _framework density 20.139994999999999
#
# number of rings (size 3 to 8) (size 9 to 14) (size 15 to 20)
#    0.000    1.000    5.000    2.250    0.000    3.500 
#    4.500    0.625    0.000    0.000    0.000    0.000 
#    0.000    0.000    0.000    0.000    0.000    0.000 
#
# Total GULP energy -178887.798672 kJ/mol
# GULP energy per Si atom -5590.243709 kJ/mol
# Density = 2.009416 g / cm^3
# Si number density = 20.139995 Si / 1000 Ang^3
#
#
#
# Elastic Constant Matrix: (Units=GPa)
#
#
# Indices 1 2 3 4 5 6 
#
# 1 119.5546 25.7147 51.6090 0.0000 5.1776 0.0000
# 2 25.7147 59.4090 6.9170 0.0000 4.2879 0.0000
# 3 51.6090 6.9170 65.3001 0.0000 -8.2247 0.0000
# 4 0.0000 0.0000 0.0000 26.6384 0.0000 -1.2167
# 5 5.1776 4.2879 -8.2247 0.0000 26.5090 0.0000
# 6 0.0000 0.0000 0.0000 -1.2167 0.0000 18.1154
#
#
#
# Elastic Compliance Matrix: (Units=1/GPa)
#
#
# Indices 1 2 3 4 5 6 
#
# 1 0.014735 -0.004572 -0.011896 0.000000 -0.005829 0.000000
# 2 -0.004572 0.018770 0.001411 0.000000 -0.001705 0.000000
# 3 -0.011896 0.001411 0.025840 0.000000 0.010112 0.000000
# 4 0.000000 0.000000 0.000000 0.037655 0.000000 0.002529
# 5 -0.005829 -0.001705 0.010112 0.000000 0.042275 0.000000
# 6 0.000000 0.000000 0.000000 0.002529 0.000000 0.055371
#
#
# Mechanical properties :
#
#
# Convention : Reuss Voigt Hill
#
# Bulk Modulus (GPa) = 34.21070 45.86057 40.03564
# Shear Modulus (GPa) = 21.32140 24.92075 23.12107
#
# Velocity S-wave (km/s) = 3.25723 3.52145 3.39192
# Velocity P-wave (km/s) = 5.58296 6.27332 5.93818
#
# Compressibility (1/GPa) = 0.02923062
#
# Stress axis : x y z
#
# Youngs Moduli (GPa) = 67.86352 53.27526 38.69985
#
# Poissons Ratio (x) = 0.24359 0.46037
# Poissons Ratio (y) = 0.31030 -0.05459
# Poissons Ratio (z) = 0.80729 -0.07515
#
# Static dielectric constant tensor:
#      x y z
#    x 1.733130 0.000000 0.011670 
#    y 0.000000 1.686360 0.000000 
#    z 0.011670 0.000000 1.704410 
# 
# From -- ./inp_files/177864.got.cif
#   From: 2010.05.17/outbox.cif.g08.bks.cpg/sg15_89_cif.got.tgz:177864.got - 2010.06.03 18:47:42.
