data_PCOD9266663
_publ_section_title
;
Structure prediction by ZEFSAII (Michael W. Deem and Ramdas Pophale) SiO2 
 PCOD9266663
Probable space group: C 2/C
;
_chemical_formula_sum "Si O2"
_cell_formula_units_Z 60
_cell_length_a 15.046164
_cell_length_b 8.546498
_cell_length_c 20.169868
_cell_angle_alpha 90.000000
_cell_angle_beta 100.345920
_cell_angle_gamma 90.000000
_cell_volume 2551.514261
_symmetry_space_group_name_H-M "C 2/C"
_symmetry_group_IT_number 15
_symmetry_cell_setting 'monoclinic'
loop_
_space_group_symop_operation_xyz
x,y,z
-x,y,1/2-z
-x,-y,-z
x,-y,1/2+z
1/2+x,1/2+y,z
1/2-x,1/2+y,1/2-z
1/2-x,1/2-y,-z
1/2+x,1/2-y,1/2+z
loop_
_atom_site_type_symbol
_atom_site_label
_atom_site_fract_x
_atom_site_fract_y
_atom_site_fract_z
Si Si1 0.819680 0.178657 0.706163
Si Si2 0.218859 0.882490 0.596487
Si Si3 0.990560 0.666045 0.659735
Si Si4 0.433337 0.810329 0.480020
Si Si5 0.700395 0.217466 0.908426
Si Si6 0.155640 0.854888 0.731798
Si Si7 0.622611 0.835465 0.534158
Si Si8 0.000000 0.372525 0.750000
O O1 0.784349 0.241597 0.630067
O O2 0.738167 0.231535 0.743989
O O3 0.910377 0.269570 0.736748
O O4 0.835888 0.996225 0.716438
O O5 0.145680 0.816710 0.535204
O O6 0.170430 0.928905 0.659425
O O7 0.271471 0.035764 0.583059
O O8 0.886983 0.721608 0.650036
O O9 0.997289 0.489583 0.687014
O O10 0.024665 0.676800 0.588619
O O11 0.062401 0.766213 0.709892
O O12 0.521081 0.778368 0.537468
O O13 0.392327 0.982424 0.485661
O O14 0.792076 0.312554 0.906150
O O15 0.658120 0.259535 0.974598
#
# Coordination Sequence:
#
# PCOD9266663 Si02
#       8
#     8   8   8   8   8   8   8   4
#     4  10  21  38  55  84 113 156 194 235 279 341
#     4   9  20  36  57  83 116 147 190 240 280 341
#     4  10  20  38  57  80 119 155 187 235 281 346
#     4   9  19  38  58  85 111 148 192 234 288 345
#     4  10  19  38  58  87 117 146 189 236 298 333
#     4   9  20  38  57  79 112 158 194 228 279 339
#     4   9  20  36  62  85 108 150 189 237 293 350
#     4  12  22  36  56  86 116 160 186 240 290 330
#
# _framework density 23.515445
#
# number of rings (size 3 to 8) (size 9 to 14) (size 15 to 20)
#    0.800    1.600    1.333    0.800    0.000    2.667 
#    4.800    0.000    0.000    0.000    0.000    0.000 
#    0.000    0.000    0.000    0.000    0.000    0.000 
#
# Total GULP energy -167453.870165 kJ/mol
# GULP energy per Si atom -5581.795672 kJ/mol
# Density = 2.346192 g / cm^3
# Si number density = 23.515445 Si / 1000 Ang^3
#
#
#
# Elastic Constant Matrix: (Units=GPa)
#
#
# Indices 1 2 3 4 5 6 
#
# 1 175.2925 70.1960 51.9638 0.0000 62.4858 0.0000
# 2 70.1960 118.6295 22.9154 0.0000 34.7472 0.0000
# 3 51.9638 22.9154 69.0007 0.0000 36.6686 0.0000
# 4 0.0000 0.0000 0.0000 33.2477 0.0000 8.3163
# 5 62.4858 34.7472 36.6686 0.0000 54.2314 0.0000
# 6 0.0000 0.0000 0.0000 8.3163 0.0000 37.0987
#
#
#
# Elastic Compliance Matrix: (Units=1/GPa)
#
#
# Indices 1 2 3 4 5 6 
#
# 1 0.010912 -0.003430 -0.002443 0.000000 -0.008724 0.000000
# 2 -0.003430 0.011456 0.000904 0.000000 -0.003999 0.000000
# 3 -0.002443 0.000904 0.023169 0.000000 -0.013430 0.000000
# 4 0.000000 0.000000 0.000000 0.031864 0.000000 -0.007143
# 5 -0.008724 -0.003999 -0.013430 0.000000 0.040134 0.000000
# 6 0.000000 0.000000 0.000000 -0.007143 0.000000 0.028556
#
#
# Mechanical properties :
#
#
# Convention : Reuss Voigt Hill
#
# Bulk Modulus (GPa) = 28.09023 72.56370 50.32696
# Shear Modulus (GPa) = 29.78026 39.43870 34.60948
#
# Velocity S-wave (km/s) = 3.56253 4.09973 3.84054
# Velocity P-wave (km/s) = 5.37527 7.30310 6.41205
#
# Compressibility (1/GPa) = 0.03559957
#
# Stress axis : x y z
#
# Youngs Moduli (GPa) = 91.64145 87.29080 43.16051
#
# Poissons Ratio (x) = 0.29940 0.10543
# Poissons Ratio (y) = 0.31432 -0.03900
# Poissons Ratio (z) = 0.22385 -0.07888
#
# Static dielectric constant tensor:
#      x y z
#    x 1.949040 0.000000 -0.013320 
#    y 0.000000 1.820870 0.000000 
#    z -0.013320 0.000000 2.006990 
# 
# From -- ./inp_files/312695.got.cif
#   From: 2010.05.17/outbox.cif.g08.bks.cpg/sg15_157_cif.got.tgz:312695.got - 2010.06.03 18:47:42.
