data_PCOD9266922
_publ_section_title
;
Structure prediction by ZEFSAII (Michael W. Deem and Ramdas Pophale) SiO2 
 PCOD9266922
Probable space group: C 2/C
;
_chemical_formula_sum "Si O2"
_cell_formula_units_Z 40
_cell_length_a 24.925591
_cell_length_b 12.849303
_cell_length_c 17.835523
_cell_angle_alpha 90.000000
_cell_angle_beta 160.950347
_cell_angle_gamma 90.000000
_cell_volume 1864.422363
_symmetry_space_group_name_H-M "C 2/C"
_symmetry_group_IT_number 15
_symmetry_cell_setting 'monoclinic'
loop_
_space_group_symop_operation_xyz
x,y,z
-x,y,1/2-z
-x,-y,-z
x,-y,1/2+z
1/2+x,1/2+y,z
1/2-x,1/2+y,1/2-z
1/2-x,1/2-y,-z
1/2+x,1/2-y,1/2+z
loop_
_atom_site_type_symbol
_atom_site_label
_atom_site_fract_x
_atom_site_fract_y
_atom_site_fract_z
Si Si1 0.984847 0.023637 0.067115
Si Si2 0.411645 0.702518 0.522693
Si Si3 0.180334 0.922390 0.950196
Si Si4 0.685650 0.160056 0.732751
Si Si5 0.358685 0.133625 0.225590
O O1 0.816047 0.082944 0.864729
O O2 0.986183 0.910870 0.108613
O O3 0.000000 0.000000 0.000000
O O4 0.132772 0.089044 0.300517
O O5 0.317421 0.735270 0.321062
O O6 0.548625 0.791765 0.710531
O O7 0.286419 0.695123 0.425049
O O8 0.000000 0.936423 0.750000
O O9 0.289820 0.025380 0.105445
O O10 0.265940 0.836739 0.116219
O O11 0.501732 0.117762 0.476756
#
# Coordination Sequence:
#
# PCOD9266922 Si02
#       5
#     8   8   8   8   8
#     4  11  22  40  61  89 124 161 207 263 299 357
#     4  10  21  35  65  91 124 154 209 249 313 359
#     4  10  19  38  63  86 122 164 204 242 316 370
#     4   9  21  37  65  85 125 159 199 246 316 368
#     4  10  20  38  60  93 119 165 195 256 300 378
#
# _framework density 21.454366
#
# number of rings (size 3 to 8) (size 9 to 14) (size 15 to 20)
#    1.200    0.800    4.000    1.800    0.000    0.800 
#    0.000    2.000    4.400    0.000    0.000    0.000 
#    0.000    0.000    0.000    0.000    0.000    0.000 
#
# Total GULP energy -111432.478115 kJ/mol
# GULP energy per Si atom -5571.623906 kJ/mol
# Density = 2.140554 g / cm^3
# Si number density = 21.454366 Si / 1000 Ang^3
#
#
#
# Elastic Constant Matrix: (Units=GPa)
#
#
# Indices 1 2 3 4 5 6 
#
# 1 74.4785 -6.6476 31.7124 0.0000 -16.9454 0.0000
# 2 -6.6476 53.2756 1.3559 0.0000 0.1389 0.0001
# 3 31.7124 1.3559 94.1149 0.0001 -19.3163 0.0001
# 4 0.0000 0.0000 0.0001 20.3895 0.0000 5.0317
# 5 -16.9454 0.1389 -19.3163 0.0000 42.8294 0.0000
# 6 0.0000 0.0001 0.0001 5.0317 0.0000 1.9159
#
#
#
# Elastic Compliance Matrix: (Units=1/GPa)
#
#
# Indices 1 2 3 4 5 6 
#
# 1 0.016647 0.002186 -0.004728 0.000000 0.004447 -0.000001
# 2 0.002186 0.019066 -0.000933 0.000000 0.000382 -0.000001
# 3 -0.004728 -0.000933 0.013057 0.000000 0.004021 -0.000001
# 4 0.000000 0.000000 0.000000 0.139372 0.000000 -0.366025
# 5 0.004447 0.000382 0.004021 0.000000 0.026920 -0.000002
# 6 -0.000001 -0.000001 -0.000001 -0.366025 -0.000002 1.483216
#
#
# Mechanical properties :
#
#
# Convention : Reuss Voigt Hill
#
# Bulk Modulus (GPa) = 23.91200 30.52336 27.21768
# Shear Modulus (GPa) = 2.90839 26.05685 14.48262
#
# Velocity S-wave (km/s) = 1.16557 3.48878 2.60098
# Velocity P-wave (km/s) = 3.60293 5.52149 4.66197
#
# Compressibility (1/GPa) = 0.04182001
#
# Stress axis : x y z
#
# Youngs Moduli (GPa) = 60.07205 52.44986 76.58621
#
# Poissons Ratio (x) = -0.11465 0.36210
# Poissons Ratio (y) = -0.13131 0.07144
# Poissons Ratio (z) = 0.28402 0.04892
#
# Static dielectric constant tensor:
#      x y z
#    x 1.802180 0.000000 -0.067070 
#    y 0.000000 1.759030 0.000000 
#    z -0.067070 0.000000 1.840860 
# 
# From -- ./inp_files/222729.got.cif
#   From: 2010.05.17/outbox.cif.g08.bks.cpg/sg15_112_cif.got.tgz:222729.got - 2010.06.03 18:47:42.
