data_PCOD9266217
_publ_section_title
;
Structure prediction by ZEFSAII (Michael W. Deem and Ramdas Pophale) SiO2 
 PCOD9266217
Probable space group: C 2/C
;
_chemical_formula_sum "Si O2"
_cell_formula_units_Z 48
_cell_length_a 8.623081
_cell_length_b 12.568675
_cell_length_c 26.550435
_cell_angle_alpha 90.000000
_cell_angle_beta 44.105955
_cell_angle_gamma 90.000000
_cell_volume 2002.741972
_symmetry_space_group_name_H-M "C 2/C"
_symmetry_group_IT_number 15
_symmetry_cell_setting 'monoclinic'
loop_
_space_group_symop_operation_xyz
x,y,z
-x,y,1/2-z
-x,-y,-z
x,-y,1/2+z
1/2+x,1/2+y,z
1/2-x,1/2+y,1/2-z
1/2-x,1/2-y,-z
1/2+x,1/2-y,1/2+z
loop_
_atom_site_type_symbol
_atom_site_label
_atom_site_fract_x
_atom_site_fract_y
_atom_site_fract_z
Si Si1 0.561309 0.621266 0.181242
Si Si2 0.531964 0.847920 0.589308
Si Si3 0.515518 0.371940 0.450677
Si Si4 0.105314 0.292335 0.080122
Si Si5 0.358609 0.765716 0.830680
Si Si6 0.249889 0.001292 0.313135
O O1 0.500000 0.668052 0.250000
O O2 0.563298 0.709408 0.136369
O O3 0.377394 0.534417 0.208228
O O4 0.815189 0.581394 0.129155
O O5 0.513336 0.754031 0.552521
O O6 0.517009 0.785261 0.645977
O O7 0.774383 0.900488 0.528666
O O8 0.735473 0.381479 0.433540
O O9 0.580048 0.432219 0.385051
O O10 0.859396 0.307029 0.114992
O O11 0.250000 0.250000 0.000000
O O12 0.500000 0.727963 0.750000
O O13 0.289193 0.887228 0.832989
O O14 0.500000 0.954346 0.250000
#
# Coordination Sequence:
#
# PCOD9266217 Si02
#       6
#     8   8   8   8   8   8
#     4  10  21  39  64  84 122 172 207 254 324 390
#     4  10  20  38  60  87 121 159 202 249 314 385
#     4  10  22  37  60  88 125 156 198 262 314 367
#     4  10  19  37  61  92 123 160 208 257 310 381
#     4  10  20  37  61  86 118 164 209 249 309 389
#     4  10  22  39  59  89 122 157 211 261 310 378
#
# _framework density 23.967141000000002
#
# number of rings (size 3 to 8) (size 9 to 14) (size 15 to 20)
#    0.000    2.000    1.667    3.000    0.000    5.333 
#    0.000    4.167    0.000    0.000    0.000    0.000 
#    0.000    0.000    0.000    0.000    0.000    0.000 
#
# Total GULP energy -133887.303338 kJ/mol
# GULP energy per Si atom -5578.637639 kJ/mol
# Density = 2.391259 g / cm^3
# Si number density = 23.967141 Si / 1000 Ang^3
#
#
#
# Elastic Constant Matrix: (Units=GPa)
#
#
# Indices 1 2 3 4 5 6 
#
# 1 129.6504 8.0915 51.3614 -0.0001 -17.4769 0.0001
# 2 8.0915 44.1175 27.0016 0.0000 1.3286 0.0000
# 3 51.3614 27.0016 141.1498 -0.0001 -10.7667 0.0001
# 4 -0.0001 0.0000 -0.0001 23.2918 0.0001 22.0849
# 5 -17.4769 1.3286 -10.7667 0.0001 57.7524 -0.0001
# 6 0.0001 0.0000 0.0001 22.0849 -0.0001 -5.9006
#
#
#
# Elastic Compliance Matrix: (Units=1/GPa)
#
#
# Indices 1 2 3 4 5 6 
#
# 1 0.009284 0.000222 -0.003253 0.000000 0.002198 0.000000
# 2 0.000222 0.025811 -0.005132 0.000000 -0.001483 0.000000
# 3 -0.003253 -0.005132 0.009316 0.000000 0.000870 0.000000
# 4 0.000000 0.000000 0.000000 0.009438 0.000000 0.035326
# 5 0.002198 -0.001483 0.000870 0.000000 0.018177 0.000000
# 6 0.000000 0.000000 0.000000 0.035326 0.000000 -0.037256
#
#
# Mechanical properties :
#
#
# Convention : Reuss Voigt Hill
#
# Bulk Modulus (GPa) = 35.60399 54.20295 44.90347
# Shear Modulus (GPa) = 82.70138 30.25961 56.48049
#
# Velocity S-wave (km/s) = 5.88057 3.55709 4.85973
# Velocity P-wave (km/s) = 7.80997 6.28770 7.08981
#
# Compressibility (1/GPa) = 0.02808674
#
# Stress axis : x y z
#
# Youngs Moduli (GPa) = 107.70964 38.74255 107.33662
#
# Poissons Ratio (x) = -0.00860 0.34918
# Poissons Ratio (y) = -0.02392 0.55081
# Poissons Ratio (z) = 0.35040 0.19881
#
# Static dielectric constant tensor:
#      x y z
#    x 2.007190 0.000000 -0.013460 
#    y 0.000000 1.911720 0.000000 
#    z -0.013460 0.000000 1.977600 
# 
# From -- ./inp_files/189790.got.cif
#   From: 2010.05.17/outbox.cif.g08.bks.cpg/sg15_95_cif.got.tgz:189790.got - 2010.06.03 18:47:42.
