data_PCOD9266616
_publ_section_title
;
Structure prediction by ZEFSAII (Michael W. Deem and Ramdas Pophale) SiO2 
 PCOD9266616
Probable space group: C 2/C
;
_chemical_formula_sum "Si O2"
_cell_formula_units_Z 60
_cell_length_a 20.187857
_cell_length_b 19.946805
_cell_length_c 8.389742
_cell_angle_alpha 90.000000
_cell_angle_beta 105.542546
_cell_angle_gamma 90.000000
_cell_volume 3254.866044
_symmetry_space_group_name_H-M "C 2/C"
_symmetry_group_IT_number 15
_symmetry_cell_setting 'monoclinic'
loop_
_space_group_symop_operation_xyz
x,y,z
-x,y,1/2-z
-x,-y,-z
x,-y,1/2+z
1/2+x,1/2+y,z
1/2-x,1/2+y,1/2-z
1/2-x,1/2-y,-z
1/2+x,1/2-y,1/2+z
loop_
_atom_site_type_symbol
_atom_site_label
_atom_site_fract_x
_atom_site_fract_y
_atom_site_fract_z
Si Si1 0.500000 0.772189 0.250000
Si Si2 0.309145 0.932369 0.993111
Si Si3 0.589847 0.875973 0.925607
Si Si4 0.946840 0.381612 0.965530
Si Si5 0.259612 0.210444 0.347057
Si Si6 0.721349 0.067792 0.649682
Si Si7 0.387497 0.730581 0.407955
Si Si8 0.806468 0.799644 0.125382
O O1 0.542676 0.821357 0.398661
O O2 0.450409 0.726924 0.327422
O O3 0.299165 0.928816 0.177390
O O4 0.390414 0.932370 0.999713
O O5 0.284651 0.863523 0.896690
O O6 0.263133 0.991458 0.887469
O O7 0.524092 0.906446 0.975244
O O8 0.576039 0.862511 0.730293
O O9 0.656319 0.920355 0.992248
O O10 0.608068 0.807570 0.030237
O O11 0.250000 0.250000 0.500000
O O12 0.183486 0.212533 0.223855
O O13 0.315001 0.254183 0.285608
O O14 0.772972 0.128780 0.643980
O O15 0.375388 0.692304 0.566868
O O16 0.750000 0.750000 0.000000
#
# Coordination Sequence:
#
# PCOD9266616 Si02
#       8
#     4   8   8   8   8   8   8   8
#     4  10  20  38  56  88 118 146 204 236 292 342
#     4  12  25  36  56  85 120 157 198 245 289 349
#     4  10  19  38  55  81 112 161 203 237 285 329
#     4  10  21  34  57  78 119 160 196 241 273 343
#     4  11  19  36  58  84 111 153 198 235 299 343
#     4  12  24  39  55  84 120 154 201 246 287 347
#     4  10  20  33  58  82 114 150 190 245 284 348
#     4  10  20  35  59  81 111 152 191 241 296 338
#
# _framework density 18.433938999999999
#
# number of rings (size 3 to 8) (size 9 to 14) (size 15 to 20)
#    0.000    1.333    4.000    4.000    5.600    0.533 
#    0.000    1.333    0.000    0.000    0.000    0.933 
#    0.000    0.000    0.000    0.000    0.000    0.000 
#
# Total GULP energy -167037.729448 kJ/mol
# GULP energy per Si atom -5567.924315 kJ/mol
# Density = 1.839198 g / cm^3
# Si number density = 18.433939 Si / 1000 Ang^3
#
#
#
# Elastic Constant Matrix: (Units=GPa)
#
#
# Indices 1 2 3 4 5 6 
#
# 1 76.5217 35.6591 31.1467 0.0000 -36.9980 0.0000
# 2 35.6591 107.3658 25.7077 0.0000 -11.9836 0.0000
# 3 31.1467 25.7077 88.7661 0.0000 -23.2957 0.0000
# 4 0.0000 0.0000 0.0000 22.0528 0.0000 -1.6629
# 5 -36.9980 -11.9836 -23.2957 0.0000 39.3697 0.0000
# 6 0.0000 0.0000 0.0000 -1.6629 0.0000 19.3857
#
#
#
# Elastic Compliance Matrix: (Units=1/GPa)
#
#
# Indices 1 2 3 4 5 6 
#
# 1 0.028026 -0.006250 -0.001907 0.000000 0.023306 0.000000
# 2 -0.006250 0.011485 -0.002080 0.000000 -0.003609 0.000000
# 3 -0.001907 -0.002080 0.014088 0.000000 0.005911 0.000000
# 4 0.000000 0.000000 0.000000 0.045641 0.000000 0.003915
# 5 0.023306 -0.003609 0.005911 0.000000 0.049702 0.000000
# 6 0.000000 0.000000 0.000000 0.003915 0.000000 0.051920
#
#
# Mechanical properties :
#
#
# Convention : Reuss Voigt Hill
#
# Bulk Modulus (GPa) = 30.18933 50.85339 40.52136
# Shear Modulus (GPa) = 21.51663 28.17097 24.84380
#
# Velocity S-wave (km/s) = 3.42018 3.91348 3.67511
# Velocity P-wave (km/s) = 5.65769 6.93305 6.32758
#
# Compressibility (1/GPa) = 0.03312429
#
# Stress axis : x y z
#
# Youngs Moduli (GPa) = 35.68170 87.06947 70.98008
#
# Poissons Ratio (x) = 0.54419 0.13537
# Poissons Ratio (y) = 0.22301 0.14765
# Poissons Ratio (z) = 0.06805 0.18112
#
# Static dielectric constant tensor:
#      x y z
#    x 1.803260 0.000000 -0.130110 
#    y 0.000000 1.666900 0.000000 
#    z -0.130110 0.000000 1.801860 
# 
# From -- ./inp_files/56652.got.cif
#   From: 2010.05.17/outbox.cif.g08.bks.cpg/sg15_29_cif.got.tgz:56652.got - 2010.06.03 18:47:42.
