data_PCOD9266690
_publ_section_title
;
Structure prediction by ZEFSAII (Michael W. Deem and Ramdas Pophale) SiO2 
 PCOD9266690
Probable space group: C 2/C
;
_chemical_formula_sum "Si O2"
_cell_formula_units_Z 52
_cell_length_a 14.964303
_cell_length_b 11.923648
_cell_length_c 15.905973
_cell_angle_alpha 90.000000
_cell_angle_beta 108.721951
_cell_angle_gamma 90.000000
_cell_volume 2687.917462
_symmetry_space_group_name_H-M "C 2/C"
_symmetry_group_IT_number 15
_symmetry_cell_setting 'monoclinic'
loop_
_space_group_symop_operation_xyz
x,y,z
-x,y,1/2-z
-x,-y,-z
x,-y,1/2+z
1/2+x,1/2+y,z
1/2-x,1/2+y,1/2-z
1/2-x,1/2-y,-z
1/2+x,1/2-y,1/2+z
loop_
_atom_site_type_symbol
_atom_site_label
_atom_site_fract_x
_atom_site_fract_y
_atom_site_fract_z
Si Si1 0.334153 0.877824 0.256969
Si Si2 0.340013 0.273057 0.918900
Si Si3 0.012919 0.055331 0.092305
Si Si4 0.104611 0.835792 0.823258
Si Si5 0.877063 0.727065 0.121108
Si Si6 0.633556 0.434544 0.252818
Si Si7 0.000000 0.453623 0.750000
O O1 0.345516 0.831933 0.356502
O O2 0.346245 0.775942 0.193820
O O3 0.225128 0.914393 0.222719
O O4 0.415795 0.968233 0.261495
O O5 0.395987 0.367195 0.886392
O O6 0.232206 0.309525 0.900496
O O7 0.384978 0.256479 0.024736
O O8 0.924971 0.134371 0.090735
O O9 0.041038 0.961599 0.169272
O O10 0.000000 0.000000 0.000000
O O11 0.000000 0.829695 0.750000
O O12 0.154009 0.949439 0.807850
O O13 0.881762 0.831566 0.187803
O O14 0.949625 0.630163 0.168766
#
# Coordination Sequence:
#
# PCOD9266690 Si02
#       7
#     8   8   8   8   8   8   4
#     4  11  21  40  64  84 121 165 200 247 314 363
#     4  10  20  42  59  87 120 172 193 248 317 365
#     4  11  21  35  64  88 120 157 209 251 305 366
#     4  10  19  38  59  85 115 155 202 244 299 370
#     4  10  24  37  62  89 129 152 208 252 308 364
#     4  10  22  38  60  88 119 158 200 250 308 362
#     4  12  24  36  60  96 116 160 206 262 288 368
#
# _framework density 19.345832000000001
#
# number of rings (size 3 to 8) (size 9 to 14) (size 15 to 20)
#    0.000    1.538    3.846    1.846    7.538    0.615 
#    0.000    0.769    0.000    0.000    0.000    0.000 
#    0.000    0.000    0.000    0.000    0.000    0.000 
#
# Total GULP energy -144891.473096 kJ/mol
# GULP energy per Si atom -5572.748965 kJ/mol
# Density = 1.930180 g / cm^3
# Si number density = 19.345832 Si / 1000 Ang^3
#
#
#
# Elastic Constant Matrix: (Units=GPa)
#
#
# Indices 1 2 3 4 5 6 
#
# 1 102.5222 49.0693 11.7940 0.0000 -19.9000 0.0000
# 2 49.0693 99.2259 23.3178 0.0000 -7.7698 0.0000
# 3 11.7940 23.3178 84.7169 0.0000 -15.4310 0.0000
# 4 0.0000 0.0000 0.0000 23.2994 0.0000 -7.5336
# 5 -19.9000 -7.7698 -15.4310 0.0000 27.5861 0.0000
# 6 0.0000 0.0000 0.0000 -7.5336 0.0000 42.2316
#
#
#
# Elastic Compliance Matrix: (Units=1/GPa)
#
#
# Indices 1 2 3 4 5 6 
#
# 1 0.014738 -0.006913 0.001596 0.000000 0.009577 0.000000
# 2 -0.006913 0.014076 -0.003450 0.000000 -0.002952 0.000000
# 3 0.001596 -0.003450 0.013989 0.000000 0.008005 0.000000
# 4 0.000000 0.000000 0.000000 0.045547 0.000000 0.008125
# 5 0.009577 -0.002952 0.008005 0.000000 0.046805 0.000000
# 6 0.000000 0.000000 0.000000 0.008125 0.000000 0.025128
#
#
# Mechanical properties :
#
#
# Convention : Reuss Voigt Hill
#
# Bulk Modulus (GPa) = 39.57432 50.53637 45.05534
# Shear Modulus (GPa) = 26.84675 32.10901 29.47788
#
# Velocity S-wave (km/s) = 3.72926 4.07841 3.90774
# Velocity P-wave (km/s) = 6.24851 6.95393 6.61064
#
# Compressibility (1/GPa) = 0.02526891
#
# Stress axis : x y z
#
# Youngs Moduli (GPa) = 67.85026 71.04118 71.48253
#
# Poissons Ratio (x) = 0.49114 -0.11405
# Poissons Ratio (y) = 0.46908 0.24659
# Poissons Ratio (z) = -0.10826 0.24507
#
# Static dielectric constant tensor:
#      x y z
#    x 1.698760 0.000000 -0.026420 
#    y 0.000000 1.718420 0.000000 
#    z -0.026420 0.000000 1.790850 
# 
# From -- ./inp_files/152687.got.cif
#   From: 2010.05.17/outbox.cif.g08.bks.cpg/sg15_77_cif.got.tgz:152687.got - 2010.06.03 18:47:42.
