data_PCOD9266142
_publ_section_title
;
Structure prediction by ZEFSAII (Michael W. Deem and Ramdas Pophale) SiO2 
 PCOD9266142
Probable space group: C 2/C
;
_chemical_formula_sum "Si O2"
_cell_formula_units_Z 64
_cell_length_a 12.254956
_cell_length_b 12.423656
_cell_length_c 20.639918
_cell_angle_alpha 90.000000
_cell_angle_beta 59.256214
_cell_angle_gamma 90.000000
_cell_volume 2700.820676
_symmetry_space_group_name_H-M "C 2/C"
_symmetry_group_IT_number 15
_symmetry_cell_setting 'monoclinic'
loop_
_space_group_symop_operation_xyz
x,y,z
-x,y,1/2-z
-x,-y,-z
x,-y,1/2+z
1/2+x,1/2+y,z
1/2-x,1/2+y,1/2-z
1/2-x,1/2-y,-z
1/2+x,1/2-y,1/2+z
loop_
_atom_site_type_symbol
_atom_site_label
_atom_site_fract_x
_atom_site_fract_y
_atom_site_fract_z
Si Si1 0.772464 0.159048 0.409011
Si Si2 0.656833 0.483029 0.510101
Si Si3 0.500658 0.413728 0.327842
Si Si4 0.044828 0.463648 0.809837
Si Si5 0.593189 0.658598 0.447690
Si Si6 0.535070 0.783943 0.340522
Si Si7 0.676210 0.397772 0.740541
Si Si8 0.479466 0.783277 0.591379
O O1 0.819286 0.078173 0.337368
O O2 0.644736 0.202992 0.416168
O O3 0.890235 0.239973 0.383948
O O4 0.746445 0.096986 0.483862
O O5 0.607392 0.555480 0.585851
O O6 0.686246 0.561631 0.441222
O O7 0.540759 0.405631 0.521875
O O8 0.500000 0.393246 0.250000
O O9 0.588685 0.519110 0.304770
O O10 0.553453 0.305395 0.344416
O O11 0.042701 0.589167 0.829525
O O12 0.186196 0.415045 0.772537
O O13 0.977974 0.390949 0.884925
O O14 0.000000 0.451559 0.750000
O O15 0.605475 0.734461 0.382208
O O16 0.583677 0.738515 0.510966
O O17 0.615692 0.720367 0.261854
#
# Coordination Sequence:
#
# PCOD9266142 Si02
#       8
#     8   8   8   8   8   8   8   8
#     4  10  19  37  60  92 121 150 210 245 306 348
#     4   9  17  32  57  90 117 149 204 258 279 349
#     4  11  18  34  61  93 117 153 200 257 303 339
#     4  11  26  42  58  88 125 158 201 244 315 377
#     4   9  19  37  58  87 126 158 202 242 305 353
#     4  11  22  40  64  88 119 163 198 256 296 367
#     4  11  21  36  62  89 115 150 204 260 305 347
#     4  10  24  37  58  92 126 167 192 246 299 365
#
# _framework density 23.696501000000001
#
# number of rings (size 3 to 8) (size 9 to 14) (size 15 to 20)
#    0.000    1.750    3.750    1.500    5.250    2.500 
#    0.000    1.250    0.000    3.750    0.000    0.000 
#    0.000    0.000    0.000    0.000    0.000    0.000 
#
# Total GULP energy -178496.013150 kJ/mol
# GULP energy per Si atom -5578.000411 kJ/mol
# Density = 2.364257 g / cm^3
# Si number density = 23.696501 Si / 1000 Ang^3
#
#
#
# Elastic Constant Matrix: (Units=GPa)
#
#
# Indices 1 2 3 4 5 6 
#
# 1 89.0451 55.2462 27.0306 0.0000 25.9860 0.0000
# 2 55.2462 141.4841 26.5994 0.0000 31.0370 0.0000
# 3 27.0306 26.5994 67.7125 0.0000 40.8642 0.0000
# 4 0.0000 0.0000 0.0000 75.6896 0.0000 56.2232
# 5 25.9860 31.0370 40.8642 0.0000 35.0992 0.0000
# 6 0.0000 0.0000 0.0000 56.2232 0.0000 62.7662
#
#
#
# Elastic Compliance Matrix: (Units=1/GPa)
#
#
# Indices 1 2 3 4 5 6 
#
# 1 0.016485 -0.004627 0.000448 0.000000 -0.008635 0.000000
# 2 -0.004627 0.010429 0.004198 0.000000 -0.010684 0.000000
# 3 0.000448 0.004198 0.051721 0.000000 -0.064260 0.000000
# 4 0.000000 0.000000 0.000000 0.039483 0.000000 -0.035367
# 5 -0.008635 -0.010684 -0.064260 0.000000 0.119146 0.000000
# 6 0.000000 0.000000 0.000000 -0.035367 0.000000 0.047612
#
#
# Mechanical properties :
#
#
# Convention : Reuss Voigt Hill
#
# Bulk Modulus (GPa) = 12.71085 57.33266 35.02176
# Shear Modulus (GPa) = 16.07394 47.33536 31.70465
#
# Velocity S-wave (km/s) = 2.60729 4.47426 3.66176
# Velocity P-wave (km/s) = 3.79995 7.13717 5.71746
#
# Compressibility (1/GPa) = 0.07867293
#
# Stress axis : x y z
#
# Youngs Moduli (GPa) = 60.66153 95.88515 19.33450
#
# Poissons Ratio (x) = 0.44366 -0.00866
# Poissons Ratio (y) = 0.28068 -0.08116
# Poissons Ratio (z) = -0.02718 -0.40252
#
# Static dielectric constant tensor:
#      x y z
#    x 1.939330 0.000000 -0.007440 
#    y 0.000000 1.922240 0.000000 
#    z -0.007440 0.000000 1.981120 
# 
# From -- ./inp_files/269243.got.cif
#   From: 2010.05.17/outbox.cif.g08.bks.cpg/sg15_135_cif.got.tgz:269243.got - 2010.06.03 18:47:42.
