data_PCOD9266559
_publ_section_title
;
Structure prediction by ZEFSAII (Michael W. Deem and Ramdas Pophale) SiO2 
 PCOD9266559
Probable space group: C 2/C
;
_chemical_formula_sum "Si O2"
_cell_formula_units_Z 36
_cell_length_a 9.210939
_cell_length_b 11.984922
_cell_length_c 22.234866
_cell_angle_alpha 90.000000
_cell_angle_beta 138.358606
_cell_angle_gamma 90.000000
_cell_volume 1630.972321
_symmetry_space_group_name_H-M "C 2/C"
_symmetry_group_IT_number 15
_symmetry_cell_setting 'monoclinic'
loop_
_space_group_symop_operation_xyz
x,y,z
-x,y,1/2-z
-x,-y,-z
x,-y,1/2+z
1/2+x,1/2+y,z
1/2-x,1/2+y,1/2-z
1/2-x,1/2-y,-z
1/2+x,1/2-y,1/2+z
loop_
_atom_site_type_symbol
_atom_site_label
_atom_site_fract_x
_atom_site_fract_y
_atom_site_fract_z
Si Si1 0.982284 0.378888 0.524693
Si Si2 0.000000 0.555794 0.750000
Si Si3 0.934525 0.757834 0.645783
Si Si4 0.793596 0.564034 0.293829
Si Si5 0.729009 0.329351 0.341436
O O1 0.202581 0.316681 0.572208
O O2 0.004745 0.389513 0.603548
O O3 0.000000 0.500000 0.500000
O O4 0.769563 0.330723 0.425397
O O5 0.102221 0.642707 0.829290
O O6 0.847784 0.479773 0.744201
O O7 0.111242 0.840972 0.731330
O O8 0.059963 0.727343 0.623394
O O9 0.725585 0.453505 0.310444
O O10 0.500000 0.276907 0.250000
#
# Coordination Sequence:
#
# PCOD9266559 Si02
#       5
#     8   4   8   8   8
#     4  10  19  37  67  95 124 176 215 263 331 380
#     4  10  22  36  64 102 126 178 214 258 332 384
#     4  11  20  39  66  91 133 173 210 273 324 381
#     4  10  20  37  65  89 135 165 219 268 320 386
#     4  10  22  37  63  94 127 175 225 260 326 392
#
# _framework density 22.072721000000001
#
# number of rings (size 3 to 8) (size 9 to 14) (size 15 to 20)
#    0.000    1.778    2.222    3.333    1.556    0.000 
#    0.000    1.111    9.778   10.667    0.000    0.000 
#    0.000    0.000    0.000    0.000    0.000    0.000 
#
# Total GULP energy -100352.057381 kJ/mol
# GULP energy per Si atom -5575.114299 kJ/mol
# Density = 2.202248 g / cm^3
# Si number density = 22.072721 Si / 1000 Ang^3
#
#
#
# Elastic Constant Matrix: (Units=GPa)
#
#
# Indices 1 2 3 4 5 6 
#
# 1 73.3080 30.6538 24.5047 0.0000 -9.4684 0.0000
# 2 30.6538 80.8629 23.1458 0.0000 -4.8384 0.0000
# 3 24.5047 23.1458 113.4283 0.0000 -4.8540 0.0000
# 4 0.0000 0.0000 0.0000 -22.4664 0.0000 14.9753
# 5 -9.4684 -4.8384 -4.8540 0.0000 20.5217 0.0000
# 6 0.0000 0.0000 0.0000 14.9753 0.0000 18.8585
#
#
#
# Elastic Compliance Matrix: (Units=1/GPa)
#
#
# Indices 1 2 3 4 5 6 
#
# 1 0.017591 -0.005612 -0.002389 0.000000 0.006228 0.000000
# 2 -0.005612 0.015051 -0.001836 0.000000 0.000525 0.000000
# 3 -0.002389 -0.001836 0.009740 0.000000 0.000769 0.000000
# 4 0.000000 0.000000 0.000000 -0.029105 0.000000 0.023112
# 5 0.006228 0.000525 0.000769 0.000000 0.051908 0.000000
# 6 0.000000 0.000000 0.000000 0.023112 0.000000 0.034673
#
#
# Mechanical properties :
#
#
# Convention : Reuss Voigt Hill
#
# Bulk Modulus (GPa) = 44.03818 47.13420 45.58619
# Shear Modulus (GPa) = 39.33896 16.00243 27.67070
#
# Velocity S-wave (km/s) = 4.22624 2.69548 3.54448
# Velocity P-wave (km/s) = 6.61888 5.57565 6.11954
#
# Compressibility (1/GPa) = 0.02270757
#
# Stress axis : x y z
#
# Youngs Moduli (GPa) = 56.84879 66.44041 102.67171
#
# Poissons Ratio (x) = 0.37286 0.24523
# Poissons Ratio (y) = 0.31903 0.18855
# Poissons Ratio (z) = 0.13578 0.12201
#
# Static dielectric constant tensor:
#      x y z
#    x 1.882090 0.000000 -0.048230 
#    y 0.000000 1.826250 0.000000 
#    z -0.048230 0.000000 1.864650 
# 
# From -- ./inp_files/141283.got.cif
#   From: 2010.05.17/outbox.cif.g08.bks.cpg/sg15_71_cif.got.tgz:141283.got - 2010.06.03 18:47:42.
