data_PCOD9266541
_publ_section_title
;
Structure prediction by ZEFSAII (Michael W. Deem and Ramdas Pophale) SiO2 
 PCOD9266541
Probable space group: C 2/C
;
_chemical_formula_sum "Si O2"
_cell_formula_units_Z 48
_cell_length_a 14.992433
_cell_length_b 7.273853
_cell_length_c 19.160723
_cell_angle_alpha 90.000000
_cell_angle_beta 72.025017
_cell_angle_gamma 90.000000
_cell_volume 1987.542491
_symmetry_space_group_name_H-M "C 2/C"
_symmetry_group_IT_number 15
_symmetry_cell_setting 'monoclinic'
loop_
_space_group_symop_operation_xyz
x,y,z
-x,y,1/2-z
-x,-y,-z
x,-y,1/2+z
1/2+x,1/2+y,z
1/2-x,1/2+y,1/2-z
1/2-x,1/2-y,-z
1/2+x,1/2-y,1/2+z
loop_
_atom_site_type_symbol
_atom_site_label
_atom_site_fract_x
_atom_site_fract_y
_atom_site_fract_z
Si Si1 0.872078 0.154788 0.698695
Si Si2 0.635556 0.203476 0.572043
Si Si3 0.610349 0.497146 0.961674
Si Si4 0.559449 0.026761 0.831796
Si Si5 0.676018 0.295068 0.713807
Si Si6 0.889519 0.571940 0.531998
O O1 0.688275 0.262947 0.628739
O O2 0.774244 0.265093 0.729691
O O3 0.870341 0.989172 0.754276
O O4 0.952981 0.310613 0.682067
O O5 0.642504 0.362711 0.513167
O O6 0.530565 0.148566 0.624574
O O7 0.660806 0.025904 0.520033
O O8 0.633629 0.285349 0.967047
O O9 0.628411 0.562257 0.878154
O O10 0.500000 0.500000 0.000000
O O11 0.609027 0.133231 0.757775
O O12 0.627603 0.022217 0.883391
O O13 0.000000 0.500000 0.500000
#
# Coordination Sequence:
#
# PCOD9266541 Si02
#       6
#     8   8   8   8   8   8
#     4  12  25  44  73  93 142 194 223 274 362 423
#     4  11  24  41  69 106 135 165 238 302 321 397
#     4  12  20  40  71 102 133 180 229 279 351 413
#     4  11  21  43  70  97 137 184 224 277 349 411
#     4  12  26  45  67 100 140 183 233 281 345 420
#     4  10  19  37  66  97 131 171 217 277 348 399
#
# _framework density 24.150428000000002
#
# number of rings (size 3 to 8) (size 9 to 14) (size 15 to 20)
#    0.000    0.667    8.333    1.500    0.000    2.000 
#    0.000    4.167    0.000    0.000    0.000    0.000 
#    0.000    0.000    0.000    0.000    0.000    0.000 
#
# Total GULP energy -134124.465514 kJ/mol
# GULP energy per Si atom -5588.519396 kJ/mol
# Density = 2.409546 g / cm^3
# Si number density = 24.150428 Si / 1000 Ang^3
#
#
#
# Elastic Constant Matrix: (Units=GPa)
#
#
# Indices 1 2 3 4 5 6 
#
# 1 40.8573 6.5300 7.6746 0.0000 -4.8240 0.0000
# 2 6.5300 194.3797 43.7644 0.0000 10.7667 0.0000
# 3 7.6746 43.7644 124.3311 0.0000 19.1969 0.0000
# 4 0.0000 0.0000 0.0000 44.9936 0.0000 0.0956
# 5 -4.8240 10.7667 19.1969 0.0000 37.6361 0.0000
# 6 0.0000 0.0000 0.0000 0.0956 0.0000 18.9051
#
#
#
# Elastic Compliance Matrix: (Units=1/GPa)
#
#
# Indices 1 2 3 4 5 6 
#
# 1 0.025492 -0.000646 -0.002040 0.000000 0.004493 0.000000
# 2 -0.000646 0.005618 -0.001820 0.000000 -0.000762 0.000000
# 3 -0.002040 -0.001820 0.009519 0.000000 -0.004596 0.000000
# 4 0.000000 0.000000 0.000000 0.022226 0.000000 -0.000112
# 5 0.004493 -0.000762 -0.004596 0.000000 0.029708 0.000000
# 6 0.000000 0.000000 0.000000 -0.000112 0.000000 0.052896
#
#
# Mechanical properties :
#
#
# Convention : Reuss Voigt Hill
#
# Bulk Modulus (GPa) = 31.62768 52.83403 42.23086
# Shear Modulus (GPa) = 30.30092 40.41357 35.35725
#
# Velocity S-wave (km/s) = 3.54598 4.09517 3.83043
# Velocity P-wave (km/s) = 5.46716 6.65471 6.08995
#
# Compressibility (1/GPa) = 0.03161787
#
# Stress axis : x y z
#
# Youngs Moduli (GPa) = 39.22755 177.99099 105.04961
#
# Poissons Ratio (x) = 0.11498 0.21429
# Poissons Ratio (y) = 0.02534 0.19121
# Poissons Ratio (z) = 0.08002 0.32397
#
# Static dielectric constant tensor:
#      x y z
#    x 2.061200 0.000000 -0.022070 
#    y 0.000000 1.883400 0.000000 
#    z -0.022070 0.000000 1.909920 
# 
# From -- ./inp_files/242313.got.cif
#   From: 2010.05.17/outbox.cif.g08.bks.cpg/sg15_122_cif.got.tgz:242313.got - 2010.06.03 18:47:42.
