data_PCOD9266596
_publ_section_title
;
Structure prediction by ZEFSAII (Michael W. Deem and Ramdas Pophale) SiO2 
 PCOD9266596
Probable space group: C 2/C
;
_chemical_formula_sum "Si O2"
_cell_formula_units_Z 40
_cell_length_a 8.218080
_cell_length_b 24.683344
_cell_length_c 9.532086
_cell_angle_alpha 90.000000
_cell_angle_beta 72.972912
_cell_angle_gamma 90.000000
_cell_volume 1848.824984
_symmetry_space_group_name_H-M "C 2/C"
_symmetry_group_IT_number 15
_symmetry_cell_setting 'monoclinic'
loop_
_space_group_symop_operation_xyz
x,y,z
-x,y,1/2-z
-x,-y,-z
x,-y,1/2+z
1/2+x,1/2+y,z
1/2-x,1/2+y,1/2-z
1/2-x,1/2-y,-z
1/2+x,1/2-y,1/2+z
loop_
_atom_site_type_symbol
_atom_site_label
_atom_site_fract_x
_atom_site_fract_y
_atom_site_fract_z
Si Si1 0.137872 0.278307 0.905807
Si Si2 0.832982 0.887067 0.881634
Si Si3 0.323781 0.405316 0.214686
Si Si4 0.620919 0.012957 0.338753
Si Si5 0.848681 0.294673 0.169990
O O1 0.195647 0.340464 0.886466
O O2 0.200659 0.245789 0.755400
O O3 0.250000 0.250000 0.000000
O O4 0.944675 0.276759 0.005528
O O5 0.000000 0.872986 0.750000
O O6 0.763305 0.944678 0.848546
O O7 0.858196 0.890417 0.043164
O O8 0.500000 0.415078 0.250000
O O9 0.206927 0.458447 0.257436
O O10 0.227199 0.354823 0.310233
O O11 0.500000 0.037266 0.250000
O O12 0.500000 0.000000 0.500000
O O13 0.000000 0.294695 0.250000
#
# Coordination Sequence:
#
# PCOD9266596 Si02
#       5
#     8   8   8   8   8
#     4  10  19  37  72  98 130 179 228 273 340 393
#     4  12  25  43  69 101 139 177 228 282 335 406
#     4  12  26  44  67  99 140 183 222 278 345 404
#     4  12  26  46  71  97 132 178 230 282 342 403
#     4  10  19  39  68  97 131 179 230 273 336 403
#
# _framework density 21.635362000000001
#
# number of rings (size 3 to 8) (size 9 to 14) (size 15 to 20)
#    0.000    0.800    6.000    4.200    2.800    1.600 
#    0.000    2.000    0.000    0.000    0.000    0.000 
#    0.000    0.000    0.000    0.000    0.000    0.000 
#
# Total GULP energy -111909.167056 kJ/mol
# GULP energy per Si atom -5595.458353 kJ/mol
# Density = 2.158612 g / cm^3
# Si number density = 21.635362 Si / 1000 Ang^3
#
#
#
# Elastic Constant Matrix: (Units=GPa)
#
#
# Indices 1 2 3 4 5 6 
#
# 1 86.2125 10.2719 47.9106 0.0000 -25.4734 0.0000
# 2 10.2719 96.3808 28.1431 0.0000 -21.0843 0.0000
# 3 47.9106 28.1431 80.8278 0.0000 -32.2475 0.0000
# 4 0.0000 0.0000 0.0000 24.8149 0.0000 -8.4366
# 5 -25.4734 -21.0843 -32.2475 0.0000 52.3804 0.0000
# 6 0.0000 0.0000 0.0000 -8.4366 0.0000 14.4401
#
#
#
# Elastic Compliance Matrix: (Units=1/GPa)
#
#
# Indices 1 2 3 4 5 6 
#
# 1 0.017848 0.001696 -0.009855 0.000000 0.003295 0.000000
# 2 0.001696 0.012049 -0.003893 0.000000 0.003278 0.000000
# 3 -0.009855 -0.003893 0.022577 0.000000 0.007540 0.000000
# 4 0.000000 0.000000 0.000000 0.050287 0.000000 0.029380
# 5 0.003295 0.003278 0.007540 0.000000 0.026655 0.000000
# 6 0.000000 0.000000 0.000000 0.029380 0.000000 0.086417
#
#
# Mechanical properties :
#
#
# Convention : Reuss Voigt Hill
#
# Bulk Modulus (GPa) = 35.24824 48.45248 41.85036
# Shear Modulus (GPa) = 20.04875 30.13343 25.09109
#
# Velocity S-wave (km/s) = 3.04742 3.73605 3.40917
# Velocity P-wave (km/s) = 5.35814 6.40738 5.90611
#
# Compressibility (1/GPa) = 0.02837021
#
# Stress axis : x y z
#
# Youngs Moduli (GPa) = 56.03025 82.99753 44.29265
#
# Poissons Ratio (x) = -0.14080 0.43651
# Poissons Ratio (y) = -0.09505 0.17242
# Poissons Ratio (z) = 0.55218 0.32309
#
# Static dielectric constant tensor:
#      x y z
#    x 1.764350 0.000000 0.011370 
#    y 0.000000 1.751440 0.000000 
#    z 0.011370 0.000000 1.975310 
# 
# From -- ./inp_files/23640.got.cif
#   From: 2010.05.17/outbox.cif.g08.bks.cpg/sg15_12_cif.got.tgz:23640.got - 2010.06.03 18:47:42.
