data_PCOD9266024
_publ_section_title
;
Structure prediction by ZEFSAII (Michael W. Deem and Ramdas Pophale) SiO2 
 PCOD9266024
Probable space group: C 2/C
;
_chemical_formula_sum "Si O2"
_cell_formula_units_Z 60
_cell_length_a 12.101026
_cell_length_b 21.237580
_cell_length_c 18.338506
_cell_angle_alpha 90.000000
_cell_angle_beta 139.345931
_cell_angle_gamma 90.000000
_cell_volume 3070.430133
_symmetry_space_group_name_H-M "C 2/C"
_symmetry_group_IT_number 15
_symmetry_cell_setting 'monoclinic'
loop_
_space_group_symop_operation_xyz
x,y,z
-x,y,1/2-z
-x,-y,-z
x,-y,1/2+z
1/2+x,1/2+y,z
1/2-x,1/2+y,1/2-z
1/2-x,1/2-y,-z
1/2+x,1/2-y,1/2+z
loop_
_atom_site_type_symbol
_atom_site_label
_atom_site_fract_x
_atom_site_fract_y
_atom_site_fract_z
Si Si1 0.000000 0.388858 0.250000
Si Si2 0.078409 0.303527 0.490993
Si Si3 0.325026 0.332451 0.486604
Si Si4 0.969286 0.066254 0.579208
Si Si5 0.779733 0.472355 0.419653
Si Si6 0.305507 0.108983 0.786168
Si Si7 0.620112 0.568937 0.121045
Si Si8 0.130410 0.413370 0.623281
O O1 0.160074 0.348022 0.355759
O O2 0.075690 0.422875 0.216776
O O3 0.245495 0.318156 0.525974
O O4 0.078099 0.228537 0.495444
O O5 0.092646 0.344799 0.571141
O O6 0.914141 0.330748 0.366034
O O7 0.449669 0.391425 0.551278
O O8 0.868444 0.049833 0.601620
O O9 0.848935 0.078597 0.449701
O O10 0.114305 0.118866 0.662243
O O11 0.077171 0.004063 0.612793
O O12 0.782473 0.434514 0.345118
O O13 0.775951 0.545187 0.393324
O O14 0.956265 0.452356 0.545605
O O15 0.762141 0.588558 0.249561
#
# Coordination Sequence:
#
# PCOD9266024 Si02
#       8
#     4   8   8   8   8   8   8   8
#     4  10  20  36  60  88 128 154 194 244 314 366
#     4   9  21  35  59  87 115 159 199 245 309 357
#     4  10  20  37  56  90 122 157 199 250 309 367
#     4  11  22  38  58  89 122 157 200 244 303 366
#     4  10  21  38  60  87 120 155 201 247 301 359
#     4  10  19  37  59  87 118 156 195 246 300 360
#     4  11  23  37  55  91 121 158 197 247 309 353
#     4  10  21  38  56  87 120 156 199 249 303 358
#
# _framework density 19.541236000000001
#
# number of rings (size 3 to 8) (size 9 to 14) (size 15 to 20)
#    0.000    1.867    2.667    1.200    0.000    6.400 
#    0.000    0.000    0.000    3.200    6.933    0.000 
#    0.000    0.000    0.000    0.000    0.000    0.000 
#
# Total GULP energy -167321.662906 kJ/mol
# GULP energy per Si atom -5577.388764 kJ/mol
# Density = 1.949676 g / cm^3
# Si number density = 19.541236 Si / 1000 Ang^3
#
#
#
# Elastic Constant Matrix: (Units=GPa)
#
#
# Indices 1 2 3 4 5 6 
#
# 1 101.7435 3.1091 30.0283 0.0000 -5.6406 0.0000
# 2 3.1091 60.2105 28.7069 0.0000 5.9735 0.0000
# 3 30.0283 28.7069 146.4084 0.0002 -6.9453 0.0002
# 4 0.0000 0.0000 0.0002 13.7884 0.0001 4.9169
# 5 -5.6406 5.9735 -6.9453 0.0001 22.3634 0.0001
# 6 0.0000 0.0000 0.0002 4.9169 0.0001 22.6476
#
#
#
# Elastic Compliance Matrix: (Units=1/GPa)
#
#
# Indices 1 2 3 4 5 6 
#
# 1 0.010555 0.000278 -0.002128 0.000000 0.001927 0.000000
# 2 0.000278 0.019187 -0.004120 0.000000 -0.006334 0.000000
# 3 -0.002128 -0.004120 0.008222 0.000000 0.003117 0.000000
# 4 0.000000 0.000000 0.000000 0.078611 0.000000 -0.017067
# 5 0.001927 -0.006334 0.003117 0.000000 0.047862 0.000000
# 6 0.000000 0.000000 0.000000 -0.017067 0.000000 0.047860
#
#
# Mechanical properties :
#
#
# Convention : Reuss Voigt Hill
#
# Bulk Modulus (GPa) = 38.42389 48.00565 43.21477
# Shear Modulus (GPa) = 21.46752 28.19442 24.83097
#
# Velocity S-wave (km/s) = 3.31807 3.80256 3.56855
# Velocity P-wave (km/s) = 5.86388 6.62563 6.25636
#
# Compressibility (1/GPa) = 0.02602548
#
# Stress axis : x y z
#
# Youngs Moduli (GPa) = 94.74166 52.11989 121.62100
#
# Poissons Ratio (x) = -0.01451 0.25881
# Poissons Ratio (y) = -0.02637 0.50102
# Poissons Ratio (z) = 0.20161 0.21471
#
# Static dielectric constant tensor:
#      x y z
#    x 1.701220 0.000000 -0.025610 
#    y 0.000000 1.682120 0.000000 
#    z -0.025610 0.000000 1.753560 
# 
# From -- ./inp_files/200533.got.cif
#   From: 2010.05.17/outbox.cif.g08.bks.cpg/sg15_101_cif.got.tgz:200533.got - 2010.06.03 18:47:42.
