data_PCOD9266496
_publ_section_title
;
Structure prediction by ZEFSAII (Michael W. Deem and Ramdas Pophale) SiO2 
 PCOD9266496
Probable space group: C 2/C
;
_chemical_formula_sum "Si O2"
_cell_formula_units_Z 60
_cell_length_a 12.352593
_cell_length_b 26.444465
_cell_length_c 12.273706
_cell_angle_alpha 90.000000
_cell_angle_beta 131.903996
_cell_angle_gamma 90.000000
_cell_volume 2983.982081
_symmetry_space_group_name_H-M "C 2/C"
_symmetry_group_IT_number 15
_symmetry_cell_setting 'monoclinic'
loop_
_space_group_symop_operation_xyz
x,y,z
-x,y,1/2-z
-x,-y,-z
x,-y,1/2+z
1/2+x,1/2+y,z
1/2-x,1/2+y,1/2-z
1/2-x,1/2-y,-z
1/2+x,1/2-y,1/2+z
loop_
_atom_site_type_symbol
_atom_site_label
_atom_site_fract_x
_atom_site_fract_y
_atom_site_fract_z
Si Si1 0.416665 0.960409 0.292239
Si Si2 0.527878 0.934790 0.940564
Si Si3 0.452004 0.786530 0.842256
Si Si4 0.299056 0.395264 0.017533
Si Si5 0.263618 0.627029 0.251233
Si Si6 0.620114 0.503436 0.486658
Si Si7 0.765017 0.208326 0.608390
Si Si8 0.000000 0.911372 0.750000
O O1 0.500000 0.932721 0.250000
O O2 0.395498 0.930598 0.390015
O O3 0.519527 0.007381 0.396393
O O4 0.270108 0.984612 0.148868
O O5 0.627113 0.905634 0.921315
O O6 0.365080 0.914473 0.844899
O O7 0.500000 0.802454 0.750000
O O8 0.323197 0.820953 0.800434
O O9 0.377184 0.732047 0.770220
O O10 0.591519 0.794059 0.014314
O O11 0.332817 0.380724 0.916476
O O12 0.368339 0.451189 0.074597
O O13 0.324023 0.345862 0.107979
O O14 0.383064 0.620432 0.239344
O O15 0.500000 0.500000 0.500000
O O16 0.584161 0.550761 0.386973
O O17 0.750000 0.250000 0.500000
#
# Coordination Sequence:
#
# PCOD9266496 Si02
#       8
#     8   8   8   8   8   8   8   4
#     4  11  21  36  56  83 119 161 209 256 296 362
#     4  11  21  34  63  91 109 160 218 257 305 368
#     4  10  19  37  65  96 125 153 203 272 335 384
#     4  12  21  37  62  91 123 165 210 263 319 373
#     4  12  20  40  64  86 125 169 214 257 321 391
#     4  12  25  41  55  86 135 173 210 266 313 380
#     4  10  20  36  61  99 123 154 203 272 340 383
#     4  12  28  42  58  90 128 186 218 244 324 398
#
# _framework density 20.107361000000001
#
# number of rings (size 3 to 8) (size 9 to 14) (size 15 to 20)
#    0.000    0.800    8.000    1.200    3.733    0.000 
#    3.600    1.333    0.000    0.800    1.733    0.000 
#    0.000    0.000    0.000    0.000    0.000    0.000 
#
# Total GULP energy -167355.366533 kJ/mol
# GULP energy per Si atom -5578.512218 kJ/mol
# Density = 2.006160 g / cm^3
# Si number density = 20.107361 Si / 1000 Ang^3
#
#
#
# Elastic Constant Matrix: (Units=GPa)
#
#
# Indices 1 2 3 4 5 6 
#
# 1 152.5098 42.2336 30.4812 0.0000 -4.4201 0.0000
# 2 42.2336 91.7685 17.6811 0.0000 3.7497 0.0000
# 3 30.4812 17.6811 76.0453 0.0000 0.9065 0.0000
# 4 0.0000 0.0000 0.0000 21.1070 0.0000 4.3340
# 5 -4.4201 3.7497 0.9065 0.0000 22.3131 0.0000
# 6 0.0000 0.0000 0.0000 4.3340 0.0000 23.1522
#
#
#
# Elastic Compliance Matrix: (Units=1/GPa)
#
#
# Indices 1 2 3 4 5 6 
#
# 1 0.008034 -0.003312 -0.002477 0.000000 0.002249 0.000000
# 2 -0.003312 0.012847 -0.001627 0.000000 -0.002749 0.000000
# 3 -0.002477 -0.001627 0.014531 0.000000 -0.000808 0.000000
# 4 0.000000 0.000000 0.000000 0.049272 0.000000 -0.009223
# 5 0.002249 -0.002749 -0.000808 0.000000 0.045757 0.000000
# 6 0.000000 0.000000 0.000000 -0.009223 0.000000 0.044919
#
#
# Mechanical properties :
#
#
# Convention : Reuss Voigt Hill
#
# Bulk Modulus (GPa) = 48.59011 55.67951 52.13481
# Shear Modulus (GPa) = 25.37402 28.64298 27.00850
#
# Velocity S-wave (km/s) = 3.55621 3.77835 3.66897
# Velocity P-wave (km/s) = 6.40937 6.84002 6.62819
#
# Compressibility (1/GPa) = 0.02058032
#
# Stress axis : x y z
#
# Youngs Moduli (GPa) = 124.46396 77.83880 68.81936
#
# Poissons Ratio (x) = 0.25782 0.17047
# Poissons Ratio (y) = 0.41225 0.11194
# Poissons Ratio (z) = 0.30831 0.12662
#
# Static dielectric constant tensor:
#      x y z
#    x 1.739440 0.000000 0.022170 
#    y 0.000000 1.781820 0.000000 
#    z 0.022170 0.000000 1.789650 
# 
# From -- ./inp_files/92067.got.cif
#   From: 2010.05.17/outbox.cif.g08.bks.cpg/sg15_47_cif.got.tgz:92067.got - 2010.06.03 18:47:42.
