data_PCOD9266240
_publ_section_title
;
Structure prediction by ZEFSAII (Michael W. Deem and Ramdas Pophale) SiO2 
 PCOD9266240
Probable space group: C 2/C
;
_chemical_formula_sum "Si O2"
_cell_formula_units_Z 56
_cell_length_a 15.516973
_cell_length_b 15.963811
_cell_length_c 13.470484
_cell_angle_alpha 90.000000
_cell_angle_beta 125.740666
_cell_angle_gamma 90.000000
_cell_volume 2708.356453
_symmetry_space_group_name_H-M "C 2/C"
_symmetry_group_IT_number 15
_symmetry_cell_setting 'monoclinic'
loop_
_space_group_symop_operation_xyz
x,y,z
-x,y,1/2-z
-x,-y,-z
x,-y,1/2+z
1/2+x,1/2+y,z
1/2-x,1/2+y,1/2-z
1/2-x,1/2-y,-z
1/2+x,1/2-y,1/2+z
loop_
_atom_site_type_symbol
_atom_site_label
_atom_site_fract_x
_atom_site_fract_y
_atom_site_fract_z
Si Si1 0.119825 0.671288 0.858969
Si Si2 0.326188 0.200420 0.820596
Si Si3 0.221731 0.981542 0.041466
Si Si4 0.386220 0.386686 0.360603
Si Si5 0.255184 0.123688 0.218840
Si Si6 0.098989 0.030052 0.264703
Si Si7 0.561827 0.205568 0.035522
O O1 0.162878 0.719531 0.790962
O O2 0.188194 0.587848 0.914148
O O3 0.000000 0.648850 0.750000
O O4 0.114391 0.716252 0.961375
O O5 0.232768 0.132350 0.761561
O O6 0.287879 0.286044 0.844329
O O7 0.441363 0.175102 0.937953
O O8 0.133024 0.935059 0.049462
O O9 0.263589 0.059033 0.134204
O O10 0.173782 0.001914 0.903199
O O11 0.442775 0.449737 0.324302
O O12 0.438441 0.297074 0.414419
O O13 0.364198 0.143844 0.350740
O O14 0.168614 0.084862 0.236429
O O15 0.000000 0.076098 0.250000
#
# Coordination Sequence:
#
# PCOD9266240 Si02
#       7
#     8   8   8   8   8   8   8
#     4   9  18  35  59  90 108 146 187 238 288 327
#     4   9  20  35  60  84 116 145 190 235 283 329
#     4  10  21  38  56  83 121 143 187 240 275 341
#     4   9  22  38  55  87 114 150 191 232 279 335
#     4  10  22  37  58  89 110 151 190 231 288 332
#     4  11  24  37  58  83 116 154 187 228 288 336
#     4  10  19  37  62  82 115 147 189 237 282 328
#
# _framework density 20.676746000000001
#
# number of rings (size 3 to 8) (size 9 to 14) (size 15 to 20)
#    0.000    2.286    1.429    0.000    6.000    3.429 
#    2.571    5.714    0.000    0.000    0.000    0.000 
#    0.000    0.000    0.000    0.000    0.000    0.000 
#
# Total GULP energy -156323.309560 kJ/mol
# GULP energy per Si atom -5582.975341 kJ/mol
# Density = 2.062968 g / cm^3
# Si number density = 20.676746 Si / 1000 Ang^3
#
#
#
# Elastic Constant Matrix: (Units=GPa)
#
#
# Indices 1 2 3 4 5 6 
#
# 1 36.9059 2.4371 1.9438 0.0000 15.1130 0.0000
# 2 2.4371 60.2918 12.4560 0.0000 -8.2000 0.0000
# 3 1.9438 12.4560 53.8806 0.0000 10.1394 0.0000
# 4 0.0000 0.0000 0.0000 22.0942 0.0000 0.2261
# 5 15.1130 -8.2000 10.1394 0.0000 24.2674 0.0000
# 6 0.0000 0.0000 0.0000 0.2261 0.0000 10.4949
#
#
#
# Elastic Compliance Matrix: (Units=1/GPa)
#
#
# Indices 1 2 3 4 5 6 
#
# 1 0.039086 -0.006665 0.005573 0.000000 -0.028922 0.000000
# 2 -0.006665 0.020206 -0.007051 0.000000 0.013924 0.000000
# 3 0.005573 -0.007051 0.022890 0.000000 -0.015417 0.000000
# 4 0.000000 0.000000 0.000000 0.045271 0.000000 -0.000975
# 5 -0.028922 0.013924 -0.015417 0.000000 0.070366 0.000000
# 6 0.000000 0.000000 0.000000 -0.000975 0.000000 0.095306
#
#
# Mechanical properties :
#
#
# Convention : Reuss Voigt Hill
#
# Bulk Modulus (GPa) = 15.17525 20.52801 17.85163
# Shear Modulus (GPa) = 15.08862 20.32073 17.70468
#
# Velocity S-wave (km/s) = 2.70430 3.13834 2.92937
# Velocity P-wave (km/s) = 4.13596 4.80436 4.48263
#
# Compressibility (1/GPa) = 0.06589679
#
# Stress axis : x y z
#
# Youngs Moduli (GPa) = 25.58445 49.49048 43.68753
#
# Poissons Ratio (x) = 0.32985 -0.24349
# Poissons Ratio (y) = 0.17052 0.30804
# Poissons Ratio (z) = -0.14259 0.34896
#
# Static dielectric constant tensor:
#      x y z
#    x 1.745870 0.000000 0.010730 
#    y 0.000000 1.717620 0.000000 
#    z 0.010730 0.000000 1.752450 
# 
# From -- ./inp_files/105792.got.cif
#   From: 2010.05.17/outbox.cif.g08.bks.cpg/sg15_53_cif.got.tgz:105792.got - 2010.06.03 18:47:42.
