data_PCOD9266653
_publ_section_title
;
Structure prediction by ZEFSAII (Michael W. Deem and Ramdas Pophale) SiO2 
 PCOD9266653
Probable space group: C 2/C
;
_chemical_formula_sum "Si O2"
_cell_formula_units_Z 64
_cell_length_a 30.427276
_cell_length_b 12.196989
_cell_length_c 8.955424
_cell_angle_alpha 90.000000
_cell_angle_beta 124.438765
_cell_angle_gamma 90.000000
_cell_volume 2741.032674
_symmetry_space_group_name_H-M "C 2/C"
_symmetry_group_IT_number 15
_symmetry_cell_setting 'monoclinic'
loop_
_space_group_symop_operation_xyz
x,y,z
-x,y,1/2-z
-x,-y,-z
x,-y,1/2+z
1/2+x,1/2+y,z
1/2-x,1/2+y,1/2-z
1/2-x,1/2-y,-z
1/2+x,1/2-y,1/2+z
loop_
_atom_site_type_symbol
_atom_site_label
_atom_site_fract_x
_atom_site_fract_y
_atom_site_fract_z
Si Si1 0.964319 0.327214 0.540305
Si Si2 0.367375 0.497587 0.659300
Si Si3 0.816548 0.380618 0.504822
Si Si4 0.810675 0.251691 0.066263
Si Si5 0.021570 0.888334 0.622446
Si Si6 0.365584 0.687061 0.457256
Si Si7 0.869714 0.539361 0.804828
Si Si8 0.805031 0.104331 0.798106
O O1 0.988136 0.229794 0.479895
O O2 0.913617 0.266652 0.514220
O O3 0.932754 0.432413 0.410906
O O4 0.000000 0.358598 0.750000
O O5 0.414738 0.409043 0.754050
O O6 0.391239 0.586830 0.590106
O O7 0.350333 0.563849 0.773146
O O8 0.313309 0.469284 0.462992
O O9 0.825100 0.252333 0.486537
O O10 0.849891 0.423075 0.708135
O O11 0.844545 0.442870 0.419754
O O12 0.753644 0.403666 0.382092
O O13 0.835369 0.169862 0.241880
O O14 0.838809 0.366920 0.149975
O O15 0.750000 0.250000 0.000000
O O16 0.814632 0.219223 0.900872
O O17 0.000000 0.883132 0.750000
O O18 0.000000 0.000000 0.500000
#
# Coordination Sequence:
#
# PCOD9266653 Si02
#       8
#     8   8   8   8   8   8   8   8
#     4  10  21  43  68  90 117 165 208 266 329 382
#     4  12  25  36  59  95 126 165 214 267 311 380
#     4  10  22  39  58  88 122 176 204 257 318 366
#     4  10  19  38  58  83 120 170 213 259 310 364
#     4  12  24  41  65  95 131 166 206 258 332 396
#     4  10  22  40  59  87 130 160 217 263 316 378
#     4  10  22  40  64  87 126 159 216 261 316 379
#     4  12  22  36  59  90 130 169 216 255 315 378
#
# _framework density 23.348865
#
# number of rings (size 3 to 8) (size 9 to 14) (size 15 to 20)
#    0.000    1.500    2.500    6.375    1.750    1.500 
#    0.000    5.000    0.000    0.750    0.000    0.000 
#    0.000    0.000    0.000    0.000    0.000    0.000 
#
# Total GULP energy -178405.153489 kJ/mol
# GULP energy per Si atom -5575.161047 kJ/mol
# Density = 2.329572 g / cm^3
# Si number density = 23.348865 Si / 1000 Ang^3
#
#
#
# Elastic Constant Matrix: (Units=GPa)
#
#
# Indices 1 2 3 4 5 6 
#
# 1 93.7425 12.2633 39.5564 0.0000 -0.6984 0.0000
# 2 12.2633 26.1122 27.9406 0.0000 -7.4949 0.0000
# 3 39.5564 27.9406 108.5441 0.0000 11.5842 0.0000
# 4 0.0000 0.0000 0.0000 36.6864 0.0000 -2.7182
# 5 -0.6984 -7.4949 11.5842 0.0000 31.6819 0.0000
# 6 0.0000 0.0000 0.0000 -2.7182 0.0000 24.8015
#
#
#
# Elastic Compliance Matrix: (Units=1/GPa)
#
#
# Indices 1 2 3 4 5 6 
#
# 1 0.012735 -0.000323 -0.004766 0.000000 0.001947 0.000000
# 2 -0.000323 0.065305 -0.019085 0.000000 0.022420 0.000000
# 3 -0.004766 -0.019085 0.017020 0.000000 -0.010843 0.000000
# 4 0.000000 0.000000 0.000000 0.027481 0.000000 0.003012
# 5 0.001947 0.022420 -0.010843 0.000000 0.040875 0.000000
# 6 0.000000 0.000000 0.000000 0.003012 0.000000 0.040650
#
#
# Mechanical properties :
#
#
# Convention : Reuss Voigt Hill
#
# Bulk Modulus (GPa) = 21.40784 43.10215 32.25499
# Shear Modulus (GPa) = 18.65781 28.54320 23.60050
#
# Velocity S-wave (km/s) = 2.82988 3.50017 3.18272
# Velocity P-wave (km/s) = 4.45716 5.90212 5.22978
#
# Compressibility (1/GPa) = 0.04671186
#
# Stress axis : x y z
#
# Youngs Moduli (GPa) = 78.52225 15.31288 58.75564
#
# Poissons Ratio (x) = 0.00494 0.28002
# Poissons Ratio (y) = 0.02533 1.12137
# Poissons Ratio (z) = 0.37422 0.29225
#
# Static dielectric constant tensor:
#      x y z
#    x 1.889990 0.000000 -0.011880 
#    y 0.000000 2.138570 0.000000 
#    z -0.011880 0.000000 2.025720 
# 
# From -- ./inp_files/69956.got.cif
#   From: 2010.05.17/outbox.cif.g08.bks.cpg/sg15_35_cif.got.tgz:69956.got - 2010.06.03 18:47:42.
