data_PCOD9266157
_publ_section_title
;
Structure prediction by ZEFSAII (Michael W. Deem and Ramdas Pophale) SiO2 
 PCOD9266157
Probable space group: C 2/C
;
_chemical_formula_sum "Si O2"
_cell_formula_units_Z 64
_cell_length_a 11.720280
_cell_length_b 20.321706
_cell_length_c 24.293285
_cell_angle_alpha 90.000000
_cell_angle_beta 146.001047
_cell_angle_gamma 90.000000
_cell_volume 3235.446938
_symmetry_space_group_name_H-M "C 2/C"
_symmetry_group_IT_number 15
_symmetry_cell_setting 'monoclinic'
loop_
_space_group_symop_operation_xyz
x,y,z
-x,y,1/2-z
-x,-y,-z
x,-y,1/2+z
1/2+x,1/2+y,z
1/2-x,1/2+y,1/2-z
1/2-x,1/2-y,-z
1/2+x,1/2-y,1/2+z
loop_
_atom_site_type_symbol
_atom_site_label
_atom_site_fract_x
_atom_site_fract_y
_atom_site_fract_z
Si Si1 0.348481 0.786786 0.238121
Si Si2 0.778310 0.758503 0.133811
Si Si3 0.452631 0.666537 0.529630
Si Si4 0.776931 0.910327 0.131915
Si Si5 0.452872 0.291649 0.593407
Si Si6 0.350772 0.417783 0.491751
Si Si7 0.385626 0.918586 0.318169
Si Si8 0.038726 0.040970 0.896866
O O1 0.500000 0.808478 0.250000
O O2 0.449073 0.724570 0.308334
O O3 0.340748 0.843219 0.281938
O O4 0.126522 0.784121 0.122065
O O5 0.736843 0.833998 0.100584
O O6 0.616739 0.733146 0.114302
O O7 0.000000 0.754217 0.250000
O O8 0.738009 0.708217 0.067863
O O9 0.552344 0.621340 0.520874
O O10 0.410826 0.612708 0.558812
O O11 0.623417 0.927392 0.119804
O O12 0.000000 0.908520 0.250000
O O13 0.809137 0.960960 0.094737
O O14 0.250000 0.250000 0.500000
O O15 0.390017 0.366484 0.557273
O O16 0.440124 0.486444 0.547935
O O17 0.111526 0.430892 0.386607
O O18 0.196868 0.958389 0.217101
#
# Coordination Sequence:
#
# PCOD9266157 Si02
#       8
#     8   8   8   8   8   8   8   8
#     4  11  18  34  60  93 110 145 202 253 305 357
#     4  10  20  37  59  86 123 161 194 256 320 361
#     4  10  22  37  58  87 120 155 205 252 300 370
#     4   9  18  36  58  81 113 157 200 236 294 372
#     4  11  20  37  64  90 117 154 206 256 313 370
#     4  11  21  40  59  84 122 162 201 253 308 357
#     4  10  19  37  61  80 114 157 199 243 299 362
#     4  10  23  37  56  87 118 163 207 240 293 377
#
# _framework density 19.780884
#
# number of rings (size 3 to 8) (size 9 to 14) (size 15 to 20)
#    0.000    1.750    3.750    1.125    1.750    1.000 
#    4.500    1.875    0.000    0.000    0.000    0.000 
#    0.000    0.000    0.000    0.000    0.000    0.000 
#
# Total GULP energy -178399.614841 kJ/mol
# GULP energy per Si atom -5574.987964 kJ/mol
# Density = 1.973586 g / cm^3
# Si number density = 19.780884 Si / 1000 Ang^3
#
#
#
# Elastic Constant Matrix: (Units=GPa)
#
#
# Indices 1 2 3 4 5 6 
#
# 1 53.8146 -13.0096 4.0978 0.0001 -6.3702 0.0000
# 2 -13.0096 30.7653 25.3127 0.0001 -7.0169 0.0000
# 3 4.0978 25.3127 81.5731 0.0000 -6.6425 0.0002
# 4 0.0001 0.0001 0.0000 20.8387 0.0001 -11.5936
# 5 -6.3702 -7.0169 -6.6425 0.0001 26.8667 0.0000
# 6 0.0000 0.0000 0.0002 -11.5936 0.0000 18.9232
#
#
#
# Elastic Compliance Matrix: (Units=1/GPa)
#
#
# Indices 1 2 3 4 5 6 
#
# 1 0.024149 0.016941 -0.005759 0.000000 0.008726 0.000000
# 2 0.016941 0.057385 -0.017462 -0.000001 0.014687 0.000000
# 3 -0.005759 -0.017462 0.017844 0.000000 -0.001515 0.000000
# 4 0.000000 -0.000001 0.000000 0.072803 0.000000 0.044604
# 5 0.008726 0.014687 -0.001515 0.000000 0.042751 0.000000
# 6 0.000000 0.000000 0.000000 0.044604 0.000000 0.080173
#
#
# Mechanical properties :
#
#
# Convention : Reuss Voigt Hill
#
# Bulk Modulus (GPa) = 11.51853 22.10610 16.81231
# Shear Modulus (GPa) = 14.85422 23.30919 19.08171
#
# Velocity S-wave (km/s) = 2.74330 3.43646 3.10926
# Velocity P-wave (km/s) = 3.98371 5.19090 4.62685
#
# Compressibility (1/GPa) = 0.08681667
#
# Stress axis : x y z
#
# Youngs Moduli (GPa) = 41.40907 17.42621 56.04281
#
# Poissons Ratio (x) = -0.29522 0.32277
# Poissons Ratio (y) = -0.70151 0.97862
# Poissons Ratio (z) = 0.23849 0.30430
#
# Static dielectric constant tensor:
#      x y z
#    x 1.748840 0.000000 -0.013850 
#    y 0.000000 1.690830 0.000000 
#    z -0.013850 0.000000 1.695850 
# 
# From -- ./inp_files/293761.got.cif
#   From: 2010.05.17/outbox.cif.g08.bks.cpg/sg15_147_cif.got.tgz:293761.got - 2010.06.03 18:47:42.
