data_PCOD9266978
_publ_section_title
;
Structure prediction by ZEFSAII (Michael W. Deem and Ramdas Pophale) SiO2 
 PCOD9266978
Probable space group: C 2/C
;
_chemical_formula_sum "Si O2"
_cell_formula_units_Z 64
_cell_length_a 14.587936
_cell_length_b 9.800160
_cell_length_c 29.039515
_cell_angle_alpha 90.000000
_cell_angle_beta 38.620560
_cell_angle_gamma 90.000000
_cell_volume 2591.267841
_symmetry_space_group_name_H-M "C 2/C"
_symmetry_group_IT_number 15
_symmetry_cell_setting 'monoclinic'
loop_
_space_group_symop_operation_xyz
x,y,z
-x,y,1/2-z
-x,-y,-z
x,-y,1/2+z
1/2+x,1/2+y,z
1/2-x,1/2+y,1/2-z
1/2-x,1/2-y,-z
1/2+x,1/2-y,1/2+z
loop_
_atom_site_type_symbol
_atom_site_label
_atom_site_fract_x
_atom_site_fract_y
_atom_site_fract_z
Si Si1 0.085017 0.348547 0.996709
Si Si2 0.963374 0.673643 0.090744
Si Si3 0.375059 0.888497 0.154375
Si Si4 0.148580 0.964040 0.467655
Si Si5 0.500139 0.261763 0.684736
Si Si6 0.719333 0.408322 0.037136
Si Si7 0.712688 0.142647 0.666201
Si Si8 0.540490 0.420930 0.288380
O O1 0.924502 0.354691 0.083242
O O2 0.062254 0.370950 0.951839
O O3 0.140766 0.195394 0.982420
O O4 0.197768 0.457306 0.973486
O O5 0.908502 0.551094 0.144904
O O6 0.863294 0.808315 0.130620
O O7 0.137188 0.687813 0.026657
O O8 0.491197 0.797028 0.137401
O O9 0.204376 0.859957 0.231215
O O10 0.170493 0.040801 0.506093
O O11 0.266432 0.975824 0.379353
O O12 0.000000 0.000000 0.500000
O O13 0.642456 0.262010 0.661395
O O14 0.401629 0.143374 0.747942
O O15 0.442769 0.415490 0.709303
O O16 0.587928 0.374320 0.125220
O O17 0.500000 0.401987 0.250000
#
# Coordination Sequence:
#
# PCOD9266978 Si02
#       8
#     8   8   8   8   8   8   8   8
#     4  10  20  39  63  90 120 162 211 263 310 368
#     4  10  19  38  63  94 123 155 208 261 312 364
#     4  11  21  34  61  92 125 153 206 260 308 366
#     4  11  24  40  62  89 130 164 214 256 310 372
#     4  11  21  36  63  92 120 160 206 259 307 369
#     4  11  22  36  64  98 121 162 208 265 313 367
#     4  10  20  40  63  87 119 166 207 251 307 369
#     4  12  21  38  62  93 127 159 205 256 318 373
#
# _framework density 24.698335
#
# number of rings (size 3 to 8) (size 9 to 14) (size 15 to 20)
#    0.000    1.250    2.500    7.125    1.750    0.000 
#    0.000    2.500    2.750    0.000    0.000    0.000 
#    0.000    0.000    0.000    0.000    0.000    0.000 
#
# Total GULP energy -178584.517054 kJ/mol
# GULP energy per Si atom -5580.766158 kJ/mol
# Density = 2.464212 g / cm^3
# Si number density = 24.698335 Si / 1000 Ang^3
#
#
#
# Elastic Constant Matrix: (Units=GPa)
#
#
# Indices 1 2 3 4 5 6 
#
# 1 134.9318 0.4405 30.4306 0.0000 -10.3571 -0.0001
# 2 0.4405 31.1057 -0.8776 0.0000 -1.6795 -0.0001
# 3 30.4306 -0.8776 168.1726 0.0000 -10.2817 0.0000
# 4 0.0000 0.0000 0.0000 32.2584 0.0000 -6.3451
# 5 -10.3571 -1.6795 -10.2817 0.0000 49.9490 0.0000
# 6 -0.0001 -0.0001 0.0000 -6.3451 0.0000 20.4653
#
#
#
# Elastic Compliance Matrix: (Units=1/GPa)
#
#
# Indices 1 2 3 4 5 6 
#
# 1 0.007815 -0.000076 -0.001332 0.000000 0.001344 0.000000
# 2 -0.000076 0.032217 0.000250 0.000000 0.001119 0.000000
# 3 -0.001332 0.000250 0.006251 0.000000 0.001019 0.000000
# 4 0.000000 0.000000 0.000000 0.033013 0.000000 0.010235
# 5 0.001344 0.001119 0.001019 0.000000 0.020546 0.000000
# 6 0.000000 0.000000 0.000000 0.010235 0.000000 0.052037
#
#
# Mechanical properties :
#
#
# Convention : Reuss Voigt Hill
#
# Bulk Modulus (GPa) = 22.74418 43.79969 33.27193
# Shear Modulus (GPa) = 29.61202 40.81565 35.21383
#
# Velocity S-wave (km/s) = 3.46634 4.06959 3.78002
# Velocity P-wave (km/s) = 5.02488 6.31304 5.70543
#
# Compressibility (1/GPa) = 0.04396729
#
# Stress axis : x y z
#
# Youngs Moduli (GPa) = 127.95879 31.03952 159.97543
#
# Poissons Ratio (x) = 0.00235 0.21315
# Poissons Ratio (y) = 0.00969 -0.04003
# Poissons Ratio (z) = 0.17049 -0.00777
#
# Static dielectric constant tensor:
#      x y z
#    x 2.000960 0.000000 -0.072720 
#    y 0.000000 2.025950 0.000000 
#    z -0.072720 0.000000 2.157500 
# 
# From -- ./inp_files/313598.got.cif
#   From: 2010.05.17/outbox.cif.g08.bks.cpg/sg15_157_cif.got.tgz:313598.got - 2010.06.03 18:47:42.
