data_PCOD9266817
_publ_section_title
;
Structure prediction by ZEFSAII (Michael W. Deem and Ramdas Pophale) SiO2 
 PCOD9266817
Probable space group: C 2/C
;
_chemical_formula_sum "Si O2"
_cell_formula_units_Z 52
_cell_length_a 24.400234
_cell_length_b 9.246386
_cell_length_c 16.960951
_cell_angle_alpha 90.000000
_cell_angle_beta 34.624080
_cell_angle_gamma 90.000000
_cell_volume 2174.250207
_symmetry_space_group_name_H-M "C 2/C"
_symmetry_group_IT_number 15
_symmetry_cell_setting 'monoclinic'
loop_
_space_group_symop_operation_xyz
x,y,z
-x,y,1/2-z
-x,-y,-z
x,-y,1/2+z
1/2+x,1/2+y,z
1/2-x,1/2+y,1/2-z
1/2-x,1/2-y,-z
1/2+x,1/2-y,1/2+z
loop_
_atom_site_type_symbol
_atom_site_label
_atom_site_fract_x
_atom_site_fract_y
_atom_site_fract_z
Si Si1 0.500000 0.077050 0.250000
Si Si2 0.136733 0.057202 0.438365
Si Si3 0.038321 0.911216 0.793883
Si Si4 0.354189 0.111259 0.838990
Si Si5 0.311439 0.601884 0.942671
Si Si6 0.489705 0.187928 0.434014
Si Si7 0.642134 0.040549 0.334118
O O1 0.505870 0.173770 0.321084
O O2 0.587579 0.966943 0.159824
O O3 0.152677 0.114088 0.509637
O O4 0.079248 0.181157 0.461565
O O5 0.245180 0.039465 0.277696
O O6 0.058916 0.928444 0.539515
O O7 0.103709 0.769804 0.724456
O O8 0.000000 0.905477 0.750000
O O9 0.104457 0.056779 0.718083
O O10 0.367332 0.042100 0.737634
O O11 0.248491 0.049898 0.983582
O O12 0.250000 0.750000 0.000000
O O13 0.425134 0.044082 0.526130
O O14 0.585875 0.184881 0.373606
#
# Coordination Sequence:
#
# PCOD9266817 Si02
#       7
#     4   8   8   8   8   8   8
#     4  10  20  34  68  94 116 166 216 258 324 386
#     4  10  22  38  63  91 128 169 218 268 329 386
#     4  10  21  36  57  92 131 164 212 278 319 382
#     4  10  19  38  61  90 129 169 214 263 329 384
#     4  10  21  35  60  92 131 167 219 274 323 385
#     4  10  21  42  66  94 129 168 219 271 321 391
#     4   9  22  43  63  91 130 172 210 267 330 389
#
# _framework density 23.916291999999999
#
# number of rings (size 3 to 8) (size 9 to 14) (size 15 to 20)
#    0.000    2.154    0.769    1.385    9.692    0.000 
#    8.308    2.308    0.000    0.000    0.000    0.000 
#    0.000    0.000    0.000    0.000    0.000    0.000 
#
# Total GULP energy -144835.136739 kJ/mol
# GULP energy per Si atom -5570.582182 kJ/mol
# Density = 2.386186 g / cm^3
# Si number density = 23.916292 Si / 1000 Ang^3
#
#
#
# Elastic Constant Matrix: (Units=GPa)
#
#
# Indices 1 2 3 4 5 6 
#
# 1 43.0759 39.5366 23.6903 0.0003 -15.5416 -0.0001
# 2 39.5366 112.0979 45.7167 -0.0004 -33.3358 0.0002
# 3 23.6903 45.7167 125.0636 -0.0004 -34.5151 0.0002
# 4 0.0003 -0.0004 -0.0004 28.5169 0.0000 -17.1358
# 5 -15.5416 -33.3358 -34.5151 0.0000 31.6442 0.0000
# 6 -0.0001 0.0002 0.0002 -17.1358 0.0000 25.0448
#
#
#
# Elastic Compliance Matrix: (Units=1/GPa)
#
#
# Indices 1 2 3 4 5 6 
#
# 1 0.035343 -0.010440 -0.001607 -0.000001 0.004607 0.000000
# 2 -0.010440 0.016245 -0.000934 0.000000 0.010968 0.000000
# 3 -0.001607 -0.000934 0.011663 0.000000 0.010948 0.000000
# 4 -0.000001 0.000000 0.000000 0.059551 0.000000 0.040745
# 5 0.004607 0.010968 0.010948 0.000000 0.057360 0.000000
# 6 0.000000 0.000000 0.000000 0.040745 0.000000 0.067806
#
#
# Mechanical properties :
#
#
# Convention : Reuss Voigt Hill
#
# Bulk Modulus (GPa) = 26.81695 55.34718 41.08207
# Shear Modulus (GPa) = 17.46055 28.46076 22.96065
#
# Velocity S-wave (km/s) = 2.70491 3.45340 3.10182
# Velocity P-wave (km/s) = 4.58176 6.25249 5.48116
#
# Compressibility (1/GPa) = 0.03728985
#
# Stress axis : x y z
#
# Youngs Moduli (GPa) = 28.29413 61.55594 85.73936
#
# Poissons Ratio (x) = 0.64263 0.13779
# Poissons Ratio (y) = 0.29539 0.08008
# Poissons Ratio (z) = 0.04547 0.05749
#
# Static dielectric constant tensor:
#      x y z
#    x 2.006060 0.000000 -0.070790 
#    y 0.000000 1.998840 0.000000 
#    z -0.070790 0.000000 2.021880 
# 
# From -- ./inp_files/258828.got.cif
#   From: 2010.05.17/outbox.cif.g08.bks.cpg/sg15_130_cif.got.tgz:258828.got - 2010.06.03 18:47:42.
