data_PCOD9266356
_publ_section_title
;
Structure prediction by ZEFSAII (Michael W. Deem and Ramdas Pophale) SiO2 
 PCOD9266356
Probable space group: C 2/C
;
_chemical_formula_sum "Si O2"
_cell_formula_units_Z 32
_cell_length_a 21.497150
_cell_length_b 9.842366
_cell_length_c 10.863836
_cell_angle_alpha 90.000000
_cell_angle_beta 132.249188
_cell_angle_gamma 90.000000
_cell_volume 1701.488059
_symmetry_space_group_name_H-M "C 2/C"
_symmetry_group_IT_number 15
_symmetry_cell_setting 'monoclinic'
loop_
_space_group_symop_operation_xyz
x,y,z
-x,y,1/2-z
-x,-y,-z
x,-y,1/2+z
1/2+x,1/2+y,z
1/2-x,1/2+y,1/2-z
1/2-x,1/2-y,-z
1/2+x,1/2-y,1/2+z
loop_
_atom_site_type_symbol
_atom_site_label
_atom_site_fract_x
_atom_site_fract_y
_atom_site_fract_z
Si Si1 0.718088 0.209759 0.324506
Si Si2 0.384941 0.207109 0.659468
Si Si3 0.734529 0.592327 0.622189
Si Si4 0.456659 0.131359 0.503125
O O1 0.750000 0.250000 0.500000
O O2 0.741330 0.323943 0.256835
O O3 0.761436 0.066759 0.348527
O O4 0.617198 0.187490 0.181330
O O5 0.347012 0.346331 0.555031
O O6 0.312807 0.131806 0.639556
O O7 0.410634 0.115063 0.575157
O O8 0.465501 0.226541 0.853569
O O9 0.500000 0.000000 0.500000
#
# Coordination Sequence:
#
# PCOD9266356 Si02
#       4
#     8   8   8   8
#     4  11  25  38  65  92 126 164 214 255 315 377
#     4   9  20  36  64  84 124 158 204 263 308 352
#     4  10  22  40  61  91 124 165 205 258 316 370
#     4  10  19  37  63  91 117 161 214 252 303 371
#
# _framework density 18.807065999999999
#
# number of rings (size 3 to 8) (size 9 to 14) (size 15 to 20)
#    0.000    2.000    2.500    0.000   10.500    0.000 
#    0.000    1.250   11.000    0.000    0.000    0.000 
#    0.000    0.000    0.000    0.000    0.000    0.000 
#
# Total GULP energy -89208.858636 kJ/mol
# GULP energy per Si atom -5575.553665 kJ/mol
# Density = 1.876426 g / cm^3
# Si number density = 18.807066 Si / 1000 Ang^3
#
#
#
# Elastic Constant Matrix: (Units=GPa)
#
#
# Indices 1 2 3 4 5 6 
#
# 1 96.5379 40.2489 54.1639 0.0000 7.2203 0.0000
# 2 40.2489 131.6525 64.7184 0.0000 -11.2410 0.0000
# 3 54.1639 64.7184 190.6154 0.0000 3.6850 0.0000
# 4 0.0000 0.0000 0.0000 24.4609 0.0000 -2.6975
# 5 7.2203 -11.2410 3.6850 0.0000 17.6205 0.0000
# 6 0.0000 0.0000 0.0000 -2.6975 0.0000 33.3755
#
#
#
# Elastic Compliance Matrix: (Units=1/GPa)
#
#
# Indices 1 2 3 4 5 6 
#
# 1 0.013862 -0.003611 -0.002569 0.000000 -0.007447 0.000000
# 2 -0.003611 0.010863 -0.002836 0.000000 0.009003 0.000000
# 3 -0.002569 -0.002836 0.006982 0.000000 -0.002217 0.000000
# 4 0.000000 0.000000 0.000000 0.041249 0.000000 0.003334
# 5 -0.007447 0.009003 -0.002217 0.000000 0.066010 0.000000
# 6 0.000000 0.000000 0.000000 0.003334 0.000000 0.030232
#
#
# Mechanical properties :
#
#
# Convention : Reuss Voigt Hill
#
# Bulk Modulus (GPa) = 73.12750 81.89646 77.51198
# Shear Modulus (GPa) = 26.07036 32.40301 29.23668
#
# Velocity S-wave (km/s) = 3.72721 4.15531 3.94707
# Velocity P-wave (km/s) = 7.58223 8.16469 7.87885
#
# Compressibility (1/GPa) = 0.01367475
#
# Stress axis : x y z
#
# Youngs Moduli (GPa) = 72.13707 92.05955 143.22651
#
# Poissons Ratio (x) = 0.33242 0.36796
# Poissons Ratio (y) = 0.26048 0.40620
# Poissons Ratio (z) = 0.18533 0.26109
#
# Static dielectric constant tensor:
#      x y z
#    x 1.672710 0.000000 0.011990 
#    y 0.000000 1.632910 0.000000 
#    z 0.011990 0.000000 1.687580 
# 
# From -- ./inp_files/102155.got.cif
#   From: 2010.05.17/outbox.cif.g08.bks.cpg/sg15_52_cif.got.tgz:102155.got - 2010.06.03 18:47:42.
