data_PCOD9266743
_publ_section_title
;
Structure prediction by ZEFSAII (Michael W. Deem and Ramdas Pophale) SiO2 
 PCOD9266743
Probable space group: C 2/C
;
_chemical_formula_sum "Si O2"
_cell_formula_units_Z 40
_cell_length_a 6.171330
_cell_length_b 24.130022
_cell_length_c 15.251307
_cell_angle_alpha 90.000000
_cell_angle_beta 111.385090
_cell_angle_gamma 90.000000
_cell_volume 2114.771953
_symmetry_space_group_name_H-M "C 2/C"
_symmetry_group_IT_number 15
_symmetry_cell_setting 'monoclinic'
loop_
_space_group_symop_operation_xyz
x,y,z
-x,y,1/2-z
-x,-y,-z
x,-y,1/2+z
1/2+x,1/2+y,z
1/2-x,1/2+y,1/2-z
1/2-x,1/2-y,-z
1/2+x,1/2-y,1/2+z
loop_
_atom_site_type_symbol
_atom_site_label
_atom_site_fract_x
_atom_site_fract_y
_atom_site_fract_z
Si Si1 0.953514 0.101205 0.345071
Si Si2 0.340433 0.206990 0.141239
Si Si3 0.532298 0.791741 0.477777
Si Si4 0.745722 0.019556 0.430819
Si Si5 0.935601 0.415048 0.019392
O O1 0.834266 0.156092 0.366505
O O2 0.782292 0.050649 0.344747
O O3 0.000000 0.107658 0.250000
O O4 0.198275 0.088685 0.427798
O O5 0.500000 0.213228 0.250000
O O6 0.186055 0.260422 0.096519
O O7 0.490225 0.197700 0.075335
O O8 0.750000 0.750000 0.500000
O O9 0.544464 0.853334 0.439963
O O10 0.638012 0.063956 0.483671
O O11 0.591367 0.964359 0.414179
O O12 0.000000 0.000000 0.500000
#
# Coordination Sequence:
#
# PCOD9266743 Si02
#       5
#     8   8   8   8   8
#     4  11  21  34  60  93 120 149 202 266 313 361
#     4  11  24  37  58  96 125 156 212 267 313 379
#     4  11  22  39  64  88 123 168 209 253 325 378
#     4   9  20  35  59  87 114 153 200 252 302 367
#     4  10  19  38  60  86 118 163 203 246 304 381
#
# _framework density 18.914569
#
# number of rings (size 3 to 8) (size 9 to 14) (size 15 to 20)
#    0.000    1.600    4.000    1.200    0.000    0.000 
#    0.000    0.000    0.000   28.800    0.000    0.000 
#    0.000    0.000    0.000    0.000    0.000    0.000 
#
# Total GULP energy -111547.852680 kJ/mol
# GULP energy per Si atom -5577.392634 kJ/mol
# Density = 1.887152 g / cm^3
# Si number density = 18.914569 Si / 1000 Ang^3
#
#
#
# Elastic Constant Matrix: (Units=GPa)
#
#
# Indices 1 2 3 4 5 6 
#
# 1 99.7203 43.1712 24.6143 0.0000 -18.3992 0.0000
# 2 43.1712 147.5578 19.3029 0.0000 -21.0804 0.0000
# 3 24.6143 19.3029 57.2807 0.0000 -7.2990 0.0000
# 4 0.0000 0.0000 0.0000 14.1935 0.0000 -5.2376
# 5 -18.3992 -21.0804 -7.2990 0.0000 35.2750 0.0000
# 6 0.0000 0.0000 0.0000 -5.2376 0.0000 50.4587
#
#
#
# Elastic Compliance Matrix: (Units=1/GPa)
#
#
# Indices 1 2 3 4 5 6 
#
# 1 0.012994 -0.002640 -0.004141 0.000000 0.004344 0.000000
# 2 -0.002640 0.008172 -0.001205 0.000000 0.003258 0.000000
# 3 -0.004141 -0.001205 0.019798 0.000000 0.001217 0.000000
# 4 0.000000 0.000000 0.000000 0.073261 0.000000 0.007604
# 5 0.004344 0.003258 0.001217 0.000000 0.032813 0.000000
# 6 0.000000 0.000000 0.000000 0.007604 0.000000 0.020608
#
#
# Mechanical properties :
#
#
# Convention : Reuss Voigt Hill
#
# Bulk Modulus (GPa) = 40.00826 53.19284 46.60055
# Shear Modulus (GPa) = 26.04876 34.48345 30.26610
#
# Velocity S-wave (km/s) = 3.71506 4.27443 4.00452
# Velocity P-wave (km/s) = 6.29287 7.24877 6.78767
#
# Compressibility (1/GPa) = 0.02499484
#
# Stress axis : x y z
#
# Youngs Moduli (GPa) = 76.95697 122.36534 50.50951
#
# Poissons Ratio (x) = 0.32299 0.20915
# Poissons Ratio (y) = 0.20313 0.06084
# Poissons Ratio (z) = 0.31867 0.14740
#
# Static dielectric constant tensor:
#      x y z
#    x 1.697530 0.000000 -0.012860 
#    y 0.000000 1.695990 0.000000 
#    z -0.012860 0.000000 1.619400 
# 
# From -- ./inp_files/73073.got.cif
#   From: 2010.05.17/outbox.cif.g08.bks.cpg/sg15_37_cif.got.tgz:73073.got - 2010.06.03 18:47:42.
