data_PCOD9266249
_publ_section_title
;
Structure prediction by ZEFSAII (Michael W. Deem and Ramdas Pophale) SiO2 
 PCOD9266249
Probable space group: C 2/C
;
_chemical_formula_sum "Si O2"
_cell_formula_units_Z 56
_cell_length_a 11.168144
_cell_length_b 13.736060
_cell_length_c 15.847887
_cell_angle_alpha 90.000000
_cell_angle_beta 59.632439
_cell_angle_gamma 90.000000
_cell_volume 2097.609793
_symmetry_space_group_name_H-M "C 2/C"
_symmetry_group_IT_number 15
_symmetry_cell_setting 'monoclinic'
loop_
_space_group_symop_operation_xyz
x,y,z
-x,y,1/2-z
-x,-y,-z
x,-y,1/2+z
1/2+x,1/2+y,z
1/2-x,1/2+y,1/2-z
1/2-x,1/2-y,-z
1/2+x,1/2-y,1/2+z
loop_
_atom_site_type_symbol
_atom_site_label
_atom_site_fract_x
_atom_site_fract_y
_atom_site_fract_z
Si Si1 0.841938 0.290845 0.366117
Si Si2 0.686244 0.146845 0.914691
Si Si3 0.000000 0.953362 0.750000
Si Si4 0.500000 0.044602 0.750000
Si Si5 0.846192 0.764248 0.210284
Si Si6 0.583037 0.591599 0.562166
Si Si7 0.530055 0.685878 0.045735
Si Si8 0.312271 0.049243 0.190921
O O1 0.799649 0.287073 0.284072
O O2 0.689873 0.304874 0.459019
O O3 0.933540 0.201049 0.367628
O O4 0.932624 0.386567 0.345027
O O5 0.807398 0.204470 0.818586
O O6 0.759044 0.127041 0.978696
O O7 0.657007 0.040147 0.884047
O O8 0.557861 0.219927 0.952182
O O9 0.061184 0.008725 0.641360
O O10 0.150530 0.928217 0.737468
O O11 0.630336 0.988313 0.740527
O O12 0.880910 0.655817 0.166999
O O13 0.966640 0.833042 0.135601
O O14 0.546640 0.596929 0.474389
#
# Coordination Sequence:
#
# PCOD9266249 Si02
#       8
#     8   8   4   4   8   8   8   8
#     4  10  20  37  60  89 125 157 209 257 310 368
#     4  11  20  39  59  91 125 162 203 262 315 369
#     4  10  20  42  58  88 124 164 202 264 310 370
#     4  12  20  40  66  92 116 170 214 262 298 372
#     4  11  21  38  64  95 117 162 215 259 301 372
#     4  10  19  37  62  85 120 162 211 250 309 372
#     4  10  20  34  61  87 119 170 200 249 323 376
#     4  11  23  35  65  94 124 158 214 260 308 363
#
# _framework density 26.697054999999999
#
# number of rings (size 3 to 8) (size 9 to 14) (size 15 to 20)
#    0.000    1.429    5.714    1.286    2.000    1.714 
#    0.000    2.857    0.000   15.429    0.000    0.000 
#    0.000    0.000    0.000    0.000    0.000    0.000 
#
# Total GULP energy -155973.626852 kJ/mol
# GULP energy per Si atom -5570.486673 kJ/mol
# Density = 2.663629 g / cm^3
# Si number density = 26.697055 Si / 1000 Ang^3
#
#
#
# Elastic Constant Matrix: (Units=GPa)
#
#
# Indices 1 2 3 4 5 6 
#
# 1 189.3872 18.4369 24.6946 0.0000 33.1133 0.0000
# 2 18.4369 77.6467 -26.2569 0.0000 -8.9611 0.0000
# 3 24.6946 -26.2569 42.9600 0.0000 1.9791 0.0000
# 4 0.0000 0.0000 0.0000 20.1331 0.0000 3.1076
# 5 33.1133 -8.9611 1.9791 0.0000 63.4225 0.0000
# 6 0.0000 0.0000 0.0000 3.1076 0.0000 34.5749
#
#
#
# Elastic Compliance Matrix: (Units=1/GPa)
#
#
# Indices 1 2 3 4 5 6 
#
# 1 0.007357 -0.004542 -0.006808 0.000000 -0.004270 0.000000
# 2 -0.004542 0.019292 0.014188 0.000000 0.004654 0.000000
# 3 -0.006808 0.014188 0.035658 0.000000 0.004446 0.000000
# 4 0.000000 0.000000 0.000000 0.050368 0.000000 -0.004527
# 5 -0.004270 0.004654 0.004446 0.000000 0.018516 0.000000
# 6 0.000000 0.000000 0.000000 -0.004527 0.000000 0.029330
#
#
# Mechanical properties :
#
#
# Convention : Reuss Voigt Hill
#
# Bulk Modulus (GPa) = 14.70982 38.19364 26.45173
# Shear Modulus (GPa) = 28.16823 43.16741 35.66782
#
# Velocity S-wave (km/s) = 3.25176 4.02548 3.65913
# Velocity P-wave (km/s) = 4.42950 5.99527 5.27085
#
# Compressibility (1/GPa) = 0.06798180
#
# Stress axis : x y z
#
# Youngs Moduli (GPa) = 135.93076 51.83458 28.04456
#
# Poissons Ratio (x) = 0.23542 0.19093
# Poissons Ratio (y) = 0.61738 -0.39789
# Poissons Ratio (z) = 0.92543 -0.73541
#
# Static dielectric constant tensor:
#      x y z
#    x 2.038000 0.000000 0.095440 
#    y 0.000000 2.306130 0.000000 
#    z 0.095440 0.000000 2.213500 
# 
# From -- ./inp_files/238342.got.cif
#   From: 2010.05.17/outbox.cif.g08.bks.cpg/sg15_120_cif.got.tgz:238342.got - 2010.06.03 18:47:42.
