data_PCOD9266731
_publ_section_title
;
Structure prediction by ZEFSAII (Michael W. Deem and Ramdas Pophale) SiO2 
 PCOD9266731
Probable space group: C 2/C
;
_chemical_formula_sum "Si O2"
_cell_formula_units_Z 56
_cell_length_a 27.387815
_cell_length_b 18.402413
_cell_length_c 8.599962
_cell_angle_alpha 90.000000
_cell_angle_beta 139.398335
_cell_angle_gamma 90.000000
_cell_volume 2820.809475
_symmetry_space_group_name_H-M "C 2/C"
_symmetry_group_IT_number 15
_symmetry_cell_setting 'monoclinic'
loop_
_space_group_symop_operation_xyz
x,y,z
-x,y,1/2-z
-x,-y,-z
x,-y,1/2+z
1/2+x,1/2+y,z
1/2-x,1/2+y,1/2-z
1/2-x,1/2-y,-z
1/2+x,1/2-y,1/2+z
loop_
_atom_site_type_symbol
_atom_site_label
_atom_site_fract_x
_atom_site_fract_y
_atom_site_fract_z
Si Si1 0.963088 0.569237 0.829847
Si Si2 0.519232 0.219707 0.114349
Si Si3 0.891600 0.794944 0.690075
Si Si4 0.710807 0.789724 0.763819
Si Si5 0.333357 0.221611 0.866936
Si Si6 0.786643 0.557696 0.342919
Si Si7 0.768702 0.088115 0.953032
O O1 0.873945 0.554031 0.606480
O O2 0.000000 0.575758 0.750000
O O3 0.000000 0.500000 0.000000
O O4 0.984972 0.643961 0.970287
O O5 0.500000 0.226503 0.250000
O O6 0.608799 0.219246 0.348655
O O7 0.481084 0.285816 0.927371
O O8 0.865493 0.748743 0.476916
O O9 0.864761 0.752349 0.781291
O O10 0.846059 0.870922 0.588691
O O11 0.765366 0.772881 0.750755
O O12 0.709767 0.875999 0.771889
O O13 0.750000 0.750000 0.000000
O O14 0.298092 0.143212 0.753943
O O15 0.737944 0.575331 0.378571
O O16 0.751193 0.486789 0.179953
#
# Coordination Sequence:
#
# PCOD9266731 Si02
#       7
#     8   8   8   8   8   8   8
#     4  12  24  37  54  83 127 157 188 232 290 363
#     4  10  20  35  62  85 110 152 199 234 295 344
#     4  10  19  41  58  82 114 155 195 248 281 350
#     4  11  22  35  58  84 118 150 201 242 286 342
#     4  10  19  38  60  84 111 155 195 239 289 354
#     4  12  23  39  56  87 119 159 193 238 296 350
#     4  11  22  36  60  85 121 152 199 241 291 347
#
# _framework density 19.852457000000001
#
# number of rings (size 3 to 8) (size 9 to 14) (size 15 to 20)
#    0.000    1.143    4.286    3.857    6.000    0.000 
#    0.000    0.000    0.000    0.857    0.000    0.000 
#    0.000    0.000    0.000    0.000    0.000    0.000 
#
# Total GULP energy -156203.809626 kJ/mol
# GULP energy per Si atom -5578.707487 kJ/mol
# Density = 1.980727 g / cm^3
# Si number density = 19.852457 Si / 1000 Ang^3
#
#
#
# Elastic Constant Matrix: (Units=GPa)
#
#
# Indices 1 2 3 4 5 6 
#
# 1 10.0117 2.6773 5.6569 0.0000 0.2151 0.0000
# 2 2.6773 132.9013 60.6920 0.0000 2.8388 0.0000
# 3 5.6569 60.6920 136.0237 0.0000 -3.0758 0.0000
# 4 0.0000 0.0000 0.0000 43.0859 0.0000 -7.6771
# 5 0.2151 2.8388 -3.0758 0.0000 22.4484 0.0000
# 6 0.0000 0.0000 0.0000 -7.6771 0.0000 14.8637
#
#
#
# Elastic Compliance Matrix: (Units=1/GPa)
#
#
# Indices 1 2 3 4 5 6 
#
# 1 0.102342 -0.000086 -0.004253 0.000000 -0.001553 0.000000
# 2 -0.000086 0.009521 -0.004285 0.000000 -0.001790 0.000000
# 3 -0.004253 -0.004285 0.009483 0.000000 0.001882 0.000000
# 4 0.000000 0.000000 0.000000 0.025562 0.000000 0.013203
# 5 -0.001553 -0.001790 0.001882 0.000000 0.045046 0.000000
# 6 0.000000 0.000000 0.000000 0.013203 0.000000 0.074097
#
#
# Mechanical properties :
#
#
# Convention : Reuss Voigt Hill
#
# Bulk Modulus (GPa) = 9.60632 46.33212 27.96922
# Shear Modulus (GPa) = 15.72329 30.07363 22.89846
#
# Velocity S-wave (km/s) = 2.81732 3.89634 3.39991
# Velocity P-wave (km/s) = 3.92841 6.60536 5.43430
#
# Compressibility (1/GPa) = 0.10409816
#
# Stress axis : x y z
#
# Youngs Moduli (GPa) = 9.77112 105.02799 105.45123
#
# Poissons Ratio (x) = 0.00908 0.44845
# Poissons Ratio (y) = 0.00084 0.45188
# Poissons Ratio (z) = 0.04155 0.45006
#
# Static dielectric constant tensor:
#      x y z
#    x 1.826680 0.000000 0.095380 
#    y 0.000000 2.210010 0.000000 
#    z 0.095380 0.000000 1.801610 
# 
# From -- ./inp_files/56742.got.cif
#   From: 2010.05.17/outbox.cif.g08.bks.cpg/sg15_29_cif.got.tgz:56742.got - 2010.06.03 18:47:42.
