data_PCOD9266719
_publ_section_title
;
Structure prediction by ZEFSAII (Michael W. Deem and Ramdas Pophale) SiO2 
 PCOD9266719
Probable space group: C 2/C
;
_chemical_formula_sum "Si O2"
_cell_formula_units_Z 44
_cell_length_a 12.260205
_cell_length_b 19.531952
_cell_length_c 19.099449
_cell_angle_alpha 90.000000
_cell_angle_beta 28.963373
_cell_angle_gamma 90.000000
_cell_volume 2214.798477
_symmetry_space_group_name_H-M "C 2/C"
_symmetry_group_IT_number 15
_symmetry_cell_setting 'monoclinic'
loop_
_space_group_symop_operation_xyz
x,y,z
-x,y,1/2-z
-x,-y,-z
x,-y,1/2+z
1/2+x,1/2+y,z
1/2-x,1/2+y,1/2-z
1/2-x,1/2-y,-z
1/2+x,1/2-y,1/2+z
loop_
_atom_site_type_symbol
_atom_site_label
_atom_site_fract_x
_atom_site_fract_y
_atom_site_fract_z
Si Si1 0.297462 0.384640 0.250060
Si Si2 0.422927 0.929904 0.369326
Si Si3 0.287009 0.341001 0.555079
Si Si4 0.500000 0.713203 0.750000
Si Si5 0.941853 0.041125 0.201327
Si Si6 0.079181 0.584385 0.306691
O O1 0.044525 0.389007 0.363634
O O2 0.357470 0.334168 0.278725
O O3 0.379383 0.461315 0.223705
O O4 0.452203 0.354294 0.101063
O O5 0.500000 0.903393 0.250000
O O6 0.158489 0.938545 0.532737
O O7 0.530220 0.006083 0.314247
O O8 0.184064 0.265526 0.614366
O O9 0.211369 0.378729 0.669084
O O10 0.161278 0.378398 0.560456
O O11 0.000000 0.051096 0.250000
O O12 0.726561 0.083292 0.293768
#
# Coordination Sequence:
#
# PCOD9266719 Si02
#       6
#     8   8   8   4   8   8
#     4  11  21  35  56  84 117 147 191 231 286 340
#     4  11  20  35  58  85 117 149 186 232 284 346
#     4  10  19  38  60  79 110 145 203 239 265 326
#     4  10  22  36  54  82 110 154 192 236 280 320
#     4  11  22  34  54  86 128 146 173 231 297 350
#     4   9  18  33  55  82 109 148 186 226 284 330
#
# _framework density 19.866365999999999
#
# number of rings (size 3 to 8) (size 9 to 14) (size 15 to 20)
#    0.000    1.818    4.545    1.636    0.000    7.273 
#    0.000    0.000    0.000   14.182    0.000    0.000 
#    0.000    0.000    0.000    0.000    0.000    0.000 
#
# Total GULP energy -122700.222499 kJ/mol
# GULP energy per Si atom -5577.282841 kJ/mol
# Density = 1.982115 g / cm^3
# Si number density = 19.866366 Si / 1000 Ang^3
#
#
#
# Elastic Constant Matrix: (Units=GPa)
#
#
# Indices 1 2 3 4 5 6 
#
# 1 92.3892 28.0620 5.8619 -0.0212 -16.0611 0.0262
# 2 28.0620 72.1211 -0.4078 0.0751 -10.1004 0.0358
# 3 5.8619 -0.4078 23.5205 0.0354 -3.5039 0.0667
# 4 -0.0212 0.0751 0.0354 17.6651 0.0399 -2.6299
# 5 -16.0611 -10.1004 -3.5039 0.0399 30.9985 -0.0412
# 6 0.0262 0.0358 0.0667 -2.6299 -0.0412 24.9405
#
#
#
# Elastic Compliance Matrix: (Units=1/GPa)
#
#
# Indices 1 2 3 4 5 6 
#
# 1 0.013228 -0.004446 -0.002613 0.000030 0.005110 0.000011
# 2 -0.004446 0.016045 0.001853 -0.000088 0.003134 -0.000027
# 3 -0.002613 0.001853 0.043826 -0.000127 0.004204 -0.000124
# 4 0.000030 -0.000088 -0.000127 0.057513 -0.000093 0.006065
# 5 0.005110 0.003134 0.004204 -0.000093 0.036404 0.000029
# 6 0.000011 -0.000027 -0.000124 0.006065 0.000029 0.040735
#
#
# Mechanical properties :
#
#
# Convention : Reuss Voigt Hill
#
# Bulk Modulus (GPa) = 15.95194 28.34034 22.14614
# Shear Modulus (GPa) = 20.91537 25.02180 22.96859
#
# Velocity S-wave (km/s) = 3.24821 3.55280 3.40392
# Velocity P-wave (km/s) = 4.70265 5.57910 5.15952
#
# Compressibility (1/GPa) = 0.06268831
#
# Stress axis : x y z
#
# Youngs Moduli (GPa) = 75.59513 62.32443 22.81737
#
# Poissons Ratio (x) = 0.27711 0.05962
# Poissons Ratio (y) = 0.33612 -0.04229
# Poissons Ratio (z) = 0.19751 -0.11551
#
# Static dielectric constant tensor:
#      x y z
#    x 1.728040 -0.000010 0.008730 
#    y -0.000010 1.685300 0.000040 
#    z 0.008730 0.000040 1.780920 
# 
# From -- ./inp_files/87941.got.cif
#   From: 2010.05.17/outbox.cif.g08.bks.cpg/sg15_44_cif.got.tgz:87941.got - 2010.06.03 18:47:42.
