data_PCOD9266202
_publ_section_title
;
Structure prediction by ZEFSAII (Michael W. Deem and Ramdas Pophale) SiO2 
 PCOD9266202
Probable space group: C 2/C
;
_chemical_formula_sum "Si O2"
_cell_formula_units_Z 56
_cell_length_a 8.804065
_cell_length_b 23.366481
_cell_length_c 20.588581
_cell_angle_alpha 90.000000
_cell_angle_beta 138.213329
_cell_angle_gamma 90.000000
_cell_volume 2822.352500
_symmetry_space_group_name_H-M "C 2/C"
_symmetry_group_IT_number 15
_symmetry_cell_setting 'monoclinic'
loop_
_space_group_symop_operation_xyz
x,y,z
-x,y,1/2-z
-x,-y,-z
x,-y,1/2+z
1/2+x,1/2+y,z
1/2-x,1/2+y,1/2-z
1/2-x,1/2-y,-z
1/2+x,1/2-y,1/2+z
loop_
_atom_site_type_symbol
_atom_site_label
_atom_site_fract_x
_atom_site_fract_y
_atom_site_fract_z
Si Si1 0.458919 0.356738 0.048198
Si Si2 0.518940 0.152155 0.178791
Si Si3 0.611156 0.283585 0.215049
Si Si4 0.147026 0.527845 0.933431
Si Si5 0.103458 0.012343 0.619838
Si Si6 0.755984 0.958999 0.705169
Si Si7 0.943108 0.644040 0.657760
O O1 0.467410 0.318523 0.115553
O O2 0.511995 0.422718 0.084231
O O3 0.680275 0.336672 0.077360
O O4 0.227750 0.352774 0.934189
O O5 0.500000 0.141708 0.250000
O O6 0.608144 0.216565 0.197810
O O7 0.683814 0.104601 0.201476
O O8 0.500000 0.291049 0.250000
O O9 0.866090 0.309337 0.296304
O O10 0.239356 0.502935 0.893289
O O11 0.050686 0.590565 0.888499
O O12 0.953776 0.487207 0.900599
O O13 0.381918 0.528365 0.047762
O O14 0.231281 0.998421 0.726340
O O15 0.000000 0.961420 0.750000
O O16 0.000000 0.623910 0.750000
#
# Coordination Sequence:
#
# PCOD9266202 Si02
#       7
#     8   8   8   8   8   8   8
#     4  10  20  41  67  93 116 164 212 255 300 364
#     4  11  24  43  64  86 124 169 215 252 301 370
#     4  10  22  41  63  93 122 160 203 263 318 363
#     4  10  19  37  61  89 117 157 209 239 294 366
#     4  10  21  37  65  89 117 161 210 244 298 368
#     4  12  25  38  56  91 132 162 191 260 320 359
#     4   9  19  35  62  92 115 155 210 249 298 358
#
# _framework density 19.841605000000001
#
# number of rings (size 3 to 8) (size 9 to 14) (size 15 to 20)
#    0.000    1.714    1.429    4.286    4.000    4.571 
#    2.571    2.857    0.000    0.000    0.000    0.000 
#    0.000    0.000    0.000    0.000    0.000    0.000 
#
# Total GULP energy -156393.536082 kJ/mol
# GULP energy per Si atom -5585.483431 kJ/mol
# Density = 1.979644 g / cm^3
# Si number density = 19.841605 Si / 1000 Ang^3
#
#
#
# Elastic Constant Matrix: (Units=GPa)
#
#
# Indices 1 2 3 4 5 6 
#
# 1 55.6214 40.2631 35.6469 0.0000 17.5096 0.0000
# 2 40.2631 107.2888 41.1836 0.0000 12.7036 0.0000
# 3 35.6469 41.1836 105.2779 0.0000 24.6424 0.0000
# 4 0.0000 0.0000 0.0000 27.9035 0.0000 4.1152
# 5 17.5096 12.7036 24.6424 0.0000 31.8887 0.0000
# 6 0.0000 0.0000 0.0000 4.1152 0.0000 24.1209
#
#
#
# Elastic Compliance Matrix: (Units=1/GPa)
#
#
# Indices 1 2 3 4 5 6 
#
# 1 0.030013 -0.008342 -0.004663 0.000000 -0.009553 0.000000
# 2 -0.008342 0.013330 -0.002709 0.000000 0.001364 0.000000
# 3 -0.004663 -0.002709 0.013777 0.000000 -0.007007 0.000000
# 4 0.000000 0.000000 0.000000 0.036763 0.000000 -0.006272
# 5 -0.009553 0.001364 -0.007007 0.000000 0.041476 0.000000
# 6 0.000000 0.000000 0.000000 -0.006272 0.000000 0.042528
#
#
# Mechanical properties :
#
#
# Convention : Reuss Voigt Hill
#
# Bulk Modulus (GPa) = 38.92268 55.81947 47.37108
# Shear Modulus (GPa) = 22.94851 26.85560 24.90206
#
# Velocity S-wave (km/s) = 3.40455 3.68299 3.54650
# Velocity P-wave (km/s) = 5.92570 6.80290 6.37939
#
# Compressibility (1/GPa) = 0.02569196
#
# Stress axis : x y z
#
# Youngs Moduli (GPa) = 33.31875 75.02062 72.58263
#
# Poissons Ratio (x) = 0.62584 0.33845
# Poissons Ratio (y) = 0.27795 0.19663
# Poissons Ratio (z) = 0.15536 0.20323
#
# Static dielectric constant tensor:
#      x y z
#    x 1.692530 0.000000 0.003620 
#    y 0.000000 1.696610 0.000000 
#    z 0.003620 0.000000 1.715890 
# 
# From -- ./inp_files/266438.got.cif
#   From: 2010.05.17/outbox.cif.g08.bks.cpg/sg15_134_cif.got.tgz:266438.got - 2010.06.03 18:47:42.
