data_PCOD9266403
_publ_section_title
;
Structure prediction by ZEFSAII (Michael W. Deem and Ramdas Pophale) SiO2 
 PCOD9266403
Probable space group: C 2/C
;
_chemical_formula_sum "Si O2"
_cell_formula_units_Z 64
_cell_length_a 21.279013
_cell_length_b 8.979236
_cell_length_c 19.144038
_cell_angle_alpha 90.000000
_cell_angle_beta 108.767168
_cell_angle_gamma 90.000000
_cell_volume 3463.364122
_symmetry_space_group_name_H-M "C 2/C"
_symmetry_group_IT_number 15
_symmetry_cell_setting 'monoclinic'
loop_
_space_group_symop_operation_xyz
x,y,z
-x,y,1/2-z
-x,-y,-z
x,-y,1/2+z
1/2+x,1/2+y,z
1/2-x,1/2+y,1/2-z
1/2-x,1/2-y,-z
1/2+x,1/2-y,1/2+z
loop_
_atom_site_type_symbol
_atom_site_label
_atom_site_fract_x
_atom_site_fract_y
_atom_site_fract_z
Si Si1 0.809156 0.340013 0.983252
Si Si2 0.928131 0.855701 0.135508
Si Si3 0.293291 0.755400 0.821077
Si Si4 0.082369 0.902840 0.595352
Si Si5 0.063798 0.133633 0.461863
Si Si6 0.692365 0.843481 0.943176
Si Si7 0.578028 0.349386 0.202085
Si Si8 0.728076 0.401282 0.665971
O O1 0.879146 0.255792 0.018922
O O2 0.813120 0.501201 0.018867
O O3 0.750000 0.250000 0.000000
O O4 0.793324 0.338454 0.895025
O O5 0.875492 0.748761 0.080477
O O6 0.912417 0.862444 0.211971
O O7 0.003597 0.797929 0.157933
O O8 0.926867 0.016926 0.098325
O O9 0.366744 0.752117 0.813855
O O10 0.276993 0.580733 0.828495
O O11 0.246220 0.828625 0.746431
O O12 0.074856 0.033716 0.535120
O O13 0.083601 0.986879 0.670076
O O14 0.156289 0.839442 0.614216
O O15 0.013244 0.813553 0.565490
O O16 0.716659 0.868387 0.872320
O O17 0.750000 0.750000 0.000000
#
# Coordination Sequence:
#
# PCOD9266403 Si02
#       8
#     8   8   8   8   8   8   8   8
#     4  12  23  40  60  91 123 157 200 256 306 356
#     4  10  20  36  63  89 114 160 201 245 297 367
#     4  11  23  40  63  88 120 159 202 249 303 368
#     4   9  18  35  62  89 116 155 200 247 296 364
#     4  10  19  37  64  88 119 153 200 254 303 355
#     4  12  25  39  59  89 126 163 202 248 309 370
#     4   9  18  37  62  84 116 157 206 236 294 366
#     4  11  22  41  60  91 121 162 202 249 305 363
#
# _framework density 18.479143000000001
#
# number of rings (size 3 to 8) (size 9 to 14) (size 15 to 20)
#    0.000    1.500    5.000    1.500    1.750    2.000 
#    0.000    1.875    0.000    0.000    0.000    0.000 
#    0.000    0.000    0.000    0.000    0.000    0.000 
#
# Total GULP energy -178575.917869 kJ/mol
# GULP energy per Si atom -5580.497433 kJ/mol
# Density = 1.843708 g / cm^3
# Si number density = 18.479143 Si / 1000 Ang^3
#
#
#
# Elastic Constant Matrix: (Units=GPa)
#
#
# Indices 1 2 3 4 5 6 
#
# 1 74.6549 26.7872 26.7760 0.0000 1.8079 0.0000
# 2 26.7872 53.9444 28.6659 0.0000 9.8580 0.0000
# 3 26.7760 28.6659 103.8578 0.0000 2.2547 0.0000
# 4 0.0000 0.0000 0.0000 32.6959 0.0000 4.3844
# 5 1.8079 9.8580 2.2547 0.0000 35.0366 0.0000
# 6 0.0000 0.0000 0.0000 4.3844 0.0000 23.6543
#
#
#
# Elastic Compliance Matrix: (Units=1/GPa)
#
#
# Indices 1 2 3 4 5 6 
#
# 1 0.016845 -0.007370 -0.002338 0.000000 0.001355 0.000000
# 2 -0.007370 0.026163 -0.005177 0.000000 -0.006648 0.000000
# 3 -0.002338 -0.005177 0.011642 0.000000 0.000828 0.000000
# 4 0.000000 0.000000 0.000000 0.031364 0.000000 -0.005814
# 5 0.001355 -0.006648 0.000828 0.000000 0.030289 0.000000
# 6 0.000000 0.000000 0.000000 -0.005814 0.000000 0.043353
#
#
# Mechanical properties :
#
#
# Convention : Reuss Voigt Hill
#
# Bulk Modulus (GPa) = 40.19195 44.10170 42.14682
# Shear Modulus (GPa) = 25.28820 28.29256 26.79038
#
# Velocity S-wave (km/s) = 3.70330 3.91711 3.81171
# Velocity P-wave (km/s) = 6.33112 6.66152 6.49842
#
# Compressibility (1/GPa) = 0.02488060
#
# Stress axis : x y z
#
# Youngs Moduli (GPa) = 59.36413 38.22169 85.89385
#
# Poissons Ratio (x) = 0.28169 0.20083
# Poissons Ratio (y) = 0.43751 0.44467
# Poissons Ratio (z) = 0.13880 0.19787
#
# Static dielectric constant tensor:
#      x y z
#    x 1.677980 0.000000 0.005610 
#    y 0.000000 1.601200 0.000000 
#    z 0.005610 0.000000 1.649000 
# 
# From -- ./inp_files/251901.got.cif
#   From: 2010.05.17/outbox.cif.g08.bks.cpg/sg15_126_cif.got.tgz:251901.got - 2010.06.03 18:47:42.
