data_PCOD9266843
_publ_section_title
;
Structure prediction by ZEFSAII (Michael W. Deem and Ramdas Pophale) SiO2 
 PCOD9266843
Probable space group: C 2/C
;
_chemical_formula_sum "Si O2"
_cell_formula_units_Z 64
_cell_length_a 24.625898
_cell_length_b 11.621825
_cell_length_c 15.997661
_cell_angle_alpha 90.000000
_cell_angle_beta 143.195495
_cell_angle_gamma 90.000000
_cell_volume 2742.915768
_symmetry_space_group_name_H-M "C 2/C"
_symmetry_group_IT_number 15
_symmetry_cell_setting 'monoclinic'
loop_
_space_group_symop_operation_xyz
x,y,z
-x,y,1/2-z
-x,-y,-z
x,-y,1/2+z
1/2+x,1/2+y,z
1/2-x,1/2+y,1/2-z
1/2-x,1/2-y,-z
1/2+x,1/2-y,1/2+z
loop_
_atom_site_type_symbol
_atom_site_label
_atom_site_fract_x
_atom_site_fract_y
_atom_site_fract_z
Si Si1 0.378931 0.078661 0.288745
Si Si2 0.410095 0.037791 0.999985
Si Si3 0.652398 0.425861 0.738036
Si Si4 0.667611 0.941371 0.431842
Si Si5 0.123552 0.203891 0.050561
Si Si6 0.591025 0.660780 0.684388
Si Si7 0.389716 0.546572 0.616493
Si Si8 0.407223 0.694118 0.182501
O O1 0.365410 0.021601 0.363289
O O2 0.484895 0.055985 0.395053
O O3 0.366725 0.215810 0.283063
O O4 0.331455 0.023586 0.148334
O O5 0.366804 0.163429 0.958393
O O6 0.402357 0.975801 0.079959
O O7 0.740151 0.444161 0.902380
O O8 0.676697 0.337180 0.696423
O O9 0.615576 0.548407 0.659900
O O10 0.580058 0.363836 0.710529
O O11 0.647143 0.811595 0.377510
O O12 0.146692 0.121703 0.003140
O O13 0.017210 0.179660 0.942187
O O14 0.625376 0.617206 0.817196
O O15 0.500000 0.540785 0.750000
O O16 0.361573 0.413024 0.577371
O O17 0.500000 0.720612 0.250000
#
# Coordination Sequence:
#
# PCOD9266843 Si02
#       8
#     8   8   8   8   8   8   8   8
#     4  10  21  40  66  88 125 166 214 267 301 381
#     4  10  22  39  63  95 117 168 224 250 314 381
#     4  11  24  40  59  95 128 163 205 261 332 381
#     4  12  24  41  60  95 136 167 201 262 339 381
#     4  10  19  38  62  84 124 157 208 267 295 371
#     4   9  19  37  63  87 113 161 214 258 310 363
#     4   8  16  32  57  88 108 148 205 253 303 351
#     4  10  21  39  64  87 117 164 218 255 305 385
#
# _framework density 23.332834999999999
#
# number of rings (size 3 to 8) (size 9 to 14) (size 15 to 20)
#    0.000    2.000    0.000    4.125    0.000    5.500 
#    9.000    0.000    0.000    0.000    0.000    0.000 
#    0.000    0.000    0.000    0.000    0.000    0.000 
#
# Total GULP energy -178784.277405 kJ/mol
# GULP energy per Si atom -5587.008669 kJ/mol
# Density = 2.327973 g / cm^3
# Si number density = 23.332835 Si / 1000 Ang^3
#
#
#
# Elastic Constant Matrix: (Units=GPa)
#
#
# Indices 1 2 3 4 5 6 
#
# 1 51.5760 22.4269 7.4373 0.0000 -9.6317 0.0000
# 2 22.4269 182.7038 31.5672 0.0000 -17.0820 0.0000
# 3 7.4373 31.5672 83.0857 0.0000 -16.9093 0.0000
# 4 0.0000 0.0000 0.0000 25.9492 0.0000 -4.7729
# 5 -9.6317 -17.0820 -16.9093 0.0000 31.4171 0.0000
# 6 0.0000 0.0000 0.0000 -4.7729 0.0000 27.7322
#
#
#
# Elastic Compliance Matrix: (Units=1/GPa)
#
#
# Indices 1 2 3 4 5 6 
#
# 1 0.021313 -0.002111 -0.000011 0.000000 0.005380 0.000000
# 2 -0.002111 0.006210 -0.001814 0.000000 0.001753 0.000000
# 3 -0.000011 -0.001814 0.014065 0.000000 0.006581 0.000000
# 4 0.000000 0.000000 0.000000 0.039797 0.000000 0.006849
# 5 0.005380 0.001753 0.006581 0.000000 0.037974 0.000000
# 6 0.000000 0.000000 0.000000 0.006849 0.000000 0.037238
#
#
# Mechanical properties :
#
#
# Convention : Reuss Voigt Hill
#
# Bulk Modulus (GPa) = 29.65861 48.91423 39.28642
# Shear Modulus (GPa) = 28.45648 34.08198 31.26923
#
# Velocity S-wave (km/s) = 3.49605 3.82604 3.66476
# Velocity P-wave (km/s) = 5.38843 6.36611 5.89756
#
# Compressibility (1/GPa) = 0.03371702
#
# Stress axis : x y z
#
# Youngs Moduli (GPa) = 46.91911 161.03733 71.09824
#
# Poissons Ratio (x) = 0.34000 0.00076
# Poissons Ratio (y) = 0.09906 0.12894
# Poissons Ratio (z) = 0.00050 0.29205
#
# Static dielectric constant tensor:
#      x y z
#    x 2.023090 0.000000 0.039430 
#    y 0.000000 1.847980 0.000000 
#    z 0.039430 0.000000 1.890050 
# 
# From -- ./inp_files/177865.got.cif
#   From: 2010.05.17/outbox.cif.g08.bks.cpg/sg15_89_cif.got.tgz:177865.got - 2010.06.03 18:47:42.
