data_PCOD9266722
_publ_section_title
;
Structure prediction by ZEFSAII (Michael W. Deem and Ramdas Pophale) SiO2 
 PCOD9266722
Probable space group: C 2/C
;
_chemical_formula_sum "Si O2"
_cell_formula_units_Z 48
_cell_length_a 12.965780
_cell_length_b 30.058041
_cell_length_c 5.793035
_cell_angle_alpha 90.000000
_cell_angle_beta 97.378987
_cell_angle_gamma 90.000000
_cell_volume 2238.998559
_symmetry_space_group_name_H-M "C 2/C"
_symmetry_group_IT_number 15
_symmetry_cell_setting 'monoclinic'
loop_
_space_group_symop_operation_xyz
x,y,z
-x,y,1/2-z
-x,-y,-z
x,-y,1/2+z
1/2+x,1/2+y,z
1/2-x,1/2+y,1/2-z
1/2-x,1/2-y,-z
1/2+x,1/2-y,1/2+z
loop_
_atom_site_type_symbol
_atom_site_label
_atom_site_fract_x
_atom_site_fract_y
_atom_site_fract_z
Si Si1 0.830544 0.108346 0.527899
Si Si2 0.000000 0.331538 0.250000
Si Si3 0.652696 0.209440 0.143642
Si Si4 0.120750 0.015731 0.778517
Si Si5 0.607345 0.122152 0.406886
Si Si6 0.000000 0.853605 0.750000
Si Si7 0.152019 0.808041 0.132975
O O1 0.873074 0.068926 0.698694
O O2 0.713886 0.095563 0.413587
O O3 0.824766 0.153501 0.676863
O O4 0.908736 0.117220 0.339092
O O5 0.919222 0.365977 0.339083
O O6 0.059093 0.299530 0.440573
O O7 0.636171 0.170702 0.318925
O O8 0.645920 0.258941 0.240222
O O9 0.758207 0.199154 0.033990
O O10 0.000000 0.000731 0.750000
O O11 0.164650 0.001390 0.540086
O O12 0.500000 0.107358 0.250000
O O13 0.949892 0.823411 0.535254
#
# Coordination Sequence:
#
# PCOD9266722 Si02
#       7
#     8   4   8   8   8   4   8
#     4  12  25  42  65  94 130 164 218 269 337 397
#     4  10  19  38  60  80 114 172 220 268 304 370
#     4  10  21  37  58  83 124 172 224 265 319 371
#     4  10  24  44  72 102 136 176 215 267 338 420
#     4  10  22  40  62  88 120 168 219 268 309 378
#     4  12  25  38  58  94 128 174 204 276 328 396
#     4  11  23  37  56  89 125 173 212 271 322 384
#
# _framework density 21.438154999999998
#
# number of rings (size 3 to 8) (size 9 to 14) (size 15 to 20)
#    0.000    1.333    3.333    2.000    5.833    6.000 
#    0.000    0.000    0.000    1.000    0.000    0.000 
#    0.000    0.000    0.000    0.000    0.000    0.000 
#
# Total GULP energy -133977.804162 kJ/mol
# GULP energy per Si atom -5582.408507 kJ/mol
# Density = 2.138936 g / cm^3
# Si number density = 21.438155 Si / 1000 Ang^3
#
#
#
# Elastic Constant Matrix: (Units=GPa)
#
#
# Indices 1 2 3 4 5 6 
#
# 1 101.2277 6.1004 15.9544 0.0000 -1.6935 0.0000
# 2 6.1004 56.6107 23.7320 0.0000 0.7539 0.0000
# 3 15.9544 23.7320 79.1173 0.0000 -0.2015 0.0000
# 4 0.0000 0.0000 0.0000 25.3316 0.0000 4.4759
# 5 -1.6935 0.7539 -0.2015 0.0000 31.9183 0.0000
# 6 0.0000 0.0000 0.0000 4.4759 0.0000 8.6771
#
#
#
# Elastic Compliance Matrix: (Units=1/GPa)
#
#
# Indices 1 2 3 4 5 6 
#
# 1 0.010216 -0.000280 -0.001975 0.000000 0.000536 0.000000
# 2 -0.000280 0.020221 -0.006010 0.000000 -0.000530 0.000000
# 3 -0.001975 -0.006010 0.014841 0.000000 0.000131 0.000000
# 4 0.000000 0.000000 0.000000 0.043435 0.000000 -0.022405
# 5 0.000536 -0.000530 0.000131 0.000000 0.031372 0.000000
# 6 0.000000 0.000000 0.000000 -0.022405 0.000000 0.126804
#
#
# Mechanical properties :
#
#
# Convention : Reuss Voigt Hill
#
# Bulk Modulus (GPa) = 34.78561 36.50323 35.64442
# Shear Modulus (GPa) = 18.31487 25.92999 22.12243
#
# Velocity S-wave (km/s) = 2.92603 3.48160 3.21583
# Velocity P-wave (km/s) = 5.26088 5.76422 5.51829
#
# Compressibility (1/GPa) = 0.02874752
#
# Stress axis : x y z
#
# Youngs Moduli (GPa) = 97.88760 49.45246 67.38140
#
# Poissons Ratio (x) = 0.01386 0.13305
# Poissons Ratio (y) = 0.02743 0.40499
# Poissons Ratio (z) = 0.19329 0.29723
#
# Static dielectric constant tensor:
#      x y z
#    x 1.857730 0.000000 -0.022110 
#    y 0.000000 1.754140 0.000000 
#    z -0.022110 0.000000 1.834810 
# 
# From -- ./inp_files/8773.got.cif
#   From: 2010.05.17/outbox.cif.g08.bks.cpg/sg15_5_cif.got.tgz:8773.got - 2010.06.03 18:47:42.
