data_PCOD9266245
_publ_section_title
;
Structure prediction by ZEFSAII (Michael W. Deem and Ramdas Pophale) SiO2 
 PCOD9266245
Probable space group: C 2/C
;
_chemical_formula_sum "Si O2"
_cell_formula_units_Z 52
_cell_length_a 19.146297
_cell_length_b 18.083539
_cell_length_c 22.412593
_cell_angle_alpha 90.000000
_cell_angle_beta 158.911832
_cell_angle_gamma 90.000000
_cell_volume 2792.071128
_symmetry_space_group_name_H-M "C 2/C"
_symmetry_group_IT_number 15
_symmetry_cell_setting 'monoclinic'
loop_
_space_group_symop_operation_xyz
x,y,z
-x,y,1/2-z
-x,-y,-z
x,-y,1/2+z
1/2+x,1/2+y,z
1/2-x,1/2+y,1/2-z
1/2-x,1/2-y,-z
1/2+x,1/2-y,1/2+z
loop_
_atom_site_type_symbol
_atom_site_label
_atom_site_fract_x
_atom_site_fract_y
_atom_site_fract_z
Si Si1 0.723038 0.507886 0.949482
Si Si2 0.049850 0.500823 0.609979
Si Si3 0.775899 0.826603 0.054206
Si Si4 0.312562 0.852339 0.219515
Si Si5 0.088460 0.663779 0.150189
Si Si6 0.000000 0.590833 0.750000
Si Si7 0.542848 0.749613 0.064724
O O1 0.500000 0.494992 0.750000
O O2 0.747025 0.591990 0.992985
O O3 0.854859 0.499071 0.995024
O O4 0.824623 0.456442 0.080084
O O5 0.000000 0.500000 0.500000
O O6 0.169863 0.571677 0.728549
O O7 0.148411 0.421676 0.702150
O O8 0.000000 0.827007 0.250000
O O9 0.750000 0.750000 0.000000
O O10 0.611990 0.826544 0.974491
O O11 0.408954 0.864412 0.232284
O O12 0.421004 0.789023 0.343797
O O13 0.096800 0.820617 0.041319
O O14 0.256833 0.719747 0.304071
O O15 0.047762 0.688392 0.050132
#
# Coordination Sequence:
#
# PCOD9266245 Si02
#       7
#     8   8   8   8   8   4   8
#     4   9  21  39  58  87 120 160 197 254 305 355
#     4  10  19  37  62  84 117 157 199 241 298 360
#     4  10  20  34  55  83 115 157 202 236 299 360
#     4  10  22  40  61  88 117 157 198 252 304 366
#     4  10  20  36  57  83 118 155 190 245 290 350
#     4  10  22  42  62  86 122 152 210 254 304 368
#     4  10  21  38  58  85 121 149 196 249 302 349
#
# _framework density 18.624167
#
# number of rings (size 3 to 8) (size 9 to 14) (size 15 to 20)
#    0.000    2.154    1.538    0.923    1.077    2.462 
#    5.538    0.000    0.000    0.000    0.000    0.000 
#    0.000    0.000    0.000    0.000    0.000    0.000 
#
# Total GULP energy -144779.853369 kJ/mol
# GULP energy per Si atom -5568.455899 kJ/mol
# Density = 1.858178 g / cm^3
# Si number density = 18.624167 Si / 1000 Ang^3
#
#
#
# Elastic Constant Matrix: (Units=GPa)
#
#
# Indices 1 2 3 4 5 6 
#
# 1 73.9794 51.1364 25.8073 -0.0298 -0.2412 -0.0095
# 2 51.1364 120.9568 55.4259 0.0322 4.8253 -0.0085
# 3 25.8073 55.4259 82.4791 0.0320 9.0426 -0.0224
# 4 -0.0298 0.0322 0.0320 29.1747 -0.0038 -2.6678
# 5 -0.2412 4.8253 9.0426 -0.0038 19.8521 -0.0094
# 6 -0.0095 -0.0085 -0.0224 -2.6678 -0.0094 26.4784
#
#
#
# Elastic Compliance Matrix: (Units=1/GPa)
#
#
# Indices 1 2 3 4 5 6 
#
# 1 0.019263 -0.007737 -0.001115 0.000030 0.002623 0.000007
# 2 -0.007737 0.015066 -0.007675 -0.000017 -0.000260 -0.000006
# 3 -0.001115 -0.007675 0.018344 -0.000013 -0.006504 0.000009
# 4 0.000030 -0.000017 -0.000013 0.034595 0.000019 0.003486
# 5 0.002623 -0.000260 -0.006504 0.000019 0.053430 0.000016
# 6 0.000007 -0.000006 0.000009 0.003486 0.000016 0.038118
#
#
# Mechanical properties :
#
#
# Convention : Reuss Voigt Hill
#
# Bulk Modulus (GPa) = 50.97425 60.23940 55.60683
# Shear Modulus (GPa) = 22.89280 24.77075 23.83177
#
# Velocity S-wave (km/s) = 3.50980 3.65092 3.58105
# Velocity P-wave (km/s) = 6.62226 7.08429 6.85717
#
# Compressibility (1/GPa) = 0.01961775
#
# Stress axis : x y z
#
# Youngs Moduli (GPa) = 51.91240 66.37640 54.51482
#
# Poissons Ratio (x) = 0.51358 0.06081
# Poissons Ratio (y) = 0.40166 0.41838
# Poissons Ratio (z) = 0.05790 0.50941
#
# Static dielectric constant tensor:
#      x y z
#    x 1.625620 0.000010 -0.033620 
#    y 0.000010 1.673470 -0.000080 
#    z -0.033620 -0.000080 1.598780 
# 
# From -- ./inp_files/56059.got.cif
#   From: 2010.05.17/outbox.cif.g08.bks.cpg/sg15_29_cif.got.tgz:56059.got - 2010.06.03 18:47:42.
