data_PCOD9266511
_publ_section_title
;
Structure prediction by ZEFSAII (Michael W. Deem and Ramdas Pophale) SiO2 
 PCOD9266511
Probable space group: C 2/C
;
_chemical_formula_sum "Si O2"
_cell_formula_units_Z 56
_cell_length_a 16.622850
_cell_length_b 14.609514
_cell_length_c 11.549087
_cell_angle_alpha 90.000000
_cell_angle_beta 112.133098
_cell_angle_gamma 90.000000
_cell_volume 2598.039779
_symmetry_space_group_name_H-M "C 2/C"
_symmetry_group_IT_number 15
_symmetry_cell_setting 'monoclinic'
loop_
_space_group_symop_operation_xyz
x,y,z
-x,y,1/2-z
-x,-y,-z
x,-y,1/2+z
1/2+x,1/2+y,z
1/2-x,1/2+y,1/2-z
1/2-x,1/2-y,-z
1/2+x,1/2-y,1/2+z
loop_
_atom_site_type_symbol
_atom_site_label
_atom_site_fract_x
_atom_site_fract_y
_atom_site_fract_z
Si Si1 0.035079 0.402925 0.563315
Si Si2 0.283233 0.828871 0.215102
Si Si3 0.182715 0.120162 0.030209
Si Si4 0.272918 0.129379 0.307115
Si Si5 0.925731 0.255587 0.116106
Si Si6 0.361468 0.825504 0.510852
Si Si7 0.325396 0.424057 0.514276
O O1 0.132025 0.410970 0.666892
O O2 0.046814 0.328043 0.466613
O O3 0.000000 0.500000 0.500000
O O4 0.954513 0.365286 0.593381
O O5 0.220820 0.740323 0.195263
O O6 0.347251 0.798507 0.147343
O O7 0.335132 0.844321 0.361792
O O8 0.228698 0.912162 0.134196
O O9 0.195963 0.111704 0.174647
O O10 0.137888 0.215702 0.975384
O O11 0.281442 0.132066 0.037490
O O12 0.142283 0.027639 0.959798
O O13 0.239099 0.095791 0.413014
O O14 0.895446 0.156986 0.053649
O O15 0.000000 0.241675 0.250000
#
# Coordination Sequence:
#
# PCOD9266511 Si02
#       7
#     8   8   8   8   8   8   8
#     4  12  23  37  59  92 125 154 196 251 311 362
#     4  10  19  37  66  86 120 160 198 256 301 355
#     4  10  24  41  63  84 124 168 206 243 298 375
#     4  10  21  40  60  91 119 156 207 251 297 360
#     4  11  21  39  63  95 126 153 201 266 307 346
#     4  10  23  42  58  87 128 163 195 245 318 362
#     4  11  21  38  68  93 115 161 214 250 300 362
#
# _framework density 21.554713
#
# number of rings (size 3 to 8) (size 9 to 14) (size 15 to 20)
#    0.000    1.429    4.286    1.714    4.000    0.571 
#    0.000    0.714    9.429    0.000    0.000    0.000 
#    0.000    0.000    0.000    0.000    0.000    0.000 
#
# Total GULP energy -156383.347317 kJ/mol
# GULP energy per Si atom -5585.119547 kJ/mol
# Density = 2.150565 g / cm^3
# Si number density = 21.554713 Si / 1000 Ang^3
#
#
#
# Elastic Constant Matrix: (Units=GPa)
#
#
# Indices 1 2 3 4 5 6 
#
# 1 48.9685 19.5814 -12.3578 0.0000 9.1078 0.0000
# 2 19.5814 121.6383 9.5803 0.0000 6.4118 0.0000
# 3 -12.3578 9.5803 48.2121 0.0000 -1.8861 0.0000
# 4 0.0000 0.0000 0.0000 6.1556 0.0000 6.6365
# 5 9.1078 6.4118 -1.8861 0.0000 26.8415 0.0000
# 6 0.0000 0.0000 0.0000 6.6365 0.0000 14.7361
#
#
#
# Elastic Compliance Matrix: (Units=1/GPa)
#
#
# Indices 1 2 3 4 5 6 
#
# 1 0.025200 -0.004239 0.007026 0.000000 -0.007044 0.000000
# 2 -0.004239 0.009187 -0.002950 0.000000 -0.000963 0.000000
# 3 0.007026 -0.002950 0.023127 0.000000 -0.000054 0.000000
# 4 0.000000 0.000000 0.000000 0.315780 0.000000 -0.142214
# 5 -0.007044 -0.000963 -0.000054 0.000000 0.039872 0.000000
# 6 0.000000 0.000000 0.000000 -0.142214 0.000000 0.131908
#
#
# Mechanical properties :
#
#
# Convention : Reuss Voigt Hill
#
# Bulk Modulus (GPa) = 17.48626 28.04741 22.76683
# Shear Modulus (GPa) = 8.85803 23.01430 15.93616
#
# Velocity S-wave (km/s) = 2.02940 3.27114 2.72202
# Velocity P-wave (km/s) = 3.69072 5.22566 4.52377
#
# Compressibility (1/GPa) = 0.05718775
#
# Stress axis : x y z
#
# Youngs Moduli (GPa) = 39.68327 108.85494 43.24038
#
# Poissons Ratio (x) = 0.46140 -0.30380
# Poissons Ratio (y) = 0.16820 0.12754
# Poissons Ratio (z) = -0.27881 0.32108
#
# Static dielectric constant tensor:
#      x y z
#    x 1.788690 0.000000 -0.000990 
#    y 0.000000 1.791810 0.000000 
#    z -0.000990 0.000000 1.813520 
# 
# From -- ./inp_files/105428.got.cif
#   From: 2010.05.17/outbox.cif.g08.bks.cpg/sg15_53_cif.got.tgz:105428.got - 2010.06.03 18:47:42.
