data_PCOD9266027
_publ_section_title
;
Structure prediction by ZEFSAII (Michael W. Deem and Ramdas Pophale) SiO2 
 PCOD9266027
Probable space group: C 2/C
;
_chemical_formula_sum "Si O2"
_cell_formula_units_Z 52
_cell_length_a 18.096462
_cell_length_b 16.028909
_cell_length_c 8.829590
_cell_angle_alpha 90.000000
_cell_angle_beta 63.617409
_cell_angle_gamma 90.000000
_cell_volume 2294.414782
_symmetry_space_group_name_H-M "C 2/C"
_symmetry_group_IT_number 15
_symmetry_cell_setting 'monoclinic'
loop_
_space_group_symop_operation_xyz
x,y,z
-x,y,1/2-z
-x,-y,-z
x,-y,1/2+z
1/2+x,1/2+y,z
1/2-x,1/2+y,1/2-z
1/2-x,1/2-y,-z
1/2+x,1/2-y,1/2+z
loop_
_atom_site_type_symbol
_atom_site_label
_atom_site_fract_x
_atom_site_fract_y
_atom_site_fract_z
Si Si1 0.436244 0.509761 0.194765
Si Si2 0.739581 0.408747 0.647219
Si Si3 0.658742 0.015032 0.169125
Si Si4 0.500000 0.199436 0.250000
Si Si5 0.218775 0.254856 0.287592
Si Si6 0.144424 0.831989 0.145242
Si Si7 0.413453 0.891534 0.057391
O O1 0.500000 0.553632 0.250000
O O2 0.353906 0.561178 0.238468
O O3 0.400883 0.421065 0.292910
O O4 0.500000 0.500000 0.000000
O O5 0.773725 0.453035 0.465686
O O6 0.798780 0.438344 0.729882
O O7 0.741483 0.309521 0.637003
O O8 0.586354 0.960084 0.311992
O O9 0.631180 0.071904 0.053741
O O10 0.576799 0.259871 0.200337
O O11 0.495105 0.144477 0.406819
O O12 0.196394 0.189950 0.446461
O O13 0.292785 0.314089 0.275085
O O14 0.140486 0.313810 0.335005
#
# Coordination Sequence:
#
# PCOD9266027 Si02
#       7
#     8   8   8   4   8   8   8
#     4  12  24  37  59  92 132 167 199 251 316 385
#     4  11  21  37  62  89 122 163 211 252 296 369
#     4  10  21  39  59  87 119 156 208 255 302 361
#     4  10  20  34  62  86 118 156 202 254 302 378
#     4  10  20  36  64  88 115 161 213 256 294 361
#     4  10  19  37  59  87 122 163 209 245 305 374
#     4  10  22  38  61  90 116 155 201 258 312 363
#
# _framework density 22.663732
#
# number of rings (size 3 to 8) (size 9 to 14) (size 15 to 20)
#    0.000    1.538    0.769    7.385    2.154    1.231 
#    0.000    0.000    0.000    0.000    2.000    0.000 
#    0.000    0.000    0.000    0.000    0.000    0.000 
#
# Total GULP energy -145212.502632 kJ/mol
# GULP energy per Si atom -5585.096255 kJ/mol
# Density = 2.261215 g / cm^3
# Si number density = 22.663732 Si / 1000 Ang^3
#
#
#
# Elastic Constant Matrix: (Units=GPa)
#
#
# Indices 1 2 3 4 5 6 
#
# 1 35.1491 1.4278 -2.2393 0.0000 -4.9468 0.0000
# 2 1.4278 94.0128 12.0000 0.0000 8.3967 0.0000
# 3 -2.2393 12.0000 59.9361 0.0000 -2.4674 0.0000
# 4 0.0000 0.0000 0.0000 31.6706 0.0000 -0.5084
# 5 -4.9468 8.3967 -2.4674 0.0000 25.5558 0.0000
# 6 0.0000 0.0000 0.0000 -0.5084 0.0000 25.3879
#
#
#
# Elastic Compliance Matrix: (Units=1/GPa)
#
#
# Indices 1 2 3 4 5 6 
#
# 1 0.029482 -0.001211 0.001602 0.000000 0.006259 0.000000
# 2 -0.001211 0.011349 -0.002490 0.000000 -0.004204 0.000000
# 3 0.001602 -0.002490 0.017358 0.000000 0.002804 0.000000
# 4 0.000000 0.000000 0.000000 0.031585 0.000000 0.000633
# 5 0.006259 -0.004204 0.002804 0.000000 0.041994 0.000000
# 6 0.000000 0.000000 0.000000 0.000633 0.000000 0.039401
#
#
# Mechanical properties :
#
#
# Convention : Reuss Voigt Hill
#
# Bulk Modulus (GPa) = 18.52218 23.49721 21.00969
# Shear Modulus (GPa) = 25.85770 28.38350 27.12060
#
# Velocity S-wave (km/s) = 3.38143 3.54273 3.46302
# Velocity P-wave (km/s) = 4.84105 5.20815 5.02795
#
# Compressibility (1/GPa) = 0.05398934
#
# Stress axis : x y z
#
# Youngs Moduli (GPa) = 33.91851 88.11678 57.60916
#
# Poissons Ratio (x) = 0.10673 -0.09227
# Poissons Ratio (y) = 0.04108 0.14347
# Poissons Ratio (z) = -0.05433 0.21945
#
# Static dielectric constant tensor:
#      x y z
#    x 1.790380 0.000000 -0.052580 
#    y 0.000000 1.862390 0.000000 
#    z -0.052580 0.000000 1.870240 
# 
# From -- ./inp_files/48939.got.cif
#   From: 2010.05.17/outbox.cif.g08.bks.cpg/sg15_25_cif.got.tgz:48939.got - 2010.06.03 18:47:42.
