data_PCOD9266450
_publ_section_title
;
Structure prediction by ZEFSAII (Michael W. Deem and Ramdas Pophale) SiO2 
 PCOD9266450
Probable space group: C 2/C
;
_chemical_formula_sum "Si O2"
_cell_formula_units_Z 44
_cell_length_a 10.982052
_cell_length_b 16.918121
_cell_length_c 13.770724
_cell_angle_alpha 90.000000
_cell_angle_beta 55.859718
_cell_angle_gamma 90.000000
_cell_volume 2117.617397
_symmetry_space_group_name_H-M "C 2/C"
_symmetry_group_IT_number 15
_symmetry_cell_setting 'monoclinic'
loop_
_space_group_symop_operation_xyz
x,y,z
-x,y,1/2-z
-x,-y,-z
x,-y,1/2+z
1/2+x,1/2+y,z
1/2-x,1/2+y,1/2-z
1/2-x,1/2-y,-z
1/2+x,1/2-y,1/2+z
loop_
_atom_site_type_symbol
_atom_site_label
_atom_site_fract_x
_atom_site_fract_y
_atom_site_fract_z
Si Si1 0.426161 0.242496 0.888395
Si Si2 0.733317 0.009715 0.884923
Si Si3 0.770249 0.003502 0.649783
Si Si4 0.502119 0.866775 0.963140
Si Si5 0.500000 0.113375 0.250000
Si Si6 0.561429 0.579860 0.073974
O O1 0.500000 0.214044 0.750000
O O2 0.493628 0.194410 0.949866
O O3 0.468560 0.334516 0.872245
O O4 0.250000 0.250000 0.000000
O O5 0.753758 0.033977 0.765255
O O6 0.879596 0.982713 0.873719
O O7 0.646045 0.081454 0.970872
O O8 0.631029 0.930961 0.927086
O O9 0.635728 0.947785 0.683514
O O10 0.913657 0.948274 0.588603
O O11 0.803565 0.075015 0.562671
O O12 0.518786 0.839442 0.843173
#
# Coordination Sequence:
#
# PCOD9266450 Si02
#       6
#     8   8   8   8   4   8
#     4  12  27  44  69 102 142 180 234 289 353 411
#     4  10  19  37  64  97 126 168 230 282 333 403
#     4  10  22  36  68  92 134 169 231 281 342 407
#     4  10  22  38  66  97 131 176 223 286 338 414
#     4  10  20  42  66  98 132 180 232 282 344 420
#     4  11  22  42  64  99 131 178 222 293 345 401
#
# _framework density 20.778068999999999
#
# number of rings (size 3 to 8) (size 9 to 14) (size 15 to 20)
#    0.000    1.455    3.636    1.636    5.091    0.000 
#    3.273    0.909    8.000    0.000    0.000    0.000 
#    0.000    0.000    0.000    0.000    0.000    0.000 
#
# Total GULP energy -122482.691042 kJ/mol
# GULP energy per Si atom -5567.395047 kJ/mol
# Density = 2.073078 g / cm^3
# Si number density = 20.778069 Si / 1000 Ang^3
#
#
#
# Elastic Constant Matrix: (Units=GPa)
#
#
# Indices 1 2 3 4 5 6 
#
# 1 116.0262 34.7454 51.1041 0.0000 8.1281 0.0000
# 2 34.7454 50.0865 33.8284 0.0000 15.4619 0.0000
# 3 51.1041 33.8284 157.1475 0.0000 37.5426 0.0000
# 4 0.0000 0.0000 0.0000 25.0256 0.0000 10.4612
# 5 8.1281 15.4619 37.5426 0.0000 50.9685 0.0000
# 6 0.0000 0.0000 0.0000 10.4612 0.0000 14.8149
#
#
#
# Elastic Compliance Matrix: (Units=1/GPa)
#
#
# Indices 1 2 3 4 5 6 
#
# 1 0.011821 -0.006966 -0.002911 0.000000 0.002373 0.000000
# 2 -0.006966 0.028198 -0.002459 0.000000 -0.005632 0.000000
# 3 -0.002911 -0.002459 0.009163 0.000000 -0.005539 0.000000
# 4 0.000000 0.000000 0.000000 0.056694 0.000000 -0.040033
# 5 0.002373 -0.005632 -0.005539 0.000000 0.025030 0.000000
# 6 0.000000 0.000000 0.000000 -0.040033 0.000000 0.095768
#
#
# Mechanical properties :
#
#
# Convention : Reuss Voigt Hill
#
# Bulk Modulus (GPa) = 40.80358 62.51289 51.65823
# Shear Modulus (GPa) = 19.26664 31.73394 25.50029
#
# Velocity S-wave (km/s) = 3.04840 3.91228 3.50704
# Velocity P-wave (km/s) = 5.66310 7.11050 6.42767
#
# Compressibility (1/GPa) = 0.02450766
#
# Stress axis : x y z
#
# Youngs Moduli (GPa) = 84.59480 35.46404 109.13661
#
# Poissons Ratio (x) = 0.24706 0.31774
# Poissons Ratio (y) = 0.58933 0.26837
# Poissons Ratio (z) = 0.24629 0.08721
#
# Static dielectric constant tensor:
#      x y z
#    x 1.774950 0.000000 0.027420 
#    y 0.000000 1.705600 0.000000 
#    z 0.027420 0.000000 1.919470 
# 
# From -- ./inp_files/145443.got.cif
#   From: 2010.05.17/outbox.cif.g08.bks.cpg/sg15_73_cif.got.tgz:145443.got - 2010.06.03 18:47:42.
