data_PCOD9266627
_publ_section_title
;
Structure prediction by ZEFSAII (Michael W. Deem and Ramdas Pophale) SiO2 
 PCOD9266627
Probable space group: C 2/C
;
_chemical_formula_sum "Si O2"
_cell_formula_units_Z 40
_cell_length_a 9.347053
_cell_length_b 15.837930
_cell_length_c 31.297170
_cell_angle_alpha 90.000000
_cell_angle_beta 151.325162
_cell_angle_gamma 90.000000
_cell_volume 2223.171940
_symmetry_space_group_name_H-M "C 2/C"
_symmetry_group_IT_number 15
_symmetry_cell_setting 'monoclinic'
loop_
_space_group_symop_operation_xyz
x,y,z
-x,y,1/2-z
-x,-y,-z
x,-y,1/2+z
1/2+x,1/2+y,z
1/2-x,1/2+y,1/2-z
1/2-x,1/2-y,-z
1/2+x,1/2-y,1/2+z
loop_
_atom_site_type_symbol
_atom_site_label
_atom_site_fract_x
_atom_site_fract_y
_atom_site_fract_z
Si Si1 0.500000 0.237347 0.750000
Si Si2 0.500000 0.949270 0.750000
Si Si3 0.843780 0.941896 0.166697
Si Si4 0.018015 0.904361 0.116834
Si Si5 0.279958 0.966651 0.544894
Si Si6 0.749164 0.611121 0.268260
O O1 0.772354 0.176749 0.833242
O O2 0.408214 0.301352 0.763271
O O3 0.591049 0.892553 0.734717
O O4 0.770944 0.012821 0.830843
O O5 0.000000 0.901510 0.250000
O O6 0.885711 0.902512 0.130481
O O7 0.498892 0.957426 0.087505
O O8 0.014651 0.032989 0.207746
O O9 0.806522 0.916606 0.020771
O O10 0.494612 0.909146 0.630192
O O11 0.000000 0.000000 0.500000
#
# Coordination Sequence:
#
# PCOD9266627 Si02
#       6
#     4   4   8   8   8   8
#     4  11  22  38  56  85 116 156 180 229 296 348
#     4   9  18  36  58  79 108 150 192 227 272 342
#     4   9  19  37  60  80 112 153 191 225 276 342
#     4  10  21  34  59  87 111 143 194 237 279 331
#     4  11  19  34  62  90 110 142 199 246 272 323
#     4  10  19  38  56  81 115 156 184 226 289 344
#
# _framework density 17.992311000000001
#
# number of rings (size 3 to 8) (size 9 to 14) (size 15 to 20)
#    0.000    2.000    5.000    0.600    2.800    0.800 
#    1.800    0.000    0.000    2.400    0.000    0.000 
#    0.000    0.000    0.000    0.000    0.000    0.000 
#
# Total GULP energy -111400.151022 kJ/mol
# GULP energy per Si atom -5570.007551 kJ/mol
# Density = 1.795136 g / cm^3
# Si number density = 17.992311 Si / 1000 Ang^3
#
#
#
# Elastic Constant Matrix: (Units=GPa)
#
#
# Indices 1 2 3 4 5 6 
#
# 1 178.6754 42.4086 50.7688 -0.0003 -6.5361 -0.0002
# 2 42.4086 59.5904 25.0999 0.0002 -9.2214 -0.0004
# 3 50.7688 25.0999 80.8475 0.0002 -2.7998 0.0004
# 4 -0.0003 0.0002 0.0002 3.2987 -0.0002 2.0176
# 5 -6.5361 -9.2214 -2.7998 -0.0002 32.0216 -0.0002
# 6 -0.0002 -0.0004 0.0004 2.0176 -0.0002 24.9219
#
#
#
# Elastic Compliance Matrix: (Units=1/GPa)
#
#
# Indices 1 2 3 4 5 6 
#
# 1 0.007514 -0.003847 -0.003520 0.000001 0.000118 0.000000
# 2 -0.003847 0.022125 -0.004273 -0.000001 0.005213 0.000001
# 3 -0.003520 -0.004273 0.015887 -0.000001 -0.000560 0.000000
# 4 0.000001 -0.000001 -0.000001 0.318947 0.000002 -0.025821
# 5 0.000118 0.005213 -0.000560 0.000002 0.032705 0.000000
# 6 0.000000 0.000001 0.000000 -0.025821 0.000000 0.042216
#
#
# Mechanical properties :
#
#
# Convention : Reuss Voigt Hill
#
# Bulk Modulus (GPa) = 44.95100 61.74089 53.34594
# Shear Modulus (GPa) = 10.63628 25.43751 18.03689
#
# Velocity S-wave (km/s) = 2.43401 3.76413 3.16963
# Velocity P-wave (km/s) = 5.73907 7.29940 6.56575
#
# Compressibility (1/GPa) = 0.02224645
#
# Stress axis : x y z
#
# Youngs Moduli (GPa) = 133.07895 45.19731 62.94533
#
# Poissons Ratio (x) = 0.17386 0.22159
# Poissons Ratio (y) = 0.51190 0.26896
# Poissons Ratio (z) = 0.46849 0.19313
#
# Static dielectric constant tensor:
#      x y z
#    x 1.664930 0.000000 -0.010440 
#    y 0.000000 1.589420 0.000000 
#    z -0.010440 0.000000 1.663320 
# 
# From -- ./inp_files/133230.got.cif
#   From: 2010.05.17/outbox.cif.g08.bks.cpg/sg15_67_cif.got.tgz:133230.got - 2010.06.03 18:47:42.
