data_PCOD9266463
_publ_section_title
;
Structure prediction by ZEFSAII (Michael W. Deem and Ramdas Pophale) SiO2 
 PCOD9266463
Probable space group: C 2/C
;
_chemical_formula_sum "Si O2"
_cell_formula_units_Z 60
_cell_length_a 9.410357
_cell_length_b 21.824867
_cell_length_c 15.543707
_cell_angle_alpha 90.000000
_cell_angle_beta 100.073148
_cell_angle_gamma 90.000000
_cell_volume 3143.153824
_symmetry_space_group_name_H-M "C 2/C"
_symmetry_group_IT_number 15
_symmetry_cell_setting 'monoclinic'
loop_
_space_group_symop_operation_xyz
x,y,z
-x,y,1/2-z
-x,-y,-z
x,-y,1/2+z
1/2+x,1/2+y,z
1/2-x,1/2+y,1/2-z
1/2-x,1/2-y,-z
1/2+x,1/2-y,1/2+z
loop_
_atom_site_type_symbol
_atom_site_label
_atom_site_fract_x
_atom_site_fract_y
_atom_site_fract_z
Si Si1 0.164348 0.511878 0.543092
Si Si2 0.956800 0.275080 0.098582
Si Si3 0.373246 0.305812 0.451224
Si Si4 0.000000 0.182045 0.250000
Si Si5 0.386158 0.601077 0.811496
Si Si6 0.131148 0.101568 0.389824
Si Si7 0.894568 0.394146 0.314035
Si Si8 0.379655 0.478891 0.919094
O O1 0.252582 0.451931 0.584317
O O2 0.160573 0.557420 0.622823
O O3 0.245715 0.536929 0.466259
O O4 0.000000 0.500000 0.500000
O O5 0.783237 0.280623 0.093934
O O6 0.027474 0.227165 0.172593
O O7 0.024112 0.340503 0.126494
O O8 0.967194 0.248410 0.003045
O O9 0.440799 0.348260 0.384849
O O10 0.346895 0.352070 0.528513
O O11 0.871920 0.139357 0.199081
O O12 0.500000 0.586516 0.750000
O O13 0.244886 0.628494 0.751991
O O14 0.347444 0.537936 0.856627
O O15 0.968353 0.073411 0.379012
O O16 0.000000 0.418882 0.250000
O O17 0.500000 0.500000 0.000000
#
# Coordination Sequence:
#
# PCOD9266463 Si02
#       8
#     8   8   8   4   8   8   8   8
#     4  11  22  38  58  86 123 164 200 250 311 377
#     4  10  20  39  61  89 115 160 209 257 296 364
#     4  10  19  37  65  86 114 158 210 252 301 366
#     4  10  20  36  62  90 118 154 210 264 282 366
#     4  12  22  35  60  92 123 155 197 265 308 357
#     4  10  21  36  62  91 117 157 205 249 308 362
#     4  12  23  37  60  90 122 158 205 258 308 366
#     4  10  20  38  56  85 122 156 202 236 308 380
#
# _framework density 19.089106000000001
#
# number of rings (size 3 to 8) (size 9 to 14) (size 15 to 20)
#    0.000    1.333    4.667    3.200    2.800    0.000 
#    0.000    0.667    2.933    0.000    0.000    0.000 
#    0.000    0.000    0.000    0.000    0.000    0.000 
#
# Total GULP energy -167217.858028 kJ/mol
# GULP energy per Si atom -5573.928601 kJ/mol
# Density = 1.904566 g / cm^3
# Si number density = 19.089106 Si / 1000 Ang^3
#
#
#
# Elastic Constant Matrix: (Units=GPa)
#
#
# Indices 1 2 3 4 5 6 
#
# 1 76.9407 15.5733 28.5577 0.0000 -5.0063 0.0000
# 2 15.5733 73.2988 36.9792 0.0000 -6.2595 0.0000
# 3 28.5577 36.9792 105.5554 0.0000 -3.3749 0.0000
# 4 0.0000 0.0000 0.0000 26.3532 0.0000 9.9803
# 5 -5.0063 -6.2595 -3.3749 0.0000 31.6022 0.0000
# 6 0.0000 0.0000 0.0000 9.9803 0.0000 25.7048
#
#
#
# Elastic Compliance Matrix: (Units=1/GPa)
#
#
# Indices 1 2 3 4 5 6 
#
# 1 0.014646 -0.001208 -0.003485 0.000000 0.001709 0.000000
# 2 -0.001208 0.016899 -0.005511 0.000000 0.002567 0.000000
# 3 -0.003485 -0.005511 0.012337 0.000000 -0.000326 0.000000
# 4 0.000000 0.000000 0.000000 0.044488 0.000000 -0.017273
# 5 0.001709 0.002567 -0.000326 0.000000 0.032388 0.000000
# 6 0.000000 0.000000 0.000000 -0.017273 0.000000 0.045610
#
#
# Mechanical properties :
#
#
# Convention : Reuss Voigt Hill
#
# Bulk Modulus (GPa) = 42.59986 46.44614 44.52300
# Shear Modulus (GPa) = 25.69375 28.37769 27.03572
#
# Velocity S-wave (km/s) = 3.67275 3.85982 3.76745
# Velocity P-wave (km/s) = 6.35219 6.65194 6.50379
#
# Compressibility (1/GPa) = 0.02347425
#
# Stress axis : x y z
#
# Youngs Moduli (GPa) = 68.27775 59.17455 81.05794
#
# Poissons Ratio (x) = 0.07147 0.28246
# Poissons Ratio (y) = 0.08247 0.44675
# Poissons Ratio (z) = 0.23793 0.32614
#
# Static dielectric constant tensor:
#      x y z
#    x 1.664750 0.000000 -0.001090 
#    y 0.000000 1.730910 0.000000 
#    z -0.001090 0.000000 1.729940 
# 
# From -- ./inp_files/137375.got.cif
#   From: 2010.05.17/outbox.cif.g08.bks.cpg/sg15_69_cif.got.tgz:137375.got - 2010.06.03 18:47:42.
