data_PCOD9266152
_publ_section_title
;
Structure prediction by ZEFSAII (Michael W. Deem and Ramdas Pophale) SiO2 
 PCOD9266152
Probable space group: C 2/C
;
_chemical_formula_sum "Si O2"
_cell_formula_units_Z 40
_cell_length_a 15.593168
_cell_length_b 9.911458
_cell_length_c 25.896440
_cell_angle_alpha 90.000000
_cell_angle_beta 24.262729
_cell_angle_gamma 90.000000
_cell_volume 1644.639550
_symmetry_space_group_name_H-M "C 2/C"
_symmetry_group_IT_number 15
_symmetry_cell_setting 'monoclinic'
loop_
_space_group_symop_operation_xyz
x,y,z
-x,y,1/2-z
-x,-y,-z
x,-y,1/2+z
1/2+x,1/2+y,z
1/2-x,1/2+y,1/2-z
1/2-x,1/2-y,-z
1/2+x,1/2-y,1/2+z
loop_
_atom_site_type_symbol
_atom_site_label
_atom_site_fract_x
_atom_site_fract_y
_atom_site_fract_z
Si Si1 0.030800 0.146463 0.009009
Si Si2 0.000000 0.061028 0.250000
Si Si3 0.397162 0.097452 0.395634
Si Si4 0.000000 0.410104 0.250000
Si Si5 0.426829 0.634064 0.403619
Si Si6 0.821882 0.662140 0.542347
O O1 0.280901 0.164545 0.875933
O O2 0.943858 0.157911 0.114973
O O3 0.932521 0.256984 0.026467
O O4 0.000000 0.000000 0.000000
O O5 0.974453 0.128907 0.207316
O O6 0.201174 0.965671 0.130720
O O7 0.339812 0.233379 0.396569
O O8 0.473317 0.123363 0.411704
O O9 0.525490 0.004844 0.286362
O O10 0.186562 0.009364 0.522085
O O11 0.250000 0.750000 0.500000
#
# Coordination Sequence:
#
# PCOD9266152 Si02
#       6
#     8   4   8   4   8   8
#     4  11  22  41  67 102 137 184 231 280 349 421
#     4  10  23  43  72 102 130 193 233 282 356 404
#     4   9  19  37  66  98 132 179 225 289 341 397
#     4  10  19  37  60  94 144 181 227 270 352 410
#     4  10  22  43  66  95 146 179 224 290 353 418
#     4  10  19  39  72  99 137 168 240 292 324 417
#
# _framework density 24.321439000000002
#
# number of rings (size 3 to 8) (size 9 to 14) (size 15 to 20)
#    0.000    2.000    4.000    0.600    0.000    3.200 
#    0.000   16.000    0.000    0.000    0.000    0.000 
#    0.000    0.000    0.000    2.400    0.000    0.000 
#
# Total GULP energy -111820.029626 kJ/mol
# GULP energy per Si atom -5591.001481 kJ/mol
# Density = 2.426608 g / cm^3
# Si number density = 24.321439 Si / 1000 Ang^3
#
#
#
# Elastic Constant Matrix: (Units=GPa)
#
#
# Indices 1 2 3 4 5 6 
#
# 1 219.3465 56.5071 73.1014 0.0010 66.7934 0.0016
# 2 56.5071 71.1477 27.8255 0.0010 27.4389 0.0000
# 3 73.1014 27.8255 128.4239 -0.0138 46.9494 0.0059
# 4 0.0010 0.0010 -0.0138 44.8159 -0.0010 11.7630
# 5 66.7934 27.4389 46.9494 -0.0010 54.3292 -0.0020
# 6 0.0016 0.0000 0.0059 11.7630 -0.0020 50.5820
#
#
#
# Elastic Compliance Matrix: (Units=1/GPa)
#
#
# Indices 1 2 3 4 5 6 
#
# 1 0.007935 -0.003065 -0.001246 -0.000001 -0.007131 0.000000
# 2 -0.003065 0.018698 -0.000339 -0.000001 -0.005382 0.000000
# 3 -0.001246 -0.000339 0.011617 0.000004 -0.008336 -0.000003
# 4 -0.000001 -0.000001 0.000004 0.023764 -0.000002 -0.005526
# 5 -0.007131 -0.005382 -0.008336 -0.000002 0.037096 0.000003
# 6 0.000000 0.000000 -0.000003 -0.005526 0.000003 0.021055
#
#
# Mechanical properties :
#
#
# Convention : Reuss Voigt Hill
#
# Bulk Modulus (GPa) = 34.54155 81.53178 58.03666
# Shear Modulus (GPa) = 35.94167 47.37769 41.65968
#
# Velocity S-wave (km/s) = 3.84836 4.41838 4.14318
# Velocity P-wave (km/s) = 5.82919 7.72171 6.84121
#
# Compressibility (1/GPa) = 0.02895064
#
# Stress axis : x y z
#
# Youngs Moduli (GPa) = 126.01882 53.48224 86.08240
#
# Poissons Ratio (x) = 0.16392 0.10724
# Poissons Ratio (y) = 0.38624 0.02918
# Poissons Ratio (z) = 0.15699 0.01813
#
# Static dielectric constant tensor:
#      x y z
#    x 1.961890 0.000000 0.016540 
#    y 0.000000 2.031880 0.000000 
#    z 0.016540 0.000000 1.976540 
# 
# From -- ./inp_files/273776.got.cif
#   From: 2010.05.17/outbox.cif.g08.bks.cpg/sg15_137_cif.got.tgz:273776.got - 2010.06.03 18:47:42.
