data_PCOD9266145
_publ_section_title
;
Structure prediction by ZEFSAII (Michael W. Deem and Ramdas Pophale) SiO2 
 PCOD9266145
Probable space group: C 2/C
;
_chemical_formula_sum "Si O2"
_cell_formula_units_Z 52
_cell_length_a 26.333844
_cell_length_b 10.325706
_cell_length_c 16.313684
_cell_angle_alpha 90.000000
_cell_angle_beta 144.427989
_cell_angle_gamma 90.000000
_cell_volume 2580.502660
_symmetry_space_group_name_H-M "C 2/C"
_symmetry_group_IT_number 15
_symmetry_cell_setting 'monoclinic'
loop_
_space_group_symop_operation_xyz
x,y,z
-x,y,1/2-z
-x,-y,-z
x,-y,1/2+z
1/2+x,1/2+y,z
1/2-x,1/2+y,1/2-z
1/2-x,1/2-y,-z
1/2+x,1/2-y,1/2+z
loop_
_atom_site_type_symbol
_atom_site_label
_atom_site_fract_x
_atom_site_fract_y
_atom_site_fract_z
Si Si1 0.906082 0.069699 0.218670
Si Si2 0.205415 0.869646 0.086144
Si Si3 0.438916 0.266777 0.003798
Si Si4 0.500000 0.340752 0.250000
Si Si5 0.941421 0.215295 0.986763
Si Si6 0.208663 0.093457 0.280243
Si Si7 0.146351 0.496420 0.638387
O O1 0.843304 0.038989 0.211683
O O2 0.978771 0.171638 0.348085
O O3 0.852757 0.120110 0.070742
O O4 0.947512 0.939114 0.238667
O O5 0.141805 0.857806 0.082544
O O6 0.254165 0.733123 0.144955
O O7 0.280091 0.979577 0.194392
O O8 0.451095 0.259262 0.117014
O O9 0.519340 0.313399 0.051887
O O10 0.360373 0.365465 0.880742
O O11 0.412790 0.123558 0.939288
O O12 0.909132 0.364643 0.937618
O O13 0.289861 0.010056 0.356582
#
# Coordination Sequence:
#
# PCOD9266145 Si02
#       7
#     8   8   8   4   8   8   8
#     4  11  21  38  61  90 117 157 206 254 292 362
#     4  10  19  37  60  93 119 148 198 258 303 360
#     4  10  23  41  59  87 122 163 201 248 308 369
#     4  12  24  38  56  84 122 154 210 246 294 358
#     4  10  21  39  66  90 117 165 208 246 307 367
#     4   9  21  36  63  84 118 156 198 243 313 359
#     4  10  21  41  61  90 123 160 197 254 313 370
#
# _framework density 20.151114
#
# number of rings (size 3 to 8) (size 9 to 14) (size 15 to 20)
#    0.000    1.846    1.538    1.846    2.154    1.231 
#    8.308    0.769    0.000    0.000    0.000    0.000 
#    0.000    0.000    0.000    0.000    0.000    0.000 
#
# Total GULP energy -144886.958519 kJ/mol
# GULP energy per Si atom -5572.575328 kJ/mol
# Density = 2.010525 g / cm^3
# Si number density = 20.151114 Si / 1000 Ang^3
#
#
#
# Elastic Constant Matrix: (Units=GPa)
#
#
# Indices 1 2 3 4 5 6 
#
# 1 88.8468 5.6307 38.9182 0.0000 3.9831 0.0000
# 2 5.6307 49.4487 45.7221 0.0000 -2.1459 0.0000
# 3 38.9182 45.7221 99.4918 0.0000 -11.7201 0.0000
# 4 0.0000 0.0000 0.0000 3.0180 0.0000 -11.7160
# 5 3.9831 -2.1459 -11.7201 0.0000 28.3378 0.0000
# 6 0.0000 0.0000 0.0000 -11.7160 0.0000 1.0555
#
#
#
# Elastic Compliance Matrix: (Units=1/GPa)
#
#
# Indices 1 2 3 4 5 6 
#
# 1 0.015478 0.007331 -0.010107 0.000000 -0.005800 0.000000
# 2 0.007331 0.039126 -0.021677 0.000000 -0.007033 0.000000
# 3 -0.010107 -0.021677 0.025166 0.000000 0.010187 0.000000
# 4 0.000000 0.000000 0.000000 -0.007872 0.000000 -0.087381
# 5 -0.005800 -0.007033 0.010187 0.000000 0.039785 0.000000
# 6 0.000000 0.000000 0.000000 -0.087381 0.000000 -0.022509
#
#
# Mechanical properties :
#
#
# Convention : Reuss Voigt Hill
#
# Bulk Modulus (GPa) = 32.39896 46.48104 39.44000
# Shear Modulus (GPa) = 33.70016 16.31669 25.00842
#
# Velocity S-wave (km/s) = 4.09390 2.84864 3.52667
# Velocity P-wave (km/s) = 6.20158 5.82546 6.01646
#
# Compressibility (1/GPa) = 0.03086519
#
# Stress axis : x y z
#
# Youngs Moduli (GPa) = 64.60828 25.55831 39.73565
#
# Poissons Ratio (x) = -0.18737 0.40160
# Poissons Ratio (y) = -0.47364 0.86134
# Poissons Ratio (z) = 0.65298 0.55402
#
# Static dielectric constant tensor:
#      x y z
#    x 1.720730 0.000000 0.006420 
#    y 0.000000 1.729150 0.000000 
#    z 0.006420 0.000000 1.786220 
# 
# From -- ./inp_files/173196.got.cif
#   From: 2010.05.17/outbox.cif.g08.bks.cpg/sg15_87_cif.got.tgz:173196.got - 2010.06.03 18:47:42.
