data_PCOD9266448
_publ_section_title
;
Structure prediction by ZEFSAII (Michael W. Deem and Ramdas Pophale) SiO2 
 PCOD9266448
Probable space group: C 2/C
;
_chemical_formula_sum "Si O2"
_cell_formula_units_Z 56
_cell_length_a 22.988491
_cell_length_b 9.417218
_cell_length_c 14.829551
_cell_angle_alpha 90.000000
_cell_angle_beta 132.064034
_cell_angle_gamma 90.000000
_cell_volume 2383.400514
_symmetry_space_group_name_H-M "C 2/C"
_symmetry_group_IT_number 15
_symmetry_cell_setting 'monoclinic'
loop_
_space_group_symop_operation_xyz
x,y,z
-x,y,1/2-z
-x,-y,-z
x,-y,1/2+z
1/2+x,1/2+y,z
1/2-x,1/2+y,1/2-z
1/2-x,1/2-y,-z
1/2+x,1/2-y,1/2+z
loop_
_atom_site_type_symbol
_atom_site_label
_atom_site_fract_x
_atom_site_fract_y
_atom_site_fract_z
Si Si1 0.694997 0.102498 0.609124
Si Si2 0.597409 0.685821 0.110466
Si Si3 0.077993 0.523818 0.870379
Si Si4 0.338681 0.710165 0.126876
Si Si5 0.797275 0.619024 0.235472
Si Si6 0.571292 0.789068 0.536297
Si Si7 0.161184 0.044058 0.537415
O O1 0.627955 0.164867 0.604573
O O2 0.758012 0.228655 0.673485
O O3 0.652946 0.072807 0.470955
O O4 0.719664 0.956451 0.683883
O O5 0.642532 0.666812 0.251649
O O6 0.619722 0.575215 0.054985
O O7 0.505021 0.696067 0.028245
O O8 0.106754 0.654947 0.839313
O O9 0.000000 0.454857 0.750000
O O10 0.055663 0.595256 0.943397
O O11 0.250000 0.750000 0.000000
O O12 0.364547 0.578570 0.090083
O O13 0.890057 0.642735 0.334671
O O14 0.751906 0.504042 0.128279
O O15 0.640490 0.688724 0.568275
#
# Coordination Sequence:
#
# PCOD9266448 Si02
#       7
#     8   8   8   8   8   8   8
#     4  10  22  37  69  95 134 184 229 287 352 413
#     4  11  23  41  69 102 136 189 236 289 361 419
#     4  10  21  41  63  94 141 175 232 296 343 414
#     4  11  24  41  68 105 133 184 242 281 345 438
#     4  10  19  37  64  96 132 182 230 282 353 414
#     4  10  20  37  65 100 131 182 235 288 349 423
#     4  10  22  39  66  99 142 180 230 295 348 412
#
# _framework density 23.495840000000001
#
# number of rings (size 3 to 8) (size 9 to 14) (size 15 to 20)
#    0.000    1.714    2.857    1.286   10.000    2.286 
#    2.571    0.000   18.857    8.571    0.000    0.000 
#    0.000    0.000    0.000    0.000    0.000    0.000 
#
# Total GULP energy -156215.581235 kJ/mol
# GULP energy per Si atom -5579.127901 kJ/mol
# Density = 2.344236 g / cm^3
# Si number density = 23.495840 Si / 1000 Ang^3
#
#
#
# Elastic Constant Matrix: (Units=GPa)
#
#
# Indices 1 2 3 4 5 6 
#
# 1 67.3702 33.1652 37.4314 0.0000 -9.1478 0.0000
# 2 33.1652 101.5363 60.2969 0.0000 -7.6012 0.0000
# 3 37.4314 60.2969 132.2156 0.0000 4.9783 0.0000
# 4 0.0000 0.0000 0.0000 27.5984 0.0000 1.2259
# 5 -9.1478 -7.6012 4.9783 0.0000 21.7316 0.0000
# 6 0.0000 0.0000 0.0000 1.2259 0.0000 38.8013
#
#
#
# Elastic Compliance Matrix: (Units=1/GPa)
#
#
# Indices 1 2 3 4 5 6 
#
# 1 0.020090 -0.003253 -0.004518 0.000000 0.008354 0.000000
# 2 -0.003253 0.014912 -0.006077 0.000000 0.005239 0.000000
# 3 -0.004518 -0.006077 0.011868 0.000000 -0.006746 0.000000
# 4 0.000000 0.000000 0.000000 0.036285 0.000000 -0.001146
# 5 0.008354 0.005239 -0.006746 0.000000 0.052910 0.000000
# 6 0.000000 0.000000 0.000000 -0.001146 0.000000 0.025809
#
#
# Mechanical properties :
#
#
# Convention : Reuss Voigt Hill
#
# Bulk Modulus (GPa) = 52.15785 62.54548 57.35166
# Shear Modulus (GPa) = 25.51513 28.97483 27.24498
#
# Velocity S-wave (km/s) = 3.29894 3.51549 3.40893
# Velocity P-wave (km/s) = 6.06281 6.56931 6.32113
#
# Compressibility (1/GPa) = 0.01917257
#
# Stress axis : x y z
#
# Youngs Moduli (GPa) = 49.77669 67.05884 84.26001
#
# Poissons Ratio (x) = 0.21817 0.38072
# Poissons Ratio (y) = 0.16194 0.51204
# Poissons Ratio (z) = 0.22491 0.40751
#
# Static dielectric constant tensor:
#      x y z
#    x 1.927880 0.000000 0.019330 
#    y 0.000000 1.897850 0.000000 
#    z 0.019330 0.000000 1.951410 
# 
# From -- ./inp_files/222086.got.cif
#   From: 2010.05.17/outbox.cif.g08.bks.cpg/sg15_112_cif.got.tgz:222086.got - 2010.06.03 18:47:42.
