data_PCOD9266013
_publ_section_title
;
Structure prediction by ZEFSAII (Michael W. Deem and Ramdas Pophale) SiO2 
 PCOD9266013
Probable space group: C 2/C
;
_chemical_formula_sum "Si O2"
_cell_formula_units_Z 48
_cell_length_a 17.029085
_cell_length_b 15.406376
_cell_length_c 9.949801
_cell_angle_alpha 90.000000
_cell_angle_beta 62.192865
_cell_angle_gamma 90.000000
_cell_volume 2308.953979
_symmetry_space_group_name_H-M "C 2/C"
_symmetry_group_IT_number 15
_symmetry_cell_setting 'monoclinic'
loop_
_space_group_symop_operation_xyz
x,y,z
-x,y,1/2-z
-x,-y,-z
x,-y,1/2+z
1/2+x,1/2+y,z
1/2-x,1/2+y,1/2-z
1/2-x,1/2-y,-z
1/2+x,1/2-y,1/2+z
loop_
_atom_site_type_symbol
_atom_site_label
_atom_site_fract_x
_atom_site_fract_y
_atom_site_fract_z
Si Si1 0.273741 0.361352 0.201918
Si Si2 0.212986 0.185350 0.369239
Si Si3 0.895299 0.916176 0.326726
Si Si4 0.906993 0.612412 0.298797
Si Si5 0.792636 0.902400 0.901496
Si Si6 0.361150 0.000699 0.093622
O O1 0.223142 0.285193 0.320387
O O2 0.363996 0.383637 0.206285
O O3 0.212619 0.446654 0.263573
O O4 0.293956 0.342838 0.031242
O O5 0.146644 0.153388 0.536944
O O6 0.313287 0.157634 0.335311
O O7 0.178236 0.139151 0.261464
O O8 0.000000 0.925073 0.250000
O O9 0.846010 0.008760 0.389656
O O10 0.919482 0.546235 0.161819
O O11 0.893524 0.561957 0.449681
O O12 0.000000 0.663088 0.250000
O O13 0.691026 0.926260 0.948681
#
# Coordination Sequence:
#
# PCOD9266013 Si02
#       6
#     8   8   8   8   8   8
#     4  11  21  39  62  87 126 157 197 257 315 367
#     4  11  23  39  60  92 125 160 197 255 318 362
#     4  11  23  40  67  91 120 164 215 255 299 364
#     4  11  21  36  61  87 118 156 204 247 302 372
#     4  10  20  39  64  86 118 162 208 247 303 364
#     4  10  19  37  59  86 116 156 200 248 299 366
#
# _framework density 20.788633999999998
#
# number of rings (size 3 to 8) (size 9 to 14) (size 15 to 20)
#    0.000    1.333    5.000    3.500    0.000    3.333 
#    0.000    0.000    0.000    0.000    0.000    0.000 
#    0.000    0.000    0.000    0.000    0.000    0.000 
#
# Total GULP energy -133842.733047 kJ/mol
# GULP energy per Si atom -5576.780544 kJ/mol
# Density = 2.074132 g / cm^3
# Si number density = 20.788634 Si / 1000 Ang^3
#
#
#
# Elastic Constant Matrix: (Units=GPa)
#
#
# Indices 1 2 3 4 5 6 
#
# 1 120.7749 23.8215 52.9080 0.0000 9.2188 0.0000
# 2 23.8215 53.8381 11.2259 0.0000 11.1575 0.0000
# 3 52.9080 11.2259 107.1657 0.0000 27.8410 0.0000
# 4 0.0000 0.0000 0.0000 23.8334 0.0000 8.9314
# 5 9.2188 11.1575 27.8410 0.0000 33.4995 0.0000
# 6 0.0000 0.0000 0.0000 8.9314 0.0000 12.1862
#
#
#
# Elastic Compliance Matrix: (Units=1/GPa)
#
#
# Indices 1 2 3 4 5 6 
#
# 1 0.011611 -0.004568 -0.006146 0.000000 0.003434 0.000000
# 2 -0.004568 0.021766 0.001954 0.000000 -0.007616 0.000000
# 3 -0.006146 0.001954 0.015165 0.000000 -0.011563 0.000000
# 4 0.000000 0.000000 0.000000 0.057845 0.000000 -0.042395
# 5 0.003434 -0.007616 -0.011563 0.000000 0.041053 0.000000
# 6 0.000000 0.000000 0.000000 -0.042395 0.000000 0.113131
#
#
# Mechanical properties :
#
#
# Convention : Reuss Voigt Hill
#
# Bulk Modulus (GPa) = 32.23502 50.85439 41.54470
# Shear Modulus (GPa) = 17.33511 26.82539 22.08025
#
# Velocity S-wave (km/s) = 2.89082 3.59609 3.26257
# Velocity P-wave (km/s) = 5.16548 6.46206 5.84980
#
# Compressibility (1/GPa) = 0.03102216
#
# Stress axis : x y z
#
# Youngs Moduli (GPa) = 86.12461 45.94260 65.94157
#
# Poissons Ratio (x) = 0.20985 0.40528
# Poissons Ratio (y) = 0.39339 -0.12883
# Poissons Ratio (z) = 0.52933 -0.08976
#
# Static dielectric constant tensor:
#      x y z
#    x 1.739320 0.000000 0.002420 
#    y 0.000000 1.803530 0.000000 
#    z 0.002420 0.000000 1.771490 
# 
# From -- ./inp_files/48349.got.cif
#   From: 2010.05.17/outbox.cif.g08.bks.cpg/sg15_25_cif.got.tgz:48349.got - 2010.06.03 18:47:42.
