data_PCOD9266335
_publ_section_title
;
Structure prediction by ZEFSAII (Michael W. Deem and Ramdas Pophale) SiO2 
 PCOD9266335
Probable space group: C 2/C
;
_chemical_formula_sum "Si O2"
_cell_formula_units_Z 60
_cell_length_a 14.174950
_cell_length_b 5.951755
_cell_length_c 28.172064
_cell_angle_alpha 90.000000
_cell_angle_beta 106.533857
_cell_angle_gamma 90.000000
_cell_volume 2278.484673
_symmetry_space_group_name_H-M "C 2/C"
_symmetry_group_IT_number 15
_symmetry_cell_setting 'monoclinic'
loop_
_space_group_symop_operation_xyz
x,y,z
-x,y,1/2-z
-x,-y,-z
x,-y,1/2+z
1/2+x,1/2+y,z
1/2-x,1/2+y,1/2-z
1/2-x,1/2-y,-z
1/2+x,1/2-y,1/2+z
loop_
_atom_site_type_symbol
_atom_site_label
_atom_site_fract_x
_atom_site_fract_y
_atom_site_fract_z
Si Si1 0.736079 0.630959 0.689049
Si Si2 0.875252 0.240179 0.290199
Si Si3 0.024566 0.640168 0.163603
Si Si4 0.264456 0.813660 0.089245
Si Si5 0.473791 0.396147 0.431608
Si Si6 0.000000 0.106961 0.750000
Si Si7 0.275109 0.318503 0.057430
Si Si8 0.560019 0.802816 0.032153
O O1 0.805300 0.627046 0.744323
O O2 0.688954 0.382592 0.678988
O O3 0.640476 0.787288 0.682455
O O4 0.786760 0.708029 0.648252
O O5 0.964467 0.377783 0.325504
O O6 0.918478 0.050039 0.261562
O O7 0.996755 0.754872 0.110016
O O8 0.967606 0.742343 0.200561
O O9 0.141452 0.841509 0.070480
O O10 0.305759 0.586379 0.068918
O O11 0.304656 0.064749 0.080820
O O12 0.481736 0.663854 0.430115
O O13 0.553618 0.350948 0.484102
O O14 0.167198 0.358597 0.064254
O O15 0.250000 0.250000 0.000000
O O16 0.500000 0.000000 0.000000
#
# Coordination Sequence:
#
# PCOD9266335 Si02
#       8
#     8   8   8   8   8   4   8   8
#     4  10  22  36  66  96 116 166 226 271 321 384
#     4  11  21  41  65  91 128 169 215 277 329 390
#     4  10  21  40  61  90 129 169 214 267 332 397
#     4  10  22  39  64  92 126 163 215 269 317 391
#     4   9  20  36  62  94 116 164 218 265 318 386
#     4  10  24  40  58  92 132 172 204 272 346 396
#     4  11  23  41  60  89 130 169 205 260 336 391
#     4  10  19  37  63  88 122 158 211 270 315 385
#
# _framework density 26.333290000000002
#
# number of rings (size 3 to 8) (size 9 to 14) (size 15 to 20)
#    0.000    1.867    2.667    0.800    3.733    2.133 
#    2.400    1.333    0.000    0.000    0.000    0.000 
#    0.000    0.000    0.000    0.000    0.000    0.000 
#
# Total GULP energy -167055.213251 kJ/mol
# GULP energy per Si atom -5568.507108 kJ/mol
# Density = 2.627335 g / cm^3
# Si number density = 26.333290 Si / 1000 Ang^3
#
#
#
# Elastic Constant Matrix: (Units=GPa)
#
#
# Indices 1 2 3 4 5 6 
#
# 1 70.4660 34.8357 9.1875 0.0000 -4.8661 0.0000
# 2 34.8357 166.7819 48.8495 0.0000 -14.6770 0.0000
# 3 9.1875 48.8495 125.0564 0.0000 -15.5061 0.0000
# 4 0.0000 0.0000 0.0000 36.6052 0.0000 1.0254
# 5 -4.8661 -14.6770 -15.5061 0.0000 25.6817 0.0000
# 6 0.0000 0.0000 0.0000 1.0254 0.0000 19.3163
#
#
#
# Elastic Compliance Matrix: (Units=1/GPa)
#
#
# Indices 1 2 3 4 5 6 
#
# 1 0.015867 -0.003281 0.000277 0.000000 0.001299 0.000000
# 2 -0.003281 0.007595 -0.002448 0.000000 0.002241 0.000000
# 3 0.000277 -0.002448 0.009475 0.000000 0.004374 0.000000
# 4 0.000000 0.000000 0.000000 0.027359 0.000000 -0.001452
# 5 0.001299 0.002241 0.004374 0.000000 0.043106 0.000000
# 6 0.000000 0.000000 0.000000 -0.001452 0.000000 0.051847
#
#
# Mechanical properties :
#
#
# Convention : Reuss Voigt Hill
#
# Bulk Modulus (GPa) = 45.38688 60.89440 53.14064
# Shear Modulus (GPa) = 28.81893 34.28275 31.55084
#
# Velocity S-wave (km/s) = 3.31175 3.61207 3.46516
# Velocity P-wave (km/s) = 5.64770 6.36952 6.01944
#
# Compressibility (1/GPa) = 0.02203280
#
# Stress axis : x y z
#
# Youngs Moduli (GPa) = 63.02479 131.65938 105.54494
#
# Poissons Ratio (x) = 0.43197 -0.02923
# Poissons Ratio (y) = 0.20678 0.25837
# Poissons Ratio (z) = -0.01745 0.32230
#
# Static dielectric constant tensor:
#      x y z
#    x 3.086140 0.000000 -0.224160 
#    y 0.000000 3.474590 0.000000 
#    z -0.224160 0.000000 2.142350 
# 
# From -- ./inp_files/299943.got.cif
#   From: 2010.05.17/outbox.cif.g08.bks.cpg/sg15_150_cif.got.tgz:299943.got - 2010.06.03 18:47:42.
