data_PCOD9266093
_publ_section_title
;
Structure prediction by ZEFSAII (Michael W. Deem and Ramdas Pophale) SiO2 
 PCOD9266093
Probable space group: C 2/C
;
_chemical_formula_sum "Si O2"
_cell_formula_units_Z 40
_cell_length_a 5.233389
_cell_length_b 12.697642
_cell_length_c 29.818024
_cell_angle_alpha 90.000000
_cell_angle_beta 107.185660
_cell_angle_gamma 90.000000
_cell_volume 1892.990908
_symmetry_space_group_name_H-M "C 2/C"
_symmetry_group_IT_number 15
_symmetry_cell_setting 'monoclinic'
loop_
_space_group_symop_operation_xyz
x,y,z
-x,y,1/2-z
-x,-y,-z
x,-y,1/2+z
1/2+x,1/2+y,z
1/2-x,1/2+y,1/2-z
1/2-x,1/2-y,-z
1/2+x,1/2-y,1/2+z
loop_
_atom_site_type_symbol
_atom_site_label
_atom_site_fract_x
_atom_site_fract_y
_atom_site_fract_z
Si Si1 0.680890 0.198328 0.561235
Si Si2 0.859542 0.946233 0.150332
Si Si3 0.366522 0.588610 0.393938
Si Si4 0.566844 0.984049 0.803704
Si Si5 0.645132 0.412642 0.037351
O O1 0.615999 0.318058 0.570154
O O2 0.766028 0.146290 0.613180
O O3 0.412319 0.138574 0.531786
O O4 0.928342 0.174347 0.541326
O O5 0.678544 0.961602 0.184074
O O6 0.864417 0.051020 0.117838
O O7 0.169231 0.942017 0.181524
O O8 0.161854 0.608635 0.342532
O O9 0.276908 0.481704 0.414689
O O10 0.500000 0.952253 0.750000
O O11 0.500000 0.500000 0.000000
#
# Coordination Sequence:
#
# PCOD9266093 Si02
#       5
#     8   8   8   8   8
#     4  11  21  39  63  84 116 158 192 236 300 345
#     4   9  19  37  56  84 115 150 192 235 285 347
#     4   9  23  36  64  81 122 153 192 240 297 341
#     4  10  19  37  60  84 117 152 190 242 292 340
#     4  11  24  40  59  90 120 151 202 245 287 353
#
# _framework density 21.130582
#
# number of rings (size 3 to 8) (size 9 to 14) (size 15 to 20)
#    1.200    0.800    2.000    1.200    2.800    1.600 
#    0.000    2.000    0.000    0.000    0.000    0.000 
#    0.000    0.000    0.000    0.000    0.000    0.000 
#
# Total GULP energy -111443.757773 kJ/mol
# GULP energy per Si atom -5572.187889 kJ/mol
# Density = 2.108249 g / cm^3
# Si number density = 21.130582 Si / 1000 Ang^3
#
#
#
# Elastic Constant Matrix: (Units=GPa)
#
#
# Indices 1 2 3 4 5 6 
#
# 1 128.7132 18.6019 3.3056 0.0000 -4.6907 0.0000
# 2 18.6019 71.9782 7.3603 0.0000 4.2610 0.0000
# 3 3.3056 7.3603 83.4977 0.0000 2.1303 0.0000
# 4 0.0000 0.0000 0.0000 24.0072 0.0000 2.6708
# 5 -4.6907 4.2610 2.1303 0.0000 28.2293 0.0000
# 6 0.0000 0.0000 0.0000 2.6708 0.0000 18.5813
#
#
#
# Elastic Compliance Matrix: (Units=1/GPa)
#
#
# Indices 1 2 3 4 5 6 
#
# 1 0.008152 -0.002190 -0.000173 0.000000 0.001698 0.000000
# 2 -0.002190 0.014724 -0.001147 0.000000 -0.002500 0.000000
# 3 -0.000173 -0.001147 0.012104 0.000000 -0.000769 0.000000
# 4 0.000000 0.000000 0.000000 0.042331 0.000000 -0.006085
# 5 0.001698 -0.002500 -0.000769 0.000000 0.036142 0.000000
# 6 0.000000 0.000000 0.000000 -0.006085 0.000000 0.054692
#
#
# Mechanical properties :
#
#
# Convention : Reuss Voigt Hill
#
# Bulk Modulus (GPa) = 35.76537 38.08052 36.92294
# Shear Modulus (GPa) = 27.10242 31.15833 29.13038
#
# Velocity S-wave (km/s) = 3.58525 3.84417 3.71696
# Velocity P-wave (km/s) = 5.83963 6.14525 5.99439
#
# Compressibility (1/GPa) = 0.02796001
#
# Stress axis : x y z
#
# Youngs Moduli (GPa) = 122.66945 67.91497 82.61736
#
# Poissons Ratio (x) = 0.14871 0.01430
# Poissons Ratio (y) = 0.26860 0.09480
# Poissons Ratio (z) = 0.02123 0.07793
#
# Static dielectric constant tensor:
#      x y z
#    x 1.781910 0.000000 0.013820 
#    y 0.000000 1.760880 0.000000 
#    z 0.013820 0.000000 1.821170 
# 
# From -- ./inp_files/260092.got.cif
#   From: 2010.05.17/outbox.cif.g08.bks.cpg/sg15_131_cif.got.tgz:260092.got - 2010.06.03 18:47:42.
