data_PCOD9266815
_publ_section_title
;
Structure prediction by ZEFSAII (Michael W. Deem and Ramdas Pophale) SiO2 
 PCOD9266815
Probable space group: C 2/C
;
_chemical_formula_sum "Si O2"
_cell_formula_units_Z 48
_cell_length_a 15.701869
_cell_length_b 9.899342
_cell_length_c 13.674392
_cell_angle_alpha 90.000000
_cell_angle_beta 115.760883
_cell_angle_gamma 90.000000
_cell_volume 1914.278927
_symmetry_space_group_name_H-M "C 2/C"
_symmetry_group_IT_number 15
_symmetry_cell_setting 'monoclinic'
loop_
_space_group_symop_operation_xyz
x,y,z
-x,y,1/2-z
-x,-y,-z
x,-y,1/2+z
1/2+x,1/2+y,z
1/2-x,1/2+y,1/2-z
1/2-x,1/2-y,-z
1/2+x,1/2-y,1/2+z
loop_
_atom_site_type_symbol
_atom_site_label
_atom_site_fract_x
_atom_site_fract_y
_atom_site_fract_z
Si Si1 0.522742 0.075881 0.408765
Si Si2 0.303263 0.730432 0.257103
Si Si3 0.268303 0.903605 0.475524
Si Si4 0.483098 0.337793 0.977769
Si Si5 0.908655 0.079400 0.139953
Si Si6 0.173544 0.498104 0.718284
O O1 0.629881 0.057393 0.427232
O O2 0.504982 0.235468 0.425755
O O3 0.500000 0.000000 0.500000
O O4 0.435648 0.011157 0.308363
O O5 0.383296 0.705573 0.380140
O O6 0.347869 0.656766 0.188181
O O7 0.213971 0.649140 0.249258
O O8 0.278357 0.877927 0.203897
O O9 0.250000 0.750000 0.500000
O O10 0.166275 0.973036 0.441677
O O11 0.296680 0.945499 0.376728
O O12 0.556334 0.317093 0.925416
O O13 0.500000 0.500000 0.000000
O O14 0.000000 0.027073 0.250000
#
# Coordination Sequence:
#
# PCOD9266815 Si02
#       6
#     8   8   8   8   8   8
#     4  10  20  39  62  86 122 159 203 251 306 363
#     4  10  21  41  62  89 127 162 210 254 313 378
#     4  10  19  38  61  90 123 155 202 258 302 366
#     4  11  21  37  66  94 119 162 209 258 310 373
#     4   9  21  38  62  90 126 160 205 260 309 366
#     4  10  22  40  64  87 121 169 203 255 311 377
#
# _framework density 25.074717
#
# number of rings (size 3 to 8) (size 9 to 14) (size 15 to 20)
#    0.000    2.000    3.333    1.000    2.333    0.000 
#    3.000   10.833    0.000    0.000    0.000    0.000 
#    0.000    0.000    0.000    0.000    0.000    0.000 
#
# Total GULP energy -133635.811232 kJ/mol
# GULP energy per Si atom -5568.158801 kJ/mol
# Density = 2.501765 g / cm^3
# Si number density = 25.074717 Si / 1000 Ang^3
#
#
#
# Elastic Constant Matrix: (Units=GPa)
#
#
# Indices 1 2 3 4 5 6 
#
# 1 123.5025 10.0733 14.4012 0.0000 29.2917 0.0000
# 2 10.0733 111.4689 7.2847 0.0000 16.6903 0.0000
# 3 14.4012 7.2847 42.4078 0.0000 -4.5300 0.0000
# 4 0.0000 0.0000 0.0000 17.5583 0.0000 14.2672
# 5 29.2917 16.6903 -4.5300 0.0000 27.9811 0.0000
# 6 0.0000 0.0000 0.0000 14.2672 0.0000 33.9271
#
#
#
# Elastic Compliance Matrix: (Units=1/GPa)
#
#
# Indices 1 2 3 4 5 6 
#
# 1 0.012107 0.001464 -0.005912 0.000000 -0.014505 0.000000
# 2 0.001464 0.010266 -0.003133 0.000000 -0.008163 0.000000
# 3 -0.005912 -0.003133 0.027462 0.000000 0.012504 0.000000
# 4 0.000000 0.000000 0.000000 0.086515 0.000000 -0.036382
# 5 -0.014505 -0.008163 0.012504 0.000000 0.057816 0.000000
# 6 0.000000 0.000000 0.000000 -0.036382 0.000000 0.044774
#
#
# Mechanical properties :
#
#
# Convention : Reuss Voigt Hill
#
# Bulk Modulus (GPa) = 28.84063 37.87751 33.35907
# Shear Modulus (GPa) = 18.82101 32.26797 25.54449
#
# Velocity S-wave (km/s) = 2.74267 3.59119 3.19523
# Velocity P-wave (km/s) = 4.64290 5.68632 5.19089
#
# Compressibility (1/GPa) = 0.03467330
#
# Stress axis : x y z
#
# Youngs Moduli (GPa) = 82.59563 97.41061 36.41381
#
# Poissons Ratio (x) = -0.14262 0.21529
# Poissons Ratio (y) = -0.12093 0.11407
# Poissons Ratio (z) = 0.48834 0.30515
#
# Static dielectric constant tensor:
#      x y z
#    x 2.277070 0.000000 0.005560 
#    y 0.000000 2.119040 0.000000 
#    z 0.005560 0.000000 2.209120 
# 
# From -- ./inp_files/209281.got.cif
#   From: 2010.05.17/outbox.cif.g08.bks.cpg/sg15_105_cif.got.tgz:209281.got - 2010.06.03 18:47:42.
