data_PCOD9266789
_publ_section_title
;
Structure prediction by ZEFSAII (Michael W. Deem and Ramdas Pophale) SiO2 
 PCOD9266789
Probable space group: C 2/C
;
_chemical_formula_sum "Si O2"
_cell_formula_units_Z 44
_cell_length_a 5.303452
_cell_length_b 20.215678
_cell_length_c 22.176653
_cell_angle_alpha 90.000000
_cell_angle_beta 128.634508
_cell_angle_gamma 90.000000
_cell_volume 1857.267160
_symmetry_space_group_name_H-M "C 2/C"
_symmetry_group_IT_number 15
_symmetry_cell_setting 'monoclinic'
loop_
_space_group_symop_operation_xyz
x,y,z
-x,y,1/2-z
-x,-y,-z
x,-y,1/2+z
1/2+x,1/2+y,z
1/2-x,1/2+y,1/2-z
1/2-x,1/2-y,-z
1/2+x,1/2-y,1/2+z
loop_
_atom_site_type_symbol
_atom_site_label
_atom_site_fract_x
_atom_site_fract_y
_atom_site_fract_z
Si Si1 0.185110 0.580942 0.471460
Si Si2 0.500000 0.030399 0.250000
Si Si3 0.859884 0.839005 0.793296
Si Si4 0.925430 0.457231 0.113578
Si Si5 0.059827 0.663310 0.571049
Si Si6 0.103561 0.195963 0.072237
O O1 0.994592 0.516052 0.421691
O O2 0.553253 0.560063 0.541900
O O3 0.181053 0.633349 0.415215
O O4 0.069537 0.618054 0.513367
O O5 0.456430 0.986634 0.184399
O O6 0.202472 0.081878 0.213888
O O7 0.500000 0.810503 0.750000
O O8 0.025972 0.816115 0.879502
O O9 0.000000 0.819855 0.750000
O O10 0.120397 0.389304 0.132592
O O11 0.692650 0.690839 0.518992
O O12 0.256315 0.731064 0.593007
#
# Coordination Sequence:
#
# PCOD9266789 Si02
#       6
#     8   4   8   8   8   8
#     4  10  19  38  61  85 122 159 210 266 321 385
#     4  10  22  40  60  88 124 166 214 266 314 386
#     4  10  23  41  64  93 123 171 217 265 312 382
#     4  10  21  37  56  91 120 162 214 261 327 376
#     4  10  22  36  63  90 122 164 204 278 322 385
#     4  10  21  39  59  94 120 162 220 259 326 386
#
# _framework density 23.690722999999998
#
# number of rings (size 3 to 8) (size 9 to 14) (size 15 to 20)
#    0.545    1.455    1.818    1.091    5.091    1.455 
#    1.636    0.000    0.000    0.000    0.000    0.000 
#    0.000    0.000    0.000    0.000    0.000    0.000 
#
# Total GULP energy -122782.859419 kJ/mol
# GULP energy per Si atom -5581.039065 kJ/mol
# Density = 2.363680 g / cm^3
# Si number density = 23.690723 Si / 1000 Ang^3
#
#
#
# Elastic Constant Matrix: (Units=GPa)
#
#
# Indices 1 2 3 4 5 6 
#
# 1 54.1844 16.9034 15.7965 0.0000 -20.6829 0.0000
# 2 16.9034 177.0120 50.4359 0.0000 -22.1338 0.0000
# 3 15.7965 50.4359 97.8490 0.0000 -30.5679 0.0000
# 4 0.0000 0.0000 0.0000 30.9968 0.0000 -11.2226
# 5 -20.6829 -22.1338 -30.5679 0.0000 41.9738 0.0000
# 6 0.0000 0.0000 0.0000 -11.2226 0.0000 15.6934
#
#
#
# Elastic Compliance Matrix: (Units=1/GPa)
#
#
# Indices 1 2 3 4 5 6 
#
# 1 0.022846 -0.000864 0.000170 0.000000 0.010926 0.000000
# 2 -0.000864 0.006710 -0.003038 0.000000 0.000900 0.000000
# 3 0.000170 -0.003038 0.014607 0.000000 0.009120 0.000000
# 4 0.000000 0.000000 0.000000 0.043533 0.000000 0.031131
# 5 0.010926 0.000900 0.009120 0.000000 0.036325 0.000000
# 6 0.000000 0.000000 0.000000 0.031131 0.000000 0.085983
#
#
# Mechanical properties :
#
#
# Convention : Reuss Voigt Hill
#
# Bulk Modulus (GPa) = 27.24788 55.03521 41.14154
# Shear Modulus (GPa) = 21.76754 34.12677 27.94716
#
# Velocity S-wave (km/s) = 3.03450 3.79953 3.43835
# Velocity P-wave (km/s) = 4.87894 6.52148 5.75907
#
# Compressibility (1/GPa) = 0.03670010
#
# Stress axis : x y z
#
# Youngs Moduli (GPa) = 43.77153 149.03133 68.45920
#
# Poissons Ratio (x) = 0.12876 -0.01167
# Poissons Ratio (y) = 0.03782 0.20798
# Poissons Ratio (z) = -0.00746 0.45275
#
# Static dielectric constant tensor:
#      x y z
#    x 1.977320 0.000000 0.054360 
#    y 0.000000 1.969520 0.000000 
#    z 0.054360 0.000000 1.922520 
# 
# From -- ./inp_files/227418.got.cif
#   From: 2010.05.17/outbox.cif.g08.bks.cpg/sg15_114_cif.got.tgz:227418.got - 2010.06.03 18:47:42.
