data_PCOD9266034
_publ_section_title
;
Structure prediction by ZEFSAII (Michael W. Deem and Ramdas Pophale) SiO2 
 PCOD9266034
Probable space group: C 2/C
;
_chemical_formula_sum "Si O2"
_cell_formula_units_Z 56
_cell_length_a 9.003304
_cell_length_b 15.510222
_cell_length_c 20.610608
_cell_angle_alpha 90.000000
_cell_angle_beta 108.178013
_cell_angle_gamma 90.000000
_cell_volume 2734.489873
_symmetry_space_group_name_H-M "C 2/C"
_symmetry_group_IT_number 15
_symmetry_cell_setting 'monoclinic'
loop_
_space_group_symop_operation_xyz
x,y,z
-x,y,1/2-z
-x,-y,-z
x,-y,1/2+z
1/2+x,1/2+y,z
1/2-x,1/2+y,1/2-z
1/2-x,1/2-y,-z
1/2+x,1/2-y,1/2+z
loop_
_atom_site_type_symbol
_atom_site_label
_atom_site_fract_x
_atom_site_fract_y
_atom_site_fract_z
Si Si1 0.672335 0.266334 0.386143
Si Si2 0.966214 0.397149 0.675076
Si Si3 0.456125 0.552899 0.668396
Si Si4 0.031720 0.310511 0.998972
Si Si5 0.295280 0.915044 0.898696
Si Si6 0.315814 0.509499 0.414168
Si Si7 0.918030 0.863547 0.524995
O O1 0.639472 0.189164 0.331544
O O2 0.567535 0.347035 0.351711
O O3 0.843329 0.304274 0.425956
O O4 0.617005 0.219338 0.444667
O O5 0.860724 0.465613 0.622848
O O6 0.000000 0.432485 0.750000
O O7 0.125219 0.382238 0.656603
O O8 0.500000 0.539960 0.750000
O O9 0.292533 0.504741 0.627789
O O10 0.589759 0.517792 0.637744
O O11 0.936262 0.397098 0.969706
O O12 0.916160 0.230993 0.996238
O O13 0.153632 0.863174 0.913027
O O14 0.330629 0.434108 0.468852
O O15 0.407523 0.595305 0.451248
#
# Coordination Sequence:
#
# PCOD9266034 Si02
#       7
#     8   8   8   8   8   8   8
#     4  10  21  35  63  87 113 151 198 238 292 341
#     4  11  22  40  58  85 118 158 195 236 281 356
#     4  11  22  40  58  85 118 160 198 232 280 364
#     4  10  19  37  59  91 119 140 193 253 294 339
#     4  10  24  35  61  88 118 150 193 245 297 334
#     4  10  21  35  62  84 114 156 194 234 299 338
#     4  10  19  37  59  88 119 145 189 250 298 345
#
# _framework density 20.479140999999998
#
# number of rings (size 3 to 8) (size 9 to 14) (size 15 to 20)
#    0.000    1.714    2.857    1.714    0.000    2.286 
#    0.000    0.000    0.000    0.857    0.000    0.000 
#    0.000    0.000    0.000    0.000    0.000    0.000 
#
# Total GULP energy -155989.205539 kJ/mol
# GULP energy per Si atom -5571.043055 kJ/mol
# Density = 2.043253 g / cm^3
# Si number density = 20.479141 Si / 1000 Ang^3
#
#
#
# Elastic Constant Matrix: (Units=GPa)
#
#
# Indices 1 2 3 4 5 6 
#
# 1 76.9904 21.5153 32.6049 0.0000 -4.2080 0.0000
# 2 21.5153 73.5238 22.7424 0.0000 8.1163 0.0000
# 3 32.6049 22.7424 57.6359 0.0000 -3.1024 0.0000
# 4 0.0000 0.0000 0.0000 22.8273 0.0000 5.2059
# 5 -4.2080 8.1163 -3.1024 0.0000 26.9370 0.0000
# 6 0.0000 0.0000 0.0000 5.2059 0.0000 12.9231
#
#
#
# Elastic Compliance Matrix: (Units=1/GPa)
#
#
# Indices 1 2 3 4 5 6 
#
# 1 0.017591 -0.002728 -0.008737 0.000000 0.002564 0.000000
# 2 -0.002728 0.016739 -0.005389 0.000000 -0.006090 0.000000
# 3 -0.008737 -0.005389 0.024586 0.000000 0.003091 0.000000
# 4 0.000000 0.000000 0.000000 0.048239 0.000000 -0.019432
# 5 0.002564 -0.006090 0.003091 0.000000 0.039715 0.000000
# 6 0.000000 0.000000 0.000000 -0.019432 0.000000 0.085209
#
#
# Mechanical properties :
#
#
# Convention : Reuss Voigt Hill
#
# Bulk Modulus (GPa) = 39.67200 40.20838 39.94019
# Shear Modulus (GPa) = 18.23553 21.28997 19.76275
#
# Velocity S-wave (km/s) = 2.98727 3.22777 3.10985
# Velocity P-wave (km/s) = 5.59574 5.79377 5.69562
#
# Compressibility (1/GPa) = 0.02520670
#
# Stress axis : x y z
#
# Youngs Moduli (GPa) = 56.84658 59.74153 40.67399
#
# Poissons Ratio (x) = 0.16299 0.35536
# Poissons Ratio (y) = 0.15509 0.21921
# Poissons Ratio (z) = 0.49666 0.32197
#
# Static dielectric constant tensor:
#      x y z
#    x 1.763020 0.000000 0.028680 
#    y 0.000000 1.744580 0.000000 
#    z 0.028680 0.000000 1.751700 
# 
# From -- ./inp_files/264380.got.cif
#   From: 2010.05.17/outbox.cif.g08.bks.cpg/sg15_133_cif.got.tgz:264380.got - 2010.06.03 18:47:42.
