data_PCOD9266555
_publ_section_title
;
Structure prediction by ZEFSAII (Michael W. Deem and Ramdas Pophale) SiO2 
 PCOD9266555
Probable space group: C 2/C
;
_chemical_formula_sum "Si O2"
_cell_formula_units_Z 60
_cell_length_a 11.035030
_cell_length_b 14.982466
_cell_length_c 14.976418
_cell_angle_alpha 90.000000
_cell_angle_beta 81.072865
_cell_angle_gamma 90.000000
_cell_volume 2446.086529
_symmetry_space_group_name_H-M "C 2/C"
_symmetry_group_IT_number 15
_symmetry_cell_setting 'monoclinic'
loop_
_space_group_symop_operation_xyz
x,y,z
-x,y,1/2-z
-x,-y,-z
x,-y,1/2+z
1/2+x,1/2+y,z
1/2-x,1/2+y,1/2-z
1/2-x,1/2-y,-z
1/2+x,1/2-y,1/2+z
loop_
_atom_site_type_symbol
_atom_site_label
_atom_site_fract_x
_atom_site_fract_y
_atom_site_fract_z
Si Si1 0.100337 0.371830 0.810134
Si Si2 0.925359 0.809461 0.089297
Si Si3 0.673034 0.380389 0.836912
Si Si4 0.500000 0.963582 0.250000
Si Si5 0.925262 0.721572 0.565328
Si Si6 0.657071 0.877229 0.091459
Si Si7 0.288597 0.952413 0.010014
Si Si8 0.528911 0.486733 0.103579
O O1 0.103215 0.291377 0.877881
O O2 0.232914 0.388513 0.754002
O O3 0.000000 0.334793 0.750000
O O4 0.045121 0.471333 0.825165
O O5 0.796381 0.845746 0.067195
O O6 0.968592 0.893824 0.143146
O O7 0.045968 0.793598 0.014847
O O8 0.653319 0.275400 0.854801
O O9 0.739495 0.421589 0.917246
O O10 0.544430 0.432056 0.843394
O O11 0.613913 0.911383 0.194544
O O12 0.059840 0.699536 0.584928
O O13 0.862753 0.631530 0.539120
O O14 0.641819 0.956147 0.020930
O O15 0.174941 0.977873 0.087158
O O16 0.500000 0.500000 0.000000
#
# Coordination Sequence:
#
# PCOD9266555 Si02
#       8
#     8   8   8   4   8   8   8   8
#     4  10  23  39  66  90 125 166 224 262 316 386
#     4  12  22  40  65  97 125 169 214 269 323 386
#     4  11  20  42  62  95 126 168 217 267 322 379
#     4  10  22  44  60  84 124 174 210 256 318 388
#     4  12  25  36  66  99 130 163 222 267 313 377
#     4  12  24  41  62  92 133 170 209 260 337 380
#     4  11  20  40  67  94 126 169 214 269 313 385
#     4  10  19  37  67  92 121 163 210 264 330 369
#
# _framework density 24.528977999999999
#
# number of rings (size 3 to 8) (size 9 to 14) (size 15 to 20)
#    0.400    0.533    6.667    2.800    3.733    0.000 
#    0.000    0.000    0.000    1.600    0.000    0.000 
#    0.000    0.000    0.000    0.000    0.000    0.000 
#
# Total GULP energy -167527.891188 kJ/mol
# GULP energy per Si atom -5584.263040 kJ/mol
# Density = 2.447315 g / cm^3
# Si number density = 24.528978 Si / 1000 Ang^3
#
#
#
# Elastic Constant Matrix: (Units=GPa)
#
#
# Indices 1 2 3 4 5 6 
#
# 1 63.2487 7.9455 23.7613 0.0000 -25.5623 0.0000
# 2 7.9455 97.1704 20.0903 0.0000 0.6277 0.0000
# 3 23.7613 20.0903 43.6917 0.0000 -14.4767 0.0000
# 4 0.0000 0.0000 0.0000 -33.7912 0.0000 34.8553
# 5 -25.5623 0.6277 -14.4767 0.0000 32.1040 0.0000
# 6 0.0000 0.0000 0.0000 34.8553 0.0000 -14.7405
#
#
#
# Elastic Compliance Matrix: (Units=1/GPa)
#
#
# Indices 1 2 3 4 5 6 
#
# 1 0.025752 -0.000521 -0.008192 0.000000 0.016821 0.000000
# 2 -0.000521 0.011640 -0.006210 0.000000 -0.003442 0.000000
# 3 -0.008192 -0.006210 0.033009 0.000000 0.008483 0.000000
# 4 0.000000 0.000000 0.000000 0.020564 0.000000 0.048627
# 5 0.016821 -0.003442 0.008483 0.000000 0.048435 0.000000
# 6 0.000000 0.000000 0.000000 0.048627 0.000000 0.047142
#
#
# Mechanical properties :
#
#
# Convention : Reuss Voigt Hill
#
# Bulk Modulus (GPa) = 24.65738 34.18944 29.42341
# Shear Modulus (GPa) = 21.74810 6.86873 14.30841
#
# Velocity S-wave (km/s) = 2.98086 1.67521 2.41784
# Velocity P-wave (km/s) = 4.68205 4.20837 4.45151
#
# Compressibility (1/GPa) = 0.04055582
#
# Stress axis : x y z
#
# Youngs Moduli (GPa) = 38.83230 85.91171 30.29472
#
# Poissons Ratio (x) = 0.04472 0.24818
# Poissons Ratio (y) = 0.02022 0.18812
# Poissons Ratio (z) = 0.31812 0.53348
#
# Static dielectric constant tensor:
#      x y z
#    x 2.324500 0.000000 0.681720 
#    y 0.000000 1.931990 0.000000 
#    z 0.681720 0.000000 3.071210 
# 
# From -- ./inp_files/199116.got.cif
#   From: 2010.05.17/outbox.cif.g08.bks.cpg/sg15_100_cif.got.tgz:199116.got - 2010.06.03 18:47:42.
