data_PCOD9266255
_publ_section_title
;
Structure prediction by ZEFSAII (Michael W. Deem and Ramdas Pophale) SiO2 
 PCOD9266255
Probable space group: C 2/C
;
_chemical_formula_sum "Si O2"
_cell_formula_units_Z 60
_cell_length_a 15.169783
_cell_length_b 9.070103
_cell_length_c 22.560353
_cell_angle_alpha 90.000000
_cell_angle_beta 81.781149
_cell_angle_gamma 90.000000
_cell_volume 3072.231118
_symmetry_space_group_name_H-M "C 2/C"
_symmetry_group_IT_number 15
_symmetry_cell_setting 'monoclinic'
loop_
_space_group_symop_operation_xyz
x,y,z
-x,y,1/2-z
-x,-y,-z
x,-y,1/2+z
1/2+x,1/2+y,z
1/2-x,1/2+y,1/2-z
1/2-x,1/2-y,-z
1/2+x,1/2-y,1/2+z
loop_
_atom_site_type_symbol
_atom_site_label
_atom_site_fract_x
_atom_site_fract_y
_atom_site_fract_z
Si Si1 0.472840 0.764867 0.353998
Si Si2 0.202592 0.790025 0.066141
Si Si3 0.681706 0.827454 0.328548
Si Si4 0.533926 0.499136 0.563260
Si Si5 0.000000 0.044328 0.250000
Si Si6 0.205250 0.368806 0.762238
Si Si7 0.074982 0.180362 0.831837
Si Si8 0.086571 0.409805 0.658591
O O1 0.576212 0.812361 0.343116
O O2 0.456191 0.666907 0.413496
O O3 0.454962 0.650981 0.302111
O O4 0.422327 0.916730 0.350029
O O5 0.273525 0.827885 0.110912
O O6 0.127312 0.915311 0.063385
O O7 0.148588 0.655323 0.100973
O O8 0.250000 0.750000 0.000000
O O9 0.713737 0.693296 0.283800
O O10 0.713528 0.974685 0.292344
O O11 0.500000 0.500000 0.500000
O O12 0.458278 0.583689 0.609494
O O13 0.936116 0.932839 0.221468
O O14 0.171325 0.253167 0.815268
O O15 0.128959 0.380456 0.718832
O O16 0.004931 0.316463 0.835431
#
# Coordination Sequence:
#
# PCOD9266255 Si02
#       8
#     8   8   8   8   4   8   8   8
#     4  11  22  37  62  99 120 158 217 256 296 371
#     4  10  23  46  65  84 124 168 205 257 331 371
#     4  11  25  36  61  94 131 160 196 261 318 367
#     4  10  23  42  67  86 120 164 221 259 304 370
#     4  10  20  30  64  84 128 160 202 244 300 360
#     4  11  22  37  58  92 134 157 202 247 325 366
#     4  10  19  37  62  86 120 169 203 244 308 375
#     4  10  20  39  64  89 120 166 203 257 300 381
#
# _framework density 19.529781
#
# number of rings (size 3 to 8) (size 9 to 14) (size 15 to 20)
#    0.000    1.600    2.667    1.600    5.600    1.067 
#    2.400    2.667    0.000    0.000    0.000    0.000 
#    0.000    0.000    0.000    0.000    0.000    0.000 
#
# Total GULP energy -167549.068139 kJ/mol
# GULP energy per Si atom -5584.968938 kJ/mol
# Density = 1.948533 g / cm^3
# Si number density = 19.529781 Si / 1000 Ang^3
#
#
#
# Elastic Constant Matrix: (Units=GPa)
#
#
# Indices 1 2 3 4 5 6 
#
# 1 34.5225 8.4986 36.1998 0.0000 -9.7547 0.0000
# 2 8.4986 124.1425 35.9364 0.0000 0.0261 0.0000
# 3 36.1998 35.9364 114.5991 0.0000 0.1126 0.0000
# 4 0.0000 0.0000 0.0000 20.2003 0.0000 -1.0547
# 5 -9.7547 0.0261 0.1126 0.0000 22.9911 0.0000
# 6 0.0000 0.0000 0.0000 -1.0547 0.0000 21.3715
#
#
#
# Elastic Compliance Matrix: (Units=1/GPa)
#
#
# Indices 1 2 3 4 5 6 
#
# 1 0.053061 0.001343 -0.017204 0.000000 0.022595 0.000000
# 2 0.001343 0.008893 -0.003214 0.000000 0.000575 0.000000
# 3 -0.017204 -0.003214 0.015176 0.000000 -0.007370 0.000000
# 4 0.000000 0.000000 0.000000 0.049632 0.000000 0.002449
# 5 0.022595 0.000575 -0.007370 0.000000 0.053117 0.000000
# 6 0.000000 0.000000 0.000000 0.002449 0.000000 0.046912
#
#
# Mechanical properties :
#
#
# Convention : Reuss Voigt Hill
#
# Bulk Modulus (GPa) = 25.65420 48.28155 36.96787
# Shear Modulus (GPa) = 17.98984 25.75453 21.87218
#
# Velocity S-wave (km/s) = 3.03834 3.63537 3.35018
# Velocity P-wave (km/s) = 5.04709 6.51129 5.82538
#
# Compressibility (1/GPa) = 0.03897997
#
# Stress axis : x y z
#
# Youngs Moduli (GPa) = 18.84633 112.44201 65.89528
#
# Poissons Ratio (x) = -0.15102 1.13368
# Poissons Ratio (y) = -0.02531 0.21177
# Poissons Ratio (z) = 0.32424 0.36135
#
# Static dielectric constant tensor:
#      x y z
#    x 1.745700 0.000000 0.035160 
#    y 0.000000 1.674870 0.000000 
#    z 0.035160 0.000000 1.753520 
# 
# From -- ./inp_files/272732.got.cif
#   From: 2010.05.17/outbox.cif.g08.bks.cpg/sg15_137_cif.got.tgz:272732.got - 2010.06.03 18:47:42.
