data_PCOD9266713
_publ_section_title
;
Structure prediction by ZEFSAII (Michael W. Deem and Ramdas Pophale) SiO2 
 PCOD9266713
Probable space group: C 2/C
;
_chemical_formula_sum "Si O2"
_cell_formula_units_Z 52
_cell_length_a 12.125611
_cell_length_b 20.264071
_cell_length_c 9.460116
_cell_angle_alpha 90.000000
_cell_angle_beta 66.700547
_cell_angle_gamma 90.000000
_cell_volume 2134.923830
_symmetry_space_group_name_H-M "C 2/C"
_symmetry_group_IT_number 15
_symmetry_cell_setting 'monoclinic'
loop_
_space_group_symop_operation_xyz
x,y,z
-x,y,1/2-z
-x,-y,-z
x,-y,1/2+z
1/2+x,1/2+y,z
1/2-x,1/2+y,1/2-z
1/2-x,1/2-y,-z
1/2+x,1/2-y,1/2+z
loop_
_atom_site_type_symbol
_atom_site_label
_atom_site_fract_x
_atom_site_fract_y
_atom_site_fract_z
Si Si1 0.599994 0.450409 0.005518
Si Si2 0.186250 0.354346 0.265711
Si Si3 0.629303 0.207837 0.086145
Si Si4 0.460363 0.318101 0.064335
Si Si5 0.500000 0.752264 0.250000
Si Si6 0.175369 0.520872 0.930902
Si Si7 0.155324 0.580888 0.236448
O O1 0.315989 0.477699 0.410354
O O2 0.500000 0.500000 0.000000
O O3 0.535384 0.382015 0.070856
O O4 0.700849 0.430461 0.840323
O O5 0.138908 0.339190 0.446275
O O6 0.109843 0.304305 0.209164
O O7 0.173372 0.433565 0.288203
O O8 0.323564 0.333648 0.172285
O O9 0.521100 0.256656 0.110090
O O10 0.750000 0.250000 0.000000
O O11 0.632379 0.158048 0.217728
O O12 0.476999 0.296127 0.893467
O O13 0.122923 0.451559 0.902380
O O14 0.115027 0.545096 0.109454
#
# Coordination Sequence:
#
# PCOD9266713 Si02
#       7
#     8   8   8   8   4   8   8
#     4  10  21  34  57  94 128 164 208 265 320 375
#     4  10  21  39  62  87 127 169 213 268 331 378
#     4  10  19  38  59  90 127 169 211 260 319 387
#     4  11  21  38  62  92 129 173 215 263 331 387
#     4  10  24  40  62  94 126 168 220 272 316 394
#     4   9  20  38  59  91 128 173 210 260 325 382
#     4   9  19  36  58  88 131 167 213 260 318 381
#
# _framework density 24.356842
#
# number of rings (size 3 to 8) (size 9 to 14) (size 15 to 20)
#    0.923    1.231    1.538    1.385    0.000    5.538 
#    0.000    1.538    0.000   10.154    0.000    0.000 
#    0.000    0.000    0.000    0.000    0.000    0.000 
#
# Total GULP energy -144983.399450 kJ/mol
# GULP energy per Si atom -5576.284594 kJ/mol
# Density = 2.430140 g / cm^3
# Si number density = 24.356842 Si / 1000 Ang^3
#
#
#
# Elastic Constant Matrix: (Units=GPa)
#
#
# Indices 1 2 3 4 5 6 
#
# 1 101.3914 42.0575 24.4844 0.0000 -3.3099 0.0000
# 2 42.0575 143.3530 38.7258 0.0000 19.1135 0.0000
# 3 24.4844 38.7258 89.8746 0.0000 16.0053 0.0000
# 4 0.0000 0.0000 0.0000 31.8867 0.0000 6.6619
# 5 -3.3099 19.1135 16.0053 0.0000 35.2283 0.0000
# 6 0.0000 0.0000 0.0000 6.6619 0.0000 62.0936
#
#
#
# Elastic Compliance Matrix: (Units=1/GPa)
#
#
# Indices 1 2 3 4 5 6 
#
# 1 0.012018 -0.003387 -0.002549 0.000000 0.004125 0.000000
# 2 -0.003387 0.009148 -0.002261 0.000000 -0.004254 0.000000
# 3 -0.002549 -0.002261 0.013731 0.000000 -0.005251 0.000000
# 4 0.000000 0.000000 0.000000 0.032080 0.000000 -0.003442
# 5 0.004125 -0.004254 -0.005251 0.000000 0.033468 0.000000
# 6 0.000000 0.000000 0.000000 -0.003442 0.000000 0.016474
#
#
# Mechanical properties :
#
#
# Convention : Reuss Voigt Hill
#
# Bulk Modulus (GPa) = 54.05145 60.57271 57.31208
# Shear Modulus (GPa) = 35.84742 41.13182 38.48962
#
# Velocity S-wave (km/s) = 3.84051 4.11386 3.97953
# Velocity P-wave (km/s) = 6.47346 6.89115 6.68557
#
# Compressibility (1/GPa) = 0.01850089
#
# Stress axis : x y z
#
# Youngs Moduli (GPa) = 83.20808 109.31814 72.83050
#
# Poissons Ratio (x) = 0.37029 0.18566
# Poissons Ratio (y) = 0.28185 0.16469
# Poissons Ratio (z) = 0.21211 0.24719
#
# Static dielectric constant tensor:
#      x y z
#    x 1.957200 0.000000 -0.037180 
#    y 0.000000 2.085250 0.000000 
#    z -0.037180 0.000000 2.071050 
# 
# From -- ./inp_files/89480.got.cif
#   From: 2010.05.17/outbox.cif.g08.bks.cpg/sg15_45_cif.got.tgz:89480.got - 2010.06.03 18:47:42.
