data_PCOD9266634
_publ_section_title
;
Structure prediction by ZEFSAII (Michael W. Deem and Ramdas Pophale) SiO2 
 PCOD9266634
Probable space group: C 2/C
;
_chemical_formula_sum "Si O2"
_cell_formula_units_Z 56
_cell_length_a 11.454935
_cell_length_b 22.077098
_cell_length_c 18.705763
_cell_angle_alpha 90.000000
_cell_angle_beta 38.025884
_cell_angle_gamma 90.000000
_cell_volume 2914.090433
_symmetry_space_group_name_H-M "C 2/C"
_symmetry_group_IT_number 15
_symmetry_cell_setting 'monoclinic'
loop_
_space_group_symop_operation_xyz
x,y,z
-x,y,1/2-z
-x,-y,-z
x,-y,1/2+z
1/2+x,1/2+y,z
1/2-x,1/2+y,1/2-z
1/2-x,1/2-y,-z
1/2+x,1/2-y,1/2+z
loop_
_atom_site_type_symbol
_atom_site_label
_atom_site_fract_x
_atom_site_fract_y
_atom_site_fract_z
Si Si1 0.133848 0.941602 0.943669
Si Si2 0.912605 0.822597 0.034990
Si Si3 0.060427 0.282367 0.565884
Si Si4 0.254276 0.436215 0.775265
Si Si5 0.661313 0.304540 0.779778
Si Si6 0.000000 0.023860 0.750000
Si Si7 0.335727 0.923108 0.994151
Si Si8 0.000000 0.293088 0.250000
O O1 0.233970 0.934099 0.817443
O O2 0.271588 0.943328 0.945333
O O3 0.005934 0.882456 0.022817
O O4 0.000000 0.000000 0.000000
O O5 0.687318 0.829346 0.138929
O O6 0.976456 0.760722 0.043939
O O7 0.006962 0.818184 0.912964
O O8 0.250000 0.250000 0.500000
O O9 0.123505 0.351051 0.520530
O O10 0.872215 0.287307 0.706880
O O11 0.303183 0.367928 0.777799
O O12 0.404649 0.482233 0.735155
O O13 0.043803 0.452031 0.903596
O O14 0.574551 0.250807 0.775939
O O15 0.170002 0.060108 0.629476
#
# Coordination Sequence:
#
# PCOD9266634 Si02
#       8
#     8   8   8   8   8   4   8   4
#     4  11  21  42  62  86 120 160 206 249 295 359
#     4  10  21  37  60  87 117 156 194 245 303 354
#     4  10  20  37  59  87 119 147 197 245 301 358
#     4  10  22  40  63  87 118 166 202 245 297 369
#     4   9  20  35  61  83 115 159 195 236 291 365
#     4  12  23  40  60  88 129 150 202 258 306 358
#     4  11  23  40  62  92 119 161 204 250 309 360
#     4  10  19  38  56  88 123 144 192 246 296 360
#
# _framework density 19.216975000000001
#
# number of rings (size 3 to 8) (size 9 to 14) (size 15 to 20)
#    0.000    1.714    2.857    1.714    0.000    1.714 
#    2.571    0.000    0.000    0.000    0.000    0.000 
#    0.000    0.000    0.000    0.000    0.000    0.000 
#
# Total GULP energy -155966.421643 kJ/mol
# GULP energy per Si atom -5570.229344 kJ/mol
# Density = 1.917324 g / cm^3
# Si number density = 19.216975 Si / 1000 Ang^3
#
#
#
# Elastic Constant Matrix: (Units=GPa)
#
#
# Indices 1 2 3 4 5 6 
#
# 1 49.2927 6.2360 27.3853 -0.0010 -14.6269 0.0005
# 2 6.2360 56.0700 12.0673 0.0002 -7.9428 0.0006
# 3 27.3853 12.0673 140.8598 -0.0035 -26.6964 0.0017
# 4 -0.0010 0.0002 -0.0035 23.3341 0.0020 -3.7877
# 5 -14.6269 -7.9428 -26.6964 0.0020 32.0839 -0.0006
# 6 0.0005 0.0006 0.0017 -3.7877 -0.0006 22.2351
#
#
#
# Elastic Compliance Matrix: (Units=1/GPa)
#
#
# Indices 1 2 3 4 5 6 
#
# 1 0.024627 -0.000876 -0.003118 0.000000 0.008416 0.000000
# 2 -0.000876 0.018600 -0.000743 -0.000001 0.003587 0.000000
# 3 -0.003118 -0.000743 0.008862 0.000001 0.005769 0.000000
# 4 0.000000 -0.000001 0.000001 0.044074 -0.000002 0.007508
# 5 0.008416 0.003587 0.005769 -0.000002 0.040693 0.000000
# 6 0.000000 0.000000 0.000000 0.007508 0.000000 0.046253
#
#
# Mechanical properties :
#
#
# Convention : Reuss Voigt Hill
#
# Bulk Modulus (GPa) = 23.46519 37.51104 30.48812
# Shear Modulus (GPa) = 24.17907 28.89953 26.53930
#
# Velocity S-wave (km/s) = 3.55098 3.88216 3.72026
# Velocity P-wave (km/s) = 5.38978 6.29738 5.86118
#
# Compressibility (1/GPa) = 0.04261631
#
# Stress axis : x y z
#
# Youngs Moduli (GPa) = 40.60523 53.76238 112.83593
#
# Poissons Ratio (x) = 0.04708 0.35180
# Poissons Ratio (y) = 0.03556 0.08388
# Poissons Ratio (z) = 0.12660 0.03997
#
# Static dielectric constant tensor:
#      x y z
#    x 1.422710 -0.000020 0.144520 
#    y -0.000020 1.570580 0.000010 
#    z 0.144520 0.000010 1.593430 
# 
# From -- ./inp_files/114731.got.cif
#   From: 2010.05.17/outbox.cif.g08.bks.cpg/sg15_58_cif.got.tgz:114731.got - 2010.06.03 18:47:42.
