data_PCOD9266597
_publ_section_title
;
Structure prediction by ZEFSAII (Michael W. Deem and Ramdas Pophale) SiO2 
 PCOD9266597
Probable space group: C 2/C
;
_chemical_formula_sum "Si O2"
_cell_formula_units_Z 44
_cell_length_a 7.422856
_cell_length_b 20.159794
_cell_length_c 17.855780
_cell_angle_alpha 90.000000
_cell_angle_beta 43.718824
_cell_angle_gamma 90.000000
_cell_volume 1846.670233
_symmetry_space_group_name_H-M "C 2/C"
_symmetry_group_IT_number 15
_symmetry_cell_setting 'monoclinic'
loop_
_space_group_symop_operation_xyz
x,y,z
-x,y,1/2-z
-x,-y,-z
x,-y,1/2+z
1/2+x,1/2+y,z
1/2-x,1/2+y,1/2-z
1/2-x,1/2-y,-z
1/2+x,1/2-y,1/2+z
loop_
_atom_site_type_symbol
_atom_site_label
_atom_site_fract_x
_atom_site_fract_y
_atom_site_fract_z
Si Si1 0.637545 0.618764 0.458624
Si Si2 0.044665 0.222291 0.365247
Si Si3 0.414502 0.437489 0.167720
Si Si4 0.500000 0.455612 0.750000
Si Si5 0.000000 0.474747 0.750000
Si Si6 0.000000 0.818727 0.250000
Si Si7 0.641587 0.171786 0.369252
O O1 0.497252 0.669368 0.445023
O O2 0.466415 0.574549 0.565199
O O3 0.800893 0.571867 0.353547
O O4 0.835383 0.660489 0.452351
O O5 0.220891 0.281595 0.346868
O O6 0.260287 0.201813 0.238534
O O7 0.780356 0.215231 0.393312
O O8 0.581604 0.493667 0.158877
O O9 0.439801 0.367617 0.199415
O O10 0.141785 0.474594 0.262588
O O11 0.733575 0.401878 0.673604
#
# Coordination Sequence:
#
# PCOD9266597 Si02
#       7
#     8   8   8   4   4   4   8
#     4  12  21  43  70  99 127 171 224 272 321 393
#     4  10  20  40  69  90 124 177 215 273 319 370
#     4  11  26  38  66  96 137 176 207 269 341 387
#     4   9  18  42  54  96 130 161 210 270 328 381
#     4  12  21  44  64 100 137 170 212 272 330 406
#     4  11  23  48  58  90 145 169 222 276 320 385
#     4  10  19  37  73  93 118 169 227 263 323 384
#
# _framework density 23.826668999999999
#
# number of rings (size 3 to 8) (size 9 to 14) (size 15 to 20)
#    0.000    1.455    5.455    1.636    0.000    2.909 
#    6.545    0.909    0.000    0.000    0.000    0.000 
#    0.000    0.000    0.000    0.000    0.000    0.000 
#
# Total GULP energy -122482.984590 kJ/mol
# GULP energy per Si atom -5567.408390 kJ/mol
# Density = 2.377244 g / cm^3
# Si number density = 23.826669 Si / 1000 Ang^3
#
#
#
# Elastic Constant Matrix: (Units=GPa)
#
#
# Indices 1 2 3 4 5 6 
#
# 1 60.4591 19.6893 4.5287 -0.0002 19.2170 0.0002
# 2 19.6893 94.5552 29.6859 0.0000 20.0549 0.0000
# 3 4.5287 29.6859 83.7067 -0.0005 18.0291 0.0003
# 4 -0.0002 0.0000 -0.0005 2.5485 0.0003 -4.6077
# 5 19.2170 20.0549 18.0291 0.0003 26.2998 -0.0002
# 6 0.0002 0.0000 0.0003 -4.6077 -0.0002 41.7077
#
#
#
# Elastic Compliance Matrix: (Units=1/GPa)
#
#
# Indices 1 2 3 4 5 6 
#
# 1 0.022357 -0.002057 0.003169 0.000006 -0.016939 0.000000
# 2 -0.002057 0.013399 -0.003242 0.000000 -0.006491 0.000000
# 3 0.003169 -0.003242 0.015124 0.000005 -0.010211 0.000000
# 4 0.000006 0.000000 0.000005 0.490326 -0.000013 0.054169
# 5 -0.016939 -0.006491 -0.010211 -0.000013 0.062350 -0.000001
# 6 0.000000 0.000000 0.000000 0.054169 -0.000001 0.029961
#
#
# Mechanical properties :
#
#
# Convention : Reuss Voigt Hill
#
# Bulk Modulus (GPa) = 21.45121 38.50319 29.97720
# Shear Modulus (GPa) = 7.65323 26.43236 17.04280
#
# Velocity S-wave (km/s) = 1.79416 3.33432 2.67738
# Velocity P-wave (km/s) = 3.64892 5.56941 4.70813
#
# Compressibility (1/GPa) = 0.04661742
#
# Stress axis : x y z
#
# Youngs Moduli (GPa) = 44.72896 74.63239 66.11940
#
# Poissons Ratio (x) = 0.15355 -0.20950
# Poissons Ratio (y) = 0.09203 0.21439
# Poissons Ratio (z) = -0.14172 0.24199
#
# Static dielectric constant tensor:
#      x y z
#    x 1.723520 0.000000 -0.215470 
#    y 0.000000 1.907330 0.000000 
#    z -0.215470 0.000000 1.825090 
# 
# From -- ./inp_files/190818.got.cif
#   From: 2010.05.17/outbox.cif.g08.bks.cpg/sg15_96_cif.got.tgz:190818.got - 2010.06.03 18:47:42.
