data_PCOD9266406
_publ_section_title
;
Structure prediction by ZEFSAII (Michael W. Deem and Ramdas Pophale) SiO2 
 PCOD9266406
Probable space group: C 2/C
;
_chemical_formula_sum "Si O2"
_cell_formula_units_Z 48
_cell_length_a 15.074286
_cell_length_b 34.001140
_cell_length_c 8.672716
_cell_angle_alpha 90.000000
_cell_angle_beta 34.971601
_cell_angle_gamma 90.000000
_cell_volume 2547.821917
_symmetry_space_group_name_H-M "C 2/C"
_symmetry_group_IT_number 15
_symmetry_cell_setting 'monoclinic'
loop_
_space_group_symop_operation_xyz
x,y,z
-x,y,1/2-z
-x,-y,-z
x,-y,1/2+z
1/2+x,1/2+y,z
1/2-x,1/2+y,1/2-z
1/2-x,1/2-y,-z
1/2+x,1/2-y,1/2+z
loop_
_atom_site_type_symbol
_atom_site_label
_atom_site_fract_x
_atom_site_fract_y
_atom_site_fract_z
Si Si1 0.025797 0.043276 0.030759
Si Si2 0.663117 0.251956 0.961775
Si Si3 0.681200 0.911031 0.504530
Si Si4 0.281944 0.328829 0.201888
Si Si5 0.354555 0.319334 0.741507
Si Si6 0.348542 0.603489 0.069673
O O1 0.000000 0.044153 0.250000
O O2 0.905317 0.072499 0.116656
O O3 0.198044 0.058594 0.744381
O O4 0.000000 0.000000 0.000000
O O5 0.667730 0.207090 0.900654
O O6 0.707903 0.280154 0.754995
O O7 0.500000 0.267742 0.250000
O O8 0.750000 0.250000 0.000000
O O9 0.723476 0.868964 0.364198
O O10 0.722608 0.910459 0.626938
O O11 0.500000 0.919461 0.750000
O O12 0.297141 0.328491 0.995476
O O13 0.456746 0.319435 0.014089
O O14 0.303752 0.355861 0.710430
O O15 0.500000 0.610912 0.750000
#
# Coordination Sequence:
#
# PCOD9266406 Si02
#       6
#     8   8   8   8   8   8
#     4  11  22  42  70 100 128 169 216 250 306 389
#     4  12  23  38  56  81 117 160 212 266 318 371
#     4  11  23  41  65  98 132 164 208 267 320 368
#     4  11  22  38  60  87 124 162 212 263 322 378
#     4  11  21  38  60  87 118 166 216 261 313 387
#     4  10  19  37  64  89 122 166 210 251 309 386
#
# _framework density 18.83962
#
# number of rings (size 3 to 8) (size 9 to 14) (size 15 to 20)
#    0.000    1.000    5.000    5.000    0.000    0.000 
#    0.000    8.333    0.000    0.000    0.000    0.000 
#    0.000    0.000    0.000    0.000    0.000    0.000 
#
# Total GULP energy -133882.823973 kJ/mol
# GULP energy per Si atom -5578.450999 kJ/mol
# Density = 1.879674 g / cm^3
# Si number density = 18.839620 Si / 1000 Ang^3
#
#
#
# Elastic Constant Matrix: (Units=GPa)
#
#
# Indices 1 2 3 4 5 6 
#
# 1 151.6934 38.3693 67.9223 0.0000 13.2694 0.0000
# 2 38.3693 132.2741 41.9199 0.0000 15.1233 0.0000
# 3 67.9223 41.9199 59.1677 0.0000 14.7968 0.0000
# 4 0.0000 0.0000 0.0000 26.9231 0.0000 6.0598
# 5 13.2694 15.1233 14.7968 0.0000 34.5696 0.0000
# 6 0.0000 0.0000 0.0000 6.0598 0.0000 35.8766
#
#
#
# Elastic Compliance Matrix: (Units=1/GPa)
#
#
# Indices 1 2 3 4 5 6 
#
# 1 0.013804 0.001246 -0.017098 0.000000 0.001475 0.000000
# 2 0.001246 0.009928 -0.008129 0.000000 -0.001342 0.000000
# 3 -0.017098 -0.008129 0.044523 0.000000 -0.008938 0.000000
# 4 0.000000 0.000000 0.000000 0.038611 0.000000 -0.006522
# 5 0.001475 -0.001342 -0.008938 0.000000 0.032774 0.000000
# 6 0.000000 0.000000 0.000000 -0.006522 0.000000 0.028975
#
#
# Mechanical properties :
#
#
# Convention : Reuss Voigt Hill
#
# Bulk Modulus (GPa) = 49.27541 71.06201 60.16871
# Shear Modulus (GPa) = 22.38736 32.46876 27.42806
#
# Velocity S-wave (km/s) = 3.45093 4.15592 3.81973
# Velocity P-wave (km/s) = 6.48772 7.79938 7.17359
#
# Compressibility (1/GPa) = 0.02029410
#
# Stress axis : x y z
#
# Youngs Moduli (GPa) = 72.44388 100.72290 22.46031
#
# Poissons Ratio (x) = -0.12548 0.38402
# Poissons Ratio (y) = -0.09025 0.18257
# Poissons Ratio (z) = 1.23862 0.81873
#
# Static dielectric constant tensor:
#      x y z
#    x 1.726400 0.000000 0.005390 
#    y 0.000000 1.645530 0.000000 
#    z 0.005390 0.000000 1.652240 
# 
# From -- ./inp_files/44420.got.cif
#   From: 2010.05.17/outbox.cif.g08.bks.cpg/sg15_23_cif.got.tgz:44420.got - 2010.06.03 18:47:42.
