data_PCOD9266384
_publ_section_title
;
Structure prediction by ZEFSAII (Michael W. Deem and Ramdas Pophale) SiO2 
 PCOD9266384
Probable space group: C 2/C
;
_chemical_formula_sum "Si O2"
_cell_formula_units_Z 60
_cell_length_a 14.609746
_cell_length_b 21.663571
_cell_length_c 9.938860
_cell_angle_alpha 90.000000
_cell_angle_beta 89.338848
_cell_angle_gamma 90.000000
_cell_volume 3145.432506
_symmetry_space_group_name_H-M "C 2/C"
_symmetry_group_IT_number 15
_symmetry_cell_setting 'monoclinic'
loop_
_space_group_symop_operation_xyz
x,y,z
-x,y,1/2-z
-x,-y,-z
x,-y,1/2+z
1/2+x,1/2+y,z
1/2-x,1/2+y,1/2-z
1/2-x,1/2-y,-z
1/2+x,1/2-y,1/2+z
loop_
_atom_site_type_symbol
_atom_site_label
_atom_site_fract_x
_atom_site_fract_y
_atom_site_fract_z
Si Si1 0.500000 0.332266 0.250000
Si Si2 0.587665 0.976061 0.579222
Si Si3 0.725571 0.120389 0.392412
Si Si4 0.202895 0.513646 0.817726
Si Si5 0.908026 0.249907 0.983670
Si Si6 0.012784 0.351794 0.893989
Si Si7 0.762978 0.234949 0.203077
Si Si8 0.700550 0.370105 0.309580
O O1 0.538303 0.296931 0.115189
O O2 0.591452 0.366315 0.296547
O O3 0.618581 0.011423 0.712457
O O4 0.558110 0.907466 0.617210
O O5 0.500000 0.000000 0.500000
O O6 0.668657 0.977593 0.470205
O O7 0.743822 0.055905 0.314332
O O8 0.615347 0.125501 0.412244
O O9 0.755882 0.181984 0.314523
O O10 0.770783 0.119581 0.537311
O O11 0.263534 0.571535 0.775242
O O12 0.822134 0.275473 0.897467
O O13 0.978785 0.305315 0.007906
O O14 0.857500 0.228268 0.119218
O O15 0.000000 0.318300 0.750000
O O16 0.745114 0.304602 0.259208
#
# Coordination Sequence:
#
# PCOD9266384 Si02
#       8
#     4   8   8   8   8   8   8   8
#     4  10  22  44  68  82 124 158 224 272 318 378
#     4  12  21  35  57  92 131 170 203 246 304 385
#     4  12  23  40  64  95 130 168 209 260 323 381
#     4  12  23  39  61  91 134 166 212 259 313 379
#     4  10  19  37  63  97 121 168 211 252 321 382
#     4  12  18  34  60  90 128 165 202 244 310 385
#     4  10  21  38  65  95 129 164 211 264 314 379
#     4  11  24  44  63  94 124 171 211 271 324 377
#
# _framework density 19.075278000000001
#
# number of rings (size 3 to 8) (size 9 to 14) (size 15 to 20)
#    0.000    0.800    6.000    2.400    0.000    2.133 
#    0.000    4.667    0.000    0.000    0.000    0.000 
#    0.000    0.000    0.000    0.000    0.000    0.000 
#
# Total GULP energy -167367.602807 kJ/mol
# GULP energy per Si atom -5578.920094 kJ/mol
# Density = 1.903186 g / cm^3
# Si number density = 19.075278 Si / 1000 Ang^3
#
#
#
# Elastic Constant Matrix: (Units=GPa)
#
#
# Indices 1 2 3 4 5 6 
#
# 1 90.1327 50.4238 30.5797 0.0000 -10.8996 0.0000
# 2 50.4238 119.8958 34.5580 0.0000 -18.5747 0.0000
# 3 30.5797 34.5580 75.3962 0.0000 -7.9058 0.0000
# 4 0.0000 0.0000 0.0000 27.6543 0.0000 -10.2350
# 5 -10.8996 -18.5747 -7.9058 0.0000 32.8652 0.0000
# 6 0.0000 0.0000 0.0000 -10.2350 0.0000 23.2589
#
#
#
# Elastic Compliance Matrix: (Units=1/GPa)
#
#
# Indices 1 2 3 4 5 6 
#
# 1 0.015435 -0.005218 -0.003735 0.000000 0.001271 0.000000
# 2 -0.005218 0.012065 -0.002955 0.000000 0.004378 0.000000
# 3 -0.003735 -0.002955 0.016237 0.000000 0.000997 0.000000
# 4 0.000000 0.000000 0.000000 0.043196 0.000000 0.019008
# 5 0.001271 0.004378 0.000997 0.000000 0.033563 0.000000
# 6 0.000000 0.000000 0.000000 0.019008 0.000000 0.051359
#
#
# Mechanical properties :
#
#
# Convention : Reuss Voigt Hill
#
# Bulk Modulus (GPa) = 50.19744 57.39419 53.79582
# Shear Modulus (GPa) = 24.71456 28.07990 26.39723
#
# Velocity S-wave (km/s) = 3.60340 3.84090 3.72404
# Velocity P-wave (km/s) = 6.60948 7.05858 6.83772
#
# Compressibility (1/GPa) = 0.01992133
#
# Stress axis : x y z
#
# Youngs Moduli (GPa) = 64.78879 82.88607 61.58742
#
# Poissons Ratio (x) = 0.43247 0.23005
# Poissons Ratio (y) = 0.33805 0.18197
# Poissons Ratio (z) = 0.24201 0.24490
#
# Static dielectric constant tensor:
#      x y z
#    x 1.655590 0.000000 -0.016810 
#    y 0.000000 1.713370 0.000000 
#    z -0.016810 0.000000 1.692820 
# 
# From -- ./inp_files/42196.got.cif
#   From: 2010.05.17/outbox.cif.g08.bks.cpg/sg15_22_cif.got.tgz:42196.got - 2010.06.03 18:47:42.
