data_PCOD9266962
_publ_section_title
;
Structure prediction by ZEFSAII (Michael W. Deem and Ramdas Pophale) SiO2 
 PCOD9266962
Probable space group: C 2/C
;
_chemical_formula_sum "Si O2"
_cell_formula_units_Z 56
_cell_length_a 13.755594
_cell_length_b 19.339036
_cell_length_c 14.521405
_cell_angle_alpha 90.000000
_cell_angle_beta 133.691760
_cell_angle_gamma 90.000000
_cell_volume 2793.193666
_symmetry_space_group_name_H-M "C 2/C"
_symmetry_group_IT_number 15
_symmetry_cell_setting 'monoclinic'
loop_
_space_group_symop_operation_xyz
x,y,z
-x,y,1/2-z
-x,-y,-z
x,-y,1/2+z
1/2+x,1/2+y,z
1/2-x,1/2+y,1/2-z
1/2-x,1/2-y,-z
1/2+x,1/2-y,1/2+z
loop_
_atom_site_type_symbol
_atom_site_label
_atom_site_fract_x
_atom_site_fract_y
_atom_site_fract_z
Si Si1 0.572916 0.956199 0.973270
Si Si2 0.203655 0.497200 0.885986
Si Si3 0.014006 0.306646 0.611614
Si Si4 0.714015 0.168250 0.396907
Si Si5 0.706512 0.557479 0.739407
Si Si6 0.011552 0.938377 0.865957
Si Si7 0.486613 0.329877 0.470710
O O1 0.714940 0.934836 0.113441
O O2 0.484304 0.887482 0.908157
O O3 0.500000 0.000000 0.000000
O O4 0.598104 0.003112 0.899993
O O5 0.192438 0.414229 0.869691
O O6 0.198838 0.535647 0.784892
O O7 0.347210 0.523853 0.019123
O O8 0.867369 0.305253 0.566954
O O9 0.037910 0.252544 0.545326
O O10 0.133745 0.293870 0.762582
O O11 0.873393 0.170226 0.493405
O O12 0.602567 0.493790 0.681275
O O13 0.624476 0.626014 0.657448
O O14 0.998775 0.871137 0.923596
O O15 0.000000 0.922625 0.750000
#
# Coordination Sequence:
#
# PCOD9266962 Si02
#       7
#     8   8   8   8   8   8   8
#     4  11  24  39  63  91 127 163 207 260 319 380
#     4  10  19  38  63  92 117 156 209 253 313 368
#     4  10  24  37  56  91 124 167 203 243 323 380
#     4  10  19  39  59  85 127 159 194 256 316 369
#     4  11  21  38  63  95 121 163 208 263 310 368
#     4  11  20  37  64  94 119 161 208 264 311 355
#     4  11  22  38  62  86 127 161 206 257 305 382
#
# _framework density 20.048735000000001
#
# number of rings (size 3 to 8) (size 9 to 14) (size 15 to 20)
#    0.000    1.429    4.286    2.143    2.000    1.714 
#    5.143    0.000    3.143    2.571    0.000    0.000 
#    0.000    0.000    0.000    0.000    0.000    0.000 
#
# Total GULP energy -155991.998110 kJ/mol
# GULP energy per Si atom -5571.142790 kJ/mol
# Density = 2.000310 g / cm^3
# Si number density = 20.048735 Si / 1000 Ang^3
#
#
#
# Elastic Constant Matrix: (Units=GPa)
#
#
# Indices 1 2 3 4 5 6 
#
# 1 86.8794 57.2914 24.5251 0.0000 -6.1212 0.0000
# 2 57.2914 94.7555 23.4165 0.0000 -14.0012 0.0000
# 3 24.5251 23.4165 78.8052 0.0000 -9.6379 0.0000
# 4 0.0000 0.0000 0.0000 173.4774 0.0000 104.7787
# 5 -6.1212 -14.0012 -9.6379 0.0000 29.2464 0.0000
# 6 0.0000 0.0000 0.0000 104.7787 0.0000 111.9483
#
#
#
# Elastic Compliance Matrix: (Units=1/GPa)
#
#
# Indices 1 2 3 4 5 6 
#
# 1 0.019850 -0.011609 -0.003021 0.000000 -0.002399 0.000000
# 2 -0.011609 0.018784 -0.001215 0.000000 0.006162 0.000000
# 3 -0.003021 -0.001215 0.014424 0.000000 0.003539 0.000000
# 4 0.000000 0.000000 0.000000 0.013261 0.000000 -0.012412
# 5 -0.002399 0.006162 0.003539 0.000000 0.037806 0.000000
# 6 0.000000 0.000000 0.000000 -0.012412 0.000000 0.020550
#
#
# Mechanical properties :
#
#
# Convention : Reuss Voigt Hill
#
# Bulk Modulus (GPa) = 46.80335 52.32290 49.56313
# Shear Modulus (GPa) = 30.58353 73.28157 51.93255
#
# Velocity S-wave (km/s) = 3.90995 6.05236 5.09504
# Velocity P-wave (km/s) = 6.61658 8.66002 7.70633
#
# Compressibility (1/GPa) = 0.02136599
#
# Stress axis : x y z
#
# Youngs Moduli (GPa) = 50.37854 53.23804 69.33100
#
# Poissons Ratio (x) = 0.61807 0.20946
# Poissons Ratio (y) = 0.58487 0.08422
# Poissons Ratio (z) = 0.15220 0.06467
#
# Static dielectric constant tensor:
#      x y z
#    x 1.717380 0.000000 0.003860 
#    y 0.000000 1.736230 0.000000 
#    z 0.003860 0.000000 1.787020 
# 
# From -- ./inp_files/98400.got.cif
#   From: 2010.05.17/outbox.cif.g08.bks.cpg/sg15_50_cif.got.tgz:98400.got - 2010.06.03 18:47:42.
