data_PCOD9266409
_publ_section_title
;
Structure prediction by ZEFSAII (Michael W. Deem and Ramdas Pophale) SiO2 
 PCOD9266409
Probable space group: C 2/C
;
_chemical_formula_sum "Si O2"
_cell_formula_units_Z 60
_cell_length_a 12.268772
_cell_length_b 13.746716
_cell_length_c 19.661254
_cell_angle_alpha 90.000000
_cell_angle_beta 111.828103
_cell_angle_gamma 90.000000
_cell_volume 3078.231566
_symmetry_space_group_name_H-M "C 2/C"
_symmetry_group_IT_number 15
_symmetry_cell_setting 'monoclinic'
loop_
_space_group_symop_operation_xyz
x,y,z
-x,y,1/2-z
-x,-y,-z
x,-y,1/2+z
1/2+x,1/2+y,z
1/2-x,1/2+y,1/2-z
1/2-x,1/2-y,-z
1/2+x,1/2-y,1/2+z
loop_
_atom_site_type_symbol
_atom_site_label
_atom_site_fract_x
_atom_site_fract_y
_atom_site_fract_z
Si Si1 0.000000 0.742368 0.750000
Si Si2 0.767392 0.125890 0.179681
Si Si3 0.008930 0.116219 0.453196
Si Si4 0.603127 0.734753 0.722075
Si Si5 0.268512 0.136612 0.489393
Si Si6 0.737865 0.587113 0.844731
Si Si7 0.971222 0.079327 0.598075
Si Si8 0.988489 0.337320 0.395083
O O1 0.885991 0.811491 0.715496
O O2 0.989301 0.675715 0.814137
O O3 0.665948 0.177785 0.198529
O O4 0.780998 0.012973 0.200511
O O5 0.733357 0.124389 0.091951
O O6 0.148992 0.093579 0.492204
O O7 0.956337 0.108676 0.515978
O O8 0.989021 0.224722 0.421289
O O9 0.972924 0.029497 0.393499
O O10 0.500000 0.764390 0.750000
O O11 0.696742 0.676926 0.789335
O O12 0.551500 0.657633 0.655637
O O13 0.250000 0.250000 0.500000
O O14 0.392718 0.111535 0.551178
O O15 0.650435 0.579791 0.888593
O O16 0.873315 0.606151 0.892927
#
# Coordination Sequence:
#
# PCOD9266409 Si02
#       8
#     4   8   8   8   8   8   8   8
#     4  12  22  38  70  90 120 160 218 260 300 356
#     4  12  23  42  65  92 122 168 205 261 305 371
#     4  10  20  38  64  91 122 158 210 251 301 371
#     4  10  23  40  62  85 127 163 198 256 312 374
#     4  10  19  37  64  90 122 160 204 253 310 355
#     4  11  24  39  63  94 123 161 212 250 317 365
#     4  10  21  39  63  92 119 165 206 251 307 366
#     4  11  23  38  62  97 126 161 203 266 306 368
#
# _framework density 19.491712
#
# number of rings (size 3 to 8) (size 9 to 14) (size 15 to 20)
#    0.000    1.333    5.333    1.600    4.667    1.067 
#    1.200    0.000    5.867    0.000    0.000    0.000 
#    0.000    0.000    0.000    0.000    0.000    0.000 
#
# Total GULP energy -167441.172339 kJ/mol
# GULP energy per Si atom -5581.372411 kJ/mol
# Density = 1.944735 g / cm^3
# Si number density = 19.491712 Si / 1000 Ang^3
#
#
#
# Elastic Constant Matrix: (Units=GPa)
#
#
# Indices 1 2 3 4 5 6 
#
# 1 116.4475 25.4108 46.7291 0.0000 -5.4611 0.0000
# 2 25.4108 31.2308 12.4721 0.0000 -21.8016 0.0000
# 3 46.7291 12.4721 88.5039 0.0000 -7.5752 0.0000
# 4 0.0000 0.0000 0.0000 14.3647 0.0000 -3.3779
# 5 -5.4611 -21.8016 -7.5752 0.0000 29.0910 0.0000
# 6 0.0000 0.0000 0.0000 -3.3779 0.0000 26.7524
#
#
#
# Elastic Compliance Matrix: (Units=1/GPa)
#
#
# Indices 1 2 3 4 5 6 
#
# 1 0.014341 -0.017738 -0.006116 0.000000 -0.012194 0.000000
# 2 -0.017738 0.091586 0.002096 0.000000 0.065853 0.000000
# 3 -0.006116 0.002096 0.014594 0.000000 0.004223 0.000000
# 4 0.000000 0.000000 0.000000 0.071745 0.000000 0.009059
# 5 -0.012194 0.065853 0.004223 0.000000 0.082537 0.000000
# 6 0.000000 0.000000 0.000000 0.009059 0.000000 0.038524
#
#
# Mechanical properties :
#
#
# Convention : Reuss Voigt Hill
#
# Bulk Modulus (GPa) = 12.98631 45.04513 29.01572
# Shear Modulus (GPa) = 13.07149 24.14631 18.60890
#
# Velocity S-wave (km/s) = 2.59244 3.52348 3.09319
# Velocity P-wave (km/s) = 3.95448 6.30184 5.26076
#
# Compressibility (1/GPa) = 0.07700416
#
# Stress axis : x y z
#
# Youngs Moduli (GPa) = 69.73190 10.91868 68.52098
#
# Poissons Ratio (x) = 0.19368 0.41905
# Poissons Ratio (y) = 1.23692 -0.14359
# Poissons Ratio (z) = 0.42646 -0.02288
#
# Static dielectric constant tensor:
#      x y z
#    x 1.715050 0.000000 -0.025880 
#    y 0.000000 1.748230 0.000000 
#    z -0.025880 0.000000 1.825400 
# 
# From -- ./inp_files/198379.got.cif
#   From: 2010.05.17/outbox.cif.g08.bks.cpg/sg15_100_cif.got.tgz:198379.got - 2010.06.03 18:47:42.
