data_PCOD9266899
_publ_section_title
;
Structure prediction by ZEFSAII (Michael W. Deem and Ramdas Pophale) SiO2 
 PCOD9266899
Probable space group: C 2/C
;
_chemical_formula_sum "Si O2"
_cell_formula_units_Z 60
_cell_length_a 20.820510
_cell_length_b 9.071055
_cell_length_c 15.953130
_cell_angle_alpha 90.000000
_cell_angle_beta 64.075829
_cell_angle_gamma 90.000000
_cell_volume 2709.786782
_symmetry_space_group_name_H-M "C 2/C"
_symmetry_group_IT_number 15
_symmetry_cell_setting 'monoclinic'
loop_
_space_group_symop_operation_xyz
x,y,z
-x,y,1/2-z
-x,-y,-z
x,-y,1/2+z
1/2+x,1/2+y,z
1/2-x,1/2+y,1/2-z
1/2-x,1/2-y,-z
1/2+x,1/2-y,1/2+z
loop_
_atom_site_type_symbol
_atom_site_label
_atom_site_fract_x
_atom_site_fract_y
_atom_site_fract_z
Si Si1 0.132764 0.855161 0.623833
Si Si2 0.161238 0.623705 0.744625
Si Si3 0.364790 0.342008 0.063622
Si Si4 0.575163 0.084237 0.949306
Si Si5 0.219396 0.917008 0.797078
Si Si6 0.002572 0.142053 0.561611
Si Si7 0.000000 0.970099 0.250000
Si Si8 0.224193 0.558758 0.407930
O O1 0.146420 0.703037 0.664983
O O2 0.102681 0.841606 0.547834
O O3 0.210563 0.933111 0.564009
O O4 0.073343 0.936423 0.713301
O O5 0.093196 0.588466 0.840281
O O6 0.205533 0.472376 0.706876
O O7 0.198518 0.751312 0.783554
O O8 0.337645 0.496977 0.114638
O O9 0.424674 0.286049 0.092359
O O10 0.300504 0.226790 0.094783
O O11 0.647545 0.021432 0.953528
O O12 0.560883 0.245021 0.995215
O O13 0.500000 0.000000 0.000000
O O14 0.230176 0.990128 0.699154
O O15 0.009446 0.111154 0.655979
O O16 0.000000 0.000000 0.500000
#
# Coordination Sequence:
#
# PCOD9266899 Si02
#       8
#     8   8   8   8   8   8   4   8
#     4  11  23  41  66 101 137 176 236 285 335 421
#     4  10  22  38  66  97 132 177 226 280 344 403
#     4  12  21  39  70  95 132 181 225 280 344 410
#     4  11  23  44  69  99 140 185 227 285 350 414
#     4  10  19  38  62  94 130 169 224 275 336 403
#     4  12  24  45  71  98 134 186 227 283 350 410
#     4  12  26  44  68 104 140 174 238 294 344 414
#     4  10  22  41  63  99 134 177 229 280 340 408
#
# _framework density 22.141963000000001
#
# number of rings (size 3 to 8) (size 9 to 14) (size 15 to 20)
#    0.000    1.067    5.333    3.600    0.000    0.000 
#    0.000    3.333    0.000    0.000    0.000    0.000 
#    0.000    0.000    0.000    0.000    0.000    0.000 
#
# Total GULP energy -167032.233470 kJ/mol
# GULP energy per Si atom -5567.741116 kJ/mol
# Density = 2.209157 g / cm^3
# Si number density = 22.141963 Si / 1000 Ang^3
#
#
#
# Elastic Constant Matrix: (Units=GPa)
#
#
# Indices 1 2 3 4 5 6 
#
# 1 98.8986 21.5087 17.5404 0.0000 -14.3250 0.0000
# 2 21.5087 76.1324 27.3371 0.0000 -8.8482 0.0000
# 3 17.5404 27.3371 101.4632 0.0000 -12.6501 0.0000
# 4 0.0000 0.0000 0.0000 35.1611 0.0000 -13.9422
# 5 -14.3250 -8.8482 -12.6501 0.0000 46.2175 0.0000
# 6 0.0000 0.0000 0.0000 -13.9422 0.0000 23.5536
#
#
#
# Elastic Compliance Matrix: (Units=1/GPa)
#
#
# Indices 1 2 3 4 5 6 
#
# 1 0.011220 -0.002521 -0.000918 0.000000 0.002744 0.000000
# 2 -0.002521 0.015250 -0.003527 0.000000 0.001173 0.000000
# 3 -0.000918 -0.003527 0.011228 0.000000 0.002113 0.000000
# 4 0.000000 0.000000 0.000000 0.037163 0.000000 0.021998
# 5 0.002744 0.001173 0.002113 0.000000 0.023290 0.000000
# 6 0.000000 0.000000 0.000000 0.021998 0.000000 0.055478
#
#
# Mechanical properties :
#
#
# Convention : Reuss Voigt Hill
#
# Bulk Modulus (GPa) = 42.07744 45.47406 43.77575
# Shear Modulus (GPa) = 28.49266 34.99366 31.74316
#
# Velocity S-wave (km/s) = 3.59112 3.97977 3.79043
# Velocity P-wave (km/s) = 6.01993 6.45756 6.24258
#
# Compressibility (1/GPa) = 0.02376570
#
# Stress axis : x y z
#
# Youngs Moduli (GPa) = 89.12700 65.57403 89.06128
#
# Poissons Ratio (x) = 0.16533 0.08178
# Poissons Ratio (y) = 0.22471 0.31409
# Poissons Ratio (z) = 0.08184 0.23126
#
# Static dielectric constant tensor:
#      x y z
#    x 1.948470 0.000000 -0.030770 
#    y 0.000000 1.912530 0.000000 
#    z -0.030770 0.000000 1.854730 
# 
# From -- ./inp_files/214292.got.cif
#   From: 2010.05.17/outbox.cif.g08.bks.cpg/sg15_108_cif.got.tgz:214292.got - 2010.06.03 18:47:42.
