data_PCOD9266766
_publ_section_title
;
Structure prediction by ZEFSAII (Michael W. Deem and Ramdas Pophale) SiO2 
 PCOD9266766
Probable space group: C 2/C
;
_chemical_formula_sum "Si O2"
_cell_formula_units_Z 52
_cell_length_a 14.847452
_cell_length_b 19.108602
_cell_length_c 8.706755
_cell_angle_alpha 90.000000
_cell_angle_beta 68.771076
_cell_angle_gamma 90.000000
_cell_volume 2302.601795
_symmetry_space_group_name_H-M "C 2/C"
_symmetry_group_IT_number 15
_symmetry_cell_setting 'monoclinic'
loop_
_space_group_symop_operation_xyz
x,y,z
-x,y,1/2-z
-x,-y,-z
x,-y,1/2+z
1/2+x,1/2+y,z
1/2-x,1/2+y,1/2-z
1/2-x,1/2-y,-z
1/2+x,1/2-y,1/2+z
loop_
_atom_site_type_symbol
_atom_site_label
_atom_site_fract_x
_atom_site_fract_y
_atom_site_fract_z
Si Si1 0.500000 0.995342 0.250000
Si Si2 0.523111 0.671597 0.069561
Si Si3 0.120721 0.420535 0.437059
Si Si4 0.266175 0.338967 0.955491
Si Si5 0.069294 0.946300 0.043391
Si Si6 0.642395 0.222356 0.784433
Si Si7 0.303612 0.486033 0.796333
O O1 0.545040 0.945258 0.352652
O O2 0.422088 0.046854 0.379628
O O3 0.500000 0.633675 0.250000
O O4 0.478851 0.628386 0.957011
O O5 0.461599 0.742015 0.125893
O O6 0.638330 0.675985 0.997869
O O7 0.145290 0.338047 0.410859
O O8 0.218706 0.459737 0.334750
O O9 0.171284 0.318564 0.109158
O O10 0.287672 0.290466 0.791361
O O11 0.270241 0.420417 0.918373
O O12 0.166248 0.951554 0.881794
O O13 0.106254 0.973079 0.182780
O O14 0.000000 0.000000 0.000000
#
# Coordination Sequence:
#
# PCOD9266766 Si02
#       7
#     4   8   8   8   8   8   8
#     4  10  24  46  66  98 134 174 242 274 338 392
#     4  10  19  38  60  93 130 171 222 268 325 395
#     4  11  24  43  70 100 131 183 223 288 333 402
#     4  10  20  38  63  98 128 174 221 278 320 404
#     4  12  21  37  63  95 131 172 208 269 327 400
#     4  10  21  38  64  97 129 168 228 271 332 391
#     4  12  23  40  66  97 135 165 222 272 336 393
#
# _framework density 22.583148999999999
#
# number of rings (size 3 to 8) (size 9 to 14) (size 15 to 20)
#    0.000    1.231    4.615    3.231    3.231    0.000 
#    2.769    0.769    3.385    0.000    0.000    0.000 
#    0.000    0.000    0.000    0.000    0.000    0.000 
#
# Total GULP energy -144990.056872 kJ/mol
# GULP energy per Si atom -5576.540649 kJ/mol
# Density = 2.253175 g / cm^3
# Si number density = 22.583149 Si / 1000 Ang^3
#
#
#
# Elastic Constant Matrix: (Units=GPa)
#
#
# Indices 1 2 3 4 5 6 
#
# 1 52.0331 27.8579 -0.9486 0.0000 -7.5600 0.0000
# 2 27.8579 124.9059 10.0544 0.0000 -8.2867 0.0000
# 3 -0.9486 10.0544 72.3731 0.0000 -9.5878 0.0000
# 4 0.0000 0.0000 0.0000 26.3244 0.0000 -5.4422
# 5 -7.5600 -8.2867 -9.5878 0.0000 19.3598 0.0000
# 6 0.0000 0.0000 0.0000 -5.4422 0.0000 36.6299
#
#
#
# Elastic Compliance Matrix: (Units=1/GPa)
#
#
# Indices 1 2 3 4 5 6 
#
# 1 0.022952 -0.004755 0.002011 0.000000 0.007923 0.000000
# 2 -0.004755 0.009261 -0.001145 0.000000 0.001540 0.000000
# 3 0.002011 -0.001145 0.015028 0.000000 0.007738 0.000000
# 4 0.000000 0.000000 0.000000 0.039191 0.000000 0.005823
# 5 0.007923 0.001540 0.007738 0.000000 0.059239 0.000000
# 6 0.000000 0.000000 0.000000 0.005823 0.000000 0.028165
#
#
# Mechanical properties :
#
#
# Convention : Reuss Voigt Hill
#
# Bulk Modulus (GPa) = 25.34023 35.91552 30.62788
# Shear Modulus (GPa) = 25.67149 30.61940 28.14545
#
# Velocity S-wave (km/s) = 3.37524 3.68618 3.53413
# Velocity P-wave (km/s) = 5.14148 5.83571 5.49956
#
# Compressibility (1/GPa) = 0.03946294
#
# Stress axis : x y z
#
# Youngs Moduli (GPa) = 43.56851 107.98040 66.54356
#
# Poissons Ratio (x) = 0.51348 -0.13383
# Poissons Ratio (y) = 0.20718 0.07618
# Poissons Ratio (z) = -0.08762 0.12362
#
# Static dielectric constant tensor:
#      x y z
#    x 1.868590 0.000000 -0.014960 
#    y 0.000000 1.885140 0.000000 
#    z -0.014960 0.000000 1.957790 
# 
# From -- ./inp_files/40752.got.cif
#   From: 2010.05.17/outbox.cif.g08.bks.cpg/sg15_21_cif.got.tgz:40752.got - 2010.06.03 18:47:42.
