data_PCOD9266534
_publ_section_title
;
Structure prediction by ZEFSAII (Michael W. Deem and Ramdas Pophale) SiO2 
 PCOD9266534
Probable space group: C 2/C
;
_chemical_formula_sum "Si O2"
_cell_formula_units_Z 52
_cell_length_a 5.526496
_cell_length_b 29.032202
_cell_length_c 18.203076
_cell_angle_alpha 90.000000
_cell_angle_beta 49.822699
_cell_angle_gamma 90.000000
_cell_volume 2231.502383
_symmetry_space_group_name_H-M "C 2/C"
_symmetry_group_IT_number 15
_symmetry_cell_setting 'monoclinic'
loop_
_space_group_symop_operation_xyz
x,y,z
-x,y,1/2-z
-x,-y,-z
x,-y,1/2+z
1/2+x,1/2+y,z
1/2-x,1/2+y,1/2-z
1/2-x,1/2-y,-z
1/2+x,1/2-y,1/2+z
loop_
_atom_site_type_symbol
_atom_site_label
_atom_site_fract_x
_atom_site_fract_y
_atom_site_fract_z
Si Si1 0.453478 0.567113 0.344154
Si Si2 0.897239 0.149636 0.095766
Si Si3 0.337135 0.474610 0.151239
Si Si4 0.262691 0.913567 0.994903
Si Si5 0.133021 0.750598 0.936682
Si Si6 0.500000 0.417948 0.250000
Si Si7 0.886100 0.348963 0.103221
O O1 0.500000 0.556581 0.250000
O O2 0.545705 0.620048 0.342501
O O3 0.645521 0.529274 0.352853
O O4 0.091340 0.560035 0.439955
O O5 0.766807 0.201184 0.119997
O O6 0.689979 0.115840 0.087383
O O7 0.239161 0.150946 0.986997
O O8 0.464358 0.447742 0.055823
O O9 0.559647 0.452847 0.171265
O O10 0.000000 0.461297 0.250000
O O11 0.229509 0.874959 0.064456
O O12 0.234773 0.703441 0.876799
O O13 0.250000 0.750000 0.000000
O O14 0.750000 0.750000 0.000000
O O15 0.788500 0.380866 0.190792
#
# Coordination Sequence:
#
# PCOD9266534 Si02
#       7
#     8   8   8   8   8   4   8
#     4  11  25  41  57  85 126 168 212 261 319 383
#     4  10  21  37  64  88 119 164 212 261 315 391
#     4  11  23  39  62  90 120 162 208 265 325 385
#     4  10  21  39  63  88 118 161 210 259 318 386
#     4  10  19  37  66  94 125 166 214 266 328 389
#     4  10  20  38  60  86 128 154 204 264 324 376
#     4   9  19  36  60  92 120 158 204 260 319 383
#
# _framework density 23.302686999999999
#
# number of rings (size 3 to 8) (size 9 to 14) (size 15 to 20)
#    0.000    1.846    2.308    1.385    2.154    0.615 
#    0.000    1.538    0.000    0.000    0.000    0.000 
#    0.000    0.000    0.000    0.000    0.000    0.000 
#
# Total GULP energy -144944.560494 kJ/mol
# GULP energy per Si atom -5574.790788 kJ/mol
# Density = 2.324965 g / cm^3
# Si number density = 23.302687 Si / 1000 Ang^3
#
#
#
# Elastic Constant Matrix: (Units=GPa)
#
#
# Indices 1 2 3 4 5 6 
#
# 1 52.5433 16.5087 5.0254 0.0000 0.4218 0.0000
# 2 16.5087 171.6173 43.3427 0.0000 -1.2524 0.0000
# 3 5.0254 43.3427 69.9781 0.0000 -0.8183 0.0000
# 4 0.0000 0.0000 0.0000 29.6098 0.0000 0.1342
# 5 0.4218 -1.2524 -0.8183 0.0000 18.3140 0.0000
# 6 0.0000 0.0000 0.0000 0.1342 0.0000 26.1702
#
#
#
# Elastic Compliance Matrix: (Units=1/GPa)
#
#
# Indices 1 2 3 4 5 6 
#
# 1 0.019636 -0.001820 -0.000290 0.000000 -0.000590 0.000000
# 2 -0.001820 0.007078 -0.004249 0.000000 0.000336 0.000000
# 3 -0.000290 -0.004249 0.016948 0.000000 0.000473 0.000000
# 4 0.000000 0.000000 0.000000 0.033773 0.000000 -0.000173
# 5 -0.000590 0.000336 0.000473 0.000000 0.054661 0.000000
# 6 0.000000 0.000000 0.000000 -0.000173 0.000000 0.038212
#
#
# Mechanical properties :
#
#
# Convention : Reuss Voigt Hill
#
# Bulk Modulus (GPa) = 32.31602 47.09912 39.70757
# Shear Modulus (GPa) = 25.86107 30.10294 27.98200
#
# Velocity S-wave (km/s) = 3.33496 3.59809 3.46902
# Velocity P-wave (km/s) = 5.35979 6.12515 5.75521
#
# Compressibility (1/GPa) = 0.03094441
#
# Stress axis : x y z
#
# Youngs Moduli (GPa) = 50.92638 141.29162 59.00304
#
# Poissons Ratio (x) = 0.25715 0.01710
# Poissons Ratio (y) = 0.09269 0.25071
# Poissons Ratio (z) = 0.01476 0.60035
#
# Static dielectric constant tensor:
#      x y z
#    x 2.019850 0.000000 -0.023610 
#    y 0.000000 1.879090 0.000000 
#    z -0.023610 0.000000 1.906010 
# 
# From -- ./inp_files/130886.got.cif
#   From: 2010.05.17/outbox.cif.g08.bks.cpg/sg15_66_cif.got.tgz:130886.got - 2010.06.03 18:47:42.
