data_PCOD9266178
_publ_section_title
;
Structure prediction by ZEFSAII (Michael W. Deem and Ramdas Pophale) SiO2 
 PCOD9266178
Probable space group: C 2/C
;
_chemical_formula_sum "Si O2"
_cell_formula_units_Z 56
_cell_length_a 14.004708
_cell_length_b 6.815009
_cell_length_c 24.766440
_cell_angle_alpha 90.000000
_cell_angle_beta 69.697026
_cell_angle_gamma 90.000000
_cell_volume 2216.905336
_symmetry_space_group_name_H-M "C 2/C"
_symmetry_group_IT_number 15
_symmetry_cell_setting 'monoclinic'
loop_
_space_group_symop_operation_xyz
x,y,z
-x,y,1/2-z
-x,-y,-z
x,-y,1/2+z
1/2+x,1/2+y,z
1/2-x,1/2+y,1/2-z
1/2-x,1/2-y,-z
1/2+x,1/2-y,1/2+z
loop_
_atom_site_type_symbol
_atom_site_label
_atom_site_fract_x
_atom_site_fract_y
_atom_site_fract_z
Si Si1 0.149328 0.650477 0.250882
Si Si2 0.487987 0.515953 0.429542
Si Si3 0.125559 0.393369 0.415654
Si Si4 0.123903 0.758860 0.472288
Si Si5 0.014148 0.351726 0.635222
Si Si6 0.689362 0.091907 0.637445
Si Si7 0.806946 0.031487 0.312541
O O1 0.195573 0.524626 0.192880
O O2 0.229530 0.634280 0.284686
O O3 0.041498 0.593868 0.297860
O O4 0.134676 0.870351 0.232485
O O5 0.576412 0.681271 0.415210
O O6 0.520153 0.346109 0.466049
O O7 0.385703 0.632263 0.468036
O O8 0.482587 0.380443 0.377536
O O9 0.126766 0.522197 0.470833
O O10 0.236956 0.411220 0.368502
O O11 0.055716 0.535791 0.393545
O O12 0.211452 0.839411 0.415276
O O13 0.122969 0.451907 0.613337
O O14 0.637705 0.296273 0.666270
#
# Coordination Sequence:
#
# PCOD9266178 Si02
#       7
#     8   8   8   8   8   8   8
#     4  11  21  37  60  87 112 156 206 258 309 365
#     4  10  19  37  61  85 118 156 206 257 303 365
#     4   9  19  36  58  87 117 151 203 259 312 357
#     4   9  20  36  61  88 112 157 210 256 302 362
#     4  10  24  36  54  87 125 163 194 251 318 385
#     4  11  22  40  55  85 129 153 202 253 315 381
#     4  10  21  34  63  87 108 155 207 258 304 370
#
# _framework density 25.260439000000002
#
# number of rings (size 3 to 8) (size 9 to 14) (size 15 to 20)
#    0.000    2.000    1.429    2.571    2.000    1.714 
#    0.000    2.143    0.000    0.000    0.000    0.000 
#    0.000    0.000    0.000    0.000    0.000    0.000 
#
# Total GULP energy -156232.007789 kJ/mol
# GULP energy per Si atom -5579.714564 kJ/mol
# Density = 2.520294 g / cm^3
# Si number density = 25.260439 Si / 1000 Ang^3
#
#
#
# Elastic Constant Matrix: (Units=GPa)
#
#
# Indices 1 2 3 4 5 6 
#
# 1 35.5622 22.9469 8.4436 0.0000 -1.0429 0.0000
# 2 22.9469 164.9663 23.5656 0.0000 -10.8961 0.0000
# 3 8.4436 23.5656 78.5529 0.0000 -9.8852 0.0000
# 4 0.0000 0.0000 0.0000 39.8676 0.0000 2.9228
# 5 -1.0429 -10.8961 -9.8852 0.0000 20.1913 0.0000
# 6 0.0000 0.0000 0.0000 2.9228 0.0000 34.3901
#
#
#
# Elastic Compliance Matrix: (Units=1/GPa)
#
#
# Indices 1 2 3 4 5 6 
#
# 1 0.031293 -0.004134 -0.002345 0.000000 -0.001763 0.000000
# 2 -0.004134 0.007015 -0.001290 0.000000 0.002941 0.000000
# 3 -0.002345 -0.001290 0.014138 0.000000 0.006104 0.000000
# 4 0.000000 0.000000 0.000000 0.025240 0.000000 -0.002145
# 5 -0.001763 0.002941 0.006104 0.000000 0.054010 0.000000
# 6 0.000000 0.000000 0.000000 -0.002145 0.000000 0.029260
#
#
# Mechanical properties :
#
#
# Convention : Reuss Voigt Hill
#
# Bulk Modulus (GPa) = 27.09560 43.22151 35.15856
# Shear Modulus (GPa) = 26.48332 33.83148 30.15740
#
# Velocity S-wave (km/s) = 3.24143 3.66362 3.45897
# Velocity P-wave (km/s) = 4.97584 5.91977 5.46821
#
# Compressibility (1/GPa) = 0.03690635
#
# Stress axis : x y z
#
# Youngs Moduli (GPa) = 31.95647 142.54243 70.73361
#
# Poissons Ratio (x) = 0.58930 0.16588
# Poissons Ratio (y) = 0.13212 0.09126
# Poissons Ratio (z) = 0.07494 0.18390
#
# Static dielectric constant tensor:
#      x y z
#    x 2.125300 0.000000 0.109010 
#    y 0.000000 2.041960 0.000000 
#    z 0.109010 0.000000 2.108250 
# 
# From -- ./inp_files/315033.got.cif
#   From: 2010.05.17/outbox.cif.g08.bks.cpg/sg15_158_cif.got.tgz:315033.got - 2010.06.03 18:47:42.
