data_PCOD9266074
_publ_section_title
;
Structure prediction by ZEFSAII (Michael W. Deem and Ramdas Pophale) SiO2 
 PCOD9266074
Probable space group: C 2/C
;
_chemical_formula_sum "Si O2"
_cell_formula_units_Z 56
_cell_length_a 17.902652
_cell_length_b 11.979843
_cell_length_c 21.092402
_cell_angle_alpha 90.000000
_cell_angle_beta 134.884943
_cell_angle_gamma 90.000000
_cell_volume 3205.161418
_symmetry_space_group_name_H-M "C 2/C"
_symmetry_group_IT_number 15
_symmetry_cell_setting 'monoclinic'
loop_
_space_group_symop_operation_xyz
x,y,z
-x,y,1/2-z
-x,-y,-z
x,-y,1/2+z
1/2+x,1/2+y,z
1/2-x,1/2+y,1/2-z
1/2-x,1/2-y,-z
1/2+x,1/2-y,1/2+z
loop_
_atom_site_type_symbol
_atom_site_label
_atom_site_fract_x
_atom_site_fract_y
_atom_site_fract_z
Si Si1 0.843926 0.210298 0.385506
Si Si2 0.449115 0.032501 0.286037
Si Si3 0.374575 0.967659 0.428041
Si Si4 0.263726 0.496982 0.406769
Si Si5 0.340584 0.842936 0.820555
Si Si6 0.358864 0.093636 0.544123
Si Si7 0.411738 0.705798 0.987323
O O1 0.851581 0.337815 0.412447
O O2 0.805069 0.122657 0.416538
O O3 0.760503 0.200262 0.277897
O O4 0.963177 0.188343 0.434111
O O5 0.500000 0.069185 0.250000
O O6 0.334914 0.984594 0.200097
O O7 0.432278 0.134624 0.323938
O O8 0.524472 0.940591 0.361969
O O9 0.500000 0.000000 0.500000
O O10 0.321451 0.034167 0.338591
O O11 0.333428 0.019043 0.468160
O O12 0.216937 0.451272 0.445584
O O13 0.357216 0.412857 0.449531
O O14 0.380363 0.770993 0.903750
O O15 0.367667 0.218807 0.520119
#
# Coordination Sequence:
#
# PCOD9266074 Si02
#       7
#     8   8   8   8   8   8   8
#     4  11  22  36  59  87 114 154 194 246 295 345
#     4   9  17  33  54  80 109 145 191 239 282 338
#     4  11  19  38  62  83 108 152 201 235 291 354
#     4  10  23  34  53  89 121 148 188 245 303 335
#     4  10  21  34  58  87 113 144 195 244 279 348
#     4  10  19  37  60  81 114 153 200 237 279 359
#     4  11  21  36  58  84 117 158 193 237 293 346
#
# _framework density 17.471819
#
# number of rings (size 3 to 8) (size 9 to 14) (size 15 to 20)
#    0.000    1.714    4.286    0.857    6.000    0.571 
#    0.000    1.429    0.000    0.000    0.000    0.000 
#    0.000    0.000    0.000    0.000    0.000    0.000 
#
# Total GULP energy -155876.394467 kJ/mol
# GULP energy per Si atom -5567.014088 kJ/mol
# Density = 1.743205 g / cm^3
# Si number density = 17.471819 Si / 1000 Ang^3
#
#
#
# Elastic Constant Matrix: (Units=GPa)
#
#
# Indices 1 2 3 4 5 6 
#
# 1 29.0837 9.3290 31.6555 0.0000 -6.9751 0.0000
# 2 9.3290 98.1519 36.4360 0.0000 6.7844 0.0000
# 3 31.6555 36.4360 69.5827 0.0000 -5.1342 0.0000
# 4 0.0000 0.0000 0.0000 19.5506 0.0000 5.5688
# 5 -6.9751 6.7844 -5.1342 0.0000 31.9741 0.0000
# 6 0.0000 0.0000 0.0000 5.5688 0.0000 23.3664
#
#
#
# Elastic Compliance Matrix: (Units=1/GPa)
#
#
# Indices 1 2 3 4 5 6 
#
# 1 0.073793 0.005669 -0.035865 0.000000 0.009136 0.000000
# 2 0.005669 0.013553 -0.009914 0.000000 -0.003231 0.000000
# 3 -0.035865 -0.009914 0.035882 0.000000 0.000041 0.000000
# 4 0.000000 0.000000 0.000000 0.054875 0.000000 -0.013078
# 5 0.009136 -0.003231 0.000041 0.000000 0.033961 0.000000
# 6 0.000000 0.000000 0.000000 -0.013078 0.000000 0.045913
#
#
# Mechanical properties :
#
#
# Convention : Reuss Voigt Hill
#
# Bulk Modulus (GPa) = 23.25208 39.07326 31.16267
# Shear Modulus (GPa) = 14.18306 22.93807 18.56056
#
# Velocity S-wave (km/s) = 2.85224 3.62727 3.26285
# Velocity P-wave (km/s) = 4.91775 6.32099 5.66300
#
# Compressibility (1/GPa) = 0.04300691
#
# Stress axis : x y z
#
# Youngs Moduli (GPa) = 13.55144 73.78338 27.86910
#
# Poissons Ratio (x) = -0.41824 0.99953
# Poissons Ratio (y) = -0.07682 0.27630
# Poissons Ratio (z) = 0.48602 0.73150
#
# Static dielectric constant tensor:
#      x y z
#    x 1.665270 0.000000 -0.011200 
#    y 0.000000 1.598730 0.000000 
#    z -0.011200 0.000000 1.601830 
# 
# From -- ./inp_files/248418.got.cif
#   From: 2010.05.17/outbox.cif.g08.bks.cpg/sg15_125_cif.got.tgz:248418.got - 2010.06.03 18:47:42.
