data_PCOD9266991
_publ_section_title
;
Structure prediction by ZEFSAII (Michael W. Deem and Ramdas Pophale) SiO2 
 PCOD9266991
Probable space group: C 2/C
;
_chemical_formula_sum "Si O2"
_cell_formula_units_Z 56
_cell_length_a 20.379025
_cell_length_b 8.640956
_cell_length_c 28.957909
_cell_angle_alpha 90.000000
_cell_angle_beta 29.210335
_cell_angle_gamma 90.000000
_cell_volume 2488.556139
_symmetry_space_group_name_H-M "C 2/C"
_symmetry_group_IT_number 15
_symmetry_cell_setting 'monoclinic'
loop_
_space_group_symop_operation_xyz
x,y,z
-x,y,1/2-z
-x,-y,-z
x,-y,1/2+z
1/2+x,1/2+y,z
1/2-x,1/2+y,1/2-z
1/2-x,1/2-y,-z
1/2+x,1/2-y,1/2+z
loop_
_atom_site_type_symbol
_atom_site_label
_atom_site_fract_x
_atom_site_fract_y
_atom_site_fract_z
Si Si1 0.169828 0.874049 0.021178
Si Si2 0.446886 0.397078 0.098620
Si Si3 0.365710 0.800277 0.075584
Si Si4 0.093983 0.395270 0.999847
Si Si5 0.795206 0.295264 0.310141
Si Si6 0.972338 0.836665 0.888655
Si Si7 0.641597 0.886460 0.683607
O O1 0.257180 0.903599 0.921766
O O2 0.138009 0.042177 0.061910
O O3 0.250000 0.750000 0.000000
O O4 0.021581 0.815571 0.096156
O O5 0.299441 0.349755 0.174311
O O6 0.466993 0.572798 0.103280
O O7 0.539484 0.342057 0.998977
O O8 0.217080 0.732765 0.171374
O O9 0.363393 0.929232 0.036384
O O10 0.444039 0.880510 0.069387
O O11 0.199028 0.290921 0.905871
O O12 0.083622 0.323822 0.057036
O O13 0.863522 0.446510 0.289776
O O14 0.910693 0.186473 0.219597
O O15 0.500000 0.834949 0.750000
#
# Coordination Sequence:
#
# PCOD9266991 Si02
#       7
#     8   8   8   8   8   8   8
#     4   9  20  43  65  90 133 178 224 272 346 410
#     4   8  19  38  64  91 130 173 215 281 343 407
#     4   9  19  37  66  90 134 179 218 279 348 405
#     4  10  19  38  64 100 131 167 225 295 339 390
#     4  11  21  40  66  99 131 171 232 279 344 406
#     4  10  21  38  67  96 132 172 224 290 338 407
#     4  11  23  43  64  91 133 186 221 268 341 418
#
# _framework density 22.503008000000001
#
# number of rings (size 3 to 8) (size 9 to 14) (size 15 to 20)
#    0.857    1.429    1.429    0.857    0.000    7.429 
#   10.286    4.286    0.000    0.000    0.000    0.000 
#    0.000    0.000    0.000    0.000    0.000    0.000 
#
# Total GULP energy -156093.251077 kJ/mol
# GULP energy per Si atom -5574.758967 kJ/mol
# Density = 2.245179 g / cm^3
# Si number density = 22.503008 Si / 1000 Ang^3
#
#
#
# Elastic Constant Matrix: (Units=GPa)
#
#
# Indices 1 2 3 4 5 6 
#
# 1 52.7233 12.0139 21.3907 0.0006 -15.6615 0.0000
# 2 12.0139 67.3386 7.0667 0.0008 -10.2183 0.0005
# 3 21.3907 7.0667 84.3325 -0.0002 -13.4718 -0.0001
# 4 0.0006 0.0008 -0.0002 16.2761 -0.0003 -13.6962
# 5 -15.6615 -10.2183 -13.4718 -0.0003 22.8495 0.0000
# 6 0.0000 0.0005 -0.0001 -13.6962 0.0000 28.9330
#
#
#
# Elastic Compliance Matrix: (Units=1/GPa)
#
#
# Indices 1 2 3 4 5 6 
#
# 1 0.025202 -0.001945 -0.003984 -0.000001 0.014055 -0.000001
# 2 -0.001945 0.016085 0.000090 -0.000001 0.005913 -0.000001
# 3 -0.003984 0.000090 0.013724 0.000001 0.005401 0.000000
# 4 -0.000001 -0.000001 0.000001 0.102117 0.000000 0.048340
# 5 0.014055 0.005913 0.005401 0.000000 0.059227 0.000000
# 6 -0.000001 -0.000001 0.000000 0.048340 0.000000 0.057446
#
#
# Mechanical properties :
#
#
# Convention : Reuss Voigt Hill
#
# Bulk Modulus (GPa) = 23.07775 31.70410 27.39092
# Shear Modulus (GPa) = 16.67096 24.53992 20.60544
#
# Velocity S-wave (km/s) = 2.72478 3.30588 3.02929
# Velocity P-wave (km/s) = 4.49187 5.35642 4.94308
#
# Compressibility (1/GPa) = 0.04333179
#
# Stress axis : x y z
#
# Youngs Moduli (GPa) = 39.68003 62.16882 72.86730
#
# Poissons Ratio (x) = 0.12094 0.29031
# Poissons Ratio (y) = 0.07719 -0.00657
# Poissons Ratio (z) = 0.15809 -0.00560
#
# Static dielectric constant tensor:
#      x y z
#    x 1.911710 0.000000 -0.016480 
#    y 0.000000 1.873120 0.000000 
#    z -0.016480 0.000000 1.829890 
# 
# From -- ./inp_files/317495.got.cif
#   From: 2010.05.17/outbox.cif.g08.bks.cpg/sg15_159_cif.got.tgz:317495.got - 2010.06.03 18:47:42.
