data_PCOD9266153
_publ_section_title
;
Structure prediction by ZEFSAII (Michael W. Deem and Ramdas Pophale) SiO2 
 PCOD9266153
Probable space group: C 2/C
;
_chemical_formula_sum "Si O2"
_cell_formula_units_Z 64
_cell_length_a 29.636242
_cell_length_b 19.798222
_cell_length_c 9.586906
_cell_angle_alpha 90.000000
_cell_angle_beta 142.169439
_cell_angle_gamma 90.000000
_cell_volume 3450.014224
_symmetry_space_group_name_H-M "C 2/C"
_symmetry_group_IT_number 15
_symmetry_cell_setting 'monoclinic'
loop_
_space_group_symop_operation_xyz
x,y,z
-x,y,1/2-z
-x,-y,-z
x,-y,1/2+z
1/2+x,1/2+y,z
1/2-x,1/2+y,1/2-z
1/2-x,1/2-y,-z
1/2+x,1/2-y,1/2+z
loop_
_atom_site_type_symbol
_atom_site_label
_atom_site_fract_x
_atom_site_fract_y
_atom_site_fract_z
Si Si1 0.460056 0.096711 0.800995
Si Si2 0.443264 0.251324 0.735949
Si Si3 0.218247 0.573876 0.769367
Si Si4 0.294240 0.940912 0.929356
Si Si5 0.795192 0.827945 0.957284
Si Si6 0.789601 0.188037 0.767645
Si Si7 0.561781 0.872947 0.784175
Si Si8 0.454558 0.284734 0.281273
O O1 0.500000 0.089511 0.750000
O O2 0.433994 0.174524 0.765938
O O3 0.383043 0.058406 0.625595
O O4 0.525484 0.084929 0.070392
O O5 0.500000 0.244500 0.750000
O O6 0.368977 0.281998 0.497148
O O7 0.484455 0.295623 0.951283
O O8 0.234964 0.506991 0.721300
O O9 0.221906 0.562128 0.944447
O O10 0.268642 0.633769 0.833020
O O11 0.136144 0.597505 0.526660
O O12 0.255928 0.877758 0.757380
O O13 0.765327 0.751766 0.864064
O O14 0.788557 0.841527 0.107567
O O15 0.880638 0.828109 0.118800
O O16 0.500000 0.873327 0.750000
O O17 0.570731 0.794119 0.764065
O O18 0.500000 0.292337 0.250000
#
# Coordination Sequence:
#
# PCOD9266153 Si02
#       8
#     8   8   8   8   8   8   8   8
#     4  10  22  35  62  91 128 168 207 250 300 378
#     4  10  19  37  60  95 127 161 204 254 315 368
#     4  12  27  43  63  87 128 174 214 262 314 370
#     4  12  27  44  60  90 127 173 216 260 314 374
#     4  11  23  40  64  97 127 165 210 259 313 373
#     4  11  23  39  67  94 127 166 210 261 312 370
#     4  10  20  39  58  90 129 167 210 249 304 368
#     4  10  21  35  62  94 130 160 199 261 312 369
#
# _framework density 18.550649
#
# number of rings (size 3 to 8) (size 9 to 14) (size 15 to 20)
#    0.000    1.250    5.000    0.750    5.250    1.500 
#    0.000    0.000    0.000    1.500    0.000    0.000 
#    0.000    0.000    0.000    0.000    0.000    0.000 
#
# Total GULP energy -178635.424138 kJ/mol
# GULP energy per Si atom -5582.357004 kJ/mol
# Density = 1.850843 g / cm^3
# Si number density = 18.550649 Si / 1000 Ang^3
#
#
#
# Elastic Constant Matrix: (Units=GPa)
#
#
# Indices 1 2 3 4 5 6 
#
# 1 73.0061 27.1480 35.0470 0.0000 -3.5577 0.0000
# 2 27.1480 50.5591 10.5413 0.0000 -6.9080 0.0000
# 3 35.0470 10.5413 101.6405 0.0000 -14.2335 0.0000
# 4 0.0000 0.0000 0.0000 35.1458 0.0000 23.9670
# 5 -3.5577 -6.9080 -14.2335 0.0000 36.5739 0.0000
# 6 0.0000 0.0000 0.0000 23.9670 0.0000 82.9214
#
#
#
# Elastic Compliance Matrix: (Units=1/GPa)
#
#
# Indices 1 2 3 4 5 6 
#
# 1 0.020288 -0.009902 -0.006297 0.000000 -0.002348 0.000000
# 2 -0.009902 0.025403 0.001393 0.000000 0.004377 0.000000
# 3 -0.006297 0.001393 0.012498 0.000000 0.004514 0.000000
# 4 0.000000 0.000000 0.000000 0.035438 0.000000 -0.010243
# 5 -0.002348 0.004377 0.004514 0.000000 0.029697 0.000000
# 6 0.000000 0.000000 0.000000 -0.010243 0.000000 0.015020
#
#
# Mechanical properties :
#
#
# Convention : Reuss Voigt Hill
#
# Bulk Modulus (GPa) = 34.99424 41.18648 38.09036
# Shear Modulus (GPa) = 28.17176 41.09285 34.63231
#
# Velocity S-wave (km/s) = 3.90120 4.71167 4.32546
# Velocity P-wave (km/s) = 6.26080 7.20070 6.74714
#
# Compressibility (1/GPa) = 0.02857613
#
# Stress axis : x y z
#
# Youngs Moduli (GPa) = 49.28956 39.36502 80.01408
#
# Poissons Ratio (x) = 0.38978 0.50389
# Poissons Ratio (y) = 0.48805 -0.11142
# Poissons Ratio (z) = 0.31040 -0.05482
#
# Static dielectric constant tensor:
#      x y z
#    x 1.610100 0.000000 0.009450 
#    y 0.000000 1.669780 0.000000 
#    z 0.009450 0.000000 1.647350 
# 
# From -- ./inp_files/70604.got.cif
#   From: 2010.05.17/outbox.cif.g08.bks.cpg/sg15_36_cif.got.tgz:70604.got - 2010.06.03 18:47:42.
