data_PCOD9266278
_publ_section_title
;
Structure prediction by ZEFSAII (Michael W. Deem and Ramdas Pophale) SiO2 
 PCOD9266278
Probable space group: C 2/C
;
_chemical_formula_sum "Si O2"
_cell_formula_units_Z 64
_cell_length_a 16.134856
_cell_length_b 18.191138
_cell_length_c 18.008738
_cell_angle_alpha 90.000000
_cell_angle_beta 38.192068
_cell_angle_gamma 90.000000
_cell_volume 3268.189306
_symmetry_space_group_name_H-M "C 2/C"
_symmetry_group_IT_number 15
_symmetry_cell_setting 'monoclinic'
loop_
_space_group_symop_operation_xyz
x,y,z
-x,y,1/2-z
-x,-y,-z
x,-y,1/2+z
1/2+x,1/2+y,z
1/2-x,1/2+y,1/2-z
1/2-x,1/2-y,-z
1/2+x,1/2-y,1/2+z
loop_
_atom_site_type_symbol
_atom_site_label
_atom_site_fract_x
_atom_site_fract_y
_atom_site_fract_z
Si Si1 0.182771 0.447062 0.409221
Si Si2 0.987869 0.915215 0.480057
Si Si3 0.158817 0.289774 0.626602
Si Si4 0.280325 0.695464 0.197432
Si Si5 0.793503 0.064805 0.985112
Si Si6 0.643536 0.035009 0.683226
Si Si7 0.783013 0.651089 0.757680
Si Si8 0.623960 0.937387 0.837562
O O1 0.289510 0.432884 0.398943
O O2 0.175653 0.387142 0.349041
O O3 0.197112 0.523291 0.354738
O O4 0.034514 0.450627 0.548581
O O5 0.894798 0.864516 0.598552
O O6 0.923084 0.915550 0.442801
O O7 0.129225 0.873989 0.376089
O O8 0.000000 0.000000 0.500000
O O9 0.250000 0.250000 0.500000
O O10 0.231661 0.273174 0.652758
O O11 0.181305 0.375812 0.590927
O O12 0.000000 0.273701 0.750000
O O13 0.309638 0.763025 0.230093
O O14 0.156142 0.647744 0.314222
O O15 0.749007 0.984326 0.044916
O O16 0.500000 0.021741 0.750000
O O17 0.645965 0.112808 0.722551
O O18 0.674363 0.977172 0.727551
#
# Coordination Sequence:
#
# PCOD9266278 Si02
#       8
#     8   8   8   8   8   8   8   8
#     4  10  21  35  60  95 119 154 209 264 308 372
#     4  11  22  42  64  89 124 170 211 250 321 391
#     4  11  23  36  58  91 131 168 208 260 330 399
#     4  11  24  39  63  84 128 172 200 258 329 388
#     4  11  20  37  62  90 120 167 203 260 313 387
#     4  11  19  39  67  90 117 168 216 258 308 383
#     4  11  25  39  59  93 129 163 207 259 318 387
#     4  10  19  37  62  90 120 155 211 261 314 373
#
# _framework density 19.582708
#
# number of rings (size 3 to 8) (size 9 to 14) (size 15 to 20)
#    0.000    1.250    5.000    2.625    5.250    0.500 
#    0.000    0.000    2.750    1.500    0.000    0.000 
#    0.000    0.000    0.000    0.000    0.000    0.000 
#
# Total GULP energy -178509.191554 kJ/mol
# GULP energy per Si atom -5578.412236 kJ/mol
# Density = 1.953814 g / cm^3
# Si number density = 19.582708 Si / 1000 Ang^3
#
#
#
# Elastic Constant Matrix: (Units=GPa)
#
#
# Indices 1 2 3 4 5 6 
#
# 1 60.1455 16.0998 11.7818 0.0001 3.1654 0.0001
# 2 16.0998 107.1559 17.7301 0.0001 8.3095 0.0000
# 3 11.7818 17.7301 56.5829 0.0004 -3.8286 0.0000
# 4 0.0001 0.0001 0.0004 28.4078 -0.0001 7.6698
# 5 3.1654 8.3095 -3.8286 -0.0001 21.9391 -0.0001
# 6 0.0001 0.0000 0.0000 7.6698 -0.0001 22.9251
#
#
#
# Elastic Compliance Matrix: (Units=1/GPa)
#
#
# Indices 1 2 3 4 5 6 
#
# 1 0.017921 -0.001963 -0.003280 0.000000 -0.002415 0.000000
# 2 -0.001963 0.010479 -0.003162 0.000000 -0.004237 0.000000
# 3 -0.003280 -0.003162 0.019692 0.000000 0.005107 0.000000
# 4 0.000000 0.000000 0.000000 0.038697 0.000000 -0.012946
# 5 -0.002415 -0.004237 0.005107 0.000000 0.048425 0.000000
# 6 0.000000 0.000000 0.000000 -0.012946 0.000000 0.047952
#
#
# Mechanical properties :
#
#
# Convention : Reuss Voigt Hill
#
# Bulk Modulus (GPa) = 31.96515 35.01196 33.48856
# Shear Modulus (GPa) = 23.76394 26.53925 25.15159
#
# Velocity S-wave (km/s) = 3.48734 3.68535 3.58771
# Velocity P-wave (km/s) = 5.70736 6.00224 5.85666
#
# Compressibility (1/GPa) = 0.03128407
#
# Stress axis : x y z
#
# Youngs Moduli (GPa) = 55.79948 95.43088 50.78108
#
# Poissons Ratio (x) = 0.18730 0.16656
# Poissons Ratio (y) = 0.10952 0.16055
# Poissons Ratio (z) = 0.18302 0.30171
#
# Static dielectric constant tensor:
#      x y z
#    x 1.697850 0.000000 0.006730 
#    y 0.000000 1.728280 0.000000 
#    z 0.006730 0.000000 1.758400 
# 
# From -- ./inp_files/206449.got.cif
#   From: 2010.05.17/outbox.cif.g08.bks.cpg/sg15_104_cif.got.tgz:206449.got - 2010.06.03 18:47:42.
