data_PCOD9266330
_publ_section_title
;
Structure prediction by ZEFSAII (Michael W. Deem and Ramdas Pophale) SiO2 
 PCOD9266330
Probable space group: C 2/C
;
_chemical_formula_sum "Si O2"
_cell_formula_units_Z 52
_cell_length_a 29.063279
_cell_length_b 14.744657
_cell_length_c 18.055812
_cell_angle_alpha 90.000000
_cell_angle_beta 160.653019
_cell_angle_gamma 90.000000
_cell_volume 2563.316547
_symmetry_space_group_name_H-M "C 2/C"
_symmetry_group_IT_number 15
_symmetry_cell_setting 'monoclinic'
loop_
_space_group_symop_operation_xyz
x,y,z
-x,y,1/2-z
-x,-y,-z
x,-y,1/2+z
1/2+x,1/2+y,z
1/2-x,1/2+y,1/2-z
1/2-x,1/2-y,-z
1/2+x,1/2-y,1/2+z
loop_
_atom_site_type_symbol
_atom_site_label
_atom_site_fract_x
_atom_site_fract_y
_atom_site_fract_z
Si Si1 0.207011 0.180214 0.534333
Si Si2 0.164472 0.507874 0.264103
Si Si3 0.574893 0.704333 0.483630
Si Si4 0.500000 0.235100 0.250000
Si Si5 0.371334 0.821174 0.697062
Si Si6 0.940178 0.811601 0.923668
Si Si7 0.712349 0.638396 0.163671
O O1 0.177407 0.164036 0.577348
O O2 0.309594 0.264877 0.685720
O O3 0.069003 0.204478 0.280103
O O4 0.275830 0.086229 0.615383
O O5 0.183266 0.586580 0.352831
O O6 0.242980 0.547266 0.310594
O O7 0.000000 0.500000 0.000000
O O8 0.541805 0.655757 0.511923
O O9 0.648080 0.801520 0.610874
O O10 0.556117 0.171267 0.271172
O O11 0.616244 0.300483 0.463047
O O12 0.250000 0.750000 0.500000
O O13 0.478774 0.772066 0.915015
O O14 0.876834 0.870278 0.895385
#
# Coordination Sequence:
#
# PCOD9266330 Si02
#       7
#     8   8   8   4   8   8   8
#     4  10  22  35  62  89 124 157 196 255 304 355
#     4  12  22  40  60  91 124 157 199 252 317 350
#     4  10  19  39  58  89 121 160 203 239 298 366
#     4  10  20  36  62  90 116 152 214 244 282 352
#     4  11  20  37  62  90 116 160 207 246 290 365
#     4  10  19  37  63  88 113 164 210 245 284 363
#     4  10  21  36  65  92 116 159 211 245 290 372
#
# _framework density 20.286218999999999
#
# number of rings (size 3 to 8) (size 9 to 14) (size 15 to 20)
#    0.000    1.538    4.615    0.462    0.000    1.231 
#    0.000    2.308    0.000    1.846    0.000    0.000 
#    0.000    0.000    0.000    0.000    0.000    0.000 
#
# Total GULP energy -144945.101975 kJ/mol
# GULP energy per Si atom -5574.811614 kJ/mol
# Density = 2.024005 g / cm^3
# Si number density = 20.286219 Si / 1000 Ang^3
#
#
#
# Elastic Constant Matrix: (Units=GPa)
#
#
# Indices 1 2 3 4 5 6 
#
# 1 154.6344 -0.3719 -18.7496 0.0000 3.7573 0.0000
# 2 -0.3719 37.4774 11.2689 0.0000 -2.5458 0.0000
# 3 -18.7496 11.2689 62.8644 0.0000 -2.7059 0.0000
# 4 0.0000 0.0000 0.0000 15.0697 0.0000 1.8757
# 5 3.7573 -2.5458 -2.7059 0.0000 24.0389 0.0000
# 6 0.0000 0.0000 0.0000 1.8757 0.0000 29.5874
#
#
#
# Elastic Compliance Matrix: (Units=1/GPa)
#
#
# Indices 1 2 3 4 5 6 
#
# 1 0.006739 -0.000620 0.002083 0.000000 -0.000885 0.000000
# 2 -0.000620 0.028402 -0.005167 0.000000 0.002523 0.000000
# 3 0.002083 -0.005167 0.017502 0.000000 0.001097 0.000000
# 4 0.000000 0.000000 0.000000 0.066886 0.000000 -0.004240
# 5 -0.000885 0.002523 0.001097 0.000000 0.042128 0.000000
# 6 0.000000 0.000000 0.000000 -0.004240 0.000000 0.034067
#
#
# Mechanical properties :
#
#
# Convention : Reuss Voigt Hill
#
# Bulk Modulus (GPa) = 22.10654 26.58566 24.34610
# Shear Modulus (GPa) = 22.91359 31.26111 27.08735
#
# Velocity S-wave (km/s) = 3.36447 3.92982 3.65808
# Velocity P-wave (km/s) = 5.10038 5.80733 5.46530
#
# Compressibility (1/GPa) = 0.04523548
#
# Stress axis : x y z
#
# Youngs Moduli (GPa) = 148.38027 35.20913 57.13613
#
# Poissons Ratio (x) = 0.02181 -0.11902
# Poissons Ratio (y) = 0.09193 0.29524
# Poissons Ratio (z) = -0.30908 0.18194
#
# Static dielectric constant tensor:
#      x y z
#    x 1.824130 0.000000 0.031900 
#    y 0.000000 1.677990 0.000000 
#    z 0.031900 0.000000 1.724930 
# 
# From -- ./inp_files/225539.got.cif
#   From: 2010.05.17/outbox.cif.g08.bks.cpg/sg15_113_cif.got.tgz:225539.got - 2010.06.03 18:47:42.
