data_PCOD9266378
_publ_section_title
;
Structure prediction by ZEFSAII (Michael W. Deem and Ramdas Pophale) SiO2 
 PCOD9266378
Probable space group: C 2/C
;
_chemical_formula_sum "Si O2"
_cell_formula_units_Z 60
_cell_length_a 12.386504
_cell_length_b 23.600546
_cell_length_c 21.286373
_cell_angle_alpha 90.000000
_cell_angle_beta 152.731014
_cell_angle_gamma 90.000000
_cell_volume 2851.003011
_symmetry_space_group_name_H-M "C 2/C"
_symmetry_group_IT_number 15
_symmetry_cell_setting 'monoclinic'
loop_
_space_group_symop_operation_xyz
x,y,z
-x,y,1/2-z
-x,-y,-z
x,-y,1/2+z
1/2+x,1/2+y,z
1/2-x,1/2+y,1/2-z
1/2-x,1/2-y,-z
1/2+x,1/2-y,1/2+z
loop_
_atom_site_type_symbol
_atom_site_label
_atom_site_fract_x
_atom_site_fract_y
_atom_site_fract_z
Si Si1 0.188502 0.415312 0.215470
Si Si2 0.226629 0.337231 0.449838
Si Si3 0.135126 0.642778 0.410144
Si Si4 0.036932 0.896930 0.511167
Si Si5 0.288745 0.286222 0.754201
Si Si6 0.072878 0.818378 0.218844
Si Si7 0.000000 0.243584 0.250000
Si Si8 0.902613 0.524978 0.266294
O O1 0.398232 0.413163 0.376185
O O2 0.293070 0.379419 0.211432
O O3 0.121120 0.480880 0.189329
O O4 0.955892 0.379468 0.112539
O O5 0.336316 0.368628 0.447473
O O6 0.454364 0.314555 0.603843
O O7 0.092231 0.283583 0.352862
O O8 0.259566 0.647027 0.405923
O O9 0.331164 0.668771 0.557277
O O10 0.898704 0.672612 0.310106
O O11 0.074741 0.575651 0.377059
O O12 0.162033 0.945119 0.617533
O O13 0.225653 0.226874 0.757191
O O14 0.280778 0.284770 0.673436
O O15 0.000000 0.797746 0.250000
O O16 0.000000 0.499302 0.250000
#
# Coordination Sequence:
#
# PCOD9266378 Si02
#       8
#     8   8   8   8   8   8   4   8
#     4  11  22  40  60  97 129 165 206 253 321 368
#     4  12  22  38  61  93 128 163 204 254 310 377
#     4  10  23  42  59  98 123 160 214 260 311 367
#     4  10  19  37  63  94 134 158 202 259 314 369
#     4  12  26  40  65  92 125 168 210 255 316 371
#     4  11  26  43  66  88 124 168 212 258 311 374
#     4  12  24  42  60  90 130 164 204 260 308 372
#     4  10  20  36  67  96 127 163 204 263 312 368
#
# _framework density 21.045224999999999
#
# number of rings (size 3 to 8) (size 9 to 14) (size 15 to 20)
#    0.000    1.067    4.000    2.800    3.733    2.133 
#    0.000    0.667    1.467    0.000    0.000    0.000 
#    0.000    0.000    0.000    0.000    0.000    0.000 
#
# Total GULP energy -167058.051492 kJ/mol
# GULP energy per Si atom -5568.601716 kJ/mol
# Density = 2.099733 g / cm^3
# Si number density = 21.045225 Si / 1000 Ang^3
#
#
#
# Elastic Constant Matrix: (Units=GPa)
#
#
# Indices 1 2 3 4 5 6 
#
# 1 118.2978 33.8180 9.8490 -0.0123 18.8208 -0.0034
# 2 33.8180 67.9483 20.4174 0.0002 6.5160 -0.0018
# 3 9.8490 20.4174 81.8007 -0.0164 21.1169 -0.0200
# 4 -0.0123 0.0002 -0.0164 9.4885 -0.0074 -4.8554
# 5 18.8208 6.5160 21.1169 -0.0074 27.6046 -0.0022
# 6 -0.0034 -0.0018 -0.0200 -4.8554 -0.0022 22.4640
#
#
#
# Elastic Compliance Matrix: (Units=1/GPa)
#
#
# Indices 1 2 3 4 5 6 
#
# 1 0.011064 -0.005365 0.002028 0.000015 -0.007828 0.000005
# 2 -0.005365 0.018530 -0.004728 -0.000017 0.002901 -0.000007
# 3 0.002028 -0.004728 0.016485 0.000031 -0.012877 0.000020
# 4 0.000015 -0.000017 0.000031 0.118496 0.000004 0.025612
# 5 -0.007828 0.002901 -0.012877 0.000004 0.050729 -0.000007
# 6 0.000005 -0.000007 0.000020 0.025612 -0.000007 0.050052
#
#
# Mechanical properties :
#
#
# Convention : Reuss Voigt Hill
#
# Bulk Modulus (GPa) = 33.39100 44.02395 38.70747
# Shear Modulus (GPa) = 17.15454 25.50893 21.33173
#
# Velocity S-wave (km/s) = 2.85814 3.48530 3.18718
# Velocity P-wave (km/s) = 5.17617 6.09595 5.65479
#
# Compressibility (1/GPa) = 0.02994819
#
# Stress axis : x y z
#
# Youngs Moduli (GPa) = 90.38716 53.96738 60.66116
#
# Poissons Ratio (x) = 0.28953 -0.12301
# Poissons Ratio (y) = 0.48493 0.28680
# Poissons Ratio (z) = -0.18329 0.25515
#
# Static dielectric constant tensor:
#      x y z
#    x 1.842950 0.000000 -0.006410 
#    y 0.000000 1.820860 -0.000010 
#    z -0.006410 -0.000010 1.875040 
# 
# From -- ./inp_files/92080.got.cif
#   From: 2010.05.17/outbox.cif.g08.bks.cpg/sg15_47_cif.got.tgz:92080.got - 2010.06.03 18:47:42.
