data_PCOD9266527
_publ_section_title
;
Structure prediction by ZEFSAII (Michael W. Deem and Ramdas Pophale) SiO2 
 PCOD9266527
Probable space group: C 2/C
;
_chemical_formula_sum "Si O2"
_cell_formula_units_Z 52
_cell_length_a 11.763030
_cell_length_b 17.217977
_cell_length_c 14.643622
_cell_angle_alpha 90.000000
_cell_angle_beta 112.878616
_cell_angle_gamma 90.000000
_cell_volume 2732.532396
_symmetry_space_group_name_H-M "C 2/C"
_symmetry_group_IT_number 15
_symmetry_cell_setting 'monoclinic'
loop_
_space_group_symop_operation_xyz
x,y,z
-x,y,1/2-z
-x,-y,-z
x,-y,1/2+z
1/2+x,1/2+y,z
1/2-x,1/2+y,1/2-z
1/2-x,1/2-y,-z
1/2+x,1/2-y,1/2+z
loop_
_atom_site_type_symbol
_atom_site_label
_atom_site_fract_x
_atom_site_fract_y
_atom_site_fract_z
Si Si1 0.877033 0.215308 0.498645
Si Si2 0.040318 0.322295 0.661656
Si Si3 0.500000 0.551369 0.250000
Si Si4 0.998384 0.498059 0.109773
Si Si5 0.798607 0.857275 0.792900
Si Si6 0.792121 0.525895 0.684278
Si Si7 0.488453 0.442982 0.410265
O O1 0.750000 0.250000 0.500000
O O2 0.856914 0.198867 0.385888
O O3 0.978549 0.276752 0.560597
O O4 0.929683 0.133693 0.553704
O O5 0.186674 0.317508 0.706481
O O6 0.000000 0.293463 0.750000
O O7 0.001068 0.411819 0.640865
O O8 0.606407 0.606229 0.247058
O O9 0.538209 0.493967 0.342457
O O10 0.877807 0.461144 0.121636
O O11 0.119852 0.462977 0.199008
O O12 0.000000 0.500000 0.000000
O O13 0.744650 0.934076 0.827200
O O14 0.660232 0.569683 0.647888
O O15 0.500000 0.500000 0.500000
#
# Coordination Sequence:
#
# PCOD9266527 Si02
#       7
#     8   8   4   8   8   8   8
#     4  12  23  40  67  94 131 168 221 274 337 405
#     4  11  21  40  61  91 126 167 213 273 331 392
#     4  10  22  40  68  94 134 174 218 278 336 386
#     4  10  19  37  66  92 125 177 219 270 335 397
#     4  10  20  43  61  89 132 174 206 277 340 391
#     4   9  18  38  59  89 135 159 216 277 323 386
#     4  11  23  39  65 101 129 171 224 283 335 393
#
# _framework density 19.029966999999999
#
# number of rings (size 3 to 8) (size 9 to 14) (size 15 to 20)
#    0.000    1.538    7.692    0.000    1.077    3.692 
#    2.769    0.769    0.000    0.000    0.000    0.000 
#    0.000    0.000    0.000    0.000    0.000    0.000 
#
# Total GULP energy -144932.934689 kJ/mol
# GULP energy per Si atom -5574.343642 kJ/mol
# Density = 1.898665 g / cm^3
# Si number density = 19.029967 Si / 1000 Ang^3
#
#
#
# Elastic Constant Matrix: (Units=GPa)
#
#
# Indices 1 2 3 4 5 6 
#
# 1 135.0168 41.7543 71.5701 0.0000 12.5239 0.0000
# 2 41.7543 58.1343 30.8562 0.0000 15.6281 0.0000
# 3 71.5701 30.8562 114.2370 0.0000 6.0546 0.0000
# 4 0.0000 0.0000 0.0000 47.5983 0.0000 -1.4823
# 5 12.5239 15.6281 6.0546 0.0000 38.7615 0.0000
# 6 0.0000 0.0000 0.0000 -1.4823 0.0000 42.5484
#
#
#
# Elastic Compliance Matrix: (Units=1/GPa)
#
#
# Indices 1 2 3 4 5 6 
#
# 1 0.012514 -0.005387 -0.006338 0.000000 -0.000881 0.000000
# 2 -0.005387 0.024687 -0.002882 0.000000 -0.007763 0.000000
# 3 -0.006338 -0.002882 0.013444 0.000000 0.001110 0.000000
# 4 0.000000 0.000000 0.000000 0.021032 0.000000 0.000733
# 5 -0.000881 -0.007763 0.001110 0.000000 0.029040 0.000000
# 6 0.000000 0.000000 0.000000 0.000733 0.000000 0.023528
#
#
# Mechanical properties :
#
#
# Convention : Reuss Voigt Hill
#
# Bulk Modulus (GPa) = 46.66071 66.19436 56.42754
# Shear Modulus (GPa) = 31.13261 36.66215 33.89738
#
# Velocity S-wave (km/s) = 4.04911 4.39401 4.22508
# Velocity P-wave (km/s) = 6.81419 7.78478 7.31560
#
# Compressibility (1/GPa) = 0.02143131
#
# Stress axis : x y z
#
# Youngs Moduli (GPa) = 79.91062 40.50709 74.38095
#
# Poissons Ratio (x) = 0.21821 0.47145
# Poissons Ratio (y) = 0.43047 0.21435
# Poissons Ratio (z) = 0.50650 0.11673
#
# Static dielectric constant tensor:
#      x y z
#    x 1.707990 0.000000 0.023610 
#    y 0.000000 1.660870 0.000000 
#    z 0.023610 0.000000 1.675750 
# 
# From -- ./inp_files/144151.got.cif
#   From: 2010.05.17/outbox.cif.g08.bks.cpg/sg15_73_cif.got.tgz:144151.got - 2010.06.03 18:47:42.
