data_PCOD9266532
_publ_section_title
;
Structure prediction by ZEFSAII (Michael W. Deem and Ramdas Pophale) SiO2 
 PCOD9266532
Probable space group: C 2/C
;
_chemical_formula_sum "Si O2"
_cell_formula_units_Z 52
_cell_length_a 11.872375
_cell_length_b 14.241178
_cell_length_c 14.363819
_cell_angle_alpha 90.000000
_cell_angle_beta 108.930339
_cell_angle_gamma 90.000000
_cell_volume 2297.232560
_symmetry_space_group_name_H-M "C 2/C"
_symmetry_group_IT_number 15
_symmetry_cell_setting 'monoclinic'
loop_
_space_group_symop_operation_xyz
x,y,z
-x,y,1/2-z
-x,-y,-z
x,-y,1/2+z
1/2+x,1/2+y,z
1/2-x,1/2+y,1/2-z
1/2-x,1/2-y,-z
1/2+x,1/2-y,1/2+z
loop_
_atom_site_type_symbol
_atom_site_label
_atom_site_fract_x
_atom_site_fract_y
_atom_site_fract_z
Si Si1 0.634605 0.680290 0.302270
Si Si2 0.045305 0.255682 0.920267
Si Si3 0.756387 0.566530 0.806411
Si Si4 0.500000 0.610058 0.750000
Si Si5 0.644682 0.905315 0.553970
Si Si6 0.779688 0.783430 0.873501
Si Si7 0.880673 0.596929 0.665529
O O1 0.500000 0.647825 0.250000
O O2 0.722002 0.636730 0.401483
O O3 0.700331 0.668197 0.220054
O O4 0.624477 0.789931 0.327472
O O5 0.986825 0.179782 0.835216
O O6 0.153817 0.302635 0.889996
O O7 0.950019 0.330127 0.932315
O O8 0.113238 0.204914 0.024303
O O9 0.619071 0.550867 0.793912
O O10 0.846047 0.498228 0.882202
O O11 0.780866 0.672404 0.847842
O O12 0.774459 0.559769 0.700990
O O13 0.620165 0.929600 0.441180
O O14 0.000000 0.566484 0.750000
#
# Coordination Sequence:
#
# PCOD9266532 Si02
#       7
#     8   8   8   4   8   8   8
#     4  10  21  38  63  90 125 164 226 266 314 393
#     4  10  19  37  66  94 118 169 231 263 322 394
#     4  10  23  42  60  91 138 169 210 268 342 391
#     4  10  22  44  66  88 134 180 218 270 326 390
#     4  12  23  38  66  97 126 174 219 273 323 398
#     4   9  20  40  63  92 127 170 212 280 326 390
#     4  10  22  42  63  89 127 170 207 272 335 387
#
# _framework density 22.635930999999999
#
# number of rings (size 3 to 8) (size 9 to 14) (size 15 to 20)
#    0.000    1.846    0.000    6.000    1.077    3.692 
#   15.231    0.769    0.000    0.000    0.000    0.000 
#    0.000    0.000    0.000    0.000    0.000    0.000 
#
# Total GULP energy -145434.976944 kJ/mol
# GULP energy per Si atom -5593.652959 kJ/mol
# Density = 2.258441 g / cm^3
# Si number density = 22.635931 Si / 1000 Ang^3
#
#
#
# Elastic Constant Matrix: (Units=GPa)
#
#
# Indices 1 2 3 4 5 6 
#
# 1 96.8769 33.0530 51.6857 0.0000 3.1074 0.0000
# 2 33.0530 43.8563 23.6554 0.0000 0.1512 0.0000
# 3 51.6857 23.6554 125.4835 0.0000 13.4386 0.0000
# 4 0.0000 0.0000 0.0000 17.7613 0.0000 7.0578
# 5 3.1074 0.1512 13.4386 0.0000 32.3179 0.0000
# 6 0.0000 0.0000 0.0000 7.0578 0.0000 17.7148
#
#
#
# Elastic Compliance Matrix: (Units=1/GPa)
#
#
# Indices 1 2 3 4 5 6 
#
# 1 0.016191 -0.009547 -0.004927 0.000000 0.000536 0.000000
# 2 -0.009547 0.031131 -0.002113 0.000000 0.001651 0.000000
# 3 -0.004927 -0.002113 0.010827 0.000000 -0.004019 0.000000
# 4 0.000000 0.000000 0.000000 0.066893 0.000000 -0.026651
# 5 0.000536 0.001651 -0.004019 0.000000 0.032554 0.000000
# 6 0.000000 0.000000 0.000000 -0.026651 0.000000 0.067068
#
#
# Mechanical properties :
#
#
# Convention : Reuss Voigt Hill
#
# Bulk Modulus (GPa) = 40.03905 53.66721 46.85313
# Shear Modulus (GPa) = 18.78546 24.08030 21.43288
#
# Velocity S-wave (km/s) = 2.88392 3.26515 3.08043
# Velocity P-wave (km/s) = 5.36805 6.16240 5.77889
#
# Compressibility (1/GPa) = 0.02497562
#
# Stress axis : x y z
#
# Youngs Moduli (GPa) = 61.76288 32.12217 92.36053
#
# Poissons Ratio (x) = 0.30667 0.45503
# Poissons Ratio (y) = 0.58966 0.19517
# Poissons Ratio (z) = 0.30428 0.06788
#
# Static dielectric constant tensor:
#      x y z
#    x 1.872530 0.000000 -0.009000 
#    y 0.000000 1.862860 0.000000 
#    z -0.009000 0.000000 1.811480 
# 
# From -- ./inp_files/144316.got.cif
#   From: 2010.05.17/outbox.cif.g08.bks.cpg/sg15_73_cif.got.tgz:144316.got - 2010.06.03 18:47:42.
