data_PCOD9266291
_publ_section_title
;
Structure prediction by ZEFSAII (Michael W. Deem and Ramdas Pophale) SiO2 
 PCOD9266291
Probable space group: C 2/C
;
_chemical_formula_sum "Si O2"
_cell_formula_units_Z 44
_cell_length_a 21.132463
_cell_length_b 9.842040
_cell_length_c 13.801569
_cell_angle_alpha 90.000000
_cell_angle_beta 51.591862
_cell_angle_gamma 90.000000
_cell_volume 2249.370665
_symmetry_space_group_name_H-M "C 2/C"
_symmetry_group_IT_number 15
_symmetry_cell_setting 'monoclinic'
loop_
_space_group_symop_operation_xyz
x,y,z
-x,y,1/2-z
-x,-y,-z
x,-y,1/2+z
1/2+x,1/2+y,z
1/2-x,1/2+y,1/2-z
1/2-x,1/2-y,-z
1/2+x,1/2-y,1/2+z
loop_
_atom_site_type_symbol
_atom_site_label
_atom_site_fract_x
_atom_site_fract_y
_atom_site_fract_z
Si Si1 0.038746 0.629176 0.014231
Si Si2 0.229120 0.339990 0.349923
Si Si3 0.058823 0.898153 0.887967
Si Si4 0.136667 0.031213 0.639086
Si Si5 0.786897 0.970466 0.633454
Si Si6 0.500000 0.752131 0.750000
O O1 0.133771 0.629324 0.954727
O O2 0.030561 0.749170 0.942973
O O3 0.000000 0.500000 0.000000
O O4 0.993219 0.664806 0.157264
O O5 0.288187 0.418325 0.367417
O O6 0.252814 0.180029 0.340741
O O7 0.243589 0.406243 0.229835
O O8 0.142163 0.924778 0.862870
O O9 0.079149 0.933474 0.757842
O O10 0.000000 0.000000 0.000000
O O11 0.174933 0.978884 0.503262
O O12 0.078541 0.156452 0.666907
#
# Coordination Sequence:
#
# PCOD9266291 Si02
#       6
#     8   8   8   8   8   4
#     4  11  25  41  60  96 135 163 210 262 336 384
#     4  10  23  38  61  91 124 168 207 262 316 381
#     4  10  19  37  62  92 117 163 219 262 306 375
#     4  11  20  38  68  91 118 165 229 254 304 385
#     4  10  21  37  59  89 121 161 211 260 317 372
#     4  12  22  40  70  92 120 176 210 264 320 378
#
# _framework density 19.561025999999998
#
# number of rings (size 3 to 8) (size 9 to 14) (size 15 to 20)
#    0.000    1.455    5.455    0.545    2.545    0.000 
#    0.000   12.727    0.000    0.000    0.000    0.000 
#    0.000    0.000    0.000    0.000    0.000    0.000 
#
# Total GULP energy -122569.567377 kJ/mol
# GULP energy per Si atom -5571.343972 kJ/mol
# Density = 1.951650 g / cm^3
# Si number density = 19.561026 Si / 1000 Ang^3
#
#
#
# Elastic Constant Matrix: (Units=GPa)
#
#
# Indices 1 2 3 4 5 6 
#
# 1 44.6305 10.6855 -6.8396 0.0000 2.2534 0.0000
# 2 10.6855 90.8328 40.6619 0.0000 1.8920 0.0000
# 3 -6.8396 40.6619 145.2908 0.0000 14.9665 0.0000
# 4 0.0000 0.0000 0.0000 28.6099 0.0000 7.8961
# 5 2.2534 1.8920 14.9665 0.0000 28.5876 0.0000
# 6 0.0000 0.0000 0.0000 7.8961 0.0000 23.6411
#
#
#
# Elastic Compliance Matrix: (Units=1/GPa)
#
#
# Indices 1 2 3 4 5 6 
#
# 1 0.023866 -0.003870 0.002509 0.000000 -0.002939 0.000000
# 2 -0.003870 0.013244 -0.004048 0.000000 0.001548 0.000000
# 3 0.002509 -0.004048 0.008590 0.000000 -0.004427 0.000000
# 4 0.000000 0.000000 0.000000 0.038502 0.000000 -0.012860
# 5 -0.002939 0.001548 -0.004427 0.000000 0.037427 0.000000
# 6 0.000000 0.000000 0.000000 -0.012860 0.000000 0.046594
#
#
# Mechanical properties :
#
#
# Convention : Reuss Voigt Hill
#
# Bulk Modulus (GPa) = 28.66767 41.08552 34.87659
# Shear Modulus (GPa) = 26.22357 31.91747 29.07052
#
# Velocity S-wave (km/s) = 3.66540 4.04380 3.85924
# Velocity P-wave (km/s) = 5.70971 6.54618 6.14220
#
# Compressibility (1/GPa) = 0.03488250
#
# Stress axis : x y z
#
# Youngs Moduli (GPa) = 41.90143 75.50336 116.41637
#
# Poissons Ratio (x) = 0.29216 -0.29211
# Poissons Ratio (y) = 0.16214 0.47128
# Poissons Ratio (z) = -0.10514 0.30566
#
# Static dielectric constant tensor:
#      x y z
#    x 1.690340 0.000000 0.003460 
#    y 0.000000 1.722550 0.000000 
#    z 0.003460 0.000000 1.729450 
# 
# From -- ./inp_files/116664.got.cif
#   From: 2010.05.17/outbox.cif.g08.bks.cpg/sg15_59_cif.got.tgz:116664.got - 2010.06.03 18:47:42.
