data_PCOD9266750
_publ_section_title
;
Structure prediction by ZEFSAII (Michael W. Deem and Ramdas Pophale) SiO2 
 PCOD9266750
Probable space group: C 2/C
;
_chemical_formula_sum "Si O2"
_cell_formula_units_Z 48
_cell_length_a 8.822651
_cell_length_b 20.188390
_cell_length_c 20.608086
_cell_angle_alpha 90.000000
_cell_angle_beta 142.632820
_cell_angle_gamma 90.000000
_cell_volume 2227.770167
_symmetry_space_group_name_H-M "C 2/C"
_symmetry_group_IT_number 15
_symmetry_cell_setting 'monoclinic'
loop_
_space_group_symop_operation_xyz
x,y,z
-x,y,1/2-z
-x,-y,-z
x,-y,1/2+z
1/2+x,1/2+y,z
1/2-x,1/2+y,1/2-z
1/2-x,1/2-y,-z
1/2+x,1/2-y,1/2+z
loop_
_atom_site_type_symbol
_atom_site_label
_atom_site_fract_x
_atom_site_fract_y
_atom_site_fract_z
Si Si1 0.552885 0.102349 0.923100
Si Si2 0.693514 0.468239 0.450934
Si Si3 0.242691 0.104168 0.641940
Si Si4 0.264666 0.251270 0.303827
Si Si5 0.500000 0.447056 0.250000
Si Si6 0.000000 0.239718 0.750000
Si Si7 0.090347 0.673648 0.514559
O O1 0.698343 0.127138 0.910149
O O2 0.612200 0.152411 0.000911
O O3 0.249328 0.094410 0.814635
O O4 0.641829 0.028169 0.968898
O O5 0.475654 0.447816 0.425453
O O6 0.577683 0.485619 0.341005
O O7 0.829786 0.398173 0.485851
O O8 0.500000 0.069646 0.750000
O O9 0.207172 0.169230 0.674049
O O10 0.308568 0.233060 0.242382
O O11 0.479222 0.217210 0.419948
O O12 0.000000 0.234892 0.250000
O O13 0.192118 0.206784 0.867775
#
# Coordination Sequence:
#
# PCOD9266750 Si02
#       7
#     8   8   8   8   4   4   8
#     4  11  23  38  65  94 126 172 206 268 322 382
#     4  11  22  39  66  92 124 170 213 263 323 383
#     4  11  21  40  65  91 126 166 223 263 312 390
#     4  11  26  43  68 100 129 173 220 273 329 384
#     4  10  19  38  60  88 120 164 222 251 312 380
#     4  12  23  42  74  94 126 178 220 273 322 382
#     4  11  22  44  65  97 129 164 224 266 321 395
#
# _framework density 21.546208
#
# number of rings (size 3 to 8) (size 9 to 14) (size 15 to 20)
#    0.000    1.000    3.333    7.000    0.000    2.667 
#    6.000    0.000    1.833    0.000    0.000    0.000 
#    0.000    0.000    0.000    0.000    0.000    0.000 
#
# Total GULP energy -133657.714547 kJ/mol
# GULP energy per Si atom -5569.071439 kJ/mol
# Density = 2.149717 g / cm^3
# Si number density = 21.546208 Si / 1000 Ang^3
#
#
#
# Elastic Constant Matrix: (Units=GPa)
#
#
# Indices 1 2 3 4 5 6 
#
# 1 178.2985 20.1623 40.7056 -0.0008 -17.9374 -0.0002
# 2 20.1623 42.9845 46.5473 -0.0001 -4.1062 0.0002
# 3 40.7056 46.5473 94.1564 -0.0003 -9.8297 -0.0001
# 4 -0.0008 -0.0001 -0.0003 -1.6750 -0.0003 -10.0634
# 5 -17.9374 -4.1062 -9.8297 -0.0003 28.0594 -0.0001
# 6 -0.0002 0.0002 -0.0001 -10.0634 -0.0001 20.1250
#
#
#
# Elastic Compliance Matrix: (Units=1/GPa)
#
#
# Indices 1 2 3 4 5 6 
#
# 1 0.006504 -0.000137 -0.002400 -0.000001 0.003297 0.000000
# 2 -0.000137 0.050122 -0.024872 0.000001 -0.001466 0.000000
# 3 -0.002400 -0.024872 0.024303 -0.000001 0.003340 0.000000
# 4 -0.000001 0.000001 -0.000001 -0.149095 -0.000003 -0.074554
# 5 0.003297 -0.001466 0.003340 -0.000003 0.038702 -0.000001
# 6 0.000000 0.000000 0.000000 -0.074554 -0.000001 0.012409
#
#
# Mechanical properties :
#
#
# Convention : Reuss Voigt Hill
#
# Bulk Modulus (GPa) = 38.29886 58.91887 48.60886
# Shear Modulus (GPa) = 107.60588 23.17015 65.38802
#
# Velocity S-wave (km/s) = 7.07463 3.28284 5.51486
# Velocity P-wave (km/s) = 9.19498 6.46329 7.94738
#
# Compressibility (1/GPa) = 0.02611044
#
# Stress axis : x y z
#
# Youngs Moduli (GPa) = 153.76118 19.95114 41.14765
#
# Poissons Ratio (x) = 0.00273 0.09874
# Poissons Ratio (y) = 0.02107 1.02344
# Poissons Ratio (z) = 0.36898 0.49623
#
# Static dielectric constant tensor:
#      x y z
#    x 1.943160 0.000000 -0.009260 
#    y 0.000000 1.756760 0.000000 
#    z -0.009260 0.000000 1.864420 
# 
# From -- ./inp_files/79168.got.cif
#   From: 2010.05.17/outbox.cif.g08.bks.cpg/sg15_40_cif.got.tgz:79168.got - 2010.06.03 18:47:42.
