data_PCOD9266856
_publ_section_title
;
Structure prediction by ZEFSAII (Michael W. Deem and Ramdas Pophale) SiO2 
 PCOD9266856
Probable space group: C 2/C
;
_chemical_formula_sum "Si O2"
_cell_formula_units_Z 40
_cell_length_a 24.283718
_cell_length_b 12.169061
_cell_length_c 5.431210
_cell_angle_alpha 90.000000
_cell_angle_beta 73.427594
_cell_angle_gamma 90.000000
_cell_volume 1538.306450
_symmetry_space_group_name_H-M "C 2/C"
_symmetry_group_IT_number 15
_symmetry_cell_setting 'monoclinic'
loop_
_space_group_symop_operation_xyz
x,y,z
-x,y,1/2-z
-x,-y,-z
x,-y,1/2+z
1/2+x,1/2+y,z
1/2-x,1/2+y,1/2-z
1/2-x,1/2-y,-z
1/2+x,1/2-y,1/2+z
loop_
_atom_site_type_symbol
_atom_site_label
_atom_site_fract_x
_atom_site_fract_y
_atom_site_fract_z
Si Si1 0.532841 0.846920 0.445805
Si Si2 0.207509 0.631578 0.307531
Si Si3 0.040706 0.108980 0.498741
Si Si4 0.161919 0.617383 0.867407
Si Si5 0.171373 0.939059 0.979683
O O1 0.500000 0.892573 0.250000
O O2 0.548832 0.719072 0.329805
O O3 0.595275 0.898391 0.402745
O O4 0.500000 0.863181 0.750000
O O5 0.189126 0.676521 0.594993
O O6 0.191741 0.501647 0.350358
O O7 0.274488 0.636050 0.158794
O O8 0.171141 0.673558 0.121074
O O9 0.103759 0.084541 0.520799
O O10 0.000000 0.000000 0.500000
O O11 0.000000 0.161696 0.750000
O O12 0.178485 0.033184 0.758659
#
# Coordination Sequence:
#
# PCOD9266856 Si02
#       5
#     8   8   8   8   8
#     4  11  25  42  60  89 129 161 203 258 309 361
#     4  10  19  38  63  90 120 159 206 249 302 368
#     4  11  23  40  66  92 124 165 209 253 307 364
#     4  10  19  38  62  87 122 164 196 253 310 356
#     4  12  21  36  64  95 119 156 212 250 297 369
#
# _framework density 26.002623
#
# number of rings (size 3 to 8) (size 9 to 14) (size 15 to 20)
#    0.000    1.200    6.000    1.800    0.000    0.000 
#    0.000   14.000    0.000    0.000    0.000    0.000 
#    0.000    0.000    0.000    0.000    0.000    0.000 
#
# Total GULP energy -111366.427670 kJ/mol
# GULP energy per Si atom -5568.321384 kJ/mol
# Density = 2.594344 g / cm^3
# Si number density = 26.002623 Si / 1000 Ang^3
#
#
#
# Elastic Constant Matrix: (Units=GPa)
#
#
# Indices 1 2 3 4 5 6 
#
# 1 173.6397 20.3582 10.5606 0.0000 -24.8766 0.0000
# 2 20.3582 87.5106 -9.9725 0.0000 5.0241 0.0000
# 3 10.5606 -9.9725 109.6346 0.0000 -1.5812 0.0000
# 4 0.0000 0.0000 0.0000 10.4767 0.0000 28.7508
# 5 -24.8766 5.0241 -1.5812 0.0000 58.7005 0.0000
# 6 0.0000 0.0000 0.0000 28.7508 0.0000 -578.7134
#
#
#
# Elastic Compliance Matrix: (Units=1/GPa)
#
#
# Indices 1 2 3 4 5 6 
#
# 1 0.006416 -0.001740 -0.000735 0.000000 0.002848 0.000000
# 2 -0.001740 0.012073 0.001241 0.000000 -0.001737 0.000000
# 3 -0.000735 0.001241 0.009302 0.000000 -0.000167 0.000000
# 4 0.000000 0.000000 0.000000 0.083998 0.000000 0.004173
# 5 0.002848 -0.001737 -0.000167 0.000000 0.018387 0.000000
# 6 0.000000 0.000000 0.000000 0.004173 0.000000 -0.001521
#
#
# Mechanical properties :
#
#
# Convention : Reuss Voigt Hill
#
# Bulk Modulus (GPa) = 39.49027 45.85307 42.67167
# Shear Modulus (GPa) = 35.82566 -78.58468 -21.37951
#
# Velocity S-wave (km/s) = 3.71586 -5.50340 -2.87052
# Velocity P-wave (km/s) = 5.79915 4.76560 2.33658
#
# Compressibility (1/GPa) = 0.02532269
#
# Stress axis : x y z
#
# Youngs Moduli (GPa) = 155.86571 82.82897 107.49835
#
# Poissons Ratio (x) = 0.14411 0.07903
# Poissons Ratio (y) = 0.27118 -0.13337
# Poissons Ratio (z) = 0.11459 -0.10277
#
# Static dielectric constant tensor:
#      x y z
#    x 2.005160 0.000000 0.154220 
#    y 0.000000 2.169860 0.000000 
#    z 0.154220 0.000000 2.111760 
# 
# From -- ./inp_files/12751.got.cif
#   From: 2010.05.17/outbox.cif.g08.bks.cpg/sg15_7_cif.got.tgz:12751.got - 2010.06.03 18:47:42.
