data_PCOD9266606
_publ_section_title
;
Structure prediction by ZEFSAII (Michael W. Deem and Ramdas Pophale) SiO2 
 PCOD9266606
Probable space group: C 2/C
;
_chemical_formula_sum "Si O2"
_cell_formula_units_Z 56
_cell_length_a 28.458459
_cell_length_b 12.413411
_cell_length_c 8.959574
_cell_angle_alpha 90.000000
_cell_angle_beta 64.293131
_cell_angle_gamma 90.000000
_cell_volume 2851.850325
_symmetry_space_group_name_H-M "C 2/C"
_symmetry_group_IT_number 15
_symmetry_cell_setting 'monoclinic'
loop_
_space_group_symop_operation_xyz
x,y,z
-x,y,1/2-z
-x,-y,-z
x,-y,1/2+z
1/2+x,1/2+y,z
1/2-x,1/2+y,1/2-z
1/2-x,1/2-y,-z
1/2+x,1/2-y,1/2+z
loop_
_atom_site_type_symbol
_atom_site_label
_atom_site_fract_x
_atom_site_fract_y
_atom_site_fract_z
Si Si1 0.609147 0.292028 0.967469
Si Si2 0.176593 0.602370 0.797730
Si Si3 0.479655 0.661118 0.125295
Si Si4 0.808787 0.381054 0.570367
Si Si5 0.200802 0.142213 0.829706
Si Si6 0.449428 0.576796 0.715947
Si Si7 0.687943 0.560539 0.172758
O O1 0.638161 0.179054 0.941928
O O2 0.557649 0.275383 0.935410
O O3 0.648799 0.368582 0.823059
O O4 0.593333 0.354349 0.139434
O O5 0.171181 0.479432 0.857432
O O6 0.169237 0.617564 0.629417
O O7 0.236123 0.638080 0.750670
O O8 0.500000 0.712237 0.250000
O O9 0.445992 0.552250 0.207315
O O10 0.531897 0.621409 0.968386
O O11 0.816574 0.265554 0.636674
O O12 0.746653 0.401956 0.634508
O O13 0.183259 0.065007 0.720369
O O14 0.181645 0.084682 0.007644
O O15 0.500000 0.590444 0.750000
#
# Coordination Sequence:
#
# PCOD9266606 Si02
#       7
#     8   8   8   8   8   8   8
#     4  11  19  32  54  84 113 144 191 233 272 348
#     4  10  20  36  57  78 108 160 201 236 274 334
#     4   9  18  35  53  78 114 147 171 228 305 348
#     4  10  19  39  53  73 122 162 193 238 285 314
#     4  10  19  38  53  77 122 155 191 237 293 319
#     4   8  17  32  51  77 115 144 172 228 302 353
#     4  10  20  33  54  83 114 156 192 236 283 334
#
# _framework density 19.636374
#
# number of rings (size 3 to 8) (size 9 to 14) (size 15 to 20)
#    0.000    2.286    2.857    1.714    2.000    0.000 
#    2.571    4.286    0.000    0.000    0.000   13.000 
#    0.000    1.143    0.000    0.000    0.000    0.000 
#
# Total GULP energy -156271.015741 kJ/mol
# GULP energy per Si atom -5581.107705 kJ/mol
# Density = 1.959168 g / cm^3
# Si number density = 19.636374 Si / 1000 Ang^3
#
#
#
# Elastic Constant Matrix: (Units=GPa)
#
#
# Indices 1 2 3 4 5 6 
#
# 1 26.8950 30.0411 17.2967 0.0000 3.5654 0.0000
# 2 30.0411 142.0464 44.5159 0.0000 -3.2997 0.0000
# 3 17.2967 44.5159 81.3979 0.0000 -9.3343 0.0000
# 4 0.0000 0.0000 0.0000 30.2414 0.0000 -3.9718
# 5 3.5654 -3.2997 -9.3343 0.0000 14.3573 0.0000
# 6 0.0000 0.0000 0.0000 -3.9718 0.0000 15.4984
#
#
#
# Elastic Compliance Matrix: (Units=1/GPa)
#
#
# Indices 1 2 3 4 5 6 
#
# 1 0.056963 -0.009616 -0.009424 0.000000 -0.022483 0.000000
# 2 -0.009616 0.010137 -0.003198 0.000000 0.002639 0.000000
# 3 -0.009424 -0.003198 0.017528 0.000000 0.013001 0.000000
# 4 0.000000 0.000000 0.000000 0.034219 0.000000 0.008769
# 5 -0.022483 0.002639 0.013001 0.000000 0.084293 0.000000
# 6 0.000000 0.000000 0.000000 0.008769 0.000000 0.066770
#
#
# Mechanical properties :
#
#
# Convention : Reuss Voigt Hill
#
# Bulk Modulus (GPa) = 24.90490 48.22741 36.56615
# Shear Modulus (GPa) = 15.25457 22.58511 18.91984
#
# Velocity S-wave (km/s) = 2.79023 3.39509 3.10741
# Velocity P-wave (km/s) = 4.80532 6.32316 5.61576
#
# Compressibility (1/GPa) = 0.04015274
#
# Stress axis : x y z
#
# Youngs Moduli (GPa) = 17.55512 98.64716 57.05276
#
# Poissons Ratio (x) = 0.94860 0.53765
# Poissons Ratio (y) = 0.16881 0.18245
# Poissons Ratio (z) = 0.16543 0.31547
#
# Static dielectric constant tensor:
#      x y z
#    x 1.725580 0.000000 -0.004500 
#    y 0.000000 1.684060 0.000000 
#    z -0.004500 0.000000 1.727740 
# 
# From -- ./inp_files/69296.got.cif
#   From: 2010.05.17/outbox.cif.g08.bks.cpg/sg15_35_cif.got.tgz:69296.got - 2010.06.03 18:47:42.
