data_PCOD9266572
_publ_section_title
;
Structure prediction by ZEFSAII (Michael W. Deem and Ramdas Pophale) SiO2 
 PCOD9266572
Probable space group: C 2/C
;
_chemical_formula_sum "Si O2"
_cell_formula_units_Z 40
_cell_length_a 13.638864
_cell_length_b 8.209207
_cell_length_c 15.125000
_cell_angle_alpha 90.000000
_cell_angle_beta 97.247061
_cell_angle_gamma 90.000000
_cell_volume 1679.931067
_symmetry_space_group_name_H-M "C 2/C"
_symmetry_group_IT_number 15
_symmetry_cell_setting 'monoclinic'
loop_
_space_group_symop_operation_xyz
x,y,z
-x,y,1/2-z
-x,-y,-z
x,-y,1/2+z
1/2+x,1/2+y,z
1/2-x,1/2+y,1/2-z
1/2-x,1/2-y,-z
1/2+x,1/2-y,1/2+z
loop_
_atom_site_type_symbol
_atom_site_label
_atom_site_fract_x
_atom_site_fract_y
_atom_site_fract_z
Si Si1 0.197082 0.963225 0.273411
Si Si2 0.247214 0.991569 0.468528
Si Si3 0.129863 0.193383 0.592071
Si Si4 0.601339 0.805776 0.212985
Si Si5 0.941091 0.670403 0.995491
O O1 0.145816 0.846296 0.196294
O O2 0.314526 0.943029 0.267225
O O3 0.190884 0.923709 0.376397
O O4 0.150276 0.140622 0.254743
O O5 0.175921 0.049875 0.537561
O O6 0.307375 0.148661 0.434450
O O7 0.331861 0.873915 0.515349
O O8 0.015162 0.215068 0.556388
O O9 0.500000 0.846739 0.250000
O O10 0.574591 0.778714 0.107719
O O11 0.000000 0.500000 0.000000
#
# Coordination Sequence:
#
# PCOD9266572 Si02
#       5
#     8   8   8   8   8
#     4  11  22  41  68 103 130 173 227 273 324 405
#     4   9  19  37  62  95 127 170 221 261 326 395
#     4  10  19  37  68  88 128 179 211 263 335 383
#     4  11  24  43  68  93 134 177 216 273 340 386
#     4   9  20  36  63  92 124 167 221 269 317 399
#
# _framework density 23.810499
#
# number of rings (size 3 to 8) (size 9 to 14) (size 15 to 20)
#    0.000    2.000    2.000    1.200    5.600    0.800 
#    0.000    7.000    0.000    0.000    0.000    0.000 
#    0.000    0.000    0.000    0.000    0.000    0.000 
#
# Total GULP energy -111898.453056 kJ/mol
# GULP energy per Si atom -5594.922653 kJ/mol
# Density = 2.375631 g / cm^3
# Si number density = 23.810499 Si / 1000 Ang^3
#
#
#
# Elastic Constant Matrix: (Units=GPa)
#
#
# Indices 1 2 3 4 5 6 
#
# 1 126.7880 59.6311 59.2365 0.0000 32.7915 0.0000
# 2 59.6311 34.8431 55.5876 0.0000 -8.6955 0.0000
# 3 59.2365 55.5876 148.8647 0.0000 47.1859 0.0000
# 4 0.0000 0.0000 0.0000 43.1785 0.0000 5.9384
# 5 32.7915 -8.6955 47.1859 0.0000 30.4509 0.0000
# 6 0.0000 0.0000 0.0000 5.9384 0.0000 35.4089
#
#
#
# Elastic Compliance Matrix: (Units=1/GPa)
#
#
# Indices 1 2 3 4 5 6 
#
# 1 0.004687 0.009389 -0.009081 0.000000 0.011706 0.000000
# 2 0.009389 -0.013864 0.011596 0.000000 -0.032038 0.000000
# 3 -0.009081 0.011596 0.003639 0.000000 0.007452 0.000000
# 4 0.000000 0.000000 0.000000 0.023706 0.000000 -0.003976
# 5 0.011706 -0.032038 0.007452 0.000000 -0.000463 0.000000
# 6 0.000000 0.000000 0.000000 -0.003976 0.000000 0.028908
#
#
# Mechanical properties :
#
#
# Convention : Reuss Voigt Hill
#
# Bulk Modulus (GPa) = 54.73744 73.26735 64.00240
# Shear Modulus (GPa) = 173.02906 30.87703 101.95304
#
# Velocity S-wave (km/s) = 8.53387 3.60499 6.55069
# Velocity P-wave (km/s) = 10.96090 6.94016 9.17353
#
# Compressibility (1/GPa) = 0.01826903
#
# Stress axis : x y z
#
# Youngs Moduli (GPa) = 213.37013 -72.13053 274.79690
#
# Poissons Ratio (x) = 0.67722 2.49554
# Poissons Ratio (y) = -2.00329 -3.18658
# Poissons Ratio (z) = 1.93770 0.83644
#
# Static dielectric constant tensor:
#      x y z
#    x 1.864280 0.000000 0.020740 
#    y 0.000000 1.963540 0.000000 
#    z 0.020740 0.000000 1.828410 
# 
# From -- ./inp_files/150773.got.cif
#   From: 2010.05.17/outbox.cif.g08.bks.cpg/sg15_76_cif.got.tgz:150773.got - 2010.06.03 18:47:42.
