data_PCOD9266838
_publ_section_title
;
Structure prediction by ZEFSAII (Michael W. Deem and Ramdas Pophale) SiO2 
 PCOD9266838
Probable space group: C 2/C
;
_chemical_formula_sum "Si O2"
_cell_formula_units_Z 56
_cell_length_a 14.139043
_cell_length_b 12.906827
_cell_length_c 18.541523
_cell_angle_alpha 90.000000
_cell_angle_beta 62.057127
_cell_angle_gamma 90.000000
_cell_volume 2989.164368
_symmetry_space_group_name_H-M "C 2/C"
_symmetry_group_IT_number 15
_symmetry_cell_setting 'monoclinic'
loop_
_space_group_symop_operation_xyz
x,y,z
-x,y,1/2-z
-x,-y,-z
x,-y,1/2+z
1/2+x,1/2+y,z
1/2-x,1/2+y,1/2-z
1/2-x,1/2-y,-z
1/2+x,1/2-y,1/2+z
loop_
_atom_site_type_symbol
_atom_site_label
_atom_site_fract_x
_atom_site_fract_y
_atom_site_fract_z
Si Si1 0.424700 0.190313 0.127925
Si Si2 0.788575 0.215583 0.373185
Si Si3 0.880885 0.705929 0.529631
Si Si4 0.500000 0.829362 0.750000
Si Si5 0.500000 0.823267 0.250000
Si Si6 0.771647 0.411702 0.480188
Si Si7 0.475963 0.944395 0.111513
Si Si8 0.711132 0.877199 0.590501
O O1 0.301596 0.205093 0.154693
O O2 0.459246 0.230574 0.194076
O O3 0.448554 0.065959 0.119793
O O4 0.500800 0.239816 0.039522
O O5 0.902197 0.249051 0.303672
O O6 0.756608 0.312338 0.435255
O O7 0.786981 0.114068 0.424333
O O8 0.902623 0.619144 0.582018
O O9 0.800529 0.795629 0.583987
O O10 0.831030 0.661799 0.472871
O O11 0.608008 0.885400 0.680530
O O12 0.468257 0.895625 0.193890
O O13 0.740218 0.511584 0.445412
O O14 0.898478 0.426718 0.452701
#
# Coordination Sequence:
#
# PCOD9266838 Si02
#       8
#     8   8   8   4   4   8   8   8
#     4  11  20  36  62  89 112 151 200 249 283 349
#     4  10  22  36  61  86 118 154 198 244 297 350
#     4  10  20  34  59  88 114 150 196 239 292 342
#     4  10  21  34  56  91 122 146 193 250 296 325
#     4  10  25  38  56  91 124 146 193 252 304 341
#     4  10  19  38  62  84 113 153 200 245 282 346
#     4  11  19  36  63  87 107 149 205 249 278 340
#     4  10  21  36  57  88 121 152 193 246 291 347
#
# _framework density 18.734332999999999
#
# number of rings (size 3 to 8) (size 9 to 14) (size 15 to 20)
#    0.000    1.714    4.286    1.714    4.000    0.000 
#    0.000    0.714    3.143    4.286    0.000    0.000 
#    0.000    0.000    0.000    0.000    0.000    0.000 
#
# Total GULP energy -156078.636480 kJ/mol
# GULP energy per Si atom -5574.237017 kJ/mol
# Density = 1.869169 g / cm^3
# Si number density = 18.734333 Si / 1000 Ang^3
#
#
#
# Elastic Constant Matrix: (Units=GPa)
#
#
# Indices 1 2 3 4 5 6 
#
# 1 81.5301 32.3014 36.8528 0.0000 9.5073 0.0000
# 2 32.3014 70.3089 23.8749 0.0000 -10.1764 0.0000
# 3 36.8528 23.8749 96.1900 0.0000 -10.4295 0.0000
# 4 0.0000 0.0000 0.0000 9.6919 0.0000 -0.6360
# 5 9.5073 -10.1764 -10.4295 0.0000 19.4921 0.0000
# 6 0.0000 0.0000 0.0000 -0.6360 0.0000 34.2753
#
#
#
# Elastic Compliance Matrix: (Units=1/GPa)
#
#
# Indices 1 2 3 4 5 6 
#
# 1 0.022727 -0.010663 -0.008351 0.000000 -0.021120 0.000000
# 2 -0.010663 0.021330 0.000597 0.000000 0.016656 0.000000
# 3 -0.008351 0.000597 0.014780 0.000000 0.012293 0.000000
# 4 0.000000 0.000000 0.000000 0.103305 0.000000 0.001917
# 5 -0.021120 0.016656 0.012293 0.000000 0.076878 0.000000
# 6 0.000000 0.000000 0.000000 0.001917 0.000000 0.029211
#
#
# Mechanical properties :
#
#
# Convention : Reuss Voigt Hill
#
# Bulk Modulus (GPa) = 45.44613 48.23190 46.83901
# Shear Modulus (GPa) = 16.00516 23.02518 19.51517
#
# Velocity S-wave (km/s) = 2.92605 3.50956 3.23101
# Velocity P-wave (km/s) = 5.97717 6.49799 6.24301
#
# Compressibility (1/GPa) = 0.02200408
#
# Stress axis : x y z
#
# Youngs Moduli (GPa) = 43.99961 46.88302 67.65771
#
# Poissons Ratio (x) = 0.49990 0.56500
# Poissons Ratio (y) = 0.46915 -0.04039
# Poissons Ratio (z) = 0.36744 -0.02799
#
# Static dielectric constant tensor:
#      x y z
#    x 1.666580 0.000000 0.005770 
#    y 0.000000 1.656170 0.000000 
#    z 0.005770 0.000000 1.709510 
# 
# From -- ./inp_files/203967.got.cif
#   From: 2010.05.17/outbox.cif.g08.bks.cpg/sg15_102_cif.got.tgz:203967.got - 2010.06.03 18:47:42.
