data_PCOD9266832
_publ_section_title
;
Structure prediction by ZEFSAII (Michael W. Deem and Ramdas Pophale) SiO2 
 PCOD9266832
Probable space group: C 2/C
;
_chemical_formula_sum "Si O2"
_cell_formula_units_Z 52
_cell_length_a 24.059730
_cell_length_b 5.473143
_cell_length_c 17.505829
_cell_angle_alpha 90.000000
_cell_angle_beta 97.059107
_cell_angle_gamma 90.000000
_cell_volume 2287.734868
_symmetry_space_group_name_H-M "C 2/C"
_symmetry_group_IT_number 15
_symmetry_cell_setting 'monoclinic'
loop_
_space_group_symop_operation_xyz
x,y,z
-x,y,1/2-z
-x,-y,-z
x,-y,1/2+z
1/2+x,1/2+y,z
1/2-x,1/2+y,1/2-z
1/2-x,1/2-y,-z
1/2+x,1/2-y,1/2+z
loop_
_atom_site_type_symbol
_atom_site_label
_atom_site_fract_x
_atom_site_fract_y
_atom_site_fract_z
Si Si1 0.822852 0.688668 0.085110
Si Si2 0.211137 0.993671 0.056951
Si Si3 0.634117 0.722966 0.165808
Si Si4 0.115382 0.938292 0.820748
Si Si5 0.566852 0.218029 0.122935
Si Si6 0.613120 0.176398 0.983460
Si Si7 0.000000 0.157349 0.750000
O O1 0.776784 0.476067 0.087597
O O2 0.873597 0.596638 0.040580
O O3 0.849176 0.812779 0.163006
O O4 0.792440 0.891889 0.028571
O O5 0.185864 0.170016 0.118169
O O6 0.167921 0.770099 0.040512
O O7 0.644452 0.713930 0.258417
O O8 0.594564 0.484639 0.143311
O O9 0.605438 0.980526 0.143650
O O10 0.110538 0.817910 0.903062
O O11 0.052787 0.998478 0.784259
O O12 0.517828 0.194970 0.177012
O O13 0.560436 0.211231 0.030020
#
# Coordination Sequence:
#
# PCOD9266832 Si02
#       7
#     8   8   8   8   8   8   4
#     4  10  19  38  61  97 124 168 213 269 312 397
#     4   9  19  37  65  90 132 169 211 249 338 382
#     4  10  21  42  62  95 128 175 203 265 319 396
#     4  10  24  40  61  92 131 166 223 272 327 384
#     4  10  22  41  69  89 127 166 222 259 330 380
#     4  10  20  38  66  95 128 168 215 278 317 396
#     4  10  24  46  64  88 128 182 212 278 340 384
#
# _framework density 22.729907999999998
#
# number of rings (size 3 to 8) (size 9 to 14) (size 15 to 20)
#    0.000    2.154    1.538    0.462    4.308    3.077 
#    2.769    0.769    0.000    0.000    0.000    0.000 
#    0.000    0.000    0.000    0.000    0.000    0.000 
#
# Total GULP energy -144845.079482 kJ/mol
# GULP energy per Si atom -5570.964595 kJ/mol
# Density = 2.267817 g / cm^3
# Si number density = 22.729908 Si / 1000 Ang^3
#
#
#
# Elastic Constant Matrix: (Units=GPa)
#
#
# Indices 1 2 3 4 5 6 
#
# 1 66.6311 3.1092 33.1075 0.0000 -5.7130 0.0000
# 2 3.1092 72.2790 13.6857 0.0000 5.7517 0.0000
# 3 33.1075 13.6857 130.5728 0.0000 -18.9030 0.0000
# 4 0.0000 0.0000 0.0000 34.9137 0.0000 -3.2638
# 5 -5.7130 5.7517 -18.9030 0.0000 43.9695 0.0000
# 6 0.0000 0.0000 0.0000 -3.2638 0.0000 14.2193
#
#
#
# Elastic Compliance Matrix: (Units=1/GPa)
#
#
# Indices 1 2 3 4 5 6 
#
# 1 0.017178 0.000047 -0.004306 0.000000 0.000375 0.000000
# 2 0.000047 0.014411 -0.001913 0.000000 -0.002702 0.000000
# 3 -0.004306 -0.001913 0.009497 0.000000 0.003774 0.000000
# 4 0.000000 0.000000 0.000000 0.029270 0.000000 0.006718
# 5 0.000375 -0.002702 0.003774 0.000000 0.024768 0.000000
# 6 0.000000 0.000000 0.000000 0.006718 0.000000 0.071869
#
#
# Mechanical properties :
#
#
# Convention : Reuss Voigt Hill
#
# Bulk Modulus (GPa) = 34.79509 41.03195 37.91352
# Shear Modulus (GPa) = 26.46660 33.25920 29.86290
#
# Velocity S-wave (km/s) = 3.41603 3.82938 3.62859
# Velocity P-wave (km/s) = 5.55880 6.13541 5.85421
#
# Compressibility (1/GPa) = 0.02873969
#
# Stress axis : x y z
#
# Youngs Moduli (GPa) = 58.21551 69.39370 105.29330
#
# Poissons Ratio (x) = -0.00324 0.45341
# Poissons Ratio (y) = -0.00271 0.20146
# Poissons Ratio (z) = 0.25068 0.13277
#
# Static dielectric constant tensor:
#      x y z
#    x 1.906160 0.000000 -0.037940 
#    y 0.000000 1.914360 0.000000 
#    z -0.037940 0.000000 1.912170 
# 
# From -- ./inp_files/220933.got.cif
#   From: 2010.05.17/outbox.cif.g08.bks.cpg/sg15_111_cif.got.tgz:220933.got - 2010.06.03 18:47:42.
