data_PCOD9266550
_publ_section_title
;
Structure prediction by ZEFSAII (Michael W. Deem and Ramdas Pophale) SiO2 
 PCOD9266550
Probable space group: C 2/C
;
_chemical_formula_sum "Si O2"
_cell_formula_units_Z 44
_cell_length_a 7.876553
_cell_length_b 12.214902
_cell_length_c 25.683756
_cell_angle_alpha 90.000000
_cell_angle_beta 42.757134
_cell_angle_gamma 90.000000
_cell_volume 1677.588820
_symmetry_space_group_name_H-M "C 2/C"
_symmetry_group_IT_number 15
_symmetry_cell_setting 'monoclinic'
loop_
_space_group_symop_operation_xyz
x,y,z
-x,y,1/2-z
-x,-y,-z
x,-y,1/2+z
1/2+x,1/2+y,z
1/2-x,1/2+y,1/2-z
1/2-x,1/2-y,-z
1/2+x,1/2-y,1/2+z
loop_
_atom_site_type_symbol
_atom_site_label
_atom_site_fract_x
_atom_site_fract_y
_atom_site_fract_z
Si Si1 0.674328 0.571846 0.876183
Si Si2 0.227727 0.091441 0.038252
Si Si3 0.500000 0.301244 0.250000
Si Si4 0.411333 0.016936 0.636259
Si Si5 0.446113 0.282259 0.515358
Si Si6 0.870147 0.717422 0.170618
O O1 0.908301 0.517796 0.853030
O O2 0.754826 0.673723 0.823513
O O3 0.470693 0.494205 0.893736
O O4 0.521723 0.623889 0.958646
O O5 0.414430 0.036029 0.953820
O O6 0.405624 0.171232 0.030914
O O7 0.045976 0.174326 0.048079
O O8 0.390884 0.228733 0.227904
O O9 0.720103 0.382315 0.181206
O O10 0.280410 0.899128 0.669885
O O11 0.153641 0.269956 0.585223
#
# Coordination Sequence:
#
# PCOD9266550 Si02
#       6
#     8   8   4   8   8   8
#     4  11  23  39  72 104 126 160 212 281 336 376
#     4  10  19  38  71 103 132 161 204 273 341 385
#     4  12  30  46  62  88 132 188 222 256 312 388
#     4  11  24  46  66  94 134 170 219 267 316 390
#     4  10  19  37  67 104 132 161 204 265 338 386
#     4  12  25  44  69  94 130 175 221 263 321 392
#
# _framework density 26.228121000000002
#
# number of rings (size 3 to 8) (size 9 to 14) (size 15 to 20)
#    0.000    1.091    5.455    1.636    0.000    5.818 
#    0.000    0.000    0.000    0.000    0.000    0.000 
#    0.000    0.000    0.000    0.000    0.000    0.000 
#
# Total GULP energy -123293.296745 kJ/mol
# GULP energy per Si atom -5604.240761 kJ/mol
# Density = 2.616842 g / cm^3
# Si number density = 26.228121 Si / 1000 Ang^3
#
#
#
# Elastic Constant Matrix: (Units=GPa)
#
#
# Indices 1 2 3 4 5 6 
#
# 1 40.2735 11.7567 19.5220 -0.0011 -13.8245 0.0006
# 2 11.7567 140.8276 21.9527 -0.0011 -5.3710 0.0007
# 3 19.5220 21.9527 62.4370 -0.0007 -20.7883 0.0006
# 4 -0.0011 -0.0011 -0.0007 12.4589 0.0007 14.8877
# 5 -13.8245 -5.3710 -20.7883 0.0007 45.7244 -0.0005
# 6 0.0006 0.0007 0.0006 14.8877 -0.0005 38.4719
#
#
#
# Elastic Compliance Matrix: (Units=1/GPa)
#
#
# Indices 1 2 3 4 5 6 
#
# 1 0.030695 -0.001214 -0.007221 0.000004 0.005855 -0.000002
# 2 -0.001214 0.007566 -0.002483 0.000001 -0.000607 0.000000
# 3 -0.007221 -0.002483 0.021591 0.000000 0.007341 0.000000
# 4 0.000004 0.000001 0.000000 0.149305 -0.000001 -0.057777
# 5 0.005855 -0.000607 0.007341 -0.000001 0.026907 0.000001
# 6 -0.000002 0.000000 0.000000 -0.057777 0.000001 0.048351
#
#
# Mechanical properties :
#
#
# Convention : Reuss Voigt Hill
#
# Bulk Modulus (GPa) = 26.30423 38.88900 32.59661
# Shear Modulus (GPa) = 15.67782 32.01817 23.84799
#
# Velocity S-wave (km/s) = 2.44754 3.49772 3.01865
# Velocity P-wave (km/s) = 4.24712 5.58314 4.96032
#
# Compressibility (1/GPa) = 0.03801670
#
# Stress axis : x y z
#
# Youngs Moduli (GPa) = 32.57909 132.16890 46.31515
#
# Poissons Ratio (x) = 0.16039 0.33445
# Poissons Ratio (y) = 0.03954 0.11499
# Poissons Ratio (z) = 0.23526 0.32816
#
# Static dielectric constant tensor:
#      x y z
#    x 2.103860 0.000000 0.046400 
#    y 0.000000 2.055910 0.000000 
#    z 0.046400 0.000000 2.002290 
# 
# From -- ./inp_files/230160.got.cif
#   From: 2010.05.17/outbox.cif.g08.bks.cpg/sg15_116_cif.got.tgz:230160.got - 2010.06.03 18:47:42.
