data_PCOD9266125
_publ_section_title
;
Structure prediction by ZEFSAII (Michael W. Deem and Ramdas Pophale) SiO2 
 PCOD9266125
Probable space group: C 2/C
;
_chemical_formula_sum "Si O2"
_cell_formula_units_Z 60
_cell_length_a 8.710632
_cell_length_b 26.677976
_cell_length_c 13.923887
_cell_angle_alpha 90.000000
_cell_angle_beta 84.789368
_cell_angle_gamma 90.000000
_cell_volume 3222.289982
_symmetry_space_group_name_H-M "C 2/C"
_symmetry_group_IT_number 15
_symmetry_cell_setting 'monoclinic'
loop_
_space_group_symop_operation_xyz
x,y,z
-x,y,1/2-z
-x,-y,-z
x,-y,1/2+z
1/2+x,1/2+y,z
1/2-x,1/2+y,1/2-z
1/2-x,1/2-y,-z
1/2+x,1/2-y,1/2+z
loop_
_atom_site_type_symbol
_atom_site_label
_atom_site_fract_x
_atom_site_fract_y
_atom_site_fract_z
Si Si1 0.699686 0.189275 0.888383
Si Si2 0.833868 0.582215 0.707250
Si Si3 0.155007 0.015579 0.862193
Si Si4 0.412589 0.221765 0.400019
Si Si5 0.798428 0.995653 0.426124
Si Si6 0.500000 0.253340 0.750000
Si Si7 0.781378 0.685485 0.214384
Si Si8 0.328186 0.579041 0.280797
O O1 0.713191 0.133648 0.843952
O O2 0.858976 0.220083 0.897629
O O3 0.595450 0.218861 0.817152
O O4 0.616524 0.196077 0.996032
O O5 0.721853 0.562120 0.798546
O O6 0.819880 0.539052 0.625900
O O7 0.000000 0.586737 0.750000
O O8 0.972949 0.024074 0.893646
O O9 0.183872 0.966402 0.794730
O O10 0.229153 0.001786 0.959939
O O11 0.304173 0.196878 0.325621
O O12 0.583067 0.211570 0.352464
O O13 0.807582 0.051112 0.382200
O O14 0.377756 0.289459 0.809001
O O15 0.783755 0.625831 0.210558
O O16 0.500000 0.599155 0.250000
#
# Coordination Sequence:
#
# PCOD9266125 Si02
#       8
#     8   8   8   8   8   4   8   8
#     4  10  21  42  57  82 121 160 189 252 290 356
#     4  11  22  37  59  90 122 161 192 245 312 354
#     4   9  20  40  60  86 118 155 203 243 290 359
#     4   9  22  39  58  82 117 149 208 234 293 352
#     4   9  20  40  60  85 118 157 202 246 287 365
#     4  10  20  38  62  80 122 144 186 252 298 348
#     4  10  19  37  60  88 107 153 191 244 294 357
#     4   9  17  33  58  82 115 146 187 241 294 349
#
# _framework density 18.620297999999998
#
# number of rings (size 3 to 8) (size 9 to 14) (size 15 to 20)
#    0.000    2.400    1.333    1.200    1.867    2.133 
#   19.200    0.000    0.000    0.000    0.000    0.000 
#    0.000    0.000    0.000    0.000    0.000    0.000 
#
# Total GULP energy -167016.945709 kJ/mol
# GULP energy per Si atom -5567.231524 kJ/mol
# Density = 1.857792 g / cm^3
# Si number density = 18.620298 Si / 1000 Ang^3
#
#
#
# Elastic Constant Matrix: (Units=GPa)
#
#
# Indices 1 2 3 4 5 6 
#
# 1 50.0972 36.7078 21.3778 0.0000 -0.1890 0.0000
# 2 36.7078 90.7531 34.4255 0.0000 -5.9658 0.0000
# 3 21.3778 34.4255 110.6416 0.0000 -0.1117 0.0000
# 4 0.0000 0.0000 0.0000 12.7618 0.0000 0.4462
# 5 -0.1890 -5.9658 -0.1117 0.0000 11.8558 0.0000
# 6 0.0000 0.0000 0.0000 0.4462 0.0000 17.4470
#
#
#
# Elastic Compliance Matrix: (Units=1/GPa)
#
#
# Indices 1 2 3 4 5 6 
#
# 1 0.029147 -0.011335 -0.002110 0.000000 -0.005259 0.000000
# 2 -0.011335 0.017382 -0.003210 0.000000 0.008536 0.000000
# 3 -0.002110 -0.003210 0.010443 0.000000 -0.001550 0.000000
# 4 0.000000 0.000000 0.000000 0.078429 0.000000 -0.002006
# 5 -0.005259 0.008536 -0.001550 0.000000 0.088544 0.000000
# 6 0.000000 0.000000 0.000000 -0.002006 0.000000 0.057368
#
#
# Mechanical properties :
#
#
# Convention : Reuss Voigt Hill
#
# Bulk Modulus (GPa) = 42.25992 48.50157 45.38074
# Shear Modulus (GPa) = 15.50339 19.01163 17.25751
#
# Velocity S-wave (km/s) = 2.88862 3.19880 3.04766
# Velocity P-wave (km/s) = 5.81983 6.30455 6.06703
#
# Compressibility (1/GPa) = 0.02366308
#
# Stress axis : x y z
#
# Youngs Moduli (GPa) = 34.30874 57.53018 95.75736
#
# Poissons Ratio (x) = 0.65208 0.20208
# Poissons Ratio (y) = 0.38888 0.30735
# Poissons Ratio (z) = 0.07240 0.18466
#
# Static dielectric constant tensor:
#      x y z
#    x 1.695910 0.000000 0.013340 
#    y 0.000000 1.647350 0.000000 
#    z 0.013340 0.000000 1.589320 
# 
# From -- ./inp_files/138230.got.cif
#   From: 2010.05.17/outbox.cif.g08.bks.cpg/sg15_70_cif.got.tgz:138230.got - 2010.06.03 18:47:42.
