data_PCOD9266623
_publ_section_title
;
Structure prediction by ZEFSAII (Michael W. Deem and Ramdas Pophale) SiO2 
 PCOD9266623
Probable space group: C 2/C
;
_chemical_formula_sum "Si O2"
_cell_formula_units_Z 56
_cell_length_a 4.976514
_cell_length_b 18.506896
_cell_length_c 29.067267
_cell_angle_alpha 90.000000
_cell_angle_beta 74.998281
_cell_angle_gamma 90.000000
_cell_volume 2585.849835
_symmetry_space_group_name_H-M "C 2/C"
_symmetry_group_IT_number 15
_symmetry_cell_setting 'monoclinic'
loop_
_space_group_symop_operation_xyz
x,y,z
-x,y,1/2-z
-x,-y,-z
x,-y,1/2+z
1/2+x,1/2+y,z
1/2-x,1/2+y,1/2-z
1/2-x,1/2-y,-z
1/2+x,1/2-y,1/2+z
loop_
_atom_site_type_symbol
_atom_site_label
_atom_site_fract_x
_atom_site_fract_y
_atom_site_fract_z
Si Si1 0.985269 0.202026 0.516775
Si Si2 0.360920 0.966932 0.392607
Si Si3 0.551716 0.347650 0.616180
Si Si4 0.286722 0.188554 0.876215
Si Si5 0.064957 0.010397 0.161830
Si Si6 0.152520 0.397358 0.555637
Si Si7 0.311323 0.624260 0.718138
O O1 0.750000 0.250000 0.500000
O O2 0.930754 0.197025 0.573095
O O3 0.250000 0.250000 0.500000
O O4 0.114658 0.126672 0.491874
O O5 0.440615 0.882966 0.389047
O O6 0.605311 0.999578 0.350274
O O7 0.065212 0.980174 0.380857
O O8 0.363899 0.015944 0.437818
O O9 0.558456 0.264816 0.631067
O O10 0.526549 0.403987 0.659362
O O11 0.290944 0.363646 0.595345
O O12 0.833109 0.368105 0.573820
O O13 0.179793 0.166895 0.830583
O O14 0.916075 0.957458 0.203787
O O15 0.500000 0.656546 0.750000
O O16 0.000000 0.622909 0.750000
#
# Coordination Sequence:
#
# PCOD9266623 Si02
#       7
#     8   8   8   8   8   8   8
#     4  12  23  37  60  93 133 175 210 251 315 377
#     4   9  20  34  60  87 124 159 205 249 303 355
#     4  10  20  36  64  88 124 160 204 252 303 371
#     4  11  23  40  65  96 126 167 209 265 317 370
#     4   9  19  39  61  87 113 160 197 244 315 372
#     4  10  19  38  55  89 128 172 208 244 293 377
#     4  11  24  42  66  90 121 158 208 266 323 376
#
# _framework density 21.656323
#
# number of rings (size 3 to 8) (size 9 to 14) (size 15 to 20)
#    0.000    1.714    2.857    1.714    0.000    7.429 
#    0.000    0.714    0.000   18.857    0.000    0.000 
#    0.000    0.000    0.000    0.000    0.000    0.000 
#
# Total GULP energy -155905.963066 kJ/mol
# GULP energy per Si atom -5568.070110 kJ/mol
# Density = 2.160703 g / cm^3
# Si number density = 21.656323 Si / 1000 Ang^3
#
#
#
# Elastic Constant Matrix: (Units=GPa)
#
#
# Indices 1 2 3 4 5 6 
#
# 1 95.1290 -0.7046 23.7924 0.0000 -23.7830 0.0000
# 2 -0.7046 135.2245 24.1092 0.0000 -3.0714 0.0000
# 3 23.7924 24.1092 117.2157 0.0000 -5.1473 0.0000
# 4 0.0000 0.0000 0.0000 -11.3904 0.0000 31.3923
# 5 -23.7830 -3.0714 -5.1473 0.0000 -5.6655 0.0000
# 6 0.0000 0.0000 0.0000 31.3923 0.0000 2.9752
#
#
#
# Elastic Compliance Matrix: (Units=1/GPa)
#
#
# Indices 1 2 3 4 5 6 
#
# 1 0.005617 -0.000093 -0.002072 0.000000 -0.021648 0.000000
# 2 -0.000093 0.007638 -0.001651 0.000000 -0.002250 0.000000
# 3 -0.002072 -0.001651 0.009340 0.000000 0.001106 0.000000
# 4 0.000000 0.000000 0.000000 -0.002919 0.000000 0.030796
# 5 -0.021648 -0.002250 0.001106 0.000000 -0.085416 0.000000
# 6 0.000000 0.000000 0.000000 0.030796 0.000000 0.011174
#
#
# Mechanical properties :
#
#
# Convention : Reuss Voigt Hill
#
# Bulk Modulus (GPa) = 66.82812 49.10704 57.96758
# Shear Modulus (GPa) = -119.19831 17.20868 -50.99482
#
# Velocity S-wave (km/s) = -7.42700 2.82197 -4.85782
# Velocity P-wave (km/s) = 6.52853 5.77433 2.15393
#
# Compressibility (1/GPa) = 0.01496376
#
# Stress axis : x y z
#
# Youngs Moduli (GPa) = 178.02172 130.92685 107.06731
#
# Poissons Ratio (x) = 0.01219 0.22181
# Poissons Ratio (y) = 0.01657 0.17676
# Poissons Ratio (z) = 0.36881 0.21615
#
# Static dielectric constant tensor:
#      x y z
#    x 1.761530 0.000000 0.031160 
#    y 0.000000 1.883370 0.000000 
#    z 0.031160 0.000000 1.789010 
# 
# From -- ./inp_files/305613.got.cif
#   From: 2010.05.17/outbox.cif.g08.bks.cpg/sg15_153_cif.got.tgz:305613.got - 2010.06.03 18:47:42.
