data_PCOD9266625
_publ_section_title
;
Structure prediction by ZEFSAII (Michael W. Deem and Ramdas Pophale) SiO2 
 PCOD9266625
Probable space group: C 2/C
;
_chemical_formula_sum "Si O2"
_cell_formula_units_Z 48
_cell_length_a 25.758647
_cell_length_b 21.199621
_cell_length_c 8.452060
_cell_angle_alpha 90.000000
_cell_angle_beta 31.484019
_cell_angle_gamma 90.000000
_cell_volume 2410.466405
_symmetry_space_group_name_H-M "C 2/C"
_symmetry_group_IT_number 15
_symmetry_cell_setting 'monoclinic'
loop_
_space_group_symop_operation_xyz
x,y,z
-x,y,1/2-z
-x,-y,-z
x,-y,1/2+z
1/2+x,1/2+y,z
1/2-x,1/2+y,1/2-z
1/2-x,1/2-y,-z
1/2+x,1/2-y,1/2+z
loop_
_atom_site_type_symbol
_atom_site_label
_atom_site_fract_x
_atom_site_fract_y
_atom_site_fract_z
Si Si1 0.872394 0.765812 0.859342
Si Si2 0.331690 0.078746 0.264466
Si Si3 0.013177 0.655577 0.423889
Si Si4 0.599780 0.958953 0.260790
Si Si5 0.824238 0.811886 0.308855
Si Si6 0.638344 0.266097 0.963520
O O1 0.892397 0.791437 0.629289
O O2 0.943349 0.705774 0.693815
O O3 0.879827 0.807801 0.996651
O O4 0.757483 0.742776 0.150426
O O5 0.416504 0.118029 0.137251
O O6 0.237354 0.123862 0.521987
O O7 0.325238 0.008660 0.356304
O O8 0.362120 0.066021 0.005386
O O9 0.937576 0.602969 0.550391
O O10 0.085523 0.698462 0.128245
O O11 0.500000 0.000000 0.500000
O O12 0.750000 0.750000 0.500000
O O13 0.883868 0.804109 0.317784
#
# Coordination Sequence:
#
# PCOD9266625 Si02
#       6
#     8   8   8   8   8   8
#     4  10  21  34  54  83 111 161 196 240 309 345
#     4  11  22  39  54  84 123 169 204 240 300 368
#     4  11  20  34  59  81 127 162 193 246 297 370
#     4  10  22  33  52  79 114 164 200 229 288 365
#     4  10  19  38  56  75 117 158 199 252 290 349
#     4  10  21  34  52  85 110 158 201 238 304 355
#
# _framework density 19.913160000000001
#
# number of rings (size 3 to 8) (size 9 to 14) (size 15 to 20)
#    0.000    1.667    3.333    4.500    2.333    5.333 
#    3.000    0.000    0.000    0.000    0.000    0.000 
#    0.000   12.000    0.000    0.000    0.000    0.000 
#
# Total GULP energy -133833.284022 kJ/mol
# GULP energy per Si atom -5576.386834 kJ/mol
# Density = 1.986784 g / cm^3
# Si number density = 19.913160 Si / 1000 Ang^3
#
#
#
# Elastic Constant Matrix: (Units=GPa)
#
#
# Indices 1 2 3 4 5 6 
#
# 1 119.2043 42.0747 46.7834 0.0000 36.6819 0.0000
# 2 42.0747 102.3614 56.1746 0.0000 6.9854 0.0000
# 3 46.7834 56.1746 95.9568 0.0000 32.5482 0.0000
# 4 0.0000 0.0000 0.0000 42.4421 0.0000 -2.4096
# 5 36.6819 6.9854 32.5482 0.0000 48.9465 0.0000
# 6 0.0000 0.0000 0.0000 -2.4096 0.0000 37.1117
#
#
#
# Elastic Compliance Matrix: (Units=1/GPa)
#
#
# Indices 1 2 3 4 5 6 
#
# 1 0.012813 -0.004161 -0.000975 0.000000 -0.008360 0.000000
# 2 -0.004161 0.016587 -0.010248 0.000000 0.007566 0.000000
# 3 -0.000975 -0.010248 0.020857 0.000000 -0.011676 0.000000
# 4 0.000000 0.000000 0.000000 0.023649 0.000000 0.001535
# 5 -0.008360 0.007566 -0.011676 0.000000 0.033380 0.000000
# 6 0.000000 0.000000 0.000000 0.001535 0.000000 0.027045
#
#
# Mechanical properties :
#
#
# Convention : Reuss Voigt Hill
#
# Bulk Modulus (GPa) = 51.31336 67.50977 59.41157
# Shear Modulus (GPa) = 29.13824 37.19938 33.16881
#
# Velocity S-wave (km/s) = 3.82941 4.32682 4.08569
# Velocity P-wave (km/s) = 6.73625 7.67708 7.22200
#
# Compressibility (1/GPa) = 0.01948810
#
# Stress axis : x y z
#
# Youngs Moduli (GPa) = 78.04614 60.28695 47.94624
#
# Poissons Ratio (x) = 0.25084 0.04677
# Poissons Ratio (y) = 0.32474 0.49136
# Poissons Ratio (z) = 0.07613 0.61783
#
# Static dielectric constant tensor:
#      x y z
#    x 1.455110 0.000000 0.109010 
#    y 0.000000 1.693470 0.000000 
#    z 0.109010 0.000000 1.745990 
# 
# From -- ./inp_files/70549.got.cif
#   From: 2010.05.17/outbox.cif.g08.bks.cpg/sg15_36_cif.got.tgz:70549.got - 2010.06.03 18:47:42.
