data_PCOD9266479
_publ_section_title
;
Structure prediction by ZEFSAII (Michael W. Deem and Ramdas Pophale) SiO2 
 PCOD9266479
Probable space group: C 2/C
;
_chemical_formula_sum "Si O2"
_cell_formula_units_Z 64
_cell_length_a 9.956084
_cell_length_b 17.770979
_cell_length_c 16.513457
_cell_angle_alpha 90.000000
_cell_angle_beta 96.621265
_cell_angle_gamma 90.000000
_cell_volume 2902.227645
_symmetry_space_group_name_H-M "C 2/C"
_symmetry_group_IT_number 15
_symmetry_cell_setting 'monoclinic'
loop_
_space_group_symop_operation_xyz
x,y,z
-x,y,1/2-z
-x,-y,-z
x,-y,1/2+z
1/2+x,1/2+y,z
1/2-x,1/2+y,1/2-z
1/2-x,1/2-y,-z
1/2+x,1/2-y,1/2+z
loop_
_atom_site_type_symbol
_atom_site_label
_atom_site_fract_x
_atom_site_fract_y
_atom_site_fract_z
Si Si1 0.818295 0.132389 0.010689
Si Si2 0.942194 0.651949 0.336863
Si Si3 0.664756 0.990523 0.193351
Si Si4 0.845211 0.201574 0.768791
Si Si5 0.958561 0.722597 0.490855
Si Si6 0.212458 0.046843 0.642448
Si Si7 0.446155 0.543477 0.163138
Si Si8 0.579616 0.823594 0.170627
O O1 0.926632 0.189232 0.977334
O O2 0.889854 0.101106 0.094802
O O3 0.684974 0.179665 0.019013
O O4 0.767996 0.064816 0.949765
O O5 0.890520 0.567769 0.347052
O O6 0.836118 0.720738 0.317736
O O7 0.030510 0.683450 0.418327
O O8 0.000000 0.648762 0.250000
O O9 0.677392 0.994087 0.292848
O O10 0.588691 0.914641 0.164470
O O11 0.822363 0.988109 0.177438
O O12 0.802086 0.129010 0.817452
O O13 0.733211 0.204742 0.691359
O O14 0.000000 0.192037 0.750000
O O15 0.018031 0.709079 0.584181
O O16 0.072411 0.002605 0.638702
O O17 0.500000 0.580122 0.250000
O O18 0.500000 0.806944 0.250000
#
# Coordination Sequence:
#
# PCOD9266479 Si02
#       8
#     8   8   8   8   8   8   8   8
#     4  11  22  39  63  93 134 167 217 272 333 392
#     4  11  23  42  64  88 127 179 214 268 332 392
#     4  10  21  40  60  91 129 165 216 266 328 388
#     4  10  21  42  68  89 128 172 217 267 330 382
#     4  11  24  41  64  94 133 174 216 270 331 391
#     4  10  19  37  65  91 121 169 213 273 320 385
#     4  10  21  37  63  92 127 171 219 268 323 391
#     4  11  24  40  67 103 129 173 223 272 324 398
#
# _framework density 22.052026000000001
#
# number of rings (size 3 to 8) (size 9 to 14) (size 15 to 20)
#    0.000    1.500    2.500    4.125    1.750    3.000 
#    2.250    2.500    2.750    0.000    0.000    0.000 
#    0.000    0.000    0.000    0.000    0.000    0.000 
#
# Total GULP energy -178557.983020 kJ/mol
# GULP energy per Si atom -5579.936969 kJ/mol
# Density = 2.200183 g / cm^3
# Si number density = 22.052026 Si / 1000 Ang^3
#
#
#
# Elastic Constant Matrix: (Units=GPa)
#
#
# Indices 1 2 3 4 5 6 
#
# 1 37.1499 1.1996 8.4841 0.0000 2.6943 0.0000
# 2 1.1996 55.7261 32.8973 0.0000 14.9590 0.0000
# 3 8.4841 32.8973 138.3181 0.0000 11.7663 0.0000
# 4 0.0000 0.0000 0.0000 36.4979 0.0000 -0.0028
# 5 2.6943 14.9590 11.7663 0.0000 29.1124 0.0000
# 6 0.0000 0.0000 0.0000 -0.0028 0.0000 13.0216
#
#
#
# Elastic Compliance Matrix: (Units=1/GPa)
#
#
# Indices 1 2 3 4 5 6 
#
# 1 0.027453 0.001076 -0.001736 0.000000 -0.002392 0.000000
# 2 0.001076 0.023494 -0.004783 0.000000 -0.010238 0.000000
# 3 -0.001736 -0.004783 0.008545 0.000000 -0.000835 0.000000
# 4 0.000000 0.000000 0.000000 0.027399 0.000000 0.000006
# 5 -0.002392 -0.010238 -0.000835 0.000000 0.040169 0.000000
# 6 0.000000 0.000000 0.000000 0.000006 0.000000 0.076796
#
#
# Mechanical properties :
#
#
# Convention : Reuss Voigt Hill
#
# Bulk Modulus (GPa) = 20.57373 35.15067 27.86220
# Shear Modulus (GPa) = 21.65036 28.30059 24.97547
#
# Velocity S-wave (km/s) = 3.13674 3.58628 3.36902
# Velocity P-wave (km/s) = 4.74012 5.75526 5.27218
#
# Compressibility (1/GPa) = 0.04860567
#
# Stress axis : x y z
#
# Youngs Moduli (GPa) = 36.42558 42.56494 117.03048
#
# Poissons Ratio (x) = -0.04581 0.20321
# Poissons Ratio (y) = -0.03920 0.55972
# Poissons Ratio (z) = 0.06325 0.20358
#
# Static dielectric constant tensor:
#      x y z
#    x 1.875000 0.000000 -0.060610 
#    y 0.000000 1.800090 0.000000 
#    z -0.060610 0.000000 1.894640 
# 
# From -- ./inp_files/147169.got.cif
#   From: 2010.05.17/outbox.cif.g08.bks.cpg/sg15_74_cif.got.tgz:147169.got - 2010.06.03 18:47:42.
