data_PCOD9266626
_publ_section_title
;
Structure prediction by ZEFSAII (Michael W. Deem and Ramdas Pophale) SiO2 
 PCOD9266626
Probable space group: C 2/C
;
_chemical_formula_sum "Si O2"
_cell_formula_units_Z 56
_cell_length_a 10.054846
_cell_length_b 22.840354
_cell_length_c 14.843606
_cell_angle_alpha 90.000000
_cell_angle_beta 107.902723
_cell_angle_gamma 90.000000
_cell_volume 3243.865841
_symmetry_space_group_name_H-M "C 2/C"
_symmetry_group_IT_number 15
_symmetry_cell_setting 'monoclinic'
loop_
_space_group_symop_operation_xyz
x,y,z
-x,y,1/2-z
-x,-y,-z
x,-y,1/2+z
1/2+x,1/2+y,z
1/2-x,1/2+y,1/2-z
1/2-x,1/2-y,-z
1/2+x,1/2-y,1/2+z
loop_
_atom_site_type_symbol
_atom_site_label
_atom_site_fract_x
_atom_site_fract_y
_atom_site_fract_z
Si Si1 0.120542 0.189984 0.202560
Si Si2 0.920782 0.721652 0.326827
Si Si3 0.922914 0.942904 0.853954
Si Si4 0.384111 0.289908 0.005703
Si Si5 0.787972 0.077363 0.506720
Si Si6 0.207347 0.016913 0.342250
Si Si7 0.985354 0.414121 0.854789
O O1 0.257896 0.220545 0.270135
O O2 0.140894 0.119995 0.190171
O O3 0.000000 0.197249 0.250000
O O4 0.089309 0.212445 0.095764
O O5 0.956444 0.654877 0.361229
O O6 0.000000 0.733794 0.250000
O O7 0.982871 0.765638 0.412854
O O8 0.850484 0.989015 0.771681
O O9 0.087601 0.943806 0.866559
O O10 0.885174 0.951216 0.949533
O O11 0.341178 0.355918 0.023724
O O12 0.250000 0.250000 0.000000
O O13 0.631904 0.074012 0.433837
O O14 0.790707 0.042310 0.600194
O O15 0.357486 0.047997 0.367368
O O16 0.000000 0.424550 0.750000
#
# Coordination Sequence:
#
# PCOD9266626 Si02
#       7
#     8   8   8   8   8   8   8
#     4  11  20  37  62  85 112 150 198 248 291 348
#     4  11  19  35  63  86 111 157 199 243 289 347
#     4  10  19  38  56  79 115 147 190 236 285 357
#     4  11  21  38  59  85 118 155 198 244 288 351
#     4  11  22  35  58  84 114 151 196 238 290 350
#     4  11  20  34  57  85 112 146 184 244 291 336
#     4  11  18  34  59  85 111 149 198 238 283 342
#
# _framework density 17.263352999999999
#
# number of rings (size 3 to 8) (size 9 to 14) (size 15 to 20)
#    0.000    1.143    7.143    2.571    0.000    0.571 
#    2.571    0.000    0.000    2.571    0.000    0.000 
#    0.000    0.000    0.000    0.000    0.000    0.000 
#
# Total GULP energy -156212.881730 kJ/mol
# GULP energy per Si atom -5579.031490 kJ/mol
# Density = 1.722406 g / cm^3
# Si number density = 17.263353 Si / 1000 Ang^3
#
#
#
# Elastic Constant Matrix: (Units=GPa)
#
#
# Indices 1 2 3 4 5 6 
#
# 1 108.8731 43.2638 54.2330 0.0000 3.0783 0.0000
# 2 43.2638 78.3662 74.4809 0.0000 -4.3464 0.0000
# 3 54.2330 74.4809 105.1970 0.0000 -4.3522 0.0000
# 4 0.0000 0.0000 0.0000 49.6892 0.0000 -20.4886
# 5 3.0783 -4.3464 -4.3522 0.0000 33.8495 0.0000
# 6 0.0000 0.0000 0.0000 -20.4886 0.0000 46.1284
#
#
#
# Elastic Compliance Matrix: (Units=1/GPa)
#
#
# Indices 1 2 3 4 5 6 
#
# 1 0.012647 -0.002504 -0.004834 0.000000 -0.002093 0.000000
# 2 -0.002504 0.039581 -0.026655 0.000000 0.001883 0.000000
# 3 -0.004834 -0.026655 0.030911 0.000000 0.000991 0.000000
# 4 0.000000 0.000000 0.000000 0.024637 0.000000 0.010943
# 5 -0.002093 0.001883 0.000991 0.000000 0.030102 0.000000
# 6 0.000000 0.000000 0.000000 0.010943 0.000000 0.026539
#
#
# Mechanical properties :
#
#
# Convention : Reuss Voigt Hill
#
# Bulk Modulus (GPa) = 65.99159 70.71018 68.35088
# Shear Modulus (GPa) = 21.05672 33.96401 27.51036
#
# Velocity S-wave (km/s) = 3.49626 4.44036 3.99629
# Velocity P-wave (km/s) = 7.38971 8.20595 7.80850
#
# Compressibility (1/GPa) = 0.01515345
#
# Stress axis : x y z
#
# Youngs Moduli (GPa) = 79.06963 25.26473 32.35103
#
# Poissons Ratio (x) = 0.06327 0.15637
# Poissons Ratio (y) = 0.19801 0.86231
# Poissons Ratio (z) = 0.38219 0.67343
#
# Static dielectric constant tensor:
#      x y z
#    x 1.566770 0.000000 -0.009840 
#    y 0.000000 1.581640 0.000000 
#    z -0.009840 0.000000 1.586130 
# 
# From -- ./inp_files/137436.got.cif
#   From: 2010.05.17/outbox.cif.g08.bks.cpg/sg15_69_cif.got.tgz:137436.got - 2010.06.03 18:47:42.
