data_PCOD9266081
_publ_section_title
;
Structure prediction by ZEFSAII (Michael W. Deem and Ramdas Pophale) SiO2 
 PCOD9266081
Probable space group: C 2/C
;
_chemical_formula_sum "Si O2"
_cell_formula_units_Z 56
_cell_length_a 16.377381
_cell_length_b 14.072908
_cell_length_c 15.207385
_cell_angle_alpha 90.000000
_cell_angle_beta 144.385021
_cell_angle_gamma 90.000000
_cell_volume 2041.061657
_symmetry_space_group_name_H-M "C 2/C"
_symmetry_group_IT_number 15
_symmetry_cell_setting 'monoclinic'
loop_
_space_group_symop_operation_xyz
x,y,z
-x,y,1/2-z
-x,-y,-z
x,-y,1/2+z
1/2+x,1/2+y,z
1/2-x,1/2+y,1/2-z
1/2-x,1/2-y,-z
1/2+x,1/2-y,1/2+z
loop_
_atom_site_type_symbol
_atom_site_label
_atom_site_fract_x
_atom_site_fract_y
_atom_site_fract_z
Si Si1 0.836855 0.602425 0.855789
Si Si2 0.430123 0.816231 0.067683
Si Si3 0.472038 0.396511 0.586073
Si Si4 0.376351 0.575614 0.697688
Si Si5 0.544168 0.133144 0.196599
Si Si6 0.312264 0.964420 0.102571
Si Si7 0.248315 0.116930 0.252072
O O1 0.924428 0.646113 0.850330
O O2 0.684652 0.624281 0.767608
O O3 0.819159 0.487128 0.832881
O O4 0.936858 0.636304 0.023246
O O5 0.455814 0.707040 0.112918
O O6 0.633097 0.876195 0.406702
O O7 0.309094 0.822535 0.886627
O O8 0.556803 0.474856 0.714496
O O9 0.315117 0.435826 0.443569
O O10 0.580483 0.386057 0.600798
O O11 0.500000 0.623204 0.750000
O O12 0.254144 0.541833 0.523737
O O13 0.500000 0.176267 0.250000
O O14 0.692809 0.160772 0.285634
O O15 0.572800 0.022179 0.243342
#
# Coordination Sequence:
#
# PCOD9266081 Si02
#       7
#     8   8   8   8   8   8   8
#     4  10  19  37  60  83 112 154 198 240 277 336
#     4  11  20  37  58  88 118 154 195 227 289 349
#     4  10  22  38  56  81 126 159 181 230 291 358
#     4   9  18  36  58  81 118 152 185 233 292 336
#     4  11  19  33  61  92 108 142 202 249 272 332
#     4  11  20  36  57  91 116 149 191 230 294 345
#     4  10  21  40  57  79 118 156 195 237 285 337
#
# _framework density 27.436699999999998
#
# number of rings (size 3 to 8) (size 9 to 14) (size 15 to 20)
#    0.000    1.714    4.286    3.000    0.000    0.571 
#    7.714    0.000    0.000    4.286    0.000    0.000 
#    0.000    0.000    0.000    0.000    0.000    0.000 
#
# Total GULP energy -156519.095114 kJ/mol
# GULP energy per Si atom -5589.967683 kJ/mol
# Density = 2.737425 g / cm^3
# Si number density = 27.436700 Si / 1000 Ang^3
#
#
#
# Elastic Constant Matrix: (Units=GPa)
#
#
# Indices 1 2 3 4 5 6 
#
# 1 230.0531 19.0853 22.2159 -0.0001 23.9519 0.0000
# 2 19.0853 134.8477 0.3138 -0.0001 -1.3894 0.0000
# 3 22.2159 0.3138 79.7461 -0.0001 5.2854 -0.0001
# 4 -0.0001 -0.0001 -0.0001 -1.4289 -0.0001 11.8473
# 5 23.9519 -1.3894 5.2854 -0.0001 42.9087 -0.0001
# 6 0.0000 0.0000 -0.0001 11.8473 -0.0001 0.6905
#
#
#
# Elastic Compliance Matrix: (Units=1/GPa)
#
#
# Indices 1 2 3 4 5 6 
#
# 1 0.004782 -0.000700 -0.001161 0.000000 -0.002549 0.000000
# 2 -0.000700 0.007521 0.000125 0.000000 0.000619 0.000000
# 3 -0.001161 0.000125 0.012925 0.000000 -0.000940 0.000000
# 4 0.000000 0.000000 0.000000 -0.004886 0.000000 0.083818
# 5 -0.002549 0.000619 -0.000940 0.000000 0.024864 0.000000
# 6 0.000000 0.000000 0.000000 0.083818 0.000000 0.010109
#
#
# Mechanical properties :
#
#
# Convention : Reuss Voigt Hill
#
# Bulk Modulus (GPa) = 45.96576 58.65298 52.30937
# Shear Modulus (GPa) = 75.71036 35.30285 55.50661
#
# Velocity S-wave (km/s) = 5.25875 3.59095 4.50274
# Velocity P-wave (km/s) = 7.32546 6.21428 6.79263
#
# Compressibility (1/GPa) = 0.02175532
#
# Stress axis : x y z
#
# Youngs Moduli (GPa) = 209.09878 132.96108 77.36983
#
# Poissons Ratio (x) = 0.09313 0.08979
# Poissons Ratio (y) = 0.14646 -0.00963
# Poissons Ratio (z) = 0.24268 -0.01655
#
# Static dielectric constant tensor:
#      x y z
#    x 2.347800 0.000000 0.038740 
#    y 0.000000 2.136000 0.000000 
#    z 0.038740 0.000000 2.161440 
# 
# From -- ./inp_files/216062.got.cif
#   From: 2010.05.17/outbox.cif.g08.bks.cpg/sg15_109_cif.got.tgz:216062.got - 2010.06.03 18:47:42.
