data_PCOD9266642
_publ_section_title
;
Structure prediction by ZEFSAII (Michael W. Deem and Ramdas Pophale) SiO2 
 PCOD9266642
Probable space group: C 2/C
;
_chemical_formula_sum "Si O2"
_cell_formula_units_Z 56
_cell_length_a 17.301490
_cell_length_b 10.850054
_cell_length_c 16.621433
_cell_angle_alpha 90.000000
_cell_angle_beta 56.939876
_cell_angle_gamma 90.000000
_cell_volume 2615.043848
_symmetry_space_group_name_H-M "C 2/C"
_symmetry_group_IT_number 15
_symmetry_cell_setting 'monoclinic'
loop_
_space_group_symop_operation_xyz
x,y,z
-x,y,1/2-z
-x,-y,-z
x,-y,1/2+z
1/2+x,1/2+y,z
1/2-x,1/2+y,1/2-z
1/2-x,1/2-y,-z
1/2+x,1/2-y,1/2+z
loop_
_atom_site_type_symbol
_atom_site_label
_atom_site_fract_x
_atom_site_fract_y
_atom_site_fract_z
Si Si1 0.977129 0.702309 0.988704
Si Si2 0.355454 0.728884 0.855052
Si Si3 0.299561 0.951969 0.980595
Si Si4 0.165250 0.875687 0.477177
Si Si5 0.978321 0.093137 0.908399
Si Si6 0.874488 0.486490 0.109505
Si Si7 0.181620 0.096545 0.782517
O O1 0.058933 0.624751 0.901593
O O2 0.899444 0.757126 0.973447
O O3 0.926833 0.615264 0.083272
O O4 0.016301 0.815210 0.018755
O O5 0.344178 0.871961 0.883974
O O6 0.443777 0.672519 0.851533
O O7 0.336373 0.704822 0.772088
O O8 0.276596 0.642730 0.940600
O O9 0.251168 0.078710 0.981084
O O10 0.366334 0.970511 0.017356
O O11 0.195540 0.865804 0.366866
O O12 0.095345 0.989560 0.529236
O O13 0.079826 0.034712 0.837561
O O14 0.771973 0.477759 0.203279
#
# Coordination Sequence:
#
# PCOD9266642 Si02
#       7
#     8   8   8   8   8   8   8
#     4  10  20  37  55  81 116 157 191 235 299 367
#     4   9  17  32  59  84 113 142 196 234 292 338
#     4   9  18  35  58  83 109 155 187 241 288 353
#     4  10  22  36  57  86 120 150 194 244 307 343
#     4  10  19  38  57  87 116 151 191 244 300 349
#     4  10  21  37  59  81 116 157 202 234 293 361
#     4  10  20  33  53  90 109 148 191 251 283 347
#
# _framework density 21.414556000000001
#
# number of rings (size 3 to 8) (size 9 to 14) (size 15 to 20)
#    0.000    2.286    1.429    2.143    2.000    2.857 
#    5.143    0.000    0.000    0.000    7.429    0.000 
#    0.000    0.000    0.000    0.000    0.000    0.000 
#
# Total GULP energy -155977.588607 kJ/mol
# GULP energy per Si atom -5570.628165 kJ/mol
# Density = 2.136582 g / cm^3
# Si number density = 21.414556 Si / 1000 Ang^3
#
#
#
# Elastic Constant Matrix: (Units=GPa)
#
#
# Indices 1 2 3 4 5 6 
#
# 1 88.3040 30.4048 8.5296 0.0000 -6.7508 0.0000
# 2 30.4048 72.5246 2.6587 0.0000 -10.0734 0.0000
# 3 8.5296 2.6587 50.4875 0.0000 -8.1071 0.0000
# 4 0.0000 0.0000 0.0000 16.8889 0.0000 -5.4262
# 5 -6.7508 -10.0734 -8.1071 0.0000 33.7535 0.0000
# 6 0.0000 0.0000 0.0000 -5.4262 0.0000 35.4159
#
#
#
# Elastic Compliance Matrix: (Units=1/GPa)
#
#
# Indices 1 2 3 4 5 6 
#
# 1 0.013440 -0.005482 -0.001886 0.000000 0.000599 0.000000
# 2 -0.005482 0.016621 0.000698 0.000000 0.004032 0.000000
# 3 -0.001886 0.000698 0.020866 0.000000 0.004843 0.000000
# 4 0.000000 0.000000 0.000000 0.062276 0.000000 0.009542
# 5 0.000599 0.004032 0.004843 0.000000 0.032113 0.000000
# 6 0.000000 0.000000 0.000000 0.009542 0.000000 0.029698
#
#
# Mechanical properties :
#
#
# Convention : Reuss Voigt Hill
#
# Bulk Modulus (GPa) = 26.60399 32.72245 29.66322
# Shear Modulus (GPa) = 24.89011 28.52654 26.70832
#
# Velocity S-wave (km/s) = 3.41295 3.65377 3.53541
# Velocity P-wave (km/s) = 5.28973 5.75445 5.52698
#
# Compressibility (1/GPa) = 0.03758835
#
# Stress axis : x y z
#
# Youngs Moduli (GPa) = 74.40423 60.16431 47.92393
#
# Poissons Ratio (x) = 0.32983 0.09037
# Poissons Ratio (y) = 0.40790 -0.03347
# Poissons Ratio (z) = 0.14031 -0.04201
#
# Static dielectric constant tensor:
#      x y z
#    x 1.836590 0.000000 -0.027810 
#    y 0.000000 1.811660 0.000000 
#    z -0.027810 0.000000 1.810340 
# 
# From -- ./inp_files/214785.got.cif
#   From: 2010.05.17/outbox.cif.g08.bks.cpg/sg15_108_cif.got.tgz:214785.got - 2010.06.03 18:47:42.
