data_PCOD9266827
_publ_section_title
;
Structure prediction by ZEFSAII (Michael W. Deem and Ramdas Pophale) SiO2 
 PCOD9266827
Probable space group: C 2/C
;
_chemical_formula_sum "Si O2"
_cell_formula_units_Z 56
_cell_length_a 21.687613
_cell_length_b 21.285636
_cell_length_c 11.552564
_cell_angle_alpha 90.000000
_cell_angle_beta 147.466959
_cell_angle_gamma 90.000000
_cell_volume 2868.046349
_symmetry_space_group_name_H-M "C 2/C"
_symmetry_group_IT_number 15
_symmetry_cell_setting 'monoclinic'
loop_
_space_group_symop_operation_xyz
x,y,z
-x,y,1/2-z
-x,-y,-z
x,-y,1/2+z
1/2+x,1/2+y,z
1/2-x,1/2+y,1/2-z
1/2-x,1/2-y,-z
1/2+x,1/2-y,1/2+z
loop_
_atom_site_type_symbol
_atom_site_label
_atom_site_fract_x
_atom_site_fract_y
_atom_site_fract_z
Si Si1 0.557057 0.020521 0.466415
Si Si2 0.375493 0.620754 0.073790
Si Si3 0.818127 0.982438 0.917051
Si Si4 0.088110 0.881473 0.605504
Si Si5 0.824553 0.882711 0.130151
Si Si6 0.370015 0.711059 0.516452
Si Si7 0.830796 0.354598 0.407359
O O1 0.500000 0.003901 0.250000
O O2 0.575317 0.096596 0.491707
O O3 0.500000 0.000000 0.500000
O O4 0.685102 0.991715 0.674267
O O5 0.500000 0.650457 0.250000
O O6 0.362417 0.614168 0.189274
O O7 0.372619 0.550658 0.016982
O O8 0.269252 0.654362 0.845644
O O9 0.883197 0.942960 0.923107
O O10 0.826973 0.942446 0.049314
O O11 0.149308 0.824087 0.635003
O O12 0.949703 0.874295 0.386878
O O13 0.800311 0.822426 0.008842
O O14 0.728819 0.887211 0.076202
O O15 0.500000 0.691238 0.750000
O O16 0.366607 0.785297 0.501534
#
# Coordination Sequence:
#
# PCOD9266827 Si02
#       7
#     8   8   8   8   8   8   8
#     4  11  25  42  60  86 123 160 210 256 294 364
#     4  11  22  34  56  89 121 154 183 236 301 358
#     4  10  23  35  61  86 116 156 189 234 309 352
#     4  10  21  38  59  87 126 145 190 248 296 362
#     4  10  19  38  61  93 116 148 196 251 297 358
#     4   9  20  38  59  84 114 156 201 250 290 344
#     4  11  22  36  63  86 114 160 201 241 300 354
#
# _framework density 19.525486000000001
#
# number of rings (size 3 to 8) (size 9 to 14) (size 15 to 20)
#    0.000    1.714    1.429    3.857    8.000    1.714 
#    0.000    1.429    0.000    0.000    0.000    0.000 
#    0.000    0.000    0.000    0.000    0.000    0.000 
#
# Total GULP energy -156252.021252 kJ/mol
# GULP energy per Si atom -5580.429330 kJ/mol
# Density = 1.948105 g / cm^3
# Si number density = 19.525486 Si / 1000 Ang^3
#
#
#
# Elastic Constant Matrix: (Units=GPa)
#
#
# Indices 1 2 3 4 5 6 
#
# 1 98.7141 13.9434 17.4069 0.0000 -13.6309 0.0000
# 2 13.9434 57.9263 -8.1485 0.0000 0.2307 0.0000
# 3 17.4069 -8.1485 79.7051 0.0000 -7.7583 0.0000
# 4 0.0000 0.0000 0.0000 16.6071 0.0000 3.3705
# 5 -13.6309 0.2307 -7.7583 0.0000 28.2331 0.0000
# 6 0.0000 0.0000 0.0000 3.3705 0.0000 14.2535
#
#
#
# Elastic Compliance Matrix: (Units=1/GPa)
#
#
# Indices 1 2 3 4 5 6 
#
# 1 0.011692 -0.003170 -0.002389 0.000000 0.005014 0.000000
# 2 -0.003170 0.018378 0.002474 0.000000 -0.001001 0.000000
# 3 -0.002389 0.002474 0.013570 0.000000 0.002555 0.000000
# 4 0.000000 0.000000 0.000000 0.063251 0.000000 -0.014957
# 5 0.005014 -0.001001 0.002555 0.000000 0.038551 0.000000
# 6 0.000000 0.000000 0.000000 -0.014957 0.000000 0.073695
#
#
# Mechanical properties :
#
#
# Convention : Reuss Voigt Hill
#
# Bulk Modulus (GPa) = 26.68953 31.41657 29.05305
# Shear Modulus (GPa) = 21.02629 26.02831 23.52730
#
# Velocity S-wave (km/s) = 3.28512 3.65505 3.47501
# Velocity P-wave (km/s) = 5.29982 5.82559 5.56891
#
# Compressibility (1/GPa) = 0.03746787
#
# Stress axis : x y z
#
# Youngs Moduli (GPa) = 85.53001 54.41160 73.69367
#
# Poissons Ratio (x) = 0.17251 0.17609
# Poissons Ratio (y) = 0.27116 -0.18231
# Poissons Ratio (z) = 0.20437 -0.13461
#
# Static dielectric constant tensor:
#      x y z
#    x 1.712100 0.000000 -0.003020 
#    y 0.000000 1.665560 0.000000 
#    z -0.003020 0.000000 1.703810 
# 
# From -- ./inp_files/119872.got.cif
#   From: 2010.05.17/outbox.cif.g08.bks.cpg/sg15_60_cif.got.tgz:119872.got - 2010.06.03 18:47:42.
