data_PCOD9266983
_publ_section_title
;
Structure prediction by ZEFSAII (Michael W. Deem and Ramdas Pophale) SiO2 
 PCOD9266983
Probable space group: C 2/C
;
_chemical_formula_sum "Si O2"
_cell_formula_units_Z 56
_cell_length_a 16.345121
_cell_length_b 9.979107
_cell_length_c 15.402078
_cell_angle_alpha 90.000000
_cell_angle_beta 105.762962
_cell_angle_gamma 90.000000
_cell_volume 2417.753140
_symmetry_space_group_name_H-M "C 2/C"
_symmetry_group_IT_number 15
_symmetry_cell_setting 'monoclinic'
loop_
_space_group_symop_operation_xyz
x,y,z
-x,y,1/2-z
-x,-y,-z
x,-y,1/2+z
1/2+x,1/2+y,z
1/2-x,1/2+y,1/2-z
1/2-x,1/2-y,-z
1/2+x,1/2-y,1/2+z
loop_
_atom_site_type_symbol
_atom_site_label
_atom_site_fract_x
_atom_site_fract_y
_atom_site_fract_z
Si Si1 0.220450 0.462815 0.534174
Si Si2 0.561874 0.963052 0.095090
Si Si3 0.796848 0.300401 0.128190
Si Si4 0.803611 0.785572 0.124531
Si Si5 0.984394 0.701949 0.149691
Si Si6 0.134631 0.798445 0.669888
Si Si7 0.625747 0.607356 0.670391
O O1 0.154834 0.484662 0.594320
O O2 0.173305 0.409218 0.434203
O O3 0.283079 0.342156 0.577617
O O4 0.270646 0.602405 0.547781
O O5 0.569146 0.805650 0.109353
O O6 0.525918 0.055400 0.160215
O O7 0.500000 0.000000 0.000000
O O8 0.848023 0.267419 0.230301
O O9 0.705481 0.356788 0.132548
O O10 0.883915 0.708957 0.105441
O O11 0.723299 0.705885 0.140983
O O12 0.840133 0.857420 0.222513
O O13 0.000000 0.755852 0.250000
O O14 0.046371 0.802060 0.115819
O O15 0.105260 0.950544 0.664551
#
# Coordination Sequence:
#
# PCOD9266983 Si02
#       7
#     8   8   8   8   8   8   8
#     4  10  20  40  61  94 123 164 209 258 311 375
#     4  11  25  44  61  91 131 167 207 266 317 377
#     4  10  20  36  67  89 123 162 209 259 314 370
#     4   9  20  37  65  89 126 163 214 257 307 384
#     4  10  22  41  65  88 127 168 205 257 326 376
#     4  10  22  40  68  93 122 164 222 259 308 378
#     4  10  19  38  63  96 121 164 209 261 313 374
#
# _framework density 23.161999999999999
#
# number of rings (size 3 to 8) (size 9 to 14) (size 15 to 20)
#    0.000    2.000    2.857    0.000    0.000    3.429 
#    5.143    6.429    0.000    0.000    0.000    0.000 
#    0.000    0.000    0.000    0.000    0.000    0.000 
#
# Total GULP energy -156375.175694 kJ/mol
# GULP energy per Si atom -5584.827703 kJ/mol
# Density = 2.310928 g / cm^3
# Si number density = 23.162000 Si / 1000 Ang^3
#
#
#
# Elastic Constant Matrix: (Units=GPa)
#
#
# Indices 1 2 3 4 5 6 
#
# 1 55.9977 34.5415 3.3680 0.0000 5.7062 0.0000
# 2 34.5415 111.1065 -0.3775 0.0000 3.5011 0.0000
# 3 3.3680 -0.3775 58.5993 0.0000 -2.5975 0.0000
# 4 0.0000 0.0000 0.0000 31.1822 0.0000 4.8162
# 5 5.7062 3.5011 -2.5975 0.0000 30.4694 0.0000
# 6 0.0000 0.0000 0.0000 4.8162 0.0000 26.8038
#
#
#
# Elastic Compliance Matrix: (Units=1/GPa)
#
#
# Indices 1 2 3 4 5 6 
#
# 1 0.022574 -0.006911 -0.001500 0.000000 -0.003561 0.000000
# 2 -0.006911 0.011149 0.000471 0.000000 0.000053 0.000000
# 3 -0.001500 0.000471 0.017229 0.000000 0.001696 0.000000
# 4 0.000000 0.000000 0.000000 0.032985 0.000000 -0.005927
# 5 -0.003561 0.000053 0.001696 0.000000 0.033625 0.000000
# 6 0.000000 0.000000 0.000000 -0.005927 0.000000 0.038373
#
#
# Mechanical properties :
#
#
# Convention : Reuss Voigt Hill
#
# Bulk Modulus (GPa) = 28.51147 33.41863 30.96505
# Shear Modulus (GPa) = 27.24721 30.23583 28.74152
#
# Velocity S-wave (km/s) = 3.43355 3.61696 3.52645
# Velocity P-wave (km/s) = 5.29673 5.64825 5.47531
#
# Compressibility (1/GPa) = 0.03507360
#
# Stress axis : x y z
#
# Youngs Moduli (GPa) = 44.29909 89.69603 58.04016
#
# Poissons Ratio (x) = 0.61987 0.08705
# Poissons Ratio (y) = 0.30614 -0.02736
# Poissons Ratio (z) = 0.06644 -0.04228
#
# Static dielectric constant tensor:
#      x y z
#    x 1.941060 0.000000 -0.084610 
#    y 0.000000 2.314240 0.000000 
#    z -0.084610 0.000000 2.048600 
# 
# From -- ./inp_files/209650.got.cif
#   From: 2010.05.17/outbox.cif.g08.bks.cpg/sg15_105_cif.got.tgz:209650.got - 2010.06.03 18:47:42.
