data_PCOD9266019
_publ_section_title
;
Structure prediction by ZEFSAII (Michael W. Deem and Ramdas Pophale) SiO2 
 PCOD9266019
Probable space group: C 2/C
;
_chemical_formula_sum "Si O2"
_cell_formula_units_Z 48
_cell_length_a 6.510365
_cell_length_b 27.234450
_cell_length_c 14.982314
_cell_angle_alpha 90.000000
_cell_angle_beta 67.331188
_cell_angle_gamma 90.000000
_cell_volume 2451.240711
_symmetry_space_group_name_H-M "C 2/C"
_symmetry_group_IT_number 15
_symmetry_cell_setting 'monoclinic'
loop_
_space_group_symop_operation_xyz
x,y,z
-x,y,1/2-z
-x,-y,-z
x,-y,1/2+z
1/2+x,1/2+y,z
1/2-x,1/2+y,1/2-z
1/2-x,1/2-y,-z
1/2+x,1/2-y,1/2+z
loop_
_atom_site_type_symbol
_atom_site_label
_atom_site_fract_x
_atom_site_fract_y
_atom_site_fract_z
Si Si1 0.143616 0.627835 0.137591
Si Si2 0.926514 0.223483 0.857724
Si Si3 0.978331 0.443289 0.980869
Si Si4 0.351837 0.375879 0.988397
Si Si5 0.472313 0.793582 0.518693
Si Si6 0.946589 0.105963 0.859002
O O1 0.090412 0.573687 0.106944
O O2 0.409583 0.632094 0.098023
O O3 0.000000 0.636285 0.250000
O O4 0.075722 0.666841 0.071791
O O5 0.938342 0.164880 0.854484
O O6 0.000000 0.242972 0.750000
O O7 0.082147 0.248874 0.905651
O O8 0.665861 0.229881 0.924915
O O9 0.209845 0.416602 0.961474
O O10 0.786103 0.418343 0.073686
O O11 0.000000 0.500000 0.000000
O O12 0.210078 0.325320 0.003271
O O13 0.391565 0.397588 0.081707
O O14 0.000000 0.087906 0.750000
#
# Coordination Sequence:
#
# PCOD9266019 Si02
#       6
#     8   8   8   8   8   8
#     4  10  21  40  61  88 121 159 201 257 303 359
#     4  10  19  37  59  86 131 161 200 253 291 355
#     4  10  22  42  59  89 120 156 206 254 312 366
#     4  10  20  40  64  83 118 164 196 254 312 358
#     4  10  20  37  60  88 124 162 203 248 294 362
#     4  10  21  40  59  89 126 161 200 255 302 363
#
# _framework density 19.581921999999999
#
# number of rings (size 3 to 8) (size 9 to 14) (size 15 to 20)
#    0.000    2.000    5.000    0.500    0.000    6.667 
#    6.000    0.000    0.000    0.000    0.000    0.000 
#    0.000    0.000    0.000    0.000    0.000    0.000 
#
# Total GULP energy -133624.349610 kJ/mol
# GULP energy per Si atom -5567.681234 kJ/mol
# Density = 1.953735 g / cm^3
# Si number density = 19.581922 Si / 1000 Ang^3
#
#
#
# Elastic Constant Matrix: (Units=GPa)
#
#
# Indices 1 2 3 4 5 6 
#
# 1 115.6643 37.1856 38.9407 0.0000 -8.8404 0.0000
# 2 37.1856 105.8855 18.4619 0.0000 -4.4749 0.0000
# 3 38.9407 18.4619 125.0912 0.0000 -12.7657 0.0000
# 4 0.0000 0.0000 0.0000 -82.9097 0.0000 276.6611
# 5 -8.8404 -4.4749 -12.7657 0.0000 9.5487 0.0000
# 6 0.0000 0.0000 0.0000 276.6611 0.0000 -721.4702
#
#
#
# Elastic Compliance Matrix: (Units=1/GPa)
#
#
# Indices 1 2 3 4 5 6 
#
# 1 0.010878 -0.003179 -0.002364 0.000000 0.005421 0.000000
# 2 -0.003179 0.010700 -0.000438 0.000000 0.001486 0.000000
# 3 -0.002364 -0.000438 0.009901 0.000000 0.010843 0.000000
# 4 0.000000 0.000000 0.000000 0.043138 0.000000 0.016542
# 5 0.005421 0.001486 0.010843 0.000000 0.124938 0.000000
# 6 0.000000 0.000000 0.000000 0.016542 0.000000 0.004957
#
#
# Mechanical properties :
#
#
# Convention : Reuss Voigt Hill
#
# Bulk Modulus (GPa) = 51.23647 59.53526 55.38587
# Shear Modulus (GPa) = 22.42359 -142.16271 -59.86956
#
# Velocity S-wave (km/s) = 3.38763 -8.52975 -5.53537
# Velocity P-wave (km/s) = 6.44386 8.15718 3.53668
#
# Compressibility (1/GPa) = 0.01951735
#
# Stress axis : x y z
#
# Youngs Moduli (GPa) = 91.92948 93.46056 100.99749
#
# Poissons Ratio (x) = 0.29710 0.23875
# Poissons Ratio (y) = 0.29224 0.04423
# Poissons Ratio (z) = 0.21731 0.04093
#
# Static dielectric constant tensor:
#      x y z
#    x 1.714400 0.000000 0.019180 
#    y 0.000000 1.724510 0.000000 
#    z 0.019180 0.000000 1.733530 
# 
# From -- ./inp_files/130316.got.cif
#   From: 2010.05.17/outbox.cif.g08.bks.cpg/sg15_66_cif.got.tgz:130316.got - 2010.06.03 18:47:42.
