data_PCOD9266441
_publ_section_title
;
Structure prediction by ZEFSAII (Michael W. Deem and Ramdas Pophale) SiO2 
 PCOD9266441
Probable space group: C 2/C
;
_chemical_formula_sum "Si O2"
_cell_formula_units_Z 56
_cell_length_a 31.355274
_cell_length_b 11.187811
_cell_length_c 14.522791
_cell_angle_alpha 90.000000
_cell_angle_beta 31.430444
_cell_angle_gamma 90.000000
_cell_volume 2656.619665
_symmetry_space_group_name_H-M "C 2/C"
_symmetry_group_IT_number 15
_symmetry_cell_setting 'monoclinic'
loop_
_space_group_symop_operation_xyz
x,y,z
-x,y,1/2-z
-x,-y,-z
x,-y,1/2+z
1/2+x,1/2+y,z
1/2-x,1/2+y,1/2-z
1/2-x,1/2-y,-z
1/2+x,1/2-y,1/2+z
loop_
_atom_site_type_symbol
_atom_site_label
_atom_site_fract_x
_atom_site_fract_y
_atom_site_fract_z
Si Si1 0.894767 0.039491 0.583721
Si Si2 0.843364 0.200336 0.088746
Si Si3 0.615758 0.009771 0.706235
Si Si4 0.936172 0.876654 0.681583
Si Si5 0.044442 0.651575 0.993557
Si Si6 0.301183 0.759846 0.501589
Si Si7 0.241976 0.316987 0.419966
O O1 0.869620 0.935478 0.559506
O O2 0.905157 0.974109 0.664671
O O3 0.826837 0.142192 0.717338
O O4 0.985407 0.088691 0.404095
O O5 0.914945 0.287870 0.992972
O O6 0.765647 0.226109 0.297637
O O7 0.813981 0.236923 0.042962
O O8 0.604346 0.057181 0.831804
O O9 0.633654 0.130967 0.617036
O O10 0.695134 0.936620 0.534218
O O11 0.537827 0.922992 0.834608
O O12 0.961547 0.761462 0.569868
O O13 0.860615 0.852299 0.887927
O O14 0.250000 0.750000 0.500000
O O15 0.250000 0.250000 0.500000
#
# Coordination Sequence:
#
# PCOD9266441 Si02
#       7
#     8   8   8   8   8   8   8
#     4  10  20  41  62  97 128 169 210 265 323 388
#     4  11  23  41  66  95 132 168 223 262 317 395
#     4  10  19  37  64  95 130 170 209 259 329 375
#     4   9  18  35  70  92 129 165 209 260 325 391
#     4   9  19  36  67  98 126 172 214 258 320 396
#     4  11  17  39  67  98 125 171 213 257 321 392
#     4  12  26  41  64  92 132 171 222 274 322 375
#
# _framework density 21.079419999999999
#
# number of rings (size 3 to 8) (size 9 to 14) (size 15 to 20)
#    0.000    1.714    5.714    0.857    0.000    1.714 
#    0.000    0.714   12.571    0.000    0.000    0.000 
#    0.000    0.000    0.000    0.000    0.000    0.000 
#
# Total GULP energy -156182.426906 kJ/mol
# GULP energy per Si atom -5577.943818 kJ/mol
# Density = 2.103144 g / cm^3
# Si number density = 21.079420 Si / 1000 Ang^3
#
#
#
# Elastic Constant Matrix: (Units=GPa)
#
#
# Indices 1 2 3 4 5 6 
#
# 1 110.8545 51.4828 8.1604 0.0000 -10.9288 0.0000
# 2 51.4828 46.2394 10.0405 0.0000 -13.1976 0.0000
# 3 8.1604 10.0405 55.6072 0.0000 -21.5929 0.0000
# 4 0.0000 0.0000 0.0000 47.3710 0.0000 -13.3577
# 5 -10.9288 -13.1976 -21.5929 0.0000 25.1685 0.0000
# 6 0.0000 0.0000 0.0000 -13.3577 0.0000 13.5674
#
#
#
# Elastic Compliance Matrix: (Units=1/GPa)
#
#
# Indices 1 2 3 4 5 6 
#
# 1 0.018915 -0.022014 -0.000141 0.000000 -0.003451 0.000000
# 2 -0.022014 0.051083 0.001044 0.000000 0.018123 0.000000
# 3 -0.000141 0.001044 0.026999 0.000000 0.023650 0.000000
# 4 0.000000 0.000000 0.000000 0.029223 0.000000 0.028771
# 5 -0.003451 0.018123 0.023650 0.000000 0.068027 0.000000
# 6 0.000000 0.000000 0.000000 0.028771 0.000000 0.102033
#
#
# Mechanical properties :
#
#
# Convention : Reuss Voigt Hill
#
# Bulk Modulus (GPa) = 18.25644 39.11872 28.68758
# Shear Modulus (GPa) = 14.01513 26.75588 20.38550
#
# Velocity S-wave (km/s) = 2.58131 3.56657 3.11317
# Velocity P-wave (km/s) = 4.19092 5.96311 5.15376
#
# Compressibility (1/GPa) = 0.05477521
#
# Stress axis : x y z
#
# Youngs Moduli (GPa) = 52.86920 19.57610 37.03873
#
# Poissons Ratio (x) = 0.43095 0.00522
# Poissons Ratio (y) = 1.16386 -0.03868
# Poissons Ratio (z) = 0.00745 -0.02045
#
# Static dielectric constant tensor:
#      x y z
#    x 1.738230 0.000000 -0.003760 
#    y 0.000000 1.826550 0.000000 
#    z -0.003760 0.000000 1.773710 
# 
# From -- ./inp_files/181888.got.cif
#   From: 2010.05.17/outbox.cif.g08.bks.cpg/sg15_91_cif.got.tgz:181888.got - 2010.06.03 18:47:42.
