data_PCOD9266336
_publ_section_title
;
Structure prediction by ZEFSAII (Michael W. Deem and Ramdas Pophale) SiO2 
 PCOD9266336
Probable space group: C 2/C
;
_chemical_formula_sum "Si O2"
_cell_formula_units_Z 48
_cell_length_a 8.322272
_cell_length_b 12.316062
_cell_length_c 22.696236
_cell_angle_alpha 90.000000
_cell_angle_beta 76.289556
_cell_angle_gamma 90.000000
_cell_volume 2260.024088
_symmetry_space_group_name_H-M "C 2/C"
_symmetry_group_IT_number 15
_symmetry_cell_setting 'monoclinic'
loop_
_space_group_symop_operation_xyz
x,y,z
-x,y,1/2-z
-x,-y,-z
x,-y,1/2+z
1/2+x,1/2+y,z
1/2-x,1/2+y,1/2-z
1/2-x,1/2-y,-z
1/2+x,1/2-y,1/2+z
loop_
_atom_site_type_symbol
_atom_site_label
_atom_site_fract_x
_atom_site_fract_y
_atom_site_fract_z
Si Si1 0.383889 0.045352 0.356756
Si Si2 0.384695 0.576672 0.335252
Si Si3 0.667032 0.259303 0.071095
Si Si4 0.314520 0.124942 0.667311
Si Si5 0.264595 0.333112 0.737817
Si Si6 0.020947 0.977753 0.429577
O O1 0.523182 0.951366 0.345011
O O2 0.206906 0.995504 0.391024
O O3 0.405639 0.144512 0.401173
O O4 0.359460 0.105877 0.295853
O O5 0.339653 0.456262 0.318570
O O6 0.561613 0.617146 0.299161
O O7 0.253736 0.646413 0.308638
O O8 0.400827 0.561002 0.403772
O O9 0.798062 0.301178 0.109710
O O10 0.534589 0.355399 0.078759
O O11 0.750000 0.250000 0.000000
O O12 0.286235 0.206707 0.723125
O O13 0.000000 0.000000 0.500000
#
# Coordination Sequence:
#
# PCOD9266336 Si02
#       6
#     8   8   8   8   8   8
#     4  10  21  37  60  88 118 158 200 246 300 356
#     4   9  20  38  59  85 117 159 197 241 305 357
#     4  10  20  38  59  82 123 161 194 245 295 352
#     4  10  22  38  60  91 117 153 202 248 298 359
#     4   9  20  39  59  81 119 155 192 250 298 354
#     4  10  19  37  63  88 123 165 200 245 303 361
#
# _framework density 21.238710999999999
#
# number of rings (size 3 to 8) (size 9 to 14) (size 15 to 20)
#    0.000    2.333    1.667    0.000    0.000    5.333 
#    0.000   10.833    0.000    0.000    0.000    0.000 
#    0.000    0.000    0.000    0.000    0.000    0.000 
#
# Total GULP energy -133769.914078 kJ/mol
# GULP energy per Si atom -5573.746420 kJ/mol
# Density = 2.119037 g / cm^3
# Si number density = 21.238711 Si / 1000 Ang^3
#
#
#
# Elastic Constant Matrix: (Units=GPa)
#
#
# Indices 1 2 3 4 5 6 
#
# 1 53.6049 47.8179 37.2175 0.0000 -2.9724 0.0000
# 2 47.8179 122.3858 44.6376 0.0000 10.4409 0.0000
# 3 37.2175 44.6376 102.0342 0.0000 31.0759 0.0000
# 4 0.0000 0.0000 0.0000 -540.8043 0.0000 926.3328
# 5 -2.9724 10.4409 31.0759 0.0000 34.5082 0.0000
# 6 0.0000 0.0000 0.0000 926.3328 0.0000-1467.0116
#
#
#
# Elastic Compliance Matrix: (Units=1/GPa)
#
#
# Indices 1 2 3 4 5 6 
#
# 1 0.043054 -0.012494 -0.017250 0.000000 0.023023 0.000000
# 2 -0.012494 0.013386 0.000362 0.000000 -0.005452 0.000000
# 3 -0.017250 0.000362 0.022626 0.000000 -0.021971 0.000000
# 4 0.000000 0.000000 0.000000 0.022665 0.000000 0.014312
# 5 0.023023 -0.005452 -0.021971 0.000000 0.052397 0.000000
# 6 0.000000 0.000000 0.000000 0.014312 0.000000 0.008355
#
#
# Mechanical properties :
#
#
# Convention : Reuss Voigt Hill
#
# Bulk Modulus (GPa) = 49.26008 59.70786 54.48397
# Shear Modulus (GPa) = 21.92855 -384.77141 -181.42143
#
# Velocity S-wave (km/s) = 3.21671 -13.47436 -9.25233
# Velocity P-wave (km/s) = 6.08606 14.62546 9.40383
#
# Compressibility (1/GPa) = 0.02030041
#
# Stress axis : x y z
#
# Youngs Moduli (GPa) = 23.22687 74.70680 44.19734
#
# Poissons Ratio (x) = 0.93340 0.76241
# Poissons Ratio (y) = 0.29020 -0.01600
# Poissons Ratio (z) = 0.40066 -0.02704
#
# Static dielectric constant tensor:
#      x y z
#    x 1.816690 0.000000 0.052870 
#    y 0.000000 1.649940 0.000000 
#    z 0.052870 0.000000 1.798410 
# 
# From -- ./inp_files/263103.got.cif
#   From: 2010.05.17/outbox.cif.g08.bks.cpg/sg15_132_cif.got.tgz:263103.got - 2010.06.03 18:47:42.
