data_PCOD9266646
_publ_section_title
;
Structure prediction by ZEFSAII (Michael W. Deem and Ramdas Pophale) SiO2 
 PCOD9266646
Probable space group: C 2/C
;
_chemical_formula_sum "Si O2"
_cell_formula_units_Z 52
_cell_length_a 12.445205
_cell_length_b 27.763197
_cell_length_c 8.362420
_cell_angle_alpha 90.000000
_cell_angle_beta 123.260104
_cell_angle_gamma 90.000000
_cell_volume 2416.062645
_symmetry_space_group_name_H-M "C 2/C"
_symmetry_group_IT_number 15
_symmetry_cell_setting 'monoclinic'
loop_
_space_group_symop_operation_xyz
x,y,z
-x,y,1/2-z
-x,-y,-z
x,-y,1/2+z
1/2+x,1/2+y,z
1/2-x,1/2+y,1/2-z
1/2-x,1/2-y,-z
1/2+x,1/2-y,1/2+z
loop_
_atom_site_type_symbol
_atom_site_label
_atom_site_fract_x
_atom_site_fract_y
_atom_site_fract_z
Si Si1 0.052237 0.645004 0.123364
Si Si2 0.132880 0.201622 0.770100
Si Si3 0.742146 0.218910 0.154303
Si Si4 0.864519 0.436405 0.387752
Si Si5 0.529097 0.357205 0.601951
Si Si6 0.000000 0.506564 0.750000
Si Si7 0.289374 0.391731 0.989872
O O1 0.116606 0.684830 0.064823
O O2 0.164684 0.607970 0.273181
O O3 0.000000 0.665029 0.250000
O O4 0.940633 0.614273 0.951078
O O5 0.223729 0.243921 0.785306
O O6 0.000000 0.216615 0.750000
O O7 0.086773 0.171019 0.577153
O O8 0.201389 0.162960 0.937959
O O9 0.863582 0.184007 0.274727
O O10 0.750000 0.250000 0.000000
O O11 0.937561 0.472341 0.567452
O O12 0.732572 0.425000 0.373881
O O13 0.887359 0.460574 0.235424
O O14 0.500000 0.379257 0.750000
O O15 0.586752 0.394848 0.521302
#
# Coordination Sequence:
#
# PCOD9266646 Si02
#       7
#     8   8   8   8   8   4   8
#     4   9  18  34  53  75 113 147 183 223 279 346
#     4  10  21  35  52  76 105 151 199 236 277 325
#     4  11  21  32  51  75 110 149 197 242 283 317
#     4  10  19  38  57  93 118 147 177 224 302 351
#     4  10  20  36  50  74 107 146 195 241 275 320
#     4  10  20  34  64  88 128 136 174 234 288 376
#     4   9  19  35  55  75 112 147 189 221 279 346
#
# _framework density 21.522621000000001
#
# number of rings (size 3 to 8) (size 9 to 14) (size 15 to 20)
#    0.000    2.154    3.846    0.462    0.000    9.231 
#    0.000    0.000    0.000    0.000    0.000   14.000 
#    0.000    0.000    0.000    0.000    0.000    0.000 
#
# Total GULP energy -145037.149743 kJ/mol
# GULP energy per Si atom -5578.351913 kJ/mol
# Density = 2.147363 g / cm^3
# Si number density = 21.522621 Si / 1000 Ang^3
#
#
#
# Elastic Constant Matrix: (Units=GPa)
#
#
# Indices 1 2 3 4 5 6 
#
# 1 86.8705 34.9075 14.3344 0.0000 -23.6649 0.0000
# 2 34.9075 53.6193 7.1275 0.0000 -20.3683 0.0000
# 3 14.3344 7.1275 36.8475 0.0000 -13.8899 0.0000
# 4 0.0000 0.0000 0.0000 8.7023 0.0000 -16.2180
# 5 -23.6649 -20.3683 -13.8899 0.0000 36.4578 0.0000
# 6 0.0000 0.0000 0.0000 -16.2180 0.0000 37.3089
#
#
#
# Elastic Compliance Matrix: (Units=1/GPa)
#
#
# Indices 1 2 3 4 5 6 
#
# 1 0.016845 -0.008693 -0.003013 0.000000 0.004929 0.000000
# 2 -0.008693 0.028168 0.002030 0.000000 0.010867 0.000000
# 3 -0.003013 0.002030 0.032239 0.000000 0.011461 0.000000
# 4 0.000000 0.000000 0.000000 0.605181 0.000000 0.263070
# 5 0.004929 0.010867 0.011461 0.000000 0.041066 0.000000
# 6 0.000000 0.000000 0.000000 0.263070 0.000000 0.141159
#
#
# Mechanical properties :
#
#
# Convention : Reuss Voigt Hill
#
# Bulk Modulus (GPa) = 17.27183 32.23066 24.75125
# Shear Modulus (GPa) = 5.53520 24.55832 15.04676
#
# Velocity S-wave (km/s) = 1.60542 3.38160 2.64694
# Velocity P-wave (km/s) = 3.38805 5.50043 4.56802
#
# Compressibility (1/GPa) = 0.05789775
#
# Stress axis : x y z
#
# Youngs Moduli (GPa) = 59.36609 35.50129 31.01869
#
# Poissons Ratio (x) = 0.30862 0.09347
# Poissons Ratio (y) = 0.51609 -0.06296
# Poissons Ratio (z) = 0.17888 -0.07206
#
# Static dielectric constant tensor:
#      x y z
#    x 1.881990 0.000000 -0.022710 
#    y 0.000000 1.779230 0.000000 
#    z -0.022710 0.000000 1.831370 
# 
# From -- ./inp_files/33716.got.cif
#   From: 2010.05.17/outbox.cif.g08.bks.cpg/sg15_17_cif.got.tgz:33716.got - 2010.06.03 18:47:42.
