data_PCOD9266179
_publ_section_title
;
Structure prediction by ZEFSAII (Michael W. Deem and Ramdas Pophale) SiO2 
 PCOD9266179
Probable space group: C 2/C
;
_chemical_formula_sum "Si O2"
_cell_formula_units_Z 48
_cell_length_a 8.955530
_cell_length_b 12.256294
_cell_length_c 19.904911
_cell_angle_alpha 90.000000
_cell_angle_beta 98.192425
_cell_angle_gamma 90.000000
_cell_volume 2162.499390
_symmetry_space_group_name_H-M "C 2/C"
_symmetry_group_IT_number 15
_symmetry_cell_setting 'monoclinic'
loop_
_space_group_symop_operation_xyz
x,y,z
-x,y,1/2-z
-x,-y,-z
x,-y,1/2+z
1/2+x,1/2+y,z
1/2-x,1/2+y,1/2-z
1/2-x,1/2-y,-z
1/2+x,1/2-y,1/2+z
loop_
_atom_site_type_symbol
_atom_site_label
_atom_site_fract_x
_atom_site_fract_y
_atom_site_fract_z
Si Si1 0.086634 0.031361 0.822835
Si Si2 0.430565 0.994137 0.320467
Si Si3 0.410692 0.407816 0.538425
Si Si4 0.974371 0.265276 0.669533
Si Si5 0.708650 0.314771 0.563855
Si Si6 0.377519 0.040299 0.546467
O O1 0.259934 0.048231 0.810928
O O2 0.102946 0.953445 0.887343
O O3 0.000000 0.993096 0.750000
O O4 0.997208 0.138296 0.846170
O O5 0.500000 0.989971 0.250000
O O6 0.440356 0.122881 0.345743
O O7 0.532949 0.929235 0.380513
O O8 0.500000 0.500000 0.500000
O O9 0.529525 0.310944 0.553257
O O10 0.248955 0.384058 0.495533
O O11 0.801566 0.276209 0.634226
O O12 0.000000 0.263817 0.750000
O O13 0.750000 0.250000 0.500000
O O14 0.776326 0.435243 0.559054
O O15 0.500000 0.000000 0.500000
#
# Coordination Sequence:
#
# PCOD9266179 Si02
#       6
#     8   8   8   8   8   8
#     4  11  23  38  68  92 124 168 214 258 322 382
#     4  10  22  39  66  88 125 169 205 260 325 377
#     4  10  21  36  63  94 119 166 216 254 316 391
#     4   9  20  38  61  85 121 162 208 251 316 374
#     4  10  21  37  62  85 122 166 205 259 322 364
#     4  10  19  37  61  85 121 156 206 259 312 373
#
# _framework density 22.196539999999999
#
# number of rings (size 3 to 8) (size 9 to 14) (size 15 to 20)
#    0.000    2.000    1.667    2.000    9.333    0.000 
#    0.000    0.833   18.333    0.000    0.000    0.000 
#    0.000    0.000    0.000    0.000    0.000    0.000 
#
# Total GULP energy -133669.846924 kJ/mol
# GULP energy per Si atom -5569.576955 kJ/mol
# Density = 2.214602 g / cm^3
# Si number density = 22.196540 Si / 1000 Ang^3
#
#
#
# Elastic Constant Matrix: (Units=GPa)
#
#
# Indices 1 2 3 4 5 6 
#
# 1 114.2768 2.4888 84.6331 0.0000 24.6942 0.0000
# 2 2.4888 41.6089 20.5589 0.0000 0.0198 0.0000
# 3 84.6331 20.5589 182.3608 0.0000 42.0882 0.0000
# 4 0.0000 0.0000 0.0000 18.2699 0.0000 -0.2719
# 5 24.6942 0.0198 42.0882 0.0000 50.4795 0.0000
# 6 0.0000 0.0000 0.0000 -0.2719 0.0000 16.0090
#
#
#
# Elastic Compliance Matrix: (Units=1/GPa)
#
#
# Indices 1 2 3 4 5 6 
#
# 1 0.013648 0.002274 -0.006252 0.000000 -0.001464 0.000000
# 2 0.002274 0.026190 -0.004642 0.000000 0.002748 0.000000
# 3 -0.006252 -0.004642 0.010157 0.000000 -0.005408 0.000000
# 4 0.000000 0.000000 0.000000 0.054749 0.000000 0.000930
# 5 -0.001464 0.002748 -0.005408 0.000000 0.025034 0.000000
# 6 0.000000 0.000000 0.000000 0.000930 0.000000 0.062481
#
#
# Mechanical properties :
#
#
# Convention : Reuss Voigt Hill
#
# Bulk Modulus (GPa) = 30.53138 61.51201 46.02169
# Shear Modulus (GPa) = 22.68426 32.32273 27.50350
#
# Velocity S-wave (km/s) = 3.20030 3.82017 3.52389
# Velocity P-wave (km/s) = 5.23839 6.87247 6.11030
#
# Compressibility (1/GPa) = 0.03275318
#
# Stress axis : x y z
#
# Youngs Moduli (GPa) = 73.27021 38.18311 98.45611
#
# Poissons Ratio (x) = -0.08681 0.61559
# Poissons Ratio (y) = -0.16659 0.45702
# Poissons Ratio (z) = 0.45811 0.17724
#
# Static dielectric constant tensor:
#      x y z
#    x 1.952080 0.000000 -0.094300 
#    y 0.000000 1.903450 0.000000 
#    z -0.094300 0.000000 1.912860 
# 
# From -- ./inp_files/231339.got.cif
#   From: 2010.05.17/outbox.cif.g08.bks.cpg/sg15_116_cif.got.tgz:231339.got - 2010.06.03 18:47:42.
