data_PCOD9266933
_publ_section_title
;
Structure prediction by ZEFSAII (Michael W. Deem and Ramdas Pophale) SiO2 
 PCOD9266933
Probable space group: C 2/C
;
_chemical_formula_sum "Si O2"
_cell_formula_units_Z 48
_cell_length_a 18.473854
_cell_length_b 28.153196
_cell_length_c 8.797722
_cell_angle_alpha 90.000000
_cell_angle_beta 28.084662
_cell_angle_gamma 90.000000
_cell_volume 2154.118060
_symmetry_space_group_name_H-M "C 2/C"
_symmetry_group_IT_number 15
_symmetry_cell_setting 'monoclinic'
loop_
_space_group_symop_operation_xyz
x,y,z
-x,y,1/2-z
-x,-y,-z
x,-y,1/2+z
1/2+x,1/2+y,z
1/2-x,1/2+y,1/2-z
1/2-x,1/2-y,-z
1/2+x,1/2-y,1/2+z
loop_
_atom_site_type_symbol
_atom_site_label
_atom_site_fract_x
_atom_site_fract_y
_atom_site_fract_z
Si Si1 0.500000 0.066447 0.250000
Si Si2 0.771774 0.487773 0.381379
Si Si3 0.816425 0.160391 0.106115
Si Si4 0.269394 0.363600 0.348218
Si Si5 0.818059 0.434041 0.590230
Si Si6 0.000000 0.924663 0.750000
Si Si7 0.814760 0.738415 0.554039
O O1 0.424858 0.034222 0.520324
O O2 0.367196 0.101274 0.441044
O O3 0.776476 0.475422 0.548743
O O4 0.762918 0.542630 0.350493
O O5 0.629245 0.458397 0.580263
O O6 0.759787 0.115755 0.307912
O O7 0.766393 0.214171 0.236874
O O8 0.755609 0.148733 0.050432
O O9 0.000000 0.160394 0.750000
O O10 0.253907 0.313492 0.287510
O O11 0.424323 0.390591 0.016043
O O12 0.000000 0.426628 0.250000
O O13 0.750000 0.750000 0.500000
O O14 0.000000 0.734519 0.250000
#
# Coordination Sequence:
#
# PCOD9266933 Si02
#       7
#     4   8   8   8   8   4   8
#     4  10  20  38  64  84 120 160 206 256 308 362
#     4  11  25  40  61  91 122 163 210 258 310 373
#     4  10  22  38  62  84 125 161 203 251 314 371
#     4  10  19  38  63  88 118 161 206 251 308 372
#     4  12  25  41  62  91 124 162 212 259 312 368
#     4  10  24  38  60  90 126 156 210 254 316 368
#     4   9  18  36  63  93 120 167 213 255 314 387
#
# _framework density 22.282902
#
# number of rings (size 3 to 8) (size 9 to 14) (size 15 to 20)
#    0.000    1.667    1.667    2.500    5.833    0.667 
#    1.500    0.000    0.000    5.000    0.000    0.000 
#    0.000    0.000    0.000    0.000    0.000    0.000 
#
# Total GULP energy -134017.135108 kJ/mol
# GULP energy per Si atom -5584.047296 kJ/mol
# Density = 2.223219 g / cm^3
# Si number density = 22.282902 Si / 1000 Ang^3
#
#
#
# Elastic Constant Matrix: (Units=GPa)
#
#
# Indices 1 2 3 4 5 6 
#
# 1 61.9367 15.0831 8.8472 0.0000 -11.4025 0.0002
# 2 15.0831 172.3182 34.2517 0.0000 -12.2540 0.0000
# 3 8.8472 34.2517 58.6093 -0.0005 -14.3309 0.0007
# 4 0.0000 0.0000 -0.0005 27.1806 0.0002 -20.0190
# 5 -11.4025 -12.2540 -14.3309 0.0002 23.9298 -0.0004
# 6 0.0002 0.0000 0.0007 -20.0190 -0.0004 39.8176
#
#
#
# Elastic Compliance Matrix: (Units=1/GPa)
#
#
# Indices 1 2 3 4 5 6 
#
# 1 0.017863 -0.000961 -0.000203 0.000000 0.007897 0.000000
# 2 -0.000961 0.006650 -0.003539 0.000000 0.000828 0.000000
# 3 -0.000203 -0.003539 0.021901 0.000000 0.011207 0.000000
# 4 0.000000 0.000000 0.000000 0.058426 0.000000 0.029375
# 5 0.007897 0.000828 0.011207 0.000000 0.052687 0.000000
# 6 0.000000 0.000000 0.000000 0.029375 0.000000 0.039883
#
#
# Mechanical properties :
#
#
# Convention : Reuss Voigt Hill
#
# Bulk Modulus (GPa) = 27.02243 45.46979 36.24611
# Shear Modulus (GPa) = 22.81520 33.83109 28.32314
#
# Velocity S-wave (km/s) = 3.20330 3.90070 3.56908
# Velocity P-wave (km/s) = 5.08279 6.38258 5.76941
#
# Compressibility (1/GPa) = 0.03700630
#
# Stress axis : x y z
#
# Youngs Moduli (GPa) = 55.98288 150.38498 45.65989
#
# Poissons Ratio (x) = 0.14459 0.00929
# Poissons Ratio (y) = 0.05383 0.16157
# Poissons Ratio (z) = 0.01139 0.53214
#
# Static dielectric constant tensor:
#      x y z
#    x 1.863410 0.000000 0.026930 
#    y 0.000000 1.846870 0.000000 
#    z 0.026930 0.000000 1.792700 
# 
# From -- ./inp_files/52757.got.cif
#   From: 2010.05.17/outbox.cif.g08.bks.cpg/sg15_27_cif.got.tgz:52757.got - 2010.06.03 18:47:42.
