data_PCOD9266194
_publ_section_title
;
Structure prediction by ZEFSAII (Michael W. Deem and Ramdas Pophale) SiO2 
 PCOD9266194
Probable space group: C 2/C
;
_chemical_formula_sum "Si O2"
_cell_formula_units_Z 60
_cell_length_a 26.459531
_cell_length_b 9.348297
_cell_length_c 10.891848
_cell_angle_alpha 90.000000
_cell_angle_beta 72.236212
_cell_angle_gamma 90.000000
_cell_volume 2565.666590
_symmetry_space_group_name_H-M "C 2/C"
_symmetry_group_IT_number 15
_symmetry_cell_setting 'monoclinic'
loop_
_space_group_symop_operation_xyz
x,y,z
-x,y,1/2-z
-x,-y,-z
x,-y,1/2+z
1/2+x,1/2+y,z
1/2-x,1/2+y,1/2-z
1/2-x,1/2-y,-z
1/2+x,1/2-y,1/2+z
loop_
_atom_site_type_symbol
_atom_site_label
_atom_site_fract_x
_atom_site_fract_y
_atom_site_fract_z
Si Si1 0.269811 0.764113 0.800155
Si Si2 0.788629 0.973003 0.496099
Si Si3 0.423739 0.217109 0.423431
Si Si4 0.613160 0.758483 0.822396
Si Si5 0.096182 0.577666 0.823245
Si Si6 0.675189 0.724775 0.184621
Si Si7 0.394226 0.456453 0.582398
Si Si8 0.000000 0.485173 0.250000
O O1 0.279024 0.633576 0.888184
O O2 0.325178 0.770868 0.689466
O O3 0.220282 0.738778 0.749791
O O4 0.256654 0.913645 0.878724
O O5 0.843618 0.951470 0.528437
O O6 0.794560 0.133501 0.441375
O O7 0.394205 0.251911 0.319337
O O8 0.389200 0.151421 0.559240
O O9 0.439309 0.364312 0.480018
O O10 0.466393 0.096280 0.358793
O O11 0.590321 0.618507 0.901822
O O12 0.589840 0.912880 0.863491
O O13 0.140616 0.630842 0.693309
O O14 0.039816 0.609153 0.801749
O O15 0.630689 0.614358 0.275060
#
# Coordination Sequence:
#
# PCOD9266194 Si02
#       8
#     8   8   8   8   8   8   8   4
#     4  10  21  35  60  91 136 177 212 268 319 371
#     4  10  20  37  60  87 132 178 216 264 314 376
#     4  10  21  42  65  93 123 168 214 269 337 395
#     4  11  22  38  63  96 134 175 216 267 324 386
#     4  10  24  40  66  95 130 170 217 274 337 395
#     4  10  21  36  61  92 126 176 223 261 314 392
#     4  10  19  37  61  87 125 173 213 263 319 389
#     4  10  22  44  70  96 130 166 214 290 346 400
#
# _framework density 23.385735
#
# number of rings (size 3 to 8) (size 9 to 14) (size 15 to 20)
#    0.000    1.867    2.667    0.400    3.733    2.133 
#    0.000    4.000    0.000   19.200    0.000    2.800 
#    0.000    0.000    0.000    0.000    0.000    0.000 
#
# Total GULP energy -167239.265041 kJ/mol
# GULP energy per Si atom -5574.642168 kJ/mol
# Density = 2.333251 g / cm^3
# Si number density = 23.385735 Si / 1000 Ang^3
#
#
#
# Elastic Constant Matrix: (Units=GPa)
#
#
# Indices 1 2 3 4 5 6 
#
# 1 77.0866 8.1032 8.8870 0.0000 13.6355 0.0000
# 2 8.1032 90.3132 35.4064 0.0000 16.5472 0.0000
# 3 8.8870 35.4064 53.1434 0.0000 9.2358 0.0000
# 4 0.0000 0.0000 0.0000 48.1004 0.0000 1.6728
# 5 13.6355 16.5472 9.2358 0.0000 23.7971 0.0000
# 6 0.0000 0.0000 0.0000 1.6728 0.0000 16.2402
#
#
#
# Elastic Compliance Matrix: (Units=1/GPa)
#
#
# Indices 1 2 3 4 5 6 
#
# 1 0.014531 0.000818 -0.001532 0.000000 -0.008300 0.000000
# 2 0.000818 0.016213 -0.009541 0.000000 -0.008039 0.000000
# 3 -0.001532 -0.009541 0.025869 0.000000 -0.002528 0.000000
# 4 0.000000 0.000000 0.000000 0.020865 0.000000 -0.002149
# 5 -0.008300 -0.008039 -0.002528 0.000000 0.053349 0.000000
# 6 0.000000 0.000000 0.000000 -0.002149 0.000000 0.061797
#
#
# Mechanical properties :
#
#
# Convention : Reuss Voigt Hill
#
# Bulk Modulus (GPa) = 27.69959 36.14848 31.92404
# Shear Modulus (GPa) = 22.20552 28.83731 25.52142
#
# Velocity S-wave (km/s) = 3.08479 3.51538 3.30710
# Velocity P-wave (km/s) = 4.95563 5.65405 5.31632
#
# Compressibility (1/GPa) = 0.03610161
#
# Stress axis : x y z
#
# Youngs Moduli (GPa) = 68.81697 61.68025 38.65584
#
# Poissons Ratio (x) = -0.05044 0.05923
# Poissons Ratio (y) = -0.05627 0.36882
# Poissons Ratio (z) = 0.10545 0.58850
#
# Static dielectric constant tensor:
#      x y z
#    x 1.846810 0.000000 -0.012380 
#    y 0.000000 1.982640 0.000000 
#    z -0.012380 0.000000 1.962610 
# 
# From -- ./inp_files/125870.got.cif
#   From: 2010.05.17/outbox.cif.g08.bks.cpg/sg15_63_cif.got.tgz:125870.got - 2010.06.03 18:47:42.
