data_PCOD9266529
_publ_section_title
;
Structure prediction by ZEFSAII (Michael W. Deem and Ramdas Pophale) SiO2 
 PCOD9266529
Probable space group: C 2/C
;
_chemical_formula_sum "Si O2"
_cell_formula_units_Z 36
_cell_length_a 26.120113
_cell_length_b 9.761693
_cell_length_c 12.738698
_cell_angle_alpha 90.000000
_cell_angle_beta 24.224078
_cell_angle_gamma 90.000000
_cell_volume 1332.703172
_symmetry_space_group_name_H-M "C 2/C"
_symmetry_group_IT_number 15
_symmetry_cell_setting 'monoclinic'
loop_
_space_group_symop_operation_xyz
x,y,z
-x,y,1/2-z
-x,-y,-z
x,-y,1/2+z
1/2+x,1/2+y,z
1/2-x,1/2+y,1/2-z
1/2-x,1/2-y,-z
1/2+x,1/2-y,1/2+z
loop_
_atom_site_type_symbol
_atom_site_label
_atom_site_fract_x
_atom_site_fract_y
_atom_site_fract_z
Si Si1 0.000000 0.349037 0.250000
Si Si2 0.350887 0.498801 0.390713
Si Si3 0.062519 0.208928 0.417456
Si Si4 0.233973 0.206644 0.294040
Si Si5 0.621964 0.075976 0.167906
O O1 0.065776 0.450613 0.209662
O O2 0.881958 0.271533 0.519500
O O3 0.469521 0.404671 0.140574
O O4 0.301876 0.445662 0.594625
O O5 0.237838 0.462775 0.523675
O O6 0.392475 0.650226 0.277973
O O7 0.173751 0.223813 0.292759
O O8 0.984299 0.347564 0.566776
O O9 0.169935 0.313171 0.492895
#
# Coordination Sequence:
#
# PCOD9266529 Si02
#       5
#     4   8   8   8   8
#     4  12  24  40  64  88 126 168 198 254 306 356
#     4  10  21  38  67  92 121 161 205 255 303 361
#     4  10  19  37  66  93 119 161 206 247 307 364
#     4  11  22  40  62  93 125 161 207 249 303 368
#     4  11  21  43  65  86 126 164 200 254 311 354
#
# _framework density 27.012765000000002
#
# number of rings (size 3 to 8) (size 9 to 14) (size 15 to 20)
#    0.000    1.333    4.444    4.667    0.000    0.889 
#    0.000   10.000    0.000    0.000    0.000    0.000 
#    0.000    0.000    0.000    0.000    0.000    0.000 
#
# Total GULP energy -101096.988004 kJ/mol
# GULP energy per Si atom -5616.499334 kJ/mol
# Density = 2.695128 g / cm^3
# Si number density = 27.012765 Si / 1000 Ang^3
#
#
#
# Elastic Constant Matrix: (Units=GPa)
#
#
# Indices 1 2 3 4 5 6 
#
# 1 73.8206 34.0422 63.8526 0.0000 -16.8224 0.0000
# 2 34.0422 100.2746 47.1499 0.0000 4.2114 0.0000
# 3 63.8526 47.1499 181.0933 0.0000 -14.2862 0.0000
# 4 0.0000 0.0000 0.0000 58.5054 0.0000 7.0351
# 5 -16.8224 4.2114 -14.2862 0.0000 59.3700 0.0000
# 6 0.0000 0.0000 0.0000 7.0351 0.0000 45.1413
#
#
#
# Elastic Compliance Matrix: (Units=1/GPa)
#
#
# Indices 1 2 3 4 5 6 
#
# 1 0.022342 -0.004890 -0.006195 0.000000 0.005187 0.000000
# 2 -0.004890 0.012575 -0.001763 0.000000 -0.002702 0.000000
# 3 -0.006195 -0.001763 0.008192 0.000000 0.000341 0.000000
# 4 0.000000 0.000000 0.000000 0.017419 0.000000 -0.002715
# 5 0.005187 -0.002702 0.000341 0.000000 0.018587 0.000000
# 6 0.000000 0.000000 0.000000 -0.002715 0.000000 0.022576
#
#
# Mechanical properties :
#
#
# Convention : Reuss Voigt Hill
#
# Bulk Modulus (GPa) = 57.42785 71.69756 64.56270
# Shear Modulus (GPa) = 37.53989 46.61293 42.07641
#
# Velocity S-wave (km/s) = 3.73192 4.15853 3.95099
# Velocity P-wave (km/s) = 6.31469 7.04681 6.69077
#
# Compressibility (1/GPa) = 0.01741315
#
# Stress axis : x y z
#
# Youngs Moduli (GPa) = 44.75886 79.52226 122.06336
#
# Poissons Ratio (x) = 0.38883 0.75624
# Poissons Ratio (y) = 0.21885 0.21522
# Poissons Ratio (z) = 0.27730 0.14021
#
# Static dielectric constant tensor:
#      x y z
#    x 2.008530 0.000000 0.063130 
#    y 0.000000 2.131850 0.000000 
#    z 0.063130 0.000000 2.060580 
# 
# From -- ./inp_files/84423.got.cif
#   From: 2010.05.17/outbox.cif.g08.bks.cpg/sg15_43_cif.got.tgz:84423.got - 2010.06.03 18:47:42.
