data_PCOD9266049
_publ_section_title
;
Structure prediction by ZEFSAII (Michael W. Deem and Ramdas Pophale) SiO2 
 PCOD9266049
Probable space group: C 2/C
;
_chemical_formula_sum "Si O2"
_cell_formula_units_Z 60
_cell_length_a 33.078521
_cell_length_b 5.266728
_cell_length_c 17.319661
_cell_angle_alpha 90.000000
_cell_angle_beta 98.810776
_cell_angle_gamma 90.000000
_cell_volume 2981.748642
_symmetry_space_group_name_H-M "C 2/C"
_symmetry_group_IT_number 15
_symmetry_cell_setting 'monoclinic'
loop_
_space_group_symop_operation_xyz
x,y,z
-x,y,1/2-z
-x,-y,-z
x,-y,1/2+z
1/2+x,1/2+y,z
1/2-x,1/2+y,1/2-z
1/2-x,1/2-y,-z
1/2+x,1/2-y,1/2+z
loop_
_atom_site_type_symbol
_atom_site_label
_atom_site_fract_x
_atom_site_fract_y
_atom_site_fract_z
Si Si1 0.565412 0.674392 0.414952
Si Si2 0.755057 0.752057 0.201454
Si Si3 0.929802 0.071255 0.735038
Si Si4 0.658260 0.664412 0.741504
Si Si5 0.000000 0.429655 0.750000
Si Si6 0.668479 0.837601 0.140298
Si Si7 0.592771 0.822113 0.007343
Si Si8 0.972015 0.788122 0.879618
O O1 0.570311 0.664569 0.323725
O O2 0.588279 0.431594 0.456201
O O3 0.517300 0.643872 0.422070
O O4 0.583620 0.928897 0.455300
O O5 0.752108 0.464151 0.232815
O O6 0.801809 0.807922 0.192465
O O7 0.716570 0.801754 0.134772
O O8 0.884983 0.182995 0.729445
O O9 0.963515 0.254817 0.708749
O O10 0.947529 0.003415 0.824746
O O11 0.659101 0.393880 0.697221
O O12 0.662369 0.893733 0.681589
O O13 0.017802 0.586759 0.684410
O O14 0.636585 0.827046 0.061749
O O15 0.557873 0.811234 0.063533
#
# Coordination Sequence:
#
# PCOD9266049 Si02
#       8
#     8   8   8   8   4   8   8   8
#     4  12  26  42  55  89 123 161 198 248 300 348
#     4   8  16  31  56  88 120 141 185 253 298 340
#     4  12  24  39  64  84 122 156 207 254 296 350
#     4  10  20  35  62  92 113 151 201 248 296 349
#     4  12  22  40  64  86 118 154 206 252 302 324
#     4  10  19  37  59  90 120 152 193 245 303 353
#     4  12  26  40  62  85 123 161 199 242 297 366
#     4  12  24  42  61  85 114 165 206 252 288 352
#
# _framework density 20.122419000000001
#
# number of rings (size 3 to 8) (size 9 to 14) (size 15 to 20)
#    0.000    1.067    4.000    3.200    1.867    0.000 
#    0.000    0.000    0.000    1.600    0.000    0.000 
#    0.000    0.000    0.000    0.000    0.000    0.000 
#
# Total GULP energy -167565.520657 kJ/mol
# GULP energy per Si atom -5585.517355 kJ/mol
# Density = 2.007662 g / cm^3
# Si number density = 20.122419 Si / 1000 Ang^3
#
#
#
# Elastic Constant Matrix: (Units=GPa)
#
#
# Indices 1 2 3 4 5 6 
#
# 1 144.5399 14.4155 27.2055 0.0000 48.7188 0.0000
# 2 14.4155 101.1760 20.4461 0.0000 6.4837 0.0000
# 3 27.2055 20.4461 50.5955 0.0000 26.9423 0.0000
# 4 0.0000 0.0000 0.0000 21.9859 0.0000 6.3413
# 5 48.7188 6.4837 26.9423 0.0000 35.9859 0.0000
# 6 0.0000 0.0000 0.0000 6.3413 0.0000 19.7731
#
#
#
# Elastic Compliance Matrix: (Units=1/GPa)
#
#
# Indices 1 2 3 4 5 6 
#
# 1 0.013407 -0.001514 0.004861 0.000000 -0.021518 0.000000
# 2 -0.001514 0.011038 -0.006118 0.000000 0.004641 0.000000
# 3 0.004861 -0.006118 0.037485 0.000000 -0.033543 0.000000
# 4 0.000000 0.000000 0.000000 0.050120 0.000000 -0.016074
# 5 -0.021518 0.004641 -0.033543 0.000000 0.081197 0.000000
# 6 0.000000 0.000000 0.000000 -0.016074 0.000000 0.055729
#
#
# Mechanical properties :
#
#
# Convention : Reuss Voigt Hill
#
# Bulk Modulus (GPa) = 17.73402 46.71616 32.22509
# Shear Modulus (GPa) = 18.29394 31.16529 24.72961
#
# Velocity S-wave (km/s) = 3.01845 3.93973 3.50945
# Velocity P-wave (km/s) = 4.58042 6.63036 5.69833
#
# Compressibility (1/GPa) = 0.05638878
#
# Stress axis : x y z
#
# Youngs Moduli (GPa) = 74.58573 90.59287 26.67733
#
# Poissons Ratio (x) = 0.13712 -0.12967
# Poissons Ratio (y) = 0.11289 0.16322
# Poissons Ratio (z) = -0.36254 0.55426
#
# Static dielectric constant tensor:
#      x y z
#    x 1.736970 0.000000 0.038410 
#    y 0.000000 1.746370 0.000000 
#    z 0.038410 0.000000 1.715370 
# 
# From -- ./inp_files/223670.got.cif
#   From: 2010.05.17/outbox.cif.g08.bks.cpg/sg15_112_cif.got.tgz:223670.got - 2010.06.03 18:47:42.
