data_PCOD9266499
_publ_section_title
;
Structure prediction by ZEFSAII (Michael W. Deem and Ramdas Pophale) SiO2 
 PCOD9266499
Probable space group: C 2/C
;
_chemical_formula_sum "Si O2"
_cell_formula_units_Z 48
_cell_length_a 10.986096
_cell_length_b 17.006532
_cell_length_c 13.944209
_cell_angle_alpha 90.000000
_cell_angle_beta 44.822758
_cell_angle_gamma 90.000000
_cell_volume 1836.497749
_symmetry_space_group_name_H-M "C 2/C"
_symmetry_group_IT_number 15
_symmetry_cell_setting 'monoclinic'
loop_
_space_group_symop_operation_xyz
x,y,z
-x,y,1/2-z
-x,-y,-z
x,-y,1/2+z
1/2+x,1/2+y,z
1/2-x,1/2+y,1/2-z
1/2-x,1/2-y,-z
1/2+x,1/2-y,1/2+z
loop_
_atom_site_type_symbol
_atom_site_label
_atom_site_fract_x
_atom_site_fract_y
_atom_site_fract_z
Si Si1 0.774362 0.369407 0.990805
Si Si2 0.500000 0.448803 0.750000
Si Si3 0.774143 0.245206 0.148660
Si Si4 0.116808 0.462326 0.023860
Si Si5 0.500000 0.157484 0.750000
Si Si6 0.341350 0.290650 0.088532
Si Si7 0.432986 0.556559 0.619594
O O1 0.811629 0.310274 0.883395
O O2 0.852822 0.455534 0.936855
O O3 0.794977 0.328631 0.082389
O O4 0.572548 0.385466 0.088701
O O5 0.687114 0.422441 0.599459
O O6 0.399264 0.499244 0.725177
O O7 0.666996 0.244189 0.305791
O O8 0.970554 0.218512 0.060566
O O9 0.020167 0.399294 0.144585
O O10 0.000000 0.500000 0.000000
O O11 0.342476 0.219756 0.855616
O O12 0.313660 0.382156 0.133562
O O13 0.500000 0.500000 0.500000
#
# Coordination Sequence:
#
# PCOD9266499 Si02
#       7
#     8   4   8   8   4   8   8
#     4   9  20  37  63  96 129 167 220 271 330 401
#     4  10  20  36  60  92 128 168 210 258 326 406
#     4  10  22  40  65  93 127 172 219 273 326 397
#     4  11  23  41  68 101 137 175 221 282 351 418
#     4  12  26  44  64  90 134 178 220 282 348 410
#     4  11  23  42  63  90 126 170 222 271 333 396
#     4  10  19  37  65  96 133 169 207 267 341 409
#
# _framework density 26.136704999999999
#
# number of rings (size 3 to 8) (size 9 to 14) (size 15 to 20)
#    0.000    1.667    0.000    6.000    0.000    7.333 
#    0.000    8.333    0.000    4.000    0.000    0.000 
#    0.000    0.000    0.000    0.000    0.000    0.000 
#
# Total GULP energy -133641.537594 kJ/mol
# GULP energy per Si atom -5568.397400 kJ/mol
# Density = 2.607722 g / cm^3
# Si number density = 26.136705 Si / 1000 Ang^3
#
#
#
# Elastic Constant Matrix: (Units=GPa)
#
#
# Indices 1 2 3 4 5 6 
#
# 1 87.5348 7.4911 21.4735 0.0000 -16.1201 0.0000
# 2 7.4911 51.9765 11.9181 -0.0001 -3.1725 0.0000
# 3 21.4735 11.9181 113.2572 -0.0001 -31.4217 0.0000
# 4 0.0000 -0.0001 -0.0001 24.5091 -0.0001 -3.8302
# 5 -16.1201 -3.1725 -31.4217 -0.0001 54.8210 0.0001
# 6 0.0000 0.0000 0.0000 -3.8302 0.0001 24.8427
#
#
#
# Elastic Compliance Matrix: (Units=1/GPa)
#
#
# Indices 1 2 3 4 5 6 
#
# 1 0.012395 -0.001286 -0.001456 0.000000 0.002736 0.000000
# 2 -0.001286 0.019849 -0.001940 0.000000 -0.000341 0.000000
# 3 -0.001456 -0.001940 0.010892 0.000000 0.005702 0.000000
# 4 0.000000 0.000000 0.000000 0.041809 0.000000 0.006446
# 5 0.002736 -0.000341 0.005702 0.000000 0.022294 0.000000
# 6 0.000000 0.000000 0.000000 0.006446 0.000000 0.041247
#
#
# Mechanical properties :
#
#
# Convention : Reuss Voigt Hill
#
# Bulk Modulus (GPa) = 29.60908 37.17045 33.38976
# Shear Modulus (GPa) = 29.56739 34.96027 32.26383
#
# Velocity S-wave (km/s) = 3.36707 3.66128 3.51725
# Velocity P-wave (km/s) = 5.14484 5.66796 5.41272
#
# Compressibility (1/GPa) = 0.03377343
#
# Stress axis : x y z
#
# Youngs Moduli (GPa) = 80.67761 50.38115 91.81345
#
# Poissons Ratio (x) = 0.06477 0.13366
# Poissons Ratio (y) = 0.10372 0.17808
# Poissons Ratio (z) = 0.11745 0.09772
#
# Static dielectric constant tensor:
#      x y z
#    x 2.517420 0.000000 0.033240 
#    y 0.000000 2.152420 0.000000 
#    z 0.033240 0.000000 2.081690 
# 
# From -- ./inp_files/147382.got.cif
#   From: 2010.05.17/outbox.cif.g08.bks.cpg/sg15_74_cif.got.tgz:147382.got - 2010.06.03 18:47:42.
