data_PCOD9266455
_publ_section_title
;
Structure prediction by ZEFSAII (Michael W. Deem and Ramdas Pophale) SiO2 
 PCOD9266455
Probable space group: C 2/C
;
_chemical_formula_sum "Si O2"
_cell_formula_units_Z 44
_cell_length_a 11.251636
_cell_length_b 10.743720
_cell_length_c 27.656333
_cell_angle_alpha 90.000000
_cell_angle_beta 37.015599
_cell_angle_gamma 90.000000
_cell_volume 2012.726845
_symmetry_space_group_name_H-M "C 2/C"
_symmetry_group_IT_number 15
_symmetry_cell_setting 'monoclinic'
loop_
_space_group_symop_operation_xyz
x,y,z
-x,y,1/2-z
-x,-y,-z
x,-y,1/2+z
1/2+x,1/2+y,z
1/2-x,1/2+y,1/2-z
1/2-x,1/2-y,-z
1/2+x,1/2-y,1/2+z
loop_
_atom_site_type_symbol
_atom_site_label
_atom_site_fract_x
_atom_site_fract_y
_atom_site_fract_z
Si Si1 0.203038 0.196612 0.362718
Si Si2 0.787364 0.610815 0.504460
Si Si3 0.993057 0.044673 0.152916
Si Si4 0.236998 0.016420 0.921980
Si Si5 0.500000 0.582178 0.750000
Si Si6 0.632352 0.215225 0.458055
O O1 0.324280 0.322961 0.319731
O O2 0.164521 0.125198 0.325146
O O3 0.995629 0.235510 0.455016
O O4 0.305115 0.093215 0.364045
O O5 0.750000 0.750000 0.500000
O O6 0.577610 0.573860 0.596651
O O7 0.817916 0.517906 0.448993
O O8 0.978033 0.634288 0.476233
O O9 0.192423 0.124214 0.087309
O O10 0.942105 0.002366 0.223210
O O11 0.245369 0.159550 0.902428
O O12 0.000000 0.000000 0.000000
#
# Coordination Sequence:
#
# PCOD9266455 Si02
#       6
#     8   8   8   8   4   8
#     4  11  23  46  67  95 134 177 220 284 339 393
#     4  12  19  36  69 102 128 164 212 282 334 387
#     4  12  25  44  65  98 135 176 226 271 340 405
#     4  10  19  37  65 100 124 159 221 276 332 384
#     4  12  28  48  60  96 148 188 220 266 348 422
#     4  11  22  39  71 103 127 164 227 290 327 381
#
# _framework density 21.860890000000001
#
# number of rings (size 3 to 8) (size 9 to 14) (size 15 to 20)
#    0.000    0.727    9.091    1.091    0.000    0.000 
#   13.091    0.000    0.000    0.000    0.000    0.000 
#    0.000    0.000    0.000    0.000    0.000    0.000 
#
# Total GULP energy -122711.697090 kJ/mol
# GULP energy per Si atom -5577.804413 kJ/mol
# Density = 2.181113 g / cm^3
# Si number density = 21.860890 Si / 1000 Ang^3
#
#
#
# Elastic Constant Matrix: (Units=GPa)
#
#
# Indices 1 2 3 4 5 6 
#
# 1 91.7845 23.4599 16.8293 -0.0001 32.7241 0.0000
# 2 23.4599 72.6800 15.5247 -0.0001 6.3557 0.0000
# 3 16.8293 15.5247 39.4735 -0.0003 13.8519 0.0001
# 4 -0.0001 -0.0001 -0.0003 -0.8188 0.0001 17.4957
# 5 32.7241 6.3557 13.8519 0.0001 27.8000 0.0000
# 6 0.0000 0.0000 0.0001 17.4957 0.0000 35.7865
#
#
#
# Elastic Compliance Matrix: (Units=1/GPa)
#
#
# Indices 1 2 3 4 5 6 
#
# 1 0.020197 -0.004790 0.001492 0.000000 -0.023422 0.000000
# 2 -0.004790 0.016165 -0.006056 0.000000 0.004960 0.000000
# 3 0.001492 -0.006056 0.032975 -0.000001 -0.016803 0.000001
# 4 0.000000 0.000000 -0.000001 -0.106698 0.000002 0.052164
# 5 -0.023422 0.004960 -0.016803 0.000002 0.070781 -0.000001
# 6 0.000000 0.000000 0.000001 0.052164 -0.000001 0.002441
#
#
# Mechanical properties :
#
#
# Convention : Reuss Voigt Hill
#
# Bulk Modulus (GPa) = 19.75103 35.06285 27.40694
# Shear Modulus (GPa) = 69.98526 22.42847 46.20686
#
# Velocity S-wave (km/s) = 5.66422 3.20654 4.60246
# Velocity P-wave (km/s) = 7.19947 5.45739 6.38809
#
# Compressibility (1/GPa) = 0.05063028
#
# Stress axis : x y z
#
# Youngs Moduli (GPa) = 49.51349 61.86275 30.32565
#
# Poissons Ratio (x) = 0.29630 -0.04526
# Poissons Ratio (y) = 0.23715 0.18365
# Poissons Ratio (z) = -0.07390 0.37464
#
# Static dielectric constant tensor:
#      x y z
#    x 1.667580 0.000000 0.225420 
#    y 0.000000 1.669900 0.000000 
#    z 0.225420 0.000000 1.743630 
# 
# From -- ./inp_files/236700.got.cif
#   From: 2010.05.17/outbox.cif.g08.bks.cpg/sg15_119_cif.got.tgz:236700.got - 2010.06.03 18:47:42.
