data_PCOD9266710
_publ_section_title
;
Structure prediction by ZEFSAII (Michael W. Deem and Ramdas Pophale) SiO2 
 PCOD9266710
Probable space group: C 2/C
;
_chemical_formula_sum "Si O2"
_cell_formula_units_Z 36
_cell_length_a 11.175855
_cell_length_b 22.846458
_cell_length_c 8.879871
_cell_angle_alpha 90.000000
_cell_angle_beta 52.485361
_cell_angle_gamma 90.000000
_cell_volume 1798.406163
_symmetry_space_group_name_H-M "C 2/C"
_symmetry_group_IT_number 15
_symmetry_cell_setting 'monoclinic'
loop_
_space_group_symop_operation_xyz
x,y,z
-x,y,1/2-z
-x,-y,-z
x,-y,1/2+z
1/2+x,1/2+y,z
1/2-x,1/2+y,1/2-z
1/2-x,1/2-y,-z
1/2+x,1/2-y,1/2+z
loop_
_atom_site_type_symbol
_atom_site_label
_atom_site_fract_x
_atom_site_fract_y
_atom_site_fract_z
Si Si1 0.964414 0.561669 0.602666
Si Si2 0.384256 0.699101 0.696087
Si Si3 0.500000 0.500082 0.250000
Si Si4 0.376445 0.422956 0.080765
Si Si5 0.971624 0.681669 0.448662
O O1 0.786819 0.569567 0.724052
O O2 0.026406 0.622277 0.487246
O O3 0.000000 0.558451 0.750000
O O4 0.000000 0.500000 0.500000
O O5 0.500000 0.692380 0.750000
O O6 0.413522 0.645340 0.560337
O O7 0.429246 0.761161 0.589454
O O8 0.207184 0.695439 0.882572
O O9 0.475519 0.457446 0.127691
O O10 0.381349 0.545966 0.414212
O O11 0.000000 0.672062 0.250000
#
# Coordination Sequence:
#
# PCOD9266710 Si02
#       5
#     8   8   4   8   8
#     4  11  23  41  59  87 119 153 197 242 296 350
#     4  10  19  38  59  88 117 153 200 241 292 353
#     4  10  20  38  58  86 116 148 196 234 304 336
#     4  10  21  38  59  87 115 153 192 245 287 356
#     4  10  21  38  61  88 116 158 199 244 291 350
#
# _framework density 20.017724000000001
#
# number of rings (size 3 to 8) (size 9 to 14) (size 15 to 20)
#    0.000    1.778    1.111    4.667    0.000    1.778 
#   18.000    2.222    0.000    0.000    0.000    0.000 
#    0.000    0.000    0.000    0.000    0.000    0.000 
#
# Total GULP energy -100205.797280 kJ/mol
# GULP energy per Si atom -5566.988738 kJ/mol
# Density = 1.997216 g / cm^3
# Si number density = 20.017724 Si / 1000 Ang^3
#
#
#
# Elastic Constant Matrix: (Units=GPa)
#
#
# Indices 1 2 3 4 5 6 
#
# 1 24.0008 40.3032 5.6133 0.0000 -4.5614 0.0000
# 2 40.3032 232.5480 70.9643 0.0000 11.5781 0.0000
# 3 5.6133 70.9643 69.3177 0.0000 0.3789 0.0000
# 4 0.0000 0.0000 0.0000 41.8371 0.0000 0.4654
# 5 -4.5614 11.5781 0.3789 0.0000 21.8838 0.0000
# 6 0.0000 0.0000 0.0000 0.4654 0.0000 24.7537
#
#
#
# Elastic Compliance Matrix: (Units=1/GPa)
#
#
# Indices 1 2 3 4 5 6 
#
# 1 0.072734 -0.017410 0.011802 0.000000 0.024168 0.000000
# 2 -0.017410 0.010654 -0.009447 0.000000 -0.009102 0.000000
# 3 0.011802 -0.009447 0.023103 0.000000 0.007058 0.000000
# 4 0.000000 0.000000 0.000000 0.023907 0.000000 -0.000449
# 5 0.024168 -0.009102 0.007058 0.000000 0.055427 0.000000
# 6 0.000000 0.000000 0.000000 -0.000449 0.000000 0.040406
#
#
# Mechanical properties :
#
#
# Convention : Reuss Voigt Hill
#
# Bulk Modulus (GPa) = 13.09238 62.18091 37.63664
# Shear Modulus (GPa) = 17.74288 31.62732 24.68510
#
# Velocity S-wave (km/s) = 2.98041 3.97919 3.51545
# Velocity P-wave (km/s) = 4.28933 7.22788 5.94309
#
# Compressibility (1/GPa) = 0.07638033
#
# Stress axis : x y z
#
# Youngs Moduli (GPa) = 13.74864 93.86476 43.28352
#
# Poissons Ratio (x) = 1.63422 -0.51082
# Poissons Ratio (y) = 0.23937 0.40890
# Poissons Ratio (z) = -0.16226 0.88674
#
# Static dielectric constant tensor:
#      x y z
#    x 1.741640 0.000000 -0.012190 
#    y 0.000000 1.809500 0.000000 
#    z -0.012190 0.000000 1.716460 
# 
# From -- ./inp_files/30120.got.cif
#   From: 2010.05.17/outbox.cif.g08.bks.cpg/sg15_16_cif.got.tgz:30120.got - 2010.06.03 18:47:42.
