data_PCOD9266836
_publ_section_title
;
Structure prediction by ZEFSAII (Michael W. Deem and Ramdas Pophale) SiO2 
 PCOD9266836
Probable space group: C 2/C
;
_chemical_formula_sum "Si O2"
_cell_formula_units_Z 40
_cell_length_a 12.485850
_cell_length_b 14.516114
_cell_length_c 9.720481
_cell_angle_alpha 90.000000
_cell_angle_beta 55.937321
_cell_angle_gamma 90.000000
_cell_volume 1459.518541
_symmetry_space_group_name_H-M "C 2/C"
_symmetry_group_IT_number 15
_symmetry_cell_setting 'monoclinic'
loop_
_space_group_symop_operation_xyz
x,y,z
-x,y,1/2-z
-x,-y,-z
x,-y,1/2+z
1/2+x,1/2+y,z
1/2-x,1/2+y,1/2-z
1/2-x,1/2-y,-z
1/2+x,1/2-y,1/2+z
loop_
_atom_site_type_symbol
_atom_site_label
_atom_site_fract_x
_atom_site_fract_y
_atom_site_fract_z
Si Si1 0.673261 0.624749 0.543595
Si Si2 0.626772 0.925706 0.817822
Si Si3 0.004346 0.814237 0.940548
Si Si4 0.129685 0.371235 0.374828
Si Si5 0.322509 0.588195 0.402284
O O1 0.787952 0.632456 0.347921
O O2 0.548019 0.671676 0.566442
O O3 0.740004 0.653960 0.637447
O O4 0.648899 0.515767 0.574191
O O5 0.682871 0.907924 0.931404
O O6 0.646946 0.034986 0.776680
O O7 0.476875 0.902578 0.933819
O O8 0.063062 0.716418 0.855077
O O9 0.085857 0.888494 0.794254
O O10 0.860447 0.838823 0.993724
#
# Coordination Sequence:
#
# PCOD9266836 Si02
#       5
#     8   8   8   8   8
#     4  10  19  38  62  80 118 157 192 237 294 353
#     4   9  20  38  58  81 119 155 194 232 300 349
#     4  10  20  37  59  86 119 146 200 242 284 348
#     4  10  20  37  57  88 114 155 194 243 287 345
#     4   9  20  38  57  84 116 153 189 238 295 344
#
# _framework density 27.406299000000001
#
# number of rings (size 3 to 8) (size 9 to 14) (size 15 to 20)
#    0.000    2.400    0.000    1.800    0.000    0.800 
#   28.800    0.000   17.600    0.000    0.000    0.000 
#    0.000    0.000    0.000    0.000    0.000    0.000 
#
# Total GULP energy -111935.320603 kJ/mol
# GULP energy per Si atom -5596.766030 kJ/mol
# Density = 2.734392 g / cm^3
# Si number density = 27.406299 Si / 1000 Ang^3
#
#
#
# Elastic Constant Matrix: (Units=GPa)
#
#
# Indices 1 2 3 4 5 6 
#
# 1 194.0541 45.1133 7.1695 0.0000 20.5476 0.0000
# 2 45.1133 146.0113 2.0666 0.0000 3.7746 0.0000
# 3 7.1695 2.0666 72.6710 0.0000 4.5210 0.0000
# 4 0.0000 0.0000 0.0000 10.6055 0.0000 -10.1223
# 5 20.5476 3.7746 4.5210 0.0000 41.5446 0.0000
# 6 0.0000 0.0000 0.0000 -10.1223 0.0000 35.8200
#
#
#
# Elastic Compliance Matrix: (Units=1/GPa)
#
#
# Indices 1 2 3 4 5 6 
#
# 1 0.005856 -0.001734 -0.000360 0.000000 -0.002699 0.000000
# 2 -0.001734 0.007380 -0.000051 0.000000 0.000193 0.000000
# 3 -0.000360 -0.000051 0.013880 0.000000 -0.001328 0.000000
# 4 0.000000 0.000000 0.000000 0.129115 0.000000 0.036486
# 5 -0.002699 0.000193 -0.001328 0.000000 0.025533 0.000000
# 6 0.000000 0.000000 0.000000 0.036486 0.000000 0.038228
#
#
# Mechanical properties :
#
#
# Convention : Reuss Voigt Hill
#
# Bulk Modulus (GPa) = 43.81143 57.93727 50.87435
# Shear Modulus (GPa) = 21.56186 41.48649 31.52418
#
# Velocity S-wave (km/s) = 2.80795 3.89492 3.39522
# Velocity P-wave (km/s) = 5.15105 6.43531 5.82866
#
# Compressibility (1/GPa) = 0.02282509
#
# Stress axis : x y z
#
# Youngs Moduli (GPa) = 170.77889 135.49454 72.04486
#
# Poissons Ratio (x) = 0.23499 0.02597
# Poissons Ratio (y) = 0.29618 0.00366
# Poissons Ratio (z) = 0.06156 0.00688
#
# Static dielectric constant tensor:
#      x y z
#    x 2.207120 0.000000 0.029110 
#    y 0.000000 2.101870 0.000000 
#    z 0.029110 0.000000 2.182780 
# 
# From -- ./inp_files/85982.got.cif
#   From: 2010.05.17/outbox.cif.g08.bks.cpg/sg15_43_cif.got.tgz:85982.got - 2010.06.03 18:47:42.
