data_PCOD9266964
_publ_section_title
;
Structure prediction by ZEFSAII (Michael W. Deem and Ramdas Pophale) SiO2 
 PCOD9266964
Probable space group: C 2/C
;
_chemical_formula_sum "Si O2"
_cell_formula_units_Z 64
_cell_length_a 25.013299
_cell_length_b 13.077913
_cell_length_c 14.006331
_cell_angle_alpha 90.000000
_cell_angle_beta 139.600348
_cell_angle_gamma 90.000000
_cell_volume 2969.518680
_symmetry_space_group_name_H-M "C 2/C"
_symmetry_group_IT_number 15
_symmetry_cell_setting 'monoclinic'
loop_
_space_group_symop_operation_xyz
x,y,z
-x,y,1/2-z
-x,-y,-z
x,-y,1/2+z
1/2+x,1/2+y,z
1/2-x,1/2+y,1/2-z
1/2-x,1/2-y,-z
1/2+x,1/2-y,1/2+z
loop_
_atom_site_type_symbol
_atom_site_label
_atom_site_fract_x
_atom_site_fract_y
_atom_site_fract_z
Si Si1 0.672420 0.034258 0.177038
Si Si2 0.411594 0.546358 0.576440
Si Si3 0.479795 0.894828 0.114208
Si Si4 0.838038 0.346052 0.211476
Si Si5 0.946160 0.171457 0.080964
Si Si6 0.749334 0.360940 0.545901
Si Si7 0.593965 0.630987 0.143147
Si Si8 0.751462 0.050791 0.078939
O O1 0.691957 0.120017 0.282983
O O2 0.720350 0.056742 0.144740
O O3 0.695261 0.926736 0.257040
O O4 0.576785 0.027035 0.018498
O O5 0.500000 0.548792 0.750000
O O6 0.389702 0.426507 0.525205
O O7 0.340585 0.603750 0.538429
O O8 0.417469 0.598918 0.480917
O O9 0.500000 0.924597 0.250000
O O10 0.567931 0.874963 0.187822
O O11 0.424131 0.790103 0.036932
O O12 0.849980 0.233008 0.269076
O O13 0.785186 0.363969 0.043007
O O14 0.000000 0.179909 0.250000
O O15 0.006728 0.143433 0.076353
O O16 0.750000 0.250000 0.500000
O O17 0.776589 0.443989 0.504519
O O18 0.649477 0.552101 0.278911
#
# Coordination Sequence:
#
# PCOD9266964 Si02
#       8
#     8   8   8   8   8   8   8   8
#     4  11  23  41  64  94 129 175 212 268 331 380
#     4  11  23  43  64  95 132 169 215 264 331 400
#     4  10  19  38  63  92 124 168 216 264 316 383
#     4  10  23  39  62  95 128 162 222 270 318 387
#     4   9  20  37  64  95 127 159 211 270 323 380
#     4  11  27  46  65  97 137 173 218 269 337 406
#     4  11  22  40  66  96 126 169 214 270 329 387
#     4  11  22  41  66  92 128 168 217 268 322 391
#
# _framework density 21.552315
#
# number of rings (size 3 to 8) (size 9 to 14) (size 15 to 20)
#    0.000    1.500    2.500    2.625    1.750    3.000 
#    4.500    0.625    0.000    0.000    0.000    0.000 
#    0.000    0.000    0.000    0.000    0.000    0.000 
#
# Total GULP energy -178674.477100 kJ/mol
# GULP energy per Si atom -5583.577409 kJ/mol
# Density = 2.150326 g / cm^3
# Si number density = 21.552315 Si / 1000 Ang^3
#
#
#
# Elastic Constant Matrix: (Units=GPa)
#
#
# Indices 1 2 3 4 5 6 
#
# 1 68.5101 22.4367 32.5385 0.0000 -18.9662 0.0000
# 2 22.4367 89.3831 31.2088 0.0000 -24.8131 0.0000
# 3 32.5385 31.2088 130.7756 0.0000 -18.3400 0.0000
# 4 0.0000 0.0000 0.0000 31.0935 0.0000 0.1732
# 5 -18.9662 -24.8131 -18.3400 0.0000 43.1608 0.0000
# 6 0.0000 0.0000 0.0000 0.1732 0.0000 23.0244
#
#
#
# Elastic Compliance Matrix: (Units=1/GPa)
#
#
# Indices 1 2 3 4 5 6 
#
# 1 0.018337 -0.001899 -0.003331 0.000000 0.005551 0.000000
# 2 -0.001899 0.014154 -0.002000 0.000000 0.006453 0.000000
# 3 -0.003331 -0.002000 0.009130 0.000000 0.001266 0.000000
# 4 0.000000 0.000000 0.000000 0.032162 0.000000 -0.000242
# 5 0.005551 0.006453 0.001266 0.000000 0.029856 0.000000
# 6 0.000000 0.000000 0.000000 -0.000242 0.000000 0.043434
#
#
# Mechanical properties :
#
#
# Convention : Reuss Voigt Hill
#
# Bulk Modulus (GPa) = 36.81734 51.22631 44.02182
# Shear Modulus (GPa) = 29.31036 32.95472 31.13254
#
# Velocity S-wave (km/s) = 3.69177 3.91456 3.80479
# Velocity P-wave (km/s) = 5.94071 6.65219 6.30649
#
# Compressibility (1/GPa) = 0.02716111
#
# Stress axis : x y z
#
# Youngs Moduli (GPa) = 54.53475 70.65019 109.52474
#
# Poissons Ratio (x) = 0.13416 0.36481
# Poissons Ratio (y) = 0.10356 0.21909
# Poissons Ratio (z) = 0.18165 0.14133
#
# Static dielectric constant tensor:
#      x y z
#    x 1.797840 0.000000 0.021740 
#    y 0.000000 1.820040 0.000000 
#    z 0.021740 0.000000 1.771850 
# 
# From -- ./inp_files/177845.got.cif
#   From: 2010.05.17/outbox.cif.g08.bks.cpg/sg15_89_cif.got.tgz:177845.got - 2010.06.03 18:47:42.
