data_PCOD9266193
_publ_section_title
;
Structure prediction by ZEFSAII (Michael W. Deem and Ramdas Pophale) SiO2 
 PCOD9266193
Probable space group: C 2/C
;
_chemical_formula_sum "Si O2"
_cell_formula_units_Z 64
_cell_length_a 16.669611
_cell_length_b 27.197554
_cell_length_c 8.875842
_cell_angle_alpha 90.000000
_cell_angle_beta 134.262006
_cell_angle_gamma 90.000000
_cell_volume 2881.856386
_symmetry_space_group_name_H-M "C 2/C"
_symmetry_group_IT_number 15
_symmetry_cell_setting 'monoclinic'
loop_
_space_group_symop_operation_xyz
x,y,z
-x,y,1/2-z
-x,-y,-z
x,-y,1/2+z
1/2+x,1/2+y,z
1/2-x,1/2+y,1/2-z
1/2-x,1/2-y,-z
1/2+x,1/2-y,1/2+z
loop_
_atom_site_type_symbol
_atom_site_label
_atom_site_fract_x
_atom_site_fract_y
_atom_site_fract_z
Si Si1 0.126227 0.020484 0.655585
Si Si2 0.427599 0.791084 0.004677
Si Si3 0.241028 0.457107 0.887530
Si Si4 0.929927 0.537087 0.804574
Si Si5 0.974211 0.385459 0.890300
Si Si6 0.385647 0.377634 0.504627
Si Si7 0.213287 0.804044 0.892625
Si Si8 0.519995 0.304381 0.096553
O O1 0.140414 0.065349 0.555638
O O2 0.201921 0.975355 0.691881
O O3 0.163516 0.046260 0.860786
O O4 0.000000 0.000000 0.500000
O O5 0.500000 0.779766 0.250000
O O6 0.480633 0.832045 0.969133
O O7 0.314192 0.816121 0.913880
O O8 0.414394 0.742644 0.886266
O O9 0.175325 0.504525 0.866923
O O10 0.146622 0.414159 0.747666
O O11 0.000000 0.549870 0.750000
O O12 0.000000 0.500000 0.000000
O O13 0.925127 0.584798 0.898557
O O14 0.000000 0.385074 0.750000
O O15 0.500000 0.376089 0.750000
O O16 0.302989 0.343066 0.494030
O O17 0.413846 0.351246 0.382614
O O18 0.099571 0.802005 0.646691
O O19 0.250000 0.750000 0.000000
O O20 0.500000 0.303882 0.250000
#
# Coordination Sequence:
#
# PCOD9266193 Si02
#       8
#     8   8   8   8   8   8   8   8
#     4  12  26  43  67  95 133 179 237 289 331 405
#     4  12  24  42  69 101 136 182 227 280 343 427
#     4  11  23  42  64  92 134 176 224 280 349 393
#     4  10  19  37  61  87 123 173 215 270 343 416
#     4  11  24  41  63 100 140 174 222 283 347 428
#     4  10  23  45  70  94 131 182 231 281 351 404
#     4  11  22  46  72  95 135 179 230 276 345 420
#     4  11  24  44  69 102 139 177 222 289 350 414
#
# _framework density 22.207908
#
# number of rings (size 3 to 8) (size 9 to 14) (size 15 to 20)
#    0.000    1.000    2.500    6.000    0.000    8.500 
#    2.250    0.000    0.000    0.000    0.000    0.000 
#    0.000    0.000    0.000    0.000    0.000    0.000 
#
# Total GULP energy -178649.219462 kJ/mol
# GULP energy per Si atom -5582.788108 kJ/mol
# Density = 2.215736 g / cm^3
# Si number density = 22.207908 Si / 1000 Ang^3
#
#
#
# Elastic Constant Matrix: (Units=GPa)
#
#
# Indices 1 2 3 4 5 6 
#
# 1 89.6392 14.9577 18.5893 0.0000 -21.1613 0.0000
# 2 14.9577 93.3380 15.8770 0.0000 -10.1435 0.0000
# 3 18.5893 15.8770 77.4776 0.0000 -18.4907 0.0000
# 4 0.0000 0.0000 0.0000 18.2802 0.0000 -2.5211
# 5 -21.1613 -10.1435 -18.4907 0.0000 40.7799 0.0000
# 6 0.0000 0.0000 0.0000 -2.5211 0.0000 39.8454
#
#
#
# Elastic Compliance Matrix: (Units=1/GPa)
#
#
# Indices 1 2 3 4 5 6 
#
# 1 0.013033 -0.001205 -0.001500 0.000000 0.005783 0.000000
# 2 -0.001205 0.011351 -0.001696 0.000000 0.001429 0.000000
# 3 -0.001500 -0.001696 0.014945 0.000000 0.005576 0.000000
# 4 0.000000 0.000000 0.000000 0.055185 0.000000 0.003492
# 5 0.005783 0.001429 0.005576 0.000000 0.030407 0.000000
# 6 0.000000 0.000000 0.000000 0.003492 0.000000 0.025318
#
#
# Mechanical properties :
#
#
# Convention : Reuss Voigt Hill
#
# Bulk Modulus (GPa) = 32.75723 39.92252 36.33987
# Shear Modulus (GPa) = 29.54792 33.84982 31.69887
#
# Velocity S-wave (km/s) = 3.65158 3.90837 3.78215
# Velocity P-wave (km/s) = 5.70622 6.19539 5.95583
#
# Compressibility (1/GPa) = 0.03052762
#
# Stress axis : x y z
#
# Youngs Moduli (GPa) = 76.72692 88.10087 66.91114
#
# Poissons Ratio (x) = 0.10616 0.10036
# Poissons Ratio (y) = 0.09245 0.11347
# Poissons Ratio (z) = 0.11508 0.14940
#
# Static dielectric constant tensor:
#      x y z
#    x 1.860360 0.000000 0.036350 
#    y 0.000000 1.828400 0.000000 
#    z 0.036350 0.000000 2.031760 
# 
# From -- ./inp_files/44889.got.cif
#   From: 2010.05.17/outbox.cif.g08.bks.cpg/sg15_23_cif.got.tgz:44889.got - 2010.06.03 18:47:42.
