data_PCOD9266014
_publ_section_title
;
Structure prediction by ZEFSAII (Michael W. Deem and Ramdas Pophale) SiO2 
 PCOD9266014
Probable space group: C 2/C
;
_chemical_formula_sum "Si O2"
_cell_formula_units_Z 60
_cell_length_a 11.310215
_cell_length_b 9.373487
_cell_length_c 20.231469
_cell_angle_alpha 90.000000
_cell_angle_beta 88.282375
_cell_angle_gamma 90.000000
_cell_volume 2143.898804
_symmetry_space_group_name_H-M "C 2/C"
_symmetry_group_IT_number 15
_symmetry_cell_setting 'monoclinic'
loop_
_space_group_symop_operation_xyz
x,y,z
-x,y,1/2-z
-x,-y,-z
x,-y,1/2+z
1/2+x,1/2+y,z
1/2-x,1/2+y,1/2-z
1/2-x,1/2-y,-z
1/2+x,1/2-y,1/2+z
loop_
_atom_site_type_symbol
_atom_site_label
_atom_site_fract_x
_atom_site_fract_y
_atom_site_fract_z
Si Si1 0.056494 0.562799 0.405368
Si Si2 0.131979 0.757279 0.916136
Si Si3 0.868798 0.153501 0.865172
Si Si4 0.250000 0.250000 0.000000
Si Si5 0.376376 0.391374 0.726098
Si Si6 0.543693 0.659363 0.974023
Si Si7 0.112323 0.426461 0.704134
Si Si8 0.717687 0.669376 0.148089
O O1 0.093045 0.406431 0.424357
O O2 0.142279 0.638563 0.350057
O O3 0.085754 0.670760 0.466818
O O4 0.932226 0.547887 0.370845
O O5 0.273509 0.737402 0.913414
O O6 0.101112 0.816009 0.844083
O O7 0.055236 0.847276 0.969295
O O8 0.988519 0.137327 0.904300
O O9 0.879598 0.252270 0.800871
O O10 0.826302 0.994463 0.854788
O O11 0.328741 0.397225 0.011401
O O12 0.199672 0.249508 0.080312
O O13 0.500000 0.459328 0.750000
O O14 0.248527 0.470276 0.717382
O O15 0.344786 0.277646 0.784912
O O16 0.000000 0.475859 0.750000
#
# Coordination Sequence:
#
# PCOD9266014 Si02
#       8
#     8   8   8   4   8   8   8   8
#     4   9  19  36  63  89 114 162 212 258 296 380
#     4  10  20  37  60  91 122 154 202 259 325 357
#     4   9  21  36  61  86 116 158 205 261 309 366
#     4  10  22  36  60  82 116 162 204 250 310 378
#     4  11  23  38  59  88 130 161 192 267 318 364
#     4  10  19  37  59  86 120 159 205 258 310 372
#     4  10  19  38  62  87 116 163 214 249 303 379
#     4  10  20  40  59  83 123 162 207 256 316 373
#
# _framework density 27.986397
#
# number of rings (size 3 to 8) (size 9 to 14) (size 15 to 20)
#    0.000    2.133    1.333    1.600    0.000    1.600 
#    2.400    1.333    8.800    0.000    0.000    0.000 
#    0.000    0.000    0.000    0.000    0.000    0.000 
#
# Total GULP energy -167053.084010 kJ/mol
# GULP energy per Si atom -5568.436134 kJ/mol
# Density = 2.792270 g / cm^3
# Si number density = 27.986397 Si / 1000 Ang^3
#
#
#
# Elastic Constant Matrix: (Units=GPa)
#
#
# Indices 1 2 3 4 5 6 
#
# 1 145.7579 21.8016 19.0808 0.0000 18.1481 0.0000
# 2 21.8016 47.1203 -27.1959 0.0000 -2.0752 0.0000
# 3 19.0808 -27.1959 80.9217 0.0000 -6.2852 0.0000
# 4 0.0000 0.0000 0.0000 6.2027 0.0000 5.8461
# 5 18.1481 -2.0752 -6.2852 0.0000 61.8245 0.0000
# 6 0.0000 0.0000 0.0000 5.8461 0.0000 29.4690
#
#
#
# Elastic Compliance Matrix: (Units=1/GPa)
#
#
# Indices 1 2 3 4 5 6 
#
# 1 0.008944 -0.007013 -0.004725 0.000000 -0.003341 0.000000
# 2 -0.007013 0.032027 0.012761 0.000000 0.004431 0.000000
# 3 -0.004725 0.012761 0.018044 0.000000 0.003650 0.000000
# 4 0.000000 0.000000 0.000000 0.198299 0.000000 -0.039339
# 5 -0.003341 0.004431 0.003650 0.000000 0.017675 0.000000
# 6 0.000000 0.000000 0.000000 -0.039339 0.000000 0.041738
#
#
# Mechanical properties :
#
#
# Convention : Reuss Voigt Hill
#
# Bulk Modulus (GPa) = 16.37669 33.46366 24.92017
# Shear Modulus (GPa) = 14.92376 36.84011 25.88193
#
# Velocity S-wave (km/s) = 2.31173 3.63210 3.04436
# Velocity P-wave (km/s) = 3.60414 5.43807 4.61316
#
# Compressibility (1/GPa) = 0.06106239
#
# Stress axis : x y z
#
# Youngs Moduli (GPa) = 111.80419 31.22326 55.41977
#
# Poissons Ratio (x) = 0.21896 0.26188
# Poissons Ratio (y) = 0.78405 -0.70723
# Poissons Ratio (z) = 0.52831 -0.39845
#
# Static dielectric constant tensor:
#      x y z
#    x 1.728290 0.000000 -0.128030 
#    y 0.000000 2.234230 0.000000 
#    z -0.128030 0.000000 2.230480 
# 
# From -- ./inp_files/237597.got.cif
#   From: 2010.05.17/outbox.cif.g08.bks.cpg/sg15_119_cif.got.tgz:237597.got - 2010.06.03 18:47:42.
