data_PCOD9266298
_publ_section_title
;
Structure prediction by ZEFSAII (Michael W. Deem and Ramdas Pophale) SiO2 
 PCOD9266298
Probable space group: C 2/C
;
_chemical_formula_sum "Si O2"
_cell_formula_units_Z 60
_cell_length_a 16.240457
_cell_length_b 9.419967
_cell_length_c 22.774888
_cell_angle_alpha 90.000000
_cell_angle_beta 61.092457
_cell_angle_gamma 90.000000
_cell_volume 3050.077423
_symmetry_space_group_name_H-M "C 2/C"
_symmetry_group_IT_number 15
_symmetry_cell_setting 'monoclinic'
loop_
_space_group_symop_operation_xyz
x,y,z
-x,y,1/2-z
-x,-y,-z
x,-y,1/2+z
1/2+x,1/2+y,z
1/2-x,1/2+y,1/2-z
1/2-x,1/2-y,-z
1/2+x,1/2-y,1/2+z
loop_
_atom_site_type_symbol
_atom_site_label
_atom_site_fract_x
_atom_site_fract_y
_atom_site_fract_z
Si Si1 0.797932 0.186381 0.636159
Si Si2 0.000000 0.704311 0.250000
Si Si3 0.883423 0.468637 0.353209
Si Si4 0.757000 0.581223 0.500288
Si Si5 0.108171 0.928377 0.279983
Si Si6 0.213660 0.969749 0.639915
Si Si7 0.527256 0.317972 0.651317
Si Si8 0.078931 0.915971 0.508594
O O1 0.703298 0.104170 0.650719
O O2 0.844375 0.110569 0.675380
O O3 0.772465 0.350046 0.653381
O O4 0.866678 0.180510 0.556620
O O5 0.078616 0.600634 0.196638
O O6 0.031307 0.809515 0.291236
O O7 0.840048 0.520173 0.430430
O O8 0.962947 0.346503 0.334286
O O9 0.750000 0.750000 0.500000
O O10 0.764540 0.532578 0.565376
O O11 0.659341 0.518174 0.507977
O O12 0.179437 0.921225 0.200760
O O13 0.060099 0.084490 0.298454
O O14 0.119956 0.893991 0.646168
O O15 0.534997 0.333033 0.578486
O O16 0.000000 0.000000 0.500000
#
# Coordination Sequence:
#
# PCOD9266298 Si02
#       8
#     8   4   8   8   8   8   8   8
#     4  10  23  39  62  92 125 160 210 261 312 366
#     4  12  26  40  62  92 128 162 208 264 320 382
#     4  10  24  41  63  94 121 161 216 263 313 373
#     4  10  21  39  65  91 124 165 208 261 314 374
#     4  12  23  39  63  92 125 170 206 255 322 380
#     4  10  21  39  62  88 126 165 209 251 312 376
#     4  10  20  39  66  88 122 167 211 252 310 379
#     4  10  19  37  62  93 120 158 205 256 302 369
#
# _framework density 19.671631999999999
#
# number of rings (size 3 to 8) (size 9 to 14) (size 15 to 20)
#    0.000    1.600    2.667    1.600    7.467    3.200 
#    0.000    1.333    0.000    3.200    0.000    0.000 
#    0.000    0.000    0.000    0.000    0.000    0.000 
#
# Total GULP energy -167504.643805 kJ/mol
# GULP energy per Si atom -5583.488127 kJ/mol
# Density = 1.962686 g / cm^3
# Si number density = 19.671632 Si / 1000 Ang^3
#
#
#
# Elastic Constant Matrix: (Units=GPa)
#
#
# Indices 1 2 3 4 5 6 
#
# 1 47.1859 20.5229 26.7744 0.0000 6.0905 0.0000
# 2 20.5229 96.5071 28.1730 0.0000 2.1312 0.0000
# 3 26.7744 28.1730 103.4764 0.0000 7.0272 0.0000
# 4 0.0000 0.0000 0.0000 27.3350 0.0000 -3.1893
# 5 6.0905 2.1312 7.0272 0.0000 27.3579 0.0000
# 6 0.0000 0.0000 0.0000 -3.1893 0.0000 19.8984
#
#
#
# Elastic Compliance Matrix: (Units=1/GPa)
#
#
# Indices 1 2 3 4 5 6 
#
# 1 0.026583 -0.003950 -0.005518 0.000000 -0.004193 0.000000
# 2 -0.003950 0.011844 -0.002239 0.000000 0.000532 0.000000
# 3 -0.005518 -0.002239 0.011812 0.000000 -0.001631 0.000000
# 4 0.000000 0.000000 0.000000 0.037280 0.000000 0.005975
# 5 -0.004193 0.000532 -0.001631 0.000000 0.037863 0.000000
# 6 0.000000 0.000000 0.000000 0.005975 0.000000 0.051213
#
#
# Mechanical properties :
#
#
# Convention : Reuss Voigt Hill
#
# Bulk Modulus (GPa) = 37.27772 44.23444 40.75608
# Shear Modulus (GPa) = 23.92911 26.36487 25.14699
#
# Velocity S-wave (km/s) = 3.49152 3.66491 3.57926
# Velocity P-wave (km/s) = 5.93678 6.35956 6.15180
#
# Compressibility (1/GPa) = 0.02682567
#
# Stress axis : x y z
#
# Youngs Moduli (GPa) = 37.61809 84.43341 84.65820
#
# Poissons Ratio (x) = 0.33347 0.46716
# Poissons Ratio (y) = 0.14857 0.18953
# Poissons Ratio (z) = 0.20759 0.18903
#
# Static dielectric constant tensor:
#      x y z
#    x 1.691900 0.000000 -0.032790 
#    y 0.000000 1.680460 0.000000 
#    z -0.032790 0.000000 1.705700 
# 
# From -- ./inp_files/247396.got.cif
#   From: 2010.05.17/outbox.cif.g08.bks.cpg/sg15_124_cif.got.tgz:247396.got - 2010.06.03 18:47:42.
