data_PCOD9266355
_publ_section_title
;
Structure prediction by ZEFSAII (Michael W. Deem and Ramdas Pophale) SiO2 
 PCOD9266355
Probable space group: C 2/C
;
_chemical_formula_sum "Si O2"
_cell_formula_units_Z 56
_cell_length_a 14.330193
_cell_length_b 9.277674
_cell_length_c 16.440307
_cell_angle_alpha 90.000000
_cell_angle_beta 106.617831
_cell_angle_gamma 90.000000
_cell_volume 2094.461948
_symmetry_space_group_name_H-M "C 2/C"
_symmetry_group_IT_number 15
_symmetry_cell_setting 'monoclinic'
loop_
_space_group_symop_operation_xyz
x,y,z
-x,y,1/2-z
-x,-y,-z
x,-y,1/2+z
1/2+x,1/2+y,z
1/2-x,1/2+y,1/2-z
1/2-x,1/2-y,-z
1/2+x,1/2-y,1/2+z
loop_
_atom_site_type_symbol
_atom_site_label
_atom_site_fract_x
_atom_site_fract_y
_atom_site_fract_z
Si Si1 0.027906 0.434271 0.900319
Si Si2 0.098184 0.732316 0.735959
Si Si3 0.291810 0.075418 0.342563
Si Si4 0.389366 0.559516 0.739771
Si Si5 0.161275 0.127569 0.583896
Si Si6 0.189852 0.549703 0.325585
Si Si7 0.499503 0.763853 0.047082
O O1 0.092105 0.390399 0.839652
O O2 0.059284 0.594776 0.935161
O O3 0.910098 0.449636 0.866277
O O4 0.047435 0.321689 0.976560
O O5 0.170676 0.608170 0.781047
O O6 0.000000 0.666402 0.750000
O O7 0.075368 0.766218 0.636584
O O8 0.104557 0.887637 0.778069
O O9 0.289143 0.212367 0.402269
O O10 0.218465 0.937477 0.333448
O O11 0.273289 0.132949 0.244449
O O12 0.500000 0.612751 0.750000
O O13 0.376543 0.599866 0.832284
O O14 0.231900 0.992515 0.587243
O O15 0.074476 0.140181 0.497758
#
# Coordination Sequence:
#
# PCOD9266355 Si02
#       7
#     8   8   8   8   8   8   8
#     4  10  20  35  59  94 123 150 199 258 308 346
#     4  11  19  37  62  85 114 163 201 245 296 363
#     4  10  19  37  63  91 117 157 208 257 294 353
#     4  10  23  39  61  89 121 164 207 243 301 364
#     4  10  23  38  59  92 127 161 200 254 300 358
#     4  11  19  36  63  94 119 158 202 251 299 357
#     4  10  21  36  58  89 127 160 194 251 307 356
#
# _framework density 26.737176000000002
#
# number of rings (size 3 to 8) (size 9 to 14) (size 15 to 20)
#    0.000    1.714    4.286    0.429    0.000    3.429 
#    0.000    1.429    0.000    4.286    0.000    0.000 
#    0.000    0.000    0.000    0.000    0.000    0.000 
#
# Total GULP energy -155955.085344 kJ/mol
# GULP energy per Si atom -5569.824477 kJ/mol
# Density = 2.667632 g / cm^3
# Si number density = 26.737176 Si / 1000 Ang^3
#
#
#
# Elastic Constant Matrix: (Units=GPa)
#
#
# Indices 1 2 3 4 5 6 
#
# 1 131.5013 -2.5653 20.7054 0.0000 4.7336 0.0000
# 2 -2.5653 57.0819 -1.1895 0.0000 11.3681 0.0000
# 3 20.7054 -1.1895 90.9183 0.0000 24.9237 0.0000
# 4 0.0000 0.0000 0.0000 36.8381 0.0000 14.0269
# 5 4.7336 11.3681 24.9237 0.0000 25.5369 0.0000
# 6 0.0000 0.0000 0.0000 14.0269 0.0000 24.8370
#
#
#
# Elastic Compliance Matrix: (Units=1/GPa)
#
#
# Indices 1 2 3 4 5 6 
#
# 1 0.007894 0.000271 -0.001857 0.000000 0.000229 0.000000
# 2 0.000271 0.020108 0.003644 0.000000 -0.012558 0.000000
# 3 -0.001857 0.003644 0.016137 0.000000 -0.017028 0.000000
# 4 0.000000 0.000000 0.000000 0.034583 0.000000 -0.019531
# 5 0.000229 -0.012558 -0.017028 0.000000 0.061326 0.000000
# 6 0.000000 0.000000 0.000000 -0.019531 0.000000 0.051293
#
#
# Mechanical properties :
#
#
# Convention : Reuss Voigt Hill
#
# Bulk Modulus (GPa) = 20.72354 34.82251 27.77302
# Shear Modulus (GPa) = 24.59308 34.94581 29.76944
#
# Velocity S-wave (km/s) = 3.03612 3.61918 3.34040
# Velocity P-wave (km/s) = 4.47866 5.52421 5.02868
#
# Compressibility (1/GPa) = 0.04825430
#
# Stress axis : x y z
#
# Youngs Moduli (GPa) = 126.67998 49.73210 61.96820
#
# Poissons Ratio (x) = -0.01345 0.11507
# Poissons Ratio (y) = -0.03427 -0.22581
# Poissons Ratio (z) = 0.23523 -0.18122
#
# Static dielectric constant tensor:
#      x y z
#    x 2.344830 0.000000 0.127550 
#    y 0.000000 2.198310 0.000000 
#    z 0.127550 0.000000 2.238230 
# 
# From -- ./inp_files/204125.got.cif
#   From: 2010.05.17/outbox.cif.g08.bks.cpg/sg15_103_cif.got.tgz:204125.got - 2010.06.03 18:47:42.
