data_PCOD9266879
_publ_section_title
;
Structure prediction by ZEFSAII (Michael W. Deem and Ramdas Pophale) SiO2 
 PCOD9266879
Probable space group: C 2/C
;
_chemical_formula_sum "Si O2"
_cell_formula_units_Z 48
_cell_length_a 16.522249
_cell_length_b 28.464671
_cell_length_c 8.909692
_cell_angle_alpha 90.000000
_cell_angle_beta 145.124206
_cell_angle_gamma 90.000000
_cell_volume 2395.971590
_symmetry_space_group_name_H-M "C 2/C"
_symmetry_group_IT_number 15
_symmetry_cell_setting 'monoclinic'
loop_
_space_group_symop_operation_xyz
x,y,z
-x,y,1/2-z
-x,-y,-z
x,-y,1/2+z
1/2+x,1/2+y,z
1/2-x,1/2+y,1/2-z
1/2-x,1/2-y,-z
1/2+x,1/2-y,1/2+z
loop_
_atom_site_type_symbol
_atom_site_label
_atom_site_fract_x
_atom_site_fract_y
_atom_site_fract_z
Si Si1 0.665037 0.412460 0.972567
Si Si2 0.071982 0.312072 0.697760
Si Si3 0.795006 0.674565 0.595104
Si Si4 0.334191 0.092562 0.033009
Si Si5 0.848715 0.249851 0.939264
Si Si6 0.609838 0.516340 0.797063
O O1 0.500000 0.403397 0.750000
O O2 0.676439 0.467228 0.953664
O O3 0.726011 0.374971 0.949342
O O4 0.757388 0.400842 0.257924
O O5 0.164153 0.358364 0.873763
O O6 0.139236 0.267760 0.712568
O O7 0.000000 0.299902 0.750000
O O8 0.956199 0.328857 0.396758
O O9 0.774249 0.709312 0.423516
O O10 0.724171 0.700997 0.630239
O O11 0.500000 0.081000 0.250000
O O12 0.237072 0.051805 0.956652
O O13 0.000000 0.245682 0.250000
O O14 0.500000 0.537198 0.750000
O O15 0.500000 0.500000 0.500000
#
# Coordination Sequence:
#
# PCOD9266879 Si02
#       6
#     8   8   8   8   8   8
#     4  11  21  39  66  89 128 174 213 264 335 386
#     4  10  20  38  61  88 131 166 210 275 325 380
#     4  10  19  38  62  90 126 166 219 267 320 395
#     4  11  22  43  65  97 132 173 215 273 332 389
#     4   9  20  36  60  93 124 169 218 267 323 391
#     4  11  23  43  66  95 130 170 219 274 325 392
#
# _framework density 20.033626999999999
#
# number of rings (size 3 to 8) (size 9 to 14) (size 15 to 20)
#    0.000    1.667    6.667    0.500    0.000    2.667 
#    0.000    0.833    0.000    0.000    0.000    0.000 
#    0.000    0.000    0.000    0.000    0.000    0.000 
#
# Total GULP energy -133685.288387 kJ/mol
# GULP energy per Si atom -5570.220349 kJ/mol
# Density = 1.998803 g / cm^3
# Si number density = 20.033627 Si / 1000 Ang^3
#
#
#
# Elastic Constant Matrix: (Units=GPa)
#
#
# Indices 1 2 3 4 5 6 
#
# 1 68.0557 23.8362 24.1239 0.0000 2.4202 0.0000
# 2 23.8362 84.1870 31.2155 0.0000 5.0046 0.0000
# 3 24.1239 31.2155 99.6197 0.0000 3.0718 0.0000
# 4 0.0000 0.0000 0.0000 32.4095 0.0000 11.4675
# 5 2.4202 5.0046 3.0718 0.0000 26.9551 0.0000
# 6 0.0000 0.0000 0.0000 11.4675 0.0000 -7.6867
#
#
#
# Elastic Compliance Matrix: (Units=1/GPa)
#
#
# Indices 1 2 3 4 5 6 
#
# 1 0.017056 -0.003704 -0.002954 0.000000 -0.000507 0.000000
# 2 -0.003704 0.014355 -0.003542 0.000000 -0.001929 0.000000
# 3 -0.002954 -0.003542 0.011877 0.000000 -0.000431 0.000000
# 4 0.000000 0.000000 0.000000 0.020195 0.000000 0.030128
# 5 -0.000507 -0.001929 -0.000431 0.000000 0.037552 0.000000
# 6 0.000000 0.000000 0.000000 0.030128 0.000000 -0.085148
#
#
# Mechanical properties :
#
#
# Convention : Reuss Voigt Hill
#
# Bulk Modulus (GPa) = 43.68979 45.57928 44.63454
# Shear Modulus (GPa) = 113.85724 21.84803 67.85263
#
# Velocity S-wave (km/s) = 7.54695 3.30596 5.82605
# Velocity P-wave (km/s) = 9.88926 6.11337 8.22103
#
# Compressibility (1/GPa) = 0.02288864
#
# Stress axis : x y z
#
# Youngs Moduli (GPa) = 58.62949 69.66294 84.19918
#
# Poissons Ratio (x) = 0.25801 0.24874
# Poissons Ratio (y) = 0.21715 0.29821
# Poissons Ratio (z) = 0.17320 0.24672
#
# Static dielectric constant tensor:
#      x y z
#    x 1.570610 0.000000 0.070450 
#    y 0.000000 1.775910 0.000000 
#    z 0.070450 0.000000 1.721800 
# 
# From -- ./inp_files/52874.got.cif
#   From: 2010.05.17/outbox.cif.g08.bks.cpg/sg15_27_cif.got.tgz:52874.got - 2010.06.03 18:47:42.
