data_PCOD9266575
_publ_section_title
;
Structure prediction by ZEFSAII (Michael W. Deem and Ramdas Pophale) SiO2 
 PCOD9266575
Probable space group: C 2/C
;
_chemical_formula_sum "Si O2"
_cell_formula_units_Z 44
_cell_length_a 17.521665
_cell_length_b 6.685508
_cell_length_c 18.985310
_cell_angle_alpha 90.000000
_cell_angle_beta 58.110244
_cell_angle_gamma 90.000000
_cell_volume 1888.291367
_symmetry_space_group_name_H-M "C 2/C"
_symmetry_group_IT_number 15
_symmetry_cell_setting 'monoclinic'
loop_
_space_group_symop_operation_xyz
x,y,z
-x,y,1/2-z
-x,-y,-z
x,-y,1/2+z
1/2+x,1/2+y,z
1/2-x,1/2+y,1/2-z
1/2-x,1/2-y,-z
1/2+x,1/2-y,1/2+z
loop_
_atom_site_type_symbol
_atom_site_label
_atom_site_fract_x
_atom_site_fract_y
_atom_site_fract_z
Si Si1 0.500000 0.738785 0.250000
Si Si2 0.104034 0.835433 0.945562
Si Si3 0.394224 0.402380 0.930845
Si Si4 0.611309 0.926245 0.316635
Si Si5 0.700950 0.707333 0.827386
Si Si6 0.206098 0.533561 0.461075
O O1 0.551978 0.605410 0.167715
O O2 0.564659 0.875764 0.266104
O O3 0.063190 0.694124 0.903785
O O4 0.164087 0.672163 0.956839
O O5 0.160437 0.004994 0.877840
O O6 0.059516 0.964988 0.030515
O O7 0.294415 0.489541 0.964797
O O8 0.367892 0.175130 0.965668
O O9 0.713585 0.843883 0.261644
O O10 0.624899 0.159022 0.326818
O O11 0.732260 0.840726 0.878468
#
# Coordination Sequence:
#
# PCOD9266575 Si02
#       6
#     4   8   8   8   8   8
#     4  12  26  44  64 100 152 168 226 302 358 386
#     4  10  21  39  69  97 129 178 235 277 326 411
#     4  10  21  40  65  99 137 182 222 285 344 409
#     4  11  22  40  66  97 135 180 225 287 336 412
#     4  10  19  37  68  93 123 177 238 267 327 407
#     4   9  19  38  67  95 129 177 235 271 326 415
#
# _framework density 23.301487000000002
#
# number of rings (size 3 to 8) (size 9 to 14) (size 15 to 20)
#    0.000    1.818    3.636    0.545    0.000    0.727 
#    0.000   11.818    0.000    0.000    0.000    0.000 
#    0.000    0.000    0.000    0.000    0.000    0.000 
#
# Total GULP energy -122958.828847 kJ/mol
# GULP energy per Si atom -5589.037675 kJ/mol
# Density = 2.324845 g / cm^3
# Si number density = 23.301487 Si / 1000 Ang^3
#
#
#
# Elastic Constant Matrix: (Units=GPa)
#
#
# Indices 1 2 3 4 5 6 
#
# 1 102.0723 33.4387 39.9514 0.0005 23.8340 0.0037
# 2 33.4387 135.6778 55.9509 0.0016 9.3348 0.0051
# 3 39.9514 55.9509 143.8736 0.0001 9.3337 0.0000
# 4 0.0005 0.0016 0.0001 35.3350 -0.0002 20.4048
# 5 23.8340 9.3348 9.3337 -0.0002 37.0298 0.0002
# 6 0.0037 0.0051 0.0000 20.4048 0.0002 23.1501
#
#
#
# Elastic Compliance Matrix: (Units=1/GPa)
#
#
# Indices 1 2 3 4 5 6 
#
# 1 0.013036 -0.001681 -0.002490 0.000002 -0.007339 -0.000003
# 2 -0.001681 0.009064 -0.003030 0.000001 -0.000439 -0.000003
# 3 -0.002490 -0.003030 0.008811 -0.000001 0.000146 0.000002
# 4 0.000002 0.000001 -0.000001 0.057637 -0.000001 -0.050802
# 5 -0.007339 -0.000439 0.000146 -0.000001 0.031803 0.000001
# 6 -0.000003 -0.000003 0.000002 -0.050802 0.000001 0.087974
#
#
# Mechanical properties :
#
#
# Convention : Reuss Voigt Hill
#
# Bulk Modulus (GPa) = 60.57108 71.14508 65.85808
# Shear Modulus (GPa) = 21.90765 35.92180 28.91473
#
# Velocity S-wave (km/s) = 3.06957 3.93059 3.52646
# Velocity P-wave (km/s) = 6.21401 7.15529 6.70120
#
# Compressibility (1/GPa) = 0.01650953
#
# Stress axis : x y z
#
# Youngs Moduli (GPa) = 76.71069 110.32257 113.49744
#
# Poissons Ratio (x) = 0.18545 0.28261
# Poissons Ratio (y) = 0.12895 0.34387
# Poissons Ratio (z) = 0.19101 0.33425
#
# Static dielectric constant tensor:
#      x y z
#    x 1.885440 0.000000 0.004490 
#    y 0.000000 1.853890 0.000000 
#    z 0.004490 0.000000 1.879490 
# 
# From -- ./inp_files/250744.got.cif
#   From: 2010.05.17/outbox.cif.g08.bks.cpg/sg15_126_cif.got.tgz:250744.got - 2010.06.03 18:47:42.
