data_PCOD9266117
_publ_section_title
;
Structure prediction by ZEFSAII (Michael W. Deem and Ramdas Pophale) SiO2 
 PCOD9266117
Probable space group: C 2/C
;
_chemical_formula_sum "Si O2"
_cell_formula_units_Z 60
_cell_length_a 28.885476
_cell_length_b 8.130875
_cell_length_c 12.942392
_cell_angle_alpha 90.000000
_cell_angle_beta 108.377814
_cell_angle_gamma 90.000000
_cell_volume 2884.673970
_symmetry_space_group_name_H-M "C 2/C"
_symmetry_group_IT_number 15
_symmetry_cell_setting 'monoclinic'
loop_
_space_group_symop_operation_xyz
x,y,z
-x,y,1/2-z
-x,-y,-z
x,-y,1/2+z
1/2+x,1/2+y,z
1/2-x,1/2+y,1/2-z
1/2-x,1/2-y,-z
1/2+x,1/2-y,1/2+z
loop_
_atom_site_type_symbol
_atom_site_label
_atom_site_fract_x
_atom_site_fract_y
_atom_site_fract_z
Si Si1 0.593866 0.977326 0.741418
Si Si2 0.221050 0.040598 0.179550
Si Si3 0.000000 0.041450 0.250000
Si Si4 0.328469 0.601635 0.559980
Si Si5 0.182915 0.705857 0.240604
Si Si6 0.145425 0.806161 0.774257
Si Si7 0.044822 0.238562 0.104508
Si Si8 0.067172 0.222843 0.890462
O O1 0.627323 0.855907 0.696467
O O2 0.570473 0.884457 0.821658
O O3 0.631948 0.122158 0.801632
O O4 0.554038 0.073851 0.646431
O O5 0.277392 0.063889 0.248267
O O6 0.190406 0.168060 0.228572
O O7 0.197963 0.861811 0.183010
O O8 0.212072 0.079595 0.054156
O O9 0.993619 0.153197 0.347046
O O10 0.955237 0.920059 0.196118
O O11 0.312833 0.722988 0.640337
O O12 0.343880 0.430765 0.625355
O O13 0.377168 0.677218 0.544337
O O14 0.096228 0.848059 0.674726
O O15 0.038036 0.230689 0.977403
#
# Coordination Sequence:
#
# PCOD9266117 Si02
#       8
#     8   8   4   8   8   8   8   8
#     4   9  21  40  58  87 128 155 196 248 297 363
#     4  11  20  36  61  87 123 162 204 243 293 348
#     4  12  24  42  66  94 118 148 210 258 292 380
#     4  10  19  37  60  87 117 162 198 247 298 353
#     4  10  22  35  58  89 123 157 206 246 287 350
#     4   9  19  38  60  82 123 154 198 241 295 347
#     4  10  22  42  65  84 124 157 194 251 311 352
#     4  11  21  39  65  92 118 161 197 246 314 359
#
# _framework density 20.799578
#
# number of rings (size 3 to 8) (size 9 to 14) (size 15 to 20)
#    0.800    1.067    2.667    1.600    0.000    1.600 
#    0.000   11.333    0.000    0.000    0.000    0.000 
#    0.000    0.000    0.000    0.000    0.000    0.000 
#
# Total GULP energy -167226.011216 kJ/mol
# GULP energy per Si atom -5574.200374 kJ/mol
# Density = 2.075224 g / cm^3
# Si number density = 20.799578 Si / 1000 Ang^3
#
#
#
# Elastic Constant Matrix: (Units=GPa)
#
#
# Indices 1 2 3 4 5 6 
#
# 1 26.0918 15.7348 -1.7867 0.0000 -5.9525 0.0000
# 2 15.7348 99.6458 15.0282 0.0000 -14.5677 0.0000
# 3 -1.7867 15.0282 39.5912 0.0000 -14.7061 0.0000
# 4 0.0000 0.0000 0.0000 16.6271 0.0000 -8.1906
# 5 -5.9525 -14.5677 -14.7061 0.0000 24.8352 0.0000
# 6 0.0000 0.0000 0.0000 -8.1906 0.0000 35.5934
#
#
#
# Elastic Compliance Matrix: (Units=1/GPa)
#
#
# Indices 1 2 3 4 5 6 
#
# 1 0.045939 -0.006829 0.009316 0.000000 0.012522 0.000000
# 2 -0.006829 0.012154 -0.003694 0.000000 0.003305 0.000000
# 3 0.009316 -0.003694 0.034748 0.000000 0.020642 0.000000
# 4 0.000000 0.000000 0.000000 0.067832 0.000000 0.015609
# 5 0.012522 0.003305 0.020642 0.000000 0.057429 0.000000
# 6 0.000000 0.000000 0.000000 0.015609 0.000000 0.031687
#
#
# Mechanical properties :
#
#
# Convention : Reuss Voigt Hill
#
# Bulk Modulus (GPa) = 11.05838 24.80904 17.93371
# Shear Modulus (GPa) = 17.70887 24.50130 21.10509
#
# Velocity S-wave (km/s) = 2.92105 3.43588 3.18887
# Velocity P-wave (km/s) = 4.08716 5.26250 4.71163
#
# Compressibility (1/GPa) = 0.09042919
#
# Stress axis : x y z
#
# Youngs Moduli (GPa) = 21.76805 82.27645 28.77835
#
# Poissons Ratio (x) = 0.56183 -0.26811
# Poissons Ratio (y) = 0.14864 0.10631
# Poissons Ratio (z) = -0.20280 0.30392
#
# Static dielectric constant tensor:
#      x y z
#    x 1.780760 0.000000 -0.019700 
#    y 0.000000 1.765680 0.000000 
#    z -0.019700 0.000000 1.692260 
# 
# From -- ./inp_files/125605.got.cif
#   From: 2010.05.17/outbox.cif.g08.bks.cpg/sg15_63_cif.got.tgz:125605.got - 2010.06.03 18:47:42.
