data_PCOD9266116
_publ_section_title
;
Structure prediction by ZEFSAII (Michael W. Deem and Ramdas Pophale) SiO2 
 PCOD9266116
Probable space group: C 2/C
;
_chemical_formula_sum "Si O2"
_cell_formula_units_Z 52
_cell_length_a 11.352681
_cell_length_b 14.103198
_cell_length_c 15.841856
_cell_angle_alpha 90.000000
_cell_angle_beta 109.188327
_cell_angle_gamma 90.000000
_cell_volume 2395.510136
_symmetry_space_group_name_H-M "C 2/C"
_symmetry_group_IT_number 15
_symmetry_cell_setting 'monoclinic'
loop_
_space_group_symop_operation_xyz
x,y,z
-x,y,1/2-z
-x,-y,-z
x,-y,1/2+z
1/2+x,1/2+y,z
1/2-x,1/2+y,1/2-z
1/2-x,1/2-y,-z
1/2+x,1/2-y,1/2+z
loop_
_atom_site_type_symbol
_atom_site_label
_atom_site_fract_x
_atom_site_fract_y
_atom_site_fract_z
Si Si1 0.000000 0.080620 0.750000
Si Si2 0.037485 0.299626 0.124173
Si Si3 0.563267 0.343250 0.019557
Si Si4 0.773304 0.163490 0.785565
Si Si5 0.617437 0.528392 0.936444
Si Si6 0.116947 0.433620 0.006382
Si Si7 0.608791 0.981588 0.332123
O O1 0.118992 0.146251 0.757566
O O2 0.021726 0.017403 0.837338
O O3 0.153031 0.284247 0.215835
O O4 0.090899 0.336386 0.046894
O O5 0.952810 0.385341 0.141288
O O6 0.954179 0.213915 0.071227
O O7 0.655570 0.299965 0.112688
O O8 0.431759 0.374649 0.031359
O O9 0.617207 0.444671 0.003525
O O10 0.717420 0.060748 0.800048
O O11 0.752921 0.530263 0.926906
O O12 0.139104 0.443850 0.911991
O O13 0.000000 0.500000 0.000000
O O14 0.500000 0.024414 0.250000
#
# Coordination Sequence:
#
# PCOD9266116 Si02
#       7
#     4   8   8   8   8   8   8
#     4  10  20  36  62  86 112 162 204 240 298 360
#     4  10  21  38  60  90 119 156 199 248 306 357
#     4  10  22  38  62  89 118 157 204 253 302 356
#     4  10  19  38  60  81 121 158 192 249 304 355
#     4  10  20  40  61  86 117 158 206 247 296 363
#     4  10  19  37  60  87 116 157 196 239 299 365
#     4   9  19  36  61  83 120 156 194 240 300 361
#
# _framework density 21.707276
#
# number of rings (size 3 to 8) (size 9 to 14) (size 15 to 20)
#    0.000    2.154    3.077    0.000    0.000    1.231 
#    4.154    1.538    1.692    0.000    0.000    0.000 
#    0.000    0.000    0.000    0.000    0.000    0.000 
#
# Total GULP energy -144749.303002 kJ/mol
# GULP energy per Si atom -5567.280885 kJ/mol
# Density = 2.165787 g / cm^3
# Si number density = 21.707276 Si / 1000 Ang^3
#
#
#
# Elastic Constant Matrix: (Units=GPa)
#
#
# Indices 1 2 3 4 5 6 
#
# 1 78.2683 -3.8948 -17.9277 0.0000 5.6143 0.0000
# 2 -3.8948 23.6494 24.5999 0.0000 4.2919 0.0000
# 3 -17.9277 24.5999 114.1691 0.0000 11.1475 0.0000
# 4 0.0000 0.0000 0.0000 29.4677 0.0000 -7.7294
# 5 5.6143 4.2919 11.1475 0.0000 34.5873 0.0000
# 6 0.0000 0.0000 0.0000 -7.7294 0.0000 3.3749
#
#
#
# Elastic Compliance Matrix: (Units=1/GPa)
#
#
# Indices 1 2 3 4 5 6 
#
# 1 0.013546 0.000332 0.002348 0.000000 -0.002997 0.000000
# 2 0.000332 0.054826 -0.011452 0.000000 -0.003166 0.000000
# 3 0.002348 -0.011452 0.011867 0.000000 -0.002785 0.000000
# 4 0.000000 0.000000 0.000000 0.084996 0.000000 0.194666
# 5 -0.002997 -0.003166 -0.002785 0.000000 0.030689 0.000000
# 6 0.000000 0.000000 0.000000 0.194666 0.000000 0.742145
#
#
# Mechanical properties :
#
#
# Convention : Reuss Voigt Hill
#
# Bulk Modulus (GPa) = 15.95005 24.62684 20.28844
# Shear Modulus (GPa) = 5.12027 27.70661 16.41344
#
# Velocity S-wave (km/s) = 1.53750 3.57651 2.75276
# Velocity P-wave (km/s) = 3.24278 5.33150 4.41251
#
# Compressibility (1/GPa) = 0.06269575
#
# Stress axis : x y z
#
# Youngs Moduli (GPa) = 73.82309 18.23954 84.26660
#
# Poissons Ratio (x) = -0.00606 -0.19787
# Poissons Ratio (y) = -0.02453 0.96502
# Poissons Ratio (z) = -0.17334 0.20888
#
# Static dielectric constant tensor:
#      x y z
#    x 1.878690 0.000000 0.013550 
#    y 0.000000 1.849730 0.000000 
#    z 0.013550 0.000000 1.878460 
# 
# From -- ./inp_files/198027.got.cif
#   From: 2010.05.17/outbox.cif.g08.bks.cpg/sg15_100_cif.got.tgz:198027.got - 2010.06.03 18:47:42.
