data_PCOD9266271
_publ_section_title
;
Structure prediction by ZEFSAII (Michael W. Deem and Ramdas Pophale) SiO2 
 PCOD9266271
Probable space group: C 2/C
;
_chemical_formula_sum "Si O2"
_cell_formula_units_Z 60
_cell_length_a 18.551886
_cell_length_b 11.363729
_cell_length_c 29.772298
_cell_angle_alpha 90.000000
_cell_angle_beta 152.676773
_cell_angle_gamma 90.000000
_cell_volume 2880.999642
_symmetry_space_group_name_H-M "C 2/C"
_symmetry_group_IT_number 15
_symmetry_cell_setting 'monoclinic'
loop_
_space_group_symop_operation_xyz
x,y,z
-x,y,1/2-z
-x,-y,-z
x,-y,1/2+z
1/2+x,1/2+y,z
1/2-x,1/2+y,1/2-z
1/2-x,1/2-y,-z
1/2+x,1/2-y,1/2+z
loop_
_atom_site_type_symbol
_atom_site_label
_atom_site_fract_x
_atom_site_fract_y
_atom_site_fract_z
Si Si1 0.928225 0.001785 0.302412
Si Si2 0.365932 0.330514 0.137398
Si Si3 0.000000 0.592991 0.750000
Si Si4 0.882357 0.267989 0.009778
Si Si5 0.677200 0.018386 0.084293
Si Si6 0.544131 0.231783 0.856149
Si Si7 0.088312 0.955197 0.605676
Si Si8 0.729294 0.415712 0.592614
O O1 0.790481 0.003337 0.189517
O O2 0.864018 0.008933 0.317554
O O3 0.015894 0.127614 0.343802
O O4 0.043381 0.890751 0.354932
O O5 0.500000 0.327561 0.250000
O O6 0.236865 0.425133 0.080878
O O7 0.282800 0.203420 0.096963
O O8 0.054692 0.674529 0.738692
O O9 0.862595 0.510350 0.655154
O O10 0.972389 0.321221 0.103100
O O11 0.994366 0.167600 0.053860
O O12 0.823082 0.355761 0.939383
O O13 0.724003 0.212981 0.941735
O O14 0.500000 0.000000 0.000000
O O15 0.223119 0.928759 0.643908
O O16 0.950687 0.049380 0.517854
#
# Coordination Sequence:
#
# PCOD9266271 Si02
#       8
#     8   8   4   8   8   8   8   8
#     4  10  22  41  65  93 121 162 213 269 319 376
#     4  10  21  39  63  90 124 171 213 254 320 394
#     4  12  22  36  64  90 116 164 216 248 314 382
#     4  10  19  37  62  89 117 150 199 266 317 360
#     4  11  22  36  64  91 123 158 207 265 324 375
#     4  10  20  35  62  92 114 148 207 265 307 366
#     4  10  23  42  62  90 130 164 210 265 321 379
#     4  11  23  40  62  87 128 177 206 252 320 391
#
# _framework density 20.826103
#
# number of rings (size 3 to 8) (size 9 to 14) (size 15 to 20)
#    0.000    1.600    3.333    1.600    0.933    1.600 
#    0.000    1.333    0.000    0.000    0.000    0.000 
#    0.000    0.000    0.000    0.000    0.000    0.000 
#
# Total GULP energy -167110.832011 kJ/mol
# GULP energy per Si atom -5570.361067 kJ/mol
# Density = 2.077870 g / cm^3
# Si number density = 20.826103 Si / 1000 Ang^3
#
#
#
# Elastic Constant Matrix: (Units=GPa)
#
#
# Indices 1 2 3 4 5 6 
#
# 1 89.0678 44.9242 21.3620 0.0000 -10.3799 0.0000
# 2 44.9242 92.0555 24.5566 0.0001 -10.4757 0.0001
# 3 21.3620 24.5566 54.7789 0.0017 -3.5930 0.0001
# 4 0.0000 0.0001 0.0017 4.9072 0.0001 -10.5899
# 5 -10.3799 -10.4757 -3.5930 0.0001 31.7467 0.0000
# 6 0.0000 0.0001 0.0001 -10.5899 0.0000 8.3081
#
#
#
# Elastic Compliance Matrix: (Units=1/GPa)
#
#
# Indices 1 2 3 4 5 6 
#
# 1 0.015512 -0.006482 -0.002973 -0.000001 0.002597 -0.000001
# 2 -0.006482 0.015438 -0.004229 -0.000001 0.002496 -0.000001
# 3 -0.002973 -0.004229 0.021314 0.000005 0.000044 0.000005
# 4 -0.000001 -0.000001 0.000005 -0.116401 0.000000 -0.148369
# 5 0.002597 0.002496 0.000044 0.000000 0.033177 0.000000
# 6 -0.000001 -0.000001 0.000005 -0.148369 0.000000 -0.068752
#
#
# Mechanical properties :
#
#
# Convention : Reuss Voigt Hill
#
# Bulk Modulus (GPa) = 40.16782 46.39865 43.28324
# Shear Modulus (GPa) = -78.07110 18.66303 -29.70403
#
# Velocity S-wave (km/s) = -6.12932 2.99680 -3.78072
# Velocity P-wave (km/s) = 5.54637 5.85678 1.33035
#
# Compressibility (1/GPa) = 0.02489555
#
# Stress axis : x y z
#
# Youngs Moduli (GPa) = 64.46491 64.77350 46.91822
#
# Poissons Ratio (x) = 0.41983 0.13951
# Poissons Ratio (y) = 0.41783 0.19844
# Poissons Ratio (z) = 0.19168 0.27396
#
# Static dielectric constant tensor:
#      x y z
#    x 1.785020 0.000000 -0.055090 
#    y 0.000000 1.729040 0.000000 
#    z -0.055090 0.000000 1.791610 
# 
# From -- ./inp_files/316067.got.cif
#   From: 2010.05.17/outbox.cif.g08.bks.cpg/sg15_159_cif.got.tgz:316067.got - 2010.06.03 18:47:42.
