data_PCOD9266867
_publ_section_title
;
Structure prediction by ZEFSAII (Michael W. Deem and Ramdas Pophale) SiO2 
 PCOD9266867
Probable space group: C 2/C
;
_chemical_formula_sum "Si O2"
_cell_formula_units_Z 40
_cell_length_a 9.975115
_cell_length_b 13.984103
_cell_length_c 15.757627
_cell_angle_alpha 90.000000
_cell_angle_beta 124.749176
_cell_angle_gamma 90.000000
_cell_volume 1806.063082
_symmetry_space_group_name_H-M "C 2/C"
_symmetry_group_IT_number 15
_symmetry_cell_setting 'monoclinic'
loop_
_space_group_symop_operation_xyz
x,y,z
-x,y,1/2-z
-x,-y,-z
x,-y,1/2+z
1/2+x,1/2+y,z
1/2-x,1/2+y,1/2-z
1/2-x,1/2-y,-z
1/2+x,1/2-y,1/2+z
loop_
_atom_site_type_symbol
_atom_site_label
_atom_site_fract_x
_atom_site_fract_y
_atom_site_fract_z
Si Si1 0.405193 0.178443 0.333593
Si Si2 0.870522 0.908291 0.867381
Si Si3 0.794202 0.844514 0.564781
Si Si4 0.981212 0.892252 0.103797
Si Si5 0.649611 0.035840 0.496361
O O1 0.300346 0.137396 0.218852
O O2 0.290473 0.161014 0.374737
O O3 0.449068 0.290067 0.345317
O O4 0.565281 0.114870 0.407961
O O5 0.012851 0.857128 0.864801
O O6 0.919008 0.891219 0.983039
O O7 0.891068 0.019983 0.849389
O O8 0.750000 0.750000 0.500000
O O9 0.722755 0.936390 0.487787
O O10 0.814976 0.918442 0.095517
O O11 0.500000 0.000000 0.500000
#
# Coordination Sequence:
#
# PCOD9266867 Si02
#       5
#     8   8   8   8   8
#     4  11  21  38  64  92 124 168 216 263 323 385
#     4  10  22  38  61  94 124 165 216 264 318 387
#     4  10  19  38  62  88 125 169 207 265 320 379
#     4  10  21  41  63  88 131 165 208 273 323 378
#     4   9  21  38  62  89 126 162 210 265 326 380
#
# _framework density 22.14762
#
# number of rings (size 3 to 8) (size 9 to 14) (size 15 to 20)
#    0.000    2.000    2.000    1.200    0.000    2.400 
#    3.600    0.000    4.400    0.000    0.000    0.000 
#    0.000    0.000    0.000    0.000    0.000    0.000 
#
# Total GULP energy -111667.013438 kJ/mol
# GULP energy per Si atom -5583.350672 kJ/mol
# Density = 2.209721 g / cm^3
# Si number density = 22.147620 Si / 1000 Ang^3
#
#
#
# Elastic Constant Matrix: (Units=GPa)
#
#
# Indices 1 2 3 4 5 6 
#
# 1 96.0699 8.8862 7.6434 0.0000 6.8761 0.0000
# 2 8.8862 200.0957 80.2331 0.0000 27.1206 0.0000
# 3 7.6434 80.2331 69.9091 0.0000 16.6483 0.0000
# 4 0.0000 0.0000 0.0000 26.2872 0.0000 4.3807
# 5 6.8761 27.1206 16.6483 0.0000 39.3489 0.0000
# 6 0.0000 0.0000 0.0000 4.3807 0.0000 22.7394
#
#
#
# Elastic Compliance Matrix: (Units=1/GPa)
#
#
# Indices 1 2 3 4 5 6 
#
# 1 0.010582 0.000103 -0.000909 0.000000 -0.001535 0.000000
# 2 0.000103 0.009417 -0.010308 0.000000 -0.002147 0.000000
# 3 -0.000909 -0.010308 0.027250 0.000000 -0.004266 0.000000
# 4 0.000000 0.000000 0.000000 0.039303 0.000000 -0.007572
# 5 -0.001535 -0.002147 -0.004266 0.000000 0.028967 0.000000
# 6 0.000000 0.000000 0.000000 -0.007572 0.000000 0.045435
#
#
# Mechanical properties :
#
#
# Convention : Reuss Voigt Hill
#
# Bulk Modulus (GPa) = 39.96793 62.17779 51.07286
# Shear Modulus (GPa) = 26.10659 35.62925 30.86792
#
# Velocity S-wave (km/s) = 3.43702 4.01523 3.73733
# Velocity P-wave (km/s) = 5.81689 7.04495 6.46017
#
# Compressibility (1/GPa) = 0.02502006
#
# Stress axis : x y z
#
# Youngs Moduli (GPa) = 94.50181 106.18790 36.69775
#
# Poissons Ratio (x) = -0.01091 0.03337
# Poissons Ratio (y) = -0.00971 0.37827
# Poissons Ratio (z) = 0.08592 1.09457
#
# Static dielectric constant tensor:
#      x y z
#    x 1.934180 0.000000 -0.014110 
#    y 0.000000 1.788820 0.000000 
#    z -0.014110 0.000000 1.820050 
# 
# From -- ./inp_files/178494.got.cif
#   From: 2010.05.17/outbox.cif.g08.bks.cpg/sg15_90_cif.got.tgz:178494.got - 2010.06.03 18:47:42.
