data_PCOD9266309
_publ_section_title
;
Structure prediction by ZEFSAII (Michael W. Deem and Ramdas Pophale) SiO2 
 PCOD9266309
Probable space group: C 2/C
;
_chemical_formula_sum "Si O2"
_cell_formula_units_Z 60
_cell_length_a 14.978185
_cell_length_b 10.976828
_cell_length_c 16.189096
_cell_angle_alpha 90.000000
_cell_angle_beta 59.060171
_cell_angle_gamma 90.000000
_cell_volume 2282.958216
_symmetry_space_group_name_H-M "C 2/C"
_symmetry_group_IT_number 15
_symmetry_cell_setting 'monoclinic'
loop_
_space_group_symop_operation_xyz
x,y,z
-x,y,1/2-z
-x,-y,-z
x,-y,1/2+z
1/2+x,1/2+y,z
1/2-x,1/2+y,1/2-z
1/2-x,1/2-y,-z
1/2+x,1/2-y,1/2+z
loop_
_atom_site_type_symbol
_atom_site_label
_atom_site_fract_x
_atom_site_fract_y
_atom_site_fract_z
Si Si1 0.450659 0.249436 0.438421
Si Si2 0.500000 0.387829 0.250000
Si Si3 0.289825 0.082676 0.969681
Si Si4 0.741454 0.370854 0.891765
Si Si5 0.113967 0.076034 0.308893
Si Si6 0.112263 0.304209 0.238583
Si Si7 0.415094 0.291607 0.977732
Si Si8 0.569980 0.946969 0.798069
O O1 0.446969 0.311715 0.349449
O O2 0.341653 0.270322 0.538251
O O3 0.542536 0.310971 0.449806
O O4 0.498049 0.116962 0.398996
O O5 0.580740 0.473287 0.261446
O O6 0.325101 0.133587 0.864565
O O7 0.368937 0.153871 0.991790
O O8 0.281351 0.939534 0.954979
O O9 0.172198 0.130368 0.028555
O O10 0.669139 0.457477 0.867710
O O11 0.839369 0.359463 0.782605
O O12 0.175323 0.183554 0.232954
O O13 0.017912 0.163824 0.380687
O O14 0.105355 0.416916 0.306582
O O15 0.000000 0.278347 0.250000
O O16 0.500000 0.968432 0.750000
#
# Coordination Sequence:
#
# PCOD9266309 Si02
#       8
#     8   4   8   8   8   8   8   8
#     4  11  24  44  64 103 139 184 224 290 355 419
#     4  12  22  38  68 100 146 180 224 284 364 412
#     4  10  19  37  62  99 128 186 221 288 340 413
#     4  10  24  42  70  98 140 179 235 290 353 412
#     4  11  21  40  65 103 133 181 229 297 344 411
#     4  10  19  37  67  90 128 176 240 276 337 405
#     4  10  21  37  66  94 141 175 237 282 345 416
#     4  10  23  46  69  91 132 187 229 285 344 417
#
# _framework density 26.281689
#
# number of rings (size 3 to 8) (size 9 to 14) (size 15 to 20)
#    0.000    1.600    2.667    1.600    1.867    3.733 
#    0.000    2.667    0.000    0.000    0.000    0.000 
#    0.000    0.000    0.000    0.000    0.000    0.000 
#
# Total GULP energy -167219.077436 kJ/mol
# GULP energy per Si atom -5573.969248 kJ/mol
# Density = 2.622187 g / cm^3
# Si number density = 26.281689 Si / 1000 Ang^3
#
#
#
# Elastic Constant Matrix: (Units=GPa)
#
#
# Indices 1 2 3 4 5 6 
#
# 1 123.5595 13.3551 37.3808 0.0000 11.0707 0.0000
# 2 13.3551 51.5732 9.8449 0.0000 3.5695 0.0000
# 3 37.3808 9.8449 47.1059 0.0000 7.4680 0.0000
# 4 0.0000 0.0000 0.0000 32.7817 0.0000 -0.9427
# 5 11.0707 3.5695 7.4680 0.0000 40.6256 0.0000
# 6 0.0000 0.0000 0.0000 -0.9427 0.0000 25.0028
#
#
#
# Elastic Compliance Matrix: (Units=1/GPa)
#
#
# Indices 1 2 3 4 5 6 
#
# 1 0.010792 -0.001153 -0.008109 0.000000 -0.001349 0.000000
# 2 -0.001153 0.020361 -0.003199 0.000000 -0.000887 0.000000
# 3 -0.008109 -0.003199 0.028776 0.000000 -0.002799 0.000000
# 4 0.000000 0.000000 0.000000 0.030538 0.000000 0.001151
# 5 -0.001349 -0.000887 -0.002799 0.000000 0.025575 0.000000
# 6 0.000000 0.000000 0.000000 0.001151 0.000000 0.040039
#
#
# Mechanical properties :
#
#
# Convention : Reuss Voigt Hill
#
# Bulk Modulus (GPa) = 28.56737 38.15558 33.36148
# Shear Modulus (GPa) = 25.95069 30.45919 28.20494
#
# Velocity S-wave (km/s) = 3.14571 3.40803 3.27949
# Velocity P-wave (km/s) = 4.90788 5.48048 5.20206
#
# Compressibility (1/GPa) = 0.03500497
#
# Stress axis : x y z
#
# Youngs Moduli (GPa) = 92.66072 49.11426 34.75102
#
# Poissons Ratio (x) = 0.05665 0.28180
# Poissons Ratio (y) = 0.10687 0.11119
# Poissons Ratio (z) = 0.75140 0.15714
#
# Static dielectric constant tensor:
#      x y z
#    x 2.145280 0.000000 -0.065120 
#    y 0.000000 2.303310 0.000000 
#    z -0.065120 0.000000 2.427010 
# 
# From -- ./inp_files/204439.got.cif
#   From: 2010.05.17/outbox.cif.g08.bks.cpg/sg15_103_cif.got.tgz:204439.got - 2010.06.03 18:47:42.
