data_PCOD9266910
_publ_section_title
;
Structure prediction by ZEFSAII (Michael W. Deem and Ramdas Pophale) SiO2 
 PCOD9266910
Probable space group: C 2/C
;
_chemical_formula_sum "Si O2"
_cell_formula_units_Z 56
_cell_length_a 7.400910
_cell_length_b 33.625391
_cell_length_c 19.837300
_cell_angle_alpha 90.000000
_cell_angle_beta 148.962486
_cell_angle_gamma 90.000000
_cell_volume 2545.348498
_symmetry_space_group_name_H-M "C 2/C"
_symmetry_group_IT_number 15
_symmetry_cell_setting 'monoclinic'
loop_
_space_group_symop_operation_xyz
x,y,z
-x,y,1/2-z
-x,-y,-z
x,-y,1/2+z
1/2+x,1/2+y,z
1/2-x,1/2+y,1/2-z
1/2-x,1/2-y,-z
1/2+x,1/2-y,1/2+z
loop_
_atom_site_type_symbol
_atom_site_label
_atom_site_fract_x
_atom_site_fract_y
_atom_site_fract_z
Si Si1 0.914185 0.797685 0.880787
Si Si2 0.332279 0.379179 0.803971
Si Si3 0.272578 0.365953 0.272774
Si Si4 0.913990 0.505869 0.394833
Si Si5 0.696906 0.906145 0.964023
Si Si6 0.207688 0.422999 0.456184
Si Si7 0.019444 0.715821 0.835295
O O1 0.500000 0.801361 0.750000
O O2 0.026174 0.837406 0.877413
O O3 0.969430 0.756245 0.860492
O O4 0.107710 0.799090 0.015045
O O5 0.000000 0.382858 0.750000
O O6 0.136385 0.382490 0.670826
O O7 0.607259 0.413199 0.913257
O O8 0.626906 0.384449 0.416107
O O9 0.000000 0.365370 0.250000
O O10 0.118423 0.394911 0.166561
O O11 0.255675 0.320330 0.242337
O O12 0.500000 0.504557 0.250000
O O13 0.000000 0.500000 0.500000
O O14 0.069202 0.548728 0.428392
O O15 0.095339 0.468720 0.414804
O O16 0.005054 0.909833 0.006969
O O17 0.000000 0.724846 0.750000
#
# Coordination Sequence:
#
# PCOD9266910 Si02
#       7
#     8   8   8   8   8   8   8
#     4  10  21  38  60  89 125 158 196 247 302 353
#     4   9  18  34  60  87 109 148 197 253 290 333
#     4   9  18  34  60  88 108 145 199 252 285 332
#     4  12  25  40  57  85 124 158 186 240 312 363
#     4  10  21  38  61  86 110 150 207 246 286 351
#     4  10  19  38  63  83 110 150 205 243 287 346
#     4  10  21  38  60  90 124 158 198 244 298 360
#
# _framework density 22.000917000000001
#
# number of rings (size 3 to 8) (size 9 to 14) (size 15 to 20)
#    0.000    2.000    1.429    2.143    6.000    0.571 
#    0.000   10.000    0.000    0.000    0.000    0.000 
#    0.000    0.000    0.000    0.000    0.000    0.000 
#
# Total GULP energy -156294.219831 kJ/mol
# GULP energy per Si atom -5581.936423 kJ/mol
# Density = 2.195084 g / cm^3
# Si number density = 22.000917 Si / 1000 Ang^3
#
#
#
# Elastic Constant Matrix: (Units=GPa)
#
#
# Indices 1 2 3 4 5 6 
#
# 1 32.1449 3.1132 32.3415 -0.0001 -0.4824 0.0000
# 2 3.1132 122.6362 63.3629 -0.0001 0.7227 0.0000
# 3 32.3415 63.3629 218.1309 -0.0008 -11.7215 -0.0003
# 4 -0.0001 -0.0001 -0.0008 39.5756 -0.0004 -4.2432
# 5 -0.4824 0.7227 -11.7215 -0.0004 26.1557 -0.0001
# 6 0.0000 0.0000 -0.0003 -4.2432 -0.0001 13.8167
#
#
#
# Elastic Compliance Matrix: (Units=1/GPa)
#
#
# Indices 1 2 3 4 5 6 
#
# 1 0.037200 0.002329 -0.006311 0.000000 -0.002206 0.000000
# 2 0.002329 0.009802 -0.003284 0.000000 -0.001700 0.000000
# 3 -0.006311 -0.003284 0.006632 0.000000 0.002947 0.000000
# 4 0.000000 0.000000 0.000000 0.026128 0.000000 0.008024
# 5 -0.002206 -0.001700 0.002947 0.000000 0.039559 0.000000
# 6 0.000000 0.000000 0.000000 0.008024 0.000000 0.074841
#
#
# Mechanical properties :
#
#
# Convention : Reuss Voigt Hill
#
# Bulk Modulus (GPa) = 25.57341 63.39414 44.48378
# Shear Modulus (GPa) = 22.55024 34.18254 28.36639
#
# Velocity S-wave (km/s) = 3.20499 3.94596 3.59462
# Velocity P-wave (km/s) = 5.03438 7.04540 6.12301
#
# Compressibility (1/GPa) = 0.03910312
#
# Stress axis : x y z
#
# Youngs Moduli (GPa) = 26.88196 102.02218 150.77721
#
# Poissons Ratio (x) = -0.23763 0.95150
# Poissons Ratio (y) = -0.06261 0.49514
# Poissons Ratio (z) = 0.16964 0.33503
#
# Static dielectric constant tensor:
#      x y z
#    x 1.855180 0.000000 0.003630 
#    y 0.000000 1.965000 0.000000 
#    z 0.003630 0.000000 1.823240 
# 
# From -- ./inp_files/234965.got.cif
#   From: 2010.05.17/outbox.cif.g08.bks.cpg/sg15_118_cif.got.tgz:234965.got - 2010.06.03 18:47:42.
