data_PCOD9266071
_publ_section_title
;
Structure prediction by ZEFSAII (Michael W. Deem and Ramdas Pophale) SiO2 
 PCOD9266071
Probable space group: C 2/C
;
_chemical_formula_sum "Si O2"
_cell_formula_units_Z 64
_cell_length_a 26.126340
_cell_length_b 12.086191
_cell_length_c 15.710869
_cell_angle_alpha 90.000000
_cell_angle_beta 140.448326
_cell_angle_gamma 90.000000
_cell_volume 3159.027979
_symmetry_space_group_name_H-M "C 2/C"
_symmetry_group_IT_number 15
_symmetry_cell_setting 'monoclinic'
loop_
_space_group_symop_operation_xyz
x,y,z
-x,y,1/2-z
-x,-y,-z
x,-y,1/2+z
1/2+x,1/2+y,z
1/2-x,1/2+y,1/2-z
1/2-x,1/2-y,-z
1/2+x,1/2-y,1/2+z
loop_
_atom_site_type_symbol
_atom_site_label
_atom_site_fract_x
_atom_site_fract_y
_atom_site_fract_z
Si Si1 0.687235 0.538181 0.081919
Si Si2 0.650667 0.229968 0.465286
Si Si3 0.588467 0.998077 0.899321
Si Si4 0.168734 0.651002 0.141630
Si Si5 0.905234 0.008109 0.379460
Si Si6 0.656327 0.704373 0.783265
Si Si7 0.695831 0.284918 0.804093
Si Si8 0.715990 0.082306 0.933215
O O1 0.770033 0.562618 0.238377
O O2 0.630213 0.474383 0.073680
O O3 0.717561 0.483667 0.034492
O O4 0.643582 0.653283 0.003566
O O5 0.628014 0.248566 0.337437
O O6 0.746403 0.205523 0.591132
O O7 0.602555 0.128966 0.444979
O O8 0.500000 0.016071 0.750000
O O9 0.651313 0.011738 0.901705
O O10 0.612450 0.086210 0.003108
O O11 0.130514 0.718805 0.170356
O O12 0.231857 0.728664 0.171112
O O13 0.871298 0.131371 0.317129
O O14 0.871230 0.920159 0.268673
O O15 0.000000 0.000000 0.500000
O O16 0.672411 0.166916 0.812313
O O17 0.737282 0.349869 0.934909
#
# Coordination Sequence:
#
# PCOD9266071 Si02
#       8
#     8   8   8   8   8   8   8   8
#     4  10  20  37  62  84 107 151 201 242 289 348
#     4  10  20  37  61  85 112 153 203 248 291 351
#     4  11  23  37  55  86 124 154 189 245 307 363
#     4   9  19  35  58  84 109 150 199 243 288 343
#     4  11  23  36  54  87 124 150 182 240 304 361
#     4  10  19  37  62  84 112 154 205 247 288 352
#     4   9  19  35  56  81 109 147 196 242 284 340
#     4  10  19  37  60  79 105 148 200 241 280 345
#
# _framework density 20.259395999999999
#
# number of rings (size 3 to 8) (size 9 to 14) (size 15 to 20)
#    0.000    2.000    0.000    6.000    0.000    4.000 
#    0.000    4.375    0.000    0.000    0.000    0.000 
#    0.000    0.000    0.000    0.000    0.000    0.000 
#
# Total GULP energy -178617.735243 kJ/mol
# GULP energy per Si atom -5581.804226 kJ/mol
# Density = 2.021328 g / cm^3
# Si number density = 20.259396 Si / 1000 Ang^3
#
#
#
# Elastic Constant Matrix: (Units=GPa)
#
#
# Indices 1 2 3 4 5 6 
#
# 1 48.7415 18.8145 30.6429 0.0000 -10.5879 0.0000
# 2 18.8145 76.4028 28.6744 0.0000 -3.0171 0.0000
# 3 30.6429 28.6744 65.3587 0.0000 -15.7283 0.0000
# 4 0.0000 0.0000 0.0000 26.0025 0.0000 -10.6687
# 5 -10.5879 -3.0171 -15.7283 0.0000 22.1675 0.0000
# 6 0.0000 0.0000 0.0000 -10.6687 0.0000 18.9489
#
#
#
# Elastic Compliance Matrix: (Units=1/GPa)
#
#
# Indices 1 2 3 4 5 6 
#
# 1 0.030091 -0.002889 -0.011428 0.000000 0.005871 0.000000
# 2 -0.002889 0.016150 -0.006673 0.000000 -0.003917 0.000000
# 3 -0.011428 -0.006673 0.026594 0.000000 0.012503 0.000000
# 4 0.000000 0.000000 0.000000 0.050011 0.000000 0.028157
# 5 0.005871 -0.003917 0.012503 0.000000 0.056253 0.000000
# 6 0.000000 0.000000 0.000000 0.028157 0.000000 0.068627
#
#
# Mechanical properties :
#
#
# Convention : Reuss Voigt Hill
#
# Bulk Modulus (GPa) = 32.40943 38.52962 35.46952
# Shear Modulus (GPa) = 16.66711 20.91519 18.79115
#
# Velocity S-wave (km/s) = 2.87136 3.21654 3.04884
# Velocity P-wave (km/s) = 5.19855 5.73186 5.47171
#
# Compressibility (1/GPa) = 0.03085522
#
# Stress axis : x y z
#
# Youngs Moduli (GPa) = 33.23204 61.91996 37.60202
#
# Poissons Ratio (x) = 0.17892 0.42970
# Poissons Ratio (y) = 0.09602 0.25093
# Poissons Ratio (z) = 0.37976 0.41320
#
# Static dielectric constant tensor:
#      x y z
#    x 1.745550 0.000000 -0.046650 
#    y 0.000000 1.775310 0.000000 
#    z -0.046650 0.000000 1.718180 
# 
# From -- ./inp_files/177837.got.cif
#   From: 2010.05.17/outbox.cif.g08.bks.cpg/sg15_89_cif.got.tgz:177837.got - 2010.06.03 18:47:42.
