data_PCOD9266894
_publ_section_title
;
Structure prediction by ZEFSAII (Michael W. Deem and Ramdas Pophale) SiO2 
 PCOD9266894
Probable space group: C 2/C
;
_chemical_formula_sum "Si O2"
_cell_formula_units_Z 64
_cell_length_a 19.084231
_cell_length_b 19.268551
_cell_length_c 18.674646
_cell_angle_alpha 90.000000
_cell_angle_beta 154.391349
_cell_angle_gamma 90.000000
_cell_volume 2968.129722
_symmetry_space_group_name_H-M "C 2/C"
_symmetry_group_IT_number 15
_symmetry_cell_setting 'monoclinic'
loop_
_space_group_symop_operation_xyz
x,y,z
-x,y,1/2-z
-x,-y,-z
x,-y,1/2+z
1/2+x,1/2+y,z
1/2-x,1/2+y,1/2-z
1/2-x,1/2-y,-z
1/2+x,1/2-y,1/2+z
loop_
_atom_site_type_symbol
_atom_site_label
_atom_site_fract_x
_atom_site_fract_y
_atom_site_fract_z
Si Si1 0.320578 0.945459 0.552466
Si Si2 0.189198 0.391129 0.450897
Si Si3 0.094405 0.328363 0.501986
Si Si4 0.647079 0.437775 0.537271
Si Si5 0.771232 0.900402 0.187625
Si Si6 0.777807 0.554084 0.310550
Si Si7 0.749749 0.705218 0.715436
Si Si8 0.929716 0.902291 0.545390
O O1 0.500000 0.940413 0.750000
O O2 0.212254 0.920130 0.518958
O O3 0.286326 0.905673 0.447419
O O4 0.287854 0.027452 0.506986
O O5 0.191019 0.336918 0.517509
O O6 0.336712 0.378288 0.531655
O O7 0.000000 0.387987 0.250000
O O8 0.077276 0.405479 0.518092
O O9 0.180840 0.281412 0.641110
O O10 0.917182 0.298471 0.326585
O O11 0.465912 0.408336 0.373982
O O12 0.750366 0.422042 0.703475
O O13 0.643292 0.521631 0.536134
O O14 0.720989 0.829333 0.180457
O O15 0.710231 0.971806 0.168783
O O16 0.619325 0.581519 0.208962
O O17 0.623291 0.653425 0.561634
#
# Coordination Sequence:
#
# PCOD9266894 Si02
#       8
#     8   8   8   8   8   8   8   8
#     4  10  22  36  62 102 136 160 210 271 333 388
#     4  10  20  39  60  90 135 175 212 261 316 388
#     4  12  27  42  61  90 131 175 225 271 326 384
#     4  10  20  36  65  97 132 163 209 267 328 391
#     4  11  21  40  67  97 129 172 213 276 333 386
#     4  11  21  39  66  99 125 171 223 268 330 387
#     4  12  25  42  64  90 129 174 227 272 321 384
#     4  10  19  38  62  92 129 167 213 264 311 387
#
# _framework density 21.5624
#
# number of rings (size 3 to 8) (size 9 to 14) (size 15 to 20)
#    0.000    1.250    5.000    1.875    1.750    1.500 
#    0.000    0.000    0.000    0.750    0.000    0.000 
#    0.000    0.000    0.000    0.000    0.000    0.000 
#
# Total GULP energy -178600.269266 kJ/mol
# GULP energy per Si atom -5581.258415 kJ/mol
# Density = 2.151332 g / cm^3
# Si number density = 21.562400 Si / 1000 Ang^3
#
#
#
# Elastic Constant Matrix: (Units=GPa)
#
#
# Indices 1 2 3 4 5 6 
#
# 1 122.0138 46.6291 13.3087 -0.0021 -8.4595 -0.0030
# 2 46.6291 45.5981 11.3951 0.0079 -0.5448 -0.0001
# 3 13.3087 11.3951 12.2791 0.0062 -7.6671 0.0000
# 4 -0.0021 0.0079 0.0062 25.9994 0.0003 -3.6882
# 5 -8.4595 -0.5448 -7.6671 0.0003 34.3790 -0.0005
# 6 -0.0030 -0.0001 0.0000 -3.6882 -0.0005 21.7294
#
#
#
# Elastic Compliance Matrix: (Units=1/GPa)
#
#
# Indices 1 2 3 4 5 6 
#
# 1 0.013791 -0.014098 0.000134 0.000006 0.003200 0.000003
# 2 -0.014098 0.044205 -0.031916 -0.000007 -0.009886 -0.000003
# 3 0.000134 -0.031916 0.128513 -0.000022 0.028188 -0.000003
# 4 0.000006 -0.000007 -0.000022 0.039411 -0.000004 0.006689
# 5 0.003200 -0.009886 0.028188 -0.000004 0.036005 0.000000
# 6 0.000003 -0.000003 -0.000003 0.006689 0.000000 0.047156
#
#
# Mechanical properties :
#
#
# Convention : Reuss Voigt Hill
#
# Bulk Modulus (GPa) = 10.55417 35.83963 23.19690
# Shear Modulus (GPa) = 11.56275 23.65875 17.61075
#
# Velocity S-wave (km/s) = 2.31821 3.31603 2.86096
# Velocity P-wave (km/s) = 3.47431 5.59632 4.65777
#
# Compressibility (1/GPa) = 0.09474930
#
# Stress axis : x y z
#
# Youngs Moduli (GPa) = 72.51277 22.62192 7.78131
#
# Poissons Ratio (x) = 0.31892 -0.00104
# Poissons Ratio (y) = 1.02226 0.24835
# Poissons Ratio (z) = -0.00970 0.72199
#
# Static dielectric constant tensor:
#      x y z
#    x 1.881110 0.000000 0.038450 
#    y 0.000000 1.748920 -0.000010 
#    z 0.038450 -0.000010 1.834000 
# 
# From -- ./inp_files/211981.got.cif
#   From: 2010.05.17/outbox.cif.g08.bks.cpg/sg15_106_cif.got.tgz:211981.got - 2010.06.03 18:47:42.
