data_PCOD9266129
_publ_section_title
;
Structure prediction by ZEFSAII (Michael W. Deem and Ramdas Pophale) SiO2 
 PCOD9266129
Probable space group: C 2/C
;
_chemical_formula_sum "Si O2"
_cell_formula_units_Z 60
_cell_length_a 27.385061
_cell_length_b 18.668886
_cell_length_c 12.748890
_cell_angle_alpha 90.000000
_cell_angle_beta 152.832620
_cell_angle_gamma 90.000000
_cell_volume 2975.995692
_symmetry_space_group_name_H-M "C 2/C"
_symmetry_group_IT_number 15
_symmetry_cell_setting 'monoclinic'
loop_
_space_group_symop_operation_xyz
x,y,z
-x,y,1/2-z
-x,-y,-z
x,-y,1/2+z
1/2+x,1/2+y,z
1/2-x,1/2+y,1/2-z
1/2-x,1/2-y,-z
1/2+x,1/2-y,1/2+z
loop_
_atom_site_type_symbol
_atom_site_label
_atom_site_fract_x
_atom_site_fract_y
_atom_site_fract_z
Si Si1 0.806300 0.425426 0.342852
Si Si2 0.041818 0.938140 0.004352
Si Si3 0.500000 0.455574 0.250000
Si Si4 0.153936 0.834387 0.909126
Si Si5 0.277132 0.075741 0.019636
Si Si6 0.094980 0.556016 0.678381
Si Si7 0.818912 0.670079 0.527325
Si Si8 0.766710 0.089635 0.337222
O O1 0.834149 0.408468 0.517101
O O2 0.894584 0.416004 0.420283
O O3 0.773922 0.509366 0.270676
O O4 0.712397 0.375244 0.116659
O O5 0.954282 0.877139 0.821177
O O6 0.154460 0.910435 0.257639
O O7 0.058181 0.987902 0.935798
O O8 0.000000 0.000000 0.000000
O O9 0.602639 0.412182 0.402125
O O10 0.141715 0.750872 0.910307
O O11 0.230276 0.835387 0.951597
O O12 0.289585 0.109391 0.159224
O O13 0.301214 0.991755 0.090321
O O14 0.088439 0.618454 0.750824
O O15 0.000000 0.500000 0.500000
O O16 0.768128 0.640481 0.323819
#
# Coordination Sequence:
#
# PCOD9266129 Si02
#       8
#     8   8   4   8   8   8   8   8
#     4  10  19  37  60  88 123 155 203 256 311 360
#     4  12  18  31  57  93 121 154 197 246 308 370
#     4  12  18  28  58  94 124 156 202 252 308 356
#     4  10  21  37  64  91 122 161 201 257 315 370
#     4  11  21  34  58  90 125 156 204 255 310 359
#     4  10  21  39  66  90 113 161 217 262 297 359
#     4  10  21  40  61  90 121 161 212 256 303 371
#     4  11  20  33  58  92 126 162 200 252 304 370
#
# _framework density 20.16132
#
# number of rings (size 3 to 8) (size 9 to 14) (size 15 to 20)
#    0.000    1.333    5.333    2.400    0.000    0.533 
#    0.000    0.667   20.533    0.000    0.000    0.000 
#    0.000    0.000    0.000    0.000    0.000    0.000 
#
# Total GULP energy -167131.269469 kJ/mol
# GULP energy per Si atom -5571.042316 kJ/mol
# Density = 2.011543 g / cm^3
# Si number density = 20.161320 Si / 1000 Ang^3
#
#
#
# Elastic Constant Matrix: (Units=GPa)
#
#
# Indices 1 2 3 4 5 6 
#
# 1 101.0059 23.1423 41.4489 0.0000 -42.4716 0.0000
# 2 23.1423 114.9826 49.0113 0.0000 -8.4852 0.0000
# 3 41.4489 49.0113 70.1270 0.0000 -8.7348 0.0000
# 4 0.0000 0.0000 0.0000 21.1567 0.0000 -8.5699
# 5 -42.4716 -8.4852 -8.7348 0.0000 38.9090 0.0000
# 6 0.0000 0.0000 0.0000 -8.5699 0.0000 19.4552
#
#
#
# Elastic Compliance Matrix: (Units=1/GPa)
#
#
# Indices 1 2 3 4 5 6 
#
# 1 0.025724 0.002610 -0.013847 0.000000 0.025540 0.000000
# 2 0.002610 0.012675 -0.009981 0.000000 0.003372 0.000000
# 3 -0.013847 -0.009981 0.028050 0.000000 -0.010994 0.000000
# 4 0.000000 0.000000 0.000000 0.057532 0.000000 0.025342
# 5 0.025540 0.003372 -0.010994 0.000000 0.051846 0.000000
# 6 0.000000 0.000000 0.000000 0.025342 0.000000 0.062563
#
#
# Mechanical properties :
#
#
# Convention : Reuss Voigt Hill
#
# Bulk Modulus (GPa) = 41.64453 57.03561 49.34007
# Shear Modulus (GPa) = 17.31121 27.40505 22.35813
#
# Velocity S-wave (km/s) = 2.93343 3.69085 3.33372
# Velocity P-wave (km/s) = 5.67220 6.82013 6.27248
#
# Compressibility (1/GPa) = 0.02401276
#
# Stress axis : x y z
#
# Youngs Moduli (GPa) = 38.87453 78.89616 35.65043
#
# Poissons Ratio (x) = -0.20588 0.49364
# Poissons Ratio (y) = -0.10144 0.35582
# Poissons Ratio (z) = 0.53829 0.78744
#
# Static dielectric constant tensor:
#      x y z
#    x 2.109160 0.000000 0.215530 
#    y 0.000000 1.689430 0.000000 
#    z 0.215530 0.000000 1.834760 
# 
# From -- ./inp_files/124010.got.cif
#   From: 2010.05.17/outbox.cif.g08.bks.cpg/sg15_63_cif.got.tgz:124010.got - 2010.06.03 18:47:42.
