data_PCOD9266025
_publ_section_title
;
Structure prediction by ZEFSAII (Michael W. Deem and Ramdas Pophale) SiO2 
 PCOD9266025
Probable space group: C 2/C
;
_chemical_formula_sum "Si O2"
_cell_formula_units_Z 56
_cell_length_a 25.616173
_cell_length_b 11.887549
_cell_length_c 15.123296
_cell_angle_alpha 90.000000
_cell_angle_beta 38.712004
_cell_angle_gamma 90.000000
_cell_volume 2880.150405
_symmetry_space_group_name_H-M "C 2/C"
_symmetry_group_IT_number 15
_symmetry_cell_setting 'monoclinic'
loop_
_space_group_symop_operation_xyz
x,y,z
-x,y,1/2-z
-x,-y,-z
x,-y,1/2+z
1/2+x,1/2+y,z
1/2-x,1/2+y,1/2-z
1/2-x,1/2-y,-z
1/2+x,1/2-y,1/2+z
loop_
_atom_site_type_symbol
_atom_site_label
_atom_site_fract_x
_atom_site_fract_y
_atom_site_fract_z
Si Si1 0.114472 0.165241 0.023881
Si Si2 0.005708 0.950639 0.141848
Si Si3 0.182613 0.071468 0.673652
Si Si4 0.200679 0.288924 0.759078
Si Si5 0.149615 0.864690 0.826489
Si Si6 0.152072 0.724984 0.651677
Si Si7 0.272653 0.014145 0.878479
O O1 0.105767 0.240460 0.123456
O O2 0.040654 0.077606 0.104021
O O3 0.130187 0.245711 0.919873
O O4 0.197235 0.085849 0.931997
O O5 0.000000 0.906463 0.250000
O O6 0.915214 0.939705 0.219332
O O7 0.072227 0.889847 0.991561
O O8 0.204724 0.194770 0.678130
O O9 0.231715 0.037668 0.520964
O O10 0.195047 0.979625 0.734715
O O11 0.284509 0.291034 0.706760
O O12 0.195044 0.412892 0.724987
O O13 0.125987 0.803378 0.767097
O O14 0.250000 0.750000 0.500000
O O15 0.155462 0.598556 0.683254
#
# Coordination Sequence:
#
# PCOD9266025 Si02
#       7
#     8   8   8   8   8   8   8
#     4  11  20  36  60  90 122 161 213 255 308 361
#     4  12  23  39  62  94 128 156 204 267 314 362
#     4  12  23  38  61  95 128 156 206 265 316 364
#     4  12  22  34  57  93 126 162 203 253 314 373
#     4  12  21  37  61  89 125 163 206 253 318 359
#     4  10  19  37  59  87 121 164 208 260 294 368
#     4  11  20  38  58  90 127 159 202 257 312 366
#
# _framework density 19.443429999999999
#
# number of rings (size 3 to 8) (size 9 to 14) (size 15 to 20)
#    0.000    0.571   10.000    0.857    0.000    0.000 
#    0.000    0.000    0.000    0.857    0.000    0.000 
#    0.000    0.000    0.000    0.000    0.000    0.000 
#
# Total GULP energy -156461.668222 kJ/mol
# GULP energy per Si atom -5587.916722 kJ/mol
# Density = 1.939918 g / cm^3
# Si number density = 19.443430 Si / 1000 Ang^3
#
#
#
# Elastic Constant Matrix: (Units=GPa)
#
#
# Indices 1 2 3 4 5 6 
#
# 1 64.1931 29.8822 13.8584 0.0000 9.6709 0.0000
# 2 29.8822 108.9395 26.6739 0.0000 18.2384 0.0000
# 3 13.8584 26.6739 95.3253 0.0000 34.5339 0.0000
# 4 0.0000 0.0000 0.0000 23.6956 0.0000 17.8553
# 5 9.6709 18.2384 34.5339 0.0000 32.9343 0.0000
# 6 0.0000 0.0000 0.0000 17.8553 0.0000 43.3252
#
#
#
# Elastic Compliance Matrix: (Units=1/GPa)
#
#
# Indices 1 2 3 4 5 6 
#
# 1 0.018113 -0.004451 -0.000571 0.000000 -0.002255 0.000000
# 2 -0.004451 0.011311 -0.001165 0.000000 -0.003736 0.000000
# 3 -0.000571 -0.001165 0.017101 0.000000 -0.017119 0.000000
# 4 0.000000 0.000000 0.000000 0.061211 0.000000 -0.025226
# 5 -0.002255 -0.003736 -0.017119 0.000000 0.051045 0.000000
# 6 0.000000 0.000000 0.000000 -0.025226 0.000000 0.033478
#
#
# Mechanical properties :
#
#
# Convention : Reuss Voigt Hill
#
# Bulk Modulus (GPa) = 29.28075 45.47633 37.37854
# Shear Modulus (GPa) = 23.14654 33.19392 28.17023
#
# Velocity S-wave (km/s) = 3.45404 4.13632 3.81048
# Velocity P-wave (km/s) = 5.56771 6.80088 6.21495
#
# Compressibility (1/GPa) = 0.03415213
#
# Stress axis : x y z
#
# Youngs Moduli (GPa) = 55.20897 88.41031 58.47602
#
# Poissons Ratio (x) = 0.39352 0.03337
# Poissons Ratio (y) = 0.24574 0.06810
# Poissons Ratio (z) = 0.03151 0.10296
#
# Static dielectric constant tensor:
#      x y z
#    x 1.701290 0.000000 0.021090 
#    y 0.000000 1.708880 0.000000 
#    z 0.021090 0.000000 1.693730 
# 
# From -- ./inp_files/177544.got.cif
#   From: 2010.05.17/outbox.cif.g08.bks.cpg/sg15_89_cif.got.tgz:177544.got - 2010.06.03 18:47:42.
