data_PCOD9266782
_publ_section_title
;
Structure prediction by ZEFSAII (Michael W. Deem and Ramdas Pophale) SiO2 
 PCOD9266782
Probable space group: C 2/C
;
_chemical_formula_sum "Si O2"
_cell_formula_units_Z 48
_cell_length_a 28.736405
_cell_length_b 9.753321
_cell_length_c 15.827636
_cell_angle_alpha 90.000000
_cell_angle_beta 28.425223
_cell_angle_gamma 90.000000
_cell_volume 2111.632641
_symmetry_space_group_name_H-M "C 2/C"
_symmetry_group_IT_number 15
_symmetry_cell_setting 'monoclinic'
loop_
_space_group_symop_operation_xyz
x,y,z
-x,y,1/2-z
-x,-y,-z
x,-y,1/2+z
1/2+x,1/2+y,z
1/2-x,1/2+y,1/2-z
1/2-x,1/2-y,-z
1/2+x,1/2-y,1/2+z
loop_
_atom_site_type_symbol
_atom_site_label
_atom_site_fract_x
_atom_site_fract_y
_atom_site_fract_z
Si Si1 0.930811 0.447446 0.440973
Si Si2 0.404610 0.524340 0.950017
Si Si3 0.663996 0.430998 0.600190
Si Si4 0.266088 0.848456 0.588864
Si Si5 0.035935 0.833406 0.515541
Si Si6 0.562139 0.763802 0.485862
O O1 0.823578 0.418072 0.573209
O O2 0.937567 0.577438 0.491384
O O3 0.000000 0.471579 0.250000
O O4 0.963371 0.309214 0.435649
O O5 0.500000 0.461214 0.750000
O O6 0.329362 0.526394 0.992679
O O7 0.383343 0.427899 0.065442
O O8 0.434337 0.671811 0.936038
O O9 0.673291 0.278587 0.545824
O O10 0.744200 0.447832 0.544779
O O11 0.560491 0.426458 0.813915
O O12 0.164255 0.778128 0.778315
O O13 0.025642 0.786350 0.435013
#
# Coordination Sequence:
#
# PCOD9266782 Si02
#       6
#     8   8   8   8   8   8
#     4  12  22  40  61  89 119 156 193 243 295 347
#     4  10  19  38  61  84 114 156 192 236 291 354
#     4   9  18  37  62  79 104 153 206 227 269 356
#     4  10  21  37  58  83 111 154 194 235 281 347
#     4  10  19  39  62  84 109 160 200 232 280 362
#     4  11  25  35  57  92 125 142 191 254 298 329
#
# _framework density 22.731225999999999
#
# number of rings (size 3 to 8) (size 9 to 14) (size 15 to 20)
#    0.000    1.667    3.333    2.000    2.333    0.000 
#    0.000    0.833    0.000    0.000    0.000    0.000 
#    0.000    0.000    0.000    0.000    0.000    0.000 
#
# Total GULP energy -133886.086700 kJ/mol
# GULP energy per Si atom -5578.586946 kJ/mol
# Density = 2.267949 g / cm^3
# Si number density = 22.731226 Si / 1000 Ang^3
#
#
#
# Elastic Constant Matrix: (Units=GPa)
#
#
# Indices 1 2 3 4 5 6 
#
# 1 107.5765 29.2617 5.2101 0.0000 13.7525 0.0000
# 2 29.2617 96.9027 10.0255 0.0000 4.6397 0.0000
# 3 5.2101 10.0255 34.0478 0.0000 -0.1079 0.0000
# 4 0.0000 0.0000 0.0000 17.0519 0.0000 3.7751
# 5 13.7525 4.6397 -0.1079 0.0000 15.9742 0.0000
# 6 0.0000 0.0000 0.0000 3.7751 0.0000 21.5562
#
#
#
# Elastic Compliance Matrix: (Units=1/GPa)
#
#
# Indices 1 2 3 4 5 6 
#
# 1 0.011256 -0.002881 -0.000902 0.000000 -0.008859 0.000000
# 2 -0.002881 0.011539 -0.002959 0.000000 -0.000891 0.000000
# 3 -0.000902 -0.002959 0.030386 0.000000 0.001841 0.000000
# 4 0.000000 0.000000 0.000000 0.061010 0.000000 -0.010684
# 5 -0.008859 -0.000891 0.001841 0.000000 0.070499 0.000000
# 6 0.000000 0.000000 0.000000 -0.010684 0.000000 0.048262
#
#
# Mechanical properties :
#
#
# Convention : Reuss Voigt Hill
#
# Bulk Modulus (GPa) = 25.19252 36.39129 30.79190
# Shear Modulus (GPa) = 19.25535 23.85176 21.55355
#
# Velocity S-wave (km/s) = 2.91363 3.24280 3.08261
# Velocity P-wave (km/s) = 4.73560 5.48317 5.12303
#
# Compressibility (1/GPa) = 0.03969432
#
# Stress axis : x y z
#
# Youngs Moduli (GPa) = 88.84359 86.66594 32.91011
#
# Poissons Ratio (x) = 0.24972 0.02969
# Poissons Ratio (y) = 0.25599 0.09740
# Poissons Ratio (z) = 0.08014 0.25649
#
# Static dielectric constant tensor:
#      x y z
#    x 1.991790 0.000000 -0.007820 
#    y 0.000000 1.794600 0.000000 
#    z -0.007820 0.000000 1.932200 
# 
# From -- ./inp_files/176845.got.cif
#   From: 2010.05.17/outbox.cif.g08.bks.cpg/sg15_89_cif.got.tgz:176845.got - 2010.06.03 18:47:42.
