data_PCOD9266209
_publ_section_title
;
Structure prediction by ZEFSAII (Michael W. Deem and Ramdas Pophale) SiO2 
 PCOD9266209
Probable space group: C 2/C
;
_chemical_formula_sum "Si O2"
_cell_formula_units_Z 56
_cell_length_a 12.008644
_cell_length_b 12.982170
_cell_length_c 17.541432
_cell_angle_alpha 90.000000
_cell_angle_beta 65.854415
_cell_angle_gamma 90.000000
_cell_volume 2495.418963
_symmetry_space_group_name_H-M "C 2/C"
_symmetry_group_IT_number 15
_symmetry_cell_setting 'monoclinic'
loop_
_space_group_symop_operation_xyz
x,y,z
-x,y,1/2-z
-x,-y,-z
x,-y,1/2+z
1/2+x,1/2+y,z
1/2-x,1/2+y,1/2-z
1/2-x,1/2-y,-z
1/2+x,1/2-y,1/2+z
loop_
_atom_site_type_symbol
_atom_site_label
_atom_site_fract_x
_atom_site_fract_y
_atom_site_fract_z
Si Si1 0.016097 0.065326 0.072199
Si Si2 0.972307 0.882511 0.169610
Si Si3 0.212151 0.829414 0.834211
Si Si4 0.803417 0.562841 0.014226
Si Si5 0.365106 0.177033 0.148051
Si Si6 0.760348 0.837647 0.433321
Si Si7 0.424683 0.972049 0.843401
O O1 0.945383 0.000286 0.158889
O O2 0.926636 0.162250 0.098380
O O3 0.159220 0.085437 0.042785
O O4 0.000000 0.000000 0.000000
O O5 0.102867 0.874502 0.093627
O O6 0.000000 0.862474 0.250000
O O7 0.890364 0.797688 0.152695
O O8 0.249560 0.842951 0.735704
O O9 0.249700 0.716742 0.854758
O O10 0.302116 0.910680 0.852260
O O11 0.847290 0.638598 0.067775
O O12 0.815709 0.442510 0.038240
O O13 0.881598 0.558424 0.915013
O O14 0.481952 0.113811 0.148390
O O15 0.750000 0.750000 0.500000
O O16 0.500000 0.013887 0.750000
#
# Coordination Sequence:
#
# PCOD9266209 Si02
#       7
#     8   8   8   8   8   8   8
#     4  11  24  40  64  95 132 172 214 270 328 393
#     4  11  21  40  66  94 120 169 224 265 315 387
#     4  11  20  36  62  91 132 169 212 272 324 375
#     4  11  23  38  64  99 127 170 221 268 331 388
#     4  11  22  36  62  96 128 165 219 278 315 375
#     4  11  19  36  63  92 122 162 224 266 306 387
#     4  10  19  37  61  90 123 166 215 268 322 375
#
# _framework density 22.441122
#
# number of rings (size 3 to 8) (size 9 to 14) (size 15 to 20)
#    0.000    1.143    5.714    1.714    4.000    0.000 
#    0.000    0.714    3.143    0.000    0.000    0.000 
#    0.000    0.000    0.000    0.000    0.000    0.000 
#
# Total GULP energy -156258.522183 kJ/mol
# GULP energy per Si atom -5580.661507 kJ/mol
# Density = 2.239005 g / cm^3
# Si number density = 22.441122 Si / 1000 Ang^3
#
#
#
# Elastic Constant Matrix: (Units=GPa)
#
#
# Indices 1 2 3 4 5 6 
#
# 1 56.7680 5.3122 37.1512 0.0000 -0.1747 0.0000
# 2 5.3122 25.2235 21.9537 0.0000 6.4655 0.0000
# 3 37.1512 21.9537 124.9044 0.0000 -3.3296 0.0000
# 4 0.0000 0.0000 0.0000 28.6633 0.0000 4.9902
# 5 -0.1747 6.4655 -3.3296 0.0000 33.5614 0.0000
# 6 0.0000 0.0000 0.0000 4.9902 0.0000 17.4396
#
#
#
# Elastic Compliance Matrix: (Units=1/GPa)
#
#
# Indices 1 2 3 4 5 6 
#
# 1 0.021929 0.001533 -0.006815 0.000000 -0.000857 0.000000
# 2 0.001533 0.050410 -0.009600 0.000000 -0.010656 0.000000
# 3 -0.006815 -0.009600 0.011800 0.000000 0.002985 0.000000
# 4 0.000000 0.000000 0.000000 0.036717 0.000000 -0.010506
# 5 -0.000857 -0.010656 0.002985 0.000000 0.032141 0.000000
# 6 0.000000 0.000000 0.000000 -0.010506 0.000000 0.060347
#
#
# Mechanical properties :
#
#
# Convention : Reuss Voigt Hill
#
# Bulk Modulus (GPa) = 18.39090 37.30333 27.84711
# Shear Modulus (GPa) = 19.13995 25.43144 22.28570
#
# Velocity S-wave (km/s) = 2.92361 3.37003 3.15473
# Velocity P-wave (km/s) = 4.42827 5.63930 5.07007
#
# Compressibility (1/GPa) = 0.05437472
#
# Stress axis : x y z
#
# Youngs Moduli (GPa) = 45.60082 19.83738 84.74532
#
# Poissons Ratio (x) = -0.03041 0.57753
# Poissons Ratio (y) = -0.06990 0.81357
# Poissons Ratio (z) = 0.31076 0.19044
#
# Static dielectric constant tensor:
#      x y z
#    x 1.843970 0.000000 0.043040 
#    y 0.000000 1.974870 0.000000 
#    z 0.043040 0.000000 1.930000 
# 
# From -- ./inp_files/197761.got.cif
#   From: 2010.05.17/outbox.cif.g08.bks.cpg/sg15_99_cif.got.tgz:197761.got - 2010.06.03 18:47:42.
