data_PCOD9266924
_publ_section_title
;
Structure prediction by ZEFSAII (Michael W. Deem and Ramdas Pophale) SiO2 
 PCOD9266924
Probable space group: C 2/C
;
_chemical_formula_sum "Si O2"
_cell_formula_units_Z 48
_cell_length_a 24.019226
_cell_length_b 6.505302
_cell_length_c 15.516749
_cell_angle_alpha 90.000000
_cell_angle_beta 84.759357
_cell_angle_gamma 90.000000
_cell_volume 2414.393141
_symmetry_space_group_name_H-M "C 2/C"
_symmetry_group_IT_number 15
_symmetry_cell_setting 'monoclinic'
loop_
_space_group_symop_operation_xyz
x,y,z
-x,y,1/2-z
-x,-y,-z
x,-y,1/2+z
1/2+x,1/2+y,z
1/2-x,1/2+y,1/2-z
1/2-x,1/2-y,-z
1/2+x,1/2-y,1/2+z
loop_
_atom_site_type_symbol
_atom_site_label
_atom_site_fract_x
_atom_site_fract_y
_atom_site_fract_z
Si Si1 0.317786 0.177910 0.416929
Si Si2 0.216919 0.061267 0.960412
Si Si3 0.381676 0.169280 0.016126
Si Si4 0.031815 0.510104 0.862220
Si Si5 0.976339 0.088486 0.411483
Si Si6 0.933272 0.708948 0.319782
O O1 0.301487 0.388828 0.467175
O O2 0.367282 0.216458 0.342945
O O3 0.261177 0.062179 0.394965
O O4 0.346377 0.015820 0.479060
O O5 0.161378 0.170595 0.932796
O O6 0.250000 0.250000 0.000000
O O7 0.426160 0.071411 0.073457
O O8 0.417600 0.303137 0.943726
O O9 0.053492 0.407803 0.770791
O O10 0.022337 0.752599 0.868955
O O11 0.968837 0.424365 0.884127
O O12 0.960651 0.927144 0.339168
O O13 0.000000 0.000000 0.500000
#
# Coordination Sequence:
#
# PCOD9266924 Si02
#       6
#     8   8   8   8   8   8
#     4  10  19  38  63  87 122 164 211 269 314 379
#     4   9  20  35  63  93 114 159 222 266 312 369
#     4  11  20  37  62  90 122 160 213 260 310 381
#     4  11  25  38  58  96 136 162 208 263 331 391
#     4  12  22  39  65  93 125 173 216 255 316 396
#     4  11  23  40  60  91 133 169 203 263 336 385
#
# _framework density 19.880773000000001
#
# number of rings (size 3 to 8) (size 9 to 14) (size 15 to 20)
#    0.000    1.333    5.000    1.500    0.000    2.667 
#    0.000    0.000   11.000    0.000    0.000    0.000 
#    0.000    0.000    0.000    0.000    0.000    0.000 
#
# Total GULP energy -133643.752840 kJ/mol
# GULP energy per Si atom -5568.489702 kJ/mol
# Density = 1.983552 g / cm^3
# Si number density = 19.880773 Si / 1000 Ang^3
#
#
#
# Elastic Constant Matrix: (Units=GPa)
#
#
# Indices 1 2 3 4 5 6 
#
# 1 92.2553 43.2290 35.0965 0.0000 -27.6653 0.0000
# 2 43.2290 135.5624 50.1637 0.0000 -14.2496 0.0000
# 3 35.0965 50.1637 72.3337 0.0000 -11.0970 0.0000
# 4 0.0000 0.0000 0.0000 27.1675 0.0000 -0.7282
# 5 -27.6653 -14.2496 -11.0970 0.0000 24.7592 0.0000
# 6 0.0000 0.0000 0.0000 -0.7282 0.0000 51.6710
#
#
#
# Elastic Compliance Matrix: (Units=1/GPa)
#
#
# Indices 1 2 3 4 5 6 
#
# 1 0.019193 -0.002436 -0.004884 0.000000 0.017855 0.000000
# 2 -0.002436 0.010419 -0.005951 0.000000 0.000607 0.000000
# 3 -0.004884 -0.005951 0.020358 0.000000 0.000243 0.000000
# 4 0.000000 0.000000 0.000000 0.036823 0.000000 0.000519
# 5 0.017855 0.000607 0.000243 0.000000 0.060798 0.000000
# 6 0.000000 0.000000 0.000000 0.000519 0.000000 0.019361
#
#
# Mechanical properties :
#
#
# Convention : Reuss Voigt Hill
#
# Bulk Modulus (GPa) = 42.68096 61.90333 52.29215
# Shear Modulus (GPa) = 24.83804 32.16370 28.50087
#
# Velocity S-wave (km/s) = 3.53845 4.02659 3.79038
# Velocity P-wave (km/s) = 6.18136 7.26793 6.74655
#
# Compressibility (1/GPa) = 0.02342965
#
# Stress axis : x y z
#
# Youngs Moduli (GPa) = 52.10108 95.97467 49.11968
#
# Poissons Ratio (x) = 0.23384 0.23989
# Poissons Ratio (y) = 0.12694 0.29229
# Poissons Ratio (z) = 0.25445 0.57110
#
# Static dielectric constant tensor:
#      x y z
#    x 1.749000 0.000000 -0.042070 
#    y 0.000000 1.791390 0.000000 
#    z -0.042070 0.000000 1.716110 
# 
# From -- ./inp_files/217542.got.cif
#   From: 2010.05.17/outbox.cif.g08.bks.cpg/sg15_109_cif.got.tgz:217542.got - 2010.06.03 18:47:42.
