data_PCOD9266938
_publ_section_title
;
Structure prediction by ZEFSAII (Michael W. Deem and Ramdas Pophale) SiO2 
 PCOD9266938
Probable space group: C 2/C
;
_chemical_formula_sum "Si O2"
_cell_formula_units_Z 56
_cell_length_a 19.292325
_cell_length_b 12.529839
_cell_length_c 15.142442
_cell_angle_alpha 90.000000
_cell_angle_beta 125.079957
_cell_angle_gamma 90.000000
_cell_volume 2995.473608
_symmetry_space_group_name_H-M "C 2/C"
_symmetry_group_IT_number 15
_symmetry_cell_setting 'monoclinic'
loop_
_space_group_symop_operation_xyz
x,y,z
-x,y,1/2-z
-x,-y,-z
x,-y,1/2+z
1/2+x,1/2+y,z
1/2-x,1/2+y,1/2-z
1/2-x,1/2-y,-z
1/2+x,1/2-y,1/2+z
loop_
_atom_site_type_symbol
_atom_site_label
_atom_site_fract_x
_atom_site_fract_y
_atom_site_fract_z
Si Si1 0.899409 0.890906 0.164945
Si Si2 0.170191 0.441371 0.839144
Si Si3 0.943978 0.415865 0.906955
Si Si4 0.894626 0.684872 0.044852
Si Si5 0.306264 0.781901 0.908388
Si Si6 0.735829 0.716830 0.813943
Si Si7 0.197208 0.094504 0.472116
O O1 0.880704 0.799570 0.079036
O O2 0.843264 0.853446 0.208117
O O3 0.000000 0.891244 0.250000
O O4 0.866339 0.004322 0.107687
O O5 0.106737 0.466316 0.712600
O O6 0.120084 0.401603 0.888959
O O7 0.220468 0.336036 0.841848
O O8 0.232286 0.534003 0.916642
O O9 0.877670 0.359690 0.922841
O O10 0.010240 0.328543 0.918984
O O11 0.000000 0.500000 0.000000
O O12 0.822298 0.670969 0.918115
O O13 0.264146 0.729066 0.790940
O O14 0.241841 0.849307 0.921254
O O15 0.341478 0.687915 0.996268
#
# Coordination Sequence:
#
# PCOD9266938 Si02
#       7
#     8   8   8   8   8   8   8
#     4  11  21  39  65  91 117 156 203 254 298 352
#     4  10  19  38  63  89 117 161 201 243 304 362
#     4  11  24  38  61  96 125 153 203 254 299 361
#     4  11  19  38  62  94 122 152 204 252 300 349
#     4  10  25  41  58  87 124 162 197 255 302 356
#     4  10  20  38  64  91 120 156 204 248 299 356
#     4  11  22  43  62  82 124 167 202 241 312 366
#
# _framework density 18.694873000000001
#
# number of rings (size 3 to 8) (size 9 to 14) (size 15 to 20)
#    0.000    1.429    2.857    4.714    2.000    1.143 
#    2.571    1.429    0.000    0.000    0.000    0.000 
#    0.000    0.000    0.000    0.000    0.000    0.000 
#
# Total GULP energy -156370.095029 kJ/mol
# GULP energy per Si atom -5584.646251 kJ/mol
# Density = 1.865232 g / cm^3
# Si number density = 18.694873 Si / 1000 Ang^3
#
#
#
# Elastic Constant Matrix: (Units=GPa)
#
#
# Indices 1 2 3 4 5 6 
#
# 1 62.2770 10.1377 50.8332 0.0000 -8.2982 0.0000
# 2 10.1377 66.0143 40.7358 0.0000 -6.7592 0.0000
# 3 50.8332 40.7358 137.3246 0.0000 3.3234 0.0000
# 4 0.0000 0.0000 0.0000 33.2495 0.0000 8.1261
# 5 -8.2982 -6.7592 3.3234 0.0000 32.0020 0.0000
# 6 0.0000 0.0000 0.0000 8.1261 0.0000 14.7509
#
#
#
# Elastic Compliance Matrix: (Units=1/GPa)
#
#
# Indices 1 2 3 4 5 6 
#
# 1 0.025249 0.003518 -0.010593 0.000000 0.008390 0.000000
# 2 0.003518 0.019702 -0.007288 0.000000 0.005831 0.000000
# 3 -0.010593 -0.007288 0.013503 0.000000 -0.005688 0.000000
# 4 0.000000 0.000000 0.000000 0.034755 0.000000 -0.019146
# 5 0.008390 0.005831 -0.005688 0.000000 0.035246 0.000000
# 6 0.000000 0.000000 0.000000 -0.019146 0.000000 0.078340
#
#
# Mechanical properties :
#
#
# Convention : Reuss Voigt Hill
#
# Bulk Modulus (GPa) = 33.63752 52.11438 42.87595
# Shear Modulus (GPa) = 20.37240 26.92775 23.65008
#
# Velocity S-wave (km/s) = 3.30469 3.79935 3.56062
# Velocity P-wave (km/s) = 5.70905 6.86903 6.31573
#
# Compressibility (1/GPa) = 0.02972871
#
# Stress axis : x y z
#
# Youngs Moduli (GPa) = 39.60518 50.75606 74.05849
#
# Poissons Ratio (x) = -0.17858 0.78452
# Poissons Ratio (y) = -0.13935 0.53973
# Poissons Ratio (z) = 0.41955 0.36991
#
# Static dielectric constant tensor:
#      x y z
#    x 1.640130 0.000000 -0.007720 
#    y 0.000000 1.651360 0.000000 
#    z -0.007720 0.000000 1.647030 
# 
# From -- ./inp_files/161399.got.cif
#   From: 2010.05.17/outbox.cif.g08.bks.cpg/sg15_81_cif.got.tgz:161399.got - 2010.06.03 18:47:42.
