data_PCOD9266505
_publ_section_title
;
Structure prediction by ZEFSAII (Michael W. Deem and Ramdas Pophale) SiO2 
 PCOD9266505
Probable space group: C 2/C
;
_chemical_formula_sum "Si O2"
_cell_formula_units_Z 60
_cell_length_a 22.485412
_cell_length_b 14.587047
_cell_length_c 10.490457
_cell_angle_alpha 90.000000
_cell_angle_beta 124.358130
_cell_angle_gamma 90.000000
_cell_volume 2840.491334
_symmetry_space_group_name_H-M "C 2/C"
_symmetry_group_IT_number 15
_symmetry_cell_setting 'monoclinic'
loop_
_space_group_symop_operation_xyz
x,y,z
-x,y,1/2-z
-x,-y,-z
x,-y,1/2+z
1/2+x,1/2+y,z
1/2-x,1/2+y,1/2-z
1/2-x,1/2-y,-z
1/2+x,1/2-y,1/2+z
loop_
_atom_site_type_symbol
_atom_site_label
_atom_site_fract_x
_atom_site_fract_y
_atom_site_fract_z
Si Si1 0.500000 0.304058 0.750000
Si Si2 0.005076 0.714225 0.108014
Si Si3 0.716247 0.031895 0.937301
Si Si4 0.156585 0.661513 0.317485
Si Si5 0.956184 0.906557 0.449078
Si Si6 0.709807 0.244755 0.631087
Si Si7 0.615459 0.196868 0.729468
Si Si8 0.210082 0.950076 0.238365
O O1 0.464785 0.365396 0.599607
O O2 0.564322 0.244507 0.768965
O O3 0.083071 0.680267 0.155679
O O4 0.009313 0.824802 0.094829
O O5 0.000000 0.690211 0.250000
O O6 0.941700 0.667652 0.949929
O O7 0.666519 0.120380 0.852445
O O8 0.773250 0.025395 0.888665
O O9 0.664264 0.943307 0.866924
O O10 0.756646 0.022049 0.120826
O O11 0.227161 0.685378 0.322380
O O12 0.161164 0.730306 0.445598
O O13 0.872464 0.929210 0.326518
O O14 0.000000 0.000000 0.500000
O O15 0.666154 0.263795 0.706603
O O16 0.747263 0.145571 0.690882
#
# Coordination Sequence:
#
# PCOD9266505 Si02
#       8
#     4   8   8   8   8   8   8   8
#     4  10  26  46  66  98 144 186 224 274 366 408
#     4  11  22  39  69  97 133 180 227 279 348 413
#     4  10  24  41  69 100 133 174 232 285 341 410
#     4  10  19  37  65  98 131 174 228 283 342 401
#     4  11  26  43  67  96 138 176 227 286 341 417
#     4   9  18  38  65  94 131 172 224 285 335 404
#     4  10  22  44  65  97 143 182 225 281 347 420
#     4  10  22  42  64  96 132 171 227 283 342 405
#
# _framework density 21.123106
#
# number of rings (size 3 to 8) (size 9 to 14) (size 15 to 20)
#    0.000    1.867    2.667    0.000    2.800    4.800 
#    1.200    1.333    0.000    0.000    0.000    0.000 
#    0.000    0.000    0.000    0.000    0.000    0.000 
#
# Total GULP energy -167468.342724 kJ/mol
# GULP energy per Si atom -5582.278091 kJ/mol
# Density = 2.107503 g / cm^3
# Si number density = 21.123106 Si / 1000 Ang^3
#
#
#
# Elastic Constant Matrix: (Units=GPa)
#
#
# Indices 1 2 3 4 5 6 
#
# 1 110.4925 24.6453 36.5175 0.0000 -4.0387 0.0000
# 2 24.6453 46.1280 15.6924 0.0000 -3.9989 0.0000
# 3 36.5175 15.6924 83.9498 0.0000 -1.7049 0.0000
# 4 0.0000 0.0000 0.0000 63.1601 0.0000 57.1305
# 5 -4.0387 -3.9989 -1.7049 0.0000 40.7025 0.0000
# 6 0.0000 0.0000 0.0000 57.1305 0.0000 90.2063
#
#
#
# Elastic Compliance Matrix: (Units=1/GPa)
#
#
# Indices 1 2 3 4 5 6 
#
# 1 0.011471 -0.004689 -0.004103 0.000000 0.000506 0.000000
# 2 -0.004689 0.025248 -0.002641 0.000000 0.001905 0.000000
# 3 -0.004103 -0.002641 0.014189 0.000000 -0.000072 0.000000
# 4 0.000000 0.000000 0.000000 0.037068 0.000000 -0.023476
# 5 0.000506 0.001905 -0.000072 0.000000 0.024803 0.000000
# 6 0.000000 0.000000 0.000000 -0.023476 0.000000 0.025954
#
#
# Mechanical properties :
#
#
# Convention : Reuss Voigt Hill
#
# Bulk Modulus (GPa) = 35.66179 43.80899 39.73539
# Shear Modulus (GPa) = 29.24919 49.72812 39.48866
#
# Velocity S-wave (km/s) = 3.72519 4.85728 4.32841
# Velocity P-wave (km/s) = 5.95166 7.22789 6.62060
#
# Compressibility (1/GPa) = 0.02804121
#
# Stress axis : x y z
#
# Youngs Moduli (GPa) = 87.17823 39.60771 70.47794
#
# Poissons Ratio (x) = 0.18572 0.28917
# Poissons Ratio (y) = 0.40878 0.18614
# Poissons Ratio (z) = 0.35769 0.10461
#
# Static dielectric constant tensor:
#      x y z
#    x 1.798260 0.000000 -0.009010 
#    y 0.000000 1.733760 0.000000 
#    z -0.009010 0.000000 1.789800 
# 
# From -- ./inp_files/112776.got.cif
#   From: 2010.05.17/outbox.cif.g08.bks.cpg/sg15_57_cif.got.tgz:112776.got - 2010.06.03 18:47:42.
