data_PCOD9266110
_publ_section_title
;
Structure prediction by ZEFSAII (Michael W. Deem and Ramdas Pophale) SiO2 
 PCOD9266110
Probable space group: C 2/C
;
_chemical_formula_sum "Si O2"
_cell_formula_units_Z 56
_cell_length_a 20.783630
_cell_length_b 9.117163
_cell_length_c 17.696689
_cell_angle_alpha 90.000000
_cell_angle_beta 56.654420
_cell_angle_gamma 90.000000
_cell_volume 2801.252071
_symmetry_space_group_name_H-M "C 2/C"
_symmetry_group_IT_number 15
_symmetry_cell_setting 'monoclinic'
loop_
_space_group_symop_operation_xyz
x,y,z
-x,y,1/2-z
-x,-y,-z
x,-y,1/2+z
1/2+x,1/2+y,z
1/2-x,1/2+y,1/2-z
1/2-x,1/2-y,-z
1/2+x,1/2-y,1/2+z
loop_
_atom_site_type_symbol
_atom_site_label
_atom_site_fract_x
_atom_site_fract_y
_atom_site_fract_z
Si Si1 0.578213 0.577292 0.038628
Si Si2 0.587355 0.378832 0.178575
Si Si3 0.575109 0.323798 0.922158
Si Si4 0.310655 0.545385 0.271119
Si Si5 0.698982 0.104858 0.084216
Si Si6 0.306595 0.846700 0.082522
Si Si7 0.753305 0.803856 0.084238
O O1 0.592507 0.503760 0.110800
O O2 0.502384 0.679492 0.078212
O O3 0.560167 0.436269 0.999313
O O4 0.657082 0.653607 0.960651
O O5 0.500000 0.341250 0.250000
O O6 0.623240 0.456293 0.227991
O O7 0.633053 0.228443 0.132513
O O8 0.647403 0.389880 0.828804
O O9 0.608110 0.178778 0.941276
O O10 0.241807 0.426064 0.320268
O O11 0.277891 0.681620 0.339597
O O12 0.770580 0.191488 0.076701
O O13 0.699693 0.948887 0.124186
O O14 0.704119 0.069990 0.990864
O O15 0.750000 0.750000 0.000000
#
# Coordination Sequence:
#
# PCOD9266110 Si02
#       7
#     8   8   8   8   8   8   8
#     4  11  22  39  61  89 122 168 201 253 316 374
#     4  11  20  40  63  92 119 159 220 259 301 376
#     4  11  23  38  60  90 128 161 201 257 316 365
#     4  11  24  36  64  93 122 165 211 258 307 371
#     4  10  19  37  62  86 114 158 208 255 298 359
#     4  10  19  37  60  86 117 159 208 250 297 368
#     4  12  21  39  65  92 119 159 213 256 307 369
#
# _framework density 19.991060999999998
#
# number of rings (size 3 to 8) (size 9 to 14) (size 15 to 20)
#    0.000    1.143    7.143    0.857    2.000    0.000 
#    0.000    2.857    0.000    0.000    0.000    0.000 
#    0.000    0.000    0.000    0.000    0.000    0.000 
#
# Total GULP energy -156010.969563 kJ/mol
# GULP energy per Si atom -5571.820342 kJ/mol
# Density = 1.994556 g / cm^3
# Si number density = 19.991061 Si / 1000 Ang^3
#
#
#
# Elastic Constant Matrix: (Units=GPa)
#
#
# Indices 1 2 3 4 5 6 
#
# 1 106.4872 26.9993 -0.6711 0.0000 -18.2581 0.0000
# 2 26.9993 65.3334 -5.1631 -0.0001 -5.9442 0.0002
# 3 -0.6711 -5.1631 31.4413 0.0000 -3.4788 0.0000
# 4 0.0000 -0.0001 0.0000 26.5698 0.0000 -6.4428
# 5 -18.2581 -5.9442 -3.4788 0.0000 26.2949 0.0000
# 6 0.0000 0.0002 0.0000 -6.4428 0.0000 24.4859
#
#
#
# Elastic Compliance Matrix: (Units=1/GPa)
#
#
# Indices 1 2 3 4 5 6 
#
# 1 0.011682 -0.004141 0.000369 0.000000 0.007224 0.000000
# 2 -0.004141 0.017380 0.002925 0.000000 0.001440 0.000000
# 3 0.000369 0.002925 0.032876 0.000000 0.005267 0.000000
# 4 0.000000 0.000000 0.000000 0.040202 0.000000 0.010578
# 5 0.007224 0.001440 0.005267 0.000000 0.044069 0.000000
# 6 0.000000 0.000000 0.000000 0.010578 0.000000 0.043623
#
#
# Mechanical properties :
#
#
# Convention : Reuss Voigt Hill
#
# Bulk Modulus (GPa) = 16.59959 27.28800 21.94379
# Shear Modulus (GPa) = 23.62872 27.60991 25.61932
#
# Velocity S-wave (km/s) = 3.44170 3.72036 3.58374
# Velocity P-wave (km/s) = 4.91073 5.66873 5.30329
#
# Compressibility (1/GPa) = 0.06024244
#
# Stress axis : x y z
#
# Youngs Moduli (GPa) = 85.60413 57.53858 30.41709
#
# Poissons Ratio (x) = 0.23827 -0.01121
# Poissons Ratio (y) = 0.35450 -0.08897
# Poissons Ratio (z) = -0.03155 -0.16830
#
# Static dielectric constant tensor:
#      x y z
#    x 1.753960 0.000000 0.003830 
#    y 0.000000 1.702520 0.000000 
#    z 0.003830 0.000000 1.737670 
# 
# From -- ./inp_files/209546.got.cif
#   From: 2010.05.17/outbox.cif.g08.bks.cpg/sg15_105_cif.got.tgz:209546.got - 2010.06.03 18:47:42.
