data_PCOD9266416
_publ_section_title
;
Structure prediction by ZEFSAII (Michael W. Deem and Ramdas Pophale) SiO2 
 PCOD9266416
Probable space group: C 2/C
;
_chemical_formula_sum "Si O2"
_cell_formula_units_Z 56
_cell_length_a 14.784770
_cell_length_b 11.792041
_cell_length_c 18.084843
_cell_angle_alpha 90.000000
_cell_angle_beta 110.803646
_cell_angle_gamma 90.000000
_cell_volume 2947.395592
_symmetry_space_group_name_H-M "C 2/C"
_symmetry_group_IT_number 15
_symmetry_cell_setting 'monoclinic'
loop_
_space_group_symop_operation_xyz
x,y,z
-x,y,1/2-z
-x,-y,-z
x,-y,1/2+z
1/2+x,1/2+y,z
1/2-x,1/2+y,1/2-z
1/2-x,1/2-y,-z
1/2+x,1/2-y,1/2+z
loop_
_atom_site_type_symbol
_atom_site_label
_atom_site_fract_x
_atom_site_fract_y
_atom_site_fract_z
Si Si1 0.058359 0.840913 0.455729
Si Si2 0.727297 0.597983 0.548308
Si Si3 0.105411 0.025911 0.118366
Si Si4 0.759260 0.080742 0.575091
Si Si5 0.403524 0.736769 0.092860
Si Si6 0.898380 0.056614 0.218574
Si Si7 0.039020 0.373760 0.029165
O O1 0.084973 0.887270 0.545672
O O2 0.156064 0.840260 0.434831
O O3 0.017318 0.715228 0.456190
O O4 0.982885 0.934953 0.404266
O O5 0.697816 0.542632 0.616368
O O6 0.761847 0.506779 0.498148
O O7 0.630951 0.651828 0.482905
O O8 0.808087 0.691122 0.581299
O O9 0.122931 0.082257 0.202318
O O10 0.655718 0.127425 0.569467
O O11 0.811899 0.012218 0.655877
O O12 0.421482 0.660809 0.169997
O O13 0.485085 0.819952 0.084737
O O14 0.000000 0.988969 0.250000
O O15 0.000000 0.500000 0.000000
#
# Coordination Sequence:
#
# PCOD9266416 Si02
#       7
#     8   8   8   8   8   8   8
#     4  10  20  37  63  93 118 160 216 262 298 373
#     4   9  18  37  62  90 120 164 204 261 301 375
#     4  10  19  37  64  91 121 160 213 264 313 357
#     4  10  21  37  62  92 125 153 212 261 317 365
#     4  10  20  36  62  92 127 161 211 253 309 375
#     4  11  21  37  61  92 123 163 206 261 315 374
#     4  12  22  37  63  96 124 165 204 259 312 380
#
# _framework density 18.999825999999999
#
# number of rings (size 3 to 8) (size 9 to 14) (size 15 to 20)
#    0.000    1.714    4.286    1.286    0.000    0.000 
#    5.143    0.000    0.000    0.000   11.143    0.000 
#    0.000    0.000    0.000    0.000    0.000    0.000 
#
# Total GULP energy -156097.134605 kJ/mol
# GULP energy per Si atom -5574.897664 kJ/mol
# Density = 1.895658 g / cm^3
# Si number density = 18.999826 Si / 1000 Ang^3
#
#
#
# Elastic Constant Matrix: (Units=GPa)
#
#
# Indices 1 2 3 4 5 6 
#
# 1 120.1688 36.9108 47.7823 0.0000 -9.5519 0.0000
# 2 36.9108 92.2649 30.6198 0.0000 -10.1568 0.0000
# 3 47.7823 30.6198 108.1182 0.0000 -23.5816 0.0000
# 4 0.0000 0.0000 0.0000 17.8858 0.0000 -2.4447
# 5 -9.5519 -10.1568 -23.5816 0.0000 25.3204 0.0000
# 6 0.0000 0.0000 0.0000 -2.4447 0.0000 43.5077
#
#
#
# Elastic Compliance Matrix: (Units=1/GPa)
#
#
# Indices 1 2 3 4 5 6 
#
# 1 0.010829 -0.003070 -0.004134 0.000000 -0.000996 0.000000
# 2 -0.003070 0.012919 -0.001787 0.000000 0.002360 0.000000
# 3 -0.004134 -0.001787 0.013912 0.000000 0.010680 0.000000
# 4 0.000000 0.000000 0.000000 0.056343 0.000000 0.003166
# 5 -0.000996 0.002360 0.010680 0.000000 0.050011 0.000000
# 6 0.000000 0.000000 0.000000 0.003166 0.000000 0.023162
#
#
# Mechanical properties :
#
#
# Convention : Reuss Voigt Hill
#
# Bulk Modulus (GPa) = 50.81856 61.24197 56.03026
# Shear Modulus (GPa) = 26.07995 31.02537 28.55266
#
# Velocity S-wave (km/s) = 3.70894 4.04534 3.88078
# Velocity P-wave (km/s) = 6.71912 7.35680 7.04518
#
# Compressibility (1/GPa) = 0.01967785
#
# Stress axis : x y z
#
# Youngs Moduli (GPa) = 92.34388 77.40252 71.88255
#
# Poissons Ratio (x) = 0.23763 0.29714
# Poissons Ratio (y) = 0.28350 0.12849
# Poissons Ratio (z) = 0.38172 0.13835
#
# Static dielectric constant tensor:
#      x y z
#    x 1.720650 0.000000 -0.009240 
#    y 0.000000 1.708380 0.000000 
#    z -0.009240 0.000000 1.646630 
# 
# From -- ./inp_files/204117.got.cif
#   From: 2010.05.17/outbox.cif.g08.bks.cpg/sg15_103_cif.got.tgz:204117.got - 2010.06.03 18:47:42.
