data_PCOD9266569
_publ_section_title
;
Structure prediction by ZEFSAII (Michael W. Deem and Ramdas Pophale) SiO2 
 PCOD9266569
Probable space group: C 2/C
;
_chemical_formula_sum "Si O2"
_cell_formula_units_Z 44
_cell_length_a 7.987137
_cell_length_b 12.222350
_cell_length_c 22.299551
_cell_angle_alpha 90.000000
_cell_angle_beta 125.070989
_cell_angle_gamma 90.000000
_cell_volume 1781.678003
_symmetry_space_group_name_H-M "C 2/C"
_symmetry_group_IT_number 15
_symmetry_cell_setting 'monoclinic'
loop_
_space_group_symop_operation_xyz
x,y,z
-x,y,1/2-z
-x,-y,-z
x,-y,1/2+z
1/2+x,1/2+y,z
1/2-x,1/2+y,1/2-z
1/2-x,1/2-y,-z
1/2+x,1/2-y,1/2+z
loop_
_atom_site_type_symbol
_atom_site_label
_atom_site_fract_x
_atom_site_fract_y
_atom_site_fract_z
Si Si1 0.860805 0.763739 0.883585
Si Si2 0.088109 0.192219 0.667619
Si Si3 0.366038 0.076275 0.514634
Si Si4 0.370629 0.364985 0.007085
Si Si5 0.362677 0.350359 0.647246
Si Si6 0.000000 0.953728 0.250000
O O1 0.620899 0.748878 0.849646
O O2 0.988980 0.651479 0.915277
O O3 0.913464 0.817111 0.830888
O O4 0.946722 0.835686 0.956904
O O5 0.016812 0.122607 0.594545
O O6 0.873698 0.968226 0.679912
O O7 0.143365 0.116776 0.735397
O O8 0.260756 0.148764 0.440557
O O9 0.500000 0.000000 0.500000
O O10 0.242744 0.980834 0.523031
O O11 0.250000 0.250000 0.000000
O O12 0.254175 0.271771 0.672567
#
# Coordination Sequence:
#
# PCOD9266569 Si02
#       6
#     8   8   8   8   8   4
#     4  11  24  43  73 110 139 177 228 304 369 425
#     4  11  24  47  72  98 144 188 228 298 353 415
#     4  12  19  39  70 106 141 177 223 289 370 418
#     4  10  19  37  68 104 139 174 221 285 361 420
#     4  12  27  45  71 104 140 185 244 292 345 437
#     4  12  28  50  72  98 146 198 250 288 344 428
#
# _framework density 24.695819
#
# number of rings (size 3 to 8) (size 9 to 14) (size 15 to 20)
#    0.000    0.727    7.273    1.636    2.545    2.182 
#    0.000    1.818    0.000    0.000    0.000    0.000 
#    0.000    0.000    0.000    0.000    0.000    0.000 
#
# Total GULP energy -122881.887387 kJ/mol
# GULP energy per Si atom -5585.540336 kJ/mol
# Density = 2.463961 g / cm^3
# Si number density = 24.695819 Si / 1000 Ang^3
#
#
#
# Elastic Constant Matrix: (Units=GPa)
#
#
# Indices 1 2 3 4 5 6 
#
# 1 154.3643 71.1393 54.5178 0.0000 -48.0593 0.0000
# 2 71.1393 124.3215 28.7196 0.0000 -30.2657 0.0000
# 3 54.5178 28.7196 103.9093 0.0000 -38.9734 0.0000
# 4 0.0000 0.0000 0.0000 38.2800 0.0000 -8.0298
# 5 -48.0593 -30.2657 -38.9734 0.0000 32.9090 0.0000
# 6 0.0000 0.0000 0.0000 -8.0298 0.0000 55.2316
#
#
#
# Elastic Compliance Matrix: (Units=1/GPa)
#
#
# Indices 1 2 3 4 5 6 
#
# 1 0.013045 -0.003636 0.000093 0.000000 0.015818 0.000000
# 2 -0.003636 0.011473 0.001264 0.000000 0.006739 0.000000
# 3 0.000093 0.001264 0.017475 0.000000 0.021993 0.000000
# 4 0.000000 0.000000 0.000000 0.026945 0.000000 0.003917
# 5 0.015818 0.006739 0.021993 0.000000 0.085731 0.000000
# 6 0.000000 0.000000 0.000000 0.003917 0.000000 0.018675
#
#
# Mechanical properties :
#
#
# Convention : Reuss Voigt Hill
#
# Bulk Modulus (GPa) = 26.71227 76.81651 51.76439
# Shear Modulus (GPa) = 26.26344 40.49867 33.38106
#
# Velocity S-wave (km/s) = 3.26464 4.05396 3.68052
# Velocity P-wave (km/s) = 5.00505 7.28597 6.25043
#
# Compressibility (1/GPa) = 0.03743597
#
# Stress axis : x y z
#
# Youngs Moduli (GPa) = 76.65500 87.16478 57.22598
#
# Poissons Ratio (x) = 0.31689 -0.00533
# Poissons Ratio (y) = 0.27868 -0.07234
# Poissons Ratio (z) = -0.00714 -0.11018
#
# Static dielectric constant tensor:
#      x y z
#    x 1.914020 0.000000 0.148820 
#    y 0.000000 1.931470 0.000000 
#    z 0.148820 0.000000 2.033680 
# 
# From -- ./inp_files/287402.got.cif
#   From: 2010.05.17/outbox.cif.g08.bks.cpg/sg15_144_cif.got.tgz:287402.got - 2010.06.03 18:47:42.
