data_PCOD9266940
_publ_section_title
;
Structure prediction by ZEFSAII (Michael W. Deem and Ramdas Pophale) SiO2 
 PCOD9266940
Probable space group: C 2/C
;
_chemical_formula_sum "Si O2"
_cell_formula_units_Z 40
_cell_length_a 8.243146
_cell_length_b 21.379054
_cell_length_c 13.484149
_cell_angle_alpha 90.000000
_cell_angle_beta 52.814458
_cell_angle_gamma 90.000000
_cell_volume 1893.172874
_symmetry_space_group_name_H-M "C 2/C"
_symmetry_group_IT_number 15
_symmetry_cell_setting 'monoclinic'
loop_
_space_group_symop_operation_xyz
x,y,z
-x,y,1/2-z
-x,-y,-z
x,-y,1/2+z
1/2+x,1/2+y,z
1/2-x,1/2+y,1/2-z
1/2-x,1/2-y,-z
1/2+x,1/2-y,1/2+z
loop_
_atom_site_type_symbol
_atom_site_label
_atom_site_fract_x
_atom_site_fract_y
_atom_site_fract_z
Si Si1 0.206021 0.887173 0.235852
Si Si2 0.883031 0.345664 0.509184
Si Si3 0.274305 0.993114 0.857559
Si Si4 0.768659 0.272370 0.352302
Si Si5 0.591077 0.455248 0.616020
O O1 0.406968 0.880919 0.092620
O O2 0.238767 0.942420 0.306202
O O3 0.205521 0.820768 0.292004
O O4 0.000000 0.891950 0.250000
O O5 0.793818 0.315130 0.441003
O O6 0.883982 0.285413 0.579369
O O7 0.718732 0.396116 0.602999
O O8 0.500000 0.972167 0.750000
O O9 0.236136 0.005889 0.987885
O O10 0.104155 0.945207 0.882185
O O11 0.000000 0.248012 0.250000
O O12 0.500000 0.483554 0.750000
#
# Coordination Sequence:
#
# PCOD9266940 Si02
#       5
#     8   8   8   8   8
#     4  11  21  38  62  92 127 172 212 253 320 381
#     4  10  19  38  63  89 121 163 214 258 314 374
#     4  11  22  44  64  89 131 168 211 257 319 383
#     4   9  18  35  63  88 119 162 208 261 313 376
#     4  11  23  39  65  94 122 163 213 266 306 376
#
# _framework density 21.128550000000001
#
# number of rings (size 3 to 8) (size 9 to 14) (size 15 to 20)
#    0.000    1.600    4.000    1.800    0.000    1.600 
#    7.200    0.000    0.000    4.800    0.000    0.000 
#    0.000    0.000    0.000    0.000    0.000    0.000 
#
# Total GULP energy -111574.028499 kJ/mol
# GULP energy per Si atom -5578.701425 kJ/mol
# Density = 2.108046 g / cm^3
# Si number density = 21.128550 Si / 1000 Ang^3
#
#
#
# Elastic Constant Matrix: (Units=GPa)
#
#
# Indices 1 2 3 4 5 6 
#
# 1 46.4112 34.8290 21.3574 0.0000 -17.6117 0.0000
# 2 34.8290 69.4823 28.8643 0.0000 -13.2112 0.0000
# 3 21.3574 28.8643 116.8147 0.0000 -16.3780 0.0000
# 4 0.0000 0.0000 0.0000 -157.2644 0.0000 10.6009
# 5 -17.6117 -13.2112 -16.3780 0.0000 32.5080 0.0000
# 6 0.0000 0.0000 0.0000 10.6009 0.0000 10.1817
#
#
#
# Elastic Compliance Matrix: (Units=1/GPa)
#
#
# Indices 1 2 3 4 5 6 
#
# 1 0.040252 -0.016972 -0.001157 0.000000 0.014327 0.000000
# 2 -0.016972 0.023943 -0.002946 0.000000 -0.000949 0.000000
# 3 -0.001157 -0.002946 0.009947 0.000000 0.003187 0.000000
# 4 0.000000 0.000000 0.000000 -0.005942 0.000000 0.006186
# 5 0.014327 -0.000949 0.003187 0.000000 0.039744 0.000000
# 6 0.000000 0.000000 0.000000 0.006186 0.000000 0.091774
#
#
# Mechanical properties :
#
#
# Convention : Reuss Voigt Hill
#
# Bulk Modulus (GPa) = 31.25826 44.75664 38.00745
# Shear Modulus (GPa) = 19.79933 -13.07111 3.36411
#
# Velocity S-wave (km/s) = 3.06451 -2.48996 1.26320
# Velocity P-wave (km/s) = 5.22954 3.60034 4.48946
#
# Compressibility (1/GPa) = 0.03199154
#
# Stress axis : x y z
#
# Youngs Moduli (GPa) = 24.84327 41.76527 100.53325
#
# Poissons Ratio (x) = 0.70886 0.11631
# Poissons Ratio (y) = 0.42165 0.29619
# Poissons Ratio (z) = 0.02874 0.12305
#
# Static dielectric constant tensor:
#      x y z
#    x 1.770730 0.000000 0.026180 
#    y 0.000000 1.764740 0.000000 
#    z 0.026180 0.000000 1.845810 
# 
# From -- ./inp_files/135777.got.cif
#   From: 2010.05.17/outbox.cif.g08.bks.cpg/sg15_68_cif.got.tgz:135777.got - 2010.06.03 18:47:42.
