data_PCOD9266383
_publ_section_title
;
Structure prediction by ZEFSAII (Michael W. Deem and Ramdas Pophale) SiO2 
 PCOD9266383
Probable space group: C 2/C
;
_chemical_formula_sum "Si O2"
_cell_formula_units_Z 56
_cell_length_a 9.350032
_cell_length_b 26.030560
_cell_length_c 21.876436
_cell_angle_alpha 90.000000
_cell_angle_beta 28.043605
_cell_angle_gamma 90.000000
_cell_volume 2503.245924
_symmetry_space_group_name_H-M "C 2/C"
_symmetry_group_IT_number 15
_symmetry_cell_setting 'monoclinic'
loop_
_space_group_symop_operation_xyz
x,y,z
-x,y,1/2-z
-x,-y,-z
x,-y,1/2+z
1/2+x,1/2+y,z
1/2-x,1/2+y,1/2-z
1/2-x,1/2-y,-z
1/2+x,1/2-y,1/2+z
loop_
_atom_site_type_symbol
_atom_site_label
_atom_site_fract_x
_atom_site_fract_y
_atom_site_fract_z
Si Si1 0.167992 0.450344 0.464526
Si Si2 0.364997 0.308196 0.179620
Si Si3 0.075500 0.700095 0.399493
Si Si4 0.219098 0.592197 0.494275
Si Si5 0.729192 0.590130 0.216722
Si Si6 0.560466 0.201710 0.551437
Si Si7 0.658151 0.926868 0.252507
O O1 0.527669 0.449945 0.338307
O O2 0.000000 0.500000 0.500000
O O3 0.036209 0.409436 0.464329
O O4 0.038526 0.436251 0.580166
O O5 0.285407 0.253057 0.178854
O O6 0.231759 0.365180 0.215729
O O7 0.257592 0.300587 0.290882
O O8 0.715364 0.309442 0.025750
O O9 0.234670 0.651249 0.307492
O O10 0.072219 0.701537 0.474019
O O11 0.547549 0.576409 0.345780
O O12 0.238753 0.651186 0.505415
O O13 0.084468 0.563614 0.602333
O O14 0.500000 0.572017 0.250000
O O15 0.750000 0.250000 0.500000
O O16 0.500000 0.945446 0.250000
#
# Coordination Sequence:
#
# PCOD9266383 Si02
#       7
#     8   8   8   8   8   8   8
#     4  11  23  44  75 101 128 173 232 286 350 414
#     4  10  23  35  58  86 130 188 224 271 334 411
#     4  11  20  37  57  87 132 179 234 274 328 395
#     4  10  22  39  65  98 132 173 228 283 333 410
#     4  10  19  37  63  96 128 166 231 289 326 387
#     4  11  21  33  57  88 128 174 230 275 328 392
#     4  11  24  43  65 100 141 178 224 286 354 418
#
# _framework density 22.370954999999999
#
# number of rings (size 3 to 8) (size 9 to 14) (size 15 to 20)
#    0.000    1.429    4.286    1.714    4.000    5.714 
#    0.000    1.429    0.000    0.000    0.000    0.000 
#    0.000    0.000    0.000    0.000    0.000    0.000 
#
# Total GULP energy -155980.008800 kJ/mol
# GULP energy per Si atom -5570.714600 kJ/mol
# Density = 2.232004 g / cm^3
# Si number density = 22.370955 Si / 1000 Ang^3
#
#
#
# Elastic Constant Matrix: (Units=GPa)
#
#
# Indices 1 2 3 4 5 6 
#
# 1 72.2701 18.0934 41.7784 -0.0049 10.7780 0.0008
# 2 18.0934 106.0195 16.6253 -0.0032 0.1241 -0.0003
# 3 41.7784 16.6253 163.6848 -0.0241 31.9264 0.0026
# 4 -0.0049 -0.0032 -0.0241 -1.5642 0.0021 -1.2010
# 5 10.7780 0.1241 31.9264 0.0021 29.0095 -0.0042
# 6 0.0008 -0.0003 0.0026 -1.2010 -0.0042 17.7533
#
#
#
# Elastic Compliance Matrix: (Units=1/GPa)
#
#
# Indices 1 2 3 4 5 6 
#
# 1 0.016846 -0.002304 -0.003625 0.000005 -0.002260 0.000000
# 2 -0.002304 0.009939 -0.000739 0.000000 0.001626 0.000001
# 3 -0.003625 -0.000739 0.008718 -0.000124 -0.008244 -0.000011
# 4 0.000005 0.000000 -0.000124 -0.607741 0.000171 -0.041114
# 5 -0.002260 0.001626 -0.008244 0.000171 0.044377 0.000023
# 6 0.000000 0.000001 -0.000011 -0.041114 0.000023 0.053546
#
#
# Mechanical properties :
#
#
# Convention : Reuss Voigt Hill
#
# Bulk Modulus (GPa) = 45.11040 54.99652 50.05346
# Shear Modulus (GPa) = -11.02319 26.73820 7.85751
#
# Velocity S-wave (km/s) = -2.22220 3.46095 1.87616
# Velocity P-wave (km/s) = 3.69111 6.37245 5.20732
#
# Compressibility (1/GPa) = 0.02216784
#
# Stress axis : x y z
#
# Youngs Moduli (GPa) = 59.35994 100.61012 114.71072
#
# Poissons Ratio (x) = 0.23180 0.41584
# Poissons Ratio (y) = 0.13676 0.08474
# Poissons Ratio (z) = 0.21519 0.07432
#
# Static dielectric constant tensor:
#      x y z
#    x 1.856660 0.000000 -0.018980 
#    y 0.000000 1.932910 0.000000 
#    z -0.018980 0.000000 1.912530 
# 
# From -- ./inp_files/234917.got.cif
#   From: 2010.05.17/outbox.cif.g08.bks.cpg/sg15_118_cif.got.tgz:234917.got - 2010.06.03 18:47:42.
