data_PCOD9266931
_publ_section_title
;
Structure prediction by ZEFSAII (Michael W. Deem and Ramdas Pophale) SiO2 
 PCOD9266931
Probable space group: C 2/C
;
_chemical_formula_sum "Si O2"
_cell_formula_units_Z 64
_cell_length_a 14.458617
_cell_length_b 7.338706
_cell_length_c 25.886256
_cell_angle_alpha 90.000000
_cell_angle_beta 98.232310
_cell_angle_gamma 90.000000
_cell_volume 2718.423671
_symmetry_space_group_name_H-M "C 2/C"
_symmetry_group_IT_number 15
_symmetry_cell_setting 'monoclinic'
loop_
_space_group_symop_operation_xyz
x,y,z
-x,y,1/2-z
-x,-y,-z
x,-y,1/2+z
1/2+x,1/2+y,z
1/2-x,1/2+y,1/2-z
1/2-x,1/2-y,-z
1/2+x,1/2-y,1/2+z
loop_
_atom_site_type_symbol
_atom_site_label
_atom_site_fract_x
_atom_site_fract_y
_atom_site_fract_z
Si Si1 0.751899 0.924427 0.327346
Si Si2 0.126942 0.471318 0.411232
Si Si3 0.436471 0.462705 0.699211
Si Si4 0.906798 0.968890 0.415077
Si Si5 0.243957 0.345653 0.209697
Si Si6 0.949496 0.323086 0.353192
Si Si7 0.265994 0.530773 0.497930
Si Si8 0.899477 0.118771 0.587025
O O1 0.679734 0.878392 0.367383
O O2 0.850737 0.879844 0.362378
O O3 0.743323 0.141517 0.312778
O O4 0.736785 0.833543 0.271015
O O5 0.171104 0.432544 0.471243
O O6 0.144505 0.685905 0.407812
O O7 0.018824 0.448660 0.390904
O O8 0.500000 0.542167 0.750000
O O9 0.330048 0.518174 0.705431
O O10 0.490908 0.273062 0.688792
O O11 0.440018 0.555488 0.644095
O O12 0.923305 0.170323 0.393373
O O13 0.837317 0.985919 0.457482
O O14 0.005635 0.881413 0.439001
O O15 0.144596 0.406355 0.177886
O O16 0.250000 0.750000 0.500000
O O17 0.320542 0.490895 0.555456
#
# Coordination Sequence:
#
# PCOD9266931 Si02
#       8
#     8   8   8   8   8   8   8   8
#     4  10  22  37  58  85 122 160 210 253 310 375
#     4  10  21  40  56  92 121 154 205 264 302 368
#     4  11  23  41  62  88 126 168 205 254 316 376
#     4   9  19  39  59  85 119 157 201 253 308 379
#     4  11  22  40  60  87 124 169 209 253 317 375
#     4  10  24  38  60  88 127 161 204 255 320 368
#     4   9  19  36  66  84 118 157 198 250 315 366
#     4  10  19  38  63  88 113 160 209 246 305 375
#
# _framework density 23.543056
#
# number of rings (size 3 to 8) (size 9 to 14) (size 15 to 20)
#    0.000    2.000    1.250    2.625    5.250    2.000 
#    2.250    5.000    0.000    0.000    0.000    0.000 
#    0.000    0.000    0.000    0.000    0.000    0.000 
#
# Total GULP energy -178291.174594 kJ/mol
# GULP energy per Si atom -5571.599206 kJ/mol
# Density = 2.348947 g / cm^3
# Si number density = 23.543056 Si / 1000 Ang^3
#
#
#
# Elastic Constant Matrix: (Units=GPa)
#
#
# Indices 1 2 3 4 5 6 
#
# 1 102.6162 13.2610 33.9662 0.0000 35.2797 0.0000
# 2 13.2610 32.7597 1.7140 0.0000 -3.1032 0.0000
# 3 33.9662 1.7140 102.5422 0.0000 31.2624 0.0000
# 4 0.0000 0.0000 0.0000 -3.7561 0.0000 27.8893
# 5 35.2797 -3.1032 31.2624 0.0000 42.0465 0.0000
# 6 0.0000 0.0000 0.0000 27.8893 0.0000 -16.8137
#
#
#
# Elastic Compliance Matrix: (Units=1/GPa)
#
#
# Indices 1 2 3 4 5 6 
#
# 1 0.015419 -0.007380 -0.001130 0.000000 -0.012642 0.000000
# 2 -0.007380 0.034466 -0.001028 0.000000 0.009500 0.000000
# 3 -0.001130 -0.001028 0.012773 0.000000 -0.008625 0.000000
# 4 0.000000 0.000000 0.000000 0.023527 0.000000 0.039025
# 5 -0.012642 0.009500 -0.008625 0.000000 0.041505 0.000000
# 6 0.000000 0.000000 0.000000 0.039025 0.000000 0.005256
#
#
# Mechanical properties :
#
#
# Convention : Reuss Voigt Hill
#
# Bulk Modulus (GPa) = 22.94473 37.31119 30.12796
# Shear Modulus (GPa) = 30.02109 16.89381 23.45745
#
# Velocity S-wave (km/s) = 3.57481 2.68166 3.15995
# Velocity P-wave (km/s) = 5.17745 5.04687 5.11258
#
# Compressibility (1/GPa) = 0.04358299
#
# Stress axis : x y z
#
# Youngs Moduli (GPa) = 64.85410 29.01369 78.29016
#
# Poissons Ratio (x) = 0.21412 0.08845
# Poissons Ratio (y) = 0.47863 0.08048
# Poissons Ratio (z) = 0.07327 0.02982
#
# Static dielectric constant tensor:
#      x y z
#    x 2.078740 0.000000 0.037480 
#    y 0.000000 1.952830 0.000000 
#    z 0.037480 0.000000 1.934930 
# 
# From -- ./inp_files/295117.got.cif
#   From: 2010.05.17/outbox.cif.g08.bks.cpg/sg15_148_cif.got.tgz:295117.got - 2010.06.03 18:47:42.
