data_PCOD9266295
_publ_section_title
;
Structure prediction by ZEFSAII (Michael W. Deem and Ramdas Pophale) SiO2 
 PCOD9266295
Probable space group: C 2/C
;
_chemical_formula_sum "Si O2"
_cell_formula_units_Z 48
_cell_length_a 13.879972
_cell_length_b 13.936602
_cell_length_c 14.294717
_cell_angle_alpha 90.000000
_cell_angle_beta 39.772611
_cell_angle_gamma 90.000000
_cell_volume 1768.993190
_symmetry_space_group_name_H-M "C 2/C"
_symmetry_group_IT_number 15
_symmetry_cell_setting 'monoclinic'
loop_
_space_group_symop_operation_xyz
x,y,z
-x,y,1/2-z
-x,-y,-z
x,-y,1/2+z
1/2+x,1/2+y,z
1/2-x,1/2+y,1/2-z
1/2-x,1/2-y,-z
1/2+x,1/2-y,1/2+z
loop_
_atom_site_type_symbol
_atom_site_label
_atom_site_fract_x
_atom_site_fract_y
_atom_site_fract_z
Si Si1 0.882965 0.225159 0.472681
Si Si2 0.712588 0.278584 0.240922
Si Si3 0.881817 0.195984 0.956874
Si Si4 0.916051 0.571465 0.935164
Si Si5 0.712515 0.007715 0.796994
Si Si6 0.344798 0.518406 0.503045
O O1 0.750000 0.250000 0.500000
O O2 0.816727 0.224647 0.626778
O O3 0.982276 0.320523 0.384564
O O4 0.935110 0.116394 0.414975
O O5 0.830226 0.208517 0.103912
O O6 0.546402 0.259899 0.322915
O O7 0.764522 0.386385 0.177319
O O8 0.893439 0.083227 0.925958
O O9 0.750000 0.250000 0.000000
O O10 0.821783 0.541843 0.915155
O O11 0.050678 0.502631 0.865739
O O12 0.797333 0.564651 0.109914
O O13 0.830444 0.003803 0.625145
#
# Coordination Sequence:
#
# PCOD9266295 Si02
#       6
#     8   8   8   8   8   8
#     4   9  20  39  63  94 129 170 216 269 330 393
#     4  11  24  43  67  97 131 172 220 273 333 393
#     4  12  26  44  67  96 132 174 223 276 332 394
#     4  10  19  37  62  92 128 168 214 264 321 389
#     4  10  21  36  63  95 127 168 215 266 323 390
#     4  10  22  38  60  90 125 167 216 267 322 389
#
# _framework density 27.134077999999999
#
# number of rings (size 3 to 8) (size 9 to 14) (size 15 to 20)
#    0.000    1.667    0.000    4.000    0.000    8.000 
#    0.000    5.833    0.000   16.000    0.000    0.000 
#    0.000    0.000    0.000    0.000    0.000    0.000 
#
# Total GULP energy -134399.822907 kJ/mol
# GULP energy per Si atom -5599.992621 kJ/mol
# Density = 2.707232 g / cm^3
# Si number density = 27.134078 Si / 1000 Ang^3
#
#
#
# Elastic Constant Matrix: (Units=GPa)
#
#
# Indices 1 2 3 4 5 6 
#
# 1 103.7183 10.9635 42.7760 0.0000 5.2797 0.0000
# 2 10.9635 161.9871 18.4376 0.0000 7.1251 0.0000
# 3 42.7760 18.4376 107.5415 0.0001 -0.4058 0.0000
# 4 0.0000 0.0000 0.0001 24.0202 0.0000 6.0979
# 5 5.2797 7.1251 -0.4058 0.0000 51.0807 0.0000
# 6 0.0000 0.0000 0.0000 6.0979 0.0000 34.5257
#
#
#
# Elastic Compliance Matrix: (Units=1/GPa)
#
#
# Indices 1 2 3 4 5 6 
#
# 1 0.011618 -0.000211 -0.004590 0.000000 -0.001208 0.000000
# 2 -0.000211 0.006340 -0.001006 0.000000 -0.000871 0.000000
# 3 -0.004590 -0.001006 0.011300 0.000000 0.000705 0.000000
# 4 0.000000 0.000000 0.000000 0.043586 0.000000 -0.007698
# 5 -0.001208 -0.000871 0.000705 0.000000 0.019829 0.000000
# 6 0.000000 0.000000 0.000000 -0.007698 0.000000 0.030324
#
#
# Mechanical properties :
#
#
# Convention : Reuss Voigt Hill
#
# Bulk Modulus (GPa) = 56.67574 57.51124 57.09349
# Shear Modulus (GPa) = 35.58929 41.99666 38.79297
#
# Velocity S-wave (km/s) = 3.62554 3.93841 3.78521
# Velocity P-wave (km/s) = 6.20151 6.47477 6.33961
#
# Compressibility (1/GPa) = 0.01764423
#
# Stress axis : x y z
#
# Youngs Moduli (GPa) = 86.07211 157.71750 88.49910
#
# Poissons Ratio (x) = 0.03325 0.40618
# Poissons Ratio (y) = 0.01814 0.08907
# Poissons Ratio (z) = 0.39504 0.15874
#
# Static dielectric constant tensor:
#      x y z
#    x 2.158680 0.000000 0.007320 
#    y 0.000000 2.114990 0.000000 
#    z 0.007320 0.000000 2.137320 
# 
# From -- ./inp_files/153805.got.cif
#   From: 2010.05.17/outbox.cif.g08.bks.cpg/sg15_77_cif.got.tgz:153805.got - 2010.06.03 18:47:42.
