data_PCOD9266702
_publ_section_title
;
Structure prediction by ZEFSAII (Michael W. Deem and Ramdas Pophale) SiO2 
 PCOD9266702
Probable space group: C 2/C
;
_chemical_formula_sum "Si O2"
_cell_formula_units_Z 36
_cell_length_a 11.027466
_cell_length_b 19.499287
_cell_length_c 9.183052
_cell_angle_alpha 90.000000
_cell_angle_beta 106.514029
_cell_angle_gamma 90.000000
_cell_volume 1893.158405
_symmetry_space_group_name_H-M "C 2/C"
_symmetry_group_IT_number 15
_symmetry_cell_setting 'monoclinic'
loop_
_space_group_symop_operation_xyz
x,y,z
-x,y,1/2-z
-x,-y,-z
x,-y,1/2+z
1/2+x,1/2+y,z
1/2-x,1/2+y,1/2-z
1/2-x,1/2-y,-z
1/2+x,1/2-y,1/2+z
loop_
_atom_site_type_symbol
_atom_site_label
_atom_site_fract_x
_atom_site_fract_y
_atom_site_fract_z
Si Si1 0.686962 0.181271 0.548031
Si Si2 0.500000 0.215626 0.250000
Si Si3 0.931407 0.090539 0.090792
Si Si4 0.887142 0.939902 0.100900
Si Si5 0.288264 0.705967 0.872712
O O1 0.750000 0.250000 0.500000
O O2 0.570037 0.172089 0.399125
O O3 0.775960 0.114598 0.574141
O O4 0.675586 0.196284 0.716669
O O5 0.598914 0.260978 0.187883
O O6 0.000000 0.127047 0.250000
O O7 0.860971 0.020600 0.115256
O O8 0.841860 0.136689 0.962147
O O9 0.050786 0.067801 0.035375
O O10 0.000000 0.921688 0.250000
O O11 0.250000 0.750000 0.000000
#
# Coordination Sequence:
#
# PCOD9266702 Si02
#       5
#     8   4   8   8   8
#     4  10  21  37  59  80 122 160 194 243 296 358
#     4  10  24  40  58  88 124 164 198 242 302 356
#     4  10  21  32  59  92 117 146 199 256 300 351
#     4  10  19  38  59  87 117 155 193 252 311 349
#     4  11  23  37  61  89 121 159 200 250 295 357
#
# _framework density 19.015840000000001
#
# number of rings (size 3 to 8) (size 9 to 14) (size 15 to 20)
#    0.000    1.778    2.222    2.667   10.889    0.000 
#    0.000    0.000    0.000    5.333    0.000    0.000 
#    0.000    0.000    0.000    0.000    0.000    0.000 
#
# Total GULP energy -100213.291049 kJ/mol
# GULP energy per Si atom -5567.405058 kJ/mol
# Density = 1.897256 g / cm^3
# Si number density = 19.015840 Si / 1000 Ang^3
#
#
#
# Elastic Constant Matrix: (Units=GPa)
#
#
# Indices 1 2 3 4 5 6 
#
# 1 39.4782 28.6172 34.9163 0.0000 1.4009 0.0000
# 2 28.6172 95.5332 51.0690 0.0000 13.3014 0.0000
# 3 34.9163 51.0690 204.7490 0.0000 22.8352 0.0000
# 4 0.0000 0.0000 0.0000 29.2401 0.0000 5.5278
# 5 1.4009 13.3014 22.8352 0.0000 40.4614 0.0000
# 6 0.0000 0.0000 0.0000 5.5278 0.0000 17.6565
#
#
#
# Elastic Compliance Matrix: (Units=1/GPa)
#
#
# Indices 1 2 3 4 5 6 
#
# 1 0.035417 -0.008894 -0.004280 0.000000 0.004113 0.000000
# 2 -0.008894 0.014538 -0.001719 0.000000 -0.003501 0.000000
# 3 -0.004280 -0.001719 0.006364 0.000000 -0.002878 0.000000
# 4 0.000000 0.000000 0.000000 0.036351 0.000000 -0.011381
# 5 0.004113 -0.003501 -0.002878 0.000000 0.027348 0.000000
# 6 0.000000 0.000000 0.000000 -0.011381 0.000000 0.060199
#
#
# Mechanical properties :
#
#
# Convention : Reuss Voigt Hill
#
# Bulk Modulus (GPa) = 37.68913 63.21841 50.45377
# Shear Modulus (GPa) = 22.84692 32.48209 27.66450
#
# Velocity S-wave (km/s) = 3.46998 4.13747 3.81834
# Velocity P-wave (km/s) = 5.99310 7.49281 6.78452
#
# Compressibility (1/GPa) = 0.02653285
#
# Stress axis : x y z
#
# Youngs Moduli (GPa) = 28.23492 68.78440 157.14188
#
# Poissons Ratio (x) = 0.61177 0.67259
# Poissons Ratio (y) = 0.25112 0.27012
# Poissons Ratio (z) = 0.12085 0.11824
#
# Static dielectric constant tensor:
#      x y z
#    x 1.703970 0.000000 0.016890 
#    y 0.000000 1.713620 0.000000 
#    z 0.016890 0.000000 1.764370 
# 
# From -- ./inp_files/28810.got.cif
#   From: 2010.05.17/outbox.cif.g08.bks.cpg/sg15_15_cif.got.tgz:28810.got - 2010.06.03 18:47:42.
