data_PCOD9266589
_publ_section_title
;
Structure prediction by ZEFSAII (Michael W. Deem and Ramdas Pophale) SiO2 
 PCOD9266589
Probable space group: C 2/C
;
_chemical_formula_sum "Si O2"
_cell_formula_units_Z 28
_cell_length_a 8.976322
_cell_length_b 7.036593
_cell_length_c 19.791945
_cell_angle_alpha 90.000000
_cell_angle_beta 47.298819
_cell_angle_gamma 90.000000
_cell_volume 918.708940
_symmetry_space_group_name_H-M "C 2/C"
_symmetry_group_IT_number 15
_symmetry_cell_setting 'monoclinic'
loop_
_space_group_symop_operation_xyz
x,y,z
-x,y,1/2-z
-x,-y,-z
x,-y,1/2+z
1/2+x,1/2+y,z
1/2-x,1/2+y,1/2-z
1/2-x,1/2-y,-z
1/2+x,1/2-y,1/2+z
loop_
_atom_site_type_symbol
_atom_site_label
_atom_site_fract_x
_atom_site_fract_y
_atom_site_fract_z
Si Si1 0.561010 0.395454 0.068740
Si Si2 0.250052 0.641086 0.785802
Si Si3 0.500000 0.025791 0.250000
Si Si4 0.308290 0.134810 0.074694
O O1 0.432673 0.348022 0.175901
O O2 0.399437 0.340380 0.061476
O O3 0.653965 0.594976 0.062167
O O4 0.750000 0.250000 0.000000
O O5 0.301077 0.834849 0.811046
O O6 0.051839 0.603422 0.799734
O O7 0.265194 0.464593 0.832483
O O8 0.500000 0.000000 0.000000
#
# Coordination Sequence:
#
# PCOD9266589 Si02
#       4
#     8   8   4   8
#     4  10  21  38  70 100 143 181 238 292 357 425
#     4  12  22  47  68 109 142 193 241 298 364 432
#     4  12  28  40  78 102 142 188 248 290 364 432
#     4  10  19  37  70 101 142 181 238 293 357 426
#
# _framework density 30.477550000000001
#
# number of rings (size 3 to 8) (size 9 to 14) (size 15 to 20)
#    0.000    1.143    5.714    0.000    0.000    3.429 
#    0.000    1.429    0.000    6.857    0.000    0.000 
#    0.000    0.000    0.000    0.000    0.000    0.000 
#
# Total GULP energy -78357.455242 kJ/mol
# GULP energy per Si atom -5596.961089 kJ/mol
# Density = 3.040818 g / cm^3
# Si number density = 30.477550 Si / 1000 Ang^3
#
#
#
# Elastic Constant Matrix: (Units=GPa)
#
#
# Indices 1 2 3 4 5 6 
#
# 1 363.7971 113.0835 47.5124 0.0000 17.0155 0.0000
# 2 113.0835 234.8973 44.2550 0.0000 5.3365 0.0000
# 3 47.5124 44.2550 171.3389 0.0000 -0.8421 0.0000
# 4 0.0000 0.0000 0.0000 68.3528 0.0000 -3.5297
# 5 17.0155 5.3365 -0.8421 0.0000 55.6755 0.0000
# 6 0.0000 0.0000 0.0000 -3.5297 0.0000 109.4022
#
#
#
# Elastic Compliance Matrix: (Units=1/GPa)
#
#
# Indices 1 2 3 4 5 6 
#
# 1 0.003320 -0.001476 -0.000544 0.000000 -0.000881 0.000000
# 2 -0.001476 0.005142 -0.000919 0.000000 -0.000056 0.000000
# 3 -0.000544 -0.000919 0.006226 0.000000 0.000348 0.000000
# 4 0.000000 0.000000 0.000000 0.014654 0.000000 0.000473
# 5 -0.000881 -0.000056 0.000348 0.000000 0.018241 0.000000
# 6 0.000000 0.000000 0.000000 0.000473 0.000000 0.009156
#
#
# Mechanical properties :
#
#
# Convention : Reuss Voigt Hill
#
# Bulk Modulus (GPa) = 113.49711 131.08170 122.28941
# Shear Modulus (GPa) = 76.27329 84.36492 80.31910
#
# Velocity S-wave (km/s) = 5.00803 5.26698 5.13914
# Velocity P-wave (km/s) = 8.41195 8.94934 8.68481
#
# Compressibility (1/GPa) = 0.00881080
#
# Stress axis : x y z
#
# Youngs Moduli (GPa) = 301.22899 194.47475 160.60913
#
# Poissons Ratio (x) = 0.28699 0.08733
# Poissons Ratio (y) = 0.44453 0.14763
# Poissons Ratio (z) = 0.16379 0.17876
#
# Static dielectric constant tensor:
#      x y z
#    x 2.411340 0.000000 0.054660 
#    y 0.000000 2.434140 0.000000 
#    z 0.054660 0.000000 2.439080 
# 
# From -- ./inp_files/187106.got.cif
#   From: 2010.05.17/outbox.cif.g08.bks.cpg/sg15_94_cif.got.tgz:187106.got - 2010.06.03 18:47:42.
