data_PCOD9266658
_publ_section_title
;
Structure prediction by ZEFSAII (Michael W. Deem and Ramdas Pophale) SiO2 
 PCOD9266658
Probable space group: C 2/C
;
_chemical_formula_sum "Si O2"
_cell_formula_units_Z 56
_cell_length_a 16.066938
_cell_length_b 7.540578
_cell_length_c 24.187469
_cell_angle_alpha 90.000000
_cell_angle_beta 112.017850
_cell_angle_gamma 90.000000
_cell_volume 2716.685415
_symmetry_space_group_name_H-M "C 2/C"
_symmetry_group_IT_number 15
_symmetry_cell_setting 'monoclinic'
loop_
_space_group_symop_operation_xyz
x,y,z
-x,y,1/2-z
-x,-y,-z
x,-y,1/2+z
1/2+x,1/2+y,z
1/2-x,1/2+y,1/2-z
1/2-x,1/2-y,-z
1/2+x,1/2-y,1/2+z
loop_
_atom_site_type_symbol
_atom_site_label
_atom_site_fract_x
_atom_site_fract_y
_atom_site_fract_z
Si Si1 0.139712 0.674574 0.568597
Si Si2 0.151412 0.377592 0.494368
Si Si3 0.378790 0.002919 0.681632
Si Si4 0.495933 0.185030 0.625202
Si Si5 0.292839 0.553043 0.938548
Si Si6 0.638696 0.691070 0.233210
Si Si7 0.792643 0.841613 0.189659
O O1 0.114058 0.559813 0.509239
O O2 0.070595 0.629176 0.599810
O O3 0.238099 0.628608 0.618672
O O4 0.144554 0.883144 0.554892
O O5 0.241537 0.438826 0.484950
O O6 0.161741 0.244933 0.548541
O O7 0.090002 0.276606 0.434312
O O8 0.458405 0.039279 0.658396
O O9 0.285002 0.038931 0.626224
O O10 0.381511 0.146917 0.730617
O O11 0.370276 0.802902 0.700065
O O12 0.547884 0.332296 0.674355
O O13 0.719404 0.751842 0.212706
O O14 0.669837 0.520163 0.274555
#
# Coordination Sequence:
#
# PCOD9266658 Si02
#       7
#     8   8   8   8   8   8   8
#     4  10  20  37  58  88 115 154 202 245 295 361
#     4  10  19  38  58  85 118 159 192 251 295 350
#     4  10  20  40  59  85 123 151 196 254 300 352
#     4  10  23  37  56  85 128 157 189 246 311 353
#     4   9  20  35  62  86 111 155 207 242 291 351
#     4  11  20  39  61  87 113 156 200 255 293 367
#     4  10  21  36  65  89 108 154 210 246 299 355
#
# _framework density 20.613357000000001
#
# number of rings (size 3 to 8) (size 9 to 14) (size 15 to 20)
#    0.000    2.000    1.429    2.143    0.000    0.571 
#    0.000    5.714    0.000    0.000    0.000    0.000 
#    0.000    0.000    0.000    0.000    0.000    0.000 
#
# Total GULP energy -156066.500331 kJ/mol
# GULP energy per Si atom -5573.803583 kJ/mol
# Density = 2.056644 g / cm^3
# Si number density = 20.613357 Si / 1000 Ang^3
#
#
#
# Elastic Constant Matrix: (Units=GPa)
#
#
# Indices 1 2 3 4 5 6 
#
# 1 75.3089 18.5623 9.3626 0.0000 -3.7441 0.0000
# 2 18.5623 70.6933 29.7535 0.0000 14.9751 0.0000
# 3 9.3626 29.7535 59.2231 0.0000 7.5372 0.0000
# 4 0.0000 0.0000 0.0000 29.4215 0.0000 -5.3693
# 5 -3.7441 14.9751 7.5372 0.0000 25.9657 0.0000
# 6 0.0000 0.0000 0.0000 -5.3693 0.0000 16.3599
#
#
#
# Elastic Compliance Matrix: (Units=1/GPa)
#
#
# Indices 1 2 3 4 5 6 
#
# 1 0.014756 -0.004673 -0.000622 0.000000 0.005003 0.000000
# 2 -0.004673 0.021188 -0.008582 0.000000 -0.010402 0.000000
# 3 -0.000622 -0.008582 0.021470 0.000000 -0.001372 0.000000
# 4 0.000000 0.000000 0.000000 0.036154 0.000000 0.011866
# 5 0.005003 -0.010402 -0.001372 0.000000 0.045632 0.000000
# 6 0.000000 0.000000 0.000000 0.011866 0.000000 0.065019
#
#
# Mechanical properties :
#
#
# Convention : Reuss Voigt Hill
#
# Bulk Modulus (GPa) = 33.71477 35.62021 34.66749
# Shear Modulus (GPa) = 20.67303 24.18587 22.42945
#
# Velocity S-wave (km/s) = 3.17029 3.42908 3.30222
# Velocity P-wave (km/s) = 5.45823 5.74420 5.60304
#
# Compressibility (1/GPa) = 0.02966059
#
# Stress axis : x y z
#
# Youngs Moduli (GPa) = 67.76690 47.19592 46.57656
#
# Poissons Ratio (x) = 0.22053 0.02897
# Poissons Ratio (y) = 0.31666 0.39974
# Poissons Ratio (z) = 0.04215 0.40505
#
# Static dielectric constant tensor:
#      x y z
#    x 1.770380 0.000000 0.036570 
#    y 0.000000 1.711800 0.000000 
#    z 0.036570 0.000000 1.770450 
# 
# From -- ./inp_files/297781.got.cif
#   From: 2010.05.17/outbox.cif.g08.bks.cpg/sg15_149_cif.got.tgz:297781.got - 2010.06.03 18:47:42.
