data_PCOD9266080
_publ_section_title
;
Structure prediction by ZEFSAII (Michael W. Deem and Ramdas Pophale) SiO2 
 PCOD9266080
Probable space group: C 2/C
;
_chemical_formula_sum "Si O2"
_cell_formula_units_Z 52
_cell_length_a 8.872532
_cell_length_b 14.868489
_cell_length_c 28.549941
_cell_angle_alpha 90.000000
_cell_angle_beta 140.550193
_cell_angle_gamma 90.000000
_cell_volume 2393.140563
_symmetry_space_group_name_H-M "C 2/C"
_symmetry_group_IT_number 15
_symmetry_cell_setting 'monoclinic'
loop_
_space_group_symop_operation_xyz
x,y,z
-x,y,1/2-z
-x,-y,-z
x,-y,1/2+z
1/2+x,1/2+y,z
1/2-x,1/2+y,1/2-z
1/2-x,1/2-y,-z
1/2+x,1/2-y,1/2+z
loop_
_atom_site_type_symbol
_atom_site_label
_atom_site_fract_x
_atom_site_fract_y
_atom_site_fract_z
Si Si1 0.852071 0.343210 0.785005
Si Si2 0.309026 0.605742 0.358419
Si Si3 0.195974 0.585976 0.879568
Si Si4 0.719895 0.502293 0.924938
Si Si5 0.000000 0.291239 0.250000
Si Si6 0.693275 0.354674 0.490742
Si Si7 0.886294 0.519122 0.368148
O O1 0.761826 0.363612 0.710922
O O2 0.714074 0.266182 0.779201
O O3 0.139805 0.330696 0.849752
O O4 0.787782 0.431014 0.799570
O O5 0.222429 0.508923 0.358039
O O6 0.587120 0.580487 0.419003
O O7 0.449544 0.621706 0.958981
O O8 0.022996 0.567860 0.881657
O O9 0.095833 0.652676 0.816850
O O10 0.641481 0.596671 0.928430
O O11 0.700388 0.497469 0.864541
O O12 0.000000 0.500000 0.000000
O O13 0.750000 0.250000 0.500000
O O14 0.912368 0.410588 0.564681
#
# Coordination Sequence:
#
# PCOD9266080 Si02
#       7
#     8   8   8   8   4   8   8
#     4  10  20  34  60  88 113 151 193 252 305 347
#     4   9  19  39  59  83 117 156 198 238 301 367
#     4  10  21  37  57  81 118 160 195 237 292 367
#     4   9  19  35  59  86 115 153 196 240 291 365
#     4  12  22  36  56  88 122 152 200 256 306 352
#     4  10  20  36  57  84 116 151 194 247 298 346
#     4  10  19  37  60  83 111 155 199 233 295 368
#
# _framework density 21.728770000000001
#
# number of rings (size 3 to 8) (size 9 to 14) (size 15 to 20)
#    0.000    2.154    0.000    4.154    0.000    2.462 
#    0.000   11.538    0.000    1.846    0.000    0.000 
#    0.000    0.000    0.000    0.000    0.000    0.000 
#
# Total GULP energy -144777.702108 kJ/mol
# GULP energy per Si atom -5568.373158 kJ/mol
# Density = 2.167931 g / cm^3
# Si number density = 21.728770 Si / 1000 Ang^3
#
#
#
# Elastic Constant Matrix: (Units=GPa)
#
#
# Indices 1 2 3 4 5 6 
#
# 1 137.5549 31.4426 23.6877 0.0000 6.4763 0.0000
# 2 31.4426 65.5585 21.0144 -0.0001 11.9923 0.0000
# 3 23.6877 21.0144 46.5524 -0.0004 12.2976 -0.0001
# 4 0.0000 -0.0001 -0.0004 43.2252 -0.0001 5.4995
# 5 6.4763 11.9923 12.2976 -0.0001 38.4371 0.0000
# 6 0.0000 0.0000 -0.0001 5.4995 0.0000 29.8670
#
#
#
# Elastic Compliance Matrix: (Units=1/GPa)
#
#
# Indices 1 2 3 4 5 6 
#
# 1 0.008497 -0.003206 -0.003018 0.000000 0.000534 0.000000
# 2 -0.003206 0.019427 -0.006204 0.000000 -0.003536 0.000000
# 3 -0.003018 -0.006204 0.027496 0.000000 -0.006353 0.000000
# 4 0.000000 0.000000 0.000000 0.023690 0.000000 -0.004362
# 5 0.000534 -0.003536 -0.006353 0.000000 0.029062 0.000000
# 6 0.000000 0.000000 0.000000 -0.004362 0.000000 0.034285
#
#
# Mechanical properties :
#
#
# Convention : Reuss Voigt Hill
#
# Bulk Modulus (GPa) = 32.71800 44.66170 38.68985
# Shear Modulus (GPa) = 28.16916 33.87393 31.02154
#
# Velocity S-wave (km/s) = 3.60446 3.95263 3.78255
# Velocity P-wave (km/s) = 5.69324 6.43660 6.07630
#
# Compressibility (1/GPa) = 0.03056422
#
# Stress axis : x y z
#
# Youngs Moduli (GPa) = 117.68722 51.47584 36.36959
#
# Poissons Ratio (x) = 0.16502 0.10975
# Poissons Ratio (y) = 0.37727 0.22564
# Poissons Ratio (z) = 0.35513 0.31937
#
# Static dielectric constant tensor:
#      x y z
#    x 1.898240 0.000000 0.011820 
#    y 0.000000 1.769930 0.000000 
#    z 0.011820 0.000000 1.947530 
# 
# From -- ./inp_files/308345.got.cif
#   From: 2010.05.17/outbox.cif.g08.bks.cpg/sg15_155_cif.got.tgz:308345.got - 2010.06.03 18:47:42.
