data_PCOD9266891
_publ_section_title
;
Structure prediction by ZEFSAII (Michael W. Deem and Ramdas Pophale) SiO2 
 PCOD9266891
Probable space group: C 2/C
;
_chemical_formula_sum "Si O2"
_cell_formula_units_Z 40
_cell_length_a 12.765860
_cell_length_b 10.072836
_cell_length_c 24.514772
_cell_angle_alpha 90.000000
_cell_angle_beta 35.431276
_cell_angle_gamma 90.000000
_cell_volume 1827.479469
_symmetry_space_group_name_H-M "C 2/C"
_symmetry_group_IT_number 15
_symmetry_cell_setting 'monoclinic'
loop_
_space_group_symop_operation_xyz
x,y,z
-x,y,1/2-z
-x,-y,-z
x,-y,1/2+z
1/2+x,1/2+y,z
1/2-x,1/2+y,1/2-z
1/2-x,1/2-y,-z
1/2+x,1/2-y,1/2+z
loop_
_atom_site_type_symbol
_atom_site_label
_atom_site_fract_x
_atom_site_fract_y
_atom_site_fract_z
Si Si1 0.593672 0.838388 0.655212
Si Si2 0.033499 0.382223 0.136821
Si Si3 0.995886 0.841255 0.002957
Si Si4 0.877172 0.845706 0.169343
Si Si5 0.386550 0.611364 0.428995
O O1 0.500000 0.791400 0.750000
O O2 0.802351 0.796293 0.567058
O O3 0.479275 0.774441 0.655347
O O4 0.578808 0.998462 0.658905
O O5 0.818213 0.377520 0.222659
O O6 0.081865 0.227608 0.128156
O O7 0.176355 0.421402 0.028316
O O8 0.950580 0.817447 0.958926
O O9 0.868484 0.810415 0.108503
O O10 0.000000 0.000000 0.000000
O O11 0.998693 0.978299 0.125625
#
# Coordination Sequence:
#
# PCOD9266891 Si02
#       5
#     8   8   8   8   8
#     4  12  23  39  67  89 122 167 211 255 306 370
#     4  11  22  38  65  90 128 161 206 256 310 367
#     4  10  19  38  62  92 120 157 208 251 303 368
#     4  11  22  39  64  94 124 163 210 255 306 370
#     4  10  23  42  62  94 126 163 203 261 312 371
#
# _framework density 21.888069000000002
#
# number of rings (size 3 to 8) (size 9 to 14) (size 15 to 20)
#    0.000    1.200    4.000    5.400    0.000    0.000 
#    0.000    2.000    8.800    0.000    0.000    0.000 
#    0.000    0.000    0.000    0.000    0.000    0.000 
#
# Total GULP energy -111420.281356 kJ/mol
# GULP energy per Si atom -5571.014068 kJ/mol
# Density = 2.183825 g / cm^3
# Si number density = 21.888069 Si / 1000 Ang^3
#
#
#
# Elastic Constant Matrix: (Units=GPa)
#
#
# Indices 1 2 3 4 5 6 
#
# 1 78.0164 16.0287 29.0470 0.0000 -1.8737 0.0000
# 2 16.0287 53.9944 40.0126 0.0000 2.6566 0.0000
# 3 29.0470 40.0126 149.0182 0.0000 -37.1991 0.0000
# 4 0.0000 0.0000 0.0000 25.1839 0.0000 -10.5653
# 5 -1.8737 2.6566 -37.1991 0.0000 43.3054 0.0000
# 6 0.0000 0.0000 0.0000 -10.5653 0.0000 38.5823
#
#
#
# Elastic Compliance Matrix: (Units=1/GPa)
#
#
# Indices 1 2 3 4 5 6 
#
# 1 0.014185 -0.002293 -0.002496 0.000000 -0.001390 0.000000
# 2 -0.002293 0.026310 -0.008968 0.000000 -0.009417 0.000000
# 3 -0.002496 -0.008968 0.012368 0.000000 0.011066 0.000000
# 4 0.000000 0.000000 0.000000 0.044862 0.000000 0.012285
# 5 -0.001390 -0.009417 0.011066 0.000000 0.033115 0.000000
# 6 0.000000 0.000000 0.000000 0.012285 0.000000 0.029283
#
#
# Mechanical properties :
#
#
# Convention : Reuss Voigt Hill
#
# Bulk Modulus (GPa) = 39.45057 50.13397 44.79227
# Shear Modulus (GPa) = 25.49899 34.47705 29.98802
#
# Velocity S-wave (km/s) = 3.41687 3.97312 3.70545
# Velocity P-wave (km/s) = 5.79910 6.63340 6.23023
#
# Compressibility (1/GPa) = 0.02534818
#
# Stress axis : x y z
#
# Youngs Moduli (GPa) = 70.49751 38.00779 80.85614
#
# Poissons Ratio (x) = 0.08714 0.20185
# Poissons Ratio (y) = 0.16162 0.72515
# Poissons Ratio (z) = 0.17599 0.34087
#
# Static dielectric constant tensor:
#      x y z
#    x 1.880750 0.000000 0.003230 
#    y 0.000000 1.798330 0.000000 
#    z 0.003230 0.000000 1.848240 
# 
# From -- ./inp_files/295695.got.cif
#   From: 2010.05.17/outbox.cif.g08.bks.cpg/sg15_148_cif.got.tgz:295695.got - 2010.06.03 18:47:42.
