data_PCOD9266077
_publ_section_title
;
Structure prediction by ZEFSAII (Michael W. Deem and Ramdas Pophale) SiO2 
 PCOD9266077
Probable space group: C 2/C
;
_chemical_formula_sum "Si O2"
_cell_formula_units_Z 56
_cell_length_a 19.765001
_cell_length_b 9.080069
_cell_length_c 18.639523
_cell_angle_alpha 90.000000
_cell_angle_beta 64.675406
_cell_angle_gamma 90.000000
_cell_volume 3023.713935
_symmetry_space_group_name_H-M "C 2/C"
_symmetry_group_IT_number 15
_symmetry_cell_setting 'monoclinic'
loop_
_space_group_symop_operation_xyz
x,y,z
-x,y,1/2-z
-x,-y,-z
x,-y,1/2+z
1/2+x,1/2+y,z
1/2-x,1/2+y,1/2-z
1/2-x,1/2-y,-z
1/2+x,1/2-y,1/2+z
loop_
_atom_site_type_symbol
_atom_site_label
_atom_site_fract_x
_atom_site_fract_y
_atom_site_fract_z
Si Si1 0.719945 0.583671 0.514188
Si Si2 0.471814 0.030109 0.345078
Si Si3 0.131660 0.431039 0.801000
Si Si4 0.324116 0.899292 0.362828
Si Si5 0.098812 0.904203 0.272286
Si Si6 0.939663 0.867528 0.378379
Si Si7 0.230033 0.922679 0.659412
O O1 0.750000 0.750000 0.500000
O O2 0.763513 0.484833 0.437593
O O3 0.630241 0.577864 0.544168
O O4 0.733951 0.523852 0.587618
O O5 0.500000 0.049791 0.250000
O O6 0.403540 0.915440 0.369764
O O7 0.548847 0.000820 0.352683
O O8 0.443056 0.189981 0.382951
O O9 0.163984 0.516910 0.717758
O O10 0.121229 0.260842 0.783323
O O11 0.190081 0.429242 0.838689
O O12 0.297426 0.735867 0.356203
O O13 0.078930 0.899828 0.196667
O O14 0.022420 0.934760 0.350627
O O15 0.167984 0.015299 0.243593
#
# Coordination Sequence:
#
# PCOD9266077 Si02
#       7
#     8   8   8   8   8   8   8
#     4  11  21  36  59  81 112 156 194 226 281 359
#     4   9  15  32  58  81 105 149 196 232 272 341
#     4  10  19  37  60  82 113 150 192 233 289 342
#     4  11  20  36  57  88 119 146 188 245 288 342
#     4   9  16  33  56  78 109 143 188 230 275 337
#     4   9  14  31  57  81  95 144 199 222 255 341
#     4  11  23  34  56  92 115 141 188 250 295 324
#
# _framework density 18.520271000000001
#
# number of rings (size 3 to 8) (size 9 to 14) (size 15 to 20)
#    0.000    2.000    5.714    2.143    0.000    0.000 
#   15.429    0.714    0.000    7.714    0.000    0.000 
#    0.000    0.000    0.000    0.000    0.000    0.000 
#
# Total GULP energy -156003.099749 kJ/mol
# GULP energy per Si atom -5571.539277 kJ/mol
# Density = 1.847812 g / cm^3
# Si number density = 18.520271 Si / 1000 Ang^3
#
#
#
# Elastic Constant Matrix: (Units=GPa)
#
#
# Indices 1 2 3 4 5 6 
#
# 1 133.1490 59.5282 39.4583 0.0000 -25.7048 0.0000
# 2 59.5282 80.3851 41.9998 -0.0001 -21.4536 -0.0001
# 3 39.4583 41.9998 72.9454 0.0000 -29.6562 0.0000
# 4 0.0000 -0.0001 0.0000 1.8261 0.0000 -2.4570
# 5 -25.7048 -21.4536 -29.6562 0.0000 20.1316 0.0000
# 6 0.0000 -0.0001 0.0000 -2.4570 0.0000 10.2438
#
#
#
# Elastic Compliance Matrix: (Units=1/GPa)
#
#
# Indices 1 2 3 4 5 6 
#
# 1 0.012236 -0.007176 0.001884 0.000000 0.010751 0.000000
# 2 -0.007176 0.022786 -0.007706 0.000002 0.003768 0.000001
# 3 0.001884 -0.007706 0.036814 0.000000 0.048425 0.000000
# 4 0.000000 0.000002 0.000000 0.808536 0.000001 0.193932
# 5 0.010751 0.003768 0.048425 0.000001 0.138751 0.000001
# 6 0.000000 0.000001 0.000000 0.193932 0.000001 0.144136
#
#
# Mechanical properties :
#
#
# Convention : Reuss Voigt Hill
#
# Bulk Modulus (GPa) = 21.81511 63.16135 42.48823
# Shear Modulus (GPa) = 4.15098 16.13985 10.14541
#
# Velocity S-wave (km/s) = 1.49873 2.95527 2.34305
# Velocity P-wave (km/s) = 3.84701 6.76925 5.50556
#
# Compressibility (1/GPa) = 0.04583979
#
# Stress axis : x y z
#
# Youngs Moduli (GPa) = 81.72632 43.88629 27.16365
#
# Poissons Ratio (x) = 0.31494 -0.05118
# Poissons Ratio (y) = 0.58648 0.20932
# Poissons Ratio (z) = -0.15398 0.33819
#
# Static dielectric constant tensor:
#      x y z
#    x 1.728020 0.000000 -0.059190 
#    y 0.000000 1.624570 0.000000 
#    z -0.059190 0.000000 1.642590 
# 
# From -- ./inp_files/247338.got.cif
#   From: 2010.05.17/outbox.cif.g08.bks.cpg/sg15_124_cif.got.tgz:247338.got - 2010.06.03 18:47:42.
