data_PCOD9266939
_publ_section_title
;
Structure prediction by ZEFSAII (Michael W. Deem and Ramdas Pophale) SiO2 
 PCOD9266939
Probable space group: C 2/C
;
_chemical_formula_sum "Si O2"
_cell_formula_units_Z 44
_cell_length_a 16.023583
_cell_length_b 8.795149
_cell_length_c 17.607448
_cell_angle_alpha 90.000000
_cell_angle_beta 130.938739
_cell_angle_gamma 90.000000
_cell_volume 1874.486561
_symmetry_space_group_name_H-M "C 2/C"
_symmetry_group_IT_number 15
_symmetry_cell_setting 'monoclinic'
loop_
_space_group_symop_operation_xyz
x,y,z
-x,y,1/2-z
-x,-y,-z
x,-y,1/2+z
1/2+x,1/2+y,z
1/2-x,1/2+y,1/2-z
1/2-x,1/2-y,-z
1/2+x,1/2-y,1/2+z
loop_
_atom_site_type_symbol
_atom_site_label
_atom_site_fract_x
_atom_site_fract_y
_atom_site_fract_z
Si Si1 0.500000 0.704155 0.750000
Si Si2 0.404636 0.214557 0.746513
Si Si3 0.370432 0.399054 0.462865
Si Si4 0.562354 0.070609 0.965284
Si Si5 0.593567 0.502541 0.171751
Si Si6 0.317850 0.942067 0.591711
O O1 0.461250 0.605856 0.798923
O O2 0.393369 0.810586 0.670298
O O3 0.500000 0.287296 0.750000
O O4 0.466963 0.113672 0.847089
O O5 0.346059 0.357338 0.750847
O O6 0.346312 0.099308 0.654331
O O7 0.362405 0.220394 0.477521
O O8 0.342318 0.416953 0.356807
O O9 0.497578 0.419274 0.564428
O O10 0.311726 0.539406 0.472408
O O11 0.644345 0.954397 0.972355
O O12 0.500000 0.000000 0.000000
#
# Coordination Sequence:
#
# PCOD9266939 Si02
#       6
#     4   8   8   8   8   8
#     4  12  22  38  68  90 126 166 214 260 312 366
#     4   9  18  38  61  82 119 161 195 244 317 365
#     4  10  23  39  62  90 126 161 211 254 317 371
#     4  10  19  38  63  89 118 159 204 254 309 371
#     4  10  22  41  61  86 126 168 200 259 313 370
#     4  11  22  39  63  92 121 163 211 258 306 381
#
# _framework density 23.473095000000001
#
# number of rings (size 3 to 8) (size 9 to 14) (size 15 to 20)
#    0.000    1.818    3.636    1.636    0.000    2.182 
#    0.000    0.000    0.000    0.000    0.000    0.000 
#    0.000    0.000    0.000    0.000    0.000    0.000 
#
# Total GULP energy -122602.557627 kJ/mol
# GULP energy per Si atom -5572.843529 kJ/mol
# Density = 2.341967 g / cm^3
# Si number density = 23.473095 Si / 1000 Ang^3
#
#
#
# Elastic Constant Matrix: (Units=GPa)
#
#
# Indices 1 2 3 4 5 6 
#
# 1 80.0072 2.6331 19.5457 0.0000 -36.3329 0.0000
# 2 2.6331 64.8281 18.1351 0.0000 -10.6547 0.0000
# 3 19.5457 18.1351 47.9678 0.0000 -17.7022 0.0000
# 4 0.0000 0.0000 0.0000 22.0525 0.0000 -0.3922
# 5 -36.3329 -10.6547 -17.7022 0.0000 42.4583 0.0000
# 6 0.0000 0.0000 0.0000 -0.3922 0.0000 37.7694
#
#
#
# Elastic Compliance Matrix: (Units=1/GPa)
#
#
# Indices 1 2 3 4 5 6 
#
# 1 0.021126 0.002926 -0.003276 0.000000 0.017446 0.000000
# 2 0.002926 0.017786 -0.006317 0.000000 0.004333 0.000000
# 3 -0.003276 -0.006317 0.027125 0.000000 0.006921 0.000000
# 4 0.000000 0.000000 0.000000 0.045355 0.000000 0.000471
# 5 0.017446 0.004333 0.006921 0.000000 0.042455 0.000000
# 6 0.000000 0.000000 0.000000 0.000471 0.000000 0.026481
#
#
# Mechanical properties :
#
#
# Convention : Reuss Voigt Hill
#
# Bulk Modulus (GPa) = 18.97500 30.38120 24.67810
# Shear Modulus (GPa) = 23.67104 30.62200 27.14652
#
# Velocity S-wave (km/s) = 3.17903 3.61578 3.40442
# Velocity P-wave (km/s) = 4.64502 5.51389 5.09800
#
# Compressibility (1/GPa) = 0.05270093
#
# Stress axis : x y z
#
# Youngs Moduli (GPa) = 47.33608 56.22414 36.86701
#
# Poissons Ratio (x) = -0.16449 0.12077
# Poissons Ratio (y) = -0.13849 0.23290
# Poissons Ratio (z) = 0.15506 0.35519
#
# Static dielectric constant tensor:
#      x y z
#    x 2.118810 0.000000 0.101430 
#    y 0.000000 1.931920 0.000000 
#    z 0.101430 0.000000 1.946010 
# 
# From -- ./inp_files/202922.got.cif
#   From: 2010.05.17/outbox.cif.g08.bks.cpg/sg15_102_cif.got.tgz:202922.got - 2010.06.03 18:47:42.
