data_PCOD9266253
_publ_section_title
;
Structure prediction by ZEFSAII (Michael W. Deem and Ramdas Pophale) SiO2 
 PCOD9266253
Probable space group: C 2/C
;
_chemical_formula_sum "Si O2"
_cell_formula_units_Z 60
_cell_length_a 12.279497
_cell_length_b 17.489057
_cell_length_c 24.452687
_cell_angle_alpha 90.000000
_cell_angle_beta 39.028688
_cell_angle_gamma 90.000000
_cell_volume 3306.844367
_symmetry_space_group_name_H-M "C 2/C"
_symmetry_group_IT_number 15
_symmetry_cell_setting 'monoclinic'
loop_
_space_group_symop_operation_xyz
x,y,z
-x,y,1/2-z
-x,-y,-z
x,-y,1/2+z
1/2+x,1/2+y,z
1/2-x,1/2+y,1/2-z
1/2-x,1/2-y,-z
1/2+x,1/2-y,1/2+z
loop_
_atom_site_type_symbol
_atom_site_label
_atom_site_fract_x
_atom_site_fract_y
_atom_site_fract_z
Si Si1 0.500000 0.351792 0.250000
Si Si2 0.681869 0.775085 0.436961
Si Si3 0.957092 0.244671 0.424309
Si Si4 0.281588 0.006993 0.906589
Si Si5 0.952134 0.645922 0.711064
Si Si6 0.590535 0.425886 0.326204
Si Si7 0.760664 0.367708 0.981433
Si Si8 0.061022 0.070935 0.400313
O O1 0.348118 0.302711 0.337366
O O2 0.577606 0.402575 0.268348
O O3 0.522595 0.773937 0.457694
O O4 0.728858 0.694088 0.446268
O O5 0.648362 0.829442 0.502120
O O6 0.750000 0.250000 0.500000
O O7 0.027979 0.297310 0.347702
O O8 0.036257 0.158718 0.393125
O O9 0.419156 0.073168 0.843105
O O10 0.215403 0.957613 0.880303
O O11 0.112664 0.047570 0.998655
O O12 0.347505 0.943366 0.923600
O O13 0.760185 0.612046 0.785384
O O14 0.000000 0.684690 0.750000
O O15 0.427162 0.391823 0.422582
O O16 0.581951 0.516005 0.340102
#
# Coordination Sequence:
#
# PCOD9266253 Si02
#       8
#     4   8   8   8   8   8   8   8
#     4  10  20  40  60  84 126 162 198 260 316 364
#     4  10  20  38  61  92 119 160 204 252 309 371
#     4  12  24  40  63  91 130 163 204 258 324 379
#     4  10  19  37  62  86 114 156 213 245 294 366
#     4  12  24  39  61  95 124 160 210 267 312 368
#     4  10  21  39  62  85 120 162 206 255 313 367
#     4   9  20  38  64  86 117 161 209 250 301 374
#     4  10  20  38  60  83 115 166 204 243 298 378
#
# _framework density 18.144186000000001
#
# number of rings (size 3 to 8) (size 9 to 14) (size 15 to 20)
#    0.000    1.600    5.333    0.000    1.867    0.000 
#    4.800    2.000    0.000    0.000    0.000    0.000 
#    0.000    0.000    0.000    0.000    0.000    0.000 
#
# Total GULP energy -167324.495839 kJ/mol
# GULP energy per Si atom -5577.483195 kJ/mol
# Density = 1.810289 g / cm^3
# Si number density = 18.144186 Si / 1000 Ang^3
#
#
#
# Elastic Constant Matrix: (Units=GPa)
#
#
# Indices 1 2 3 4 5 6 
#
# 1 139.7009 53.2471 27.4921 0.0001 15.8565 0.0000
# 2 53.2471 121.6408 25.0601 0.0001 18.3832 0.0000
# 3 27.4921 25.0601 29.0544 0.0002 18.6309 -0.0002
# 4 0.0001 0.0001 0.0002 10.3494 -0.0002 4.5945
# 5 15.8565 18.3832 18.6309 -0.0002 27.4714 0.0001
# 6 0.0000 0.0000 -0.0002 4.5945 0.0001 29.7237
#
#
#
# Elastic Compliance Matrix: (Units=1/GPa)
#
#
# Indices 1 2 3 4 5 6 
#
# 1 0.009562 -0.002859 -0.007556 0.000000 0.001518 0.000000
# 2 -0.002859 0.010887 -0.005435 0.000000 -0.001949 0.000000
# 3 -0.007556 -0.005435 0.072777 -0.000003 -0.041358 0.000001
# 4 0.000000 0.000000 -0.000003 0.103743 0.000002 -0.016036
# 5 0.001518 -0.001949 -0.041358 0.000002 0.064878 -0.000001
# 6 0.000000 0.000000 0.000001 -0.016036 -0.000001 0.036122
#
#
# Mechanical properties :
#
#
# Convention : Reuss Voigt Hill
#
# Bulk Modulus (GPa) = 16.25337 55.77720 36.01529
# Shear Modulus (GPa) = 14.27849 25.81533 20.04691
#
# Velocity S-wave (km/s) = 2.80830 3.77608 3.32756
# Velocity P-wave (km/s) = 4.41506 7.05829 5.88695
#
# Compressibility (1/GPa) = 0.06152570
#
# Stress axis : x y z
#
# Youngs Moduli (GPa) = 104.57663 91.85649 13.74069
#
# Poissons Ratio (x) = 0.26258 0.10382
# Poissons Ratio (y) = 0.29894 0.07469
# Poissons Ratio (z) = 0.79017 0.49928
#
# Static dielectric constant tensor:
#      x y z
#    x 1.635040 0.000000 0.011060 
#    y 0.000000 1.636090 0.000000 
#    z 0.011060 0.000000 1.610970 
# 
# From -- ./inp_files/199105.got.cif
#   From: 2010.05.17/outbox.cif.g08.bks.cpg/sg15_100_cif.got.tgz:199105.got - 2010.06.03 18:47:42.
