data_PCOD9266273
_publ_section_title
;
Structure prediction by ZEFSAII (Michael W. Deem and Ramdas Pophale) SiO2 
 PCOD9266273
Probable space group: C 2/C
;
_chemical_formula_sum "Si O2"
_cell_formula_units_Z 52
_cell_length_a 16.819006
_cell_length_b 10.874868
_cell_length_c 18.394350
_cell_angle_alpha 90.000000
_cell_angle_beta 50.114244
_cell_angle_gamma 90.000000
_cell_volume 2581.593653
_symmetry_space_group_name_H-M "C 2/C"
_symmetry_group_IT_number 15
_symmetry_cell_setting 'monoclinic'
loop_
_space_group_symop_operation_xyz
x,y,z
-x,y,1/2-z
-x,-y,-z
x,-y,1/2+z
1/2+x,1/2+y,z
1/2-x,1/2+y,1/2-z
1/2-x,1/2-y,-z
1/2+x,1/2-y,1/2+z
loop_
_atom_site_type_symbol
_atom_site_label
_atom_site_fract_x
_atom_site_fract_y
_atom_site_fract_z
Si Si1 0.817261 0.204959 0.849508
Si Si2 0.746403 0.945878 0.685770
Si Si3 0.091934 0.969159 0.776782
Si Si4 0.398146 0.819296 0.952455
Si Si5 0.500000 0.261176 0.750000
Si Si6 0.070115 0.050530 0.522902
Si Si7 0.522886 0.970408 0.316489
O O1 0.797429 0.308360 0.800205
O O2 0.866714 0.271158 0.890559
O O3 0.882684 0.093639 0.780207
O O4 0.706846 0.154518 0.942173
O O5 0.824793 0.954515 0.707178
O O6 0.812129 0.970367 0.572899
O O7 0.646427 0.031579 0.754075
O O8 0.088959 0.851160 0.726732
O O9 0.977022 0.985340 0.878946
O O10 0.446201 0.697104 0.960121
O O11 0.468777 0.939202 0.904665
O O12 0.521405 0.166576 0.670698
O O13 0.000000 0.000000 0.500000
O O14 0.500000 0.027501 0.250000
#
# Coordination Sequence:
#
# PCOD9266273 Si02
#       7
#     8   8   8   8   4   8   8
#     4  10  20  35  64  90 113 153 208 251 303 364
#     4  10  21  38  61  88 118 160 204 254 300 369
#     4  11  22  38  62  87 123 160 200 257 314 367
#     4  10  19  37  62  89 118 156 207 252 295 370
#     4  10  24  40  58  88 126 158 198 256 314 352
#     4   9  20  36  60  92 121 152 205 259 305 355
#     4  10  21  39  59  82 124 163 197 243 304 360
#
# _framework density 20.142598
#
# number of rings (size 3 to 8) (size 9 to 14) (size 15 to 20)
#    0.462    1.538    1.538    1.846    2.154    0.000 
#    0.000    3.846    3.385    0.000    0.000    0.000 
#    0.000    0.000    0.000    0.000    0.000    0.000 
#
# Total GULP energy -144914.267978 kJ/mol
# GULP energy per Si atom -5573.625691 kJ/mol
# Density = 2.009675 g / cm^3
# Si number density = 20.142598 Si / 1000 Ang^3
#
#
#
# Elastic Constant Matrix: (Units=GPa)
#
#
# Indices 1 2 3 4 5 6 
#
# 1 82.8239 26.2858 25.0144 0.0000 -3.4541 0.0000
# 2 26.2858 79.7467 50.7916 0.0000 -7.6617 0.0000
# 3 25.0144 50.7916 70.8808 0.0000 -7.1674 0.0000
# 4 0.0000 0.0000 0.0000 10.9746 0.0000 1.7684
# 5 -3.4541 -7.6617 -7.1674 0.0000 20.5738 0.0000
# 6 0.0000 0.0000 0.0000 1.7684 0.0000 36.6937
#
#
#
# Elastic Compliance Matrix: (Units=1/GPa)
#
#
# Indices 1 2 3 4 5 6 
#
# 1 0.013817 -0.002647 -0.002948 0.000000 0.000307 0.000000
# 2 -0.002647 0.023747 -0.015789 0.000000 0.002898 0.000000
# 3 -0.002948 -0.015789 0.026761 0.000000 0.002948 0.000000
# 4 0.000000 0.000000 0.000000 0.091833 0.000000 -0.004426
# 5 0.000307 0.002898 0.002948 0.000000 0.050763 0.000000
# 6 0.000000 0.000000 0.000000 -0.004426 0.000000 0.027466
#
#
# Mechanical properties :
#
#
# Convention : Reuss Voigt Hill
#
# Bulk Modulus (GPa) = 46.39121 48.62610 47.50865
# Shear Modulus (GPa) = 17.58444 22.40574 19.99509
#
# Velocity S-wave (km/s) = 2.95786 3.33882 3.15410
# Velocity P-wave (km/s) = 5.89463 6.24956 6.07468
#
# Compressibility (1/GPa) = 0.02155581
#
# Stress axis : x y z
#
# Youngs Moduli (GPa) = 72.37384 42.11028 37.36764
#
# Poissons Ratio (x) = 0.11147 0.11017
# Poissons Ratio (y) = 0.19158 0.59001
# Poissons Ratio (z) = 0.21338 0.66490
#
# Static dielectric constant tensor:
#      x y z
#    x 1.724330 0.000000 -0.001830 
#    y 0.000000 1.707000 0.000000 
#    z -0.001830 0.000000 1.764280 
# 
# From -- ./inp_files/248548.got.cif
#   From: 2010.05.17/outbox.cif.g08.bks.cpg/sg15_125_cif.got.tgz:248548.got - 2010.06.03 18:47:42.
