data_PCOD9266560
_publ_section_title
;
Structure prediction by ZEFSAII (Michael W. Deem and Ramdas Pophale) SiO2 
 PCOD9266560
Probable space group: C 2/C
;
_chemical_formula_sum "Si O2"
_cell_formula_units_Z 52
_cell_length_a 8.257828
_cell_length_b 26.379439
_cell_length_c 11.178090
_cell_angle_alpha 90.000000
_cell_angle_beta 114.333131
_cell_angle_gamma 90.000000
_cell_volume 2218.687310
_symmetry_space_group_name_H-M "C 2/C"
_symmetry_group_IT_number 15
_symmetry_cell_setting 'monoclinic'
loop_
_space_group_symop_operation_xyz
x,y,z
-x,y,1/2-z
-x,-y,-z
x,-y,1/2+z
1/2+x,1/2+y,z
1/2-x,1/2+y,1/2-z
1/2-x,1/2-y,-z
1/2+x,1/2-y,1/2+z
loop_
_atom_site_type_symbol
_atom_site_label
_atom_site_fract_x
_atom_site_fract_y
_atom_site_fract_z
Si Si1 0.550806 0.052710 0.954945
Si Si2 0.000000 0.051301 0.750000
Si Si3 0.438583 0.273616 0.595723
Si Si4 0.304249 0.802642 0.659127
Si Si5 0.251546 0.899033 0.490066
Si Si6 0.181240 0.126510 0.342479
Si Si7 0.691664 0.505182 0.125072
O O1 0.664363 0.035777 0.875974
O O2 0.377473 0.087258 0.916020
O O3 0.683678 0.085639 0.074609
O O4 0.500000 0.000000 0.000000
O O5 0.939125 0.088145 0.624497
O O6 0.852013 0.012194 0.754564
O O7 0.500000 0.259268 0.750000
O O8 0.250000 0.250000 0.500000
O O9 0.628092 0.267810 0.585567
O O10 0.388693 0.333437 0.580247
O O11 0.500000 0.780597 0.750000
O O12 0.301184 0.844196 0.553244
O O13 0.259465 0.837027 0.763500
O O14 0.265773 0.939969 0.604654
O O15 0.000000 0.099652 0.250000
O O16 0.500000 0.500000 0.000000
#
# Coordination Sequence:
#
# PCOD9266560 Si02
#       7
#     8   4   8   8   8   8   8
#     4  10  20  37  55  87 123 169 222 268 320 380
#     4  10  22  38  50  80 126 170 226 268 334 384
#     4   9  21  42  70 102 131 168 221 278 348 432
#     4  10  19  37  67  96 126 164 218 275 329 405
#     4  10  21  37  56  84 123 170 220 277 334 382
#     4   9  20  35  63  92 119 160 218 270 327 400
#     4   9  21  35  52  77 117 175 224 272 320 383
#
# _framework density 23.437280000000001
#
# number of rings (size 3 to 8) (size 9 to 14) (size 15 to 20)
#    0.000    2.769    1.538    0.000    8.615    4.308 
#    6.923    4.615    0.000    0.000    0.000    0.000 
#    0.000    0.000    0.000    0.000    0.000    0.000 
#
# Total GULP energy -144809.532633 kJ/mol
# GULP energy per Si atom -5569.597409 kJ/mol
# Density = 2.338394 g / cm^3
# Si number density = 23.437280 Si / 1000 Ang^3
#
#
#
# Elastic Constant Matrix: (Units=GPa)
#
#
# Indices 1 2 3 4 5 6 
#
# 1 142.3342 23.0587 25.3279 0.0000 12.9243 0.0000
# 2 23.0587 51.7594 27.9843 0.0000 22.2849 0.0000
# 3 25.3279 27.9843 75.0888 0.0000 33.0754 0.0000
# 4 0.0000 0.0000 0.0000 21.6883 0.0000 18.9087
# 5 12.9243 22.2849 33.0754 0.0000 54.4189 0.0000
# 6 0.0000 0.0000 0.0000 18.9087 0.0000 35.1253
#
#
#
# Elastic Compliance Matrix: (Units=1/GPa)
#
#
# Indices 1 2 3 4 5 6 
#
# 1 0.007737 -0.002625 -0.001769 0.000000 0.000313 0.000000
# 2 -0.002625 0.026636 -0.006161 0.000000 -0.006540 0.000000
# 3 -0.001769 -0.006161 0.020367 0.000000 -0.009436 0.000000
# 4 0.000000 0.000000 0.000000 0.086886 0.000000 -0.046773
# 5 0.000313 -0.006540 -0.009436 0.000000 0.026715 0.000000
# 6 0.000000 0.000000 0.000000 -0.046773 0.000000 0.053648
#
#
# Mechanical properties :
#
#
# Convention : Reuss Voigt Hill
#
# Bulk Modulus (GPa) = 29.73536 46.88048 38.30792
# Shear Modulus (GPa) = 19.66110 35.10058 27.38084
#
# Velocity S-wave (km/s) = 2.89949 3.87413 3.42169
# Velocity P-wave (km/s) = 4.89123 6.32912 5.65606
#
# Compressibility (1/GPa) = 0.03362999
#
# Stress axis : x y z
#
# Youngs Moduli (GPa) = 129.24178 37.54284 49.10001
#
# Poissons Ratio (x) = 0.09855 0.08687
# Poissons Ratio (y) = 0.33927 0.30249
# Poissons Ratio (z) = 0.22867 0.23129
#
# Static dielectric constant tensor:
#      x y z
#    x 1.985940 0.000000 0.052060 
#    y 0.000000 1.875950 0.000000 
#    z 0.052060 0.000000 1.909320 
# 
# From -- ./inp_files/81487.got.cif
#   From: 2010.05.17/outbox.cif.g08.bks.cpg/sg15_41_cif.got.tgz:81487.got - 2010.06.03 18:47:42.
