data_PCOD9266641
_publ_section_title
;
Structure prediction by ZEFSAII (Michael W. Deem and Ramdas Pophale) SiO2 
 PCOD9266641
Probable space group: C 2/C
;
_chemical_formula_sum "Si O2"
_cell_formula_units_Z 52
_cell_length_a 6.616350
_cell_length_b 28.886950
_cell_length_c 14.769971
_cell_angle_alpha 90.000000
_cell_angle_beta 110.936110
_cell_angle_gamma 90.000000
_cell_volume 2636.556777
_symmetry_space_group_name_H-M "C 2/C"
_symmetry_group_IT_number 15
_symmetry_cell_setting 'monoclinic'
loop_
_space_group_symop_operation_xyz
x,y,z
-x,y,1/2-z
-x,-y,-z
x,-y,1/2+z
1/2+x,1/2+y,z
1/2-x,1/2+y,1/2-z
1/2-x,1/2-y,-z
1/2+x,1/2-y,1/2+z
loop_
_atom_site_type_symbol
_atom_site_label
_atom_site_fract_x
_atom_site_fract_y
_atom_site_fract_z
Si Si1 0.794775 0.439255 0.941380
Si Si2 0.726438 0.040853 0.617916
Si Si3 0.419642 0.601460 0.916191
Si Si4 0.029208 0.263911 0.853106
Si Si5 0.500000 0.087207 0.750000
Si Si6 0.793108 0.158937 0.152180
Si Si7 0.485084 0.696336 0.488949
O O1 0.725092 0.486477 0.881776
O O2 0.776947 0.393441 0.878529
O O3 0.649120 0.428563 0.006901
O O4 0.040404 0.447050 0.014309
O O5 0.620548 0.055675 0.695394
O O6 0.934686 0.070943 0.626506
O O7 0.191400 0.614753 0.831800
O O8 0.550974 0.646566 0.969164
O O9 0.274484 0.279269 0.912747
O O10 0.000000 0.241488 0.750000
O O11 0.890986 0.310601 0.832183
O O12 0.945791 0.230579 0.919576
O O13 0.000000 0.159206 0.250000
O O14 0.852428 0.183354 0.065884
#
# Coordination Sequence:
#
# PCOD9266641 Si02
#       7
#     8   8   8   8   4   8   8
#     4   9  21  36  58  86 113 157 200 239 296 362
#     4  10  19  38  57  83 120 155 197 247 296 351
#     4  10  20  38  60  82 116 157 194 250 295 350
#     4  11  22  40  62  89 118 155 199 243 298 366
#     4  10  22  34  54  86 120 150 204 240 292 358
#     4  11  21  39  59  87 122 154 193 247 299 352
#     4  10  23  41  62  87 118 156 198 246 303 354
#
# _framework density 19.722693
#
# number of rings (size 3 to 8) (size 9 to 14) (size 15 to 20)
#    0.000    1.846    1.538    2.308    0.000    2.462 
#    2.769    3.077    0.000    0.000    0.000    0.000 
#    0.000    0.000    0.000    0.000    0.000    0.000 
#
# Total GULP energy -145124.324964 kJ/mol
# GULP energy per Si atom -5581.704806 kJ/mol
# Density = 1.967780 g / cm^3
# Si number density = 19.722693 Si / 1000 Ang^3
#
#
#
# Elastic Constant Matrix: (Units=GPa)
#
#
# Indices 1 2 3 4 5 6 
#
# 1 43.0255 18.7650 7.7789 0.0000 -0.9981 0.0000
# 2 18.7650 78.7718 21.7064 0.0000 -6.0993 0.0000
# 3 7.7789 21.7064 89.9576 0.0000 -3.1411 0.0000
# 4 0.0000 0.0000 0.0000 3.1485 0.0000 21.3688
# 5 -0.9981 -6.0993 -3.1411 0.0000 17.5075 0.0000
# 6 0.0000 0.0000 0.0000 21.3688 0.0000 -5.6551
#
#
#
# Elastic Compliance Matrix: (Units=1/GPa)
#
#
# Indices 1 2 3 4 5 6 
#
# 1 0.026001 -0.006027 -0.000821 0.000000 -0.000765 0.000000
# 2 -0.006027 0.015306 -0.003017 0.000000 0.004448 0.000000
# 3 -0.000821 -0.003017 0.011952 0.000000 0.001047 0.000000
# 4 0.000000 0.000000 0.000000 0.011920 0.000000 0.045041
# 5 -0.000765 0.004448 0.001047 0.000000 0.058812 0.000000
# 6 0.000000 0.000000 0.000000 0.045041 0.000000 -0.006636
#
#
# Mechanical properties :
#
#
# Convention : Reuss Voigt Hill
#
# Bulk Modulus (GPa) = 29.82400 34.25059 32.03729
# Shear Modulus (GPa) = 33.72430 13.90049 23.81239
#
# Velocity S-wave (km/s) = 4.13961 2.65768 3.47848
# Velocity P-wave (km/s) = 6.16465 5.17894 5.69317
#
# Compressibility (1/GPa) = 0.03353005
#
# Stress axis : x y z
#
# Youngs Moduli (GPa) = 38.45957 65.33225 83.66924
#
# Poissons Ratio (x) = 0.39376 0.06868
# Poissons Ratio (y) = 0.23180 0.25242
# Poissons Ratio (z) = 0.03157 0.19710
#
# Static dielectric constant tensor:
#      x y z
#    x 1.685230 0.000000 0.006330 
#    y 0.000000 1.659210 0.000000 
#    z 0.006330 0.000000 1.713510 
# 
# From -- ./inp_files/130700.got.cif
#   From: 2010.05.17/outbox.cif.g08.bks.cpg/sg15_66_cif.got.tgz:130700.got - 2010.06.03 18:47:42.
