data_PCOD9266252
_publ_section_title
;
Structure prediction by ZEFSAII (Michael W. Deem and Ramdas Pophale) SiO2 
 PCOD9266252
Probable space group: C 2/C
;
_chemical_formula_sum "Si O2"
_cell_formula_units_Z 56
_cell_length_a 11.686050
_cell_length_b 13.178293
_cell_length_c 19.355271
_cell_angle_alpha 90.000000
_cell_angle_beta 87.647972
_cell_angle_gamma 90.000000
_cell_volume 2978.242977
_symmetry_space_group_name_H-M "C 2/C"
_symmetry_group_IT_number 15
_symmetry_cell_setting 'monoclinic'
loop_
_space_group_symop_operation_xyz
x,y,z
-x,y,1/2-z
-x,-y,-z
x,-y,1/2+z
1/2+x,1/2+y,z
1/2-x,1/2+y,1/2-z
1/2-x,1/2-y,-z
1/2+x,1/2-y,1/2+z
loop_
_atom_site_type_symbol
_atom_site_label
_atom_site_fract_x
_atom_site_fract_y
_atom_site_fract_z
Si Si1 0.420827 0.826735 0.183996
Si Si2 0.064298 0.903635 0.319898
Si Si3 0.145641 0.726524 0.409861
Si Si4 0.134141 0.892623 0.767896
Si Si5 0.583760 0.256671 0.566088
Si Si6 0.711705 0.024811 0.361174
Si Si7 0.573096 0.484800 0.566759
O O1 0.500000 0.843989 0.250000
O O2 0.352036 0.720094 0.200230
O O3 0.506531 0.813402 0.116473
O O4 0.339611 0.922083 0.168780
O O5 0.119834 0.804442 0.349581
O O6 0.000000 0.885268 0.250000
O O7 0.969256 0.935800 0.376885
O O8 0.144751 0.003995 0.312729
O O9 0.280701 0.745706 0.421430
O O10 0.078227 0.744836 0.483321
O O11 0.123695 0.611761 0.386080
O O12 0.000000 0.893034 0.750000
O O13 0.210728 0.918404 0.699082
O O14 0.544454 0.369581 0.586991
O O15 0.789836 0.007470 0.428152
O O16 0.500000 0.500000 0.500000
#
# Coordination Sequence:
#
# PCOD9266252 Si02
#       7
#     8   8   8   8   8   8   8
#     4  11  23  40  62  88 127 163 202 253 308 371
#     4  11  20  34  65  93 114 149 204 268 296 337
#     4  10  22  38  62  89 122 161 206 245 303 374
#     4  10  19  37  62  86 113 156 202 256 300 357
#     4  10  21  39  63  87 118 170 205 242 301 374
#     4  11  24  38  57  93 123 159 202 249 314 373
#     4  11  19  37  63  87 116 152 212 255 294 353
#
# _framework density 18.803031000000001
#
# number of rings (size 3 to 8) (size 9 to 14) (size 15 to 20)
#    0.000    1.429    5.714    2.571    4.000    1.143 
#    0.000    0.714    0.000    0.000    0.000    0.000 
#    0.000    0.000    0.000    0.000    0.000    0.000 
#
# Total GULP energy -155885.501540 kJ/mol
# GULP energy per Si atom -5567.339341 kJ/mol
# Density = 1.876023 g / cm^3
# Si number density = 18.803031 Si / 1000 Ang^3
#
#
#
# Elastic Constant Matrix: (Units=GPa)
#
#
# Indices 1 2 3 4 5 6 
#
# 1 37.8916 38.9724 38.4892 0.0000 2.0366 0.0000
# 2 38.9724 135.2976 63.1376 0.0000 22.8590 0.0000
# 3 38.4892 63.1376 121.3651 0.0000 11.7468 0.0000
# 4 0.0000 0.0000 0.0000 26.7705 0.0000 6.6754
# 5 2.0366 22.8590 11.7468 0.0000 30.7714 0.0000
# 6 0.0000 0.0000 0.0000 6.6754 0.0000 21.1385
#
#
#
# Elastic Compliance Matrix: (Units=1/GPa)
#
#
# Indices 1 2 3 4 5 6 
#
# 1 0.046885 -0.010036 -0.010456 0.000000 0.008343 0.000000
# 2 -0.010036 0.012902 -0.002768 0.000000 -0.007864 0.000000
# 3 -0.010456 -0.002768 0.013218 0.000000 -0.002297 0.000000
# 4 0.000000 0.000000 0.000000 0.040547 0.000000 -0.012804
# 5 0.008343 -0.007864 -0.002297 0.000000 0.038664 0.000000
# 6 0.000000 0.000000 0.000000 -0.012804 0.000000 0.051350
#
#
# Mechanical properties :
#
#
# Convention : Reuss Voigt Hill
#
# Bulk Modulus (GPa) = 37.75576 63.97253 50.86415
# Shear Modulus (GPa) = 19.31133 25.99978 22.65555
#
# Velocity S-wave (km/s) = 3.20821 3.72256 3.47492
# Velocity P-wave (km/s) = 5.81779 7.25072 6.57342
#
# Compressibility (1/GPa) = 0.02648602
#
# Stress axis : x y z
#
# Youngs Moduli (GPa) = 21.32878 77.50501 75.65444
#
# Poissons Ratio (x) = 0.77782 0.79101
# Poissons Ratio (y) = 0.21405 0.20944
# Poissons Ratio (z) = 0.22301 0.21456
#
# Static dielectric constant tensor:
#      x y z
#    x 1.668340 0.000000 0.009880 
#    y 0.000000 1.683770 0.000000 
#    z 0.009880 0.000000 1.719090 
# 
# From -- ./inp_files/237065.got.cif
#   From: 2010.05.17/outbox.cif.g08.bks.cpg/sg15_119_cif.got.tgz:237065.got - 2010.06.03 18:47:42.
