data_PCOD9266373
_publ_section_title
;
Structure prediction by ZEFSAII (Michael W. Deem and Ramdas Pophale) SiO2 
 PCOD9266373
Probable space group: C 2/C
;
_chemical_formula_sum "Si O2"
_cell_formula_units_Z 48
_cell_length_a 8.801783
_cell_length_b 19.923474
_cell_length_c 14.491005
_cell_angle_alpha 90.000000
_cell_angle_beta 52.577235
_cell_angle_gamma 90.000000
_cell_volume 2018.131570
_symmetry_space_group_name_H-M "C 2/C"
_symmetry_group_IT_number 15
_symmetry_cell_setting 'monoclinic'
loop_
_space_group_symop_operation_xyz
x,y,z
-x,y,1/2-z
-x,-y,-z
x,-y,1/2+z
1/2+x,1/2+y,z
1/2-x,1/2+y,1/2-z
1/2-x,1/2-y,-z
1/2+x,1/2-y,1/2+z
loop_
_atom_site_type_symbol
_atom_site_label
_atom_site_fract_x
_atom_site_fract_y
_atom_site_fract_z
Si Si1 0.023336 0.904724 0.416676
Si Si2 0.181759 0.406797 0.897918
Si Si3 0.614914 0.934884 0.119814
Si Si4 0.500000 0.503869 0.750000
Si Si5 0.333656 0.814916 0.203875
Si Si6 0.811061 0.326451 0.995388
Si Si7 0.500000 0.305889 0.750000
O O1 0.162250 0.939583 0.437799
O O2 0.970117 0.951375 0.350639
O O3 0.161020 0.845877 0.326194
O O4 0.828412 0.870387 0.517199
O O5 0.311682 0.460235 0.796255
O O6 0.346114 0.351462 0.861114
O O7 0.102544 0.448195 0.015653
O O8 0.017304 0.362629 0.910766
O O9 0.500000 0.966291 0.250000
O O10 0.523421 0.859956 0.149322
O O11 0.279305 0.827457 0.118043
O O12 0.387813 0.741418 0.218993
O O13 0.750000 0.250000 0.000000
#
# Coordination Sequence:
#
# PCOD9266373 Si02
#       7
#     8   8   8   4   8   8   4
#     4  11  20  39  63  92 124 171 217 269 324 383
#     4  10  25  41  62  94 128 177 211 266 327 389
#     4   9  20  39  62  92 119 161 225 257 322 385
#     4  11  24  44  66  86 138 175 226 254 320 407
#     4  10  19  37  63  93 126 168 214 267 324 401
#     4  11  23  36  63 101 130 162 217 281 340 375
#     4  11  20  38  66  90 130 169 212 264 330 399
#
# _framework density 23.784376000000002
#
# number of rings (size 3 to 8) (size 9 to 14) (size 15 to 20)
#    0.000    1.667    4.167    1.000    2.333    2.667 
#    0.000    0.000    0.000    0.000    0.000    0.000 
#    0.000    0.000    0.000    0.000    0.000    0.000 
#
# Total GULP energy -133737.449964 kJ/mol
# GULP energy per Si atom -5572.393748 kJ/mol
# Density = 2.373024 g / cm^3
# Si number density = 23.784376 Si / 1000 Ang^3
#
#
#
# Elastic Constant Matrix: (Units=GPa)
#
#
# Indices 1 2 3 4 5 6 
#
# 1 123.3363 44.1586 24.8160 0.0000 -31.0124 0.0000
# 2 44.1586 64.8396 20.0516 0.0000 -17.8187 0.0000
# 3 24.8160 20.0516 61.2719 0.0000 -22.4543 0.0000
# 4 0.0000 0.0000 0.0000 15.3963 0.0000 -1.6093
# 5 -31.0124 -17.8187 -22.4543 0.0000 39.1417 0.0000
# 6 0.0000 0.0000 0.0000 -1.6093 0.0000 39.9874
#
#
#
# Elastic Compliance Matrix: (Units=1/GPa)
#
#
# Indices 1 2 3 4 5 6 
#
# 1 0.012079 -0.006315 -0.000471 0.000000 0.006426 0.000000
# 2 -0.006315 0.021573 -0.003465 0.000000 0.002829 0.000000
# 3 -0.000471 -0.003465 0.021437 0.000000 0.010347 0.000000
# 4 0.000000 0.000000 0.000000 0.065225 0.000000 0.002625
# 5 0.006426 0.002829 0.010347 0.000000 0.037863 0.000000
# 6 0.000000 0.000000 0.000000 0.002625 0.000000 0.025113
#
#
# Mechanical properties :
#
#
# Convention : Reuss Voigt Hill
#
# Bulk Modulus (GPa) = 28.91259 47.50001 38.20630
# Shear Modulus (GPa) = 23.22096 29.59985 26.41040
#
# Velocity S-wave (km/s) = 3.12799 3.53159 3.33590
# Velocity P-wave (km/s) = 5.02277 6.05342 5.56202
#
# Compressibility (1/GPa) = 0.03458701
#
# Stress axis : x y z
#
# Youngs Moduli (GPa) = 82.78561 46.35486 46.64745
#
# Poissons Ratio (x) = 0.29274 0.02196
# Poissons Ratio (y) = 0.52280 0.16164
# Poissons Ratio (z) = 0.03898 0.16063
#
# Static dielectric constant tensor:
#      x y z
#    x 1.976460 0.000000 0.010170 
#    y 0.000000 1.933350 0.000000 
#    z 0.010170 0.000000 1.960090 
# 
# From -- ./inp_files/191989.got.cif
#   From: 2010.05.17/outbox.cif.g08.bks.cpg/sg15_96_cif.got.tgz:191989.got - 2010.06.03 18:47:42.
