data_PCOD9266704
_publ_section_title
;
Structure prediction by ZEFSAII (Michael W. Deem and Ramdas Pophale) SiO2 
 PCOD9266704
Probable space group: C 2/C
;
_chemical_formula_sum "Si O2"
_cell_formula_units_Z 48
_cell_length_a 21.997370
_cell_length_b 15.086037
_cell_length_c 16.434966
_cell_angle_alpha 90.000000
_cell_angle_beta 23.730527
_cell_angle_gamma 90.000000
_cell_volume 2194.881664
_symmetry_space_group_name_H-M "C 2/C"
_symmetry_group_IT_number 15
_symmetry_cell_setting 'monoclinic'
loop_
_space_group_symop_operation_xyz
x,y,z
-x,y,1/2-z
-x,-y,-z
x,-y,1/2+z
1/2+x,1/2+y,z
1/2-x,1/2+y,1/2-z
1/2-x,1/2-y,-z
1/2+x,1/2-y,1/2+z
loop_
_atom_site_type_symbol
_atom_site_label
_atom_site_fract_x
_atom_site_fract_y
_atom_site_fract_z
Si Si1 0.933385 0.357042 0.420880
Si Si2 0.595209 0.910381 0.374654
Si Si3 0.121933 0.178548 0.917426
Si Si4 0.398229 0.638676 0.937800
Si Si5 0.869355 0.074397 0.157117
Si Si6 0.398604 0.774002 0.719169
O O1 0.869547 0.263409 0.534078
O O2 0.799288 0.429426 0.599854
O O3 0.000000 0.351075 0.250000
O O4 0.070137 0.381998 0.312941
O O5 0.769495 0.900169 0.185576
O O6 0.513157 0.837818 0.531491
O O7 0.500000 0.000000 0.500000
O O8 0.165936 0.208292 0.771832
O O9 0.950048 0.149320 0.113899
O O10 0.500000 0.582724 0.750000
O O11 0.508915 0.719783 0.827899
O O12 0.355214 0.600466 0.079135
O O13 0.244906 0.667737 0.081127
O O14 0.000000 0.000000 0.000000
#
# Coordination Sequence:
#
# PCOD9266704 Si02
#       6
#     8   8   8   8   8   8
#     4  11  23  43  66  93 123 167 221 266 308 378
#     4  11  21  38  63  88 126 166 202 259 326 378
#     4  10  20  37  66  88 120 168 213 249 312 377
#     4  11  21  38  63  90 120 161 212 257 315 385
#     4  11  23  42  63  92 133 165 203 265 327 379
#     4  10  19  38  59  87 120 159 206 259 308 374
#
# _framework density 21.869060999999999
#
# number of rings (size 3 to 8) (size 9 to 14) (size 15 to 20)
#    0.000    1.333    5.000    3.500    0.000    2.667 
#    3.000    1.667    0.000    0.000    0.000    0.000 
#    0.000    0.000    0.000    0.000    0.000    0.000 
#
# Total GULP energy -133858.469857 kJ/mol
# GULP energy per Si atom -5577.436244 kJ/mol
# Density = 2.181929 g / cm^3
# Si number density = 21.869061 Si / 1000 Ang^3
#
#
#
# Elastic Constant Matrix: (Units=GPa)
#
#
# Indices 1 2 3 4 5 6 
#
# 1 84.2015 24.0751 43.1948 0.0000 0.7142 0.0000
# 2 24.0751 54.3138 -7.5357 0.0000 -4.6484 0.0000
# 3 43.1948 -7.5357 91.0320 0.0000 -1.5439 0.0000
# 4 0.0000 0.0000 0.0000 18.8088 0.0000 -14.1072
# 5 0.7142 -4.6484 -1.5439 0.0000 44.2408 0.0000
# 6 0.0000 0.0000 0.0000 -14.1072 0.0000 18.5734
#
#
#
# Elastic Compliance Matrix: (Units=1/GPa)
#
#
# Indices 1 2 3 4 5 6 
#
# 1 0.020360 -0.010647 -0.010573 0.000000 -0.001816 0.000000
# 2 -0.010647 0.024374 0.007120 0.000000 0.002981 0.000000
# 3 -0.010573 0.007120 0.016617 0.000000 0.001499 0.000000
# 4 0.000000 0.000000 0.000000 0.123550 0.000000 0.093841
# 5 -0.001816 0.002981 0.001499 0.000000 0.022998 0.000000
# 6 0.000000 0.000000 0.000000 0.093841 0.000000 0.125116
#
#
# Mechanical properties :
#
#
# Convention : Reuss Voigt Hill
#
# Bulk Modulus (GPa) = 30.16477 38.77952 34.47214
# Shear Modulus (GPa) = 13.43130 27.64548 20.53839
#
# Velocity S-wave (km/s) = 2.48093 3.55933 3.06788
# Velocity P-wave (km/s) = 4.69361 5.88752 5.32414
#
# Compressibility (1/GPa) = 0.03315126
#
# Stress axis : x y z
#
# Youngs Moduli (GPa) = 49.11670 41.02746 60.18000
#
# Poissons Ratio (x) = 0.43682 0.63627
# Poissons Ratio (y) = 0.52294 -0.42850
# Poissons Ratio (z) = 0.51930 -0.29213
#
# Static dielectric constant tensor:
#      x y z
#    x 1.788910 0.000000 -0.009050 
#    y 0.000000 1.928500 0.000000 
#    z -0.009050 0.000000 1.854640 
# 
# From -- ./inp_files/219940.got.cif
#   From: 2010.05.17/outbox.cif.g08.bks.cpg/sg15_110_cif.got.tgz:219940.got - 2010.06.03 18:47:42.
