data_PCOD9266889
_publ_section_title
;
Structure prediction by ZEFSAII (Michael W. Deem and Ramdas Pophale) SiO2 
 PCOD9266889
Probable space group: C 2/C
;
_chemical_formula_sum "Si O2"
_cell_formula_units_Z 48
_cell_length_a 8.642626
_cell_length_b 31.090639
_cell_length_c 11.415903
_cell_angle_alpha 90.000000
_cell_angle_beta 42.021718
_cell_angle_gamma 90.000000
_cell_volume 2053.427112
_symmetry_space_group_name_H-M "C 2/C"
_symmetry_group_IT_number 15
_symmetry_cell_setting 'monoclinic'
loop_
_space_group_symop_operation_xyz
x,y,z
-x,y,1/2-z
-x,-y,-z
x,-y,1/2+z
1/2+x,1/2+y,z
1/2-x,1/2+y,1/2-z
1/2-x,1/2-y,-z
1/2+x,1/2-y,1/2+z
loop_
_atom_site_type_symbol
_atom_site_label
_atom_site_fract_x
_atom_site_fract_y
_atom_site_fract_z
Si Si1 0.500000 0.425674 0.750000
Si Si2 0.302936 0.560125 0.033603
Si Si3 0.021945 0.777830 0.485839
Si Si4 0.567460 0.105662 0.374121
Si Si5 0.847490 0.305035 0.954246
Si Si6 0.000000 0.769023 0.750000
Si Si7 0.738845 0.537847 0.889091
O O1 0.731685 0.399372 0.645428
O O2 0.586386 0.453389 0.591293
O O3 0.216642 0.597356 0.171007
O O4 0.244903 0.513834 0.123297
O O5 0.135623 0.569628 0.018304
O O6 0.580043 0.558185 0.875975
O O7 0.889160 0.733352 0.523197
O O8 0.915685 0.807843 0.445367
O O9 0.981116 0.795332 0.640043
O O10 0.283258 0.762590 0.353168
O O11 0.444312 0.151104 0.449992
O O12 0.000000 0.296002 0.750000
O O13 0.000000 0.554797 0.750000
#
# Coordination Sequence:
#
# PCOD9266889 Si02
#       7
#     4   8   8   8   8   4   8
#     4  10  24  37  64  96 122 168 222 262 330 398
#     4   9  18  35  61  89 121 161 207 259 319 377
#     4  10  22  37  65  96 122 164 216 256 326 388
#     4  10  19  39  60  89 124 163 216 261 318 395
#     4  11  20  37  66  90 121 174 216 256 316 399
#     4  10  20  39  58  94 130 146 204 278 308 378
#     4  10  19  38  62  91 129 165 212 272 312 386
#
# _framework density 23.375556
#
# number of rings (size 3 to 8) (size 9 to 14) (size 15 to 20)
#    0.000    2.000    5.000    0.000    0.000    1.333 
#    0.000    0.000   11.000    0.000    0.000    0.000 
#    0.000    0.000    0.000    0.000    0.000    0.000 
#
# Total GULP energy -133629.879010 kJ/mol
# GULP energy per Si atom -5567.911625 kJ/mol
# Density = 2.332235 g / cm^3
# Si number density = 23.375556 Si / 1000 Ang^3
#
#
#
# Elastic Constant Matrix: (Units=GPa)
#
#
# Indices 1 2 3 4 5 6 
#
# 1 191.5861 44.1205 50.2103 0.0000 -59.0056 0.0000
# 2 44.1205 78.5493 2.3687 0.0000 -19.7792 0.0000
# 3 50.2103 2.3687 63.7059 0.0000 -31.7763 0.0000
# 4 0.0000 0.0000 0.0000 19.3143 0.0000 -12.1484
# 5 -59.0056 -19.7792 -31.7763 0.0000 67.2385 0.0000
# 6 0.0000 0.0000 0.0000 -12.1484 0.0000 25.0541
#
#
#
# Elastic Compliance Matrix: (Units=1/GPa)
#
#
# Indices 1 2 3 4 5 6 
#
# 1 0.008543 -0.003569 -0.004429 0.000000 0.004354 0.000000
# 2 -0.003569 0.015432 0.003848 0.000000 0.003226 0.000000
# 3 -0.004429 0.003848 0.023121 0.000000 0.008172 0.000000
# 4 0.000000 0.000000 0.000000 0.074495 0.000000 0.036121
# 5 0.004354 0.003226 0.008172 0.000000 0.023505 0.000000
# 6 0.000000 0.000000 0.000000 0.036121 0.000000 0.057428
#
#
# Mechanical properties :
#
#
# Convention : Reuss Voigt Hill
#
# Bulk Modulus (GPa) = 25.77490 58.58226 42.17858
# Shear Modulus (GPa) = 22.34590 38.13083 30.23837
#
# Velocity S-wave (km/s) = 3.09520 4.04323 3.60055
# Velocity P-wave (km/s) = 4.88099 6.84928 5.94713
#
# Compressibility (1/GPa) = 0.03879743
#
# Stress axis : x y z
#
# Youngs Moduli (GPa) = 117.05296 64.80165 43.25095
#
# Poissons Ratio (x) = 0.23125 0.19155
# Poissons Ratio (y) = 0.41772 -0.16644
# Poissons Ratio (z) = 0.51840 -0.24937
#
# Static dielectric constant tensor:
#      x y z
#    x 2.042470 0.000000 0.012830 
#    y 0.000000 1.855880 0.000000 
#    z 0.012830 0.000000 1.988310 
# 
# From -- ./inp_files/139409.got.cif
#   From: 2010.05.17/outbox.cif.g08.bks.cpg/sg15_70_cif.got.tgz:139409.got - 2010.06.03 18:47:42.
