data_PCOD9266039
_publ_section_title
;
Structure prediction by ZEFSAII (Michael W. Deem and Ramdas Pophale) SiO2 
 PCOD9266039
Probable space group: C 2/C
;
_chemical_formula_sum "Si O2"
_cell_formula_units_Z 64
_cell_length_a 15.922706
_cell_length_b 12.036374
_cell_length_c 16.598844
_cell_angle_alpha 90.000000
_cell_angle_beta 99.599274
_cell_angle_gamma 90.000000
_cell_volume 3136.653124
_symmetry_space_group_name_H-M "C 2/C"
_symmetry_group_IT_number 15
_symmetry_cell_setting 'monoclinic'
loop_
_space_group_symop_operation_xyz
x,y,z
-x,y,1/2-z
-x,-y,-z
x,-y,1/2+z
1/2+x,1/2+y,z
1/2-x,1/2+y,1/2-z
1/2-x,1/2-y,-z
1/2+x,1/2-y,1/2+z
loop_
_atom_site_type_symbol
_atom_site_label
_atom_site_fract_x
_atom_site_fract_y
_atom_site_fract_z
Si Si1 0.581550 0.824412 0.405320
Si Si2 0.837719 0.793348 0.428458
Si Si3 0.322006 0.664379 0.180595
Si Si4 0.263211 0.803402 0.670382
Si Si5 0.068662 0.281281 0.699991
Si Si6 0.948493 0.472573 0.325634
Si Si7 0.731757 0.053695 0.630730
Si Si8 0.276559 0.995414 0.052996
O O1 0.615006 0.773925 0.494288
O O2 0.596514 0.726374 0.342984
O O3 0.490146 0.881772 0.391347
O O4 0.645240 0.926923 0.396325
O O5 0.757117 0.722859 0.381153
O O6 0.899733 0.802501 0.362511
O O7 0.801639 0.908670 0.455366
O O8 0.309099 0.687177 0.272683
O O9 0.305720 0.534119 0.164570
O O10 0.351041 0.817919 0.733265
O O11 0.262435 0.679427 0.636645
O O12 0.256916 0.896136 0.601451
O O13 0.035874 0.396465 0.654627
O O14 0.000000 0.234908 0.750000
O O15 0.846776 0.458597 0.319066
O O16 0.000000 0.452708 0.250000
O O17 0.702295 0.023399 0.535826
#
# Coordination Sequence:
#
# PCOD9266039 Si02
#       8
#     8   8   8   8   8   8   8   8
#     4  11  20  36  64  89 122 159 193 270 329 359
#     4  10  19  37  59  88 121 162 203 257 316 384
#     4  10  20  38  58  92 121 160 215 246 312 384
#     4  11  24  35  63  85 122 169 200 265 311 359
#     4  10  21  37  57  91 119 148 206 262 318 373
#     4  11  22  36  60  95 126 150 204 270 314 371
#     4  12  22  40  60  90 126 161 215 258 304 390
#     4  11  21  38  60  91 124 160 215 254 309 377
#
# _framework density 20.403912999999999
#
# number of rings (size 3 to 8) (size 9 to 14) (size 15 to 20)
#    0.000    1.250    5.000    3.375    5.250    3.000 
#    0.000    0.000    2.750    1.500    0.000    0.000 
#    0.000    0.000    0.000    0.000    0.000    0.000 
#
# Total GULP energy -178658.798590 kJ/mol
# GULP energy per Si atom -5583.087456 kJ/mol
# Density = 2.035747 g / cm^3
# Si number density = 20.403913 Si / 1000 Ang^3
#
#
#
# Elastic Constant Matrix: (Units=GPa)
#
#
# Indices 1 2 3 4 5 6 
#
# 1 56.3888 20.5244 14.2022 0.0000 -15.8874 0.0000
# 2 20.5244 133.9911 30.6870 0.0000 -3.6226 0.0000
# 3 14.2022 30.6870 58.6621 0.0000 -19.1968 0.0000
# 4 0.0000 0.0000 0.0000 31.1649 0.0000 -5.9142
# 5 -15.8874 -3.6226 -19.1968 0.0000 25.9977 0.0000
# 6 0.0000 0.0000 0.0000 -5.9142 0.0000 19.6658
#
#
#
# Elastic Compliance Matrix: (Units=1/GPa)
#
#
# Indices 1 2 3 4 5 6 
#
# 1 0.022666 -0.003278 0.000805 0.000000 0.013989 0.000000
# 2 -0.003278 0.009106 -0.005552 0.000000 -0.004834 0.000000
# 3 0.000805 -0.005552 0.025929 0.000000 0.018865 0.000000
# 4 0.000000 0.000000 0.000000 0.034029 0.000000 0.010234
# 5 0.013989 -0.004834 0.018865 0.000000 0.060270 0.000000
# 6 0.000000 0.000000 0.000000 0.010234 0.000000 0.053927
#
#
# Mechanical properties :
#
#
# Convention : Reuss Voigt Hill
#
# Bulk Modulus (GPa) = 24.00848 42.20770 33.10809
# Shear Modulus (GPa) = 21.19891 27.60759 24.40325
#
# Velocity S-wave (km/s) = 3.22679 3.68238 3.46209
# Velocity P-wave (km/s) = 5.06706 6.22984 5.67829
#
# Compressibility (1/GPa) = 0.04165196
#
# Stress axis : x y z
#
# Youngs Moduli (GPa) = 44.11950 109.81650 38.56626
#
# Poissons Ratio (x) = 0.35999 -0.03105
# Poissons Ratio (y) = 0.14463 0.21411
# Poissons Ratio (z) = -0.03552 0.60967
#
# Static dielectric constant tensor:
#      x y z
#    x 1.763690 0.000000 -0.005230 
#    y 0.000000 1.717280 0.000000 
#    z -0.005230 0.000000 1.757630 
# 
# From -- ./inp_files/210357.got.cif
#   From: 2010.05.17/outbox.cif.g08.bks.cpg/sg15_106_cif.got.tgz:210357.got - 2010.06.03 18:47:42.
