data_PCOD9266987
_publ_section_title
;
Structure prediction by ZEFSAII (Michael W. Deem and Ramdas Pophale) SiO2 
 PCOD9266987
Probable space group: C 2/C
;
_chemical_formula_sum "Si O2"
_cell_formula_units_Z 48
_cell_length_a 14.681625
_cell_length_b 14.170866
_cell_length_c 11.386336
_cell_angle_alpha 90.000000
_cell_angle_beta 95.355169
_cell_angle_gamma 90.000000
_cell_volume 2358.602733
_symmetry_space_group_name_H-M "C 2/C"
_symmetry_group_IT_number 15
_symmetry_cell_setting 'monoclinic'
loop_
_space_group_symop_operation_xyz
x,y,z
-x,y,1/2-z
-x,-y,-z
x,-y,1/2+z
1/2+x,1/2+y,z
1/2-x,1/2+y,1/2-z
1/2-x,1/2-y,-z
1/2+x,1/2-y,1/2+z
loop_
_atom_site_type_symbol
_atom_site_label
_atom_site_fract_x
_atom_site_fract_y
_atom_site_fract_z
Si Si1 0.298204 0.979043 0.476983
Si Si2 0.225488 0.349589 0.254293
Si Si3 0.314097 0.341481 0.488510
Si Si4 0.006086 0.221641 0.110236
Si Si5 0.791507 0.818497 0.905479
Si Si6 0.449830 0.925076 0.128857
O O1 0.285427 0.916236 0.359668
O O2 0.258594 0.917122 0.580664
O O3 0.235704 0.071140 0.455255
O O4 0.401495 0.010023 0.524668
O O5 0.311272 0.364768 0.349023
O O6 0.224945 0.240753 0.214553
O O7 0.138539 0.373416 0.324197
O O8 0.250000 0.250000 0.500000
O O9 0.415342 0.320666 0.543247
O O10 0.007949 0.335564 0.089573
O O11 0.000000 0.208660 0.250000
O O12 0.098978 0.176626 0.071993
O O13 0.750000 0.750000 0.000000
O O14 0.500000 0.969388 0.250000
#
# Coordination Sequence:
#
# PCOD9266987 Si02
#       6
#     8   8   8   8   8   8
#     4  10  23  38  59  96 134 161 206 273 326 369
#     4  10  20  39  62  87 130 169 203 260 327 374
#     4  11  21  38  64  95 122 169 219 260 312 394
#     4  11  20  39  68  90 121 170 221 256 314 386
#     4  10  21  41  58  84 132 171 200 268 328 364
#     4  10  19  38  63  97 120 165 223 260 310 388
#
# _framework density 20.351033000000001
#
# number of rings (size 3 to 8) (size 9 to 14) (size 15 to 20)
#    0.000    1.667    6.667    0.000    0.000    6.667 
#    0.000    3.333    0.000    0.000    0.000    0.000 
#    0.000    0.000    0.000    0.000    0.000    0.000 
#
# Total GULP energy -133899.235687 kJ/mol
# GULP energy per Si atom -5579.134820 kJ/mol
# Density = 2.030471 g / cm^3
# Si number density = 20.351033 Si / 1000 Ang^3
#
#
#
# Elastic Constant Matrix: (Units=GPa)
#
#
# Indices 1 2 3 4 5 6 
#
# 1 110.9448 14.8708 27.6105 0.0000 27.1415 0.0000
# 2 14.8708 85.1741 14.3947 0.0000 6.4627 0.0000
# 3 27.6105 14.3947 96.7390 0.0000 36.8212 0.0000
# 4 0.0000 0.0000 0.0000 31.8733 0.0000 1.9510
# 5 27.1415 6.4627 36.8212 0.0000 43.9265 0.0000
# 6 0.0000 0.0000 0.0000 1.9510 0.0000 34.8326
#
#
#
# Elastic Compliance Matrix: (Units=1/GPa)
#
#
# Indices 1 2 3 4 5 6 
#
# 1 0.010804 -0.001330 -0.000616 0.000000 -0.005964 0.000000
# 2 -0.001330 0.012212 -0.001566 0.000000 0.000338 0.000000
# 3 -0.000616 -0.001566 0.015439 0.000000 -0.012331 0.000000
# 4 0.000000 0.000000 0.000000 0.031482 0.000000 -0.001763
# 5 -0.005964 0.000338 -0.012331 0.000000 0.036737 0.000000
# 6 0.000000 0.000000 0.000000 -0.001763 0.000000 0.028808
#
#
# Mechanical properties :
#
#
# Convention : Reuss Voigt Hill
#
# Bulk Modulus (GPa) = 31.81475 45.17889 38.49682
# Shear Modulus (GPa) = 32.68345 37.85859 35.27102
#
# Velocity S-wave (km/s) = 4.01182 4.31777 4.16761
# Velocity P-wave (km/s) = 6.09316 6.86335 6.48969
#
# Compressibility (1/GPa) = 0.03143196
#
# Stress axis : x y z
#
# Youngs Moduli (GPa) = 92.55880 81.88752 64.76936
#
# Poissons Ratio (x) = 0.10889 0.03988
# Poissons Ratio (y) = 0.12308 0.10144
# Poissons Ratio (z) = 0.05699 0.12825
#
# Static dielectric constant tensor:
#      x y z
#    x 1.731610 0.000000 0.001850 
#    y 0.000000 1.762070 0.000000 
#    z 0.001850 0.000000 1.808880 
# 
# From -- ./inp_files/96480.got.cif
#   From: 2010.05.17/outbox.cif.g08.bks.cpg/sg15_49_cif.got.tgz:96480.got - 2010.06.03 18:47:42.
