data_PCOD9266065
_publ_section_title
;
Structure prediction by ZEFSAII (Michael W. Deem and Ramdas Pophale) SiO2 
 PCOD9266065
Probable space group: C 2/C
;
_chemical_formula_sum "Si O2"
_cell_formula_units_Z 60
_cell_length_a 18.078891
_cell_length_b 19.554557
_cell_length_c 8.852768
_cell_angle_alpha 90.000000
_cell_angle_beta 60.979979
_cell_angle_gamma 90.000000
_cell_volume 2736.742617
_symmetry_space_group_name_H-M "C 2/C"
_symmetry_group_IT_number 15
_symmetry_cell_setting 'monoclinic'
loop_
_space_group_symop_operation_xyz
x,y,z
-x,y,1/2-z
-x,-y,-z
x,-y,1/2+z
1/2+x,1/2+y,z
1/2-x,1/2+y,1/2-z
1/2-x,1/2-y,-z
1/2+x,1/2-y,1/2+z
loop_
_atom_site_type_symbol
_atom_site_label
_atom_site_fract_x
_atom_site_fract_y
_atom_site_fract_z
Si Si1 0.415296 0.792713 0.673232
Si Si2 0.559086 0.163586 0.837598
Si Si3 0.000000 0.168657 0.750000
Si Si4 0.651750 0.733211 0.067679
Si Si5 0.127908 0.076310 0.086580
Si Si6 0.109110 0.936722 0.948256
Si Si7 0.671967 0.945101 0.078806
Si Si8 0.311573 0.916179 0.786822
O O1 0.503625 0.830751 0.542858
O O2 0.435751 0.721806 0.733949
O O3 0.374827 0.775749 0.551425
O O4 0.349437 0.845327 0.810224
O O5 0.500000 0.150991 0.750000
O O6 0.601833 0.237134 0.761635
O O7 0.627827 0.104893 0.743672
O O8 0.051523 0.118119 0.590091
O O9 0.623411 0.656523 0.057087
O O10 0.750000 0.750000 0.000000
O O11 0.091397 0.067201 0.289081
O O12 0.228297 0.064498 0.000177
O O13 0.096294 0.015180 0.012778
O O14 0.209008 0.918542 0.879175
O O15 0.655044 0.022793 0.141554
O O16 0.655435 0.928687 0.918683
#
# Coordination Sequence:
#
# PCOD9266065 Si02
#       8
#     8   8   4   8   8   8   8   8
#     4  11  25  41  63  94 138 173 224 271 339 391
#     4  10  19  37  59  94 129 165 210 275 316 391
#     4  12  28  48  60  94 142 176 214 284 332 402
#     4  11  19  38  70  95 123 169 230 275 321 381
#     4  10  21  40  67  97 124 173 221 276 321 393
#     4  10  24  44  67  95 134 168 226 272 334 398
#     4  10  19  38  63  94 133 164 216 271 322 394
#     4  10  21  42  66  96 126 176 223 269 324 401
#
# _framework density 21.923874000000001
#
# number of rings (size 3 to 8) (size 9 to 14) (size 15 to 20)
#    0.000    1.600    4.000    1.600    1.867    2.667 
#    4.800    0.000    0.000    0.000    0.000    0.000 
#    0.000    0.000    0.000    0.000    0.000    0.000 
#
# Total GULP energy -167539.367013 kJ/mol
# GULP energy per Si atom -5584.645567 kJ/mol
# Density = 2.187397 g / cm^3
# Si number density = 21.923874 Si / 1000 Ang^3
#
#
#
# Elastic Constant Matrix: (Units=GPa)
#
#
# Indices 1 2 3 4 5 6 
#
# 1 35.0487 17.5643 3.5381 0.0000 -4.6327 0.0000
# 2 17.5643 168.9118 41.2712 0.0000 -10.9363 0.0000
# 3 3.5381 41.2712 57.2762 0.0000 -17.5723 0.0000
# 4 0.0000 0.0000 0.0000 31.8112 0.0000 -0.0181
# 5 -4.6327 -10.9363 -17.5723 0.0000 23.4549 0.0000
# 6 0.0000 0.0000 0.0000 -0.0181 0.0000 36.1012
#
#
#
# Elastic Compliance Matrix: (Units=1/GPa)
#
#
# Indices 1 2 3 4 5 6 
#
# 1 0.030828 -0.003405 0.002506 0.000000 0.006379 0.000000
# 2 -0.003405 0.007570 -0.005671 0.000000 -0.001392 0.000000
# 3 0.002506 -0.005671 0.026919 0.000000 0.018018 0.000000
# 4 0.000000 0.000000 0.000000 0.031435 0.000000 0.000016
# 5 0.006379 -0.001392 0.018018 0.000000 0.056745 0.000000
# 6 0.000000 0.000000 0.000000 0.000016 0.000000 0.027700
#
#
# Mechanical properties :
#
#
# Convention : Reuss Voigt Hill
#
# Bulk Modulus (GPa) = 19.16546 42.88709 31.02628
# Shear Modulus (GPa) = 23.61497 31.53100 27.57299
#
# Velocity S-wave (km/s) = 3.28553 3.79648 3.55021
# Velocity P-wave (km/s) = 4.81184 6.23073 5.56668
#
# Compressibility (1/GPa) = 0.05217720
#
# Stress axis : x y z
#
# Youngs Moduli (GPa) = 32.43774 132.10206 37.14854
#
# Poissons Ratio (x) = 0.44981 -0.09311
# Poissons Ratio (y) = 0.11045 0.21068
# Poissons Ratio (z) = -0.08130 0.74919
#
# Static dielectric constant tensor:
#      x y z
#    x 1.850010 0.000000 -0.066310 
#    y 0.000000 1.906090 0.000000 
#    z -0.066310 0.000000 1.887570 
# 
# From -- ./inp_files/57016.got.cif
#   From: 2010.05.17/outbox.cif.g08.bks.cpg/sg15_29_cif.got.tgz:57016.got - 2010.06.03 18:47:42.
