data_PCOD9266840
_publ_section_title
;
Structure prediction by ZEFSAII (Michael W. Deem and Ramdas Pophale) SiO2 
 PCOD9266840
Probable space group: C 2/C
;
_chemical_formula_sum "Si O2"
_cell_formula_units_Z 44
_cell_length_a 18.921269
_cell_length_b 7.832893
_cell_length_c 14.335564
_cell_angle_alpha 90.000000
_cell_angle_beta 113.451392
_cell_angle_gamma 90.000000
_cell_volume 1949.149010
_symmetry_space_group_name_H-M "C 2/C"
_symmetry_group_IT_number 15
_symmetry_cell_setting 'monoclinic'
loop_
_space_group_symop_operation_xyz
x,y,z
-x,y,1/2-z
-x,-y,-z
x,-y,1/2+z
1/2+x,1/2+y,z
1/2-x,1/2+y,1/2-z
1/2-x,1/2-y,-z
1/2+x,1/2-y,1/2+z
loop_
_atom_site_type_symbol
_atom_site_label
_atom_site_fract_x
_atom_site_fract_y
_atom_site_fract_z
Si Si1 0.866976 0.400447 0.831046
Si Si2 0.612983 0.392894 0.519584
Si Si3 0.378399 0.623725 0.692833
Si Si4 0.771751 0.708147 0.791161
Si Si5 0.000000 0.174937 0.250000
Si Si6 0.460826 0.239564 0.530664
O O1 0.905432 0.283654 0.771073
O O2 0.836332 0.584243 0.784161
O O3 0.787584 0.297095 0.809597
O O4 0.919850 0.406028 0.949319
O O5 0.619504 0.339824 0.415433
O O6 0.686152 0.344797 0.620520
O O7 0.540008 0.298352 0.525553
O O8 0.593967 0.593634 0.509062
O O9 0.289464 0.605790 0.676224
O O10 0.430792 0.457743 0.740207
O O11 0.975423 0.283461 0.147670
#
# Coordination Sequence:
#
# PCOD9266840 Si02
#       6
#     8   8   8   8   4   8
#     4  10  21  37  57  91 118 160 195 243 298 344
#     4  10  19  38  62  84 117 157 193 245 287 360
#     4   9  20  34  61  87 115 157 197 234 295 362
#     4  10  22  36  60  87 126 152 197 244 292 352
#     4  10  20  38  60  90 114 154 206 244 290 362
#     4  10  21  36  65  86 116 158 197 242 295 352
#
# _framework density 22.573954000000001
#
# number of rings (size 3 to 8) (size 9 to 14) (size 15 to 20)
#    1.091    1.091    0.000    4.909    2.545    0.727 
#    0.000    5.455    0.000    1.091    0.000    0.000 
#    0.000    0.000    0.000    0.000    0.000    0.000 
#
# Total GULP energy -122802.874593 kJ/mol
# GULP energy per Si atom -5581.948845 kJ/mol
# Density = 2.252258 g / cm^3
# Si number density = 22.573954 Si / 1000 Ang^3
#
#
#
# Elastic Constant Matrix: (Units=GPa)
#
#
# Indices 1 2 3 4 5 6 
#
# 1 65.5292 2.6494 32.8881 0.0000 5.0454 0.0000
# 2 2.6494 29.5159 18.7927 0.0000 -2.7553 0.0000
# 3 32.8881 18.7927 139.1917 0.0000 14.1542 0.0000
# 4 0.0000 0.0000 0.0000 29.4524 0.0000 10.0967
# 5 5.0454 -2.7553 14.1542 0.0000 37.9512 0.0000
# 6 0.0000 0.0000 0.0000 10.0967 0.0000 -0.6509
#
#
#
# Elastic Compliance Matrix: (Units=1/GPa)
#
#
# Indices 1 2 3 4 5 6 
#
# 1 0.017366 0.001036 -0.004174 0.000000 -0.000677 0.000000
# 2 0.001036 0.037966 -0.005859 0.000000 0.004804 0.000000
# 3 -0.004174 -0.005859 0.009301 0.000000 -0.003339 0.000000
# 4 0.000000 0.000000 0.000000 0.005374 0.000000 0.083366
# 5 -0.000677 0.004804 -0.003339 0.000000 0.028034 0.000000
# 6 0.000000 0.000000 0.000000 0.083366 0.000000 -0.243181
#
#
# Mechanical properties :
#
#
# Convention : Reuss Voigt Hill
#
# Bulk Modulus (GPa) = 21.44183 38.09968 29.77075
# Shear Modulus (GPa) = -44.80309 25.34432 -9.72938
#
# Velocity S-wave (km/s) = -4.45986 3.35434 -2.07831
# Velocity P-wave (km/s) = 4.12327 5.64947 2.73086
#
# Compressibility (1/GPa) = 0.04663782
#
# Stress axis : x y z
#
# Youngs Moduli (GPa) = 57.58528 26.33928 107.51246
#
# Poissons Ratio (x) = -0.02728 0.44877
# Poissons Ratio (y) = -0.05965 0.62993
# Poissons Ratio (z) = 0.24037 0.15433
#
# Static dielectric constant tensor:
#      x y z
#    x 1.832480 0.000000 0.009090 
#    y 0.000000 1.896810 0.000000 
#    z 0.009090 0.000000 1.810270 
# 
# From -- ./inp_files/166461.got.cif
#   From: 2010.05.17/outbox.cif.g08.bks.cpg/sg15_84_cif.got.tgz:166461.got - 2010.06.03 18:47:42.
