data_PCOD9266696
_publ_section_title
;
Structure prediction by ZEFSAII (Michael W. Deem and Ramdas Pophale) SiO2 
 PCOD9266696
Probable space group: C 2/C
;
_chemical_formula_sum "Si O2"
_cell_formula_units_Z 60
_cell_length_a 6.169238
_cell_length_b 15.229259
_cell_length_c 30.269237
_cell_angle_alpha 90.000000
_cell_angle_beta 80.379046
_cell_angle_gamma 90.000000
_cell_volume 2803.884031
_symmetry_space_group_name_H-M "C 2/C"
_symmetry_group_IT_number 15
_symmetry_cell_setting 'monoclinic'
loop_
_space_group_symop_operation_xyz
x,y,z
-x,y,1/2-z
-x,-y,-z
x,-y,1/2+z
1/2+x,1/2+y,z
1/2-x,1/2+y,1/2-z
1/2-x,1/2-y,-z
1/2+x,1/2-y,1/2+z
loop_
_atom_site_type_symbol
_atom_site_label
_atom_site_fract_x
_atom_site_fract_y
_atom_site_fract_z
Si Si1 0.597910 0.496822 0.085818
Si Si2 0.440130 0.802704 0.909199
Si Si3 0.342350 0.055752 0.791682
Si Si4 0.268960 0.635270 0.621428
Si Si5 0.084351 0.668658 0.928157
Si Si6 0.164031 0.574290 0.334854
Si Si7 0.000000 0.934886 0.750000
Si Si8 0.123413 0.409017 0.984896
O O1 0.355735 0.457513 0.098960
O O2 0.740284 0.409116 0.071361
O O3 0.691610 0.536377 0.128674
O O4 0.643185 0.563308 0.044159
O O5 0.596416 0.717571 0.900854
O O6 0.199286 0.762341 0.923750
O O7 0.498771 0.856735 0.863287
O O8 0.499316 0.861039 0.949229
O O9 0.500000 0.098398 0.750000
O O10 0.507905 0.997324 0.816330
O O11 0.164536 0.994416 0.773742
O O12 0.216801 0.123744 0.826928
O O13 0.022459 0.651809 0.615300
O O14 0.898640 0.652419 0.971617
O O15 0.335545 0.609363 0.291675
O O16 0.000000 0.500000 0.000000
#
# Coordination Sequence:
#
# PCOD9266696 Si02
#       8
#     8   8   8   8   8   8   4   8
#     4   9  18  35  59  84 117 152 202 243 293 360
#     4  10  23  37  58  87 123 157 196 249 303 360
#     4  10  21  36  64  88 112 154 200 239 299 368
#     4  11  21  37  59  90 117 155 194 252 307 360
#     4  10  20  36  58  83 124 159 194 244 303 361
#     4  10  19  38  59  86 114 155 199 240 303 361
#     4  10  20  36  66  88 116 144 204 260 288 362
#     4   9  19  38  60  85 117 164 204 247 297 356
#
# _framework density 21.398887999999999
#
# number of rings (size 3 to 8) (size 9 to 14) (size 15 to 20)
#    0.000    2.133    2.667    0.400    0.000    2.133 
#    1.200    0.000    4.400    0.000    0.000    0.000 
#    0.000    0.000    0.000    0.000    0.000    0.000 
#
# Total GULP energy -167275.816771 kJ/mol
# GULP energy per Si atom -5575.860559 kJ/mol
# Density = 2.135018 g / cm^3
# Si number density = 21.398888 Si / 1000 Ang^3
#
#
#
# Elastic Constant Matrix: (Units=GPa)
#
#
# Indices 1 2 3 4 5 6 
#
# 1 30.7704 27.6323 10.7060 0.0000 -6.7171 0.0000
# 2 27.6323 76.6202 48.4666 0.0000 -15.1513 0.0000
# 3 10.7060 48.4666 116.5519 0.0000 -22.9411 0.0000
# 4 0.0000 0.0000 0.0000 27.9472 0.0000 3.3295
# 5 -6.7171 -15.1513 -22.9411 0.0000 24.9212 0.0000
# 6 0.0000 0.0000 0.0000 3.3295 0.0000 10.9783
#
#
#
# Elastic Compliance Matrix: (Units=1/GPa)
#
#
# Indices 1 2 3 4 5 6 
#
# 1 0.049992 -0.019945 0.004845 0.000000 0.005809 0.000000
# 2 -0.019945 0.026165 -0.008519 0.000000 0.002689 0.000000
# 3 0.004845 -0.008519 0.013330 0.000000 0.008398 0.000000
# 4 0.000000 0.000000 0.000000 0.037123 0.000000 -0.011259
# 5 0.005809 0.002689 0.008398 0.000000 0.051058 0.000000
# 6 0.000000 0.000000 0.000000 -0.011259 0.000000 0.094503
#
#
# Mechanical properties :
#
#
# Convention : Reuss Voigt Hill
#
# Bulk Modulus (GPa) = 23.66892 44.17246 33.92069
# Shear Modulus (GPa) = 14.99282 21.91185 18.45233
#
# Velocity S-wave (km/s) = 2.64982 3.20343 2.93969
# Velocity P-wave (km/s) = 4.52183 5.86258 5.23530
#
# Compressibility (1/GPa) = 0.04224950
#
# Stress axis : x y z
#
# Youngs Moduli (GPa) = 20.00307 38.21901 75.01742
#
# Poissons Ratio (x) = 0.76230 -0.36348
# Poissons Ratio (y) = 0.39897 0.63906
# Poissons Ratio (z) = -0.09692 0.32558
#
# Static dielectric constant tensor:
#      x y z
#    x 1.808740 0.000000 -0.074760 
#    y 0.000000 1.771820 0.000000 
#    z -0.074760 0.000000 1.834080 
# 
# From -- ./inp_files/305674.got.cif
#   From: 2010.05.17/outbox.cif.g08.bks.cpg/sg15_153_cif.got.tgz:305674.got - 2010.06.03 18:47:42.
