data_PCOD9266036
_publ_section_title
;
Structure prediction by ZEFSAII (Michael W. Deem and Ramdas Pophale) SiO2 
 PCOD9266036
Probable space group: C 2/C
;
_chemical_formula_sum "Si O2"
_cell_formula_units_Z 40
_cell_length_a 11.070428
_cell_length_b 9.534875
_cell_length_c 18.742271
_cell_angle_alpha 90.000000
_cell_angle_beta 73.507440
_cell_angle_gamma 90.000000
_cell_volume 1896.947423
_symmetry_space_group_name_H-M "C 2/C"
_symmetry_group_IT_number 15
_symmetry_cell_setting 'monoclinic'
loop_
_space_group_symop_operation_xyz
x,y,z
-x,y,1/2-z
-x,-y,-z
x,-y,1/2+z
1/2+x,1/2+y,z
1/2-x,1/2+y,1/2-z
1/2-x,1/2-y,-z
1/2+x,1/2-y,1/2+z
loop_
_atom_site_type_symbol
_atom_site_label
_atom_site_fract_x
_atom_site_fract_y
_atom_site_fract_z
Si Si1 0.560149 0.488967 0.670577
Si Si2 0.633814 0.582323 0.413608
Si Si3 0.092070 0.311759 0.671461
Si Si4 0.611746 0.827858 0.509410
Si Si5 0.737679 0.406995 0.526517
O O1 0.500000 0.421025 0.750000
O O2 0.451269 0.494105 0.629669
O O3 0.607320 0.644994 0.681097
O O4 0.672229 0.409033 0.613980
O O5 0.770603 0.616484 0.356038
O O6 0.568644 0.727929 0.452246
O O7 0.655709 0.485793 0.479164
O O8 0.043267 0.322513 0.597358
O O9 0.000000 0.363635 0.750000
O O10 0.750000 0.750000 0.500000
O O11 0.642461 0.989169 0.487612
O O12 0.750000 0.250000 0.500000
#
# Coordination Sequence:
#
# PCOD9266036 Si02
#       5
#     8   8   8   8   8
#     4  11  21  37  60  88 114 155 201 240 292 356
#     4  10  19  38  63  82 112 157 201 234 286 359
#     4   9  17  34  62  86 111 150 201 239 287 348
#     4   8  15  33  58  82 110 148 200 231 274 365
#     4  10  19  37  59  88 120 151 191 246 300 348
#
# _framework density 21.086510000000001
#
# number of rings (size 3 to 8) (size 9 to 14) (size 15 to 20)
#    0.000    2.800    6.000    0.600    0.000    0.000 
#    7.200    5.000    0.000    0.000    0.000    0.000 
#    0.000    0.000    0.000    0.000    0.000    0.000 
#
# Total GULP energy -111462.535987 kJ/mol
# GULP energy per Si atom -5573.126799 kJ/mol
# Density = 2.103852 g / cm^3
# Si number density = 21.086510 Si / 1000 Ang^3
#
#
#
# Elastic Constant Matrix: (Units=GPa)
#
#
# Indices 1 2 3 4 5 6 
#
# 1 41.9384 4.3407 11.9606 0.0000 -6.3377 0.0000
# 2 4.3407 125.3492 38.4836 0.0000 -19.1560 0.0000
# 3 11.9606 38.4836 195.2944 0.0000 -37.6144 0.0000
# 4 0.0000 0.0000 0.0000 23.3501 0.0000 -5.0064
# 5 -6.3377 -19.1560 -37.6144 0.0000 31.3948 0.0000
# 6 0.0000 0.0000 0.0000 -5.0064 0.0000 15.1629
#
#
#
# Elastic Compliance Matrix: (Units=1/GPa)
#
#
# Indices 1 2 3 4 5 6 
#
# 1 0.024672 -0.000005 -0.000717 0.000000 0.004119 0.000000
# 2 -0.000005 0.008924 -0.000923 0.000000 0.004339 0.000000
# 3 -0.000717 -0.000923 0.006773 0.000000 0.007407 0.000000
# 4 0.000000 0.000000 0.000000 0.046089 0.000000 0.015218
# 5 0.004119 0.004339 0.007407 0.000000 0.044206 0.000000
# 6 0.000000 0.000000 0.000000 0.015218 0.000000 0.070975
#
#
# Mechanical properties :
#
#
# Convention : Reuss Voigt Hill
#
# Bulk Modulus (GPa) = 26.96833 52.46130 39.71482
# Shear Modulus (GPa) = 23.01104 34.50136 28.75620
#
# Velocity S-wave (km/s) = 3.30702 4.04936 3.69687
# Velocity P-wave (km/s) = 5.23440 6.84078 6.09078
#
# Compressibility (1/GPa) = 0.03708053
#
# Stress axis : x y z
#
# Youngs Moduli (GPa) = 40.53197 112.05491 147.65017
#
# Poissons Ratio (x) = 0.00054 0.10583
# Poissons Ratio (y) = 0.00020 0.13622
# Poissons Ratio (z) = 0.02905 0.10338
#
# Static dielectric constant tensor:
#      x y z
#    x 1.890180 0.000000 -0.013730 
#    y 0.000000 1.779530 0.000000 
#    z -0.013730 0.000000 1.798290 
# 
# From -- ./inp_files/241901.got.cif
#   From: 2010.05.17/outbox.cif.g08.bks.cpg/sg15_121_cif.got.tgz:241901.got - 2010.06.03 18:47:42.
