data_PCOD9266358
_publ_section_title
;
Structure prediction by ZEFSAII (Michael W. Deem and Ramdas Pophale) SiO2 
 PCOD9266358
Probable space group: C 2/C
;
_chemical_formula_sum "Si O2"
_cell_formula_units_Z 44
_cell_length_a 16.558908
_cell_length_b 19.685028
_cell_length_c 7.219664
_cell_angle_alpha 90.000000
_cell_angle_beta 122.673738
_cell_angle_gamma 90.000000
_cell_volume 1980.943699
_symmetry_space_group_name_H-M "C 2/C"
_symmetry_group_IT_number 15
_symmetry_cell_setting 'monoclinic'
loop_
_space_group_symop_operation_xyz
x,y,z
-x,y,1/2-z
-x,-y,-z
x,-y,1/2+z
1/2+x,1/2+y,z
1/2-x,1/2+y,1/2-z
1/2-x,1/2-y,-z
1/2+x,1/2-y,1/2+z
loop_
_atom_site_type_symbol
_atom_site_label
_atom_site_fract_x
_atom_site_fract_y
_atom_site_fract_z
Si Si1 0.142442 0.594377 0.920800
Si Si2 0.500000 0.209729 0.750000
Si Si3 0.649289 0.576858 0.222515
Si Si4 0.898057 0.442034 0.704753
Si Si5 0.309147 0.577669 0.657971
Si Si6 0.474620 0.328166 0.438052
O O1 0.257264 0.597617 0.043928
O O2 0.118368 0.586381 0.110486
O O3 0.086163 0.660851 0.792822
O O4 0.105199 0.524201 0.786688
O O5 0.473881 0.258153 0.546743
O O6 0.643409 0.495537 0.239115
O O7 0.676988 0.587120 0.043588
O O8 0.554507 0.621448 0.126781
O O9 0.805667 0.423900 0.462815
O O10 0.000000 0.420703 0.750000
O O11 0.371966 0.635539 0.827938
O O12 0.500000 0.320571 0.250000
#
# Coordination Sequence:
#
# PCOD9266358 Si02
#       6
#     8   4   8   8   8   8
#     4  10  22  39  60  96 118 156 208 254 304 369
#     4  12  26  40  60  88 132 168 206 238 302 388
#     4   9  19  37  64  89 121 155 206 260 304 348
#     4  10  19  37  63  91 121 151 202 264 305 347
#     4   9  19  35  62  93 118 153 207 258 303 357
#     4  10  23  43  59  88 128 168 203 246 306 368
#
# _framework density 22.211635000000001
#
# number of rings (size 3 to 8) (size 9 to 14) (size 15 to 20)
#    0.000    2.182    0.909    1.091    2.545    1.455 
#    0.000   10.000    0.000    0.000    0.000    0.000 
#    0.000    0.000    0.000    0.000    0.000    0.000 
#
# Total GULP energy -123044.201323 kJ/mol
# GULP energy per Si atom -5592.918242 kJ/mol
# Density = 2.216108 g / cm^3
# Si number density = 22.211635 Si / 1000 Ang^3
#
#
#
# Elastic Constant Matrix: (Units=GPa)
#
#
# Indices 1 2 3 4 5 6 
#
# 1 96.4839 28.2154 30.4496 0.0000 7.9509 0.0000
# 2 28.2154 130.5763 64.8197 0.0000 26.7530 0.0000
# 3 30.4496 64.8197 80.5354 0.0000 16.7472 0.0000
# 4 0.0000 0.0000 0.0000 65.4527 0.0000 -7.4991
# 5 7.9509 26.7530 16.7472 0.0000 28.6716 0.0000
# 6 0.0000 0.0000 0.0000 -7.4991 0.0000 11.9884
#
#
#
# Elastic Compliance Matrix: (Units=1/GPa)
#
#
# Indices 1 2 3 4 5 6 
#
# 1 0.011799 -0.000472 -0.003975 0.000000 -0.000510 0.000000
# 2 -0.000472 0.014022 -0.009577 0.000000 -0.007359 0.000000
# 3 -0.003975 -0.009577 0.022243 0.000000 -0.002953 0.000000
# 4 0.000000 0.000000 0.000000 0.016458 0.000000 0.010295
# 5 -0.000510 -0.007359 -0.002953 0.000000 0.043611 0.000000
# 6 0.000000 0.000000 0.000000 0.010295 0.000000 0.089854
#
#
# Mechanical properties :
#
#
# Convention : Reuss Voigt Hill
#
# Bulk Modulus (GPa) = 49.96291 61.61832 55.79062
# Shear Modulus (GPa) = 21.48630 33.49660 27.49145
#
# Velocity S-wave (km/s) = 3.11359 3.88760 3.52192
# Velocity P-wave (km/s) = 5.95557 6.92480 6.45839
#
# Compressibility (1/GPa) = 0.02001485
#
# Stress axis : x y z
#
# Youngs Moduli (GPa) = 84.75311 71.31466 44.95894
#
# Poissons Ratio (x) = 0.03364 0.17873
# Poissons Ratio (y) = 0.03998 0.43059
# Poissons Ratio (z) = 0.33693 0.68301
#
# Static dielectric constant tensor:
#      x y z
#    x 1.876580 0.000000 -0.014190 
#    y 0.000000 1.772030 0.000000 
#    z -0.014190 0.000000 1.881830 
# 
# From -- ./inp_files/39343.got.cif
#   From: 2010.05.17/outbox.cif.g08.bks.cpg/sg15_20_cif.got.tgz:39343.got - 2010.06.03 18:47:42.
