data_PCOD9266649
_publ_section_title
;
Structure prediction by ZEFSAII (Michael W. Deem and Ramdas Pophale) SiO2 
 PCOD9266649
Probable space group: C 2/C
;
_chemical_formula_sum "Si O2"
_cell_formula_units_Z 48
_cell_length_a 12.592322
_cell_length_b 11.569461
_cell_length_c 25.958166
_cell_angle_alpha 90.000000
_cell_angle_beta 148.449426
_cell_angle_gamma 90.000000
_cell_volume 1978.804986
_symmetry_space_group_name_H-M "C 2/C"
_symmetry_group_IT_number 15
_symmetry_cell_setting 'monoclinic'
loop_
_space_group_symop_operation_xyz
x,y,z
-x,y,1/2-z
-x,-y,-z
x,-y,1/2+z
1/2+x,1/2+y,z
1/2-x,1/2+y,1/2-z
1/2-x,1/2-y,-z
1/2+x,1/2-y,1/2+z
loop_
_atom_site_type_symbol
_atom_site_label
_atom_site_fract_x
_atom_site_fract_y
_atom_site_fract_z
Si Si1 0.767019 0.760208 0.158793
Si Si2 0.103879 0.466048 0.962628
Si Si3 0.887442 0.113954 0.499015
Si Si4 0.305122 0.905231 0.143152
Si Si5 0.217076 0.966248 0.859107
Si Si6 0.453777 0.204669 0.611228
O O1 0.651594 0.701646 0.063623
O O2 0.768916 0.897573 0.150230
O O3 0.646218 0.736146 0.162377
O O4 0.000000 0.722505 0.250000
O O5 0.243105 0.378818 0.988664
O O6 0.021319 0.568670 0.892312
O O7 0.910659 0.410685 0.911007
O O8 0.240754 0.529789 0.062612
O O9 0.126292 0.119631 0.609764
O O10 0.814306 0.990071 0.445190
O O11 0.500000 0.961495 0.250000
O O12 0.398917 0.799328 0.148990
O O13 0.000000 0.925940 0.750000
O O14 0.250000 0.250000 0.500000
#
# Coordination Sequence:
#
# PCOD9266649 Si02
#       6
#     8   8   8   8   8   8
#     4  10  20  35  59  83 113 151 193 234 291 346
#     4   9  20  35  56  80 110 147 192 236 286 336
#     4  10  20  35  56  87 117 147 187 250 286 337
#     4  10  21  36  57  85 117 152 193 234 291 354
#     4   9  19  38  57  78 111 156 193 231 282 350
#     4  10  19  38  58  77 115 156 184 234 298 347
#
# _framework density 24.257062999999999
#
# number of rings (size 3 to 8) (size 9 to 14) (size 15 to 20)
#    0.000    2.333    1.667    0.500    0.000    6.000 
#    3.000    0.833    0.000    0.000    0.000    0.000 
#    0.000    0.000    0.000    0.000    0.000    0.000 
#
# Total GULP energy -133937.165680 kJ/mol
# GULP energy per Si atom -5580.715237 kJ/mol
# Density = 2.420185 g / cm^3
# Si number density = 24.257063 Si / 1000 Ang^3
#
#
#
# Elastic Constant Matrix: (Units=GPa)
#
#
# Indices 1 2 3 4 5 6 
#
# 1 168.9654 27.8043 57.8731 0.0000 42.8115 0.0000
# 2 27.8043 63.8453 7.4430 0.0000 12.8893 0.0000
# 3 57.8731 7.4430 131.4703 -0.0001 46.4762 0.0000
# 4 0.0000 0.0000 -0.0001 6.2277 0.0001 -2.5212
# 5 42.8115 12.8893 46.4762 0.0001 38.8347 0.0000
# 6 0.0000 0.0000 0.0000 -2.5212 0.0000 11.4670
#
#
#
# Elastic Compliance Matrix: (Units=1/GPa)
#
#
# Indices 1 2 3 4 5 6 
#
# 1 0.008495 -0.002068 -0.000961 0.000000 -0.007529 0.000000
# 2 -0.002068 0.017531 0.002026 0.000000 -0.005964 0.000000
# 3 -0.000961 0.002026 0.013481 0.000000 -0.015747 0.000000
# 4 0.000000 0.000000 0.000000 0.176262 -0.000001 0.038754
# 5 -0.007529 -0.005964 -0.015747 -0.000001 0.054875 0.000000
# 6 0.000000 0.000000 0.000000 0.038754 0.000000 0.095728
#
#
# Mechanical properties :
#
#
# Convention : Reuss Voigt Hill
#
# Bulk Modulus (GPa) = 26.66495 61.16909 43.91702
# Shear Modulus (GPa) = 13.12750 29.38325 21.25538
#
# Velocity S-wave (km/s) = 2.32886 3.48419 2.96337
# Velocity P-wave (km/s) = 4.27176 6.43878 5.46378
#
# Compressibility (1/GPa) = 0.03750242
#
# Stress axis : x y z
#
# Youngs Moduli (GPa) = 117.71003 57.04133 74.17614
#
# Poissons Ratio (x) = 0.11795 0.07129
# Poissons Ratio (y) = 0.24339 -0.15028
# Poissons Ratio (z) = 0.11312 -0.11556
#
# Static dielectric constant tensor:
#      x y z
#    x 2.055360 0.000000 0.022890 
#    y 0.000000 1.969360 0.000000 
#    z 0.022890 0.000000 1.935860 
# 
# From -- ./inp_files/293134.got.cif
#   From: 2010.05.17/outbox.cif.g08.bks.cpg/sg15_147_cif.got.tgz:293134.got - 2010.06.03 18:47:42.
