data_PCOD9266004
_publ_section_title
;
Structure prediction by ZEFSAII (Michael W. Deem and Ramdas Pophale) SiO2 
 PCOD9266004
Probable space group: C 2/C
;
_chemical_formula_sum "Si O2"
_cell_formula_units_Z 64
_cell_length_a 14.481439
_cell_length_b 26.627839
_cell_length_c 13.810392
_cell_angle_alpha 90.000000
_cell_angle_beta 37.838585
_cell_angle_gamma 90.000000
_cell_volume 3266.818859
_symmetry_space_group_name_H-M "C 2/C"
_symmetry_group_IT_number 15
_symmetry_cell_setting 'monoclinic'
loop_
_space_group_symop_operation_xyz
x,y,z
-x,y,1/2-z
-x,-y,-z
x,-y,1/2+z
1/2+x,1/2+y,z
1/2-x,1/2+y,1/2-z
1/2-x,1/2-y,-z
1/2+x,1/2-y,1/2+z
loop_
_atom_site_type_symbol
_atom_site_label
_atom_site_fract_x
_atom_site_fract_y
_atom_site_fract_z
Si Si1 0.538568 0.023829 0.072431
Si Si2 0.237231 0.728901 0.811594
Si Si3 0.247500 0.999030 0.440625
Si Si4 0.441248 0.699320 0.911530
Si Si5 0.830974 0.282714 0.352363
Si Si6 0.512735 0.414393 0.124449
Si Si7 0.843324 0.394595 0.324111
Si Si8 0.673235 0.885099 0.379002
O O1 0.392490 0.014154 0.257261
O O2 0.689342 0.003770 0.001537
O O3 0.574257 0.082737 0.033262
O O4 0.500000 0.000000 0.000000
O O5 0.415598 0.722452 0.651276
O O6 0.175560 0.737015 0.753326
O O7 0.185473 0.673580 0.890710
O O8 0.194360 0.768611 0.930371
O O9 0.113466 0.036484 0.520771
O O10 0.228562 0.939970 0.437337
O O11 0.500000 0.702312 0.750000
O O12 0.416363 0.640464 0.956295
O O13 0.750000 0.250000 0.500000
O O14 0.772350 0.340191 0.402230
O O15 0.000000 0.286742 0.250000
O O16 0.500000 0.415624 0.250000
O O17 0.340500 0.409428 0.232208
O O18 0.893799 0.391901 0.171295
O O19 0.000000 0.403683 0.250000
#
# Coordination Sequence:
#
# PCOD9266004 Si02
#       8
#     8   8   8   8   8   8   8   8
#     4  11  20  36  58  83 114 144 196 242 275 342
#     4  10  21  37  60  86 114 154 199 241 292 365
#     4  11  21  35  59  84 113 152 195 235 282 347
#     4  10  21  38  57  82 120 156 195 244 292 342
#     4  10  21  38  64  86 116 150 189 244 300 347
#     4  10  21  37  55  81 120 157 190 235 293 349
#     4  10  19  37  59  85 113 151 193 234 292 347
#     4  10  20  37  58  81 116 156 188 238 304 342
#
# _framework density 19.590924000000001
#
# number of rings (size 3 to 8) (size 9 to 14) (size 15 to 20)
#    0.000    1.750    3.750    1.125    0.000    1.500 
#    2.250    1.875    0.000    0.000    0.000    0.000 
#    0.000    0.000    0.000    0.000    0.000    0.000 
#
# Total GULP energy -178194.848724 kJ/mol
# GULP energy per Si atom -5568.589023 kJ/mol
# Density = 1.954633 g / cm^3
# Si number density = 19.590924 Si / 1000 Ang^3
#
#
#
# Elastic Constant Matrix: (Units=GPa)
#
#
# Indices 1 2 3 4 5 6 
#
# 1 60.1736 -3.4723 2.9387 -0.0002 8.3783 0.0002
# 2 -3.4723 122.8527 50.7867 0.0000 -1.2616 0.0000
# 3 2.9387 50.7867 45.0203 -0.0001 6.2253 0.0001
# 4 -0.0002 0.0000 -0.0001 32.4925 0.0001 3.7913
# 5 8.3783 -1.2616 6.2253 0.0001 20.9486 -0.0001
# 6 0.0002 0.0000 0.0001 3.7913 -0.0001 21.3676
#
#
#
# Elastic Compliance Matrix: (Units=1/GPa)
#
#
# Indices 1 2 3 4 5 6 
#
# 1 0.017661 0.000995 -0.001362 0.000000 -0.006599 0.000000
# 2 0.000995 0.016148 -0.019147 0.000000 0.006265 0.000000
# 3 -0.001362 -0.019147 0.045870 0.000000 -0.014239 0.000000
# 4 0.000000 0.000000 0.000000 0.031427 0.000000 -0.005576
# 5 -0.006599 0.006265 -0.014239 0.000000 0.054984 0.000000
# 6 0.000000 0.000000 0.000000 -0.005576 0.000000 0.047789
#
#
# Mechanical properties :
#
#
# Convention : Reuss Voigt Hill
#
# Bulk Modulus (GPa) = 24.60094 36.50587 30.55340
# Shear Modulus (GPa) = 18.76473 26.81465 22.78969
#
# Velocity S-wave (km/s) = 3.09824 3.70365 3.41439
# Velocity P-wave (km/s) = 5.03819 6.07979 5.58333
#
# Compressibility (1/GPa) = 0.04064886
#
# Stress axis : x y z
#
# Youngs Moduli (GPa) = 56.62104 61.92895 21.80096
#
# Poissons Ratio (x) = -0.06160 0.02970
# Poissons Ratio (y) = -0.05632 0.41742
# Poissons Ratio (z) = 0.07714 1.18575
#
# Static dielectric constant tensor:
#      x y z
#    x 1.719200 0.000000 0.023240 
#    y 0.000000 1.777040 0.000000 
#    z 0.023240 0.000000 1.667350 
# 
# From -- ./inp_files/101292.got.cif
#   From: 2010.05.17/outbox.cif.g08.bks.cpg/sg15_51_cif.got.tgz:101292.got - 2010.06.03 18:47:42.
