data_PCOD9266923
_publ_section_title
;
Structure prediction by ZEFSAII (Michael W. Deem and Ramdas Pophale) SiO2 
 PCOD9266923
Probable space group: C 2/C
;
_chemical_formula_sum "Si O2"
_cell_formula_units_Z 52
_cell_length_a 9.974880
_cell_length_b 11.212667
_cell_length_c 22.969099
_cell_angle_alpha 90.000000
_cell_angle_beta 83.844508
_cell_angle_gamma 90.000000
_cell_volume 2554.167760
_symmetry_space_group_name_H-M "C 2/C"
_symmetry_group_IT_number 15
_symmetry_cell_setting 'monoclinic'
loop_
_space_group_symop_operation_xyz
x,y,z
-x,y,1/2-z
-x,-y,-z
x,-y,1/2+z
1/2+x,1/2+y,z
1/2-x,1/2+y,1/2-z
1/2-x,1/2-y,-z
1/2+x,1/2-y,1/2+z
loop_
_atom_site_type_symbol
_atom_site_label
_atom_site_fract_x
_atom_site_fract_y
_atom_site_fract_z
Si Si1 0.528252 0.432752 0.058909
Si Si2 0.970108 0.356457 0.362500
Si Si3 0.464290 0.606742 0.168314
Si Si4 0.291657 0.248822 0.065675
Si Si5 0.779336 0.944635 0.776524
Si Si6 0.000000 0.524067 0.250000
Si Si7 0.295528 0.971823 0.100291
O O1 0.491965 0.527416 0.111072
O O2 0.431908 0.318604 0.067156
O O3 0.686498 0.409863 0.063792
O O4 0.500000 0.500000 0.000000
O O5 0.826575 0.315359 0.393381
O O6 0.957775 0.438299 0.305633
O O7 0.067246 0.241795 0.346686
O O8 0.052365 0.427071 0.408091
O O9 0.603701 0.630084 0.197460
O O10 0.357622 0.534796 0.212502
O O11 0.296908 0.112487 0.086425
O O12 0.250000 0.250000 0.000000
O O13 0.630175 0.902568 0.765735
O O14 0.751224 0.040385 0.829130
#
# Coordination Sequence:
#
# PCOD9266923 Si02
#       7
#     8   8   8   8   8   4   8
#     4  11  21  42  65  91 126 166 210 258 313 377
#     4  11  22  40  66  90 129 167 204 266 311 371
#     4  10  19  38  63  86 124 171 202 252 323 364
#     4  12  23  43  67  88 129 169 205 265 315 367
#     4   9  18  36  61  86 125 159 205 257 304 378
#     4  10  20  34  60  96 122 160 210 258 310 374
#     4  10  23  43  62  96 125 161 220 251 316 379
#
# _framework density 20.358882000000001
#
# number of rings (size 3 to 8) (size 9 to 14) (size 15 to 20)
#    0.000    1.538    4.615    1.846    0.000    0.615 
#    8.308    1.538    0.000    0.000    0.000    0.000 
#    0.000    0.000    0.000    0.000    0.000    0.000 
#
# Total GULP energy -144752.066812 kJ/mol
# GULP energy per Si atom -5567.387185 kJ/mol
# Density = 2.031254 g / cm^3
# Si number density = 20.358882 Si / 1000 Ang^3
#
#
#
# Elastic Constant Matrix: (Units=GPa)
#
#
# Indices 1 2 3 4 5 6 
#
# 1 148.7041 43.7645 24.4778 0.0000 22.2721 0.0000
# 2 43.7645 69.6401 7.2013 0.0000 2.5508 0.0000
# 3 24.4778 7.2013 86.4653 0.0000 11.0419 0.0000
# 4 0.0000 0.0000 0.0000 9.5839 0.0000 5.6404
# 5 22.2721 2.5508 11.0419 0.0000 26.1642 0.0000
# 6 0.0000 0.0000 0.0000 5.6404 0.0000 33.3428
#
#
#
# Elastic Compliance Matrix: (Units=1/GPa)
#
#
# Indices 1 2 3 4 5 6 
#
# 1 0.009689 -0.005687 -0.001360 0.000000 -0.007119 0.000000
# 2 -0.005687 0.017845 -0.000288 0.000000 0.003223 0.000000
# 3 -0.001360 -0.000288 0.012496 0.000000 -0.004088 0.000000
# 4 0.000000 0.000000 0.000000 0.115879 0.000000 -0.019603
# 5 -0.007119 0.003223 -0.004088 0.000000 0.045691 0.000000
# 6 0.000000 0.000000 0.000000 -0.019603 0.000000 0.033308
#
#
# Mechanical properties :
#
#
# Convention : Reuss Voigt Hill
#
# Bulk Modulus (GPa) = 39.43198 50.63296 45.03247
# Shear Modulus (GPa) = 19.37748 29.10926 24.24337
#
# Velocity S-wave (km/s) = 3.08846 3.78538 3.45454
# Velocity P-wave (km/s) = 5.66821 6.63549 6.17083
#
# Compressibility (1/GPa) = 0.02536013
#
# Stress axis : x y z
#
# Youngs Moduli (GPa) = 103.21310 56.03691 80.02330
#
# Poissons Ratio (x) = 0.31870 0.10883
# Poissons Ratio (y) = 0.58701 0.02303
# Poissons Ratio (z) = 0.14037 0.01613
#
# Static dielectric constant tensor:
#      x y z
#    x 1.779980 0.000000 -0.007260 
#    y 0.000000 1.715690 0.000000 
#    z -0.007260 0.000000 1.783070 
# 
# From -- ./inp_files/287589.got.cif
#   From: 2010.05.17/outbox.cif.g08.bks.cpg/sg15_144_cif.got.tgz:287589.got - 2010.06.03 18:47:42.
