data_PCOD9266841
_publ_section_title
;
Structure prediction by ZEFSAII (Michael W. Deem and Ramdas Pophale) SiO2 
 PCOD9266841
Probable space group: C 2/C
;
_chemical_formula_sum "Si O2"
_cell_formula_units_Z 40
_cell_length_a 11.301430
_cell_length_b 14.437356
_cell_length_c 16.793475
_cell_angle_alpha 90.000000
_cell_angle_beta 136.755342
_cell_angle_gamma 90.000000
_cell_volume 1877.263180
_symmetry_space_group_name_H-M "C 2/C"
_symmetry_group_IT_number 15
_symmetry_cell_setting 'monoclinic'
loop_
_space_group_symop_operation_xyz
x,y,z
-x,y,1/2-z
-x,-y,-z
x,-y,1/2+z
1/2+x,1/2+y,z
1/2-x,1/2+y,1/2-z
1/2-x,1/2-y,-z
1/2+x,1/2-y,1/2+z
loop_
_atom_site_type_symbol
_atom_site_label
_atom_site_fract_x
_atom_site_fract_y
_atom_site_fract_z
Si Si1 0.163550 0.621103 0.292084
Si Si2 0.336554 0.532999 0.971565
Si Si3 0.397056 0.387680 0.118152
Si Si4 0.979618 0.794328 0.485639
Si Si5 0.498698 0.901716 0.955091
O O1 0.189102 0.531322 0.361739
O O2 0.338031 0.680307 0.382725
O O3 0.000000 0.673463 0.250000
O O4 0.115625 0.591446 0.180224
O O5 0.333209 0.640668 0.952781
O O6 0.500000 0.500000 0.000000
O O7 0.383587 0.494589 0.080980
O O8 0.500000 0.381756 0.250000
O O9 0.483851 0.327634 0.088889
O O10 0.193963 0.367351 0.029666
O O11 0.932019 0.687538 0.469845
O O12 0.500000 0.000000 0.000000
#
# Coordination Sequence:
#
# PCOD9266841 Si02
#       5
#     8   8   8   8   8
#     4  10  19  38  62  84 118 146 194 242 286 342
#     4   8  18  38  60  80 112 160 183 224 296 350
#     4  10  21  37  61  88 117 144 194 245 288 338
#     4  10  23  39  61  84 115 164 189 226 301 350
#     4  12  26  35  57  94 118 147 196 251 279 328
#
# _framework density 21.307614000000001
#
# number of rings (size 3 to 8) (size 9 to 14) (size 15 to 20)
#    0.000    2.400    4.000    0.600   11.200    0.000 
#    0.000    1.000    0.000    0.000    0.000    0.000 
#    0.000    0.000    0.000    0.000    0.000    0.000 
#
# Total GULP energy -111466.496953 kJ/mol
# GULP energy per Si atom -5573.324848 kJ/mol
# Density = 2.125912 g / cm^3
# Si number density = 21.307614 Si / 1000 Ang^3
#
#
#
# Elastic Constant Matrix: (Units=GPa)
#
#
# Indices 1 2 3 4 5 6 
#
# 1 17.2349 15.1904 18.6162 0.0000 -8.5942 0.0000
# 2 15.1904 182.8174 40.3104 0.0000 -25.9932 0.0000
# 3 18.6162 40.3104 168.1414 0.0000 -35.6141 0.0000
# 4 0.0000 0.0000 0.0000 5.1837 0.0000 -1.6463
# 5 -8.5942 -25.9932 -35.6141 0.0000 32.9358 0.0000
# 6 0.0000 0.0000 0.0000 -1.6463 0.0000 27.0823
#
#
#
# Elastic Compliance Matrix: (Units=1/GPa)
#
#
# Indices 1 2 3 4 5 6 
#
# 1 0.071582 -0.003345 -0.004833 0.000000 0.010812 0.000000
# 2 -0.003345 0.006362 -0.000358 0.000000 0.003760 0.000000
# 3 -0.004833 -0.000358 0.008096 0.000000 0.007210 0.000000
# 4 0.000000 0.000000 0.000000 0.196710 0.000000 0.011957
# 5 0.010812 0.003760 0.007210 0.000000 0.043947 0.000000
# 6 0.000000 0.000000 0.000000 0.011957 0.000000 0.037651
#
#
# Mechanical properties :
#
#
# Convention : Reuss Voigt Hill
#
# Bulk Modulus (GPa) = 14.49984 57.38088 35.94036
# Shear Modulus (GPa) = 12.36371 32.64547 22.50459
#
# Velocity S-wave (km/s) = 2.41145 3.91846 3.25341
# Velocity P-wave (km/s) = 3.81749 6.88917 5.56928
#
# Compressibility (1/GPa) = 0.06896628
#
# Stress axis : x y z
#
# Youngs Moduli (GPa) = 13.96996 157.19532 123.52475
#
# Poissons Ratio (x) = 0.52578 0.59704
# Poissons Ratio (y) = 0.04673 0.04426
# Poissons Ratio (z) = 0.06752 0.05633
#
# Static dielectric constant tensor:
#      x y z
#    x 1.855690 0.000000 0.017910 
#    y 0.000000 1.922940 0.000000 
#    z 0.017910 0.000000 1.790930 
# 
# From -- ./inp_files/85720.got.cif
#   From: 2010.05.17/outbox.cif.g08.bks.cpg/sg15_43_cif.got.tgz:85720.got - 2010.06.03 18:47:42.
