data_PCOD9266023
_publ_section_title
;
Structure prediction by ZEFSAII (Michael W. Deem and Ramdas Pophale) SiO2 
 PCOD9266023
Probable space group: C 2/C
;
_chemical_formula_sum "Si O2"
_cell_formula_units_Z 48
_cell_length_a 14.838784
_cell_length_b 9.611630
_cell_length_c 17.902445
_cell_angle_alpha 90.000000
_cell_angle_beta 64.169996
_cell_angle_gamma 90.000000
_cell_volume 2298.232675
_symmetry_space_group_name_H-M "C 2/C"
_symmetry_group_IT_number 15
_symmetry_cell_setting 'monoclinic'
loop_
_space_group_symop_operation_xyz
x,y,z
-x,y,1/2-z
-x,-y,-z
x,-y,1/2+z
1/2+x,1/2+y,z
1/2-x,1/2+y,1/2-z
1/2-x,1/2-y,-z
1/2+x,1/2-y,1/2+z
loop_
_atom_site_type_symbol
_atom_site_label
_atom_site_fract_x
_atom_site_fract_y
_atom_site_fract_z
Si Si1 0.337442 0.266270 0.562404
Si Si2 0.677684 0.581593 0.879619
Si Si3 0.483991 0.484632 0.174429
Si Si4 0.900773 0.407595 0.330839
Si Si5 0.050587 0.230522 0.047205
Si Si6 0.875623 0.274673 0.876276
O O1 0.329974 0.434984 0.571917
O O2 0.437058 0.222537 0.569846
O O3 0.226366 0.220884 0.626487
O O4 0.352164 0.215748 0.472801
O O5 0.625232 0.545468 0.820000
O O6 0.793258 0.625352 0.832590
O O7 0.612819 0.693926 0.950085
O O8 0.500000 0.549176 0.250000
O O9 0.537202 0.585262 0.096038
O O10 0.538889 0.337925 0.159762
O O11 0.900750 0.338066 0.412909
O O12 0.903746 0.574304 0.337190
O O13 0.000000 0.364081 0.250000
#
# Coordination Sequence:
#
# PCOD9266023 Si02
#       6
#     8   8   8   8   8   8
#     4   9  18  35  64  87 113 150 198 246 280 344
#     4  10  20  41  63  84 117 160 198 244 293 348
#     4  11  21  37  64  90 114 154 206 243 285 353
#     4  11  25  39  56  85 129 156 186 247 314 348
#     4  11  20  40  62  89 114 159 203 243 288 351
#     4  10  19  37  59  87 118 154 192 237 297 346
#
# _framework density 20.885611999999998
#
# number of rings (size 3 to 8) (size 9 to 14) (size 15 to 20)
#    0.000    1.667    3.333    2.500    0.000    2.000 
#    0.000    5.000    0.000    0.000    0.000    0.000 
#    0.000    0.000    0.000    0.000    0.000    0.000 
#
# Total GULP energy -133885.679893 kJ/mol
# GULP energy per Si atom -5578.569996 kJ/mol
# Density = 2.083808 g / cm^3
# Si number density = 20.885612 Si / 1000 Ang^3
#
#
#
# Elastic Constant Matrix: (Units=GPa)
#
#
# Indices 1 2 3 4 5 6 
#
# 1 174.6386 29.5522 41.9290 0.0000 -1.2298 0.0000
# 2 29.5522 41.4348 2.5335 0.0000 -6.4656 0.0000
# 3 41.9290 2.5335 69.4248 0.0000 8.0815 0.0000
# 4 0.0000 0.0000 0.0000 -3.6812 0.0000 4.2549
# 5 -1.2298 -6.4656 8.0815 0.0000 15.6193 0.0000
# 6 0.0000 0.0000 0.0000 4.2549 0.0000 19.3584
#
#
#
# Elastic Compliance Matrix: (Units=1/GPa)
#
#
# Indices 1 2 3 4 5 6 
#
# 1 0.007683 -0.005066 -0.004556 0.000000 0.000865 0.000000
# 2 -0.005066 0.029499 0.000647 0.000000 0.011477 0.000000
# 3 -0.004556 0.000647 0.018241 0.000000 -0.009529 0.000000
# 4 0.000000 0.000000 0.000000 -0.216617 0.000000 0.047612
# 5 0.000865 0.011477 -0.009529 0.000000 0.073773 0.000000
# 6 0.000000 0.000000 0.000000 0.047612 0.000000 0.041192
#
#
# Mechanical properties :
#
#
# Convention : Reuss Voigt Hill
#
# Bulk Modulus (GPa) = 26.68564 48.16973 37.42769
# Shear Modulus (GPa) = -316.74172 20.35818 -148.19177
#
# Velocity S-wave (km/s) = -12.32821 3.12548 -8.43256
# Velocity P-wave (km/s) = 13.77830 6.01153 8.76650
#
# Compressibility (1/GPa) = 0.03747334
#
# Stress axis : x y z
#
# Youngs Moduli (GPa) = 130.14997 33.89929 54.82029
#
# Poissons Ratio (x) = 0.17175 0.24977
# Poissons Ratio (y) = 0.65939 -0.03549
# Poissons Ratio (z) = 0.59299 -0.02194
#
# Static dielectric constant tensor:
#      x y z
#    x 1.807240 0.000000 0.030380 
#    y 0.000000 1.724700 0.000000 
#    z 0.030380 0.000000 1.855420 
# 
# From -- ./inp_files/196520.got.cif
#   From: 2010.05.17/outbox.cif.g08.bks.cpg/sg15_99_cif.got.tgz:196520.got - 2010.06.03 18:47:42.
