data_PCOD9266772
_publ_section_title
;
Structure prediction by ZEFSAII (Michael W. Deem and Ramdas Pophale) SiO2 
 PCOD9266772
Probable space group: C 2/C
;
_chemical_formula_sum "Si O2"
_cell_formula_units_Z 40
_cell_length_a 14.003017
_cell_length_b 10.077545
_cell_length_c 20.678919
_cell_angle_alpha 90.000000
_cell_angle_beta 150.353209
_cell_angle_gamma 90.000000
_cell_volume 1443.456735
_symmetry_space_group_name_H-M "C 2/C"
_symmetry_group_IT_number 15
_symmetry_cell_setting 'monoclinic'
loop_
_space_group_symop_operation_xyz
x,y,z
-x,y,1/2-z
-x,-y,-z
x,-y,1/2+z
1/2+x,1/2+y,z
1/2-x,1/2+y,1/2-z
1/2-x,1/2-y,-z
1/2+x,1/2-y,1/2+z
loop_
_atom_site_type_symbol
_atom_site_label
_atom_site_fract_x
_atom_site_fract_y
_atom_site_fract_z
Si Si1 0.498701 0.798466 0.007820
Si Si2 0.425254 0.588591 0.269714
Si Si3 0.879811 0.631343 0.053160
Si Si4 0.294841 0.553235 0.332685
Si Si5 0.481330 0.134625 0.645145
O O1 0.282572 0.844606 0.866476
O O2 0.621353 0.871010 0.024961
O O3 0.560928 0.643391 0.041066
O O4 0.540344 0.842821 0.105160
O O5 0.500000 0.513556 0.250000
O O6 0.395289 0.524017 0.322524
O O7 0.562225 0.720281 0.355594
O O8 0.105912 0.647746 0.205988
O O9 0.832161 0.487447 0.055376
O O10 0.750000 0.750000 0.000000
O O11 0.172163 0.431342 0.289652
#
# Coordination Sequence:
#
# PCOD9266772 Si02
#       5
#     8   8   8   8   8
#     4  10  19  38  61  77 117 155 182 234 287 331
#     4  10  21  36  57  83 112 150 191 235 278 337
#     4   9  19  35  58  82 112 149 188 233 279 333
#     4   8  20  36  57  84 113 143 193 230 275 342
#     4   9  20  38  58  83 116 149 188 232 285 333
#
# _framework density 27.711255000000001
#
# number of rings (size 3 to 8) (size 9 to 14) (size 15 to 20)
#    1.200    1.600    0.000    0.600    0.000    6.400 
#    0.000   10.000    0.000    0.000    0.000    0.000 
#    0.000    0.000    0.000    0.000    0.000    0.000 
#
# Total GULP energy -111779.648220 kJ/mol
# GULP energy per Si atom -5588.982411 kJ/mol
# Density = 2.764818 g / cm^3
# Si number density = 27.711255 Si / 1000 Ang^3
#
#
#
# Elastic Constant Matrix: (Units=GPa)
#
#
# Indices 1 2 3 4 5 6 
#
# 1 117.2757 12.6605 14.3834 -0.0001 12.4034 -0.0001
# 2 12.6605 99.0040 9.8331 0.0004 17.7668 0.0001
# 3 14.3834 9.8331 85.7740 0.0032 14.6261 0.0005
# 4 -0.0001 0.0004 0.0032 55.4027 0.0003 14.6684
# 5 12.4034 17.7668 14.6261 0.0003 42.5110 -0.0001
# 6 -0.0001 0.0001 0.0005 14.6684 -0.0001 26.9445
#
#
#
# Elastic Compliance Matrix: (Units=1/GPa)
#
#
# Indices 1 2 3 4 5 6 
#
# 1 0.008940 -0.000686 -0.001089 0.000000 -0.001947 0.000000
# 2 -0.000686 0.010993 -0.000421 0.000000 -0.004249 0.000000
# 3 -0.001089 -0.000421 0.012541 -0.000001 -0.003821 0.000000
# 4 0.000000 0.000000 -0.000001 0.021089 0.000000 -0.011481
# 5 -0.001947 -0.004249 -0.003821 0.000000 0.027182 0.000000
# 6 0.000000 0.000000 0.000000 -0.011481 0.000000 0.043363
#
#
# Mechanical properties :
#
#
# Convention : Reuss Voigt Hill
#
# Bulk Modulus (GPa) = 35.60705 41.75642 38.68174
# Shear Modulus (GPa) = 36.26864 42.65008 39.45936
#
# Velocity S-wave (km/s) = 3.62167 3.92738 3.77762
# Velocity P-wave (km/s) = 5.51052 5.97217 5.74598
#
# Compressibility (1/GPa) = 0.02808433
#
# Stress axis : x y z
#
# Youngs Moduli (GPa) = 111.85170 90.96992 79.73903
#
# Poissons Ratio (x) = 0.06238 0.08680
# Poissons Ratio (y) = 0.07670 0.03354
# Poissons Ratio (z) = 0.12175 0.03826
#
# Static dielectric constant tensor:
#      x y z
#    x 2.042700 0.000000 -0.049230 
#    y 0.000000 2.283680 0.000000 
#    z -0.049230 0.000000 2.404730 
# 
# From -- ./inp_files/274080.got.cif
#   From: 2010.05.17/outbox.cif.g08.bks.cpg/sg15_138_cif.got.tgz:274080.got - 2010.06.03 18:47:42.
