data_PCOD9266069
_publ_section_title
;
Structure prediction by ZEFSAII (Michael W. Deem and Ramdas Pophale) SiO2 
 PCOD9266069
Probable space group: C 2/C
;
_chemical_formula_sum "Si O2"
_cell_formula_units_Z 64
_cell_length_a 19.693553
_cell_length_b 11.213371
_cell_length_c 24.303054
_cell_angle_alpha 90.000000
_cell_angle_beta 138.012651
_cell_angle_gamma 90.000000
_cell_volume 3590.256614
_symmetry_space_group_name_H-M "C 2/C"
_symmetry_group_IT_number 15
_symmetry_cell_setting 'monoclinic'
loop_
_space_group_symop_operation_xyz
x,y,z
-x,y,1/2-z
-x,-y,-z
x,-y,1/2+z
1/2+x,1/2+y,z
1/2-x,1/2+y,1/2-z
1/2-x,1/2-y,-z
1/2+x,1/2-y,1/2+z
loop_
_atom_site_type_symbol
_atom_site_label
_atom_site_fract_x
_atom_site_fract_y
_atom_site_fract_z
Si Si1 0.118310 0.422033 0.244554
Si Si2 0.522807 0.483814 0.448671
Si Si3 0.602738 0.677904 0.180537
Si Si4 0.756404 0.579657 0.097167
Si Si5 0.302512 0.964754 0.821534
Si Si6 0.472314 0.772413 0.905397
Si Si7 0.335541 0.204792 0.898450
Si Si8 0.042293 0.384432 0.834344
O O1 0.098363 0.282768 0.222868
O O2 0.193475 0.473021 0.336728
O O3 0.166202 0.473138 0.217048
O O4 0.011536 0.487565 0.190585
O O5 0.500000 0.500000 0.500000
O O6 0.492848 0.597252 0.394131
O O7 0.641520 0.453492 0.512774
O O8 0.454329 0.368876 0.392551
O O9 0.691654 0.589076 0.251090
O O10 0.634272 0.739739 0.142033
O O11 0.746546 0.702710 0.126293
O O12 0.836793 0.604770 0.097423
O O13 0.381090 0.853985 0.872947
O O14 0.307874 0.067578 0.870703
O O15 0.504014 0.811177 0.863343
O O16 0.567682 0.791662 0.003179
O O17 0.000000 0.338234 0.750000
#
# Coordination Sequence:
#
# PCOD9266069 Si02
#       8
#     8   8   8   8   8   8   8   8
#     4   9  19  35  54  80 109 147 192 228 275 340
#     4  11  21  34  54  87 119 145 182 229 295 351
#     4  11  21  32  52  84 118 146 182 234 278 348
#     4  10  19  37  60  76 111 151 188 234 286 334
#     4  10  20  31  55  82 117 145 175 232 294 338
#     4  10  21  36  58  82 118 148 184 236 287 338
#     4  10  20  33  52  87 116 141 186 231 284 345
#     4   9  20  38  60  82 103 152 204 233 272 337
#
# _framework density 17.826024
#
# number of rings (size 3 to 8) (size 9 to 14) (size 15 to 20)
#    0.000    2.000    3.750    0.375    5.250    2.000 
#    0.000    0.625    0.000    9.750    0.000    0.000 
#    0.000    0.000    0.000    0.000    0.000    0.000 
#
# Total GULP energy -178321.005962 kJ/mol
# GULP energy per Si atom -5572.531436 kJ/mol
# Density = 1.778545 g / cm^3
# Si number density = 17.826024 Si / 1000 Ang^3
#
#
#
# Elastic Constant Matrix: (Units=GPa)
#
#
# Indices 1 2 3 4 5 6 
#
# 1 49.5305 24.0325 0.7015 0.0000 17.2543 0.0000
# 2 24.0325 118.3624 29.7301 0.0000 7.2129 0.0000
# 3 0.7015 29.7301 37.9995 0.0000 11.8197 0.0000
# 4 0.0000 0.0000 0.0000 33.9876 0.0000 -5.2612
# 5 17.2543 7.2129 11.8197 0.0000 24.2261 0.0000
# 6 0.0000 0.0000 0.0000 -5.2612 0.0000 -3.0991
#
#
#
# Elastic Compliance Matrix: (Units=1/GPa)
#
#
# Indices 1 2 3 4 5 6 
#
# 1 0.034821 -0.009236 0.015846 0.000000 -0.029782 0.000000
# 2 -0.009236 0.012987 -0.012772 0.000000 0.008942 0.000000
# 3 0.015846 -0.012772 0.045204 0.000000 -0.029538 0.000000
# 4 0.000000 0.000000 0.000000 0.023299 0.000000 -0.039555
# 5 -0.029782 0.008942 -0.029538 0.000000 0.074238 0.000000
# 6 0.000000 0.000000 0.000000 -0.039555 0.000000 -0.255526
#
#
# Mechanical properties :
#
#
# Convention : Reuss Voigt Hill
#
# Bulk Modulus (GPa) = 12.39311 34.98008 23.68659
# Shear Modulus (GPa) = -194.10321 21.11816 -86.49252
#
# Velocity S-wave (km/s) = -10.44624 3.44565 -6.97321
# Velocity P-wave (km/s) = 11.76993 5.95783 7.17759
#
# Compressibility (1/GPa) = 0.08069002
#
# Stress axis : x y z
#
# Youngs Moduli (GPa) = 28.71839 77.00091 22.12206
#
# Poissons Ratio (x) = 0.71114 -0.35056
# Poissons Ratio (y) = 0.26523 0.28254
# Poissons Ratio (z) = -0.45508 0.98343
#
# Static dielectric constant tensor:
#      x y z
#    x 1.606020 0.000000 -0.012240 
#    y 0.000000 1.656830 0.000000 
#    z -0.012240 0.000000 1.639410 
# 
# From -- ./inp_files/279898.got.cif
#   From: 2010.05.17/outbox.cif.g08.bks.cpg/sg15_140_cif.got.tgz:279898.got - 2010.06.03 18:47:42.
