data_PCOD9266324
_publ_section_title
;
Structure prediction by ZEFSAII (Michael W. Deem and Ramdas Pophale) SiO2 
 PCOD9266324
Probable space group: C 2/C
;
_chemical_formula_sum "Si O2"
_cell_formula_units_Z 64
_cell_length_a 9.768448
_cell_length_b 12.610721
_cell_length_c 25.902595
_cell_angle_alpha 90.000000
_cell_angle_beta 65.225932
_cell_angle_gamma 90.000000
_cell_volume 2897.203062
_symmetry_space_group_name_H-M "C 2/C"
_symmetry_group_IT_number 15
_symmetry_cell_setting 'monoclinic'
loop_
_space_group_symop_operation_xyz
x,y,z
-x,y,1/2-z
-x,-y,-z
x,-y,1/2+z
1/2+x,1/2+y,z
1/2-x,1/2+y,1/2-z
1/2-x,1/2-y,-z
1/2+x,1/2-y,1/2+z
loop_
_atom_site_type_symbol
_atom_site_label
_atom_site_fract_x
_atom_site_fract_y
_atom_site_fract_z
Si Si1 0.951733 0.579825 0.434426
Si Si2 0.108268 0.785500 0.384150
Si Si3 0.898147 0.360920 0.108531
Si Si4 0.641949 0.434416 0.024530
Si Si5 0.435070 0.142188 0.811865
Si Si6 0.818919 0.416574 0.837560
Si Si7 0.522371 0.625378 0.430722
Si Si8 0.568932 0.690681 0.688773
O O1 0.815748 0.600609 0.496014
O O2 0.882996 0.585487 0.386569
O O3 0.070621 0.673959 0.416283
O O4 0.025539 0.464775 0.427473
O O5 0.283695 0.809892 0.360733
O O6 0.987890 0.867939 0.426793
O O7 0.063322 0.788661 0.331123
O O8 0.715463 0.359974 0.137373
O O9 0.942869 0.361707 0.162154
O O10 0.966784 0.252052 0.074261
O O11 0.629491 0.556575 0.045152
O O12 0.595106 0.415332 0.972549
O O13 0.500000 0.195280 0.750000
O O14 0.379900 0.024362 0.804894
O O15 0.638081 0.415224 0.868824
O O16 0.868861 0.306688 0.804757
O O17 0.500000 0.635174 0.750000
#
# Coordination Sequence:
#
# PCOD9266324 Si02
#       8
#     8   8   8   8   8   8   8   8
#     4   9  20  36  56  83 122 155 183 236 296 353
#     4  11  22  39  60  87 118 153 199 241 285 354
#     4  10  22  40  57  89 124 151 194 244 294 350
#     4  10  19  37  63  86 113 157 201 235 287 350
#     4  11  21  37  61  88 118 153 198 249 295 333
#     4   8  16  34  58  85 108 150 202 240 269 346
#     4   9  18  35  62  87 114 150 197 241 284 344
#     4  10  20  38  61  83 115 159 201 239 288 346
#
# _framework density 22.090271000000001
#
# number of rings (size 3 to 8) (size 9 to 14) (size 15 to 20)
#    0.000    2.250    1.250    2.250    1.750    0.500 
#    2.250    1.875    0.000    0.000    0.000    0.000 
#    0.000    0.000    0.000    0.000    0.000    0.000 
#
# Total GULP energy -178478.663560 kJ/mol
# GULP energy per Si atom -5577.458236 kJ/mol
# Density = 2.203999 g / cm^3
# Si number density = 22.090271 Si / 1000 Ang^3
#
#
#
# Elastic Constant Matrix: (Units=GPa)
#
#
# Indices 1 2 3 4 5 6 
#
# 1 47.4694 -9.9674 -0.9527 0.0000 -9.9239 0.0000
# 2 -9.9674 100.5821 17.3559 0.0000 -24.3556 0.0000
# 3 -0.9527 17.3559 86.1171 0.0000 -22.4978 0.0000
# 4 0.0000 0.0000 0.0000 -1.5232 0.0000 12.1427
# 5 -9.9239 -24.3556 -22.4978 0.0000 27.1037 0.0000
# 6 0.0000 0.0000 0.0000 12.1427 0.0000 7.8991
#
#
#
# Elastic Compliance Matrix: (Units=1/GPa)
#
#
# Indices 1 2 3 4 5 6 
#
# 1 0.026416 0.006480 0.003875 0.000000 0.018711 0.000000
# 2 0.006480 0.014316 0.001490 0.000000 0.016474 0.000000
# 3 0.003875 0.001490 0.015419 0.000000 0.015556 0.000000
# 4 0.000000 0.000000 0.000000 -0.049531 0.000000 0.076141
# 5 0.018711 0.016474 0.015556 0.000000 0.071463 0.000000
# 6 0.000000 0.000000 0.000000 0.076141 0.000000 0.009551
#
#
# Mechanical properties :
#
#
# Convention : Reuss Voigt Hill
#
# Bulk Modulus (GPa) = 12.52487 27.44892 19.98689
# Shear Modulus (GPa) = 55.21321 21.87811 38.54566
#
# Velocity S-wave (km/s) = 5.00486 3.15047 4.18175
# Velocity P-wave (km/s) = 6.25143 5.06821 5.69065
#
# Compressibility (1/GPa) = 0.07984114
#
# Stress axis : x y z
#
# Youngs Moduli (GPa) = 37.85529 69.85025 64.85661
#
# Poissons Ratio (x) = -0.45264 -0.25129
# Poissons Ratio (y) = -0.24531 -0.09665
# Poissons Ratio (z) = -0.14667 -0.10410
#
# Static dielectric constant tensor:
#      x y z
#    x 1.814620 0.000000 0.010680 
#    y 0.000000 1.825070 0.000000 
#    z 0.010680 0.000000 1.857860 
# 
# From -- ./inp_files/308015.got.cif
#   From: 2010.05.17/outbox.cif.g08.bks.cpg/sg15_155_cif.got.tgz:308015.got - 2010.06.03 18:47:42.
