data_PCOD9266399
_publ_section_title
;
Structure prediction by ZEFSAII (Michael W. Deem and Ramdas Pophale) SiO2 
 PCOD9266399
Probable space group: C 2/C
;
_chemical_formula_sum "Si O2"
_cell_formula_units_Z 56
_cell_length_a 8.167447
_cell_length_b 15.518169
_cell_length_c 26.035607
_cell_angle_alpha 90.000000
_cell_angle_beta 138.022772
_cell_angle_gamma 90.000000
_cell_volume 2207.057392
_symmetry_space_group_name_H-M "C 2/C"
_symmetry_group_IT_number 15
_symmetry_cell_setting 'monoclinic'
loop_
_space_group_symop_operation_xyz
x,y,z
-x,y,1/2-z
-x,-y,-z
x,-y,1/2+z
1/2+x,1/2+y,z
1/2-x,1/2+y,1/2-z
1/2-x,1/2-y,-z
1/2+x,1/2-y,1/2+z
loop_
_atom_site_type_symbol
_atom_site_label
_atom_site_fract_x
_atom_site_fract_y
_atom_site_fract_z
Si Si1 0.029410 0.376153 0.590555
Si Si2 0.092612 0.989709 0.842241
Si Si3 0.330353 0.865619 0.262218
Si Si4 0.998122 0.628698 0.963141
Si Si5 0.206496 0.545833 0.925425
Si Si6 0.261510 0.057118 0.162893
Si Si7 0.419083 0.236527 0.152529
O O1 0.273917 0.426887 0.666844
O O2 0.047381 0.359153 0.534485
O O3 0.832696 0.450253 0.559051
O O4 0.980359 0.287725 0.607863
O O5 0.956187 0.927389 0.849340
O O6 0.322069 0.044292 0.917316
O O7 0.885911 0.061850 0.787281
O O8 0.500000 0.852716 0.250000
O O9 0.492741 0.898469 0.347385
O O10 0.162972 0.781016 0.231525
O O11 0.821356 0.704716 0.902417
O O12 0.231365 0.607991 0.980882
O O13 0.329475 0.512465 0.900851
O O14 0.500000 0.023087 0.250000
O O15 0.360748 0.144552 0.162607
#
# Coordination Sequence:
#
# PCOD9266399 Si02
#       7
#     8   8   8   8   8   8   8
#     4  10  22  42  62  90 122 166 206 250 300 366
#     4  10  19  37  66  88 121 158 204 254 298 365
#     4  11  21  40  61  94 123 156 203 256 310 372
#     4  10  22  41  64  87 123 164 216 242 296 371
#     4  10  19  37  64  87 120 155 206 251 301 351
#     4  11  21  39  57  94 130 152 197 259 315 368
#     4  10  25  39  63  86 127 167 196 255 316 363
#
# _framework density 25.373152999999999
#
# number of rings (size 3 to 8) (size 9 to 14) (size 15 to 20)
#    0.000    1.714    2.857    2.143    2.000    5.714 
#    0.000    7.143    3.143    0.000    0.000    0.000 
#    0.000    0.000    0.000    0.000    0.000    0.000 
#
# Total GULP energy -155984.542952 kJ/mol
# GULP energy per Si atom -5570.876534 kJ/mol
# Density = 2.531540 g / cm^3
# Si number density = 25.373153 Si / 1000 Ang^3
#
#
#
# Elastic Constant Matrix: (Units=GPa)
#
#
# Indices 1 2 3 4 5 6 
#
# 1 61.1401 27.0129 15.0108 0.0000 -3.3732 0.0000
# 2 27.0129 82.4926 16.9785 0.0000 10.2106 0.0000
# 3 15.0108 16.9785 67.6072 0.0002 -3.2089 0.0000
# 4 0.0000 0.0000 0.0002 22.3740 0.0000 -6.0379
# 5 -3.3732 10.2106 -3.2089 0.0000 32.1110 0.0000
# 6 0.0000 0.0000 0.0000 -6.0379 0.0000 46.4711
#
#
#
# Elastic Compliance Matrix: (Units=1/GPa)
#
#
# Indices 1 2 3 4 5 6 
#
# 1 0.020103 -0.006525 -0.002639 0.000000 0.003923 0.000000
# 2 -0.006525 0.015553 -0.002737 0.000000 -0.005905 0.000000
# 3 -0.002639 -0.002737 0.016169 0.000000 0.002209 0.000000
# 4 0.000000 0.000000 0.000000 0.046319 0.000000 0.006018
# 5 0.003923 -0.005905 0.002209 0.000000 0.033652 0.000000
# 6 0.000000 0.000000 0.000000 0.006018 0.000000 0.022301
#
#
# Mechanical properties :
#
#
# Convention : Reuss Voigt Hill
#
# Bulk Modulus (GPa) = 35.68466 36.58267 36.13367
# Shear Modulus (GPa) = 26.70346 30.34042 28.52194
#
# Velocity S-wave (km/s) = 3.24764 3.46174 3.35640
# Velocity P-wave (km/s) = 5.30635 5.51610 5.41224
#
# Compressibility (1/GPa) = 0.02802325
#
# Stress axis : x y z
#
# Youngs Moduli (GPa) = 49.74337 64.29468 61.84498
#
# Poissons Ratio (x) = 0.41955 0.16318
# Poissons Ratio (y) = 0.32460 0.16929
# Poissons Ratio (z) = 0.13125 0.17600
#
# Static dielectric constant tensor:
#      x y z
#    x 2.096850 0.000000 -0.033080 
#    y 0.000000 1.984910 0.000000 
#    z -0.033080 0.000000 2.118450 
# 
# From -- ./inp_files/289778.got.cif
#   From: 2010.05.17/outbox.cif.g08.bks.cpg/sg15_145_cif.got.tgz:289778.got - 2010.06.03 18:47:42.
