data_PCOD9266715
_publ_section_title
;
Structure prediction by ZEFSAII (Michael W. Deem and Ramdas Pophale) SiO2 
 PCOD9266715
Probable space group: C 2/C
;
_chemical_formula_sum "Si O2"
_cell_formula_units_Z 52
_cell_length_a 12.244680
_cell_length_b 12.650574
_cell_length_c 13.964683
_cell_angle_alpha 90.000000
_cell_angle_beta 93.476797
_cell_angle_gamma 90.000000
_cell_volume 2159.179116
_symmetry_space_group_name_H-M "C 2/C"
_symmetry_group_IT_number 15
_symmetry_cell_setting 'monoclinic'
loop_
_space_group_symop_operation_xyz
x,y,z
-x,y,1/2-z
-x,-y,-z
x,-y,1/2+z
1/2+x,1/2+y,z
1/2-x,1/2+y,1/2-z
1/2-x,1/2-y,-z
1/2+x,1/2-y,1/2+z
loop_
_atom_site_type_symbol
_atom_site_label
_atom_site_fract_x
_atom_site_fract_y
_atom_site_fract_z
Si Si1 0.771026 0.729664 0.641729
Si Si2 0.000000 0.446959 0.250000
Si Si3 0.628969 0.443727 0.227473
Si Si4 0.443846 0.146186 0.151585
Si Si5 0.321511 0.110711 0.891303
Si Si6 0.136870 0.607399 0.016877
Si Si7 0.695118 0.326627 0.653944
O O1 0.669691 0.651903 0.661059
O O2 0.856296 0.660721 0.586045
O O3 0.731670 0.829997 0.579143
O O4 0.818462 0.776728 0.741179
O O5 0.925047 0.527039 0.185975
O O6 0.918504 0.400299 0.320439
O O7 0.500000 0.443386 0.250000
O O8 0.710178 0.423565 0.325177
O O9 0.653855 0.553571 0.169295
O O10 0.500000 0.196441 0.250000
O O11 0.528088 0.138513 0.069494
O O12 0.322952 0.184965 0.136888
O O13 0.343018 0.233782 0.920595
O O14 0.339910 0.017517 0.969806
#
# Coordination Sequence:
#
# PCOD9266715 Si02
#       7
#     8   4   8   8   8   8   8
#     4  10  21  36  62  83 123 147 200 252 283 342
#     4   8  14  32  54  78 102 144 196 242 262 322
#     4  11  23  38  56  90 122 156 192 233 297 363
#     4   9  15  31  58  79 106 142 201 241 266 335
#     4  10  20  34  60  83 116 150 200 240 286 344
#     4  10  19  38  59  92 109 151 204 251 289 326
#     4  11  20  36  59  88 117 155 196 236 297 354
#
# _framework density 24.083226
#
# number of rings (size 3 to 8) (size 9 to 14) (size 15 to 20)
#    0.462    1.538    4.615    0.000    5.385    0.000 
#    0.000    3.846    0.000    0.000    0.000    0.000 
#    0.000    0.000    0.000    0.000    0.000    0.000 
#
# Total GULP energy -144857.829210 kJ/mol
# GULP energy per Si atom -5571.454970 kJ/mol
# Density = 2.402841 g / cm^3
# Si number density = 24.083226 Si / 1000 Ang^3
#
#
#
# Elastic Constant Matrix: (Units=GPa)
#
#
# Indices 1 2 3 4 5 6 
#
# 1 72.8184 1.9125 9.1984 0.0000 -6.8513 0.0000
# 2 1.9125 134.8383 -0.5349 0.0000 5.0382 0.0000
# 3 9.1984 -0.5349 80.4734 0.0000 -7.6167 0.0000
# 4 0.0000 0.0000 0.0000 69.5746 0.0000 -35.5556
# 5 -6.8513 5.0382 -7.6167 0.0000 28.9460 0.0000
# 6 0.0000 0.0000 0.0000 -35.5556 0.0000 55.8257
#
#
#
# Elastic Compliance Matrix: (Units=1/GPa)
#
#
# Indices 1 2 3 4 5 6 
#
# 1 0.014198 -0.000321 -0.001335 0.000000 0.003065 0.000000
# 2 -0.000321 0.007473 -0.000045 0.000000 -0.001389 0.000000
# 3 -0.001335 -0.000045 0.012870 0.000000 0.003078 0.000000
# 4 0.000000 0.000000 0.000000 0.021309 0.000000 0.013572
# 5 0.003065 -0.001389 0.003078 0.000000 0.036324 0.000000
# 6 0.000000 0.000000 0.000000 0.013572 0.000000 0.026557
#
#
# Mechanical properties :
#
#
# Convention : Reuss Voigt Hill
#
# Bulk Modulus (GPa) = 32.11448 34.36467 33.23957
# Shear Modulus (GPa) = 37.73230 49.37288 43.55259
#
# Velocity S-wave (km/s) = 3.96251 4.53271 4.25717
# Velocity P-wave (km/s) = 5.85654 6.45709 6.16413
#
# Compressibility (1/GPa) = 0.03113860
#
# Stress axis : x y z
#
# Youngs Moduli (GPa) = 70.43120 133.82316 77.69930
#
# Poissons Ratio (x) = 0.04298 0.10372
# Poissons Ratio (y) = 0.02262 0.00350
# Poissons Ratio (z) = 0.09402 0.00603
#
# Static dielectric constant tensor:
#      x y z
#    x 1.975240 0.000000 0.059560 
#    y 0.000000 2.083900 0.000000 
#    z 0.059560 0.000000 1.975960 
# 
# From -- ./inp_files/238008.got.cif
#   From: 2010.05.17/outbox.cif.g08.bks.cpg/sg15_120_cif.got.tgz:238008.got - 2010.06.03 18:47:42.
