data_PCOD9266215
_publ_section_title
;
Structure prediction by ZEFSAII (Michael W. Deem and Ramdas Pophale) SiO2 
 PCOD9266215
Probable space group: C 2/C
;
_chemical_formula_sum "Si O2"
_cell_formula_units_Z 64
_cell_length_a 20.219203
_cell_length_b 11.893854
_cell_length_c 27.721809
_cell_angle_alpha 90.000000
_cell_angle_beta 150.960057
_cell_angle_gamma 90.000000
_cell_volume 3236.124203
_symmetry_space_group_name_H-M "C 2/C"
_symmetry_group_IT_number 15
_symmetry_cell_setting 'monoclinic'
loop_
_space_group_symop_operation_xyz
x,y,z
-x,y,1/2-z
-x,-y,-z
x,-y,1/2+z
1/2+x,1/2+y,z
1/2-x,1/2+y,1/2-z
1/2-x,1/2-y,-z
1/2+x,1/2-y,1/2+z
loop_
_atom_site_type_symbol
_atom_site_label
_atom_site_fract_x
_atom_site_fract_y
_atom_site_fract_z
Si Si1 0.891201 0.788826 0.147417
Si Si2 0.716447 0.589239 0.518838
Si Si3 0.863207 0.044142 0.140474
Si Si4 0.918254 0.271567 0.563328
Si Si5 0.600665 0.820354 0.487342
Si Si6 0.993284 0.480593 0.149730
Si Si7 0.008124 0.188859 0.519819
Si Si8 0.707535 0.492916 0.617430
O O1 0.955151 0.796454 0.135033
O O2 0.000000 0.725763 0.250000
O O3 0.865011 0.911792 0.152115
O O4 0.740434 0.739951 0.046988
O O5 0.646220 0.557932 0.423380
O O6 0.665468 0.713556 0.500406
O O7 0.686324 0.515507 0.546836
O O8 0.876696 0.571602 0.609964
O O9 0.729892 0.099339 0.077805
O O10 0.000000 0.095013 0.250000
O O11 0.936294 0.401632 0.591406
O O12 0.998833 0.243519 0.566539
O O13 0.498255 0.890059 0.388186
O O14 0.537781 0.777344 0.496713
O O15 0.135960 0.501353 0.266913
O O16 0.124557 0.093134 0.590846
O O17 0.867152 0.123660 0.418776
#
# Coordination Sequence:
#
# PCOD9266215 Si02
#       8
#     8   8   8   8   8   8   8   8
#     4  10  22  39  62  93 120 152 197 253 308 349
#     4  10  20  38  63  90 118 153 199 254 296 347
#     4  10  19  37  61  92 120 151 197 249 303 351
#     4  11  23  40  63  91 124 154 203 248 302 360
#     4  10  22  40  60  87 126 159 199 241 300 361
#     4  11  22  38  62  95 119 154 205 252 300 354
#     4  10  24  42  60  83 126 165 198 245 296 362
#     4  10  23  42  62  87 121 161 206 246 297 355
#
# _framework density 19.776744000000001
#
# number of rings (size 3 to 8) (size 9 to 14) (size 15 to 20)
#    0.000    1.750    2.500    2.625    3.500    5.500 
#    0.000    3.750    0.000    0.000    0.000    0.000 
#    0.000    0.000    0.000    0.000    0.000    0.000 
#
# Total GULP energy -178590.251854 kJ/mol
# GULP energy per Si atom -5580.945370 kJ/mol
# Density = 1.973173 g / cm^3
# Si number density = 19.776744 Si / 1000 Ang^3
#
#
#
# Elastic Constant Matrix: (Units=GPa)
#
#
# Indices 1 2 3 4 5 6 
#
# 1 134.6713 30.7958 38.9856 -0.0002 -14.8345 -0.0001
# 2 30.7958 76.8987 13.0329 -0.0004 -1.7677 -0.0001
# 3 38.9856 13.0329 138.4724 -0.0009 -0.9441 -0.0003
# 4 -0.0002 -0.0004 -0.0009 10.4143 -0.0002 3.9695
# 5 -14.8345 -1.7677 -0.9441 -0.0002 12.9325 0.0000
# 6 -0.0001 -0.0001 -0.0003 3.9695 0.0000 27.1416
#
#
#
# Elastic Compliance Matrix: (Units=1/GPa)
#
#
# Indices 1 2 3 4 5 6 
#
# 1 0.010118 -0.003384 -0.002455 0.000000 0.010964 0.000000
# 2 -0.003384 0.014385 -0.000414 0.000000 -0.001945 0.000000
# 3 -0.002455 -0.000414 0.007936 0.000001 -0.002294 0.000000
# 4 0.000000 0.000000 0.000001 0.101691 0.000001 -0.014873
# 5 0.010964 -0.001945 -0.002294 0.000001 0.089467 0.000000
# 6 0.000000 0.000000 0.000000 -0.014873 0.000000 0.039019
#
#
# Mechanical properties :
#
#
# Convention : Reuss Voigt Hill
#
# Bulk Modulus (GPa) = 50.17128 57.29678 53.73403
# Shear Modulus (GPa) = 17.74518 27.91290 22.82904
#
# Velocity S-wave (km/s) = 2.99870 3.76094 3.40124
# Velocity P-wave (km/s) = 6.11666 6.92056 6.53099
#
# Compressibility (1/GPa) = 0.01993172
#
# Stress axis : x y z
#
# Youngs Moduli (GPa) = 98.83620 69.51815 126.00324
#
# Poissons Ratio (x) = 0.23523 0.30938
# Poissons Ratio (y) = 0.33443 0.05223
# Poissons Ratio (z) = 0.24268 0.02881
#
# Static dielectric constant tensor:
#      x y z
#    x 1.690640 0.000000 -0.004860 
#    y 0.000000 1.732890 0.000000 
#    z -0.004860 0.000000 1.722470 
# 
# From -- ./inp_files/300868.got.cif
#   From: 2010.05.17/outbox.cif.g08.bks.cpg/sg15_151_cif.got.tgz:300868.got - 2010.06.03 18:47:42.
