data_PCOD9266896
_publ_section_title
;
Structure prediction by ZEFSAII (Michael W. Deem and Ramdas Pophale) SiO2 
 PCOD9266896
Probable space group: C 2/C
;
_chemical_formula_sum "Si O2"
_cell_formula_units_Z 52
_cell_length_a 17.820972
_cell_length_b 7.792006
_cell_length_c 17.290284
_cell_angle_alpha 90.000000
_cell_angle_beta 115.022137
_cell_angle_gamma 90.000000
_cell_volume 2175.605863
_symmetry_space_group_name_H-M "C 2/C"
_symmetry_group_IT_number 15
_symmetry_cell_setting 'monoclinic'
loop_
_space_group_symop_operation_xyz
x,y,z
-x,y,1/2-z
-x,-y,-z
x,-y,1/2+z
1/2+x,1/2+y,z
1/2-x,1/2+y,1/2-z
1/2-x,1/2-y,-z
1/2+x,1/2-y,1/2+z
loop_
_atom_site_type_symbol
_atom_site_label
_atom_site_fract_x
_atom_site_fract_y
_atom_site_fract_z
Si Si1 0.664846 0.130906 0.253410
Si Si2 0.000000 0.333225 0.750000
Si Si3 0.757587 0.190785 0.836177
Si Si4 0.824772 0.856856 0.573868
Si Si5 0.562320 0.061098 0.919127
Si Si6 0.600318 0.515763 0.032609
Si Si7 0.888521 0.611655 0.913468
O O1 0.587766 0.234883 0.256303
O O2 0.729271 0.265166 0.247278
O O3 0.703521 0.982470 0.324273
O O4 0.640097 0.015835 0.167012
O O5 0.969899 0.439355 0.662274
O O6 0.710814 0.351672 0.855308
O O7 0.849140 0.143781 0.908303
O O8 0.750000 0.750000 0.500000
O O9 0.900731 0.726213 0.605065
O O10 0.861811 0.011685 0.538968
O O11 0.486529 0.121805 0.938347
O O12 0.623628 0.969131 0.006420
O O13 0.631912 0.688123 0.087441
O O14 0.500000 0.500000 0.000000
#
# Coordination Sequence:
#
# PCOD9266896 Si02
#       7
#     8   4   8   8   8   8   8
#     4  11  23  44  67  93 126 173 216 268 326 383
#     4  10  22  38  68  90 124 168 212 264 312 390
#     4  11  24  43  63  92 133 170 213 271 331 386
#     4  10  20  38  60  86 125 169 205 259 323 381
#     4  10  19  38  62  93 121 167 215 254 320 380
#     4  11  22  38  63  98 131 168 216 267 318 386
#     4  10  21  36  66  93 124 164 216 265 310 378
#
# _framework density 23.901389000000002
#
# number of rings (size 3 to 8) (size 9 to 14) (size 15 to 20)
#    0.000    1.538    3.077    2.769    4.308    0.000 
#    2.769    3.846    0.000    0.923    0.000    0.000 
#    0.000    0.000    0.000    0.000    0.000    0.000 
#
# Total GULP energy -144746.977386 kJ/mol
# GULP energy per Si atom -5567.191438 kJ/mol
# Density = 2.384699 g / cm^3
# Si number density = 23.901389 Si / 1000 Ang^3
#
#
#
# Elastic Constant Matrix: (Units=GPa)
#
#
# Indices 1 2 3 4 5 6 
#
# 1 150.6317 26.5598 16.2928 0.0000 -25.4786 0.0000
# 2 26.5598 55.2324 0.0416 0.0000 -3.3337 0.0000
# 3 16.2928 0.0416 60.3281 0.0000 -2.1440 0.0000
# 4 0.0000 0.0000 0.0000 13.5294 0.0000 -12.1009
# 5 -25.4786 -3.3337 -2.1440 0.0000 38.1949 0.0000
# 6 0.0000 0.0000 0.0000 -12.1009 0.0000 35.2284
#
#
#
# Elastic Compliance Matrix: (Units=1/GPa)
#
#
# Indices 1 2 3 4 5 6 
#
# 1 0.008392 -0.003723 -0.002081 0.000000 0.005157 0.000000
# 2 -0.003723 0.019853 0.000967 0.000000 -0.000696 0.000000
# 3 -0.002081 0.000967 0.017125 0.000000 -0.000342 0.000000
# 4 0.000000 0.000000 0.000000 0.106692 0.000000 0.036648
# 5 0.005157 -0.000696 -0.000342 0.000000 0.029541 0.000000
# 6 0.000000 0.000000 0.000000 0.036648 0.000000 0.040975
#
#
# Mechanical properties :
#
#
# Convention : Reuss Voigt Hill
#
# Bulk Modulus (GPa) = 28.01345 39.10895 33.56120
# Shear Modulus (GPa) = 20.47915 32.27707 26.37811
#
# Velocity S-wave (km/s) = 2.93032 3.67880 3.32569
# Velocity P-wave (km/s) = 4.81611 5.86881 5.36833
#
# Compressibility (1/GPa) = 0.03569714
#
# Stress axis : x y z
#
# Youngs Moduli (GPa) = 119.15539 50.37079 58.39369
#
# Poissons Ratio (x) = 0.18752 0.12150
# Poissons Ratio (y) = 0.44360 -0.05647
# Poissons Ratio (z) = 0.24793 -0.04871
#
# Static dielectric constant tensor:
#      x y z
#    x 1.992010 0.000000 -0.017980 
#    y 0.000000 1.909580 0.000000 
#    z -0.017980 0.000000 2.037570 
# 
# From -- ./inp_files/209223.got.cif
#   From: 2010.05.17/outbox.cif.g08.bks.cpg/sg15_105_cif.got.tgz:209223.got - 2010.06.03 18:47:42.
