data_PCOD9266845
_publ_section_title
;
Structure prediction by ZEFSAII (Michael W. Deem and Ramdas Pophale) SiO2 
 PCOD9266845
Probable space group: C 2/C
;
_chemical_formula_sum "Si O2"
_cell_formula_units_Z 60
_cell_length_a 12.404739
_cell_length_b 13.576059
_cell_length_c 22.682401
_cell_angle_alpha 90.000000
_cell_angle_beta 125.338209
_cell_angle_gamma 90.000000
_cell_volume 3116.079621
_symmetry_space_group_name_H-M "C 2/C"
_symmetry_group_IT_number 15
_symmetry_cell_setting 'monoclinic'
loop_
_space_group_symop_operation_xyz
x,y,z
-x,y,1/2-z
-x,-y,-z
x,-y,1/2+z
1/2+x,1/2+y,z
1/2-x,1/2+y,1/2-z
1/2-x,1/2-y,-z
1/2+x,1/2-y,1/2+z
loop_
_atom_site_type_symbol
_atom_site_label
_atom_site_fract_x
_atom_site_fract_y
_atom_site_fract_z
Si Si1 0.491298 0.444774 0.640047
Si Si2 0.520212 0.916954 0.428167
Si Si3 0.263732 0.166251 0.883951
Si Si4 0.901811 0.128735 0.437437
Si Si5 0.068558 0.726566 0.833360
Si Si6 0.500000 0.588149 0.750000
Si Si7 0.255314 0.558337 0.507582
Si Si8 0.337070 0.749653 0.967006
O O1 0.586099 0.444930 0.613476
O O2 0.481736 0.333264 0.660302
O O3 0.532011 0.517481 0.704904
O O4 0.347881 0.479668 0.571206
O O5 0.365584 0.918233 0.393848
O O6 0.536313 0.854545 0.372954
O O7 0.582620 0.851060 0.501164
O O8 0.610295 0.012988 0.452235
O O9 0.327196 0.272258 0.893406
O O10 0.125222 0.152007 0.808429
O O11 0.249461 0.149875 0.949372
O O12 0.827664 0.084728 0.469907
O O13 0.051874 0.165000 0.498834
O O14 0.228160 0.736921 0.882200
O O15 0.000000 0.703433 0.750000
O O16 0.250000 0.750000 0.000000
#
# Coordination Sequence:
#
# PCOD9266845 Si02
#       8
#     8   8   8   8   8   4   8   8
#     4  11  19  36  61  86 117 153 197 252 289 355
#     4  10  19  38  62  85 117 153 201 248 296 350
#     4  10  22  42  61  82 122 161 197 241 300 375
#     4  11  21  39  61  90 119 155 200 255 306 341
#     4  11  19  34  58  90 121 154 195 250 303 353
#     4  10  24  40  60  86 116 160 202 232 296 366
#     4  11  22  36  61  93 115 147 207 256 293 347
#     4   9  16  33  58  83 114 152 193 237 294 344
#
# _framework density 19.254963
#
# number of rings (size 3 to 8) (size 9 to 14) (size 15 to 20)
#    0.000    1.600    6.000    2.000    0.000    0.000 
#    7.200    1.333    0.000    0.000    0.000    0.000 
#    0.000    0.000    0.000    0.000    0.000    0.000 
#
# Total GULP energy -167415.592261 kJ/mol
# GULP energy per Si atom -5580.519742 kJ/mol
# Density = 1.921114 g / cm^3
# Si number density = 19.254963 Si / 1000 Ang^3
#
#
#
# Elastic Constant Matrix: (Units=GPa)
#
#
# Indices 1 2 3 4 5 6 
#
# 1 93.8140 10.1062 48.7330 0.0000 1.9269 0.0000
# 2 10.1062 33.3173 26.9192 0.0000 1.6154 0.0000
# 3 48.7330 26.9192 136.9974 0.0000 7.4957 0.0000
# 4 0.0000 0.0000 0.0000 10.5321 0.0000 -1.5401
# 5 1.9269 1.6154 7.4957 0.0000 24.9339 0.0000
# 6 0.0000 0.0000 0.0000 -1.5401 0.0000 35.1632
#
#
#
# Elastic Compliance Matrix: (Units=1/GPa)
#
#
# Indices 1 2 3 4 5 6 
#
# 1 0.013081 -0.000250 -0.004626 0.000000 0.000396 0.000000
# 2 -0.000250 0.035685 -0.006911 0.000000 -0.000215 0.000000
# 3 -0.004626 -0.006911 0.010430 0.000000 -0.002330 0.000000
# 4 0.000000 0.000000 0.000000 0.095560 0.000000 0.004186
# 5 0.000396 -0.000215 -0.002330 0.000000 0.040790 0.000000
# 6 0.000000 0.000000 0.000000 0.004186 0.000000 0.028622
#
#
# Mechanical properties :
#
#
# Convention : Reuss Voigt Hill
#
# Bulk Modulus (GPa) = 28.07193 48.40506 38.23850
# Shear Modulus (GPa) = 19.25919 26.01719 22.63819
#
# Velocity S-wave (km/s) = 3.16606 3.67985 3.43258
# Velocity P-wave (km/s) = 5.28923 6.57637 5.96760
#
# Compressibility (1/GPa) = 0.03562277
#
# Stress axis : x y z
#
# Youngs Moduli (GPa) = 76.44611 28.02324 95.87296
#
# Poissons Ratio (x) = 0.00699 0.44350
# Poissons Ratio (y) = 0.01908 0.66261
# Poissons Ratio (z) = 0.35363 0.19368
#
# Static dielectric constant tensor:
#      x y z
#    x 1.701590 0.000000 0.001380 
#    y 0.000000 1.707580 0.000000 
#    z 0.001380 0.000000 1.672860 
# 
# From -- ./inp_files/269963.got.cif
#   From: 2010.05.17/outbox.cif.g08.bks.cpg/sg15_135_cif.got.tgz:269963.got - 2010.06.03 18:47:42.
