data_PCOD9266732
_publ_section_title
;
Structure prediction by ZEFSAII (Michael W. Deem and Ramdas Pophale) SiO2 
 PCOD9266732
Probable space group: C 2/C
;
_chemical_formula_sum "Si O2"
_cell_formula_units_Z 56
_cell_length_a 14.553752
_cell_length_b 12.125919
_cell_length_c 19.868109
_cell_angle_alpha 90.000000
_cell_angle_beta 121.988891
_cell_angle_gamma 90.000000
_cell_volume 2973.851349
_symmetry_space_group_name_H-M "C 2/C"
_symmetry_group_IT_number 15
_symmetry_cell_setting 'monoclinic'
loop_
_space_group_symop_operation_xyz
x,y,z
-x,y,1/2-z
-x,-y,-z
x,-y,1/2+z
1/2+x,1/2+y,z
1/2-x,1/2+y,1/2-z
1/2-x,1/2-y,-z
1/2+x,1/2-y,1/2+z
loop_
_atom_site_type_symbol
_atom_site_label
_atom_site_fract_x
_atom_site_fract_y
_atom_site_fract_z
Si Si1 0.164093 0.549416 0.543423
Si Si2 0.712123 0.184077 0.696352
Si Si3 0.893779 0.497447 0.254332
Si Si4 0.331485 0.417530 0.875083
Si Si5 0.571284 0.361642 0.144346
Si Si6 0.433073 0.131873 0.405596
Si Si7 0.667237 0.353960 0.472940
O O1 0.194238 0.628647 0.617079
O O2 0.134720 0.433819 0.565381
O O3 0.261898 0.547167 0.529652
O O4 0.057408 0.600659 0.468117
O O5 0.676004 0.310612 0.675941
O O6 0.837617 0.163576 0.764423
O O7 0.640718 0.116485 0.722651
O O8 0.791217 0.536239 0.170950
O O9 0.908115 0.583569 0.321749
O O10 0.000000 0.490417 0.250000
O O11 0.404783 0.516941 0.875319
O O12 0.362967 0.377751 0.961658
O O13 0.589469 0.261053 0.099477
O O14 0.444450 0.345242 0.112005
O O15 0.750000 0.250000 0.500000
#
# Coordination Sequence:
#
# PCOD9266732 Si02
#       7
#     8   8   8   8   8   8   8
#     4  10  21  36  59  88 117 154 191 247 281 345
#     4  10  21  39  57  84 121 156 191 235 306 346
#     4  10  21  35  62  87 110 153 204 247 280 349
#     4  11  22  39  60  83 125 154 192 243 305 352
#     4  11  23  38  60  87 117 160 191 242 302 350
#     4  10  19  38  60  84 119 154 195 235 300 340
#     4  12  22  37  59  93 116 149 206 247 284 349
#
# _framework density 18.830801000000001
#
# number of rings (size 3 to 8) (size 9 to 14) (size 15 to 20)
#    0.000    1.429    4.286    1.286    0.000    0.571 
#    0.000    3.571    0.000    0.000    0.000    0.000 
#    0.000    0.000    0.000    0.000    0.000    0.000 
#
# Total GULP energy -156195.276894 kJ/mol
# GULP energy per Si atom -5578.402746 kJ/mol
# Density = 1.878794 g / cm^3
# Si number density = 18.830801 Si / 1000 Ang^3
#
#
#
# Elastic Constant Matrix: (Units=GPa)
#
#
# Indices 1 2 3 4 5 6 
#
# 1 68.7860 24.7187 11.5315 0.0000 18.3580 0.0000
# 2 24.7187 118.9341 10.3150 0.0000 5.4733 0.0000
# 3 11.5315 10.3150 62.1741 0.0000 17.6404 0.0000
# 4 0.0000 0.0000 0.0000 24.2167 0.0000 2.1841
# 5 18.3580 5.4733 17.6404 0.0000 24.1921 0.0000
# 6 0.0000 0.0000 0.0000 2.1841 0.0000 20.7958
#
#
#
# Elastic Compliance Matrix: (Units=1/GPa)
#
#
# Indices 1 2 3 4 5 6 
#
# 1 0.019576 -0.003484 0.001183 0.000000 -0.014930 0.000000
# 2 -0.003484 0.009176 -0.001308 0.000000 0.001522 0.000000
# 3 0.001183 -0.001308 0.020492 0.000000 -0.015544 0.000000
# 4 0.000000 0.000000 0.000000 0.041689 0.000000 -0.004378
# 5 -0.014930 0.001522 -0.015544 0.000000 0.063655 0.000000
# 6 0.000000 0.000000 0.000000 -0.004378 0.000000 0.048546
#
#
# Mechanical properties :
#
#
# Convention : Reuss Voigt Hill
#
# Bulk Modulus (GPa) = 23.79501 38.11385 30.95443
# Shear Modulus (GPa) = 22.28566 27.39619 24.84093
#
# Velocity S-wave (km/s) = 3.44389 3.81840 3.63597
# Velocity P-wave (km/s) = 5.33643 6.30273 5.83960
#
# Compressibility (1/GPa) = 0.04202561
#
# Stress axis : x y z
#
# Youngs Moduli (GPa) = 51.08287 108.98531 48.80047
#
# Poissons Ratio (x) = 0.37972 -0.05774
# Poissons Ratio (y) = 0.17798 0.06382
# Poissons Ratio (z) = -0.06044 0.14253
#
# Static dielectric constant tensor:
#      x y z
#    x 1.645960 0.000000 0.022610 
#    y 0.000000 1.685080 0.000000 
#    z 0.022610 0.000000 1.669480 
# 
# From -- ./inp_files/204531.got.cif
#   From: 2010.05.17/outbox.cif.g08.bks.cpg/sg15_103_cif.got.tgz:204531.got - 2010.06.03 18:47:42.
