data_PCOD9266733
_publ_section_title
;
Structure prediction by ZEFSAII (Michael W. Deem and Ramdas Pophale) SiO2 
 PCOD9266733
Probable space group: C 2/C
;
_chemical_formula_sum "Si O2"
_cell_formula_units_Z 56
_cell_length_a 9.697609
_cell_length_b 11.160252
_cell_length_c 32.064635
_cell_angle_alpha 90.000000
_cell_angle_beta 57.161741
_cell_angle_gamma 90.000000
_cell_volume 2915.748591
_symmetry_space_group_name_H-M "C 2/C"
_symmetry_group_IT_number 15
_symmetry_cell_setting 'monoclinic'
loop_
_space_group_symop_operation_xyz
x,y,z
-x,y,1/2-z
-x,-y,-z
x,-y,1/2+z
1/2+x,1/2+y,z
1/2-x,1/2+y,1/2-z
1/2-x,1/2-y,-z
1/2+x,1/2-y,1/2+z
loop_
_atom_site_type_symbol
_atom_site_label
_atom_site_fract_x
_atom_site_fract_y
_atom_site_fract_z
Si Si1 0.512827 0.317738 0.650211
Si Si2 0.883453 0.685516 0.948622
Si Si3 0.259666 0.778564 0.087806
Si Si4 0.639955 0.172777 0.194052
Si Si5 0.370860 0.889518 0.307451
Si Si6 0.021366 0.060036 0.876602
Si Si7 0.157382 0.986289 0.945181
O O1 0.561470 0.278579 0.595770
O O2 0.316333 0.320639 0.688009
O O3 0.592213 0.215524 0.665537
O O4 0.553383 0.458815 0.641920
O O5 0.796401 0.574845 0.939917
O O6 0.061072 0.659138 0.939971
O O7 0.750000 0.750000 0.000000
O O8 0.175594 0.752070 0.147081
O O9 0.284603 0.649692 0.063529
O O10 0.125394 0.855279 0.086311
O O11 0.500000 0.208824 0.250000
O O12 0.604927 0.032991 0.186639
O O13 0.500000 0.866322 0.250000
O O14 0.178025 0.880394 0.328315
O O15 0.102264 0.013285 0.906589
O O16 0.000000 0.000000 0.000000
#
# Coordination Sequence:
#
# PCOD9266733 Si02
#       7
#     8   8   8   8   8   8   8
#     4  10  19  38  60  84 123 158 200 248 301 355
#     4  11  20  40  64  85 120 163 195 249 310 355
#     4  11  23  39  62  93 118 160 204 246 307 359
#     4   9  19  37  59  87 118 158 199 246 296 359
#     4  10  20  37  63  87 120 167 199 246 307 355
#     4  11  23  40  61  91 124 154 205 254 291 367
#     4  12  22  43  64  86 122 161 200 254 307 360
#
# _framework density 19.206045
#
# number of rings (size 3 to 8) (size 9 to 14) (size 15 to 20)
#    0.000    1.429    7.143    0.000    2.000    1.714 
#    0.000    2.143    0.000    0.000    0.000    0.000 
#    0.000    0.000    0.000    0.000    0.000    0.000 
#
# Total GULP energy -155874.630080 kJ/mol
# GULP energy per Si atom -5566.951074 kJ/mol
# Density = 1.916233 g / cm^3
# Si number density = 19.206045 Si / 1000 Ang^3
#
#
#
# Elastic Constant Matrix: (Units=GPa)
#
#
# Indices 1 2 3 4 5 6 
#
# 1 76.1775 57.3328 18.1164 0.0000 -24.9204 0.0000
# 2 57.3328 77.3000 -0.1451 0.0000 -14.1079 0.0000
# 3 18.1164 -0.1451 102.6855 0.0000 -35.5653 0.0000
# 4 0.0000 0.0000 0.0000 21.0942 0.0000 -14.1020
# 5 -24.9204 -14.1079 -35.5653 0.0000 31.9300 0.0000
# 6 0.0000 0.0000 0.0000 -14.1020 0.0000 29.0034
#
#
#
# Elastic Compliance Matrix: (Units=1/GPa)
#
#
# Indices 1 2 3 4 5 6 
#
# 1 0.037698 -0.024670 -0.000441 0.000000 0.018031 0.000000
# 2 -0.024670 0.031053 0.004037 0.000000 -0.001038 0.000000
# 3 -0.000441 0.004037 0.016803 0.000000 0.020156 0.000000
# 4 0.000000 0.000000 0.000000 0.070237 0.000000 0.034150
# 5 0.018031 -0.001038 0.020156 0.000000 0.067383 0.000000
# 6 0.000000 0.000000 0.000000 0.034150 0.000000 0.051083
#
#
# Mechanical properties :
#
#
# Convention : Reuss Voigt Hill
#
# Bulk Modulus (GPa) = 23.03867 45.19679 34.11773
# Shear Modulus (GPa) = 15.11153 28.46279 21.78716
#
# Velocity S-wave (km/s) = 2.80806 3.85381 3.37173
# Velocity P-wave (km/s) = 4.74712 6.58682 5.74114
#
# Compressibility (1/GPa) = 0.04340528
#
# Stress axis : x y z
#
# Youngs Moduli (GPa) = 26.52659 32.20341 59.51371
#
# Poissons Ratio (x) = 0.79447 0.02623
# Poissons Ratio (y) = 0.65442 -0.24026
# Poissons Ratio (z) = 0.01169 -0.13001
#
# Static dielectric constant tensor:
#      x y z
#    x 1.704370 0.000000 0.002290 
#    y 0.000000 1.697680 0.000000 
#    z 0.002290 0.000000 1.697410 
# 
# From -- ./inp_files/307073.got.cif
#   From: 2010.05.17/outbox.cif.g08.bks.cpg/sg15_154_cif.got.tgz:307073.got - 2010.06.03 18:47:42.
