data_PCOD9266900
_publ_section_title
;
Structure prediction by ZEFSAII (Michael W. Deem and Ramdas Pophale) SiO2 
 PCOD9266900
Probable space group: C 2/C
;
_chemical_formula_sum "Si O2"
_cell_formula_units_Z 48
_cell_length_a 12.422469
_cell_length_b 7.937561
_cell_length_c 27.331873
_cell_angle_alpha 90.000000
_cell_angle_beta 48.989316
_cell_angle_gamma 90.000000
_cell_volume 2033.638914
_symmetry_space_group_name_H-M "C 2/C"
_symmetry_group_IT_number 15
_symmetry_cell_setting 'monoclinic'
loop_
_space_group_symop_operation_xyz
x,y,z
-x,y,1/2-z
-x,-y,-z
x,-y,1/2+z
1/2+x,1/2+y,z
1/2-x,1/2+y,1/2-z
1/2-x,1/2-y,-z
1/2+x,1/2-y,1/2+z
loop_
_atom_site_type_symbol
_atom_site_label
_atom_site_fract_x
_atom_site_fract_y
_atom_site_fract_z
Si Si1 0.149610 0.870490 0.316001
Si Si2 0.852036 0.691439 0.924958
Si Si3 0.329241 0.453093 0.791229
Si Si4 0.061188 0.581264 0.030925
Si Si5 0.608075 0.422464 0.428483
Si Si6 0.845140 0.059955 0.891187
O O1 0.253452 0.724379 0.303943
O O2 0.140446 0.998353 0.365545
O O3 0.201107 0.944675 0.249225
O O4 0.984618 0.825039 0.352185
O O5 0.949113 0.550586 0.921445
O O6 0.753755 0.605739 0.913582
O O7 0.898162 0.868958 0.888003
O O8 0.750000 0.750000 0.000000
O O9 0.500000 0.433631 0.750000
O O10 0.281344 0.544633 0.855751
O O11 0.972242 0.750224 0.062219
O O12 0.226903 0.610888 0.966287
O O13 0.000000 0.500000 0.000000
O O14 0.500000 0.500000 0.500000
#
# Coordination Sequence:
#
# PCOD9266900 Si02
#       6
#     8   8   8   8   8   8
#     4  11  24  45  70  95 133 176 230 282 335 398
#     4  10  19  38  62  94 135 176 216 265 336 403
#     4  10  23  48  69  91 129 179 231 281 335 395
#     4  11  21  38  67 101 140 184 215 262 347 414
#     4  12  24  40  64 104 141 173 223 279 339 411
#     4  10  21  43  70  96 137 176 226 284 337 404
#
# _framework density 23.603009
#
# number of rings (size 3 to 8) (size 9 to 14) (size 15 to 20)
#    0.000    1.333    5.000    2.000    0.000    4.000 
#    9.000    7.500    0.000    0.000    0.000    0.000 
#    0.000    0.000    0.000    0.000    0.000    0.000 
#
# Total GULP energy -134016.808809 kJ/mol
# GULP energy per Si atom -5584.033700 kJ/mol
# Density = 2.354929 g / cm^3
# Si number density = 23.603009 Si / 1000 Ang^3
#
#
#
# Elastic Constant Matrix: (Units=GPa)
#
#
# Indices 1 2 3 4 5 6 
#
# 1 146.0839 38.9986 32.6698 0.0000 36.9986 0.0000
# 2 38.9986 52.8418 19.4660 0.0000 16.4647 0.0000
# 3 32.6698 19.4660 100.5313 0.0000 42.9584 0.0000
# 4 0.0000 0.0000 0.0000 24.9788 0.0000 9.8818
# 5 36.9986 16.4647 42.9584 0.0000 60.3265 0.0000
# 6 0.0000 0.0000 0.0000 9.8818 0.0000 59.0631
#
#
#
# Elastic Compliance Matrix: (Units=1/GPa)
#
#
# Indices 1 2 3 4 5 6 
#
# 1 0.009427 -0.005598 -0.000233 0.000000 -0.004088 0.000000
# 2 -0.005598 0.024381 -0.002193 0.000000 -0.001660 0.000000
# 3 -0.000233 -0.002193 0.014562 0.000000 -0.009628 0.000000
# 4 0.000000 0.000000 0.000000 0.042872 0.000000 -0.007173
# 5 -0.004088 -0.001660 -0.009628 0.000000 0.026393 0.000000
# 6 0.000000 0.000000 0.000000 -0.007173 0.000000 0.018131
#
#
# Mechanical properties :
#
#
# Convention : Reuss Voigt Hill
#
# Bulk Modulus (GPa) = 30.93761 53.52510 42.23135
# Shear Modulus (GPa) = 30.75295 42.76185 36.75740
#
# Velocity S-wave (km/s) = 3.61352 4.26104 3.95057
# Velocity P-wave (km/s) = 5.52684 6.85092 6.22419
#
# Compressibility (1/GPa) = 0.03232311
#
# Stress axis : x y z
#
# Youngs Moduli (GPa) = 106.07483 41.01605 68.67399
#
# Poissons Ratio (x) = 0.22961 0.01598
# Poissons Ratio (y) = 0.59381 0.15057
# Poissons Ratio (z) = 0.02468 0.08993
#
# Static dielectric constant tensor:
#      x y z
#    x 1.913060 0.000000 -0.019310 
#    y 0.000000 1.949280 0.000000 
#    z -0.019310 0.000000 2.103170 
# 
# From -- ./inp_files/291051.got.cif
#   From: 2010.05.17/outbox.cif.g08.bks.cpg/sg15_146_cif.got.tgz:291051.got - 2010.06.03 18:47:42.
