data_PCOD9266503
_publ_section_title
;
Structure prediction by ZEFSAII (Michael W. Deem and Ramdas Pophale) SiO2 
 PCOD9266503
Probable space group: C 2/C
;
_chemical_formula_sum "Si O2"
_cell_formula_units_Z 48
_cell_length_a 19.031393
_cell_length_b 7.967456
_cell_length_c 19.362342
_cell_angle_alpha 90.000000
_cell_angle_beta 43.880991
_cell_angle_gamma 90.000000
_cell_volume 2035.088704
_symmetry_space_group_name_H-M "C 2/C"
_symmetry_group_IT_number 15
_symmetry_cell_setting 'monoclinic'
loop_
_space_group_symop_operation_xyz
x,y,z
-x,y,1/2-z
-x,-y,-z
x,-y,1/2+z
1/2+x,1/2+y,z
1/2-x,1/2+y,1/2-z
1/2-x,1/2-y,-z
1/2+x,1/2-y,1/2+z
loop_
_atom_site_type_symbol
_atom_site_label
_atom_site_fract_x
_atom_site_fract_y
_atom_site_fract_z
Si Si1 0.689595 0.853069 0.937100
Si Si2 0.639990 0.490061 0.771826
Si Si3 0.000000 0.131746 0.250000
Si Si4 0.500000 0.153383 0.250000
Si Si5 0.835308 0.401974 0.393280
Si Si6 0.967366 0.686176 0.118892
Si Si7 0.450740 0.819071 0.081876
O O1 0.751203 0.459191 0.662336
O O2 0.749621 0.679036 0.906855
O O3 0.700650 0.942304 0.004205
O O4 0.573112 0.814609 0.005396
O O5 0.566312 0.471778 0.756798
O O6 0.615996 0.665696 0.825863
O O7 0.606862 0.333708 0.842440
O O8 0.079884 0.255253 0.156571
O O9 0.396398 0.048162 0.314017
O O10 0.514809 0.213777 0.161005
O O11 0.925342 0.497725 0.135517
O O12 0.052995 0.696650 0.998494
#
# Coordination Sequence:
#
# PCOD9266503 Si02
#       7
#     8   8   4   4   8   8   8
#     4  10  19  37  65  97 129 165 227 262 321 398
#     4  11  22  40  65  96 126 174 222 268 324 393
#     4   9  15  32  64  89 129 168 211 259 318 383
#     4  11  19  42  64  97 133 170 217 277 338 389
#     4   9  17  33  65  96 124 175 209 264 329 388
#     4  11  24  41  66  92 128 171 222 267 335 395
#     4  11  23  46  64  91 136 180 209 277 335 392
#
# _framework density 23.586195
#
# number of rings (size 3 to 8) (size 9 to 14) (size 15 to 20)
#    0.000    1.667    3.333    3.000    0.000    0.000 
#    9.000    4.167    0.000    0.000    0.000    0.000 
#    0.000    0.000    0.000    0.000    0.000    0.000 
#
# Total GULP energy -133957.048316 kJ/mol
# GULP energy per Si atom -5581.543680 kJ/mol
# Density = 2.353251 g / cm^3
# Si number density = 23.586195 Si / 1000 Ang^3
#
#
#
# Elastic Constant Matrix: (Units=GPa)
#
#
# Indices 1 2 3 4 5 6 
#
# 1 70.7422 13.1321 26.9082 0.0000 7.6218 -0.0002
# 2 13.1321 108.6821 72.1539 0.0001 -7.1065 -0.0003
# 3 26.9082 72.1539 169.0226 0.0000 17.6644 -0.0001
# 4 0.0000 0.0001 0.0000 8.5600 0.0000 -8.8891
# 5 7.6218 -7.1065 17.6644 0.0000 46.7921 0.0001
# 6 -0.0002 -0.0003 -0.0001 -8.8891 0.0001 -5.3996
#
#
#
# Elastic Compliance Matrix: (Units=1/GPa)
#
#
# Indices 1 2 3 4 5 6 
#
# 1 0.015197 -0.000668 -0.001942 0.000000 -0.001844 0.000000
# 2 -0.000668 0.013708 -0.006220 0.000000 0.004539 0.000000
# 3 -0.001942 -0.006220 0.009314 0.000000 -0.004144 0.000000
# 4 0.000000 0.000000 0.000000 0.043115 0.000000 -0.070978
# 5 -0.001844 0.004539 -0.004144 0.000000 0.023925 0.000000
# 6 0.000000 0.000000 0.000000 -0.070978 0.000000 -0.068350
#
#
# Mechanical properties :
#
#
# Convention : Reuss Voigt Hill
#
# Bulk Modulus (GPa) = 48.63740 63.64838 56.14289
# Shear Modulus (GPa) = 81.40574 25.74067 53.57321
#
# Velocity S-wave (km/s) = 5.88125 3.30713 4.77107
# Velocity P-wave (km/s) = 8.17219 6.45189 7.36246
#
# Compressibility (1/GPa) = 0.02056031
#
# Stress axis : x y z
#
# Youngs Moduli (GPa) = 65.80255 72.95059 107.36829
#
# Poissons Ratio (x) = 0.04872 0.20846
# Poissons Ratio (y) = 0.04395 0.66781
# Poissons Ratio (z) = 0.12776 0.45374
#
# Static dielectric constant tensor:
#      x y z
#    x 1.942520 0.000000 0.051060 
#    y 0.000000 1.964280 0.000000 
#    z 0.051060 0.000000 1.937350 
# 
# From -- ./inp_files/209000.got.cif
#   From: 2010.05.17/outbox.cif.g08.bks.cpg/sg15_105_cif.got.tgz:209000.got - 2010.06.03 18:47:42.
