data_PCOD9266662
_publ_section_title
;
Structure prediction by ZEFSAII (Michael W. Deem and Ramdas Pophale) SiO2 
 PCOD9266662
Probable space group: C 2/C
;
_chemical_formula_sum "Si O2"
_cell_formula_units_Z 48
_cell_length_a 20.124257
_cell_length_b 9.253940
_cell_length_c 17.324526
_cell_angle_alpha 90.000000
_cell_angle_beta 39.817354
_cell_angle_gamma 90.000000
_cell_volume 2065.951564
_symmetry_space_group_name_H-M "C 2/C"
_symmetry_group_IT_number 15
_symmetry_cell_setting 'monoclinic'
loop_
_space_group_symop_operation_xyz
x,y,z
-x,y,1/2-z
-x,-y,-z
x,-y,1/2+z
1/2+x,1/2+y,z
1/2-x,1/2+y,1/2-z
1/2-x,1/2-y,-z
1/2+x,1/2-y,1/2+z
loop_
_atom_site_type_symbol
_atom_site_label
_atom_site_fract_x
_atom_site_fract_y
_atom_site_fract_z
Si Si1 0.212033 0.942677 0.549176
Si Si2 0.621661 0.958508 0.227394
Si Si3 0.087243 0.976324 0.858986
Si Si4 0.749570 0.212043 0.321992
Si Si5 0.897917 0.792140 0.286577
Si Si6 0.057794 0.750353 0.582852
O O1 0.316174 0.927985 0.407079
O O2 0.232899 0.873674 0.613107
O O3 0.125872 0.847552 0.581363
O O4 0.179807 0.108946 0.591988
O O5 0.691497 0.866027 0.226135
O O6 0.504805 0.894490 0.337271
O O7 0.623510 0.131162 0.224452
O O8 0.097098 0.115424 0.796682
O O9 0.194166 0.895468 0.788320
O O10 0.036834 0.856060 0.849228
O O11 0.000000 0.000000 0.000000
O O12 0.626365 0.233371 0.443001
O O13 0.000000 0.786671 0.250000
#
# Coordination Sequence:
#
# PCOD9266662 Si02
#       6
#     8   8   8   8   8   8
#     4  10  20  35  55  87 126 150 188 236 300 346
#     4  10  21  32  57  88 120 149 189 245 289 343
#     4  10  22  43  61  79 119 161 195 237 296 354
#     4   9  21  35  59  86 113 157 199 238 289 353
#     4  11  22  35  57  90 118 148 191 245 295 342
#     4  10  19  38  58  87 116 158 194 234 292 354
#
# _framework density 23.233846
#
# number of rings (size 3 to 8) (size 9 to 14) (size 15 to 20)
#    0.000    2.000    1.667    2.500    4.667    2.667 
#    0.000    8.333    0.000    0.000    0.000    0.000 
#    0.000    0.000    0.000    0.000    0.000    0.000 
#
# Total GULP energy -133734.479529 kJ/mol
# GULP energy per Si atom -5572.269980 kJ/mol
# Density = 2.318096 g / cm^3
# Si number density = 23.233846 Si / 1000 Ang^3
#
#
#
# Elastic Constant Matrix: (Units=GPa)
#
#
# Indices 1 2 3 4 5 6 
#
# 1 26.3375 28.3440 8.8952 0.0000 -14.0689 0.0000
# 2 28.3440 218.6555 59.1286 -0.0001 -15.7828 0.0000
# 3 8.8952 59.1286 139.4158 0.0000 -16.2094 0.0000
# 4 0.0000 -0.0001 0.0000 41.9603 0.0000 -8.1185
# 5 -14.0689 -15.7828 -16.2094 0.0000 28.1294 0.0000
# 6 0.0000 0.0000 0.0000 -8.1185 0.0000 24.2580
#
#
#
# Elastic Compliance Matrix: (Units=1/GPa)
#
#
# Indices 1 2 3 4 5 6 
#
# 1 0.058255 -0.006159 0.002016 0.000000 0.026842 0.000000
# 2 -0.006159 0.005899 -0.002232 0.000000 -0.001057 0.000000
# 3 0.002016 -0.002232 0.008534 0.000000 0.004674 0.000000
# 4 0.000000 0.000000 0.000000 0.025482 0.000000 0.008528
# 5 0.026842 -0.001057 0.004674 0.000000 0.051076 0.000000
# 6 0.000000 0.000000 0.000000 0.008528 0.000000 0.044078
#
#
# Mechanical properties :
#
#
# Convention : Reuss Voigt Hill
#
# Bulk Modulus (GPa) = 16.68381 64.12716 40.40548
# Shear Modulus (GPa) = 22.11880 38.07229 30.09555
#
# Velocity S-wave (km/s) = 3.08881 4.05242 3.60298
# Velocity P-wave (km/s) = 4.46289 7.03966 5.89382
#
# Compressibility (1/GPa) = 0.05993835
#
# Stress axis : x y z
#
# Youngs Moduli (GPa) = 17.16601 169.51884 117.17693
#
# Poissons Ratio (x) = 1.04410 -0.23626
# Poissons Ratio (y) = 0.10573 0.26151
# Poissons Ratio (z) = -0.03461 0.37833
#
# Static dielectric constant tensor:
#      x y z
#    x 1.968310 0.000000 -0.018070 
#    y 0.000000 1.920020 0.000000 
#    z -0.018070 0.000000 1.974330 
# 
# From -- ./inp_files/257127.got.cif
#   From: 2010.05.17/outbox.cif.g08.bks.cpg/sg15_129_cif.got.tgz:257127.got - 2010.06.03 18:47:42.
