data_PCOD9266948
_publ_section_title
;
Structure prediction by ZEFSAII (Michael W. Deem and Ramdas Pophale) SiO2 
 PCOD9266948
Probable space group: C 2/C
;
_chemical_formula_sum "Si O2"
_cell_formula_units_Z 64
_cell_length_a 6.931599
_cell_length_b 15.763093
_cell_length_c 24.624619
_cell_angle_alpha 90.000000
_cell_angle_beta 92.176354
_cell_angle_gamma 90.000000
_cell_volume 2688.629794
_symmetry_space_group_name_H-M "C 2/C"
_symmetry_group_IT_number 15
_symmetry_cell_setting 'monoclinic'
loop_
_space_group_symop_operation_xyz
x,y,z
-x,y,1/2-z
-x,-y,-z
x,-y,1/2+z
1/2+x,1/2+y,z
1/2-x,1/2+y,1/2-z
1/2-x,1/2-y,-z
1/2+x,1/2-y,1/2+z
loop_
_atom_site_type_symbol
_atom_site_label
_atom_site_fract_x
_atom_site_fract_y
_atom_site_fract_z
Si Si1 0.860088 0.669677 0.527286
Si Si2 0.292790 0.814052 0.721848
Si Si3 0.282756 0.120257 0.099726
Si Si4 0.048714 0.090920 0.477463
Si Si5 0.235719 0.504539 0.259426
Si Si6 0.810607 0.197044 0.562829
Si Si7 0.335529 0.061683 0.627063
Si Si8 0.771171 0.636459 0.822127
O O1 0.750000 0.750000 0.500000
O O2 0.779175 0.601401 0.482996
O O3 0.771382 0.632509 0.583092
O O4 0.082973 0.683967 0.545041
O O5 0.500000 0.795014 0.750000
O O6 0.313556 0.851686 0.661632
O O7 0.195554 0.722746 0.712013
O O8 0.208714 0.897298 0.750924
O O9 0.354756 0.202472 0.067597
O O10 0.369185 0.026350 0.094561
O O11 0.056870 0.108843 0.080571
O O12 0.933574 0.151189 0.518494
O O13 0.000000 0.000000 0.500000
O O14 0.279124 0.469608 0.320644
O O15 0.310462 0.437269 0.216675
O O16 0.000000 0.506013 0.250000
O O17 0.840928 0.159775 0.623742
O O18 0.527808 0.100591 0.654137
#
# Coordination Sequence:
#
# PCOD9266948 Si02
#       8
#     8   8   8   8   8   8   8   8
#     4  11  22  38  61  94 132 168 215 270 323 380
#     4   9  18  34  57  88 117 161 212 265 324 388
#     4  10  19  38  63  90 123 166 216 266 320 389
#     4  12  24  42  65  93 131 178 220 265 331 394
#     4   8  15  32  60  81 112 155 209 255 318 387
#     4  10  23  41  65  94 133 166 219 270 325 386
#     4   9  18  35  60  90 119 171 213 256 327 385
#     4   9  18  36  60  90 124 159 211 274 316 386
#
# _framework density 23.803947000000001
#
# number of rings (size 3 to 8) (size 9 to 14) (size 15 to 20)
#    0.000    2.250    2.500    1.125    0.000    0.500 
#    4.500    0.000    2.750    2.250    0.000    0.000 
#    0.000    0.000    0.000    0.000    0.000    0.000 
#
# Total GULP energy -178310.668975 kJ/mol
# GULP energy per Si atom -5572.208405 kJ/mol
# Density = 2.374977 g / cm^3
# Si number density = 23.803947 Si / 1000 Ang^3
#
#
#
# Elastic Constant Matrix: (Units=GPa)
#
#
# Indices 1 2 3 4 5 6 
#
# 1 96.9229 44.2575 37.8743 0.0000 15.8820 0.0000
# 2 44.2575 185.0860 53.8205 0.0000 3.5132 0.0000
# 3 37.8743 53.8205 116.1809 0.0000 30.0888 0.0000
# 4 0.0000 0.0000 0.0000 49.5856 0.0000 8.9943
# 5 15.8820 3.5132 30.0888 0.0000 32.3843 0.0000
# 6 0.0000 0.0000 0.0000 8.9943 0.0000 24.3222
#
#
#
# Elastic Compliance Matrix: (Units=1/GPa)
#
#
# Indices 1 2 3 4 5 6 
#
# 1 0.012892 -0.002424 -0.001989 0.000000 -0.004212 0.000000
# 2 -0.002424 0.006877 -0.003306 0.000000 0.003514 0.000000
# 3 -0.001989 -0.003306 0.013750 0.000000 -0.011441 0.000000
# 4 0.000000 0.000000 0.000000 0.021617 0.000000 -0.007994
# 5 -0.004212 0.003514 -0.011441 0.000000 0.043194 0.000000
# 6 0.000000 0.000000 0.000000 -0.007994 0.000000 0.044071
#
#
# Mechanical properties :
#
#
# Convention : Reuss Voigt Hill
#
# Bulk Modulus (GPa) = 55.30566 74.45492 64.88029
# Shear Modulus (GPa) = 30.51282 38.74093 34.62688
#
# Velocity S-wave (km/s) = 3.58416 4.03861 3.81815
# Velocity P-wave (km/s) = 6.35709 7.28652 6.83761
#
# Compressibility (1/GPa) = 0.01808133
#
# Stress axis : x y z
#
# Youngs Moduli (GPa) = 77.56861 145.40950 72.72715
#
# Poissons Ratio (x) = 0.35253 0.14464
# Poissons Ratio (y) = 0.18806 0.24041
# Poissons Ratio (z) = 0.15427 0.48066
#
# Static dielectric constant tensor:
#      x y z
#    x 1.994160 0.000000 0.000560 
#    y 0.000000 2.026520 0.000000 
#    z 0.000560 0.000000 1.953410 
# 
# From -- ./inp_files/288781.got.cif
#   From: 2010.05.17/outbox.cif.g08.bks.cpg/sg15_145_cif.got.tgz:288781.got - 2010.06.03 18:47:42.
