data_PCOD9266449
_publ_section_title
;
Structure prediction by ZEFSAII (Michael W. Deem and Ramdas Pophale) SiO2 
 PCOD9266449
Probable space group: C 2/C
;
_chemical_formula_sum "Si O2"
_cell_formula_units_Z 52
_cell_length_a 11.437133
_cell_length_b 14.130937
_cell_length_c 16.093849
_cell_angle_alpha 90.000000
_cell_angle_beta 67.159692
_cell_angle_gamma 90.000000
_cell_volume 2397.098889
_symmetry_space_group_name_H-M "C 2/C"
_symmetry_group_IT_number 15
_symmetry_cell_setting 'monoclinic'
loop_
_space_group_symop_operation_xyz
x,y,z
-x,y,1/2-z
-x,-y,-z
x,-y,1/2+z
1/2+x,1/2+y,z
1/2-x,1/2+y,1/2-z
1/2-x,1/2-y,-z
1/2+x,1/2-y,1/2+z
loop_
_atom_site_type_symbol
_atom_site_label
_atom_site_fract_x
_atom_site_fract_y
_atom_site_fract_z
Si Si1 0.578458 0.224397 0.873527
Si Si2 0.027691 0.940005 0.837688
Si Si3 0.224621 0.085507 0.002251
Si Si4 0.791762 0.464039 0.840463
Si Si5 0.140058 0.253976 0.733072
Si Si6 0.378277 0.230120 0.064668
Si Si7 0.000000 0.600489 0.750000
O O1 0.559568 0.328603 0.839774
O O2 0.728277 0.200787 0.826735
O O3 0.492581 0.162334 0.835024
O O4 0.516295 0.224771 0.982099
O O5 0.151780 0.984153 0.844105
O O6 0.000000 0.962390 0.750000
O O7 0.902681 0.958498 0.925017
O O8 0.184498 0.173069 0.953168
O O9 0.295387 0.003316 0.933045
O O10 0.302464 0.138748 0.052250
O O11 0.838048 0.356801 0.816279
O O12 0.883804 0.532176 0.765739
O O13 0.132801 0.267986 0.833964
O O14 0.000000 0.214842 0.750000
#
# Coordination Sequence:
#
# PCOD9266449 Si02
#       7
#     8   8   8   8   8   8   4
#     4  10  21  38  68  93 121 170 225 267 301 383
#     4  10  20  37  62  95 131 169 207 265 326 380
#     4  10  19  37  64  97 121 161 225 267 301 384
#     4  11  22  36  58  90 133 169 202 264 327 373
#     4  11  24  42  59  92 137 169 201 269 343 383
#     4  10  21  38  67  96 122 166 225 267 307 381
#     4  12  20  40  62  96 122 168 224 262 298 388
#
# _framework density 21.692889000000001
#
# number of rings (size 3 to 8) (size 9 to 14) (size 15 to 20)
#    0.000    1.538    3.077    3.231    2.154    0.615 
#    0.000    7.692    0.000    3.692    0.000    0.000 
#    0.000    0.000    0.000    0.000    0.000    0.000 
#
# Total GULP energy -145189.744491 kJ/mol
# GULP energy per Si atom -5584.220942 kJ/mol
# Density = 2.164352 g / cm^3
# Si number density = 21.692889 Si / 1000 Ang^3
#
#
#
# Elastic Constant Matrix: (Units=GPa)
#
#
# Indices 1 2 3 4 5 6 
#
# 1 100.7600 7.5936 33.0081 0.0000 -19.1970 0.0000
# 2 7.5936 33.2822 5.3518 0.0000 -4.6611 0.0000
# 3 33.0081 5.3518 69.4443 0.0000 -18.4508 0.0000
# 4 0.0000 0.0000 0.0000 25.5896 0.0000 0.0110
# 5 -19.1970 -4.6611 -18.4508 0.0000 28.5678 0.0000
# 6 0.0000 0.0000 0.0000 0.0110 0.0000 32.7353
#
#
#
# Elastic Compliance Matrix: (Units=1/GPa)
#
#
# Indices 1 2 3 4 5 6 
#
# 1 0.012489 -0.001395 -0.004417 0.000000 0.005312 0.000000
# 2 -0.001395 0.030995 -0.000762 0.000000 0.003628 0.000000
# 3 -0.004417 -0.000762 0.018996 0.000000 0.009176 0.000000
# 4 0.000000 0.000000 0.000000 0.039078 0.000000 -0.000013
# 5 0.005312 0.003628 0.009176 0.000000 0.045092 0.000000
# 6 0.000000 0.000000 0.000000 -0.000013 0.000000 0.030548
#
#
# Mechanical properties :
#
#
# Convention : Reuss Voigt Hill
#
# Bulk Modulus (GPa) = 20.27093 32.82147 26.54620
# Shear Modulus (GPa) = 24.17895 27.88072 26.02983
#
# Velocity S-wave (km/s) = 3.34219 3.58892 3.46775
# Velocity P-wave (km/s) = 4.92528 5.68654 5.31955
#
# Compressibility (1/GPa) = 0.04933172
#
# Stress axis : x y z
#
# Youngs Moduli (GPa) = 80.07177 32.26334 52.64133
#
# Poissons Ratio (x) = 0.04501 0.23254
# Poissons Ratio (y) = 0.11172 0.04009
# Poissons Ratio (z) = 0.35371 0.02457
#
# Static dielectric constant tensor:
#      x y z
#    x 1.839930 0.000000 -0.034700 
#    y 0.000000 1.780600 0.000000 
#    z -0.034700 0.000000 1.779250 
# 
# From -- ./inp_files/144178.got.cif
#   From: 2010.05.17/outbox.cif.g08.bks.cpg/sg15_73_cif.got.tgz:144178.got - 2010.06.03 18:47:42.
