data_PCOD9266770
_publ_section_title
;
Structure prediction by ZEFSAII (Michael W. Deem and Ramdas Pophale) SiO2 
 PCOD9266770
Probable space group: C 2/C
;
_chemical_formula_sum "Si O2"
_cell_formula_units_Z 56
_cell_length_a 19.292596
_cell_length_b 7.374890
_cell_length_c 14.847354
_cell_angle_alpha 90.000000
_cell_angle_beta 80.542241
_cell_angle_gamma 90.000000
_cell_volume 2083.777921
_symmetry_space_group_name_H-M "C 2/C"
_symmetry_group_IT_number 15
_symmetry_cell_setting 'monoclinic'
loop_
_space_group_symop_operation_xyz
x,y,z
-x,y,1/2-z
-x,-y,-z
x,-y,1/2+z
1/2+x,1/2+y,z
1/2-x,1/2+y,1/2-z
1/2-x,1/2-y,-z
1/2+x,1/2-y,1/2+z
loop_
_atom_site_type_symbol
_atom_site_label
_atom_site_fract_x
_atom_site_fract_y
_atom_site_fract_z
Si Si1 0.583574 0.951909 0.726195
Si Si2 0.907970 0.647101 0.477252
Si Si3 0.321607 0.536582 0.070462
Si Si4 0.295488 0.723317 0.720399
Si Si5 0.783373 0.995081 0.383422
Si Si6 0.445401 0.248017 0.012177
Si Si7 0.433530 0.350937 0.813413
O O1 0.500000 0.916031 0.750000
O O2 0.611007 0.907352 0.619825
O O3 0.631069 0.828001 0.779698
O O4 0.590575 0.170199 0.736138
O O5 0.854675 0.769746 0.542674
O O6 0.920976 0.459701 0.526301
O O7 0.980549 0.760291 0.454338
O O8 0.296275 0.524105 0.673691
O O9 0.272135 0.506966 0.993068
O O10 0.386230 0.391897 0.047447
O O11 0.254581 0.836693 0.654268
O O12 0.265958 0.679077 0.826264
O O13 0.867120 0.024415 0.348415
O O14 0.460624 0.275259 0.902891
O O15 0.500000 0.438538 0.750000
#
# Coordination Sequence:
#
# PCOD9266770 Si02
#       7
#     8   8   8   8   8   8   8
#     4  10  20  38  65  97 132 172 219 272 333 397
#     4  10  19  38  60  98 138 171 222 268 335 395
#     4  11  23  43  66  95 131 179 225 273 334 399
#     4  12  25  44  68  92 131 179 222 280 343 396
#     4  11  25  46  65  95 133 171 228 282 331 409
#     4   9  20  35  63  98 140 173 212 277 325 402
#     4   9  20  38  65  95 133 171 214 274 332 394
#
# _framework density 26.874267
#
# number of rings (size 3 to 8) (size 9 to 14) (size 15 to 20)
#    0.000    1.714    1.429    2.571    2.000    1.714 
#    2.571    0.714    0.000    0.000    0.000    0.000 
#    0.000    0.000    0.000    0.000    0.000    0.000 
#
# Total GULP energy -156950.289933 kJ/mol
# GULP energy per Si atom -5605.367498 kJ/mol
# Density = 2.681310 g / cm^3
# Si number density = 26.874267 Si / 1000 Ang^3
#
#
#
# Elastic Constant Matrix: (Units=GPa)
#
#
# Indices 1 2 3 4 5 6 
#
# 1 76.2293 24.6469 26.5090 0.0000 2.8716 0.0000
# 2 24.6469 64.7885 -12.2852 0.0000 1.3851 0.0000
# 3 26.5090 -12.2852 99.0851 0.0000 4.9112 0.0000
# 4 0.0000 0.0000 0.0000 37.0820 0.0000 7.4223
# 5 2.8716 1.3851 4.9112 0.0000 29.8693 0.0000
# 6 0.0000 0.0000 0.0000 7.4223 0.0000 46.1090
#
#
#
# Elastic Compliance Matrix: (Units=1/GPa)
#
#
# Indices 1 2 3 4 5 6 
#
# 1 0.017609 -0.007762 -0.005654 0.000000 -0.000403 0.000000
# 2 -0.007762 0.019262 0.004509 0.000000 -0.000888 0.000000
# 3 -0.005654 0.004509 0.012247 0.000000 -0.001679 0.000000
# 4 0.000000 0.000000 0.000000 0.027865 0.000000 -0.004486
# 5 -0.000403 -0.000888 -0.001679 0.000000 0.033835 0.000000
# 6 0.000000 0.000000 0.000000 -0.004486 0.000000 0.022410
#
#
# Mechanical properties :
#
#
# Convention : Reuss Voigt Hill
#
# Bulk Modulus (GPa) = 31.94453 35.31605 33.63029
# Shear Modulus (GPa) = 30.96410 36.02753 33.49581
#
# Velocity S-wave (km/s) = 3.39807 3.66539 3.53425
# Velocity P-wave (km/s) = 5.22573 5.57523 5.40331
#
# Compressibility (1/GPa) = 0.03130426
#
# Stress axis : x y z
#
# Youngs Moduli (GPa) = 56.78799 51.91620 81.65150
#
# Poissons Ratio (x) = 0.40299 0.46163
# Poissons Ratio (y) = 0.44081 -0.36816
# Poissons Ratio (z) = 0.32106 -0.23409
#
# Static dielectric constant tensor:
#      x y z
#    x 2.110570 0.000000 -0.025130 
#    y 0.000000 2.093840 0.000000 
#    z -0.025130 0.000000 2.059790 
# 
# From -- ./inp_files/251327.got.cif
#   From: 2010.05.17/outbox.cif.g08.bks.cpg/sg15_126_cif.got.tgz:251327.got - 2010.06.03 18:47:42.
