data_PCOD9266242
_publ_section_title
;
Structure prediction by ZEFSAII (Michael W. Deem and Ramdas Pophale) SiO2 
 PCOD9266242
Probable space group: C 2/C
;
_chemical_formula_sum "Si O2"
_cell_formula_units_Z 64
_cell_length_a 12.071637
_cell_length_b 20.741513
_cell_length_c 27.231260
_cell_angle_alpha 90.000000
_cell_angle_beta 31.017242
_cell_angle_gamma 90.000000
_cell_volume 3513.428400
_symmetry_space_group_name_H-M "C 2/C"
_symmetry_group_IT_number 15
_symmetry_cell_setting 'monoclinic'
loop_
_space_group_symop_operation_xyz
x,y,z
-x,y,1/2-z
-x,-y,-z
x,-y,1/2+z
1/2+x,1/2+y,z
1/2-x,1/2+y,1/2-z
1/2-x,1/2-y,-z
1/2+x,1/2-y,1/2+z
loop_
_atom_site_type_symbol
_atom_site_label
_atom_site_fract_x
_atom_site_fract_y
_atom_site_fract_z
Si Si1 0.157602 0.938339 0.040193
Si Si2 0.305155 0.160165 0.353770
Si Si3 0.454652 0.432729 0.619900
Si Si4 0.744353 0.808764 0.845007
Si Si5 0.089296 0.205953 0.528739
Si Si6 0.077177 0.586913 0.331663
Si Si7 0.849728 0.404871 0.536415
Si Si8 0.700798 0.462816 0.137560
O O1 0.096140 0.867773 0.044361
O O2 0.144168 0.939463 0.104073
O O3 0.406233 0.950426 0.930161
O O4 0.016818 0.997886 0.074052
O O5 0.500000 0.193495 0.250000
O O6 0.152976 0.118160 0.376114
O O7 0.172577 0.204773 0.441005
O O8 0.433910 0.111322 0.340525
O O9 0.284754 0.445502 0.728769
O O10 0.671220 0.404330 0.561772
O O11 0.641605 0.738642 0.879232
O O12 0.661730 0.852759 0.831304
O O13 0.654732 0.841657 0.928591
O O14 0.000000 0.809323 0.750000
O O15 0.250000 0.250000 0.500000
O O16 0.772150 0.462926 0.602146
O O17 0.086826 0.423136 0.428031
O O18 0.500000 0.457970 0.250000
#
# Coordination Sequence:
#
# PCOD9266242 Si02
#       8
#     8   8   8   8   8   8   8   8
#     4  10  21  36  60  89 120 155 207 246 304 354
#     4   9  20  40  64  89 113 160 211 240 292 360
#     4  10  21  35  61  95 119 150 198 257 304 350
#     4  12  21  37  62  86 113 157 211 237 287 356
#     4  11  21  40  63  85 118 164 208 243 284 370
#     4  10  19  37  62  83 115 166 203 240 284 370
#     4  10  20  33  56  84 120 152 195 245 298 353
#     4  10  20  33  55  88 119 152 194 249 309 352
#
# _framework density 18.215826
#
# number of rings (size 3 to 8) (size 9 to 14) (size 15 to 20)
#    0.000    1.750    5.000    0.375    1.750    2.000 
#    0.000    7.500    0.000    0.000    0.000    0.000 
#    0.000    0.000    0.000    0.000    0.000    0.000 
#
# Total GULP energy -178466.178781 kJ/mol
# GULP energy per Si atom -5577.068087 kJ/mol
# Density = 1.817437 g / cm^3
# Si number density = 18.215826 Si / 1000 Ang^3
#
#
#
# Elastic Constant Matrix: (Units=GPa)
#
#
# Indices 1 2 3 4 5 6 
#
# 1 90.1708 19.5393 33.4360 0.0022 -11.9338 -0.0094
# 2 19.5393 70.5310 27.2530 -0.0204 -3.0777 0.0165
# 3 33.4360 27.2530 146.0168 -0.0494 -1.2027 0.0297
# 4 0.0022 -0.0204 -0.0494 27.3342 0.0165 -3.8257
# 5 -11.9338 -3.0777 -1.2027 0.0165 32.6619 0.0067
# 6 -0.0094 0.0165 0.0297 -3.8257 0.0067 27.0717
#
#
#
# Elastic Compliance Matrix: (Units=1/GPa)
#
#
# Indices 1 2 3 4 5 6 
#
# 1 0.013151 -0.002477 -0.002512 -0.000009 0.004479 0.000006
# 2 -0.002477 0.015805 -0.002379 0.000006 0.000497 -0.000007
# 3 -0.002512 -0.002379 0.007861 0.000012 -0.000853 -0.000006
# 4 -0.000009 0.000006 0.000012 0.037322 -0.000022 0.005274
# 5 0.004479 0.000497 -0.000853 -0.000022 0.032269 -0.000009
# 6 0.000006 -0.000007 -0.000006 0.005274 -0.000009 0.037684
#
#
# Mechanical properties :
#
#
# Convention : Reuss Voigt Hill
#
# Bulk Modulus (GPa) = 45.28741 51.90835 48.59788
# Shear Modulus (GPa) = 30.08626 32.51292 31.29959
#
# Velocity S-wave (km/s) = 4.06846 4.22936 4.14969
# Velocity P-wave (km/s) = 6.85459 7.23934 7.04959
#
# Compressibility (1/GPa) = 0.02208119
#
# Stress axis : x y z
#
# Youngs Moduli (GPa) = 76.03871 63.27042 127.21469
#
# Poissons Ratio (x) = 0.15673 0.31959
# Poissons Ratio (y) = 0.18836 0.30259
# Poissons Ratio (z) = 0.19103 0.15050
#
# Static dielectric constant tensor:
#      x y z
#    x 1.658750 0.000000 0.004560 
#    y 0.000000 1.623810 0.000010 
#    z 0.004560 0.000010 1.661600 
# 
# From -- ./inp_files/293749.got.cif
#   From: 2010.05.17/outbox.cif.g08.bks.cpg/sg15_147_cif.got.tgz:293749.got - 2010.06.03 18:47:42.
