data_PCOD9266451
_publ_section_title
;
Structure prediction by ZEFSAII (Michael W. Deem and Ramdas Pophale) SiO2 
 PCOD9266451
Probable space group: C 2/C
;
_chemical_formula_sum "Si O2"
_cell_formula_units_Z 56
_cell_length_a 10.933501
_cell_length_b 26.931106
_cell_length_c 10.543585
_cell_angle_alpha 90.000000
_cell_angle_beta 117.496824
_cell_angle_gamma 90.000000
_cell_volume 2753.868491
_symmetry_space_group_name_H-M "C 2/C"
_symmetry_group_IT_number 15
_symmetry_cell_setting 'monoclinic'
loop_
_space_group_symop_operation_xyz
x,y,z
-x,y,1/2-z
-x,-y,-z
x,-y,1/2+z
1/2+x,1/2+y,z
1/2-x,1/2+y,1/2-z
1/2-x,1/2-y,-z
1/2+x,1/2-y,1/2+z
loop_
_atom_site_type_symbol
_atom_site_label
_atom_site_fract_x
_atom_site_fract_y
_atom_site_fract_z
Si Si1 0.000000 0.385201 0.750000
Si Si2 0.418834 0.152599 0.962026
Si Si3 0.240600 0.673642 0.067521
Si Si4 0.158813 0.271004 0.278878
Si Si5 0.118364 0.470445 0.630798
Si Si6 0.351033 0.425683 0.562691
Si Si7 0.000000 0.007851 0.750000
Si Si8 0.252130 0.564357 0.744625
O O1 0.078754 0.423212 0.694879
O O2 0.910461 0.352219 0.610157
O O3 0.347787 0.198758 0.855677
O O4 0.350464 0.103152 0.869489
O O5 0.582298 0.155774 0.008652
O O6 0.276352 0.716374 0.185506
O O7 0.347491 0.628271 0.126249
O O8 0.239926 0.698358 0.926926
O O9 0.000000 0.266946 0.250000
O O10 0.228774 0.453504 0.579350
O O11 0.177819 0.513340 0.749503
O O12 0.000000 0.500000 0.500000
O O13 0.473297 0.466386 0.627308
O O14 0.316177 0.414017 0.401775
O O15 0.127977 0.044126 0.789179
#
# Coordination Sequence:
#
# PCOD9266451 Si02
#       8
#     4   8   8   8   8   8   4   8
#     4  12  22  36  56  95 131 164 218 254 318 392
#     4  11  22  39  63  92 126 166 209 268 322 387
#     4  10  19  37  64  98 119 155 213 270 322 385
#     4   9  20  37  64  94 125 156 206 275 335 376
#     4  11  21  34  57  92 124 163 206 262 307 369
#     4  11  21  38  60  86 124 163 213 261 309 381
#     4  10  26  38  54  95 131 174 214 252 322 400
#     4  11  22  40  60  85 128 174 211 259 322 379
#
# _framework density 20.33503
#
# number of rings (size 3 to 8) (size 9 to 14) (size 15 to 20)
#    0.000    1.429    4.286    1.286    3.000    1.143 
#    0.000    0.714    0.000    0.857    0.000    0.000 
#    0.000    0.000    0.000    0.000    0.000    0.000 
#
# Total GULP energy -156000.488448 kJ/mol
# GULP energy per Si atom -5571.446016 kJ/mol
# Density = 2.028875 g / cm^3
# Si number density = 20.335030 Si / 1000 Ang^3
#
#
#
# Elastic Constant Matrix: (Units=GPa)
#
#
# Indices 1 2 3 4 5 6 
#
# 1 29.7955 32.2650 14.5639 0.0000 7.7866 0.0000
# 2 32.2650 149.9712 58.2455 0.0000 8.0354 0.0000
# 3 14.5639 58.2455 109.6364 0.0000 -7.3422 0.0000
# 4 0.0000 0.0000 0.0000 49.2134 0.0000 2.4736
# 5 7.7866 8.0354 -7.3422 0.0000 23.8546 0.0000
# 6 0.0000 0.0000 0.0000 2.4736 0.0000 22.5183
#
#
#
# Elastic Compliance Matrix: (Units=1/GPa)
#
#
# Indices 1 2 3 4 5 6 
#
# 1 0.047586 -0.008449 -0.002739 0.000000 -0.013530 0.000000
# 2 -0.008449 0.010355 -0.004521 0.000000 -0.002122 0.000000
# 3 -0.002739 -0.004521 0.012302 0.000000 0.006203 0.000000
# 4 0.000000 0.000000 0.000000 0.020432 0.000000 -0.002244
# 5 -0.013530 -0.002122 0.006203 0.000000 0.048961 0.000000
# 6 0.000000 0.000000 0.000000 -0.002244 0.000000 0.044655
#
#
# Mechanical properties :
#
#
# Convention : Reuss Voigt Hill
#
# Bulk Modulus (GPa) = 25.75610 55.50576 40.63093
# Shear Modulus (GPa) = 21.86734 31.40583 26.63659
#
# Velocity S-wave (km/s) = 3.28282 3.93417 3.62316
# Velocity P-wave (km/s) = 5.20217 6.92762 6.12595
#
# Compressibility (1/GPa) = 0.03882575
#
# Stress axis : x y z
#
# Youngs Moduli (GPa) = 21.01459 96.56908 81.28661
#
# Poissons Ratio (x) = 0.81593 0.22261
# Poissons Ratio (y) = 0.17756 0.36750
# Poissons Ratio (z) = 0.05755 0.43660
#
# Static dielectric constant tensor:
#      x y z
#    x 1.744350 0.000000 0.034870 
#    y 0.000000 1.750110 0.000000 
#    z 0.034870 0.000000 1.805700 
# 
# From -- ./inp_files/91865.got.cif
#   From: 2010.05.17/outbox.cif.g08.bks.cpg/sg15_46_cif.got.tgz:91865.got - 2010.06.03 18:47:42.
