data_PCOD9266905
_publ_section_title
;
Structure prediction by ZEFSAII (Michael W. Deem and Ramdas Pophale) SiO2 
 PCOD9266905
Probable space group: C 2/C
;
_chemical_formula_sum "Si O2"
_cell_formula_units_Z 48
_cell_length_a 12.244688
_cell_length_b 20.785744
_cell_length_c 14.944207
_cell_angle_alpha 90.000000
_cell_angle_beta 142.196009
_cell_angle_gamma 90.000000
_cell_volume 2331.416086
_symmetry_space_group_name_H-M "C 2/C"
_symmetry_group_IT_number 15
_symmetry_cell_setting 'monoclinic'
loop_
_space_group_symop_operation_xyz
x,y,z
-x,y,1/2-z
-x,-y,-z
x,-y,1/2+z
1/2+x,1/2+y,z
1/2-x,1/2+y,1/2-z
1/2-x,1/2-y,-z
1/2+x,1/2-y,1/2+z
loop_
_atom_site_type_symbol
_atom_site_label
_atom_site_fract_x
_atom_site_fract_y
_atom_site_fract_z
Si Si1 0.000000 0.138184 0.250000
Si Si2 0.939896 0.781260 0.110686
Si Si3 0.117359 0.036283 0.466217
Si Si4 0.313447 0.772495 0.881322
Si Si5 0.000000 0.549408 0.750000
Si Si6 0.108923 0.341768 0.189910
Si Si7 0.050891 0.091169 0.619972
O O1 0.895417 0.091504 0.115154
O O2 0.853339 0.179677 0.210129
O O3 0.000000 0.794522 0.250000
O O4 0.083044 0.738196 0.146589
O O5 0.919633 0.849283 0.046996
O O6 0.750000 0.750000 0.000000
O O7 0.317888 0.012249 0.615992
O O8 0.059052 0.069203 0.521870
O O9 0.999600 0.974750 0.364647
O O10 0.220173 0.702493 0.832197
O O11 0.468998 0.796388 0.048705
O O12 0.980328 0.598515 0.819537
O O13 0.261714 0.376311 0.229848
#
# Coordination Sequence:
#
# PCOD9266905 Si02
#       7
#     4   8   8   8   4   8   8
#     4  12  25  38  70 102 135 162 224 278 350 400
#     4  11  24  43  66  89 128 176 223 270 320 390
#     4  10  22  42  66  94 129 176 209 279 328 406
#     4  11  24  40  64 101 132 171 216 278 342 393
#     4  10  19  38  62  96 131 172 212 252 348 396
#     4  10  21  38  63  93 134 166 213 270 329 404
#     4   9  22  43  67  86 132 173 224 261 336 385
#
# _framework density 20.588345
#
# number of rings (size 3 to 8) (size 9 to 14) (size 15 to 20)
#    0.000    1.667    1.667    2.500   10.500    1.333 
#    1.500    2.500    0.000    0.000    0.000    0.000 
#    0.000    0.000    0.000    0.000    0.000    0.000 
#
# Total GULP energy -133715.504318 kJ/mol
# GULP energy per Si atom -5571.479347 kJ/mol
# Density = 2.054148 g / cm^3
# Si number density = 20.588345 Si / 1000 Ang^3
#
#
#
# Elastic Constant Matrix: (Units=GPa)
#
#
# Indices 1 2 3 4 5 6 
#
# 1 92.1644 36.0797 14.6548 0.0000 13.6513 0.0000
# 2 36.0797 95.1272 37.9554 0.0000 23.4114 0.0000
# 3 14.6548 37.9554 72.4919 0.0000 16.1971 0.0000
# 4 0.0000 0.0000 0.0000 -3.0954 0.0000 -2.7486
# 5 13.6513 23.4114 16.1971 0.0000 29.9179 0.0000
# 6 0.0000 0.0000 0.0000 -2.7486 0.0000 9.9857
#
#
#
# Elastic Compliance Matrix: (Units=1/GPa)
#
#
# Indices 1 2 3 4 5 6 
#
# 1 0.012901 -0.004350 0.000255 0.000000 -0.002621 0.000000
# 2 -0.004350 0.016442 -0.006027 0.000000 -0.007618 0.000000
# 3 0.000255 -0.006027 0.018055 0.000000 -0.005175 0.000000
# 4 0.000000 0.000000 0.000000 -0.259608 0.000000 -0.071457
# 5 -0.002621 -0.007618 -0.005175 0.000000 0.043384 0.000000
# 6 0.000000 0.000000 0.000000 -0.071457 0.000000 0.080474
#
#
# Mechanical properties :
#
#
# Convention : Reuss Voigt Hill
#
# Bulk Modulus (GPa) = 36.82725 48.57366 42.70046
# Shear Modulus (GPa) = -84.66287 18.76788 -32.94749
#
# Velocity S-wave (km/s) = -6.41958 3.02251 -4.00471
# Velocity P-wave (km/s) = 6.08455 5.98538 0.77362
#
# Compressibility (1/GPa) = 0.02715381
#
# Stress axis : x y z
#
# Youngs Moduli (GPa) = 77.51584 60.82109 55.38650
#
# Poissons Ratio (x) = 0.26455 -0.01413
# Poissons Ratio (y) = 0.33717 0.33382
# Poissons Ratio (z) = -0.01977 0.36657
#
# Static dielectric constant tensor:
#      x y z
#    x 1.816350 0.000000 0.046810 
#    y 0.000000 1.722930 0.000000 
#    z 0.046810 0.000000 1.763470 
# 
# From -- ./inp_files/147491.got.cif
#   From: 2010.05.17/outbox.cif.g08.bks.cpg/sg15_74_cif.got.tgz:147491.got - 2010.06.03 18:47:42.
