data_PCOD9266232
_publ_section_title
;
Structure prediction by ZEFSAII (Michael W. Deem and Ramdas Pophale) SiO2 
 PCOD9266232
Probable space group: C 2/C
;
_chemical_formula_sum "Si O2"
_cell_formula_units_Z 60
_cell_length_a 19.716406
_cell_length_b 12.046826
_cell_length_c 16.104620
_cell_angle_alpha 90.000000
_cell_angle_beta 135.456852
_cell_angle_gamma 90.000000
_cell_volume 2683.151756
_symmetry_space_group_name_H-M "C 2/C"
_symmetry_group_IT_number 15
_symmetry_cell_setting 'monoclinic'
loop_
_space_group_symop_operation_xyz
x,y,z
-x,y,1/2-z
-x,-y,-z
x,-y,1/2+z
1/2+x,1/2+y,z
1/2-x,1/2+y,1/2-z
1/2-x,1/2-y,-z
1/2+x,1/2-y,1/2+z
loop_
_atom_site_type_symbol
_atom_site_label
_atom_site_fract_x
_atom_site_fract_y
_atom_site_fract_z
Si Si1 0.408437 0.296469 0.124891
Si Si2 0.206015 0.610239 0.095350
Si Si3 0.289079 0.093454 0.583169
Si Si4 0.476420 0.762759 0.062370
Si Si5 0.240335 0.646356 0.604495
Si Si6 0.565946 0.534044 0.390261
Si Si7 0.000000 0.591854 0.750000
Si Si8 0.685872 0.227798 0.724369
O O1 0.500000 0.242465 0.250000
O O2 0.336748 0.343297 0.134144
O O3 0.448722 0.402645 0.108104
O O4 0.342712 0.215785 0.014035
O O5 0.205315 0.479498 0.085973
O O6 0.296719 0.648013 0.228086
O O7 0.210381 0.656776 0.005076
O O8 0.113940 0.671493 0.054179
O O9 0.183382 0.039077 0.485979
O O10 0.395198 0.032573 0.669180
O O11 0.293653 0.155206 0.675383
O O12 0.458581 0.633452 0.067401
O O13 0.492995 0.826894 0.164603
O O14 0.575358 0.782634 0.100621
O O15 0.252773 0.695671 0.706836
O O16 0.500000 0.557763 0.250000
#
# Coordination Sequence:
#
# PCOD9266232 Si02
#       8
#     8   8   8   8   8   8   4   8
#     4  10  25  49  71  91 129 191 237 283 338 430
#     4  11  22  41  67  97 140 184 226 282 341 417
#     4  10  19  37  62 100 136 172 223 281 349 408
#     4  10  20  34  61 103 133 169 221 278 347 396
#     4  11  26  48  66  99 139 182 234 279 353 424
#     4  11  19  35  69  95 128 174 231 287 336 407
#     4   8  18  28  52  92 136 164 210 268 338 402
#     4  11  24  40  65 104 144 173 224 293 352 410
#
# _framework density 22.361761999999999
#
# number of rings (size 3 to 8) (size 9 to 14) (size 15 to 20)
#    0.000    1.600    3.333    1.200    3.733    2.667 
#    7.200    0.667    0.000    0.000    0.000    0.000 
#    0.000    0.000    0.000    0.000    0.000    0.000 
#
# Total GULP energy -167144.722200 kJ/mol
# GULP energy per Si atom -5571.490740 kJ/mol
# Density = 2.231087 g / cm^3
# Si number density = 22.361762 Si / 1000 Ang^3
#
#
#
# Elastic Constant Matrix: (Units=GPa)
#
#
# Indices 1 2 3 4 5 6 
#
# 1 63.6963 31.7302 31.3470 0.0000 -6.6128 0.0000
# 2 31.7302 91.4268 35.3217 0.0000 -2.6203 0.0000
# 3 31.3470 35.3217 104.2680 0.0000 22.1584 0.0000
# 4 0.0000 0.0000 0.0000 12.2912 0.0000 3.3630
# 5 -6.6128 -2.6203 22.1584 0.0000 28.9086 0.0000
# 6 0.0000 0.0000 0.0000 3.3630 0.0000 11.9704
#
#
#
# Elastic Compliance Matrix: (Units=1/GPa)
#
#
# Indices 1 2 3 4 5 6 
#
# 1 0.022845 -0.004724 -0.007511 0.000000 0.010554 0.000000
# 2 -0.004724 0.014271 -0.004132 0.000000 0.003380 0.000000
# 3 -0.007511 -0.004132 0.016358 0.000000 -0.014631 0.000000
# 4 0.000000 0.000000 0.000000 0.088134 0.000000 -0.024760
# 5 0.010554 0.003380 -0.014631 0.000000 0.048527 0.000000
# 6 0.000000 0.000000 0.000000 -0.024760 0.000000 0.090496
#
#
# Mechanical properties :
#
#
# Convention : Reuss Voigt Hill
#
# Bulk Modulus (GPa) = 48.21886 50.68763 49.45325
# Shear Modulus (GPa) = 15.61149 21.36685 18.48917
#
# Velocity S-wave (km/s) = 2.64509 3.09448 2.87857
# Velocity P-wave (km/s) = 5.56224 5.95685 5.76293
#
# Compressibility (1/GPa) = 0.02073877
#
# Stress axis : x y z
#
# Youngs Moduli (GPa) = 43.77358 70.07369 61.13306
#
# Poissons Ratio (x) = 0.33105 0.45914
# Poissons Ratio (y) = 0.20680 0.25263
# Poissons Ratio (z) = 0.32876 0.28957
#
# Static dielectric constant tensor:
#      x y z
#    x 1.850030 0.000000 0.057090 
#    y 0.000000 1.865010 0.000000 
#    z 0.057090 0.000000 1.859020 
# 
# From -- ./inp_files/215225.got.cif
#   From: 2010.05.17/outbox.cif.g08.bks.cpg/sg15_108_cif.got.tgz:215225.got - 2010.06.03 18:47:42.
