data_PCOD9266432
_publ_section_title
;
Structure prediction by ZEFSAII (Michael W. Deem and Ramdas Pophale) SiO2 
 PCOD9266432
Probable space group: C 2/C
;
_chemical_formula_sum "Si O2"
_cell_formula_units_Z 64
_cell_length_a 29.068171
_cell_length_b 14.543294
_cell_length_c 21.061914
_cell_angle_alpha 90.000000
_cell_angle_beta 161.202893
_cell_angle_gamma 90.000000
_cell_volume 2868.983054
_symmetry_space_group_name_H-M "C 2/C"
_symmetry_group_IT_number 15
_symmetry_cell_setting 'monoclinic'
loop_
_space_group_symop_operation_xyz
x,y,z
-x,y,1/2-z
-x,-y,-z
x,-y,1/2+z
1/2+x,1/2+y,z
1/2-x,1/2+y,1/2-z
1/2-x,1/2-y,-z
1/2+x,1/2-y,1/2+z
loop_
_atom_site_type_symbol
_atom_site_label
_atom_site_fract_x
_atom_site_fract_y
_atom_site_fract_z
Si Si1 0.171261 0.016736 0.716297
Si Si2 0.701693 0.298290 0.113826
Si Si3 0.395287 0.722476 0.883039
Si Si4 0.202077 0.847956 0.839843
Si Si5 0.914432 0.858624 0.203755
Si Si6 0.398607 0.948159 0.416414
Si Si7 0.044674 0.934434 0.735111
Si Si8 0.398070 0.177557 0.256963
O O1 0.180361 0.126818 0.737173
O O2 0.262525 0.001341 0.770539
O O3 0.236099 0.944126 0.850216
O O4 0.000000 0.000000 0.500000
O O5 0.679947 0.243098 0.150726
O O6 0.690359 0.232706 0.038636
O O7 0.840815 0.360329 0.302039
O O8 0.582074 0.376384 0.960288
O O9 0.373374 0.793048 0.797664
O O10 0.557472 0.692505 0.115413
O O11 0.177026 0.875569 0.880292
O O12 0.954741 0.771127 0.298811
O O13 0.000000 0.852922 0.250000
O O14 0.942721 0.959613 0.269577
O O15 0.747199 0.850803 0.967690
O O16 0.493225 0.906887 0.597392
O O17 0.500000 0.000000 0.500000
O O18 0.000000 0.936565 0.750000
#
# Coordination Sequence:
#
# PCOD9266432 Si02
#       8
#     8   8   8   8   8   8   8   8
#     4   9  20  38  61  95 135 180 210 264 347 418
#     4  10  22  39  63  98 129 171 224 275 340 409
#     4   9  19  36  61  97 130 163 217 277 342 404
#     4  10  19  37  64  93 126 170 227 276 329 401
#     4  10  25  43  67  92 131 190 227 271 343 432
#     4  11  25  38  64 105 140 169 214 297 350 401
#     4  10  23  43  65  91 128 184 235 271 331 417
#     4  11  23  42  66  99 133 173 226 286 349 409
#
# _framework density 22.307556000000002
#
# number of rings (size 3 to 8) (size 9 to 14) (size 15 to 20)
#    0.000    2.000    1.250    1.500    8.750    2.500 
#    0.000    0.000    2.750    0.000    0.000    0.000 
#    0.000    0.000    0.000    0.000    0.000    0.000 
#
# Total GULP energy -178282.557666 kJ/mol
# GULP energy per Si atom -5571.329927 kJ/mol
# Density = 2.225678 g / cm^3
# Si number density = 22.307556 Si / 1000 Ang^3
#
#
#
# Elastic Constant Matrix: (Units=GPa)
#
#
# Indices 1 2 3 4 5 6 
#
# 1 130.7565 52.3397 8.2897 0.0000 15.3180 -0.0002
# 2 52.3397 86.8787 22.5640 0.0000 9.4345 0.0000
# 3 8.2897 22.5640 34.0012 0.0000 9.4172 0.0000
# 4 0.0000 0.0000 0.0000 29.0505 0.0000 12.8648
# 5 15.3180 9.4345 9.4172 0.0000 25.3408 -0.0001
# 6 -0.0002 0.0000 0.0000 12.8648 -0.0001 78.4406
#
#
#
# Elastic Compliance Matrix: (Units=1/GPa)
#
#
# Indices 1 2 3 4 5 6 
#
# 1 0.010762 -0.006779 0.003319 0.000000 -0.005215 0.000000
# 2 -0.006779 0.018265 -0.010835 0.000000 0.001324 0.000000
# 3 0.003319 -0.010835 0.039272 0.000000 -0.012567 0.000000
# 4 0.000000 0.000000 0.000000 0.037119 0.000000 -0.006088
# 5 -0.005215 0.001324 -0.012567 0.000000 0.046792 0.000000
# 6 0.000000 0.000000 0.000000 -0.006088 0.000000 0.013747
#
#
# Mechanical properties :
#
#
# Convention : Reuss Voigt Hill
#
# Bulk Modulus (GPa) = 25.18283 46.44702 35.81492
# Shear Modulus (GPa) = 24.06371 37.79592 30.92981
#
# Velocity S-wave (km/s) = 3.28796 4.12067 3.72764
# Velocity P-wave (km/s) = 5.07224 6.59593 5.88362
#
# Compressibility (1/GPa) = 0.03970959
#
# Stress axis : x y z
#
# Youngs Moduli (GPa) = 92.92022 54.75072 25.46323
#
# Poissons Ratio (x) = 0.37117 -0.08452
# Poissons Ratio (y) = 0.62993 0.27589
# Poissons Ratio (z) = -0.30844 0.59321
#
# Static dielectric constant tensor:
#      x y z
#    x 1.956210 0.000000 0.038740 
#    y 0.000000 1.873580 0.000000 
#    z 0.038740 0.000000 1.906700 
# 
# From -- ./inp_files/259451.got.cif
#   From: 2010.05.17/outbox.cif.g08.bks.cpg/sg15_130_cif.got.tgz:259451.got - 2010.06.03 18:47:42.
