data_PCOD9266285
_publ_section_title
;
Structure prediction by ZEFSAII (Michael W. Deem and Ramdas Pophale) SiO2 
 PCOD9266285
Probable space group: C 2/C
;
_chemical_formula_sum "Si O2"
_cell_formula_units_Z 56
_cell_length_a 16.263108
_cell_length_b 9.579949
_cell_length_c 18.474422
_cell_angle_alpha 90.000000
_cell_angle_beta 111.194903
_cell_angle_gamma 90.000000
_cell_volume 2683.609729
_symmetry_space_group_name_H-M "C 2/C"
_symmetry_group_IT_number 15
_symmetry_cell_setting 'monoclinic'
loop_
_space_group_symop_operation_xyz
x,y,z
-x,y,1/2-z
-x,-y,-z
x,-y,1/2+z
1/2+x,1/2+y,z
1/2-x,1/2+y,1/2-z
1/2-x,1/2-y,-z
1/2+x,1/2-y,1/2+z
loop_
_atom_site_type_symbol
_atom_site_label
_atom_site_fract_x
_atom_site_fract_y
_atom_site_fract_z
Si Si1 0.081120 0.088102 0.991326
Si Si2 0.860527 0.536351 0.196967
Si Si3 0.833969 0.643872 0.024435
Si Si4 0.092943 0.827564 0.245698
Si Si5 0.305656 0.500265 0.107257
Si Si6 0.836591 0.956611 0.834934
Si Si7 0.599852 0.721849 0.271073
O O1 0.150561 0.072162 0.077645
O O2 0.084649 0.255459 0.974687
O O3 0.121665 0.016949 0.933100
O O4 0.000000 0.000000 0.000000
O O5 0.853601 0.582916 0.110298
O O6 0.906045 0.661763 0.254780
O O7 0.766306 0.521172 0.205863
O O8 0.901314 0.384881 0.215447
O O9 0.750000 0.750000 0.000000
O O10 0.791569 0.527601 0.956801
O O11 0.000000 0.869321 0.250000
O O12 0.169170 0.883484 0.324456
O O13 0.110517 0.908721 0.177225
O O14 0.329788 0.645123 0.153981
O O15 0.870453 0.826516 0.798925
O O16 0.500000 0.669687 0.250000
#
# Coordination Sequence:
#
# PCOD9266285 Si02
#       7
#     8   8   8   8   8   8   8
#     4  11  19  35  64  94 123 162 216 269 311 380
#     4  12  22  40  62  93 126 164 210 269 319 383
#     4  10  19  37  62  91 119 167 212 264 310 376
#     4  11  21  36  61  90 118 163 212 262 320 380
#     4  10  19  40  62  84 122 166 215 256 315 390
#     4  11  22  38  62  91 120 165 221 255 313 382
#     4  11  25  42  62  93 132 169 205 269 333 380
#
# _framework density 20.867415000000001
#
# number of rings (size 3 to 8) (size 9 to 14) (size 15 to 20)
#    0.000    1.143    5.714    4.714    0.000    1.714 
#    0.000    0.000    0.000    1.714    0.000    0.000 
#    0.000    0.000    0.000    0.000    0.000    0.000 
#
# Total GULP energy -156126.950095 kJ/mol
# GULP energy per Si atom -5575.962503 kJ/mol
# Density = 2.081992 g / cm^3
# Si number density = 20.867415 Si / 1000 Ang^3
#
#
#
# Elastic Constant Matrix: (Units=GPa)
#
#
# Indices 1 2 3 4 5 6 
#
# 1 76.9396 12.4389 -20.1152 0.0000 3.8083 0.0000
# 2 12.4389 151.9018 16.9541 0.0000 6.5155 0.0000
# 3 -20.1152 16.9541 48.7068 0.0000 -7.7797 0.0000
# 4 0.0000 0.0000 0.0000 -17.1118 0.0000 2.8288
# 5 3.8083 6.5155 -7.7797 0.0000 18.7684 0.0000
# 6 0.0000 0.0000 0.0000 2.8288 0.0000 43.8123
#
#
#
# Elastic Compliance Matrix: (Units=1/GPa)
#
#
# Indices 1 2 3 4 5 6 
#
# 1 0.015147 -0.002053 0.007060 0.000000 0.000566 0.000000
# 2 -0.002053 0.007363 -0.004018 0.000000 -0.003805 0.000000
# 3 0.007060 -0.004018 0.026601 0.000000 0.010989 0.000000
# 4 0.000000 0.000000 0.000000 -0.057822 0.000000 0.003733
# 5 0.000566 -0.003805 0.010989 0.000000 0.059042 0.000000
# 6 0.000000 0.000000 0.000000 0.003733 0.000000 0.022584
#
#
# Mechanical properties :
#
#
# Convention : Reuss Voigt Hill
#
# Bulk Modulus (GPa) = 19.57365 32.90043 26.23704
# Shear Modulus (GPa) = 56.84029 26.97847 41.90938
#
# Velocity S-wave (km/s) = 5.22474 3.59953 4.48634
# Velocity P-wave (km/s) = 6.76739 5.75118 6.27988
#
# Compressibility (1/GPa) = 0.05108909
#
# Stress axis : x y z
#
# Youngs Moduli (GPa) = 66.02003 135.81392 37.59293
#
# Poissons Ratio (x) = 0.27878 -0.26542
# Poissons Ratio (y) = 0.13551 0.15107
# Poissons Ratio (z) = -0.46612 0.54576
#
# Static dielectric constant tensor:
#      x y z
#    x 1.764680 0.000000 0.053140 
#    y 0.000000 1.791160 0.000000 
#    z 0.053140 0.000000 1.747160 
# 
# From -- ./inp_files/209623.got.cif
#   From: 2010.05.17/outbox.cif.g08.bks.cpg/sg15_105_cif.got.tgz:209623.got - 2010.06.03 18:47:42.
