data_PCOD9266819
_publ_section_title
;
Structure prediction by ZEFSAII (Michael W. Deem and Ramdas Pophale) SiO2 
 PCOD9266819
Probable space group: C 2/C
;
_chemical_formula_sum "Si O2"
_cell_formula_units_Z 64
_cell_length_a 10.129703
_cell_length_b 24.824118
_cell_length_c 11.870653
_cell_angle_alpha 90.000000
_cell_angle_beta 74.256135
_cell_angle_gamma 90.000000
_cell_volume 2873.021005
_symmetry_space_group_name_H-M "C 2/C"
_symmetry_group_IT_number 15
_symmetry_cell_setting 'monoclinic'
loop_
_space_group_symop_operation_xyz
x,y,z
-x,y,1/2-z
-x,-y,-z
x,-y,1/2+z
1/2+x,1/2+y,z
1/2-x,1/2+y,1/2-z
1/2-x,1/2-y,-z
1/2+x,1/2-y,1/2+z
loop_
_atom_site_type_symbol
_atom_site_label
_atom_site_fract_x
_atom_site_fract_y
_atom_site_fract_z
Si Si1 0.625736 0.984688 0.350085
Si Si2 0.256464 0.156192 0.984995
Si Si3 0.863307 0.061097 0.918129
Si Si4 0.835614 0.758788 0.304002
Si Si5 0.663613 0.569214 0.830033
Si Si6 0.530887 0.909212 0.959492
Si Si7 0.730456 0.838551 0.525050
Si Si8 0.132151 0.749124 0.648832
O O1 0.548376 0.040649 0.371980
O O2 0.743731 0.982810 0.423551
O O3 0.853765 0.911285 0.295425
O O4 0.523983 0.936991 0.411911
O O5 0.159198 0.201741 0.058505
O O6 0.193544 0.118225 0.904815
O O7 0.321842 0.117806 0.062558
O O8 0.383309 0.192161 0.910100
O O9 0.709269 0.028744 0.717706
O O10 0.018880 0.042046 0.894970
O O11 0.826663 0.108513 0.012591
O O12 0.781955 0.803282 0.406103
O O13 0.784148 0.702307 0.368852
O O14 0.760980 0.761575 0.201076
O O15 0.000000 0.761142 0.250000
O O16 0.418348 0.865295 0.955797
O O17 0.000000 0.761671 0.750000
#
# Coordination Sequence:
#
# PCOD9266819 Si02
#       8
#     8   8   8   8   8   8   8   8
#     4   8  18  35  63  89 123 156 208 280 323 375
#     4  11  24  38  65  88 132 172 219 263 337 396
#     4   8  17  34  60  89 126 152 219 264 318 380
#     4  11  24  38  61  93 133 172 228 271 322 389
#     4   9  18  34  62  95 117 167 212 272 315 397
#     4  10  19  38  61  91 128 162 209 273 327 389
#     4  10  21  35  63  91 123 176 212 272 325 387
#     4  11  26  42  59  94 135 180 218 275 324 403
#
# _framework density 22.276202000000001
#
# number of rings (size 3 to 8) (size 9 to 14) (size 15 to 20)
#    0.750    1.500    0.000    2.250    7.000    2.000 
#    0.000    1.875   22.000    0.000    0.000    0.000 
#    0.000    0.000    0.000    0.000    0.000    0.000 
#
# Total GULP energy -178422.921501 kJ/mol
# GULP energy per Si atom -5575.716297 kJ/mol
# Density = 2.222550 g / cm^3
# Si number density = 22.276202 Si / 1000 Ang^3
#
#
#
# Elastic Constant Matrix: (Units=GPa)
#
#
# Indices 1 2 3 4 5 6 
#
# 1 60.3844 9.6831 21.3983 0.0000 -21.9844 0.0000
# 2 9.6831 56.0645 20.1538 0.0000 -4.5282 0.0000
# 3 21.3983 20.1538 53.0757 0.0000 -13.7592 0.0000
# 4 0.0000 0.0000 0.0000 19.0048 0.0000 -2.6161
# 5 -21.9844 -4.5282 -13.7592 0.0000 20.8783 0.0000
# 6 0.0000 0.0000 0.0000 -2.6161 0.0000 10.3873
#
#
#
# Elastic Compliance Matrix: (Units=1/GPa)
#
#
# Indices 1 2 3 4 5 6 
#
# 1 0.027740 -0.001272 -0.003859 0.000000 0.026391 0.000000
# 2 -0.001272 0.020726 -0.007887 0.000000 -0.002042 0.000000
# 3 -0.003859 -0.007887 0.026406 0.000000 0.011628 0.000000
# 4 0.000000 0.000000 0.000000 0.054508 0.000000 0.013728
# 5 0.026391 -0.002042 0.011628 0.000000 0.082906 0.000000
# 6 0.000000 0.000000 0.000000 0.013728 0.000000 0.099729
#
#
# Mechanical properties :
#
#
# Convention : Reuss Voigt Hill
#
# Bulk Modulus (GPa) = 20.47656 30.22166 25.34911
# Shear Modulus (GPa) = 14.11109 17.94004 16.02557
#
# Velocity S-wave (km/s) = 2.51959 2.84094 2.68508
# Velocity P-wave (km/s) = 4.20435 4.93533 4.58443
#
# Compressibility (1/GPa) = 0.04883634
#
# Stress axis : x y z
#
# Youngs Moduli (GPa) = 36.04841 48.24750 37.87021
#
# Poissons Ratio (x) = 0.06139 0.14616
# Poissons Ratio (y) = 0.04586 0.29867
# Poissons Ratio (z) = 0.13913 0.38051
#
# Static dielectric constant tensor:
#      x y z
#    x 1.883460 0.000000 0.025080 
#    y 0.000000 1.812490 0.000000 
#    z 0.025080 0.000000 1.900750 
# 
# From -- ./inp_files/91251.got.cif
#   From: 2010.05.17/outbox.cif.g08.bks.cpg/sg15_46_cif.got.tgz:91251.got - 2010.06.03 18:47:42.
