data_PCOD9266693
_publ_section_title
;
Structure prediction by ZEFSAII (Michael W. Deem and Ramdas Pophale) SiO2 
 PCOD9266693
Probable space group: C 2/C
;
_chemical_formula_sum "Si O2"
_cell_formula_units_Z 44
_cell_length_a 22.151790
_cell_length_b 12.023563
_cell_length_c 8.845430
_cell_angle_alpha 90.000000
_cell_angle_beta 70.511602
_cell_angle_gamma 90.000000
_cell_volume 2220.949288
_symmetry_space_group_name_H-M "C 2/C"
_symmetry_group_IT_number 15
_symmetry_cell_setting 'monoclinic'
loop_
_space_group_symop_operation_xyz
x,y,z
-x,y,1/2-z
-x,-y,-z
x,-y,1/2+z
1/2+x,1/2+y,z
1/2-x,1/2+y,1/2-z
1/2-x,1/2-y,-z
1/2+x,1/2-y,1/2+z
loop_
_atom_site_type_symbol
_atom_site_label
_atom_site_fract_x
_atom_site_fract_y
_atom_site_fract_z
Si Si1 0.576288 0.653929 0.355766
Si Si2 0.836221 0.684002 0.541455
Si Si3 0.000000 0.313815 0.250000
Si Si4 0.689623 0.636234 0.678377
Si Si5 0.952637 0.476372 0.902037
Si Si6 0.120381 0.032605 0.022033
O O1 0.636362 0.727082 0.361630
O O2 0.518405 0.739199 0.378124
O O3 0.587940 0.603571 0.180467
O O4 0.572448 0.554654 0.479917
O O5 0.765408 0.643731 0.640481
O O6 0.831889 0.749163 0.384473
O O7 0.887939 0.586192 0.489074
O O8 0.943359 0.401427 0.334702
O O9 0.672572 0.541276 0.569146
O O10 0.652336 0.604405 0.862191
O O11 0.000000 0.409488 0.750000
O O12 0.000000 0.500000 0.000000
#
# Coordination Sequence:
#
# PCOD9266693 Si02
#       6
#     8   8   4   8   8   8
#     4  10  20  38  59  81 119 149 200 249 288 364
#     4  10  19  38  59  85 121 156 198 244 301 355
#     4  10  22  36  60  84 114 158 198 238 296 346
#     4   9  20  35  60  87 116 157 195 248 301 352
#     4  10  21  37  55  84 117 157 190 239 290 355
#     4   9  20  38  57  85 114 152 197 250 296 349
#
# _framework density 19.811349
#
# number of rings (size 3 to 8) (size 9 to 14) (size 15 to 20)
#    0.545    1.818    1.818    0.000    0.000    5.818 
#    0.000    3.636    4.000    0.000    0.000    0.000 
#    0.000    0.000    0.000    0.000    0.000    0.000 
#
# Total GULP energy -122551.396539 kJ/mol
# GULP energy per Si atom -5570.518025 kJ/mol
# Density = 1.976626 g / cm^3
# Si number density = 19.811349 Si / 1000 Ang^3
#
#
#
# Elastic Constant Matrix: (Units=GPa)
#
#
# Indices 1 2 3 4 5 6 
#
# 1 90.5997 44.9848 13.7139 0.0000 11.2955 0.0000
# 2 44.9848 92.8866 36.4754 0.0000 -2.5591 0.0000
# 3 13.7139 36.4754 88.7814 0.0000 17.1520 0.0000
# 4 0.0000 0.0000 0.0000 10.5807 0.0000 11.8514
# 5 11.2955 -2.5591 17.1520 0.0000 15.5998 0.0000
# 6 0.0000 0.0000 0.0000 11.8514 0.0000 17.4156
#
#
#
# Elastic Compliance Matrix: (Units=1/GPa)
#
#
# Indices 1 2 3 4 5 6 
#
# 1 0.019160 -0.012551 0.006698 0.000000 -0.023297 0.000000
# 2 -0.012551 0.022428 -0.012370 0.000000 0.026368 0.000000
# 3 0.006698 -0.012370 0.021128 0.000000 -0.030109 0.000000
# 4 0.000000 0.000000 0.000000 0.397474 0.000000 -0.270482
# 5 -0.023297 0.026368 -0.030109 0.000000 0.118403 0.000000
# 6 0.000000 0.000000 0.000000 -0.270482 0.000000 0.241483
#
#
# Mechanical properties :
#
#
# Convention : Reuss Voigt Hill
#
# Bulk Modulus (GPa) = 38.06653 51.40178 44.73416
# Shear Modulus (GPa) = 5.77847 20.52547 13.15197
#
# Velocity S-wave (km/s) = 1.70970 3.22226 2.57934
# Velocity P-wave (km/s) = 4.81183 6.31236 5.61247
#
# Compressibility (1/GPa) = 0.02626979
#
# Stress axis : x y z
#
# Youngs Moduli (GPa) = 52.19133 44.58635 47.33026
#
# Poissons Ratio (x) = 0.55962 -0.31701
# Poissons Ratio (y) = 0.65507 0.58548
# Poissons Ratio (z) = -0.34957 0.55153
#
# Static dielectric constant tensor:
#      x y z
#    x 1.686290 0.000000 0.027050 
#    y 0.000000 1.781530 0.000000 
#    z 0.027050 0.000000 1.756110 
# 
# From -- ./inp_files/54402.got.cif
#   From: 2010.05.17/outbox.cif.g08.bks.cpg/sg15_28_cif.got.tgz:54402.got - 2010.06.03 18:47:42.
