data_PCOD9266180
_publ_section_title
;
Structure prediction by ZEFSAII (Michael W. Deem and Ramdas Pophale) SiO2 
 PCOD9266180
Probable space group: C 2/C
;
_chemical_formula_sum "Si O2"
_cell_formula_units_Z 52
_cell_length_a 16.557548
_cell_length_b 8.737614
_cell_length_c 29.855926
_cell_angle_alpha 90.000000
_cell_angle_beta 146.301147
_cell_angle_gamma 90.000000
_cell_volume 2396.501005
_symmetry_space_group_name_H-M "C 2/C"
_symmetry_group_IT_number 15
_symmetry_cell_setting 'monoclinic'
loop_
_space_group_symop_operation_xyz
x,y,z
-x,y,1/2-z
-x,-y,-z
x,-y,1/2+z
1/2+x,1/2+y,z
1/2-x,1/2+y,1/2-z
1/2-x,1/2-y,-z
1/2+x,1/2-y,1/2+z
loop_
_atom_site_type_symbol
_atom_site_label
_atom_site_fract_x
_atom_site_fract_y
_atom_site_fract_z
Si Si1 0.000000 0.106310 0.750000
Si Si2 0.513539 0.126083 0.329433
Si Si3 0.310291 0.487551 0.939918
Si Si4 0.450210 0.308261 0.925108
Si Si5 0.703811 0.010893 0.140925
Si Si6 0.494302 0.745462 0.915002
Si Si7 0.295201 0.517666 0.286198
O O1 0.000284 0.220575 0.707141
O O2 0.851138 0.007976 0.680240
O O3 0.639095 0.024055 0.365691
O O4 0.553995 0.160741 0.400012
O O5 0.358138 0.045572 0.260428
O O6 0.363698 0.433041 0.915771
O O7 0.383882 0.646668 0.988437
O O8 0.383779 0.358425 0.005835
O O9 0.390291 0.142739 0.908627
O O10 0.403261 0.348421 0.852887
O O11 0.763778 0.017856 0.219402
O O12 0.590266 0.150674 0.087867
O O13 0.372869 0.637391 0.836540
#
# Coordination Sequence:
#
# PCOD9266180 Si02
#       7
#     4   8   8   8   8   8   8
#     4  12  20  36  62  92 110 154 208 248 286 356
#     4  11  19  36  62  86 113 157 209 240 288 357
#     4  10  21  37  59  86 115 165 204 236 282 369
#     4  10  20  37  59  84 119 157 203 233 295 360
#     4  11  20  37  60  88 118 153 192 254 303 342
#     4  10  22  36  58  87 125 151 192 249 310 348
#     4  10  19  37  61  86 111 155 200 245 290 354
#
# _framework density 21.698301000000001
#
# number of rings (size 3 to 8) (size 9 to 14) (size 15 to 20)
#    0.000    1.538    4.615    1.385    0.000    0.615 
#    0.000    8.462    0.000    0.000    0.000    0.000 
#    0.000    0.000    0.000    0.000    0.000    0.000 
#
# Total GULP energy -145240.299454 kJ/mol
# GULP energy per Si atom -5586.165364 kJ/mol
# Density = 2.164891 g / cm^3
# Si number density = 21.698301 Si / 1000 Ang^3
#
#
#
# Elastic Constant Matrix: (Units=GPa)
#
#
# Indices 1 2 3 4 5 6 
#
# 1 72.7521 -4.8895 9.3712 0.0000 13.4259 0.0000
# 2 -4.8895 30.0699 0.4605 0.0000 11.1529 0.0000
# 3 9.3712 0.4605 58.4691 0.0000 -10.8302 0.0000
# 4 0.0000 0.0000 0.0000 15.2610 0.0000 -1.4250
# 5 13.4259 11.1529 -10.8302 0.0000 38.5737 0.0000
# 6 0.0000 0.0000 0.0000 -1.4250 0.0000 29.2821
#
#
#
# Elastic Compliance Matrix: (Units=1/GPa)
#
#
# Indices 1 2 3 4 5 6 
#
# 1 0.016264 0.005881 -0.004237 0.000000 -0.008551 0.000000
# 2 0.005881 0.039703 -0.003967 0.000000 -0.014640 0.000000
# 3 -0.004237 -0.003967 0.019303 0.000000 0.008041 0.000000
# 4 0.000000 0.000000 0.000000 0.065825 0.000000 0.003203
# 5 -0.008551 -0.014640 0.008041 0.000000 0.035391 0.000000
# 6 0.000000 0.000000 0.000000 0.003203 0.000000 0.034306
#
#
# Mechanical properties :
#
#
# Convention : Reuss Voigt Hill
#
# Bulk Modulus (GPa) = 14.15946 19.01951 16.58949
# Shear Modulus (GPa) = 20.92218 27.04662 23.98440
#
# Velocity S-wave (km/s) = 3.10858 3.53439 3.32830
# Velocity P-wave (km/s) = 4.40728 5.04384 4.73627
#
# Compressibility (1/GPa) = 0.07062415
#
# Stress axis : x y z
#
# Youngs Moduli (GPa) = 61.48409 25.18708 51.80573
#
# Poissons Ratio (x) = -0.14813 0.21950
# Poissons Ratio (y) = -0.36159 0.20552
# Poissons Ratio (z) = 0.26051 0.09992
#
# Static dielectric constant tensor:
#      x y z
#    x 1.809610 0.000000 -0.035200 
#    y 0.000000 1.815130 0.000000 
#    z -0.035200 0.000000 1.803660 
# 
# From -- ./inp_files/209039.got.cif
#   From: 2010.05.17/outbox.cif.g08.bks.cpg/sg15_105_cif.got.tgz:209039.got - 2010.06.03 18:47:42.
