data_PCOD9266790
_publ_section_title
;
Structure prediction by ZEFSAII (Michael W. Deem and Ramdas Pophale) SiO2 
 PCOD9266790
Probable space group: C 2/C
;
_chemical_formula_sum "Si O2"
_cell_formula_units_Z 64
_cell_length_a 20.040626
_cell_length_b 12.338105
_cell_length_c 15.798413
_cell_angle_alpha 90.000000
_cell_angle_beta 127.874897
_cell_angle_gamma 90.000000
_cell_volume 3083.504256
_symmetry_space_group_name_H-M "C 2/C"
_symmetry_group_IT_number 15
_symmetry_cell_setting 'monoclinic'
loop_
_space_group_symop_operation_xyz
x,y,z
-x,y,1/2-z
-x,-y,-z
x,-y,1/2+z
1/2+x,1/2+y,z
1/2-x,1/2+y,1/2-z
1/2-x,1/2-y,-z
1/2+x,1/2-y,1/2+z
loop_
_atom_site_type_symbol
_atom_site_label
_atom_site_fract_x
_atom_site_fract_y
_atom_site_fract_z
Si Si1 0.012446 0.344352 0.855968
Si Si2 0.751307 0.031924 0.864210
Si Si3 0.369467 0.089525 0.355739
Si Si4 0.519944 0.385257 0.398912
Si Si5 0.776879 0.751406 0.723560
Si Si6 0.298869 0.367948 0.045088
Si Si7 0.602304 0.562348 0.137795
Si Si8 0.322764 0.892590 0.420561
O O1 0.974071 0.223123 0.832629
O O2 0.000000 0.383710 0.750000
O O3 0.963171 0.400583 0.894199
O O4 0.109867 0.346036 0.959906
O O5 0.732404 0.159423 0.855195
O O6 0.677397 0.973572 0.755895
O O7 0.833717 0.013006 0.868036
O O8 0.759278 0.959606 0.953343
O O9 0.314989 0.197428 0.329245
O O10 0.357292 0.010372 0.424693
O O11 0.603569 0.380684 0.405174
O O12 0.461423 0.491078 0.355851
O O13 0.550722 0.377524 0.521440
O O14 0.841235 0.852272 0.766051
O O15 0.813118 0.686269 0.833119
O O16 0.271751 0.401927 0.117282
O O17 0.250000 0.250000 0.000000
#
# Coordination Sequence:
#
# PCOD9266790 Si02
#       8
#     8   8   8   8   8   8   8   8
#     4  12  23  36  57  94 127 155 201 267 320 363
#     4   9  19  34  59  88 116 162 206 255 314 377
#     4  10  22  36  59  89 119 162 212 251 311 391
#     4  10  20  33  58  91 120 156 200 258 317 370
#     4  10  19  38  61  85 122 165 207 258 310 385
#     4  11  19  36  62  90 124 156 200 264 326 365
#     4   9  17  35  57  86 124 158 203 251 312 376
#     4  11  22  39  61  89 123 164 206 260 317 378
#
# _framework density 20.755606
#
# number of rings (size 3 to 8) (size 9 to 14) (size 15 to 20)
#    0.000    1.750    2.500    3.375    1.750    0.000 
#    0.000    0.625    0.000    0.000    9.750    0.000 
#    0.000    0.000    0.000    0.000    0.000    0.000 
#
# Total GULP energy -178255.460272 kJ/mol
# GULP energy per Si atom -5570.483133 kJ/mol
# Density = 2.070837 g / cm^3
# Si number density = 20.755606 Si / 1000 Ang^3
#
#
#
# Elastic Constant Matrix: (Units=GPa)
#
#
# Indices 1 2 3 4 5 6 
#
# 1 110.7817 36.6022 -0.2056 0.0000 9.0237 0.0000
# 2 36.6022 96.4429 11.6873 0.0000 -5.8773 0.0000
# 3 -0.2056 11.6873 35.7083 0.0000 2.9970 0.0000
# 4 0.0000 0.0000 0.0000 23.1890 0.0000 -5.0089
# 5 9.0237 -5.8773 2.9970 0.0000 19.7013 0.0000
# 6 0.0000 0.0000 0.0000 -5.0089 0.0000 21.5056
#
#
#
# Elastic Compliance Matrix: (Units=1/GPa)
#
#
# Indices 1 2 3 4 5 6 
#
# 1 0.011240 -0.004967 0.002276 0.000000 -0.006976 0.000000
# 2 -0.004967 0.013281 -0.004962 0.000000 0.006992 0.000000
# 3 0.002276 -0.004962 0.030240 0.000000 -0.007123 0.000000
# 4 0.000000 0.000000 0.000000 0.045408 0.000000 0.010576
# 5 -0.006976 0.006992 -0.007123 0.000000 0.057123 0.000000
# 6 0.000000 0.000000 0.000000 0.010576 0.000000 0.048963
#
#
# Mechanical properties :
#
#
# Convention : Reuss Voigt Hill
#
# Bulk Modulus (GPa) = 25.34556 37.67787 31.51171
# Shear Modulus (GPa) = 21.30257 25.86912 23.58585
#
# Velocity S-wave (km/s) = 3.20715 3.53422 3.37465
# Velocity P-wave (km/s) = 5.09434 5.90312 5.51358
#
# Compressibility (1/GPa) = 0.03945464
#
# Stress axis : x y z
#
# Youngs Moduli (GPa) = 88.96571 75.29370 33.06900
#
# Poissons Ratio (x) = 0.37397 -0.07526
# Poissons Ratio (y) = 0.44188 0.16410
# Poissons Ratio (z) = -0.20247 0.37364
#
# Static dielectric constant tensor:
#      x y z
#    x 1.878140 0.000000 0.011510 
#    y 0.000000 1.859620 0.000000 
#    z 0.011510 0.000000 1.805790 
# 
# From -- ./inp_files/215078.got.cif
#   From: 2010.05.17/outbox.cif.g08.bks.cpg/sg15_108_cif.got.tgz:215078.got - 2010.06.03 18:47:42.
