data_PCOD9266407
_publ_section_title
;
Structure prediction by ZEFSAII (Michael W. Deem and Ramdas Pophale) SiO2 
 PCOD9266407
Probable space group: C 2/C
;
_chemical_formula_sum "Si O2"
_cell_formula_units_Z 60
_cell_length_a 25.246432
_cell_length_b 8.404675
_cell_length_c 26.249599
_cell_angle_alpha 90.000000
_cell_angle_beta 147.880958
_cell_angle_gamma 90.000000
_cell_volume 2961.379068
_symmetry_space_group_name_H-M "C 2/C"
_symmetry_group_IT_number 15
_symmetry_cell_setting 'monoclinic'
loop_
_space_group_symop_operation_xyz
x,y,z
-x,y,1/2-z
-x,-y,-z
x,-y,1/2+z
1/2+x,1/2+y,z
1/2-x,1/2+y,1/2-z
1/2-x,1/2-y,-z
1/2+x,1/2-y,1/2+z
loop_
_atom_site_type_symbol
_atom_site_label
_atom_site_fract_x
_atom_site_fract_y
_atom_site_fract_z
Si Si1 0.500000 0.203138 0.750000
Si Si2 0.754701 0.607658 0.911090
Si Si3 0.045694 0.553557 0.483517
Si Si4 0.343558 0.559375 0.082284
Si Si5 0.467779 0.616035 0.811328
Si Si6 0.549804 0.007461 0.196888
Si Si7 0.966093 0.065104 0.526009
Si Si8 0.769481 0.986728 0.916629
O O1 0.600093 0.307298 0.838627
O O2 0.501078 0.097099 0.801424
O O3 0.743920 0.521995 0.956457
O O4 0.643143 0.587199 0.798747
O O5 0.772926 0.797105 0.933938
O O6 0.839265 0.537129 0.942430
O O7 0.034930 0.744163 0.476750
O O8 0.000000 0.500000 0.500000
O O9 0.981626 0.471579 0.386316
O O10 0.439484 0.448957 0.145747
O O11 0.294639 0.590302 0.987068
O O12 0.478696 0.806810 0.820969
O O13 0.474980 0.536848 0.873178
O O14 0.665505 0.987024 0.304440
O O15 0.857781 0.994017 0.448706
O O16 0.000000 0.000000 0.500000
#
# Coordination Sequence:
#
# PCOD9266407 Si02
#       8
#     4   8   8   8   8   8   8   8
#     4  12  26  36  58  94 138 156 196 266 314 370
#     4  10  19  37  64  90 113 162 210 245 298 365
#     4  10  23  42  60  84 121 163 206 252 301 365
#     4  11  21  39  59  95 124 154 200 257 311 357
#     4   9  19  38  65  87 120 160 207 248 300 381
#     4  10  24  41  58  89 124 167 205 242 309 376
#     4   9  19  38  61  91 115 152 207 257 299 354
#     4   9  21  37  65  87 119 161 207 245 301 377
#
# _framework density 20.260832000000001
#
# number of rings (size 3 to 8) (size 9 to 14) (size 15 to 20)
#    0.000    2.133    1.333    1.200    5.600    3.733 
#    2.400    0.000    0.000    0.000    0.000    0.000 
#    0.000    0.000    0.000    0.000    0.000    0.000 
#
# Total GULP energy -167242.149725 kJ/mol
# GULP energy per Si atom -5574.738324 kJ/mol
# Density = 2.021472 g / cm^3
# Si number density = 20.260832 Si / 1000 Ang^3
#
#
#
# Elastic Constant Matrix: (Units=GPa)
#
#
# Indices 1 2 3 4 5 6 
#
# 1 165.8746 37.5529 39.8945 0.0000 -12.3618 0.0000
# 2 37.5529 19.0228 28.0755 0.0000 -7.9181 0.0000
# 3 39.8945 28.0755 85.5277 0.0000 0.7792 0.0000
# 4 0.0000 0.0000 0.0000 21.7139 0.0000 -2.5801
# 5 -12.3618 -7.9181 0.7792 0.0000 29.6514 0.0000
# 6 0.0000 0.0000 0.0000 -2.5801 0.0000 39.1760
#
#
#
# Elastic Compliance Matrix: (Units=1/GPa)
#
#
# Indices 1 2 3 4 5 6 
#
# 1 0.011947 -0.033136 0.005341 0.000000 -0.004008 0.000000
# 2 -0.033136 0.224304 -0.058608 0.000000 0.047623 0.000000
# 3 0.005341 -0.058608 0.028569 0.000000 -0.014175 0.000000
# 4 0.000000 0.000000 0.000000 0.046417 0.000000 0.003057
# 5 -0.004008 0.047623 -0.014175 0.000000 0.045144 0.000000
# 6 0.000000 0.000000 0.000000 0.003057 0.000000 0.025727
#
#
# Mechanical properties :
#
#
# Convention : Reuss Voigt Hill
#
# Bulk Modulus (GPa) = 10.86794 53.49678 32.18236
# Shear Modulus (GPa) = 8.53848 29.10174 18.82011
#
# Velocity S-wave (km/s) = 2.05510 3.79404 3.05108
# Velocity P-wave (km/s) = 3.31766 6.75680 5.32265
#
# Compressibility (1/GPa) = 0.09201377
#
# Stress axis : x y z
#
# Youngs Moduli (GPa) = 83.70201 4.45824 35.00334
#
# Poissons Ratio (x) = 0.14773 -0.18695
# Poissons Ratio (y) = 2.77355 2.05147
# Poissons Ratio (z) = -0.44706 0.26129
#
# Static dielectric constant tensor:
#      x y z
#    x 1.701900 0.000000 -0.013450 
#    y 0.000000 1.770590 0.000000 
#    z -0.013450 0.000000 1.744530 
# 
# From -- ./inp_files/279730.got.cif
#   From: 2010.05.17/outbox.cif.g08.bks.cpg/sg15_140_cif.got.tgz:279730.got - 2010.06.03 18:47:42.
