data_PCOD9266610
_publ_section_title
;
Structure prediction by ZEFSAII (Michael W. Deem and Ramdas Pophale) SiO2 
 PCOD9266610
Probable space group: C 2/C
;
_chemical_formula_sum "Si O2"
_cell_formula_units_Z 60
_cell_length_a 22.290540
_cell_length_b 18.976253
_cell_length_c 12.583088
_cell_angle_alpha 90.000000
_cell_angle_beta 38.517859
_cell_angle_gamma 90.000000
_cell_volume 3314.652311
_symmetry_space_group_name_H-M "C 2/C"
_symmetry_group_IT_number 15
_symmetry_cell_setting 'monoclinic'
loop_
_space_group_symop_operation_xyz
x,y,z
-x,y,1/2-z
-x,-y,-z
x,-y,1/2+z
1/2+x,1/2+y,z
1/2-x,1/2+y,1/2-z
1/2-x,1/2-y,-z
1/2+x,1/2-y,1/2+z
loop_
_atom_site_type_symbol
_atom_site_label
_atom_site_fract_x
_atom_site_fract_y
_atom_site_fract_z
Si Si1 0.335934 0.908923 0.318739
Si Si2 0.298888 0.685124 0.368379
Si Si3 0.473709 0.226450 0.663293
Si Si4 0.374129 0.205926 0.228516
Si Si5 0.125652 0.610268 0.960460
Si Si6 0.319629 0.727219 0.104211
Si Si7 0.000000 0.771057 0.250000
Si Si8 0.099019 0.435392 0.726642
O O1 0.246969 0.883891 0.514967
O O2 0.412730 0.844717 0.222353
O O3 0.314434 0.916549 0.223070
O O4 0.382725 0.982647 0.285240
O O5 0.250000 0.750000 0.500000
O O6 0.410461 0.703716 0.230154
O O7 0.281344 0.694557 0.267158
O O8 0.500000 0.223319 0.750000
O O9 0.562487 0.227331 0.460338
O O10 0.267665 0.235421 0.356955
O O11 0.435410 0.228528 0.249558
O O12 0.360362 0.121321 0.247143
O O13 0.137551 0.694473 0.935330
O O14 0.149287 0.586399 0.046074
O O15 0.015367 0.582059 0.106974
O O16 0.414640 0.688043 0.928507
#
# Coordination Sequence:
#
# PCOD9266610 Si02
#       8
#     8   8   8   8   8   8   4   8
#     4  11  22  35  58  83 127 171 196 243 315 372
#     4  10  19  38  54  83 121 164 208 259 296 354
#     4  11  22  35  56  89 124 160 212 256 302 357
#     4  12  22  35  62  91 120 161 207 251 311 370
#     4  11  20  37  55  79 126 164 194 252 305 359
#     4  12  21  38  62  89 123 160 212 256 312 364
#     4  12  20  40  56  90 124 154 196 266 306 354
#     4  11  22  36  55  87 126 160 201 240 312 383
#
# _framework density 18.101447
#
# number of rings (size 3 to 8) (size 9 to 14) (size 15 to 20)
#    0.000    0.800    8.000    2.400    1.867    1.067 
#    0.000    0.000    0.000    0.000    1.733    1.867 
#    0.000    0.000    0.000    0.000    0.000    0.000 
#
# Total GULP energy -167008.564286 kJ/mol
# GULP energy per Si atom -5566.952143 kJ/mol
# Density = 1.806025 g / cm^3
# Si number density = 18.101447 Si / 1000 Ang^3
#
#
#
# Elastic Constant Matrix: (Units=GPa)
#
#
# Indices 1 2 3 4 5 6 
#
# 1 91.7806 15.2043 50.9879 0.0000 4.2533 0.0000
# 2 15.2043 63.4886 30.6706 0.0000 -15.7167 0.0000
# 3 50.9879 30.6706 133.2538 0.0000 10.9021 0.0000
# 4 0.0000 0.0000 0.0000 18.8541 0.0000 -2.1828
# 5 4.2533 -15.7167 10.9021 0.0000 31.8073 0.0000
# 6 0.0000 0.0000 0.0000 -2.1828 0.0000 16.5197
#
#
#
# Elastic Compliance Matrix: (Units=1/GPa)
#
#
# Indices 1 2 3 4 5 6 
#
# 1 0.013889 -0.001069 -0.005014 0.000000 -0.000667 0.000000
# 2 -0.001069 0.021972 -0.005708 0.000000 0.012956 0.000000
# 3 -0.005014 -0.005708 0.011227 0.000000 -0.005998 0.000000
# 4 0.000000 0.000000 0.000000 0.053863 0.000000 0.007117
# 5 -0.000667 0.012956 -0.005998 0.000000 0.039986 0.000000
# 6 0.000000 0.000000 0.000000 0.007117 0.000000 0.061474
#
#
# Mechanical properties :
#
#
# Convention : Reuss Voigt Hill
#
# Bulk Modulus (GPa) = 42.54204 53.58317 48.06260
# Shear Modulus (GPa) = 21.38313 26.21355 23.79834
#
# Velocity S-wave (km/s) = 3.44072 3.80958 3.62984
# Velocity P-wave (km/s) = 6.27199 7.00117 6.64659
#
# Compressibility (1/GPa) = 0.02350616
#
# Stress axis : x y z
#
# Youngs Moduli (GPa) = 71.99976 45.51305 89.06722
#
# Poissons Ratio (x) = 0.04866 0.44656
# Poissons Ratio (y) = 0.07698 0.50840
# Poissons Ratio (z) = 0.36099 0.25979
#
# Static dielectric constant tensor:
#      x y z
#    x 1.696210 0.000000 0.022320 
#    y 0.000000 1.618760 0.000000 
#    z 0.022320 0.000000 1.721960 
# 
# From -- ./inp_files/113784.got.cif
#   From: 2010.05.17/outbox.cif.g08.bks.cpg/sg15_57_cif.got.tgz:113784.got - 2010.06.03 18:47:42.
