data_PCOD9266062
_publ_section_title
;
Structure prediction by ZEFSAII (Michael W. Deem and Ramdas Pophale) SiO2 
 PCOD9266062
Probable space group: C 2/C
;
_chemical_formula_sum "Si O2"
_cell_formula_units_Z 60
_cell_length_a 25.562662
_cell_length_b 23.958544
_cell_length_c 15.056656
_cell_angle_alpha 90.000000
_cell_angle_beta 159.311289
_cell_angle_gamma 90.000000
_cell_volume 3257.819505
_symmetry_space_group_name_H-M "C 2/C"
_symmetry_group_IT_number 15
_symmetry_cell_setting 'monoclinic'
loop_
_space_group_symop_operation_xyz
x,y,z
-x,y,1/2-z
-x,-y,-z
x,-y,1/2+z
1/2+x,1/2+y,z
1/2-x,1/2+y,1/2-z
1/2-x,1/2-y,-z
1/2+x,1/2-y,1/2+z
loop_
_atom_site_type_symbol
_atom_site_label
_atom_site_fract_x
_atom_site_fract_y
_atom_site_fract_z
Si Si1 0.500000 0.782758 0.750000
Si Si2 0.246565 0.161378 0.426938
Si Si3 0.336488 0.940792 0.951237
Si Si4 0.563906 0.884288 0.738092
Si Si5 0.553850 0.144373 0.017046
Si Si6 0.957053 0.849964 0.582618
Si Si7 0.260596 0.760928 0.777365
Si Si8 0.765532 0.435781 0.349477
O O1 0.591293 0.825856 0.833160
O O2 0.397445 0.748907 0.519872
O O3 0.253647 0.103041 0.383689
O O4 0.392057 0.158166 0.719945
O O5 0.256258 0.209746 0.367282
O O6 0.101514 0.167142 0.256152
O O7 0.253715 0.999048 0.810407
O O8 0.500000 0.953988 0.250000
O O9 0.373353 0.907063 0.920672
O O10 0.554434 0.871225 0.620319
O O11 0.406886 0.910446 0.519990
O O12 0.688663 0.925526 0.974914
O O13 0.650452 0.198035 0.146145
O O14 0.846090 0.797651 0.417032
O O15 0.873842 0.899550 0.399819
O O16 0.000000 0.867957 0.750000
#
# Coordination Sequence:
#
# PCOD9266062 Si02
#       8
#     4   8   8   8   8   8   8   8
#     4  10  22  38  58  88 120 150 194 246 298 356
#     4  10  24  40  59  89 120 161 198 242 295 353
#     4   9  18  41  62  83 120 156 199 245 292 350
#     4  10  19  37  59  93 115 150 196 253 290 355
#     4  10  22  38  62  91 117 159 205 237 293 359
#     4  12  24  38  61  89 120 156 198 248 295 352
#     4  11  23  41  61  85 121 158 197 243 300 356
#     4  10  20  38  61  87 118 154 195 246 302 346
#
# _framework density 18.417227
#
# number of rings (size 3 to 8) (size 9 to 14) (size 15 to 20)
#    0.000    1.867    4.000    2.800    1.867    3.733 
#    2.400    0.000    5.867    0.000    0.000    0.000 
#    0.000    0.000    0.000    0.000    0.000    0.000 
#
# Total GULP energy -167416.100797 kJ/mol
# GULP energy per Si atom -5580.536693 kJ/mol
# Density = 1.837531 g / cm^3
# Si number density = 18.417227 Si / 1000 Ang^3
#
#
#
# Elastic Constant Matrix: (Units=GPa)
#
#
# Indices 1 2 3 4 5 6 
#
# 1 79.9103 10.3764 31.0557 0.0000 -19.3976 0.0000
# 2 10.3764 98.5491 38.3790 0.0000 -5.2927 0.0000
# 3 31.0557 38.3790 81.4028 0.0000 -11.3067 0.0000
# 4 0.0000 0.0000 0.0000 23.7685 0.0000 -0.3589
# 5 -19.3976 -5.2927 -11.3067 0.0000 30.7005 0.0000
# 6 0.0000 0.0000 0.0000 -0.3589 0.0000 3.2009
#
#
#
# Elastic Compliance Matrix: (Units=1/GPa)
#
#
# Indices 1 2 3 4 5 6 
#
# 1 0.016659 0.000879 -0.005572 0.000000 0.008625 0.000000
# 2 0.000879 0.012476 -0.006156 0.000000 0.000439 0.000000
# 3 -0.005572 -0.006156 0.017576 0.000000 0.001891 0.000000
# 4 0.000000 0.000000 0.000000 0.042144 0.000000 0.004725
# 5 0.008625 0.000439 0.001891 0.000000 0.038795 0.000000
# 6 0.000000 0.000000 0.000000 0.004725 0.000000 0.312938
#
#
# Mechanical properties :
#
#
# Convention : Reuss Voigt Hill
#
# Bulk Modulus (GPa) = 39.98105 46.60938 43.29521
# Shear Modulus (GPa) = 10.62423 23.53739 17.08081
#
# Velocity S-wave (km/s) = 2.40440 3.57880 3.04869
# Velocity P-wave (km/s) = 5.42806 6.51456 5.99597
#
# Compressibility (1/GPa) = 0.02501185
#
# Stress axis : x y z
#
# Youngs Moduli (GPa) = 60.02748 80.15529 56.89726
#
# Poissons Ratio (x) = -0.07047 0.31703
# Poissons Ratio (y) = -0.05277 0.35028
# Poissons Ratio (z) = 0.33447 0.49347
#
# Static dielectric constant tensor:
#      x y z
#    x 1.629020 0.000000 -0.002200 
#    y 0.000000 1.636010 0.000000 
#    z -0.002200 0.000000 1.634010 
# 
# From -- ./inp_files/179295.got.cif
#   From: 2010.05.17/outbox.cif.g08.bks.cpg/sg15_90_cif.got.tgz:179295.got - 2010.06.03 18:47:42.
