data_PCOD9266804
_publ_section_title
;
Structure prediction by ZEFSAII (Michael W. Deem and Ramdas Pophale) SiO2 
 PCOD9266804
Probable space group: C 2/C
;
_chemical_formula_sum "Si O2"
_cell_formula_units_Z 48
_cell_length_a 11.252605
_cell_length_b 8.734383
_cell_length_c 22.919913
_cell_angle_alpha 90.000000
_cell_angle_beta 75.484496
_cell_angle_gamma 90.000000
_cell_volume 2180.767934
_symmetry_space_group_name_H-M "C 2/C"
_symmetry_group_IT_number 15
_symmetry_cell_setting 'monoclinic'
loop_
_space_group_symop_operation_xyz
x,y,z
-x,y,1/2-z
-x,-y,-z
x,-y,1/2+z
1/2+x,1/2+y,z
1/2-x,1/2+y,1/2-z
1/2-x,1/2-y,-z
1/2+x,1/2-y,1/2+z
loop_
_atom_site_type_symbol
_atom_site_label
_atom_site_fract_x
_atom_site_fract_y
_atom_site_fract_z
Si Si1 0.878065 0.048875 0.235144
Si Si2 0.600621 0.302552 0.507717
Si Si3 0.693479 0.248068 0.088293
Si Si4 0.044185 0.039431 0.904572
Si Si5 0.677667 0.005991 0.985820
Si Si6 0.358870 0.202696 0.276369
O O1 0.748599 0.137506 0.251740
O O2 0.000000 0.122412 0.250000
O O3 0.908830 0.011175 0.163897
O O4 0.861220 0.885775 0.268425
O O5 0.487996 0.392937 0.551328
O O6 0.623699 0.357350 0.438463
O O7 0.711958 0.378884 0.530294
O O8 0.574159 0.121880 0.509159
O O9 0.573068 0.351414 0.091603
O O10 0.696448 0.116607 0.039034
O O11 0.680873 0.172754 0.152516
O O12 0.801113 0.374770 0.068972
O O13 0.500000 0.148760 0.250000
#
# Coordination Sequence:
#
# PCOD9266804 Si02
#       6
#     8   8   8   8   8   8
#     4  11  24  46  69  96 131 179 226 281 336 391
#     4   9  19  35  59  94 125 166 213 264 334 401
#     4  10  19  38  61  88 134 168 213 276 330 394
#     4  10  19  38  61  87 134 169 211 276 330 392
#     4   9  19  35  60  94 124 170 212 265 337 399
#     4  11  24  46  68  97 132 177 228 280 335 394
#
# _framework density 22.010594999999999
#
# number of rings (size 3 to 8) (size 9 to 14) (size 15 to 20)
#    0.000    2.000    3.333    1.000    0.000    4.000 
#    9.000    0.000    0.000    0.000    0.000    0.000 
#    0.000    0.000    0.000    0.000    0.000    0.000 
#
# Total GULP energy -133728.717249 kJ/mol
# GULP energy per Si atom -5572.029885 kJ/mol
# Density = 2.196050 g / cm^3
# Si number density = 22.010595 Si / 1000 Ang^3
#
#
#
# Elastic Constant Matrix: (Units=GPa)
#
#
# Indices 1 2 3 4 5 6 
#
# 1 122.1583 28.6239 0.5226 0.0000 -1.7587 0.0000
# 2 28.6239 104.3814 9.9146 0.0000 -6.0718 0.0000
# 3 0.5226 9.9146 82.2084 0.0000 6.3149 0.0000
# 4 0.0000 0.0000 0.0000 7.6649 0.0000 6.9788
# 5 -1.7587 -6.0718 6.3149 0.0000 24.0346 0.0000
# 6 0.0000 0.0000 0.0000 6.9788 0.0000 42.2007
#
#
#
# Elastic Compliance Matrix: (Units=1/GPa)
#
#
# Indices 1 2 3 4 5 6 
#
# 1 0.008753 -0.002425 0.000240 0.000000 -0.000035 0.000000
# 2 -0.002425 0.010553 -0.001478 0.000000 0.002877 0.000000
# 3 0.000240 -0.001478 0.012623 0.000000 -0.003673 0.000000
# 4 0.000000 0.000000 0.000000 0.153590 0.000000 -0.025400
# 5 -0.000035 0.002877 -0.003673 0.000000 0.043296 0.000000
# 6 0.000000 0.000000 0.000000 -0.025400 0.000000 0.027897
#
#
# Mechanical properties :
#
#
# Convention : Reuss Voigt Hill
#
# Bulk Modulus (GPa) = 40.64829 42.98558 41.81694
# Shear Modulus (GPa) = 18.36615 32.75917 25.56266
#
# Velocity S-wave (km/s) = 2.89177 3.86208 3.41160
# Velocity P-wave (km/s) = 5.44587 6.28168 5.87865
#
# Compressibility (1/GPa) = 0.02460128
#
# Stress axis : x y z
#
# Youngs Moduli (GPa) = 114.24921 94.75960 79.21991
#
# Poissons Ratio (x) = 0.22979 -0.01897
# Poissons Ratio (y) = 0.27706 0.11711
# Poissons Ratio (z) = -0.02737 0.14008
#
# Static dielectric constant tensor:
#      x y z
#    x 2.123140 0.000000 -0.047580 
#    y 0.000000 1.853840 0.000000 
#    z -0.047580 0.000000 1.816690 
# 
# From -- ./inp_files/267621.got.cif
#   From: 2010.05.17/outbox.cif.g08.bks.cpg/sg15_134_cif.got.tgz:267621.got - 2010.06.03 18:47:42.
