data_PCOD9266542
_publ_section_title
;
Structure prediction by ZEFSAII (Michael W. Deem and Ramdas Pophale) SiO2 
 PCOD9266542
Probable space group: C 2/C
;
_chemical_formula_sum "Si O2"
_cell_formula_units_Z 52
_cell_length_a 17.724951
_cell_length_b 17.647883
_cell_length_c 9.709102
_cell_angle_alpha 90.000000
_cell_angle_beta 50.036368
_cell_angle_gamma 90.000000
_cell_volume 2327.779560
_symmetry_space_group_name_H-M "C 2/C"
_symmetry_group_IT_number 15
_symmetry_cell_setting 'monoclinic'
loop_
_space_group_symop_operation_xyz
x,y,z
-x,y,1/2-z
-x,-y,-z
x,-y,1/2+z
1/2+x,1/2+y,z
1/2-x,1/2+y,1/2-z
1/2-x,1/2-y,-z
1/2+x,1/2-y,1/2+z
loop_
_atom_site_type_symbol
_atom_site_label
_atom_site_fract_x
_atom_site_fract_y
_atom_site_fract_z
Si Si1 0.631534 0.751865 0.163890
Si Si2 0.790478 0.983479 0.559685
Si Si3 0.046257 0.207827 0.969046
Si Si4 0.594314 0.539738 0.828063
Si Si5 0.352650 0.910875 0.428329
Si Si6 0.365942 0.861468 0.718411
Si Si7 0.000000 0.457461 0.750000
O O1 0.589842 0.716431 0.072146
O O2 0.572403 0.714521 0.361931
O O3 0.600729 0.840877 0.210456
O O4 0.750000 0.750000 0.000000
O O5 0.886015 0.976212 0.353776
O O6 0.727365 0.906467 0.606897
O O7 0.816260 0.004099 0.686031
O O8 0.732397 0.055137 0.565543
O O9 0.079152 0.128245 0.871014
O O10 0.096311 0.275000 0.820340
O O11 0.500000 0.500000 0.000000
O O12 0.336491 0.872549 0.593890
O O13 0.416477 0.983924 0.392430
O O14 0.457329 0.908479 0.675026
#
# Coordination Sequence:
#
# PCOD9266542 Si02
#       7
#     8   8   8   8   8   8   4
#     4  10  21  38  66  98 130 175 224 284 337 403
#     4  11  24  44  70 100 131 180 226 280 342 405
#     4  10  24  42  65  97 137 173 228 280 341 403
#     4  12  27  45  69  97 135 180 232 283 336 411
#     4  10  19  37  66  97 132 169 224 274 331 395
#     4  10  21  42  64  97 138 172 221 280 341 406
#     4  10  20  34  62  96 138 174 216 268 336 406
#
# _framework density 22.338884
#
# number of rings (size 3 to 8) (size 9 to 14) (size 15 to 20)
#    0.000    1.538    1.538    3.692    6.462    1.846 
#    8.308    0.000    0.000    0.000    0.000    0.000 
#    0.000    0.000    0.000    0.000    0.000    0.000 
#
# Total GULP energy -144885.476973 kJ/mol
# GULP energy per Si atom -5572.518345 kJ/mol
# Density = 2.228804 g / cm^3
# Si number density = 22.338884 Si / 1000 Ang^3
#
#
#
# Elastic Constant Matrix: (Units=GPa)
#
#
# Indices 1 2 3 4 5 6 
#
# 1 66.1035 0.9000 1.8800 0.0000 -12.0530 0.0000
# 2 0.9000 127.5002 7.7616 0.0000 -5.5853 0.0000
# 3 1.8800 7.7616 53.8292 0.0000 -8.4175 0.0000
# 4 0.0000 0.0000 0.0000 30.5654 0.0000 -5.7827
# 5 -12.0530 -5.5853 -8.4175 0.0000 34.5601 0.0000
# 6 0.0000 0.0000 0.0000 -5.7827 0.0000 11.5131
#
#
#
# Elastic Compliance Matrix: (Units=1/GPa)
#
#
# Indices 1 2 3 4 5 6 
#
# 1 0.016162 0.000118 0.000315 0.000000 0.005732 0.000000
# 2 0.000118 0.007950 -0.000980 0.000000 0.001087 0.000000
# 3 0.000315 -0.000980 0.019440 0.000000 0.004686 0.000000
# 4 0.000000 0.000000 0.000000 0.036152 0.000000 0.018158
# 5 0.005732 0.001087 0.004686 0.000000 0.032251 0.000000
# 6 0.000000 0.000000 0.000000 0.018158 0.000000 0.095978
#
#
# Mechanical properties :
#
#
# Convention : Reuss Voigt Hill
#
# Bulk Modulus (GPa) = 23.55305 29.83513 26.69409
# Shear Modulus (GPa) = 22.40325 31.12047 26.76186
#
# Velocity S-wave (km/s) = 3.17027 3.73648 3.46496
# Velocity P-wave (km/s) = 4.89563 5.65683 5.28994
#
# Compressibility (1/GPa) = 0.04245735
#
# Stress axis : x y z
#
# Youngs Moduli (GPa) = 61.87178 125.79255 51.43913
#
# Poissons Ratio (x) = -0.01483 -0.01620
# Poissons Ratio (y) = -0.00729 0.05043
# Poissons Ratio (z) = -0.01949 0.12332
#
# Static dielectric constant tensor:
#      x y z
#    x 1.852680 0.000000 -0.075880 
#    y 0.000000 1.844310 0.000000 
#    z -0.075880 0.000000 1.904790 
# 
# From -- ./inp_files/113634.got.cif
#   From: 2010.05.17/outbox.cif.g08.bks.cpg/sg15_57_cif.got.tgz:113634.got - 2010.06.03 18:47:42.
