data_PCOD9266665
_publ_section_title
;
Structure prediction by ZEFSAII (Michael W. Deem and Ramdas Pophale) SiO2 
 PCOD9266665
Probable space group: C 2/C
;
_chemical_formula_sum "Si O2"
_cell_formula_units_Z 64
_cell_length_a 26.758993
_cell_length_b 9.915313
_cell_length_c 20.159992
_cell_angle_alpha 90.000000
_cell_angle_beta 30.044234
_cell_angle_gamma 90.000000
_cell_volume 2678.038230
_symmetry_space_group_name_H-M "C 2/C"
_symmetry_group_IT_number 15
_symmetry_cell_setting 'monoclinic'
loop_
_space_group_symop_operation_xyz
x,y,z
-x,y,1/2-z
-x,-y,-z
x,-y,1/2+z
1/2+x,1/2+y,z
1/2-x,1/2+y,1/2-z
1/2-x,1/2-y,-z
1/2+x,1/2-y,1/2+z
loop_
_atom_site_type_symbol
_atom_site_label
_atom_site_fract_x
_atom_site_fract_y
_atom_site_fract_z
Si Si1 0.943124 0.590698 0.978224
Si Si2 0.220387 0.791384 0.308957
Si Si3 0.354509 0.455619 0.800389
Si Si4 0.221646 0.777446 0.157459
Si Si5 0.564332 0.511282 0.512638
Si Si6 0.497737 0.193688 0.062871
Si Si7 0.161849 0.657637 0.698807
Si Si8 0.330666 0.549886 0.969244
O O1 0.938743 0.428888 0.979335
O O2 0.044797 0.629731 0.823554
O O3 0.844252 0.677267 0.078160
O O4 0.965734 0.638743 0.027748
O O5 0.247262 0.743251 0.204489
O O6 0.308326 0.837770 0.256805
O O7 0.144627 0.916926 0.384695
O O8 0.281639 0.563788 0.851039
O O9 0.454360 0.446988 0.641296
O O10 0.315115 0.305845 0.854474
O O11 0.379210 0.520501 0.843283
O O12 0.108028 0.722152 0.278860
O O13 0.294631 0.701444 0.023947
O O14 0.549942 0.661445 0.501999
O O15 0.602191 0.514099 0.544849
O O16 0.232373 0.544250 0.587257
#
# Coordination Sequence:
#
# PCOD9266665 Si02
#       8
#     8   8   8   8   8   8   8   8
#     4  10  19  38  58  88 131 159 192 259 321 386
#     4  10  23  38  61  98 123 155 213 258 332 374
#     4  11  23  41  63  87 123 172 210 259 312 369
#     4  10  22  38  59  90 121 158 205 263 311 381
#     4  10  22  39  64  91 121 162 215 260 309 380
#     4   9  20  35  59  86 121 162 195 250 331 370
#     4  11  23  38  64  91 123 164 205 263 317 381
#     4  11  23  41  60  90 123 168 215 255 307 381
#
# _framework density 23.898091999999998
#
# number of rings (size 3 to 8) (size 9 to 14) (size 15 to 20)
#    0.000    1.750    2.500    1.125    3.500    3.500 
#    0.000    0.000    0.000    0.000    0.000    0.000 
#    0.000    0.000    0.000    0.000    0.000    0.000 
#
# Total GULP energy -179069.419394 kJ/mol
# GULP energy per Si atom -5595.919356 kJ/mol
# Density = 2.384370 g / cm^3
# Si number density = 23.898092 Si / 1000 Ang^3
#
#
#
# Elastic Constant Matrix: (Units=GPa)
#
#
# Indices 1 2 3 4 5 6 
#
# 1 55.2416 -3.3896 12.8214 0.0001 8.1533 0.0000
# 2 -3.3896 118.7647 32.9818 0.0005 -0.5244 -0.0004
# 3 12.8214 32.9818 55.5229 0.0005 -1.2299 -0.0004
# 4 0.0001 0.0005 0.0005 25.5770 -0.0002 1.2270
# 5 8.1533 -0.5244 -1.2299 -0.0002 27.6915 0.0001
# 6 0.0000 -0.0004 -0.0004 1.2270 0.0001 29.4720
#
#
#
# Elastic Compliance Matrix: (Units=1/GPa)
#
#
# Indices 1 2 3 4 5 6 
#
# 1 0.020630 0.002303 -0.006272 0.000000 -0.006309 0.000000
# 2 0.002303 0.010341 -0.006692 0.000000 -0.000779 0.000000
# 3 -0.006272 -0.006692 0.023495 0.000000 0.002763 0.000000
# 4 0.000000 0.000000 0.000000 0.039176 0.000000 -0.001631
# 5 -0.006309 -0.000779 0.002763 0.000000 0.038078 0.000000
# 6 0.000000 0.000000 0.000000 -0.001631 0.000000 0.033998
#
#
# Mechanical properties :
#
#
# Convention : Reuss Voigt Hill
#
# Bulk Modulus (GPa) = 30.17048 34.92850 32.54949
# Shear Modulus (GPa) = 25.24141 29.02247 27.13194
#
# Velocity S-wave (km/s) = 3.25346 3.48864 3.37310
# Velocity P-wave (km/s) = 5.17353 5.55651 5.36844
#
# Compressibility (1/GPa) = 0.03314498
#
# Stress axis : x y z
#
# Youngs Moduli (GPa) = 48.47221 96.70644 42.56235
#
# Poissons Ratio (x) = -0.22268 0.26693
# Poissons Ratio (y) = -0.11161 0.28481
# Poissons Ratio (z) = 0.30400 0.64711
#
# Static dielectric constant tensor:
#      x y z
#    x 1.910000 0.000000 -0.033730 
#    y 0.000000 1.921690 0.000000 
#    z -0.033730 0.000000 1.918690 
# 
# From -- ./inp_files/284427.got.cif
#   From: 2010.05.17/outbox.cif.g08.bks.cpg/sg15_143_cif.got.tgz:284427.got - 2010.06.03 18:47:42.
