data_PCOD9266247
_publ_section_title
;
Structure prediction by ZEFSAII (Michael W. Deem and Ramdas Pophale) SiO2 
 PCOD9266247
Probable space group: C 2/C
;
_chemical_formula_sum "Si O2"
_cell_formula_units_Z 36
_cell_length_a 33.847605
_cell_length_b 7.186435
_cell_length_c 14.610714
_cell_angle_alpha 90.000000
_cell_angle_beta 33.666375
_cell_angle_gamma 90.000000
_cell_volume 1970.160942
_symmetry_space_group_name_H-M "C 2/C"
_symmetry_group_IT_number 15
_symmetry_cell_setting 'monoclinic'
loop_
_space_group_symop_operation_xyz
x,y,z
-x,y,1/2-z
-x,-y,-z
x,-y,1/2+z
1/2+x,1/2+y,z
1/2-x,1/2+y,1/2-z
1/2-x,1/2-y,-z
1/2+x,1/2-y,1/2+z
loop_
_atom_site_type_symbol
_atom_site_label
_atom_site_fract_x
_atom_site_fract_y
_atom_site_fract_z
Si Si1 0.934748 0.019924 0.695809
Si Si2 0.832842 0.720585 0.823067
Si Si3 0.425463 0.948113 0.769187
Si Si4 0.580952 0.873978 0.512604
Si Si5 0.000000 0.974337 0.250000
O O1 0.917249 0.233969 0.752071
O O2 0.957566 0.928173 0.749957
O O3 0.870097 0.916356 0.773097
O O4 0.000000 0.000000 0.500000
O O5 0.875141 0.578408 0.807469
O O6 0.854029 0.649111 0.681160
O O7 0.750000 0.750000 0.000000
O O8 0.511995 0.974051 0.599055
O O9 0.405428 0.963449 0.915077
O O10 0.552413 0.667147 0.594624
#
# Coordination Sequence:
#
# PCOD9266247 Si02
#       5
#     8   8   8   8   4
#     4  10  19  37  62  85 109 150 193 237 276 337
#     4  12  23  37  57  89 117 148 189 231 290 345
#     4   9  20  39  62  81 114 150 194 236 275 330
#     4   8  17  38  59  82 112 146 189 243 269 328
#     4   8  16  34  62  82 106 142 202 232 264 324
#
# _framework density 18.27262
#
# number of rings (size 3 to 8) (size 9 to 14) (size 15 to 20)
#    0.000    3.111    4.444    0.667    0.000    2.667 
#    8.000    0.000    0.000    0.000    0.000    0.000 
#    0.000    0.000    0.000    0.000    0.000    0.000 
#
# Total GULP energy -100238.636894 kJ/mol
# GULP energy per Si atom -5568.813161 kJ/mol
# Density = 1.823103 g / cm^3
# Si number density = 18.272620 Si / 1000 Ang^3
#
#
#
# Elastic Constant Matrix: (Units=GPa)
#
#
# Indices 1 2 3 4 5 6 
#
# 1 66.5873 17.3628 57.5500 0.0006 13.0401 -0.0007
# 2 17.3628 52.4251 26.8416 0.0019 -5.8911 0.0027
# 3 57.5500 26.8416 167.8304 0.0024 3.3996 0.0001
# 4 0.0006 0.0019 0.0024 14.5539 0.0005 -11.8392
# 5 13.0401 -5.8911 3.3996 0.0005 23.6789 0.0008
# 6 -0.0007 0.0027 0.0001 -11.8392 0.0008 24.7813
#
#
#
# Elastic Compliance Matrix: (Units=1/GPa)
#
#
# Indices 1 2 3 4 5 6 
#
# 1 0.026260 -0.006452 -0.007670 0.000005 -0.014965 0.000004
# 2 -0.006452 0.023147 -0.001683 -0.000009 0.009553 -0.000007
# 3 -0.007670 -0.001683 0.008806 -0.000002 0.002541 -0.000001
# 4 0.000005 -0.000009 -0.000002 0.112388 -0.000009 0.053693
# 5 -0.014965 0.009553 0.002541 -0.000009 0.052485 -0.000007
# 6 0.000004 -0.000007 -0.000001 0.053693 -0.000007 0.066005
#
#
# Mechanical properties :
#
#
# Convention : Reuss Voigt Hill
#
# Bulk Modulus (GPa) = 37.58896 54.48351 46.03624
# Shear Modulus (GPa) = 15.17139 24.94204 20.05671
#
# Velocity S-wave (km/s) = 2.88458 3.69859 3.31666
# Velocity P-wave (km/s) = 5.63119 6.93694 6.31789
#
# Compressibility (1/GPa) = 0.02660355
#
# Stress axis : x y z
#
# Youngs Moduli (GPa) = 38.08140 43.20233 113.55826
#
# Poissons Ratio (x) = 0.27873 0.87094
# Poissons Ratio (y) = 0.24569 0.19113
# Poissons Ratio (z) = 0.29207 0.07271
#
# Static dielectric constant tensor:
#      x y z
#    x 1.676850 0.000000 0.023030 
#    y 0.000000 1.681840 0.000000 
#    z 0.023030 0.000000 1.605810 
# 
# From -- ./inp_files/180680.got.cif
#   From: 2010.05.17/outbox.cif.g08.bks.cpg/sg15_91_cif.got.tgz:180680.got - 2010.06.03 18:47:42.
