data_PCOD9266140
_publ_section_title
;
Structure prediction by ZEFSAII (Michael W. Deem and Ramdas Pophale) SiO2 
 PCOD9266140
Probable space group: C 2/C
;
_chemical_formula_sum "Si O2"
_cell_formula_units_Z 40
_cell_length_a 9.099165
_cell_length_b 14.284197
_cell_length_c 12.867821
_cell_angle_alpha 90.000000
_cell_angle_beta 105.675839
_cell_angle_gamma 90.000000
_cell_volume 1610.278768
_symmetry_space_group_name_H-M "C 2/C"
_symmetry_group_IT_number 15
_symmetry_cell_setting 'monoclinic'
loop_
_space_group_symop_operation_xyz
x,y,z
-x,y,1/2-z
-x,-y,-z
x,-y,1/2+z
1/2+x,1/2+y,z
1/2-x,1/2+y,1/2-z
1/2-x,1/2-y,-z
1/2+x,1/2-y,1/2+z
loop_
_atom_site_type_symbol
_atom_site_label
_atom_site_fract_x
_atom_site_fract_y
_atom_site_fract_z
Si Si1 0.680565 0.653330 0.783951
Si Si2 0.842929 0.244309 0.149695
Si Si3 0.321638 0.445719 0.737675
Si Si4 0.394387 0.969967 0.629324
Si Si5 0.531032 0.157663 0.544051
O O1 0.500000 0.671089 0.750000
O O2 0.736134 0.676919 0.678956
O O3 0.719368 0.545500 0.818347
O O4 0.806771 0.699591 0.882369
O O5 0.766097 0.145912 0.166386
O O6 0.907776 0.261690 0.047029
O O7 0.000000 0.252430 0.250000
O O8 0.500000 0.441323 0.750000
O O9 0.271124 0.455045 0.848123
O O10 0.500000 0.959936 0.750000
O O11 0.429735 0.885994 0.558410
O O12 0.448325 0.068523 0.588375
#
# Coordination Sequence:
#
# PCOD9266140 Si02
#       5
#     8   8   8   8   8
#     4  10  19  37  60  91 126 156 201 254 305 356
#     4   9  18  37  60  88 124 163 199 250 301 363
#     4  10  20  36  61  88 129 158 195 259 307 348
#     4  11  20  38  65  89 117 164 211 248 299 366
#     4  10  20  38  66  88 118 163 208 246 306 365
#
# _framework density 24.840420999999999
#
# number of rings (size 3 to 8) (size 9 to 14) (size 15 to 20)
#    0.000    2.000    4.000    0.600    0.000    0.800 
#    0.000   16.000    0.000    0.000    0.000    1.400 
#    0.000    0.000    0.000    0.000    0.000    0.000 
#
# Total GULP energy -111456.431967 kJ/mol
# GULP energy per Si atom -5572.821598 kJ/mol
# Density = 2.478388 g / cm^3
# Si number density = 24.840421 Si / 1000 Ang^3
#
#
#
# Elastic Constant Matrix: (Units=GPa)
#
#
# Indices 1 2 3 4 5 6 
#
# 1 193.1957 34.2661 26.9345 0.0000 -26.1105 0.0000
# 2 34.2661 78.5510 2.5640 0.0000 -7.1402 0.0000
# 3 26.9345 2.5640 72.0147 0.0000 -24.3531 0.0000
# 4 0.0000 0.0000 0.0000 22.2263 0.0000 -8.0986
# 5 -26.1105 -7.1402 -24.3531 0.0000 33.7796 0.0000
# 6 0.0000 0.0000 0.0000 -8.0986 0.0000 36.6634
#
#
#
# Elastic Compliance Matrix: (Units=1/GPa)
#
#
# Indices 1 2 3 4 5 6 
#
# 1 0.006220 -0.002356 -0.001038 0.000000 0.003562 0.000000
# 2 -0.002356 0.013893 0.001010 0.000000 0.001844 0.000000
# 3 -0.001038 0.001010 0.018565 0.000000 0.012796 0.000000
# 4 0.000000 0.000000 0.000000 0.048930 0.000000 0.010808
# 5 0.003562 0.001844 0.012796 0.000000 0.041971 0.000000
# 6 0.000000 0.000000 0.000000 0.010808 0.000000 0.029663
#
#
# Mechanical properties :
#
#
# Convention : Reuss Voigt Hill
#
# Bulk Modulus (GPa) = 29.48929 52.36560 40.92745
# Shear Modulus (GPa) = 28.52037 37.20032 32.86034
#
# Velocity S-wave (km/s) = 3.39210 3.87405 3.64106
# Velocity P-wave (km/s) = 5.21911 6.41386 5.84708
#
# Compressibility (1/GPa) = 0.03391062
#
# Stress axis : x y z
#
# Youngs Moduli (GPa) = 160.77212 71.97945 53.86350
#
# Poissons Ratio (x) = 0.16956 0.05592
# Poissons Ratio (y) = 0.37873 -0.05440
# Poissons Ratio (z) = 0.16690 -0.07270
#
# Static dielectric constant tensor:
#      x y z
#    x 2.156560 0.000000 0.046670 
#    y 0.000000 2.097040 0.000000 
#    z 0.046670 0.000000 2.020730 
# 
# From -- ./inp_files/133960.got.cif
#   From: 2010.05.17/outbox.cif.g08.bks.cpg/sg15_67_cif.got.tgz:133960.got - 2010.06.03 18:47:42.
