data_PCOD9266660
_publ_section_title
;
Structure prediction by ZEFSAII (Michael W. Deem and Ramdas Pophale) SiO2 
 PCOD9266660
Probable space group: C 2/C
;
_chemical_formula_sum "Si O2"
_cell_formula_units_Z 56
_cell_length_a 15.241361
_cell_length_b 20.654860
_cell_length_c 9.064886
_cell_angle_alpha 90.000000
_cell_angle_beta 83.137170
_cell_angle_gamma 90.000000
_cell_volume 2833.253681
_symmetry_space_group_name_H-M "C 2/C"
_symmetry_group_IT_number 15
_symmetry_cell_setting 'monoclinic'
loop_
_space_group_symop_operation_xyz
x,y,z
-x,y,1/2-z
-x,-y,-z
x,-y,1/2+z
1/2+x,1/2+y,z
1/2-x,1/2+y,1/2-z
1/2-x,1/2-y,-z
1/2+x,1/2-y,1/2+z
loop_
_atom_site_type_symbol
_atom_site_label
_atom_site_fract_x
_atom_site_fract_y
_atom_site_fract_z
Si Si1 0.754581 0.774108 0.167653
Si Si2 0.414366 0.316057 0.334118
Si Si3 0.080033 0.684899 0.017097
Si Si4 0.000000 0.369483 0.250000
Si Si5 0.182210 0.417539 0.139083
Si Si6 0.307012 0.958975 0.694507
Si Si7 0.728756 0.658998 0.398580
Si Si8 0.000000 0.420038 0.750000
O O1 0.851086 0.788657 0.217336
O O2 0.712464 0.845236 0.168310
O O3 0.715263 0.717422 0.282143
O O4 0.750000 0.750000 0.000000
O O5 0.500000 0.351539 0.250000
O O6 0.450369 0.252481 0.410370
O O7 0.351683 0.348885 0.470514
O O8 0.184997 0.679471 0.023284
O O9 0.036639 0.626400 0.115210
O O10 0.046960 0.675115 0.860211
O O11 0.924047 0.413149 0.336400
O O12 0.216801 0.468505 0.252417
O O13 0.209377 0.441938 0.971993
O O14 0.257248 0.905356 0.804301
O O15 0.412463 0.954525 0.706526
#
# Coordination Sequence:
#
# PCOD9266660 Si02
#       8
#     8   8   8   4   8   8   8   4
#     4  11  23  44  67  95 129 171 223 270 318 386
#     4  11  23  40  64  94 126 165 216 277 336 376
#     4  10  20  36  58  91 131 175 206 257 309 372
#     4  12  23  34  60  96 136 178 223 242 299 398
#     4  12  26  40  62  97 130 179 214 264 316 396
#     4  11  25  40  63  91 135 174 215 259 324 393
#     4  10  22  45  63  90 131 171 216 274 328 374
#     4  10  19  38  58  86 140 174 209 244 311 384
#
# _framework density 19.765260000000001
#
# number of rings (size 3 to 8) (size 9 to 14) (size 15 to 20)
#    0.000    1.143    3.571    3.857    8.000    1.143 
#    0.000    0.000    0.000    0.857    0.000    0.000 
#    0.000    0.000    0.000    0.000    0.000    0.000 
#
# Total GULP energy -156350.101829 kJ/mol
# GULP energy per Si atom -5583.932208 kJ/mol
# Density = 1.972027 g / cm^3
# Si number density = 19.765260 Si / 1000 Ang^3
#
#
#
# Elastic Constant Matrix: (Units=GPa)
#
#
# Indices 1 2 3 4 5 6 
#
# 1 79.0310 30.2253 56.1000 0.0000 -26.5870 0.0000
# 2 30.2253 116.2790 44.4958 0.0000 -5.8981 0.0000
# 3 56.1000 44.4958 150.6066 0.0000 2.2984 0.0000
# 4 0.0000 0.0000 0.0000 33.1878 0.0000 -6.9600
# 5 -26.5870 -5.8981 2.2984 0.0000 33.9944 0.0000
# 6 0.0000 0.0000 0.0000 -6.9600 0.0000 43.5895
#
#
#
# Elastic Compliance Matrix: (Units=1/GPa)
#
#
# Indices 1 2 3 4 5 6 
#
# 1 0.028349 -0.002320 -0.010217 0.000000 0.022460 0.000000
# 2 -0.002320 0.010007 -0.002093 0.000000 0.000063 0.000000
# 3 -0.010217 -0.002093 0.011203 0.000000 -0.009111 0.000000
# 4 0.000000 0.000000 0.000000 0.031175 0.000000 0.004978
# 5 0.022460 0.000063 -0.009111 0.000000 0.047610 0.000000
# 6 0.000000 0.000000 0.000000 0.004978 0.000000 0.023736
#
#
# Mechanical properties :
#
#
# Convention : Reuss Voigt Hill
#
# Bulk Modulus (GPa) = 49.26488 67.50653 58.38571
# Shear Modulus (GPa) = 26.58051 36.49405 31.53728
#
# Velocity S-wave (km/s) = 3.67114 4.30161 3.99882
# Velocity P-wave (km/s) = 6.55353 7.67464 7.13614
#
# Compressibility (1/GPa) = 0.02029843
#
# Stress axis : x y z
#
# Youngs Moduli (GPa) = 35.27467 99.92666 89.26047
#
# Poissons Ratio (x) = 0.23183 0.91199
# Poissons Ratio (y) = 0.08184 0.18686
# Poissons Ratio (z) = 0.36041 0.20919
#
# Static dielectric constant tensor:
#      x y z
#    x 1.724590 0.000000 -0.040890 
#    y 0.000000 1.703200 0.000000 
#    z -0.040890 0.000000 1.724050 
# 
# From -- ./inp_files/41300.got.cif
#   From: 2010.05.17/outbox.cif.g08.bks.cpg/sg15_21_cif.got.tgz:41300.got - 2010.06.03 18:47:42.
