data_PCOD9266458
_publ_section_title
;
Structure prediction by ZEFSAII (Michael W. Deem and Ramdas Pophale) SiO2 
 PCOD9266458
Probable space group: C 2/C
;
_chemical_formula_sum "Si O2"
_cell_formula_units_Z 60
_cell_length_a 19.910611
_cell_length_b 19.683590
_cell_length_c 6.506805
_cell_angle_alpha 90.000000
_cell_angle_beta 112.639257
_cell_angle_gamma 90.000000
_cell_volume 2353.603540
_symmetry_space_group_name_H-M "C 2/C"
_symmetry_group_IT_number 15
_symmetry_cell_setting 'monoclinic'
loop_
_space_group_symop_operation_xyz
x,y,z
-x,y,1/2-z
-x,-y,-z
x,-y,1/2+z
1/2+x,1/2+y,z
1/2-x,1/2+y,1/2-z
1/2-x,1/2-y,-z
1/2+x,1/2-y,1/2+z
loop_
_atom_site_type_symbol
_atom_site_label
_atom_site_fract_x
_atom_site_fract_y
_atom_site_fract_z
Si Si1 0.374004 0.653420 0.702811
Si Si2 0.635329 0.069442 0.174698
Si Si3 0.844781 0.701726 0.017036
Si Si4 0.440143 0.514139 0.807656
Si Si5 0.500000 0.938802 0.750000
Si Si6 0.209078 0.067250 0.252105
Si Si7 0.774044 0.183569 0.908942
Si Si8 0.934664 0.357116 0.288501
O O1 0.382679 0.729320 0.628476
O O2 0.434538 0.596137 0.795882
O O3 0.323523 0.613888 0.470824
O O4 0.353944 0.668298 0.918335
O O5 0.643893 0.139768 0.313533
O O6 0.571851 0.029804 0.225856
O O7 0.714510 0.034659 0.241613
O O8 0.601921 0.094837 0.921943
O O9 0.760392 0.696699 0.858351
O O10 0.875234 0.688051 0.824808
O O11 0.459708 0.498406 0.580806
O O12 0.356205 0.479342 0.731890
O O13 0.469280 0.895177 0.524774
O O14 0.238657 0.118564 0.462986
O O15 0.750000 0.250000 0.000000
O O16 0.000000 0.319814 0.250000
#
# Coordination Sequence:
#
# PCOD9266458 Si02
#       8
#     8   8   8   8   4   8   8   8
#     4  12  26  44  69  98 138 195 250 324 393 445
#     4  10  19  37  65 103 149 187 231 295 382 470
#     4  11  21  37  62 103 145 180 238 306 386 472
#     4  12  27  54  73  96 147 210 283 341 370 425
#     4   8  18  34  58  98 150 186 210 270 366 452
#     4  12  24  43  74 100 134 201 257 318 389 449
#     4  12  23  39  66 107 142 176 239 320 399 467
#     4   9  18  35  56  92 149 191 217 274 360 468
#
# _framework density 25.492825
#
# number of rings (size 3 to 8) (size 9 to 14) (size 15 to 20)
#    0.000    1.067    5.333    2.000    0.000    0.000 
#    7.200    0.667    0.000    0.000    0.000    0.933 
#    2.000    0.000    0.400    0.000    0.000    0.000 
#
# Total GULP energy -167147.994274 kJ/mol
# GULP energy per Si atom -5571.599809 kJ/mol
# Density = 2.543480 g / cm^3
# Si number density = 25.492825 Si / 1000 Ang^3
#
#
#
# Elastic Constant Matrix: (Units=GPa)
#
#
# Indices 1 2 3 4 5 6 
#
# 1 185.2397 45.9281 46.9476 0.0000 -35.2668 0.0000
# 2 45.9281 123.1436 47.3359 0.0000 -6.2966 0.0000
# 3 46.9476 47.3359 141.9299 0.0000 -9.1438 0.0000
# 4 0.0000 0.0000 0.0000 -9.3836 0.0000 4.4369
# 5 -35.2668 -6.2966 -9.1438 0.0000 59.9141 0.0000
# 6 0.0000 0.0000 0.0000 4.4369 0.0000 20.8212
#
#
#
# Elastic Compliance Matrix: (Units=1/GPa)
#
#
# Indices 1 2 3 4 5 6 
#
# 1 0.006915 -0.001839 -0.001438 0.000000 0.003658 0.000000
# 2 -0.001839 0.009819 -0.002696 0.000000 -0.000462 0.000000
# 3 -0.001438 -0.002696 0.008431 0.000000 0.000157 0.000000
# 4 0.000000 0.000000 0.000000 -0.096814 0.000000 0.020631
# 5 0.003658 -0.000462 0.000157 0.000000 0.018819 0.000000
# 6 0.000000 0.000000 0.000000 0.020631 0.000000 0.043632
#
#
# Mechanical properties :
#
#
# Convention : Reuss Voigt Hill
#
# Bulk Modulus (GPa) = 75.65598 81.19293 78.42445
# Shear Modulus (GPa) = 698.75346 34.94379 366.84863
#
# Velocity S-wave (km/s) = 16.57387 3.70635 12.00896
# Velocity P-wave (km/s) = 19.89973 7.08763 14.93710
#
# Compressibility (1/GPa) = 0.01321773
#
# Stress axis : x y z
#
# Youngs Moduli (GPa) = 144.60578 101.83935 118.61155
#
# Poissons Ratio (x) = 0.18731 0.17061
# Poissons Ratio (y) = 0.26596 0.31981
# Poissons Ratio (z) = 0.20800 0.27459
#
# Static dielectric constant tensor:
#      x y z
#    x 2.379380 0.000000 0.155870 
#    y 0.000000 1.972960 0.000000 
#    z 0.155870 0.000000 2.095510 
# 
# From -- ./inp_files/17654.got.cif
#   From: 2010.05.17/outbox.cif.g08.bks.cpg/sg15_9_cif.got.tgz:17654.got - 2010.06.03 18:47:42.
