data_PCOD9266066
_publ_section_title
;
Structure prediction by ZEFSAII (Michael W. Deem and Ramdas Pophale) SiO2 
 PCOD9266066
Probable space group: C 2/C
;
_chemical_formula_sum "Si O2"
_cell_formula_units_Z 64
_cell_length_a 11.929871
_cell_length_b 14.542800
_cell_length_c 26.665484
_cell_angle_alpha 90.000000
_cell_angle_beta 137.259454
_cell_angle_gamma 90.000000
_cell_volume 3139.771380
_symmetry_space_group_name_H-M "C 2/C"
_symmetry_group_IT_number 15
_symmetry_cell_setting 'monoclinic'
loop_
_space_group_symop_operation_xyz
x,y,z
-x,y,1/2-z
-x,-y,-z
x,-y,1/2+z
1/2+x,1/2+y,z
1/2-x,1/2+y,1/2-z
1/2-x,1/2-y,-z
1/2+x,1/2-y,1/2+z
loop_
_atom_site_type_symbol
_atom_site_label
_atom_site_fract_x
_atom_site_fract_y
_atom_site_fract_z
Si Si1 0.535645 0.306526 0.469116
Si Si2 0.768378 0.787855 0.126262
Si Si3 0.254951 0.193510 0.554158
Si Si4 0.194437 0.501599 0.576718
Si Si5 0.923709 0.263197 0.827504
Si Si6 0.133951 0.667605 0.689164
Si Si7 0.791766 0.994445 0.001179
Si Si8 0.404979 0.957460 0.852988
O O1 0.669998 0.272377 0.553372
O O2 0.367764 0.277078 0.442396
O O3 0.525037 0.256278 0.412004
O O4 0.582692 0.412900 0.471876
O O5 0.742500 0.893851 0.103278
O O6 0.693627 0.782606 0.157242
O O7 0.958001 0.763782 0.179420
O O8 0.250000 0.250000 0.500000
O O9 0.443514 0.192156 0.633949
O O10 0.194222 0.089049 0.523982
O O11 0.296632 0.475694 0.561296
O O12 0.200322 0.446493 0.630412
O O13 0.000000 0.500000 0.500000
O O14 0.761135 0.200791 0.772680
O O15 0.876564 0.369762 0.809485
O O16 0.140094 0.557468 0.683333
O O17 0.602379 0.960294 0.929808
#
# Coordination Sequence:
#
# PCOD9266066 Si02
#       8
#     8   8   8   8   8   8   8   8
#     4  12  22  37  66  98 125 163 219 275 312 381
#     4  11  20  39  66  97 125 163 212 266 320 388
#     4  11  24  41  62  85 126 178 217 256 319 398
#     4   9  17  31  59  93 123 153 195 262 319 369
#     4  12  23  39  68  98 130 163 217 275 328 392
#     4  10  24  45  62  91 133 174 212 261 335 395
#     4  10  19  37  59  95 124 157 217 267 316 375
#     4   9  20  37  64  89 128 166 205 263 333 381
#
# _framework density 20.383649999999999
#
# number of rings (size 3 to 8) (size 9 to 14) (size 15 to 20)
#    0.000    1.500    3.750    3.375    1.750    0.500 
#    2.250    0.000    8.250    0.000    0.000    0.000 
#    0.000    0.000    0.000    0.000    0.000    0.000 
#
# Total GULP energy -178529.113161 kJ/mol
# GULP energy per Si atom -5579.034786 kJ/mol
# Density = 2.033726 g / cm^3
# Si number density = 20.383650 Si / 1000 Ang^3
#
#
#
# Elastic Constant Matrix: (Units=GPa)
#
#
# Indices 1 2 3 4 5 6 
#
# 1 92.3044 26.1366 -1.8627 0.0000 12.6919 0.0000
# 2 26.1366 85.3387 27.9472 0.0000 10.1237 0.0000
# 3 -1.8627 27.9472 40.3296 0.0000 10.0318 0.0000
# 4 0.0000 0.0000 0.0000 19.0658 0.0000 3.7068
# 5 12.6919 10.1237 10.0318 0.0000 23.4553 0.0000
# 6 0.0000 0.0000 0.0000 3.7068 0.0000 31.0806
#
#
#
# Elastic Compliance Matrix: (Units=1/GPa)
#
#
# Indices 1 2 3 4 5 6 
#
# 1 0.013499 -0.005243 0.006167 0.000000 -0.007679 0.000000
# 2 -0.005243 0.017305 -0.012401 0.000000 0.000672 0.000000
# 3 0.006167 -0.012401 0.037122 0.000000 -0.013861 0.000000
# 4 0.000000 0.000000 0.000000 0.053695 0.000000 -0.006404
# 5 -0.007679 0.000672 -0.013861 0.000000 0.052428 0.000000
# 6 0.000000 0.000000 0.000000 -0.006404 0.000000 0.032938
#
#
# Mechanical properties :
#
#
# Convention : Reuss Voigt Hill
#
# Bulk Modulus (GPa) = 22.23648 35.82386 29.03017
# Shear Modulus (GPa) = 20.41382 25.77044 23.09213
#
# Velocity S-wave (km/s) = 3.16805 3.55952 3.36947
# Velocity P-wave (km/s) = 4.93100 5.87422 5.42315
#
# Compressibility (1/GPa) = 0.04497115
#
# Stress axis : x y z
#
# Youngs Moduli (GPa) = 74.08225 57.78593 26.93811
#
# Poissons Ratio (x) = 0.30295 -0.16612
# Poissons Ratio (y) = 0.38839 0.33407
# Poissons Ratio (z) = -0.45683 0.71662
#
# Static dielectric constant tensor:
#      x y z
#    x 1.737630 0.000000 -0.021370 
#    y 0.000000 1.698190 0.000000 
#    z -0.021370 0.000000 1.720000 
# 
# From -- ./inp_files/311214.got.cif
#   From: 2010.05.17/outbox.cif.g08.bks.cpg/sg15_156_cif.got.tgz:311214.got - 2010.06.03 18:47:42.
