data_PCOD9266435
_publ_section_title
;
Structure prediction by ZEFSAII (Michael W. Deem and Ramdas Pophale) SiO2 
 PCOD9266435
Probable space group: C 2/C
;
_chemical_formula_sum "Si O2"
_cell_formula_units_Z 64
_cell_length_a 12.220283
_cell_length_b 14.784880
_cell_length_c 15.781019
_cell_angle_alpha 90.000000
_cell_angle_beta 72.447209
_cell_angle_gamma 90.000000
_cell_volume 2718.486888
_symmetry_space_group_name_H-M "C 2/C"
_symmetry_group_IT_number 15
_symmetry_cell_setting 'monoclinic'
loop_
_space_group_symop_operation_xyz
x,y,z
-x,y,1/2-z
-x,-y,-z
x,-y,1/2+z
1/2+x,1/2+y,z
1/2-x,1/2+y,1/2-z
1/2-x,1/2-y,-z
1/2+x,1/2-y,1/2+z
loop_
_atom_site_type_symbol
_atom_site_label
_atom_site_fract_x
_atom_site_fract_y
_atom_site_fract_z
Si Si1 0.200321 0.661876 0.726567
Si Si2 0.816347 0.987210 0.407802
Si Si3 0.937252 0.919696 0.159096
Si Si4 0.686636 0.693845 0.091011
Si Si5 0.084154 0.498481 0.153902
Si Si6 0.314896 0.425936 0.591295
Si Si7 0.577137 0.104994 0.921405
Si Si8 0.487360 0.711505 0.014056
O O1 0.328054 0.633139 0.725069
O O2 0.199375 0.754147 0.675781
O O3 0.157884 0.589083 0.665912
O O4 0.110825 0.653661 0.823899
O O5 0.844420 0.983897 0.500814
O O6 0.700162 0.930907 0.422214
O O7 0.934126 0.947680 0.339745
O O8 0.783137 0.090311 0.397732
O O9 0.879340 0.016512 0.148066
O O10 0.963891 0.849420 0.074160
O O11 0.560302 0.691731 0.081025
O O12 0.750000 0.750000 0.000000
O O13 0.178807 0.575194 0.128046
O O14 0.000000 0.518971 0.250000
O O15 0.013001 0.471627 0.087481
O O16 0.362378 0.327273 0.563338
O O17 0.520241 0.180656 0.994383
#
# Coordination Sequence:
#
# PCOD9266435 Si02
#       8
#     8   8   8   8   8   8   8   8
#     4  10  21  40  64  88 125 168 212 268 319 371
#     4  11  23  39  63  97 128 159 214 264 322 389
#     4  10  19  39  67  92 124 166 215 268 327 375
#     4  12  20  39  71 101 116 162 223 273 309 376
#     4   9  19  38  61  82 124 170 201 259 326 370
#     4  10  19  37  64  94 123 162 214 270 318 377
#     4  11  25  40  56  94 136 167 208 257 326 393
#     4  11  20  37  65  92 124 163 213 267 316 379
#
# _framework density 23.542508000000002
#
# number of rings (size 3 to 8) (size 9 to 14) (size 15 to 20)
#    0.000    1.500    5.000    1.500    0.000    3.000 
#    6.750    2.500    0.000    0.000    0.000    0.000 
#    0.000    0.000    0.000    0.000    0.000    0.000 
#
# Total GULP energy -178651.998421 kJ/mol
# GULP energy per Si atom -5582.874951 kJ/mol
# Density = 2.348892 g / cm^3
# Si number density = 23.542508 Si / 1000 Ang^3
#
#
#
# Elastic Constant Matrix: (Units=GPa)
#
#
# Indices 1 2 3 4 5 6 
#
# 1 114.6544 15.7453 17.9842 0.0000 -17.0575 0.0000
# 2 15.7453 31.5527 1.9128 0.0000 -1.4282 0.0000
# 3 17.9842 1.9128 33.2144 0.0000 -11.3143 0.0000
# 4 0.0000 0.0000 0.0000 22.6364 0.0000 -3.7078
# 5 -17.0575 -1.4282 -11.3143 0.0000 36.5247 0.0000
# 6 0.0000 0.0000 0.0000 -3.7078 0.0000 37.5542
#
#
#
# Elastic Compliance Matrix: (Units=1/GPa)
#
#
# Indices 1 2 3 4 5 6 
#
# 1 0.010569 -0.004860 -0.004278 0.000000 0.003421 0.000000
# 2 -0.004860 0.034058 0.000392 0.000000 -0.000817 0.000000
# 3 -0.004278 0.000392 0.035468 0.000000 0.009005 0.000000
# 4 0.000000 0.000000 0.000000 0.044903 0.000000 0.004433
# 5 0.003421 -0.000817 0.009005 0.000000 0.031734 0.000000
# 6 0.000000 0.000000 0.000000 0.004433 0.000000 0.027066
#
#
# Mechanical properties :
#
#
# Convention : Reuss Voigt Hill
#
# Bulk Modulus (GPa) = 15.97345 27.85623 21.91484
# Shear Modulus (GPa) = 22.50660 28.92833 25.71746
#
# Velocity S-wave (km/s) = 3.09528 3.50918 3.30871
# Velocity P-wave (km/s) = 4.42425 5.31763 4.89138
#
# Compressibility (1/GPa) = 0.06260389
#
# Stress axis : x y z
#
# Youngs Moduli (GPa) = 94.61485 29.36205 28.19408
#
# Poissons Ratio (x) = 0.14270 0.12060
# Poissons Ratio (y) = 0.45983 -0.01105
# Poissons Ratio (z) = 0.40472 -0.01151
#
# Static dielectric constant tensor:
#      x y z
#    x 1.932740 0.000000 0.013320 
#    y 0.000000 1.922450 0.000000 
#    z 0.013320 0.000000 2.026050 
# 
# From -- ./inp_files/238735.got.cif
#   From: 2010.05.17/outbox.cif.g08.bks.cpg/sg15_120_cif.got.tgz:238735.got - 2010.06.03 18:47:42.
