data_PCOD9266445
_publ_section_title
;
Structure prediction by ZEFSAII (Michael W. Deem and Ramdas Pophale) SiO2 
 PCOD9266445
Probable space group: C 2/C
;
_chemical_formula_sum "Si O2"
_cell_formula_units_Z 36
_cell_length_a 15.997767
_cell_length_b 13.235155
_cell_length_c 22.682949
_cell_angle_alpha 90.000000
_cell_angle_beta 18.296628
_cell_angle_gamma 90.000000
_cell_volume 1507.751736
_symmetry_space_group_name_H-M "C 2/C"
_symmetry_group_IT_number 15
_symmetry_cell_setting 'monoclinic'
loop_
_space_group_symop_operation_xyz
x,y,z
-x,y,1/2-z
-x,-y,-z
x,-y,1/2+z
1/2+x,1/2+y,z
1/2-x,1/2+y,1/2-z
1/2-x,1/2-y,-z
1/2+x,1/2-y,1/2+z
loop_
_atom_site_type_symbol
_atom_site_label
_atom_site_fract_x
_atom_site_fract_y
_atom_site_fract_z
Si Si1 0.940018 0.799131 0.457111
Si Si2 0.500000 0.272343 0.750000
Si Si3 0.061166 0.185115 0.338040
Si Si4 0.252361 0.935726 0.813600
Si Si5 0.190557 0.909355 0.071849
O O1 0.764233 0.842391 0.628734
O O2 0.941546 0.875550 0.401028
O O3 0.812432 0.694498 0.519076
O O4 0.235508 0.777308 0.283782
O O5 0.447571 0.332188 0.725266
O O6 0.765831 0.207768 0.559104
O O7 0.189841 0.096258 0.289074
O O8 0.551031 0.976861 0.616250
O O9 0.000000 0.000000 0.000000
O O10 0.000000 0.950327 0.250000
#
# Coordination Sequence:
#
# PCOD9266445 Si02
#       5
#     8   4   8   8   8
#     4  10  19  37  64  96 126 163 210 264 314 375
#     4  10  20  36  60  94 118 172 222 254 304 374
#     4  10  20  37  63  90 126 168 221 262 304 378
#     4  11  23  40  61  93 134 172 199 258 333 393
#     4  10  20  36  67  96 122 157 217 267 313 374
#
# _framework density 23.876612000000002
#
# number of rings (size 3 to 8) (size 9 to 14) (size 15 to 20)
#    0.000    1.778    2.222    4.667    3.111    0.000 
#    4.000    1.111    4.889    0.000    0.000    0.000 
#    0.000    0.000    0.000    0.000    0.000    0.000 
#
# Total GULP energy -100676.742665 kJ/mol
# GULP energy per Si atom -5593.152370 kJ/mol
# Density = 2.382227 g / cm^3
# Si number density = 23.876612 Si / 1000 Ang^3
#
#
#
# Elastic Constant Matrix: (Units=GPa)
#
#
# Indices 1 2 3 4 5 6 
#
# 1 175.2080 22.7487 52.7677 0.0718 4.4461 -0.0851
# 2 22.7487 25.4794 19.4314 -0.0643 -2.9319 -0.0523
# 3 52.7677 19.4314 187.4655 0.1545 1.3272 -0.1481
# 4 0.0718 -0.0643 0.1545 26.1703 -0.0924 0.5745
# 5 4.4461 -2.9319 1.3272 -0.0924 33.9795 0.0872
# 6 -0.0851 -0.0523 -0.1481 0.5745 0.0872 9.9920
#
#
#
# Elastic Compliance Matrix: (Units=1/GPa)
#
#
# Indices 1 2 3 4 5 6 
#
# 1 0.006829 -0.005197 -0.001374 -0.000028 -0.001288 0.000023
# 2 -0.005197 0.047082 -0.003452 0.000165 0.004877 0.000099
# 3 -0.001374 -0.003452 0.006082 -0.000043 -0.000356 0.000066
# 4 -0.000028 0.000165 -0.000043 0.038261 0.000129 -0.002201
# 5 -0.001288 0.004877 -0.000356 0.000129 0.030034 -0.000260
# 6 0.000023 0.000099 0.000066 -0.002201 -0.000260 0.100211
#
#
# Mechanical properties :
#
#
# Convention : Reuss Voigt Hill
#
# Bulk Modulus (GPa) = 25.03402 64.22760 44.63081
# Shear Modulus (GPa) = 19.09419 33.57537 26.33478
#
# Velocity S-wave (km/s) = 2.83097 3.75401 3.32468
# Velocity P-wave (km/s) = 4.60362 6.76375 5.78540
#
# Compressibility (1/GPa) = 0.03994564
#
# Stress axis : x y z
#
# Youngs Moduli (GPa) = 146.43595 21.23954 164.43132
#
# Poissons Ratio (x) = 0.11039 0.22598
# Poissons Ratio (y) = 0.76106 0.56760
# Poissons Ratio (z) = 0.20125 0.07332
#
# Static dielectric constant tensor:
#      x y z
#    x 1.867200 -0.000020 -0.021030 
#    y -0.000020 2.011430 0.000150 
#    z -0.021030 0.000150 1.940510 
# 
# From -- ./inp_files/38517.got.cif
#   From: 2010.05.17/outbox.cif.g08.bks.cpg/sg15_20_cif.got.tgz:38517.got - 2010.06.03 18:47:42.
