data_PCOD9266163
_publ_section_title
;
Structure prediction by ZEFSAII (Michael W. Deem and Ramdas Pophale) SiO2 
 PCOD9266163
Probable space group: C 2/C
;
_chemical_formula_sum "Si O2"
_cell_formula_units_Z 44
_cell_length_a 27.123259
_cell_length_b 13.082363
_cell_length_c 5.656611
_cell_angle_alpha 90.000000
_cell_angle_beta 115.243373
_cell_angle_gamma 90.000000
_cell_volume 1815.495185
_symmetry_space_group_name_H-M "C 2/C"
_symmetry_group_IT_number 15
_symmetry_cell_setting 'monoclinic'
loop_
_space_group_symop_operation_xyz
x,y,z
-x,y,1/2-z
-x,-y,-z
x,-y,1/2+z
1/2+x,1/2+y,z
1/2-x,1/2+y,1/2-z
1/2-x,1/2-y,-z
1/2+x,1/2-y,1/2+z
loop_
_atom_site_type_symbol
_atom_site_label
_atom_site_fract_x
_atom_site_fract_y
_atom_site_fract_z
Si Si1 0.673139 0.103477 0.122281
Si Si2 0.212960 0.374553 0.202900
Si Si3 0.826680 0.059366 0.951642
Si Si4 0.945711 0.380820 0.025887
Si Si5 0.055365 0.154179 0.253856
Si Si6 0.500000 0.765252 0.750000
O O1 0.689611 0.160866 0.400438
O O2 0.610832 0.067624 0.034171
O O3 0.706991 0.998461 0.180675
O O4 0.682138 0.154573 0.883421
O O5 0.277523 0.358480 0.356124
O O6 0.888566 0.098910 0.088011
O O7 0.820410 0.996447 0.184503
O O8 0.959774 0.345387 0.793916
O O9 0.940129 0.267685 0.127702
O O10 0.000000 0.428381 0.250000
O O11 0.000000 0.105939 0.250000
O O12 0.040310 0.185660 0.959411
#
# Coordination Sequence:
#
# PCOD9266163 Si02
#       6
#     8   8   8   8   8   4
#     4  10  19  37  61  82 115 157 192 232 293 332
#     4  10  20  39  57  83 119 155 189 241 279 346
#     4  12  23  40  63  85 117 156 194 237 291 346
#     4   9  20  37  60  85 113 157 191 242 287 346
#     4   9  22  39  58  86 117 151 194 243 288 343
#     4   8  18  40  56  80 116 150 192 238 298 338
#
# _framework density 24.235811000000002
#
# number of rings (size 3 to 8) (size 9 to 14) (size 15 to 20)
#    0.000    2.545    3.636    0.000   10.182    0.727 
#    0.000    5.455    0.000    0.000    0.000    0.000 
#    0.000    0.000    0.000    0.000    0.000    0.000 
#
# Total GULP energy -122627.467539 kJ/mol
# GULP energy per Si atom -5573.975797 kJ/mol
# Density = 2.418065 g / cm^3
# Si number density = 24.235811 Si / 1000 Ang^3
#
#
#
# Elastic Constant Matrix: (Units=GPa)
#
#
# Indices 1 2 3 4 5 6 
#
# 1 224.7571 26.2319 45.0718 0.0000 -3.5214 0.0000
# 2 26.2319 28.8267 7.7581 0.0000 -7.0445 0.0000
# 3 45.0718 7.7581 156.3767 0.0000 0.2317 0.0000
# 4 0.0000 0.0000 0.0000 -4.1996 0.0000 5.2930
# 5 -3.5214 -7.0445 0.2317 0.0000 64.4806 0.0000
# 6 0.0000 0.0000 0.0000 5.2930 0.0000 -38.3658
#
#
#
# Elastic Compliance Matrix: (Units=1/GPa)
#
#
# Indices 1 2 3 4 5 6 
#
# 1 0.005224 -0.004456 -0.001284 0.000000 -0.000197 0.000000
# 2 -0.004456 0.039942 -0.000703 0.000000 0.004123 0.000000
# 3 -0.001284 -0.000703 0.006800 0.000000 -0.000171 0.000000
# 4 0.000000 0.000000 0.000000 -0.288237 0.000000 -0.039766
# 5 -0.000197 0.004123 -0.000171 0.000000 0.015949 0.000000
# 6 0.000000 0.000000 0.000000 -0.039766 0.000000 -0.031551
#
#
# Mechanical properties :
#
#
# Convention : Reuss Voigt Hill
#
# Bulk Modulus (GPa) = 25.58959 63.12045 44.35502
# Shear Modulus (GPa) = -22.12778 26.44296 2.15759
#
# Velocity S-wave (km/s) = -3.02490 3.30672 0.94455
# Velocity P-wave (km/s) = 1.27221 6.37809 4.41936
#
# Compressibility (1/GPa) = 0.03907839
#
# Stress axis : x y z
#
# Youngs Moduli (GPa) = 191.43233 25.03643 147.05626
#
# Poissons Ratio (x) = 0.11156 0.18886
# Poissons Ratio (y) = 0.85303 0.10343
# Poissons Ratio (z) = 0.24585 0.01761
#
# Static dielectric constant tensor:
#      x y z
#    x 1.835350 0.000000 -0.389300 
#    y 0.000000 1.915680 0.000000 
#    z -0.389300 0.000000 2.265270 
# 
# From -- ./inp_files/12909.got.cif
#   From: 2010.05.17/outbox.cif.g08.bks.cpg/sg15_7_cif.got.tgz:12909.got - 2010.06.03 18:47:42.
