data_PCOD9266500
_publ_section_title
;
Structure prediction by ZEFSAII (Michael W. Deem and Ramdas Pophale) SiO2 
 PCOD9266500
Probable space group: C 2/C
;
_chemical_formula_sum "Si O2"
_cell_formula_units_Z 44
_cell_length_a 9.262077
_cell_length_b 28.090222
_cell_length_c 7.497938
_cell_angle_alpha 90.000000
_cell_angle_beta 67.419706
_cell_angle_gamma 90.000000
_cell_volume 1801.225771
_symmetry_space_group_name_H-M "C 2/C"
_symmetry_group_IT_number 15
_symmetry_cell_setting 'monoclinic'
loop_
_space_group_symop_operation_xyz
x,y,z
-x,y,1/2-z
-x,-y,-z
x,-y,1/2+z
1/2+x,1/2+y,z
1/2-x,1/2+y,1/2-z
1/2-x,1/2-y,-z
1/2+x,1/2-y,1/2+z
loop_
_atom_site_type_symbol
_atom_site_label
_atom_site_fract_x
_atom_site_fract_y
_atom_site_fract_z
Si Si1 0.500000 0.856129 0.750000
Si Si2 0.598519 0.692239 0.890764
Si Si3 0.118240 0.725465 0.934836
Si Si4 0.376817 0.415606 0.048609
Si Si5 0.275019 0.567879 0.194103
Si Si6 0.121623 0.527840 0.813909
O O1 0.540771 0.819730 0.570200
O O2 0.349646 0.890291 0.788641
O O3 0.500000 0.686608 0.750000
O O4 0.775937 0.708146 0.775630
O O5 0.609629 0.640989 0.970464
O O6 0.506508 0.733354 0.036041
O O7 0.250000 0.750000 0.000000
O O8 0.265472 0.435319 0.259615
O O9 0.556396 0.430560 0.977027
O O10 0.308925 0.432577 0.890559
O O11 0.201099 0.517384 0.181028
O O12 0.000000 0.556740 0.750000
O O13 0.000000 0.500000 0.000000
#
# Coordination Sequence:
#
# PCOD9266500 Si02
#       6
#     4   8   8   8   8   8
#     4  12  22  40  76 100 134 188 232 282 352 416
#     4  10  21  39  67  97 132 181 226 284 340 417
#     4  10  19  37  65  96 134 171 234 282 333 412
#     4  11  26  45  69 102 145 178 235 292 360 409
#     4  11  25  45  70 102 138 184 234 294 348 424
#     4  12  25  46  71 101 140 182 236 288 353 428
#
# _framework density 24.427807999999999
#
# number of rings (size 3 to 8) (size 9 to 14) (size 15 to 20)
#    0.000    1.091    5.455    2.727    2.545    1.455 
#    3.273    0.909    4.000    0.000    0.000    0.000 
#    0.000    0.000    0.000    0.000    0.000    0.000 
#
# Total GULP energy -122883.651755 kJ/mol
# GULP energy per Si atom -5585.620534 kJ/mol
# Density = 2.437221 g / cm^3
# Si number density = 24.427808 Si / 1000 Ang^3
#
#
#
# Elastic Constant Matrix: (Units=GPa)
#
#
# Indices 1 2 3 4 5 6 
#
# 1 134.7373 62.0084 70.3869 0.0000 -27.9390 0.0000
# 2 62.0084 138.9222 30.3311 0.0000 -29.3580 0.0000
# 3 70.3869 30.3311 91.8785 0.0000 -49.9286 0.0000
# 4 0.0000 0.0000 0.0000 71.5838 0.0000 -27.4026
# 5 -27.9390 -29.3580 -49.9286 0.0000 62.9485 0.0000
# 6 0.0000 0.0000 0.0000 -27.4026 0.0000 51.9370
#
#
#
# Elastic Compliance Matrix: (Units=1/GPa)
#
#
# Indices 1 2 3 4 5 6 
#
# 1 0.015791 -0.005397 -0.013840 0.000000 -0.006486 0.000000
# 2 -0.005397 0.009891 0.003646 0.000000 0.005109 0.000000
# 3 -0.013840 0.003646 0.031405 0.000000 0.020467 0.000000
# 4 0.000000 0.000000 0.000000 0.017505 0.000000 0.009236
# 5 -0.006486 0.005109 0.020467 0.000000 0.031624 0.000000
# 6 0.000000 0.000000 0.000000 0.009236 0.000000 0.024127
#
#
# Mechanical properties :
#
#
# Convention : Reuss Voigt Hill
#
# Bulk Modulus (GPa) = 38.60285 76.77676 57.68981
# Shear Modulus (GPa) = 29.38384 50.81462 40.09923
#
# Velocity S-wave (km/s) = 3.47203 4.56586 4.05599
# Velocity P-wave (km/s) = 5.64893 7.70029 6.75296
#
# Compressibility (1/GPa) = 0.02590482
#
# Stress axis : x y z
#
# Youngs Moduli (GPa) = 63.32755 101.10121 31.84164
#
# Poissons Ratio (x) = 0.54567 0.44069
# Poissons Ratio (y) = 0.34180 -0.11610
# Poissons Ratio (z) = 0.87646 -0.36863
#
# Static dielectric constant tensor:
#      x y z
#    x 1.533160 0.000000 -0.128140 
#    y 0.000000 2.437800 0.000000 
#    z -0.128140 0.000000 1.926990 
# 
# From -- ./inp_files/25981.got.cif
#   From: 2010.05.17/outbox.cif.g08.bks.cpg/sg15_13_cif.got.tgz:25981.got - 2010.06.03 18:47:42.
