data_PCOD9266709
_publ_section_title
;
Structure prediction by ZEFSAII (Michael W. Deem and Ramdas Pophale) SiO2 
 PCOD9266709
Probable space group: C 2/C
;
_chemical_formula_sum "Si O2"
_cell_formula_units_Z 48
_cell_length_a 13.870761
_cell_length_b 12.488022
_cell_length_c 27.423341
_cell_angle_alpha 90.000000
_cell_angle_beta 150.284937
_cell_angle_gamma 90.000000
_cell_volume 2354.625532
_symmetry_space_group_name_H-M "C 2/C"
_symmetry_group_IT_number 15
_symmetry_cell_setting 'monoclinic'
loop_
_space_group_symop_operation_xyz
x,y,z
-x,y,1/2-z
-x,-y,-z
x,-y,1/2+z
1/2+x,1/2+y,z
1/2-x,1/2+y,1/2-z
1/2-x,1/2-y,-z
1/2+x,1/2-y,1/2+z
loop_
_atom_site_type_symbol
_atom_site_label
_atom_site_fract_x
_atom_site_fract_y
_atom_site_fract_z
Si Si1 0.439844 0.231833 0.966278
Si Si2 0.316561 0.832034 0.571076
Si Si3 0.778211 0.183581 0.062102
Si Si4 0.065392 0.459674 0.960507
Si Si5 0.394418 0.544317 0.256191
Si Si6 0.621672 0.305714 0.253389
O O1 0.334047 0.324944 0.950731
O O2 0.335109 0.218507 0.867740
O O3 0.668795 0.248404 0.057493
O O4 0.387771 0.126724 0.976463
O O5 0.250000 0.750000 0.500000
O O6 0.341318 0.938552 0.551473
O O7 0.524823 0.787910 0.680133
O O8 0.995626 0.138413 0.166281
O O9 0.750000 0.250000 0.000000
O O10 0.649940 0.074547 0.010510
O O11 0.834943 0.445762 0.852946
O O12 0.500000 0.544342 0.250000
O O13 0.409972 0.422780 0.284240
O O14 0.500000 0.309214 0.250000
#
# Coordination Sequence:
#
# PCOD9266709 Si02
#       6
#     8   8   8   8   8   8
#     4  10  19  38  59  88 117 146 199 251 288 345
#     4   9  19  33  58  85 110 149 195 241 284 346
#     4  12  25  38  57  91 125 153 192 252 303 343
#     4  11  21  38  60  86 118 154 200 240 292 361
#     4  11  20  34  61  87 115 154 194 245 302 344
#     4   9  17  31  57  86 109 142 192 242 288 332
#
# _framework density 20.385407000000001
#
# number of rings (size 3 to 8) (size 9 to 14) (size 15 to 20)
#    0.000    1.667    3.333    4.500    2.333    0.000 
#    0.000    0.833    0.000    3.000    0.000    0.000 
#    0.000    0.000    0.000    0.000    0.000    0.000 
#
# Total GULP energy -133660.691167 kJ/mol
# GULP energy per Si atom -5569.195465 kJ/mol
# Density = 2.033901 g / cm^3
# Si number density = 20.385407 Si / 1000 Ang^3
#
#
#
# Elastic Constant Matrix: (Units=GPa)
#
#
# Indices 1 2 3 4 5 6 
#
# 1 77.3043 18.6293 9.8903 0.0000 5.7663 0.0000
# 2 18.6293 16.7720 0.5806 -0.0001 -8.8805 0.0000
# 3 9.8903 0.5806 92.9915 -0.0002 5.5437 0.0001
# 4 0.0000 -0.0001 -0.0002 22.8040 0.0000 -12.3271
# 5 5.7663 -8.8805 5.5437 0.0000 31.5772 0.0000
# 6 0.0000 0.0000 0.0001 -12.3271 0.0000 26.7339
#
#
#
# Elastic Compliance Matrix: (Units=1/GPa)
#
#
# Indices 1 2 3 4 5 6 
#
# 1 0.021209 -0.029887 -0.001351 0.000000 -0.012041 0.000000
# 2 -0.029887 0.112414 0.000270 0.000000 0.037025 0.000000
# 3 -0.001351 0.000270 0.010992 0.000000 -0.001607 0.000000
# 4 0.000000 0.000000 0.000000 0.058411 0.000000 0.026934
# 5 -0.012041 0.037025 -0.001607 0.000000 0.044562 0.000000
# 6 0.000000 0.000000 0.000000 0.026934 0.000000 0.049825
#
#
# Mechanical properties :
#
#
# Convention : Reuss Voigt Hill
#
# Bulk Modulus (GPa) = 12.09512 27.25201 19.67357
# Shear Modulus (GPa) = 12.92295 26.75420 19.83858
#
# Velocity S-wave (km/s) = 2.52053 3.62666 3.12296
# Velocity P-wave (km/s) = 3.79696 5.56186 4.76189
#
# Compressibility (1/GPa) = 0.08267799
#
# Stress axis : x y z
#
# Youngs Moduli (GPa) = 47.14932 8.89570 90.97921
#
# Poissons Ratio (x) = 0.26586 0.12294
# Poissons Ratio (y) = 1.40913 -0.02453
# Poissons Ratio (z) = 0.06371 -0.00240
#
# Static dielectric constant tensor:
#      x y z
#    x 1.757070 0.000000 0.043790 
#    y 0.000000 1.772280 0.000000 
#    z 0.043790 0.000000 1.834520 
# 
# From -- ./inp_files/178135.got.cif
#   From: 2010.05.17/outbox.cif.g08.bks.cpg/sg15_90_cif.got.tgz:178135.got - 2010.06.03 18:47:42.
