data_PCOD9266916
_publ_section_title
;
Structure prediction by ZEFSAII (Michael W. Deem and Ramdas Pophale) SiO2 
 PCOD9266916
Probable space group: C 2/C
;
_chemical_formula_sum "Si O2"
_cell_formula_units_Z 40
_cell_length_a 24.104915
_cell_length_b 6.184671
_cell_length_c 20.928858
_cell_angle_alpha 90.000000
_cell_angle_beta 136.736477
_cell_angle_gamma 90.000000
_cell_volume 2138.371947
_symmetry_space_group_name_H-M "C 2/C"
_symmetry_group_IT_number 15
_symmetry_cell_setting 'monoclinic'
loop_
_space_group_symop_operation_xyz
x,y,z
-x,y,1/2-z
-x,-y,-z
x,-y,1/2+z
1/2+x,1/2+y,z
1/2-x,1/2+y,1/2-z
1/2-x,1/2-y,-z
1/2+x,1/2-y,1/2+z
loop_
_atom_site_type_symbol
_atom_site_label
_atom_site_fract_x
_atom_site_fract_y
_atom_site_fract_z
Si Si1 0.272976 0.557935 0.067559
Si Si2 0.131105 0.457851 0.637534
Si Si3 0.656512 0.667022 0.986620
Si Si4 0.024057 0.804981 0.472663
Si Si5 0.251038 0.841739 0.159188
O O1 0.335804 0.417176 0.079501
O O2 0.298634 0.670122 0.154768
O O3 0.250000 0.750000 0.000000
O O4 0.195416 0.406215 0.017323
O O5 0.089515 0.651922 0.563334
O O6 0.178936 0.291199 0.632343
O O7 0.193242 0.552324 0.740760
O O8 0.056976 0.330294 0.607110
O O9 0.568855 0.639276 0.944383
O O10 0.713957 0.523460 0.081339
O O11 0.000000 0.000000 0.500000
#
# Coordination Sequence:
#
# PCOD9266916 Si02
#       5
#     8   8   8   8   8
#     4   9  20  35  62  87 113 159 207 251 292 369
#     4  11  24  34  60  92 124 154 198 258 316 364
#     4  10  19  38  63  85 118 161 208 244 308 366
#     4  11  22  39  58  91 123 161 196 254 315 376
#     4  11  21  37  58  94 118 153 208 256 300 370
#
# _framework density 18.705819999999999
#
# number of rings (size 3 to 8) (size 9 to 14) (size 15 to 20)
#    0.000    1.600    4.000    1.200    0.000    0.000 
#    0.000    0.000    0.000   28.800    0.000    0.000 
#    0.000    0.000    0.000    0.000    0.000    0.000 
#
# Total GULP energy -111553.875067 kJ/mol
# GULP energy per Si atom -5577.693753 kJ/mol
# Density = 1.866324 g / cm^3
# Si number density = 18.705820 Si / 1000 Ang^3
#
#
#
# Elastic Constant Matrix: (Units=GPa)
#
#
# Indices 1 2 3 4 5 6 
#
# 1 133.6361 33.4600 21.3494 -0.0001 4.6805 -0.0003
# 2 33.4600 90.5060 22.2991 0.0002 1.5383 0.0003
# 3 21.3494 22.2991 47.7161 0.0001 6.2169 0.0001
# 4 -0.0001 0.0002 0.0001 27.1087 0.0000 -4.6051
# 5 4.6805 1.5383 6.2169 0.0000 16.3601 0.0000
# 6 -0.0003 0.0003 0.0001 -4.6051 0.0000 48.7383
#
#
#
# Elastic Compliance Matrix: (Units=1/GPa)
#
#
# Indices 1 2 3 4 5 6 
#
# 1 0.008557 -0.002531 -0.002481 0.000000 -0.001267 0.000000
# 2 -0.002531 0.013254 -0.005254 0.000000 0.001474 0.000000
# 3 -0.002481 -0.005254 0.025635 0.000000 -0.008538 0.000000
# 4 0.000000 0.000000 0.000000 0.037490 0.000000 0.003542
# 5 -0.001267 0.001474 -0.008538 0.000000 0.064593 0.000000
# 6 0.000000 0.000000 0.000000 0.003542 0.000000 0.020852
#
#
# Mechanical properties :
#
#
# Convention : Reuss Voigt Hill
#
# Bulk Modulus (GPa) = 37.15351 47.34167 42.24759
# Shear Modulus (GPa) = 25.01447 31.42475 28.21961
#
# Velocity S-wave (km/s) = 3.66082 4.10316 3.88828
# Velocity P-wave (km/s) = 6.14605 6.91458 6.54161
#
# Compressibility (1/GPa) = 0.02691536
#
# Stress axis : x y z
#
# Youngs Moduli (GPa) = 116.85749 75.44881 39.00939
#
# Poissons Ratio (x) = 0.19095 0.09678
# Poissons Ratio (y) = 0.29575 0.20494
# Poissons Ratio (z) = 0.28991 0.39638
#
# Static dielectric constant tensor:
#      x y z
#    x 1.681330 0.000000 -0.011310 
#    y 0.000000 1.692700 0.000000 
#    z -0.011310 0.000000 1.596160 
# 
# From -- ./inp_files/170513.got.cif
#   From: 2010.05.17/outbox.cif.g08.bks.cpg/sg15_86_cif.got.tgz:170513.got - 2010.06.03 18:47:42.
