data_PCOD9266035
_publ_section_title
;
Structure prediction by ZEFSAII (Michael W. Deem and Ramdas Pophale) SiO2 
 PCOD9266035
Probable space group: C 2/C
;
_chemical_formula_sum "Si O2"
_cell_formula_units_Z 48
_cell_length_a 25.518064
_cell_length_b 9.361796
_cell_length_c 20.401786
_cell_angle_alpha 90.000000
_cell_angle_beta 153.310105
_cell_angle_gamma 90.000000
_cell_volume 2189.160185
_symmetry_space_group_name_H-M "C 2/C"
_symmetry_group_IT_number 15
_symmetry_cell_setting 'monoclinic'
loop_
_space_group_symop_operation_xyz
x,y,z
-x,y,1/2-z
-x,-y,-z
x,-y,1/2+z
1/2+x,1/2+y,z
1/2-x,1/2+y,1/2-z
1/2-x,1/2-y,-z
1/2+x,1/2-y,1/2+z
loop_
_atom_site_type_symbol
_atom_site_label
_atom_site_fract_x
_atom_site_fract_y
_atom_site_fract_z
Si Si1 0.309888 0.858384 0.392639
Si Si2 0.870072 0.106671 0.112994
Si Si3 0.101673 0.671511 0.645032
Si Si4 0.417110 0.601708 0.950042
Si Si5 0.737727 0.451129 0.616738
Si Si6 0.227587 0.355850 0.579663
O O1 0.403586 0.834329 0.439551
O O2 0.193507 0.879299 0.219900
O O3 0.284019 0.715777 0.403642
O O4 0.327351 0.998727 0.455473
O O5 0.833381 0.118481 0.146970
O O6 0.000000 0.051337 0.250000
O O7 0.776173 0.007260 0.972036
O O8 0.857362 0.255331 0.058205
O O9 0.143863 0.518091 0.719959
O O10 0.209734 0.772374 0.790365
O O11 0.985350 0.750306 0.539946
O O12 0.367928 0.522658 0.959117
O O13 0.500000 0.500000 0.000000
#
# Coordination Sequence:
#
# PCOD9266035 Si02
#       6
#     8   8   8   8   8   8
#     4  11  21  35  59  92 124 148 194 258 307 352
#     4  10  22  40  63  81 111 165 212 238 293 371
#     4  10  19  37  59  88 119 159 195 236 306 368
#     4  11  19  35  62  84 122 166 193 235 314 377
#     4  10  22  36  58  90 120 152 204 256 299 355
#     4  10  21  39  61  84 119 157 199 251 296 358
#
# _framework density 21.926216
#
# number of rings (size 3 to 8) (size 9 to 14) (size 15 to 20)
#    0.000    1.667    3.333    2.000    0.000    1.333 
#    0.000    5.833    0.000    0.000    0.000    0.000 
#    0.000    0.000    0.000    0.000    0.000    0.000 
#
# Total GULP energy -134063.222916 kJ/mol
# GULP energy per Si atom -5585.967621 kJ/mol
# Density = 2.187631 g / cm^3
# Si number density = 21.926216 Si / 1000 Ang^3
#
#
#
# Elastic Constant Matrix: (Units=GPa)
#
#
# Indices 1 2 3 4 5 6 
#
# 1 70.8549 29.3527 1.1312 0.0000 -16.1891 0.0000
# 2 29.3527 112.3783 -2.7714 0.0000 -23.8794 0.0000
# 3 1.1312 -2.7714 21.2678 0.0000 -0.1262 0.0000
# 4 0.0000 0.0000 0.0000 15.9439 0.0000 7.9292
# 5 -16.1891 -23.8794 -0.1262 0.0000 29.4064 0.0000
# 6 0.0000 0.0000 0.0000 7.9292 0.0000 16.5556
#
#
#
# Elastic Compliance Matrix: (Units=1/GPa)
#
#
# Indices 1 2 3 4 5 6 
#
# 1 0.016948 -0.002993 -0.001251 0.000000 0.006895 0.000000
# 2 -0.002993 0.011328 0.001680 0.000000 0.007558 0.000000
# 3 -0.001251 0.001680 0.047310 0.000000 0.000879 0.000000
# 4 0.000000 0.000000 0.000000 0.082330 0.000000 -0.039431
# 5 0.006895 0.007558 0.000879 0.000000 0.043944 0.000000
# 6 0.000000 0.000000 0.000000 -0.039431 0.000000 0.079288
#
#
# Mechanical properties :
#
#
# Convention : Reuss Voigt Hill
#
# Bulk Modulus (GPa) = 14.19242 28.88070 21.53656
# Shear Modulus (GPa) = 16.14152 24.16709 20.15431
#
# Velocity S-wave (km/s) = 2.71620 3.32354 3.03510
# Velocity P-wave (km/s) = 4.04028 5.28472 4.70383
#
# Compressibility (1/GPa) = 0.07046014
#
# Stress axis : x y z
#
# Youngs Moduli (GPa) = 59.00251 88.27948 21.13718
#
# Poissons Ratio (x) = 0.26418 0.02643
# Poissons Ratio (y) = 0.17657 -0.03551
# Poissons Ratio (z) = 0.07378 -0.14832
#
# Static dielectric constant tensor:
#      x y z
#    x 1.864160 0.000000 0.025660 
#    y 0.000000 1.860210 0.000000 
#    z 0.025660 0.000000 1.788090 
# 
# From -- ./inp_files/257243.got.cif
#   From: 2010.05.17/outbox.cif.g08.bks.cpg/sg15_129_cif.got.tgz:257243.got - 2010.06.03 18:47:42.
