data_PCOD9266327
_publ_section_title
;
Structure prediction by ZEFSAII (Michael W. Deem and Ramdas Pophale) SiO2 
 PCOD9266327
Probable space group: C 2/C
;
_chemical_formula_sum "Si O2"
_cell_formula_units_Z 52
_cell_length_a 11.351765
_cell_length_b 7.363087
_cell_length_c 24.243512
_cell_angle_alpha 90.000000
_cell_angle_beta 83.309930
_cell_angle_gamma 90.000000
_cell_volume 2012.572664
_symmetry_space_group_name_H-M "C 2/C"
_symmetry_group_IT_number 15
_symmetry_cell_setting 'monoclinic'
loop_
_space_group_symop_operation_xyz
x,y,z
-x,y,1/2-z
-x,-y,-z
x,-y,1/2+z
1/2+x,1/2+y,z
1/2-x,1/2+y,1/2-z
1/2-x,1/2-y,-z
1/2+x,1/2-y,1/2+z
loop_
_atom_site_type_symbol
_atom_site_label
_atom_site_fract_x
_atom_site_fract_y
_atom_site_fract_z
Si Si1 0.315009 0.999677 0.511044
Si Si2 0.596498 0.377445 0.808918
Si Si3 0.819273 0.835510 0.081673
Si Si4 0.834777 0.824727 0.817041
Si Si5 0.322897 0.245223 0.340959
Si Si6 0.071337 0.183742 0.552479
Si Si7 0.000000 0.220075 0.750000
O O1 0.280187 0.911001 0.454298
O O2 0.360554 0.857154 0.552587
O O3 0.185489 0.054731 0.540390
O O4 0.400630 0.169900 0.496957
O O5 0.969793 0.791360 0.829901
O O6 0.654337 0.295817 0.749404
O O7 0.694456 0.344693 0.849854
O O8 0.559853 0.580649 0.790755
O O9 0.758647 0.787851 0.142762
O O10 0.949060 0.926303 0.066996
O O11 0.808538 0.039372 0.828955
O O12 0.401261 0.221389 0.390580
O O13 0.400369 0.167984 0.286264
#
# Coordination Sequence:
#
# PCOD9266327 Si02
#       7
#     8   8   8   8   8   8   4
#     4  10  24  43  59  90 121 160 202 252 306 349
#     4   8  18  37  58  84 121 154 188 240 291 354
#     4  11  22  42  66  87 120 163 202 247 302 366
#     4   9  20  39  61  89 116 160 200 237 300 355
#     4  10  19  37  63  86 121 159 188 252 302 344
#     4  11  23  40  62  94 121 154 204 254 301 355
#     4   8  20  36  58  86 116 160 198 234 294 360
#
# _framework density 25.837578000000001
#
# number of rings (size 3 to 8) (size 9 to 14) (size 15 to 20)
#    0.000    2.769    1.538    0.923    2.154    3.692 
#   13.846    0.000    0.000    0.000    0.000    0.000 
#    0.000    0.000    0.000    0.000    0.000    0.000 
#
# Total GULP energy -145283.309354 kJ/mol
# GULP energy per Si atom -5587.819591 kJ/mol
# Density = 2.577877 g / cm^3
# Si number density = 25.837578 Si / 1000 Ang^3
#
#
#
# Elastic Constant Matrix: (Units=GPa)
#
#
# Indices 1 2 3 4 5 6 
#
# 1 114.1764 10.0001 42.1739 0.0000 -29.9114 0.0000
# 2 10.0001 41.4627 9.3677 0.0000 -21.8382 0.0000
# 3 42.1739 9.3677 67.5277 0.0000 -28.5698 0.0000
# 4 0.0000 0.0000 0.0000 20.0955 0.0000 -3.7517
# 5 -29.9114 -21.8382 -28.5698 0.0000 51.8901 0.0000
# 6 0.0000 0.0000 0.0000 -3.7517 0.0000 27.1130
#
#
#
# Elastic Compliance Matrix: (Units=1/GPa)
#
#
# Indices 1 2 3 4 5 6 
#
# 1 0.011887 0.000470 -0.005875 0.000000 0.003815 0.000000
# 2 0.000470 0.031136 0.001363 0.000000 0.014125 0.000000
# 3 -0.005875 0.001363 0.022291 0.000000 0.009461 0.000000
# 4 0.000000 0.000000 0.000000 0.051082 0.000000 0.007068
# 5 0.003815 0.014125 0.009461 0.000000 0.032624 0.000000
# 6 0.000000 0.000000 0.000000 0.007068 0.000000 0.037861
#
#
# Mechanical properties :
#
#
# Convention : Reuss Voigt Hill
#
# Bulk Modulus (GPa) = 17.47295 38.47224 27.97259
# Shear Modulus (GPa) = 23.35996 30.59474 26.97735
#
# Velocity S-wave (km/s) = 3.01010 3.44483 3.23478
# Velocity P-wave (km/s) = 4.34261 5.54481 4.98012
#
# Compressibility (1/GPa) = 0.05723132
#
# Stress axis : x y z
#
# Youngs Moduli (GPa) = 84.12773 32.11669 44.86066
#
# Poissons Ratio (x) = -0.01509 0.26355
# Poissons Ratio (y) = -0.03953 -0.06116
# Poissons Ratio (z) = 0.49423 -0.04379
#
# Static dielectric constant tensor:
#      x y z
#    x 2.068560 0.000000 0.051730 
#    y 0.000000 2.097050 0.000000 
#    z 0.051730 0.000000 2.134130 
# 
# From -- ./inp_files/291174.got.cif
#   From: 2010.05.17/outbox.cif.g08.bks.cpg/sg15_146_cif.got.tgz:291174.got - 2010.06.03 18:47:42.
