data_PCOD9266410
_publ_section_title
;
Structure prediction by ZEFSAII (Michael W. Deem and Ramdas Pophale) SiO2 
 PCOD9266410
Probable space group: C 2/C
;
_chemical_formula_sum "Si O2"
_cell_formula_units_Z 60
_cell_length_a 12.602215
_cell_length_b 24.067262
_cell_length_c 20.794804
_cell_angle_alpha 90.000000
_cell_angle_beta 155.359782
_cell_angle_gamma 90.000000
_cell_volume 2629.541330
_symmetry_space_group_name_H-M "C 2/C"
_symmetry_group_IT_number 15
_symmetry_cell_setting 'monoclinic'
loop_
_space_group_symop_operation_xyz
x,y,z
-x,y,1/2-z
-x,-y,-z
x,-y,1/2+z
1/2+x,1/2+y,z
1/2-x,1/2+y,1/2-z
1/2-x,1/2-y,-z
1/2+x,1/2-y,1/2+z
loop_
_atom_site_type_symbol
_atom_site_label
_atom_site_fract_x
_atom_site_fract_y
_atom_site_fract_z
Si Si1 0.291050 0.285149 0.267714
Si Si2 0.389228 0.070268 0.256031
Si Si3 0.500000 0.293288 0.250000
Si Si4 0.155789 0.547998 0.769693
Si Si5 0.507363 0.682692 0.368469
Si Si6 0.507812 0.651761 0.508523
Si Si7 0.961792 0.374660 0.542585
Si Si8 0.065060 0.386064 0.461033
O O1 0.406255 0.262086 0.263813
O O2 0.063187 0.247564 0.170404
O O3 0.479932 0.300921 0.430292
O O4 0.164170 0.342662 0.176499
O O5 0.500000 0.052094 0.250000
O O6 0.255209 0.127155 0.161276
O O7 0.574762 0.085475 0.416516
O O8 0.236371 0.013461 0.188273
O O9 0.729531 0.332498 0.402940
O O10 0.000000 0.552900 0.750000
O O11 0.965640 0.565913 0.607887
O O12 0.363420 0.596238 0.892130
O O13 0.623935 0.671157 0.504074
O O14 0.224360 0.657914 0.201367
O O15 0.687683 0.651549 0.417422
O O16 0.026695 0.406166 0.512285
#
# Coordination Sequence:
#
# PCOD9266410 Si02
#       8
#     8   8   4   8   8   8   8   8
#     4  10  23  37  63  90 123 176 209 256 317 369
#     4  10  21  38  64  92 120 160 212 260 321 378
#     4  10  22  44  58  84 130 158 216 266 308 372
#     4  10  19  37  64  90 123 162 201 264 325 369
#     4  11  22  39  61  92 126 166 214 257 315 376
#     4  10  21  38  60  92 123 161 210 264 306 376
#     4  10  23  40  62  88 124 170 206 265 317 374
#     4  10  21  40  61  89 133 162 207 265 313 387
#
# _framework density 22.817668999999999
#
# number of rings (size 3 to 8) (size 9 to 14) (size 15 to 20)
#    0.000    1.867    1.333    2.000    3.733    1.067 
#    7.200    0.000    2.933    0.000    0.000    0.000 
#    0.000    0.000    0.000    0.000    0.000    0.000 
#
# Total GULP energy -167059.829990 kJ/mol
# GULP energy per Si atom -5568.661000 kJ/mol
# Density = 2.276573 g / cm^3
# Si number density = 22.817669 Si / 1000 Ang^3
#
#
#
# Elastic Constant Matrix: (Units=GPa)
#
#
# Indices 1 2 3 4 5 6 
#
# 1 97.3807 15.1245 38.4937 0.0080 -23.0422 0.0171
# 2 15.1245 59.7997 17.3609 -0.0243 -20.0672 0.0202
# 3 38.4937 17.3609 94.6987 -0.0121 -27.5845 0.0969
# 4 0.0080 -0.0243 -0.0121 14.4943 0.0020 11.9432
# 5 -23.0422 -20.0672 -27.5845 0.0020 36.4058 0.0186
# 6 0.0171 0.0202 0.0969 11.9432 0.0186 2.0880
#
#
#
# Elastic Compliance Matrix: (Units=1/GPa)
#
#
# Indices 1 2 3 4 5 6 
#
# 1 0.013032 -0.000484 -0.003700 0.000008 0.005178 -0.000025
# 2 -0.000484 0.020562 -0.000463 -0.000068 0.010677 0.000123
# 3 -0.003700 -0.000463 0.014618 -0.000163 0.008479 0.000213
# 4 0.000008 -0.000068 -0.000163 -0.018578 -0.000209 0.106275
# 5 0.005178 0.010677 0.008479 -0.000209 0.043055 0.000273
# 6 -0.000025 0.000123 0.000213 0.106275 0.000273 -0.128975
#
#
# Mechanical properties :
#
#
# Convention : Reuss Voigt Hill
#
# Bulk Modulus (GPa) = 25.69540 43.75970 34.72755
# Shear Modulus (GPa) = -146.97958 22.65762 -62.16098
#
# Velocity S-wave (km/s) = -8.03459 3.15459 -5.22509
# Velocity P-wave (km/s) = 8.64796 5.69984 4.59886
#
# Compressibility (1/GPa) = 0.03891748
#
# Stress axis : x y z
#
# Youngs Moduli (GPa) = 76.73398 48.63310 68.40702
#
# Poissons Ratio (x) = 0.02355 0.25313
# Poissons Ratio (y) = 0.03716 0.03167
# Poissons Ratio (z) = 0.28394 0.02251
#
# Static dielectric constant tensor:
#      x y z
#    x 2.066940 -0.000020 -0.070920 
#    y -0.000020 2.000260 -0.000040 
#    z -0.070920 -0.000040 1.924490 
# 
# From -- ./inp_files/201261.got.cif
#   From: 2010.05.17/outbox.cif.g08.bks.cpg/sg15_101_cif.got.tgz:201261.got - 2010.06.03 18:47:42.
