data_PCOD9266047
_publ_section_title
;
Structure prediction by ZEFSAII (Michael W. Deem and Ramdas Pophale) SiO2 
 PCOD9266047
Probable space group: C 2/C
;
_chemical_formula_sum "Si O2"
_cell_formula_units_Z 56
_cell_length_a 11.951215
_cell_length_b 22.242108
_cell_length_c 10.377398
_cell_angle_alpha 90.000000
_cell_angle_beta 78.460008
_cell_angle_gamma 90.000000
_cell_volume 2702.759491
_symmetry_space_group_name_H-M "C 2/C"
_symmetry_group_IT_number 15
_symmetry_cell_setting 'monoclinic'
loop_
_space_group_symop_operation_xyz
x,y,z
-x,y,1/2-z
-x,-y,-z
x,-y,1/2+z
1/2+x,1/2+y,z
1/2-x,1/2+y,1/2-z
1/2-x,1/2-y,-z
1/2+x,1/2-y,1/2+z
loop_
_atom_site_type_symbol
_atom_site_label
_atom_site_fract_x
_atom_site_fract_y
_atom_site_fract_z
Si Si1 0.340962 0.062603 0.111368
Si Si2 0.465420 0.838809 0.937378
Si Si3 0.818162 0.338839 0.232517
Si Si4 0.120005 0.857324 0.707693
Si Si5 0.274191 0.774848 0.851072
Si Si6 0.367167 0.962703 0.315307
Si Si7 0.382905 0.242699 0.943888
O O1 0.226826 0.103254 0.136130
O O2 0.334805 0.018791 0.234506
O O3 0.453879 0.103922 0.097548
O O4 0.353669 0.028739 0.971371
O O5 0.386434 0.847295 0.083141
O O6 0.546629 0.783088 0.955045
O O7 0.382631 0.818185 0.841957
O O8 0.722006 0.287994 0.228135
O O9 0.792544 0.404701 0.291501
O O10 0.889804 0.306926 0.329609
O O11 0.175126 0.816193 0.810245
O O12 0.080748 0.807240 0.613622
O O13 0.000000 0.892512 0.750000
O O14 0.250000 0.750000 0.000000
O O15 0.500000 0.948735 0.250000
O O16 0.250000 0.250000 0.000000
#
# Coordination Sequence:
#
# PCOD9266047 Si02
#       7
#     8   8   8   8   8   8   8
#     4  12  27  42  69 104 139 185 242 295 354 423
#     4  11  20  38  62  98 137 166 224 286 356 412
#     4  10  19  37  59  89 134 179 217 266 351 420
#     4  11  23  42  66  95 135 186 232 283 354 430
#     4   9  21  35  63  99 134 178 211 286 351 409
#     4  12  24  43  67 102 138 182 231 296 354 417
#     4  11  18  35  63  94 131 173 221 271 350 434
#
# _framework density 20.719566
#
# number of rings (size 3 to 8) (size 9 to 14) (size 15 to 20)
#    0.000    1.143    4.286    3.429    2.000    1.714 
#    0.000    0.714    0.000    1.714    0.000    0.000 
#    0.000    0.000    0.000    0.000    0.000    0.000 
#
# Total GULP energy -156320.897102 kJ/mol
# GULP energy per Si atom -5582.889182 kJ/mol
# Density = 2.067241 g / cm^3
# Si number density = 20.719566 Si / 1000 Ang^3
#
#
#
# Elastic Constant Matrix: (Units=GPa)
#
#
# Indices 1 2 3 4 5 6 
#
# 1 109.7913 41.2905 31.5768 0.0000 10.1305 0.0000
# 2 41.2905 105.1099 44.1190 0.0000 9.9521 0.0000
# 3 31.5768 44.1190 108.1025 0.0000 10.6868 0.0000
# 4 0.0000 0.0000 0.0000 25.7174 0.0000 -7.7580
# 5 10.1305 9.9521 10.6868 0.0000 33.8445 0.0000
# 6 0.0000 0.0000 0.0000 -7.7580 0.0000 11.3848
#
#
#
# Elastic Compliance Matrix: (Units=1/GPa)
#
#
# Indices 1 2 3 4 5 6 
#
# 1 0.011053 -0.003491 -0.001629 0.000000 -0.001767 0.000000
# 2 -0.003491 0.012710 -0.004027 0.000000 -0.001421 0.000000
# 3 -0.001629 -0.004027 0.011566 0.000000 -0.001980 0.000000
# 4 0.000000 0.000000 0.000000 0.048945 0.000000 0.033353
# 5 -0.001767 -0.001421 -0.001980 0.000000 0.031119 0.000000
# 6 0.000000 0.000000 0.000000 0.033353 0.000000 0.110564
#
#
# Mechanical properties :
#
#
# Convention : Reuss Voigt Hill
#
# Bulk Modulus (GPa) = 58.70466 61.88626 60.29546
# Shear Modulus (GPa) = 20.00574 27.92386 23.96480
#
# Velocity S-wave (km/s) = 3.11070 3.67509 3.40461
# Velocity P-wave (km/s) = 6.42623 6.92400 6.67975
#
# Compressibility (1/GPa) = 0.01703442
#
# Stress axis : x y z
#
# Youngs Moduli (GPa) = 90.47653 78.67830 86.46289
#
# Poissons Ratio (x) = 0.27464 0.14086
# Poissons Ratio (y) = 0.31582 0.34820
# Poissons Ratio (z) = 0.14740 0.31685
#
# Static dielectric constant tensor:
#      x y z
#    x 1.819560 0.000000 -0.063000 
#    y 0.000000 1.765570 0.000000 
#    z -0.063000 0.000000 1.887560 
# 
# From -- ./inp_files/88890.got.cif
#   From: 2010.05.17/outbox.cif.g08.bks.cpg/sg15_45_cif.got.tgz:88890.got - 2010.06.03 18:47:42.
