data_PCOD9266694
_publ_section_title
;
Structure prediction by ZEFSAII (Michael W. Deem and Ramdas Pophale) SiO2 
 PCOD9266694
Probable space group: C 2/C
;
_chemical_formula_sum "Si O2"
_cell_formula_units_Z 60
_cell_length_a 8.616833
_cell_length_b 26.586534
_cell_length_c 14.314940
_cell_angle_alpha 90.000000
_cell_angle_beta 64.385984
_cell_angle_gamma 90.000000
_cell_volume 2957.153777
_symmetry_space_group_name_H-M "C 2/C"
_symmetry_group_IT_number 15
_symmetry_cell_setting 'monoclinic'
loop_
_space_group_symop_operation_xyz
x,y,z
-x,y,1/2-z
-x,-y,-z
x,-y,1/2+z
1/2+x,1/2+y,z
1/2-x,1/2+y,1/2-z
1/2-x,1/2-y,-z
1/2+x,1/2-y,1/2+z
loop_
_atom_site_type_symbol
_atom_site_label
_atom_site_fract_x
_atom_site_fract_y
_atom_site_fract_z
Si Si1 0.578013 0.462462 0.053536
Si Si2 0.827259 0.420386 0.738149
Si Si3 0.113719 0.308287 0.802776
Si Si4 0.050472 0.443023 0.513092
Si Si5 0.362593 0.835385 0.040184
Si Si6 0.017890 0.860073 0.357065
Si Si7 0.500000 0.523766 0.250000
Si Si8 0.324838 0.786509 0.246469
O O1 0.461245 0.413444 0.097988
O O2 0.596827 0.488649 0.149910
O O3 0.500000 0.500000 0.000000
O O4 0.770885 0.446799 0.975576
O O5 0.817574 0.360820 0.758243
O O6 0.640138 0.446458 0.777974
O O7 0.000000 0.439293 0.750000
O O8 0.892350 0.425210 0.615490
O O9 0.266593 0.270162 0.782509
O O10 0.000000 0.283537 0.750000
O O11 0.991658 0.319034 0.924006
O O12 0.090602 0.393348 0.439553
O O13 0.000000 0.500000 0.500000
O O14 0.163757 0.838356 0.059562
O O15 0.356070 0.798153 0.129246
O O16 0.000000 0.869372 0.250000
O O17 0.173035 0.821839 0.324684
O O18 0.500000 0.799547 0.250000
#
# Coordination Sequence:
#
# PCOD9266694 Si02
#       8
#     8   8   8   8   8   8   4   8
#     4  11  22  36  60  91 121 164 211 251 316 379
#     4  10  22  39  61  90 126 166 210 256 315 380
#     4  10  22  42  65  89 117 163 210 253 313 375
#     4  10  19  38  59  85 122 160 201 253 310 368
#     4   9  21  40  64  86 119 161 206 249 305 375
#     4   9  19  40  62  85 121 161 207 254 305 379
#     4  12  22  38  62  92 130 168 206 268 312 366
#     4  11  24  39  61  94 124 156 205 261 318 370
#
# _framework density 20.289781000000001
#
# number of rings (size 3 to 8) (size 9 to 14) (size 15 to 20)
#    0.000    1.867    2.000    2.000    0.933    4.800 
#    0.000    1.333    0.000    0.000    0.000    0.000 
#    0.000    0.000    0.000    0.000    0.000    0.000 
#
# Total GULP energy -167039.746987 kJ/mol
# GULP energy per Si atom -5567.991566 kJ/mol
# Density = 2.024360 g / cm^3
# Si number density = 20.289781 Si / 1000 Ang^3
#
#
#
# Elastic Constant Matrix: (Units=GPa)
#
#
# Indices 1 2 3 4 5 6 
#
# 1 69.4681 24.0083 13.1158 0.0000 -5.7970 0.0000
# 2 24.0083 65.1134 20.4759 0.0000 -3.3434 0.0000
# 3 13.1158 20.4759 62.0645 0.0000 -13.9530 0.0000
# 4 0.0000 0.0000 0.0000 25.0770 0.0000 0.3006
# 5 -5.7970 -3.3434 -13.9530 0.0000 25.4273 0.0000
# 6 0.0000 0.0000 0.0000 0.3006 0.0000 23.3846
#
#
#
# Elastic Compliance Matrix: (Units=1/GPa)
#
#
# Indices 1 2 3 4 5 6 
#
# 1 0.016785 -0.005714 -0.001107 0.000000 0.002468 0.000000
# 2 -0.005714 0.019102 -0.005501 0.000000 -0.001810 0.000000
# 3 -0.001107 -0.005501 0.020467 0.000000 0.010255 0.000000
# 4 0.000000 0.000000 0.000000 0.039883 0.000000 -0.000513
# 5 0.002468 -0.001810 0.010255 0.000000 0.045280 0.000000
# 6 0.000000 0.000000 0.000000 -0.000513 0.000000 0.042770
#
#
# Mechanical properties :
#
#
# Convention : Reuss Voigt Hill
#
# Bulk Modulus (GPa) = 31.53732 34.64955 33.09344
# Shear Modulus (GPa) = 22.77900 24.04751 23.41325
#
# Velocity S-wave (km/s) = 3.35428 3.44641 3.40066
# Velocity P-wave (km/s) = 5.52981 5.74033 5.63605
#
# Compressibility (1/GPa) = 0.03170846
#
# Stress axis : x y z
#
# Youngs Moduli (GPa) = 59.57766 52.35142 48.85989
#
# Poissons Ratio (x) = 0.29913 0.05410
# Poissons Ratio (y) = 0.34042 0.26879
# Poissons Ratio (z) = 0.06596 0.28800
#
# Static dielectric constant tensor:
#      x y z
#    x 1.819110 0.000000 -0.054950 
#    y 0.000000 1.782820 0.000000 
#    z -0.054950 0.000000 1.776220 
# 
# From -- ./inp_files/137779.got.cif
#   From: 2010.05.17/outbox.cif.g08.bks.cpg/sg15_69_cif.got.tgz:137779.got - 2010.06.03 18:47:42.
