data_PCOD9266919
_publ_section_title
;
Structure prediction by ZEFSAII (Michael W. Deem and Ramdas Pophale) SiO2 
 PCOD9266919
Probable space group: C 2/C
;
_chemical_formula_sum "Si O2"
_cell_formula_units_Z 60
_cell_length_a 10.132051
_cell_length_b 32.561553
_cell_length_c 9.973469
_cell_angle_alpha 90.000000
_cell_angle_beta 58.292633
_cell_angle_gamma 90.000000
_cell_volume 2799.286685
_symmetry_space_group_name_H-M "C 2/C"
_symmetry_group_IT_number 15
_symmetry_cell_setting 'monoclinic'
loop_
_space_group_symop_operation_xyz
x,y,z
-x,y,1/2-z
-x,-y,-z
x,-y,1/2+z
1/2+x,1/2+y,z
1/2-x,1/2+y,1/2-z
1/2-x,1/2-y,-z
1/2+x,1/2-y,1/2+z
loop_
_atom_site_type_symbol
_atom_site_label
_atom_site_fract_x
_atom_site_fract_y
_atom_site_fract_z
Si Si1 0.339631 0.416538 0.485965
Si Si2 0.732574 0.794265 0.773565
Si Si3 0.632640 0.869780 0.381555
Si Si4 0.124326 0.379998 0.787446
Si Si5 0.047696 0.276936 0.382139
Si Si6 0.500000 0.648566 0.250000
Si Si7 0.387229 0.493508 0.934366
Si Si8 0.336517 0.408069 0.059030
O O1 0.254186 0.385114 0.431158
O O2 0.275664 0.405579 0.669492
O O3 0.299926 0.463166 0.465378
O O4 0.524982 0.413193 0.403079
O O5 0.650571 0.831760 0.739255
O O6 0.827055 0.758261 0.651329
O O7 0.865640 0.821157 0.772597
O O8 0.606757 0.775457 0.943533
O O9 0.460242 0.882109 0.524909
O O10 0.625091 0.820995 0.367843
O O11 0.691590 0.888999 0.212754
O O12 0.000000 0.397432 0.750000
O O13 0.000000 0.273758 0.250000
O O14 0.413330 0.621250 0.407341
O O15 0.500000 0.486355 0.750000
O O16 0.500000 0.500000 0.000000
O O17 0.297044 0.452023 0.015850
#
# Coordination Sequence:
#
# PCOD9266919 Si02
#       8
#     8   8   8   8   8   4   8   8
#     4  10  19  38  63  85 121 166 204 253 312 371
#     4  11  23  38  59  87 119 161 206 257 314 372
#     4  10  22  38  60  89 121 162 207 254 308 372
#     4   9  20  40  60  83 123 165 206 251 314 373
#     4  11  23  39  58  87 122 158 204 260 309 371
#     4  12  22  36  64  88 124 164 204 252 324 370
#     4  10  20  35  57  93 127 158 207 267 310 363
#     4  11  21  36  60  93 121 160 209 256 308 368
#
# _framework density 21.434031999999998
#
# number of rings (size 3 to 8) (size 9 to 14) (size 15 to 20)
#    0.000    1.600    2.667    3.200    1.867    0.000 
#    0.000    8.000    0.000   12.000    0.000    0.000 
#    0.000    0.000    0.000    0.000    0.000    0.000 
#
# Total GULP energy -167376.316450 kJ/mol
# GULP energy per Si atom -5579.210548 kJ/mol
# Density = 2.138525 g / cm^3
# Si number density = 21.434032 Si / 1000 Ang^3
#
#
#
# Elastic Constant Matrix: (Units=GPa)
#
#
# Indices 1 2 3 4 5 6 
#
# 1 49.8296 13.4282 1.6169 0.0000 -6.8801 0.0000
# 2 13.4282 132.1652 66.8698 0.0000 -19.0400 0.0000
# 3 1.6169 66.8698 149.0410 0.0000 -18.2798 0.0000
# 4 0.0000 0.0000 0.0000 39.7562 0.0000 -0.1467
# 5 -6.8801 -19.0400 -18.2798 0.0000 30.1948 0.0000
# 6 0.0000 0.0000 0.0000 -0.1467 0.0000 29.8779
#
#
#
# Elastic Compliance Matrix: (Units=1/GPa)
#
#
# Indices 1 2 3 4 5 6 
#
# 1 0.021199 -0.002188 0.001269 0.000000 0.004219 0.000000
# 2 -0.002188 0.010434 -0.004226 0.000000 0.003523 0.000000
# 3 0.001269 -0.004226 0.008966 0.000000 0.003053 0.000000
# 4 0.000000 0.000000 0.000000 0.025154 0.000000 0.000123
# 5 0.004219 0.003523 0.003053 0.000000 0.038149 0.000000
# 6 0.000000 0.000000 0.000000 0.000123 0.000000 0.033470
#
#
# Mechanical properties :
#
#
# Convention : Reuss Voigt Hill
#
# Bulk Modulus (GPa) = 32.99209 54.98508 43.98859
# Shear Modulus (GPa) = 31.69264 36.57383 34.13323
#
# Velocity S-wave (km/s) = 3.84945 4.13527 3.99492
# Velocity P-wave (km/s) = 5.93156 6.96488 6.46888
#
# Compressibility (1/GPa) = 0.03031029
#
# Stress axis : x y z
#
# Youngs Moduli (GPa) = 47.17110 95.83959 111.53102
#
# Poissons Ratio (x) = 0.20973 -0.14157
# Poissons Ratio (y) = 0.10323 0.47129
# Poissons Ratio (z) = -0.05987 0.40498
#
# Static dielectric constant tensor:
#      x y z
#    x 1.948700 0.000000 -0.057420 
#    y 0.000000 1.792900 0.000000 
#    z -0.057420 0.000000 1.860040 
# 
# From -- ./inp_files/92588.got.cif
#   From: 2010.05.17/outbox.cif.g08.bks.cpg/sg15_47_cif.got.tgz:92588.got - 2010.06.03 18:47:42.
