data_PCOD9266537
_publ_section_title
;
Structure prediction by ZEFSAII (Michael W. Deem and Ramdas Pophale) SiO2 
 PCOD9266537
Probable space group: C 2/C
;
_chemical_formula_sum "Si O2"
_cell_formula_units_Z 40
_cell_length_a 29.653319
_cell_length_b 7.042330
_cell_length_c 22.977846
_cell_angle_alpha 90.000000
_cell_angle_beta 161.854748
_cell_angle_gamma 90.000000
_cell_volume 1494.360306
_symmetry_space_group_name_H-M "C 2/C"
_symmetry_group_IT_number 15
_symmetry_cell_setting 'monoclinic'
loop_
_space_group_symop_operation_xyz
x,y,z
-x,y,1/2-z
-x,-y,-z
x,-y,1/2+z
1/2+x,1/2+y,z
1/2-x,1/2+y,1/2-z
1/2-x,1/2-y,-z
1/2+x,1/2-y,1/2+z
loop_
_atom_site_type_symbol
_atom_site_label
_atom_site_fract_x
_atom_site_fract_y
_atom_site_fract_z
Si Si1 0.094297 0.396557 0.028957
Si Si2 0.328772 0.456395 0.602991
Si Si3 0.126365 0.528495 0.948137
Si Si4 0.120349 0.287347 0.644976
Si Si5 0.836122 0.058221 0.979409
O O1 0.059153 0.405129 0.917420
O O2 0.004331 0.253153 0.959897
O O3 0.056919 0.598895 0.012424
O O4 0.268369 0.370526 0.240657
O O5 0.250000 0.250000 0.500000
O O6 0.241199 0.564276 0.545690
O O7 0.493793 0.446283 0.826008
O O8 0.324476 0.519601 0.531036
O O9 0.199499 0.716876 0.064684
O O10 0.000000 0.594038 0.750000
O O11 0.232392 0.435190 0.812603
#
# Coordination Sequence:
#
# PCOD9266537 Si02
#       5
#     8   8   8   8   8
#     4  11  27  47  67  94 131 169 224 270 335 383
#     4   9  17  33  60  98 131 170 216 254 316 381
#     4  11  20  38  65  99 132 172 213 267 318 391
#     4  11  26  48  67  94 128 175 218 276 323 400
#     4  10  19  37  66  95 132 169 220 262 320 384
#
# _framework density 26.767306000000001
#
# number of rings (size 3 to 8) (size 9 to 14) (size 15 to 20)
#    0.000    1.600    4.000    2.400    5.600    0.800 
#    3.600    2.000    0.000    0.000    0.000    0.000 
#    0.000    0.000    0.000    0.000    0.000    0.000 
#
# Total GULP energy -111871.427295 kJ/mol
# GULP energy per Si atom -5593.571365 kJ/mol
# Density = 2.670638 g / cm^3
# Si number density = 26.767306 Si / 1000 Ang^3
#
#
#
# Elastic Constant Matrix: (Units=GPa)
#
#
# Indices 1 2 3 4 5 6 
#
# 1 217.6245 15.7256 51.7032 0.0001 47.0339 0.0000
# 2 15.7256 69.5763 19.4317 -0.0003 16.2050 0.0000
# 3 51.7032 19.4317 82.7551 -0.0001 23.3880 0.0000
# 4 0.0001 -0.0003 -0.0001 25.3105 -0.0001 4.9012
# 5 47.0339 16.2050 23.3880 -0.0001 48.9859 0.0000
# 6 0.0000 0.0000 0.0000 4.9012 0.0000 19.4682
#
#
#
# Elastic Compliance Matrix: (Units=1/GPa)
#
#
# Indices 1 2 3 4 5 6 
#
# 1 0.006243 0.000462 -0.002626 0.000000 -0.004893 0.000000
# 2 0.000462 0.016084 -0.002816 0.000000 -0.004420 0.000000
# 3 -0.002626 -0.002816 0.015502 0.000000 -0.003948 0.000000
# 4 0.000000 0.000000 0.000000 0.041534 0.000000 -0.010456
# 5 -0.004893 -0.004420 -0.003948 0.000000 0.028460 0.000000
# 6 0.000000 0.000000 0.000000 -0.010456 0.000000 0.053998
#
#
# Mechanical properties :
#
#
# Convention : Reuss Voigt Hill
#
# Bulk Modulus (GPa) = 35.88295 60.40857 48.14576
# Shear Modulus (GPa) = 27.61346 37.62595 32.61971
#
# Velocity S-wave (km/s) = 3.21536 3.75329 3.49469
# Velocity P-wave (km/s) = 5.21721 6.43428 5.85744
#
# Compressibility (1/GPa) = 0.02786839
#
# Stress axis : x y z
#
# Youngs Moduli (GPa) = 160.17470 62.17265 64.50931
#
# Poissons Ratio (x) = -0.02873 0.16941
# Poissons Ratio (y) = -0.07401 0.18168
# Poissons Ratio (z) = 0.42064 0.17510
#
# Static dielectric constant tensor:
#      x y z
#    x 2.128950 0.000000 0.031860 
#    y 0.000000 2.159540 0.000000 
#    z 0.031860 0.000000 2.113950 
# 
# From -- ./inp_files/284259.got.cif
#   From: 2010.05.17/outbox.cif.g08.bks.cpg/sg15_143_cif.got.tgz:284259.got - 2010.06.03 18:47:42.
