data_PCOD9266224
_publ_section_title
;
Structure prediction by ZEFSAII (Michael W. Deem and Ramdas Pophale) SiO2 
 PCOD9266224
Probable space group: C 2/C
;
_chemical_formula_sum "Si O2"
_cell_formula_units_Z 52
_cell_length_a 16.101108
_cell_length_b 19.919312
_cell_length_c 13.274733
_cell_angle_alpha 90.000000
_cell_angle_beta 139.314817
_cell_angle_gamma 90.000000
_cell_volume 2775.482040
_symmetry_space_group_name_H-M "C 2/C"
_symmetry_group_IT_number 15
_symmetry_cell_setting 'monoclinic'
loop_
_space_group_symop_operation_xyz
x,y,z
-x,y,1/2-z
-x,-y,-z
x,-y,1/2+z
1/2+x,1/2+y,z
1/2-x,1/2+y,1/2-z
1/2-x,1/2-y,-z
1/2+x,1/2-y,1/2+z
loop_
_atom_site_type_symbol
_atom_site_label
_atom_site_fract_x
_atom_site_fract_y
_atom_site_fract_z
Si Si1 0.857461 0.475537 0.575800
Si Si2 0.000000 0.820526 0.750000
Si Si3 0.043439 0.640104 0.473129
Si Si4 0.530477 0.187051 0.889068
Si Si5 0.229514 0.894818 0.863522
Si Si6 0.251122 0.398332 0.843395
Si Si7 0.619586 0.724945 0.932295
O O1 0.872873 0.416981 0.504900
O O2 0.804592 0.543062 0.479783
O O3 0.766039 0.451857 0.582809
O O4 0.000000 0.484911 0.750000
O O5 0.017296 0.767225 0.858835
O O6 0.115185 0.868447 0.826136
O O7 0.074781 0.711824 0.455682
O O8 0.053224 0.651039 0.602202
O O9 0.896415 0.623831 0.310732
O O10 0.500000 0.159195 0.750000
O O11 0.673835 0.168374 0.050171
O O12 0.197397 0.916351 0.719746
O O13 0.337758 0.338422 0.963750
O O14 0.500000 0.708726 0.750000
O O15 0.750000 0.750000 0.000000
#
# Coordination Sequence:
#
# PCOD9266224 Si02
#       7
#     8   4   8   8   8   8   8
#     4  10  21  38  63  92 124 165 214 259 315 380
#     4  10  22  42  56  86 126 162 208 252 316 376
#     4  10  19  37  61  95 129 154 211 269 313 370
#     4   9  21  36  61  89 119 159 211 254 311 365
#     4  11  22  40  63  85 129 165 204 266 315 380
#     4  10  22  39  62  93 121 161 214 262 315 372
#     4  12  20  37  64  95 125 163 200 261 323 375
#
# _framework density 18.735485000000001
#
# number of rings (size 3 to 8) (size 9 to 14) (size 15 to 20)
#    0.462    1.231    3.077    2.308    0.000    6.769 
#    1.385    0.769    3.385    0.000    0.000    0.000 
#    0.000    0.000    0.000    0.000    0.000    0.000 
#
# Total GULP energy -144854.036110 kJ/mol
# GULP energy per Si atom -5571.309081 kJ/mol
# Density = 1.869284 g / cm^3
# Si number density = 18.735485 Si / 1000 Ang^3
#
#
#
# Elastic Constant Matrix: (Units=GPa)
#
#
# Indices 1 2 3 4 5 6 
#
# 1 52.7273 20.2497 30.7254 0.0000 -19.3107 0.0000
# 2 20.2497 98.6957 37.1012 0.0000 -11.2188 0.0000
# 3 30.7254 37.1012 63.1456 0.0000 -24.9696 0.0000
# 4 0.0000 0.0000 0.0000 15.1972 0.0000 5.2751
# 5 -19.3107 -11.2188 -24.9696 0.0000 29.2180 0.0000
# 6 0.0000 0.0000 0.0000 5.2751 0.0000 -5.6214
#
#
#
# Elastic Compliance Matrix: (Units=1/GPa)
#
#
# Indices 1 2 3 4 5 6 
#
# 1 0.028598 -0.001303 -0.008872 0.000000 0.010819 0.000000
# 2 -0.001303 0.013169 -0.008223 0.000000 -0.002832 0.000000
# 3 -0.008872 -0.008223 0.032350 0.000000 0.018625 0.000000
# 4 0.000000 0.000000 0.000000 0.049634 0.000000 0.046577
# 5 0.010819 -0.002832 0.018625 0.000000 0.056205 0.000000
# 6 0.000000 0.000000 0.000000 0.046577 0.000000 -0.134184
#
#
# Mechanical properties :
#
#
# Convention : Reuss Voigt Hill
#
# Bulk Modulus (GPa) = 26.79466 43.41348 35.10407
# Shear Modulus (GPa) = 52.62769 16.19159 34.40964
#
# Velocity S-wave (km/s) = 5.30574 2.94295 4.29021
# Velocity P-wave (km/s) = 7.20188 5.89661 6.58168
#
# Compressibility (1/GPa) = 0.03732086
#
# Stress axis : x y z
#
# Youngs Moduli (GPa) = 34.96772 75.93710 30.91228
#
# Poissons Ratio (x) = 0.09893 0.27424
# Poissons Ratio (y) = 0.04555 0.25420
# Poissons Ratio (z) = 0.31022 0.62446
#
# Static dielectric constant tensor:
#      x y z
#    x 1.711520 0.000000 -0.036810 
#    y 0.000000 1.629730 0.000000 
#    z -0.036810 0.000000 1.682920 
# 
# From -- ./inp_files/99845.got.cif
#   From: 2010.05.17/outbox.cif.g08.bks.cpg/sg15_50_cif.got.tgz:99845.got - 2010.06.03 18:47:42.
