data_PCOD9266701
_publ_section_title
;
Structure prediction by ZEFSAII (Michael W. Deem and Ramdas Pophale) SiO2 
 PCOD9266701
Probable space group: C 2/C
;
_chemical_formula_sum "Si O2"
_cell_formula_units_Z 56
_cell_length_a 15.943139
_cell_length_b 17.047719
_cell_length_c 13.628360
_cell_angle_alpha 90.000000
_cell_angle_beta 131.489446
_cell_angle_gamma 90.000000
_cell_volume 2774.665367
_symmetry_space_group_name_H-M "C 2/C"
_symmetry_group_IT_number 15
_symmetry_cell_setting 'monoclinic'
loop_
_space_group_symop_operation_xyz
x,y,z
-x,y,1/2-z
-x,-y,-z
x,-y,1/2+z
1/2+x,1/2+y,z
1/2-x,1/2+y,1/2-z
1/2-x,1/2-y,-z
1/2+x,1/2-y,1/2+z
loop_
_atom_site_type_symbol
_atom_site_label
_atom_site_fract_x
_atom_site_fract_y
_atom_site_fract_z
Si Si1 0.666358 0.758929 0.647017
Si Si2 0.552879 0.231968 0.390549
Si Si3 0.495848 0.205992 0.632741
Si Si4 0.337767 0.517481 0.678215
Si Si5 0.325941 0.867424 0.357747
Si Si6 0.927796 0.091292 0.571844
Si Si7 0.366898 0.635978 0.310891
O O1 0.552119 0.756954 0.618527
O O2 0.627283 0.777945 0.506421
O O3 0.734063 0.680014 0.722565
O O4 0.746309 0.828559 0.744067
O O5 0.500000 0.198786 0.250000
O O6 0.643217 0.181326 0.519405
O O7 0.595566 0.320433 0.407122
O O8 0.500000 0.187551 0.750000
O O9 0.561785 0.139513 0.620926
O O10 0.561162 0.288355 0.664541
O O11 0.229087 0.552203 0.648470
O O12 0.344298 0.535266 0.567438
O O13 0.446691 0.563938 0.804570
O O14 0.356179 0.427282 0.717545
O O15 0.914151 0.094886 0.444791
#
# Coordination Sequence:
#
# PCOD9266701 Si02
#       7
#     8   8   8   8   8   8   8
#     4  10  19  38  59  87 115 155 204 241 288 349
#     4  11  19  33  61  91 115 150 192 251 291 341
#     4  10  22  40  62  85 118 158 204 245 288 345
#     4  11  23  37  57  92 124 154 191 243 310 355
#     4  10  20  37  60  88 119 153 201 246 289 354
#     4  11  20  37  60  88 120 153 191 247 301 350
#     4  11  23  39  59  87 123 158 192 248 295 357
#
# _framework density 20.182614000000001
#
# number of rings (size 3 to 8) (size 9 to 14) (size 15 to 20)
#    0.000    1.429    7.143    0.429    4.000    3.429 
#    2.571    2.857    0.000    1.714    0.000    0.000 
#    0.000    0.000    0.000    0.000    0.000    0.000 
#
# Total GULP energy -156200.663311 kJ/mol
# GULP energy per Si atom -5578.595118 kJ/mol
# Density = 2.013668 g / cm^3
# Si number density = 20.182614 Si / 1000 Ang^3
#
#
#
# Elastic Constant Matrix: (Units=GPa)
#
#
# Indices 1 2 3 4 5 6 
#
# 1 45.3947 5.4973 -0.4859 0.0000 -13.1331 0.0000
# 2 5.4973 38.8309 -16.0597 0.0000 4.1719 0.0000
# 3 -0.4859 -16.0597 53.3827 0.0000 -4.3070 0.0000
# 4 0.0000 0.0000 0.0000 15.5373 0.0000 -4.9890
# 5 -13.1331 4.1719 -4.3070 0.0000 31.3521 0.0000
# 6 0.0000 0.0000 0.0000 -4.9890 0.0000 66.8951
#
#
#
# Elastic Compliance Matrix: (Units=1/GPa)
#
#
# Indices 1 2 3 4 5 6 
#
# 1 0.025965 -0.005060 -0.000358 0.000000 0.011501 0.000000
# 2 -0.005060 0.030631 0.008766 0.000000 -0.004991 0.000000
# 3 -0.000358 0.008766 0.021499 0.000000 0.001637 0.000000
# 4 0.000000 0.000000 0.000000 0.065940 0.000000 0.004918
# 5 0.011501 -0.004991 0.001637 0.000000 0.037602 0.000000
# 6 0.000000 0.000000 0.000000 0.004918 0.000000 0.015316
#
#
# Mechanical properties :
#
#
# Convention : Reuss Voigt Hill
#
# Bulk Modulus (GPa) = 11.79354 12.83464 12.31409
# Shear Modulus (GPa) = 22.88131 32.66734 27.77432
#
# Velocity S-wave (km/s) = 3.37072 4.02753 3.71368
# Velocity P-wave (km/s) = 4.58313 5.29161 4.95006
#
# Compressibility (1/GPa) = 0.08479221
#
# Stress axis : x y z
#
# Youngs Moduli (GPa) = 38.51325 32.64696 46.51441
#
# Poissons Ratio (x) = 0.16518 0.01665
# Poissons Ratio (y) = 0.19486 -0.40776
# Poissons Ratio (z) = 0.01378 -0.28619
#
# Static dielectric constant tensor:
#      x y z
#    x 1.747490 0.000000 -0.017050 
#    y 0.000000 1.698320 0.000000 
#    z -0.017050 0.000000 1.775680 
# 
# From -- ./inp_files/113442.got.cif
#   From: 2010.05.17/outbox.cif.g08.bks.cpg/sg15_57_cif.got.tgz:113442.got - 2010.06.03 18:47:42.
