data_PCOD9266272
_publ_section_title
;
Structure prediction by ZEFSAII (Michael W. Deem and Ramdas Pophale) SiO2 
 PCOD9266272
Probable space group: C 2/C
;
_chemical_formula_sum "Si O2"
_cell_formula_units_Z 56
_cell_length_a 19.381297
_cell_length_b 12.331005
_cell_length_c 23.265259
_cell_angle_alpha 90.000000
_cell_angle_beta 147.169926
_cell_angle_gamma 90.000000
_cell_volume 3014.450359
_symmetry_space_group_name_H-M "C 2/C"
_symmetry_group_IT_number 15
_symmetry_cell_setting 'monoclinic'
loop_
_space_group_symop_operation_xyz
x,y,z
-x,y,1/2-z
-x,-y,-z
x,-y,1/2+z
1/2+x,1/2+y,z
1/2-x,1/2+y,1/2-z
1/2-x,1/2-y,-z
1/2+x,1/2-y,1/2+z
loop_
_atom_site_type_symbol
_atom_site_label
_atom_site_fract_x
_atom_site_fract_y
_atom_site_fract_z
Si Si1 0.961233 0.924288 0.598686
Si Si2 0.329518 0.088345 0.784253
Si Si3 0.894389 0.640559 0.290707
Si Si4 0.308803 0.144907 0.633983
Si Si5 0.500000 0.963115 0.750000
Si Si6 0.039125 0.858537 0.103447
Si Si7 0.893142 0.799103 0.889209
Si Si8 0.000000 0.838213 0.750000
O O1 0.835283 0.862587 0.488216
O O2 0.078920 0.869341 0.647735
O O3 0.981984 0.908396 0.680420
O O4 0.955803 0.048898 0.575204
O O5 0.324381 0.123485 0.713286
O O6 0.183466 0.097307 0.702412
O O7 0.402516 0.175415 0.874535
O O8 0.388813 0.968658 0.825295
O O9 0.956141 0.607436 0.273452
O O10 0.963680 0.743107 0.366993
O O11 0.746324 0.675970 0.183162
O O12 0.379115 0.257305 0.670116
O O13 0.384905 0.046693 0.656295
O O14 0.992164 0.837458 0.006173
#
# Coordination Sequence:
#
# PCOD9266272 Si02
#       8
#     8   8   8   8   4   8   8   4
#     4  12  22  39  63  91 124 155 203 250 306 361
#     4  10  19  37  62  89 117 154 202 254 295 350
#     4  10  22  39  60  87 122 162 203 244 303 357
#     4  10  20  38  63  89 117 158 202 245 307 351
#     4   9  20  39  60  82 124 167 199 236 294 380
#     4  11  22  37  61  91 119 160 201 248 300 358
#     4  11  21  37  65  89 117 157 207 254 302 352
#     4  11  24  39  58  96 126 157 195 256 308 350
#
# _framework density 18.577183000000002
#
# number of rings (size 3 to 8) (size 9 to 14) (size 15 to 20)
#    0.000    1.429    4.286    2.571    0.000    1.143 
#    0.000    5.714    0.000    0.000    0.000    0.000 
#    0.000    0.000    0.000    0.000    0.000    0.000 
#
# Total GULP energy -156247.739923 kJ/mol
# GULP energy per Si atom -5580.276426 kJ/mol
# Density = 1.853490 g / cm^3
# Si number density = 18.577183 Si / 1000 Ang^3
#
#
#
# Elastic Constant Matrix: (Units=GPa)
#
#
# Indices 1 2 3 4 5 6 
#
# 1 93.2578 37.8702 26.6959 0.0000 -7.7782 0.0000
# 2 37.8702 126.2713 25.3296 0.0000 -12.8035 -0.0001
# 3 26.6959 25.3296 49.7926 0.0001 -11.9292 -0.0001
# 4 0.0000 0.0000 0.0001 8.1054 0.0001 5.6446
# 5 -7.7782 -12.8035 -11.9292 0.0001 23.9246 -0.0001
# 6 0.0000 -0.0001 -0.0001 5.6446 -0.0001 2.7683
#
#
#
# Elastic Compliance Matrix: (Units=1/GPa)
#
#
# Indices 1 2 3 4 5 6 
#
# 1 0.013561 -0.002907 -0.005801 -0.000001 -0.000040 0.000001
# 2 -0.002907 0.009613 -0.002641 0.000000 0.002883 -0.000001
# 3 -0.005801 -0.002641 0.026968 0.000003 0.010147 -0.000006
# 4 -0.000001 0.000000 0.000003 -0.293790 0.000004 0.599032
# 5 -0.000040 0.002883 0.010147 0.000004 0.048388 -0.000007
# 6 0.000001 -0.000001 -0.000006 0.599032 -0.000007 -0.860185
#
#
# Mechanical properties :
#
#
# Convention : Reuss Voigt Hill
#
# Bulk Modulus (GPa) = 36.43845 49.90147 43.16996
# Shear Modulus (GPa) = -4.88473 18.92139 7.01833
#
# Velocity S-wave (km/s) = -1.62331 3.19490 1.94580
# Velocity P-wave (km/s) = 4.01792 6.36631 5.32323
#
# Compressibility (1/GPa) = 0.02744354
#
# Stress axis : x y z
#
# Youngs Moduli (GPa) = 73.74133 104.02048 37.08086
#
# Poissons Ratio (x) = 0.30243 0.21511
# Poissons Ratio (y) = 0.21440 0.09793
# Poissons Ratio (z) = 0.42778 0.27472
#
# Static dielectric constant tensor:
#      x y z
#    x 1.650450 0.000000 0.023560 
#    y 0.000000 1.657420 0.000000 
#    z 0.023560 0.000000 1.638700 
# 
# From -- ./inp_files/111108.got.cif
#   From: 2010.05.17/outbox.cif.g08.bks.cpg/sg15_56_cif.got.tgz:111108.got - 2010.06.03 18:47:42.
