data_PCOD9266724
_publ_section_title
;
Structure prediction by ZEFSAII (Michael W. Deem and Ramdas Pophale) SiO2 
 PCOD9266724
Probable space group: C 2/C
;
_chemical_formula_sum "Si O2"
_cell_formula_units_Z 52
_cell_length_a 17.483339
_cell_length_b 6.678646
_cell_length_c 27.627850
_cell_angle_alpha 90.000000
_cell_angle_beta 138.621340
_cell_angle_gamma 90.000000
_cell_volume 2132.468694
_symmetry_space_group_name_H-M "C 2/C"
_symmetry_group_IT_number 15
_symmetry_cell_setting 'monoclinic'
loop_
_space_group_symop_operation_xyz
x,y,z
-x,y,1/2-z
-x,-y,-z
x,-y,1/2+z
1/2+x,1/2+y,z
1/2-x,1/2+y,1/2-z
1/2-x,1/2-y,-z
1/2+x,1/2-y,1/2+z
loop_
_atom_site_type_symbol
_atom_site_label
_atom_site_fract_x
_atom_site_fract_y
_atom_site_fract_z
Si Si1 0.344700 0.264158 0.755649
Si Si2 0.309994 0.021240 0.120623
Si Si3 0.176438 0.820953 0.645803
Si Si4 0.500000 0.293966 0.750000
Si Si5 0.030346 0.529067 0.383808
Si Si6 0.114245 0.353191 0.603525
Si Si7 0.079398 0.808732 0.982713
O O1 0.307671 0.355759 0.789338
O O2 0.430713 0.393633 0.761831
O O3 0.225881 0.224080 0.671167
O O4 0.420767 0.067449 0.803559
O O5 0.270983 0.138629 0.149695
O O6 0.383902 0.127296 0.113766
O O7 0.397505 0.842488 0.178215
O O8 0.191638 0.945468 0.039938
O O9 0.154369 0.581677 0.630743
O O10 0.047519 0.909053 0.574275
O O11 0.082822 0.335543 0.437334
O O12 0.987053 0.672494 0.405689
O O13 0.085358 0.322667 0.534353
#
# Coordination Sequence:
#
# PCOD9266724 Si02
#       7
#     8   8   8   4   8   8   8
#     4   9  19  35  58  81 111 151 196 227 277 349
#     4  11  21  36  60  85 118 144 196 239 280 336
#     4  10  23  35  59  90 117 147 192 239 294 335
#     4  10  20  36  58  84 104 154 194 232 280 340
#     4   9  21  36  59  89 111 152 197 238 283 333
#     4  10  19  38  60  81 116 157 187 233 290 347
#     4  10  19  39  62  83 114 158 193 229 286 350
#
# _framework density 24.384884
#
# number of rings (size 3 to 8) (size 9 to 14) (size 15 to 20)
#    0.000    2.462    1.538    2.769    6.462    0.000 
#    0.000    3.846    3.385    0.000    0.000    0.000 
#    0.000    0.000    0.000    0.000    0.000    0.000 
#
# Total GULP energy -145211.066679 kJ/mol
# GULP energy per Si atom -5585.041026 kJ/mol
# Density = 2.432938 g / cm^3
# Si number density = 24.384884 Si / 1000 Ang^3
#
#
#
# Elastic Constant Matrix: (Units=GPa)
#
#
# Indices 1 2 3 4 5 6 
#
# 1 256.4955 30.7730 37.3974 0.0000 -10.4774 0.0003
# 2 30.7730 28.5492 -1.6585 0.0002 -5.2836 0.0006
# 3 37.3974 -1.6585 136.3208 0.0000 -0.6794 0.0001
# 4 0.0000 0.0002 0.0000 21.4850 0.0000 0.1673
# 5 -10.4774 -5.2836 -0.6794 0.0000 39.9720 0.0001
# 6 0.0003 0.0006 0.0001 0.1673 0.0001 28.4338
#
#
#
# Elastic Compliance Matrix: (Units=1/GPa)
#
#
# Indices 1 2 3 4 5 6 
#
# 1 0.004727 -0.005073 -0.001356 0.000000 0.000545 0.000000
# 2 -0.005073 0.041379 0.001916 0.000000 0.004172 -0.000001
# 3 -0.001356 0.001916 0.007731 0.000000 0.000029 0.000000
# 4 0.000000 0.000000 0.000000 0.046546 0.000000 -0.000274
# 5 0.000545 0.004172 0.000029 0.000000 0.025713 0.000000
# 6 0.000000 -0.000001 0.000000 -0.000274 0.000000 0.035171
#
#
# Mechanical properties :
#
#
# Convention : Reuss Voigt Hill
#
# Bulk Modulus (GPa) = 22.31586 61.59879 41.95732
# Shear Modulus (GPa) = 26.99332 41.63507 34.31420
#
# Velocity S-wave (km/s) = 3.33072 4.13657 3.75532
# Velocity P-wave (km/s) = 4.89520 6.93764 6.00391
#
# Compressibility (1/GPa) = 0.04481119
#
# Stress axis : x y z
#
# Youngs Moduli (GPa) = 211.53489 24.16671 129.34837
#
# Poissons Ratio (x) = 0.12261 0.17538
# Poissons Ratio (y) = 1.07320 -0.24784
# Poissons Ratio (z) = 0.28682 -0.04630
#
# Static dielectric constant tensor:
#      x y z
#    x 1.973370 0.000000 0.004180 
#    y 0.000000 2.084310 0.000000 
#    z 0.004180 0.000000 1.940230 
# 
# From -- ./inp_files/298435.got.cif
#   From: 2010.05.17/outbox.cif.g08.bks.cpg/sg15_150_cif.got.tgz:298435.got - 2010.06.03 18:47:42.
