data_PCOD9266805
_publ_section_title
;
Structure prediction by ZEFSAII (Michael W. Deem and Ramdas Pophale) SiO2 
 PCOD9266805
Probable space group: C 2/C
;
_chemical_formula_sum "Si O2"
_cell_formula_units_Z 32
_cell_length_a 14.176101
_cell_length_b 12.278056
_cell_length_c 20.712560
_cell_angle_alpha 90.000000
_cell_angle_beta 27.707768
_cell_angle_gamma 90.000000
_cell_volume 1676.245883
_symmetry_space_group_name_H-M "C 2/C"
_symmetry_group_IT_number 15
_symmetry_cell_setting 'monoclinic'
loop_
_space_group_symop_operation_xyz
x,y,z
-x,y,1/2-z
-x,-y,-z
x,-y,1/2+z
1/2+x,1/2+y,z
1/2-x,1/2+y,1/2-z
1/2-x,1/2-y,-z
1/2+x,1/2-y,1/2+z
loop_
_atom_site_type_symbol
_atom_site_label
_atom_site_fract_x
_atom_site_fract_y
_atom_site_fract_z
Si Si1 0.742898 0.422083 0.539626
Si Si2 0.065718 0.268781 0.307078
Si Si3 0.536186 0.195627 0.490878
Si Si4 0.799705 0.833187 0.412826
O O1 0.922725 0.374864 0.384953
O O2 0.563489 0.334639 0.639301
O O3 0.842198 0.405272 0.550457
O O4 0.677590 0.545252 0.571960
O O5 0.080295 0.257195 0.376036
O O6 0.283614 0.273407 0.142871
O O7 0.387500 0.167671 0.523626
O O8 0.750000 0.750000 0.500000
O O9 0.000000 0.805993 0.250000
#
# Coordination Sequence:
#
# PCOD9266805 Si02
#       4
#     8   8   8   8
#     4   9  21  37  67  84 117 153 195 240 295 349
#     4   9  19  36  66  91 110 144 204 248 285 339
#     4  10  19  38  61  88 113 153 195 236 293 342
#     4  12  25  42  57  85 124 162 194 233 291 354
#
# _framework density 19.090278000000001
#
# number of rings (size 3 to 8) (size 9 to 14) (size 15 to 20)
#    1.500    0.500    0.000    4.500    0.000    0.000 
#    4.500    1.250    0.000    0.000    0.000    0.000 
#    0.000    0.000    0.000    0.000    0.000    0.000 
#
# Total GULP energy -89073.605911 kJ/mol
# GULP energy per Si atom -5567.100369 kJ/mol
# Density = 1.904683 g / cm^3
# Si number density = 19.090278 Si / 1000 Ang^3
#
#
#
# Elastic Constant Matrix: (Units=GPa)
#
#
# Indices 1 2 3 4 5 6 
#
# 1 71.3965 38.7086 -12.0606 -0.0018 7.9583 -0.0024
# 2 38.7086 90.2118 28.1674 -0.0050 18.3778 -0.0015
# 3 -12.0606 28.1674 72.4408 -0.0105 23.0799 -0.0021
# 4 -0.0018 -0.0050 -0.0105 3.3560 0.0018 -2.6231
# 5 7.9583 18.3778 23.0799 0.0018 29.6780 0.0013
# 6 -0.0024 -0.0015 -0.0021 -2.6231 0.0013 18.3707
#
#
#
# Elastic Compliance Matrix: (Units=1/GPa)
#
#
# Indices 1 2 3 4 5 6 
#
# 1 0.022968 -0.011721 0.010677 0.000039 -0.007204 0.000009
# 2 -0.011721 0.019262 -0.008830 -0.000005 -0.001918 -0.000002
# 3 0.010677 -0.008830 0.024175 0.000090 -0.016196 0.000017
# 4 0.000039 -0.000005 0.000090 0.335406 -0.000099 0.047892
# 5 -0.007204 -0.001918 -0.016196 -0.000099 0.049409 -0.000021
# 6 0.000009 -0.000002 0.000017 0.047892 -0.000021 0.061273
#
#
# Mechanical properties :
#
#
# Convention : Reuss Voigt Hill
#
# Bulk Modulus (GPa) = 21.43376 38.18666 29.81021
# Shear Modulus (GPa) = 9.12750 22.22986 15.67868
#
# Velocity S-wave (km/s) = 2.18897 3.41612 2.86893
# Velocity P-wave (km/s) = 4.20009 5.96711 5.15981
#
# Compressibility (1/GPa) = 0.04665538
#
# Stress axis : x y z
#
# Youngs Moduli (GPa) = 43.53965 51.91512 41.36437
#
# Poissons Ratio (x) = 0.60851 -0.44163
# Poissons Ratio (y) = 0.51034 0.36526
# Poissons Ratio (z) = -0.46485 0.45842
#
# Static dielectric constant tensor:
#      x y z
#    x 1.683700 0.000000 0.011280 
#    y 0.000000 1.656200 0.000000 
#    z 0.011280 0.000000 1.690610 
# 
# From -- ./inp_files/273380.got.cif
#   From: 2010.05.17/outbox.cif.g08.bks.cpg/sg15_137_cif.got.tgz:273380.got - 2010.06.03 18:47:42.
