data_PCOD9266222
_publ_section_title
;
Structure prediction by ZEFSAII (Michael W. Deem and Ramdas Pophale) SiO2 
 PCOD9266222
Probable space group: C 2/C
;
_chemical_formula_sum "Si O2"
_cell_formula_units_Z 52
_cell_length_a 15.959606
_cell_length_b 14.346588
_cell_length_c 27.728168
_cell_angle_alpha 90.000000
_cell_angle_beta 24.588877
_cell_angle_gamma 90.000000
_cell_volume 2641.764763
_symmetry_space_group_name_H-M "C 2/C"
_symmetry_group_IT_number 15
_symmetry_cell_setting 'monoclinic'
loop_
_space_group_symop_operation_xyz
x,y,z
-x,y,1/2-z
-x,-y,-z
x,-y,1/2+z
1/2+x,1/2+y,z
1/2-x,1/2+y,1/2-z
1/2-x,1/2-y,-z
1/2+x,1/2-y,1/2+z
loop_
_atom_site_type_symbol
_atom_site_label
_atom_site_fract_x
_atom_site_fract_y
_atom_site_fract_z
Si Si1 0.846883 0.157976 0.927182
Si Si2 0.189615 0.457023 0.015416
Si Si3 0.000000 0.103932 0.750000
Si Si4 0.090198 0.195536 0.049141
Si Si5 0.769219 0.743321 0.853481
Si Si6 0.289405 0.949815 0.607688
Si Si7 0.285180 0.159887 0.743284
O O1 0.876645 0.161723 0.853547
O O2 0.070141 0.142609 0.831918
O O3 0.750000 0.250000 0.000000
O O4 0.709006 0.067735 0.009265
O O5 0.964879 0.415606 0.141202
O O6 0.352344 0.408989 0.965739
O O7 0.249737 0.431716 0.928807
O O8 0.859487 0.029462 0.795828
O O9 0.879814 0.243298 0.172743
O O10 0.250000 0.250000 0.000000
O O11 0.138132 0.214557 0.968314
O O12 0.718600 0.849233 0.864292
O O13 0.752199 0.675601 0.817260
O O14 0.000000 0.743987 0.750000
O O15 0.500000 0.000000 0.500000
#
# Coordination Sequence:
#
# PCOD9266222 Si02
#       7
#     8   8   4   8   8   8   8
#     4  11  27  44  61  95 132 171 215 260 322 390
#     4  10  21  42  61  89 130 161 212 264 309 381
#     4  10  24  40  62  86 128 160 208 258 318 366
#     4  10  19  37  61  94 128 155 208 265 310 380
#     4  12  20  36  65  97 128 162 214 261 321 371
#     4  11  21  33  61  95 121 156 204 266 318 368
#     4  11  23  38  66  94 130 170 204 264 327 376
#
# _framework density 19.683810999999999
#
# number of rings (size 3 to 8) (size 9 to 14) (size 15 to 20)
#    0.000    1.231    6.923    0.923    6.462    1.231 
#    0.000    2.308    0.000    0.000    0.000    0.000 
#    0.000    0.000    0.000    0.000    0.000    0.000 
#
# Total GULP energy -145084.078297 kJ/mol
# GULP energy per Si atom -5580.156858 kJ/mol
# Density = 1.963901 g / cm^3
# Si number density = 19.683811 Si / 1000 Ang^3
#
#
#
# Elastic Constant Matrix: (Units=GPa)
#
#
# Indices 1 2 3 4 5 6 
#
# 1 59.3179 27.6551 41.5075 -0.0004 15.3587 -0.0001
# 2 27.6551 122.0989 40.3999 -0.0064 13.9474 -0.0023
# 3 41.5075 40.3999 87.9383 0.0010 10.1882 -0.0139
# 4 -0.0004 -0.0064 0.0010 41.4292 -0.0095 4.8241
# 5 15.3587 13.9474 10.1882 -0.0095 47.5787 0.0014
# 6 -0.0001 -0.0023 -0.0139 4.8241 0.0014 18.0940
#
#
#
# Elastic Compliance Matrix: (Units=1/GPa)
#
#
# Indices 1 2 3 4 5 6 
#
# 1 0.027090 -0.001726 -0.011320 0.000000 -0.005815 -0.000008
# 2 -0.001726 0.009944 -0.003569 0.000001 -0.001594 -0.000002
# 3 -0.011320 -0.003569 0.018263 -0.000003 0.000790 0.000014
# 4 0.000000 0.000001 -0.000003 0.024911 0.000005 -0.006642
# 5 -0.005815 -0.001594 0.000790 0.000005 0.023193 -0.000003
# 6 -0.000008 -0.000002 0.000014 -0.006642 -0.000003 0.057038
#
#
# Mechanical properties :
#
#
# Convention : Reuss Voigt Hill
#
# Bulk Modulus (GPa) = 45.31745 54.27557 49.79651
# Shear Modulus (GPa) = 24.87270 32.07320 28.47295
#
# Velocity S-wave (km/s) = 3.55859 4.04099 3.80744
# Velocity P-wave (km/s) = 6.32119 7.02896 6.68445
#
# Compressibility (1/GPa) = 0.02206655
#
# Stress axis : x y z
#
# Youngs Moduli (GPa) = 36.91451 100.56330 54.75594
#
# Poissons Ratio (x) = 0.17357 0.61983
# Poissons Ratio (y) = 0.06371 0.19543
# Poissons Ratio (z) = 0.41787 0.35892
#
# Static dielectric constant tensor:
#      x y z
#    x 4.067800 0.000190 -0.335760 
#    y 0.000190 1.736940 0.000010 
#    z -0.335760 0.000010 1.833310 
# 
# From -- ./inp_files/316430.got.cif
#   From: 2010.05.17/outbox.cif.g08.bks.cpg/sg15_159_cif.got.tgz:316430.got - 2010.06.03 18:47:42.
