data_PCOD9266169
_publ_section_title
;
Structure prediction by ZEFSAII (Michael W. Deem and Ramdas Pophale) SiO2 
 PCOD9266169
Probable space group: C 2/C
;
_chemical_formula_sum "Si O2"
_cell_formula_units_Z 56
_cell_length_a 9.489667
_cell_length_b 17.358452
_cell_length_c 13.181780
_cell_angle_alpha 90.000000
_cell_angle_beta 91.910234
_cell_angle_gamma 90.000000
_cell_volume 2170.174274
_symmetry_space_group_name_H-M "C 2/C"
_symmetry_group_IT_number 15
_symmetry_cell_setting 'monoclinic'
loop_
_space_group_symop_operation_xyz
x,y,z
-x,y,1/2-z
-x,-y,-z
x,-y,1/2+z
1/2+x,1/2+y,z
1/2-x,1/2+y,1/2-z
1/2-x,1/2-y,-z
1/2+x,1/2-y,1/2+z
loop_
_atom_site_type_symbol
_atom_site_label
_atom_site_fract_x
_atom_site_fract_y
_atom_site_fract_z
Si Si1 0.953100 0.233840 0.846033
Si Si2 0.891921 0.782224 0.951720
Si Si3 0.335063 0.124245 0.124553
Si Si4 0.825247 0.547336 0.673064
Si Si5 0.166231 0.778606 0.897692
Si Si6 0.862305 0.946750 0.522651
Si Si7 0.859077 0.433906 0.395250
O O1 0.016498 0.193124 0.947437
O O2 0.041262 0.314860 0.850716
O O3 0.000000 0.187120 0.750000
O O4 0.790135 0.256332 0.825296
O O5 0.750000 0.750000 0.000000
O O6 0.822017 0.841604 0.873567
O O7 0.013764 0.737489 0.892420
O O8 0.329287 0.045635 0.187221
O O9 0.352867 0.107513 0.004108
O O10 0.707948 0.571062 0.588906
O O11 0.810335 0.589930 0.780347
O O12 0.976019 0.555641 0.622068
O O13 0.250000 0.750000 0.000000
O O14 0.130540 0.868758 0.909776
O O15 0.744739 0.995964 0.579673
O O16 0.000000 0.000000 0.500000
#
# Coordination Sequence:
#
# PCOD9266169 Si02
#       7
#     8   8   8   8   8   8   8
#     4  10  21  36  64  94 120 160 212 259 318 393
#     4   9  20  40  59  82 118 163 206 257 324 374
#     4  10  19  37  61  83 125 164 195 266 322 374
#     4  10  21  36  60  89 119 162 213 253 318 388
#     4  10  20  37  61  89 121 166 212 261 326 390
#     4  11  22  38  60  91 131 165 208 268 337 387
#     4  10  21  37  59  89 121 162 211 259 316 385
#
# _framework density 25.804378
#
# number of rings (size 3 to 8) (size 9 to 14) (size 15 to 20)
#    0.000    2.000    0.000    5.143    4.000    0.571 
#    5.143    2.857    0.000    0.000    0.000    0.000 
#    0.000    0.000    0.000    0.000    0.000    0.000 
#
# Total GULP energy -155993.849951 kJ/mol
# GULP energy per Si atom -5571.208927 kJ/mol
# Density = 2.574565 g / cm^3
# Si number density = 25.804378 Si / 1000 Ang^3
#
#
#
# Elastic Constant Matrix: (Units=GPa)
#
#
# Indices 1 2 3 4 5 6 
#
# 1 204.3549 22.1606 42.7216 0.0000 -4.6773 0.0000
# 2 22.1606 69.4009 -7.5016 0.0000 2.7851 0.0000
# 3 42.7216 -7.5016 114.0003 0.0000 -1.6334 0.0000
# 4 0.0000 0.0000 0.0000 8.7346 0.0000 1.8778
# 5 -4.6773 2.7851 -1.6334 0.0000 34.4809 0.0000
# 6 0.0000 0.0000 0.0000 1.8778 0.0000 33.2633
#
#
#
# Elastic Compliance Matrix: (Units=1/GPa)
#
#
# Indices 1 2 3 4 5 6 
#
# 1 0.005600 -0.002061 -0.002223 0.000000 0.000821 0.000000
# 2 -0.002061 0.015315 0.001760 0.000000 -0.001433 0.000000
# 3 -0.002223 0.001760 0.009721 0.000000 0.000017 0.000000
# 4 0.000000 0.000000 0.000000 0.115894 0.000000 -0.006543
# 5 0.000821 -0.001433 0.000017 0.000000 0.029230 0.000000
# 6 0.000000 0.000000 0.000000 -0.006543 0.000000 0.030432
#
#
# Mechanical properties :
#
#
# Convention : Reuss Voigt Hill
#
# Bulk Modulus (GPa) = 39.08138 55.83527 47.45832
# Shear Modulus (GPa) = 22.75098 37.32078 30.03588
#
# Velocity S-wave (km/s) = 2.97252 3.80715 3.41542
# Velocity P-wave (km/s) = 5.19223 6.40396 5.82966
#
# Compressibility (1/GPa) = 0.02558764
#
# Stress axis : x y z
#
# Youngs Moduli (GPa) = 178.55712 65.29535 102.87126
#
# Poissons Ratio (x) = 0.13461 0.22865
# Poissons Ratio (y) = 0.36809 -0.18103
# Poissons Ratio (z) = 0.39687 -0.11491
#
# Static dielectric constant tensor:
#      x y z
#    x 2.059100 0.000000 0.001050 
#    y 0.000000 2.275130 0.000000 
#    z 0.001050 0.000000 2.044260 
# 
# From -- ./inp_files/136440.got.cif
#   From: 2010.05.17/outbox.cif.g08.bks.cpg/sg15_69_cif.got.tgz:136440.got - 2010.06.03 18:47:42.
