data_PCOD9266402
_publ_section_title
;
Structure prediction by ZEFSAII (Michael W. Deem and Ramdas Pophale) SiO2 
 PCOD9266402
Probable space group: C 2/C
;
_chemical_formula_sum "Si O2"
_cell_formula_units_Z 56
_cell_length_a 8.826396
_cell_length_b 30.087263
_cell_length_c 16.988472
_cell_angle_alpha 90.000000
_cell_angle_beta 140.879509
_cell_angle_gamma 90.000000
_cell_volume 2846.542233
_symmetry_space_group_name_H-M "C 2/C"
_symmetry_group_IT_number 15
_symmetry_cell_setting 'monoclinic'
loop_
_space_group_symop_operation_xyz
x,y,z
-x,y,1/2-z
-x,-y,-z
x,-y,1/2+z
1/2+x,1/2+y,z
1/2-x,1/2+y,1/2-z
1/2-x,1/2-y,-z
1/2+x,1/2-y,1/2+z
loop_
_atom_site_type_symbol
_atom_site_label
_atom_site_fract_x
_atom_site_fract_y
_atom_site_fract_z
Si Si1 0.754163 0.347053 0.100146
Si Si2 0.820821 0.509407 0.034212
Si Si3 0.000000 0.853635 0.250000
Si Si4 0.745304 0.249848 0.900823
Si Si5 0.036249 0.659025 0.990608
Si Si6 0.583416 0.582301 0.638036
Si Si7 0.500000 0.969843 0.250000
Si Si8 0.777586 0.435758 0.885245
O O1 0.640910 0.298516 0.072296
O O2 0.834653 0.347287 0.042110
O O3 0.590690 0.388106 0.061467
O O4 0.000000 0.350137 0.250000
O O5 0.820327 0.497885 0.125485
O O6 0.072770 0.533198 0.114476
O O7 0.614056 0.544600 0.934091
O O8 0.788855 0.465061 0.969615
O O9 0.254713 0.830412 0.365470
O O10 0.046528 0.884109 0.193535
O O11 0.500000 0.248595 0.750000
O O12 0.750000 0.250000 0.000000
O O13 0.859418 0.297209 0.925930
O O14 0.089567 0.611909 0.054002
O O15 0.843341 0.559442 0.745841
O O16 0.500000 0.429529 0.750000
#
# Coordination Sequence:
#
# PCOD9266402 Si02
#       8
#     8   8   4   8   8   8   4   8
#     4  10  19  37  64  88 118 162 209 257 312 379
#     4  11  25  38  58  89 122 164 211 269 307 380
#     4  12  22  36  64  91 126 161 216 260 312 386
#     4   9  20  38  67  97 125 161 218 269 320 391
#     4  11  21  39  63  94 122 166 213 263 320 380
#     4  12  22  38  61  89 123 164 213 260 315 378
#     4  12  24  40  60  87 122 167 214 256 320 368
#     4  11  23  40  61  87 124 165 207 259 325 376
#
# _framework density 19.672991
#
# number of rings (size 3 to 8) (size 9 to 14) (size 15 to 20)
#    0.000    1.143    3.571    3.429    3.000    1.143 
#    0.000    0.714    0.000    0.000    0.000    0.000 
#    0.000    0.000    0.000    0.000    0.000    0.000 
#
# Total GULP energy -156108.843693 kJ/mol
# GULP energy per Si atom -5575.315846 kJ/mol
# Density = 1.962821 g / cm^3
# Si number density = 19.672991 Si / 1000 Ang^3
#
#
#
# Elastic Constant Matrix: (Units=GPa)
#
#
# Indices 1 2 3 4 5 6 
#
# 1 43.8572 -10.6899 7.3319 0.0000 7.0188 0.0000
# 2 -10.6899 103.6813 23.2354 0.0000 10.3859 0.0000
# 3 7.3319 23.2354 68.8850 0.0000 11.2071 0.0000
# 4 0.0000 0.0000 0.0000 2.2296 0.0000 4.3303
# 5 7.0188 10.3859 11.2071 0.0000 29.2753 0.0000
# 6 0.0000 0.0000 0.0000 4.3303 0.0000 -0.4981
#
#
#
# Elastic Compliance Matrix: (Units=1/GPa)
#
#
# Indices 1 2 3 4 5 6 
#
# 1 0.025259 0.003903 -0.002980 0.000000 -0.006300 0.000000
# 2 0.003903 0.011213 -0.003624 0.000000 -0.003526 0.000000
# 3 -0.002980 -0.003624 0.016776 0.000000 -0.004422 0.000000
# 4 0.000000 0.000000 0.000000 0.025076 0.000000 0.218018
# 5 -0.006300 -0.003526 -0.004422 0.000000 0.038613 0.000000
# 6 0.000000 0.000000 0.000000 0.218018 0.000000 -0.112251
#
#
# Mechanical properties :
#
#
# Convention : Reuss Voigt Hill
#
# Bulk Modulus (GPa) = 20.90034 28.46426 24.68230
# Shear Modulus (GPa) = 192.04485 19.30444 105.67464
#
# Velocity S-wave (km/s) = 9.89093 3.13592 7.33704
# Velocity P-wave (km/s) = 11.87803 5.25472 9.18421
#
# Compressibility (1/GPa) = 0.04784612
#
# Stress axis : x y z
#
# Youngs Moduli (GPa) = 39.58982 89.18424 59.60921
#
# Poissons Ratio (x) = -0.34810 0.17764
# Poissons Ratio (y) = -0.15453 0.21602
# Poissons Ratio (z) = 0.11798 0.32319
#
# Static dielectric constant tensor:
#      x y z
#    x 1.741890 0.000000 -0.057100 
#    y 0.000000 1.714910 0.000000 
#    z -0.057100 0.000000 1.791570 
# 
# From -- ./inp_files/193932.got.cif
#   From: 2010.05.17/outbox.cif.g08.bks.cpg/sg15_97_cif.got.tgz:193932.got - 2010.06.03 18:47:42.
