data_PCOD9266124
_publ_section_title
;
Structure prediction by ZEFSAII (Michael W. Deem and Ramdas Pophale) SiO2 
 PCOD9266124
Probable space group: C 2/C
;
_chemical_formula_sum "Si O2"
_cell_formula_units_Z 52
_cell_length_a 8.786405
_cell_length_b 17.853204
_cell_length_c 16.943255
_cell_angle_alpha 90.000000
_cell_angle_beta 78.623256
_cell_angle_gamma 90.000000
_cell_volume 2605.589354
_symmetry_space_group_name_H-M "C 2/C"
_symmetry_group_IT_number 15
_symmetry_cell_setting 'monoclinic'
loop_
_space_group_symop_operation_xyz
x,y,z
-x,y,1/2-z
-x,-y,-z
x,-y,1/2+z
1/2+x,1/2+y,z
1/2-x,1/2+y,1/2-z
1/2-x,1/2-y,-z
1/2+x,1/2-y,1/2+z
loop_
_atom_site_type_symbol
_atom_site_label
_atom_site_fract_x
_atom_site_fract_y
_atom_site_fract_z
Si Si1 0.752077 0.459955 0.485328
Si Si2 0.063479 0.904540 0.047257
Si Si3 0.196945 0.837995 0.875170
Si Si4 0.433657 0.031538 0.335615
Si Si5 0.798885 0.637855 0.126107
Si Si6 0.000000 0.837566 0.750000
Si Si7 0.012109 0.763843 0.154299
O O1 0.600639 0.444922 0.448004
O O2 0.700189 0.533783 0.540367
O O3 0.891786 0.478847 0.412711
O O4 0.784682 0.390531 0.538514
O O5 0.041644 0.846533 0.119661
O O6 0.098889 0.859632 0.962217
O O7 0.282196 0.915189 0.838406
O O8 0.099008 0.802952 0.812826
O O9 0.336024 0.783567 0.884810
O O10 0.500000 0.994021 0.250000
O O11 0.568458 0.088139 0.347497
O O12 0.635846 0.623029 0.186053
O O13 0.861205 0.722490 0.132346
O O14 0.000000 0.759892 0.250000
#
# Coordination Sequence:
#
# PCOD9266124 Si02
#       7
#     8   8   8   8   8   4   8
#     4  10  22  39  60  92 126 162 207 252 309 382
#     4  10  22  39  62  90 127 161 204 257 312 372
#     4  10  19  37  62  90 117 162 212 252 303 371
#     4  10  19  37  60  87 125 162 205 254 309 368
#     4  11  21  37  66  91 118 166 213 257 305 372
#     4  12  18  34  64  92 112 158 220 256 284 376
#     4  11  22  41  63  90 124 160 207 262 317 366
#
# _framework density 19.957097000000001
#
# number of rings (size 3 to 8) (size 9 to 14) (size 15 to 20)
#    0.000    1.538    4.615    1.846    0.000    0.615 
#    4.154    0.000    1.692    0.000    0.000    0.000 
#    0.000    0.000    0.000    0.000    0.000    0.000 
#
# Total GULP energy -144925.003076 kJ/mol
# GULP energy per Si atom -5574.038580 kJ/mol
# Density = 1.991167 g / cm^3
# Si number density = 19.957097 Si / 1000 Ang^3
#
#
#
# Elastic Constant Matrix: (Units=GPa)
#
#
# Indices 1 2 3 4 5 6 
#
# 1 63.2072 11.8183 16.1863 0.0000 -11.3406 0.0000
# 2 11.8183 60.5365 26.7411 0.0000 -6.8396 0.0000
# 3 16.1863 26.7411 57.8328 0.0000 -22.3666 0.0000
# 4 0.0000 0.0000 0.0000 21.1966 0.0000 8.3112
# 5 -11.3406 -6.8396 -22.3666 0.0000 34.4062 0.0000
# 6 0.0000 0.0000 0.0000 8.3112 0.0000 8.1741
#
#
#
# Elastic Compliance Matrix: (Units=1/GPa)
#
#
# Indices 1 2 3 4 5 6 
#
# 1 0.017499 -0.001844 -0.002613 0.000000 0.003703 0.000000
# 2 -0.001844 0.021161 -0.010522 0.000000 -0.003241 0.000000
# 3 -0.002613 -0.010522 0.029049 0.000000 0.015931 0.000000
# 4 0.000000 0.000000 0.000000 0.078456 0.000000 -0.079772
# 5 0.003703 -0.003241 0.015931 0.000000 0.039997 0.000000
# 6 0.000000 0.000000 0.000000 -0.079772 0.000000 0.203448
#
#
# Mechanical properties :
#
#
# Convention : Reuss Voigt Hill
#
# Bulk Modulus (GPa) = 26.48915 32.34089 29.41502
# Shear Modulus (GPa) = 11.57003 21.21076 16.39040
#
# Velocity S-wave (km/s) = 2.41040 3.26363 2.86891
# Velocity P-wave (km/s) = 4.58787 5.51743 5.07398
#
# Compressibility (1/GPa) = 0.03775130
#
# Stress axis : x y z
#
# Youngs Moduli (GPa) = 57.14541 47.25770 34.42450
#
# Poissons Ratio (x) = 0.08712 0.08996
# Poissons Ratio (y) = 0.10535 0.36221
# Poissons Ratio (z) = 0.14934 0.49724
#
# Static dielectric constant tensor:
#      x y z
#    x 1.724580 0.000000 0.009640 
#    y 0.000000 1.717640 0.000000 
#    z 0.009640 0.000000 1.718030 
# 
# From -- ./inp_files/190347.got.cif
#   From: 2010.05.17/outbox.cif.g08.bks.cpg/sg15_96_cif.got.tgz:190347.got - 2010.06.03 18:47:42.
