data_PCOD9266254
_publ_section_title
;
Structure prediction by ZEFSAII (Michael W. Deem and Ramdas Pophale) SiO2 
 PCOD9266254
Probable space group: C 2/C
;
_chemical_formula_sum "Si O2"
_cell_formula_units_Z 64
_cell_length_a 14.983784
_cell_length_b 13.602462
_cell_length_c 14.005751
_cell_angle_alpha 90.000000
_cell_angle_beta 117.543295
_cell_angle_gamma 90.000000
_cell_volume 2531.065346
_symmetry_space_group_name_H-M "C 2/C"
_symmetry_group_IT_number 15
_symmetry_cell_setting 'monoclinic'
loop_
_space_group_symop_operation_xyz
x,y,z
-x,y,1/2-z
-x,-y,-z
x,-y,1/2+z
1/2+x,1/2+y,z
1/2-x,1/2+y,1/2-z
1/2-x,1/2-y,-z
1/2+x,1/2-y,1/2+z
loop_
_atom_site_type_symbol
_atom_site_label
_atom_site_fract_x
_atom_site_fract_y
_atom_site_fract_z
Si Si1 0.523323 0.114848 0.029772
Si Si2 0.394544 0.813729 0.747567
Si Si3 0.324978 0.107484 0.031171
Si Si4 0.900639 0.960670 0.558611
Si Si5 0.876011 0.200568 0.194679
Si Si6 0.136054 0.905357 0.299723
Si Si7 0.626142 0.429987 0.637887
Si Si8 0.594283 0.895832 0.365385
O O1 0.607215 0.131152 0.152452
O O2 0.420899 0.156185 0.024114
O O3 0.554283 0.155095 0.942847
O O4 0.500000 0.000000 0.000000
O O5 0.500000 0.845243 0.750000
O O6 0.312724 0.837990 0.626282
O O7 0.397281 0.697466 0.760042
O O8 0.354346 0.995903 0.075483
O O9 0.237766 0.109470 0.911215
O O10 0.846508 0.877354 0.596559
O O11 0.004386 0.917680 0.568814
O O12 0.930286 0.044642 0.649543
O O13 0.844834 0.020916 0.448280
O O14 0.843338 0.164739 0.283646
O O15 0.842967 0.311528 0.156929
O O16 0.000000 0.199188 0.250000
O O17 0.151453 0.983777 0.224961
O O18 0.500000 0.920806 0.250000
#
# Coordination Sequence:
#
# PCOD9266254 Si02
#       8
#     8   8   8   8   8   8   8   8
#     4   9  19  37  62  87 110 156 209 243 289 362
#     4  10  20  37  62  86 112 154 201 244 295 358
#     4  10  21  38  56  84 125 151 192 255 307 354
#     4   9  18  35  57  81 118 157 199 249 297 355
#     4   8  16  31  55  85 110 143 197 247 287 348
#     4  11  21  36  57  88 119 155 193 251 312 361
#     4   9  18  35  56  81 119 154 202 247 296 360
#     4  10  19  37  62  86 114 159 201 247 297 357
#
# _framework density 25.285795
#
# number of rings (size 3 to 8) (size 9 to 14) (size 15 to 20)
#    0.000    2.500    0.000    4.125    1.750    0.000 
#   18.000    2.500    0.000    0.000    0.000    0.000 
#    0.000    0.000    0.000    0.000    0.000    0.000 
#
# Total GULP energy -178728.330382 kJ/mol
# GULP energy per Si atom -5585.260324 kJ/mol
# Density = 2.522824 g / cm^3
# Si number density = 25.285795 Si / 1000 Ang^3
#
#
#
# Elastic Constant Matrix: (Units=GPa)
#
#
# Indices 1 2 3 4 5 6 
#
# 1 44.8920 -7.4657 23.2608 0.0000 -3.5467 0.0000
# 2 -7.4657 127.2948 21.4430 0.0000 -17.8330 0.0000
# 3 23.2608 21.4430 142.3080 0.0000 -32.9485 0.0000
# 4 0.0000 0.0000 0.0000 33.4272 0.0000 -3.2714
# 5 -3.5467 -17.8330 -32.9485 0.0000 37.5724 0.0000
# 6 0.0000 0.0000 0.0000 -3.2714 0.0000 13.6195
#
#
#
# Elastic Compliance Matrix: (Units=1/GPa)
#
#
# Indices 1 2 3 4 5 6 
#
# 1 0.024936 0.002142 -0.004540 0.000000 -0.000611 0.000000
# 2 0.002142 0.008620 -0.000822 0.000000 0.003573 0.000000
# 3 -0.004540 -0.000822 0.009666 0.000000 0.007658 0.000000
# 4 0.000000 0.000000 0.000000 0.030636 0.000000 0.007359
# 5 -0.000611 0.003573 0.007658 0.000000 0.034969 0.000000
# 6 0.000000 0.000000 0.000000 0.007359 0.000000 0.075192
#
#
# Mechanical properties :
#
#
# Convention : Reuss Voigt Hill
#
# Bulk Modulus (GPa) = 27.18715 43.21898 35.20307
# Shear Modulus (GPa) = 24.66460 35.40760 30.03610
#
# Velocity S-wave (km/s) = 3.12658 3.74611 3.45028
# Velocity P-wave (km/s) = 4.87948 5.98669 5.46122
#
# Compressibility (1/GPa) = 0.03678208
#
# Stress axis : x y z
#
# Youngs Moduli (GPa) = 40.10264 116.00441 103.45625
#
# Poissons Ratio (x) = -0.24844 0.46970
# Poissons Ratio (y) = -0.08589 0.08501
# Poissons Ratio (z) = 0.18207 0.09532
#
# Static dielectric constant tensor:
#      x y z
#    x 2.130710 0.000000 0.042530 
#    y 0.000000 1.993030 0.000000 
#    z 0.042530 0.000000 1.994660 
# 
# From -- ./inp_files/162283.got.cif
#   From: 2010.05.17/outbox.cif.g08.bks.cpg/sg15_82_cif.got.tgz:162283.got - 2010.06.03 18:47:42.
