data_PCOD9266780
_publ_section_title
;
Structure prediction by ZEFSAII (Michael W. Deem and Ramdas Pophale) SiO2 
 PCOD9266780
Probable space group: C 2/C
;
_chemical_formula_sum "Si O2"
_cell_formula_units_Z 64
_cell_length_a 16.685856
_cell_length_b 33.708437
_cell_length_c 8.468496
_cell_angle_alpha 90.000000
_cell_angle_beta 141.607051
_cell_angle_gamma 90.000000
_cell_volume 2958.154760
_symmetry_space_group_name_H-M "C 2/C"
_symmetry_group_IT_number 15
_symmetry_cell_setting 'monoclinic'
loop_
_space_group_symop_operation_xyz
x,y,z
-x,y,1/2-z
-x,-y,-z
x,-y,1/2+z
1/2+x,1/2+y,z
1/2-x,1/2+y,1/2-z
1/2-x,1/2-y,-z
1/2+x,1/2-y,1/2+z
loop_
_atom_site_type_symbol
_atom_site_label
_atom_site_fract_x
_atom_site_fract_y
_atom_site_fract_z
Si Si1 0.884653 0.893359 0.190757
Si Si2 0.466084 0.821311 0.381983
Si Si3 0.248555 0.810782 0.551711
Si Si4 0.776650 0.983758 0.584881
Si Si5 0.425008 0.902544 0.469379
Si Si6 0.340125 0.051347 0.296797
Si Si7 0.351115 0.555915 0.910480
Si Si8 0.859759 0.739455 0.950259
O O1 0.919349 0.909452 0.417832
O O2 0.000000 0.900513 0.250000
O O3 0.840964 0.848087 0.118373
O O4 0.764495 0.918926 0.940391
O O5 0.500000 0.819457 0.250000
O O6 0.606152 0.823174 0.681980
O O7 0.397890 0.861815 0.333994
O O8 0.387053 0.783544 0.329015
O O9 0.195059 0.783747 0.612992
O O10 0.263520 0.785820 0.413263
O O11 0.697786 0.956374 0.581868
O O12 0.871916 0.958850 0.620613
O O13 0.681248 0.009840 0.327905
O O14 0.850877 0.016326 0.803769
O O15 0.500000 0.893790 0.750000
O O16 0.522158 0.929616 0.519359
O O17 0.295901 0.926712 0.306092
O O18 0.000000 0.740263 0.250000
#
# Coordination Sequence:
#
# PCOD9266780 Si02
#       8
#     8   8   8   8   8   8   8   8
#     4  11  21  37  58  83 111 149 202 245 292 338
#     4  11  23  35  55  89 121 154 188 233 299 347
#     4  10  19  38  61  83 115 148 197 240 280 346
#     4   9  20  37  54  81 116 145 195 235 298 351
#     4  12  20  35  57  79 120 149 191 237 290 349
#     4  10  21  36  55  83 111 154 187 242 290 348
#     4  10  21  35  55  81 111 152 188 243 290 351
#     4   9  19  36  62  88 113 150 193 234 284 348
#
# _framework density 21.635109
#
# number of rings (size 3 to 8) (size 9 to 14) (size 15 to 20)
#    0.000    1.750    3.750    2.250    1.750    3.500 
#    0.000   10.625    0.000    1.500    0.000    0.000 
#    0.000    0.000    0.000    0.000    0.000    0.000 
#
# Total GULP energy -178806.760919 kJ/mol
# GULP energy per Si atom -5587.711279 kJ/mol
# Density = 2.158587 g / cm^3
# Si number density = 21.635109 Si / 1000 Ang^3
#
#
#
# Elastic Constant Matrix: (Units=GPa)
#
#
# Indices 1 2 3 4 5 6 
#
# 1 144.7765 58.0209 15.2591 0.0000 -16.5412 0.0000
# 2 58.0209 117.3465 20.2190 0.0000 -8.7841 0.0000
# 3 15.2591 20.2190 31.4732 0.0000 -5.9868 0.0000
# 4 0.0000 0.0000 0.0000 14.1149 0.0000 3.3845
# 5 -16.5412 -8.7841 -5.9868 0.0000 36.5007 0.0000
# 6 0.0000 0.0000 0.0000 3.3845 0.0000 39.3277
#
#
#
# Elastic Compliance Matrix: (Units=1/GPa)
#
#
# Indices 1 2 3 4 5 6 
#
# 1 0.008974 -0.004009 -0.001223 0.000000 0.002901 0.000000
# 2 -0.004009 0.011437 -0.005394 0.000000 0.000051 0.000000
# 3 -0.001223 -0.005394 0.036622 0.000000 0.004154 0.000000
# 4 0.000000 0.000000 0.000000 0.072340 0.000000 -0.006226
# 5 0.002901 0.000051 0.004154 0.000000 0.029405 0.000000
# 6 0.000000 0.000000 0.000000 -0.006226 0.000000 0.025963
#
#
# Mechanical properties :
#
#
# Convention : Reuss Voigt Hill
#
# Bulk Modulus (GPa) = 27.94882 53.39937 40.67410
# Shear Modulus (GPa) = 22.94398 31.32847 27.13623
#
# Velocity S-wave (km/s) = 3.26006 3.80944 3.54541
# Velocity P-wave (km/s) = 5.20740 6.63962 5.96664
#
# Compressibility (1/GPa) = 0.03577969
#
# Stress axis : x y z
#
# Youngs Moduli (GPa) = 111.42762 87.43273 27.30621
#
# Poissons Ratio (x) = 0.35055 0.03341
# Poissons Ratio (y) = 0.44675 0.14729
# Poissons Ratio (z) = 0.13633 0.47162
#
# Static dielectric constant tensor:
#      x y z
#    x 1.796970 0.000000 -0.018140 
#    y 0.000000 1.798310 0.000000 
#    z -0.018140 0.000000 1.842970 
# 
# From -- ./inp_files/44873.got.cif
#   From: 2010.05.17/outbox.cif.g08.bks.cpg/sg15_23_cif.got.tgz:44873.got - 2010.06.03 18:47:42.
