data_PCOD9266387
_publ_section_title
;
Structure prediction by ZEFSAII (Michael W. Deem and Ramdas Pophale) SiO2 
 PCOD9266387
Probable space group: C 2/C
;
_chemical_formula_sum "Si O2"
_cell_formula_units_Z 64
_cell_length_a 19.710897
_cell_length_b 29.224867
_cell_length_c 14.090123
_cell_angle_alpha 90.000000
_cell_angle_beta 158.758004
_cell_angle_gamma 90.000000
_cell_volume 2940.704894
_symmetry_space_group_name_H-M "C 2/C"
_symmetry_group_IT_number 15
_symmetry_cell_setting 'monoclinic'
loop_
_space_group_symop_operation_xyz
x,y,z
-x,y,1/2-z
-x,-y,-z
x,-y,1/2+z
1/2+x,1/2+y,z
1/2-x,1/2+y,1/2-z
1/2-x,1/2-y,-z
1/2+x,1/2-y,1/2+z
loop_
_atom_site_type_symbol
_atom_site_label
_atom_site_fract_x
_atom_site_fract_y
_atom_site_fract_z
Si Si1 0.183674 0.106001 0.930521
Si Si2 0.518596 0.944887 0.545115
Si Si3 0.704280 0.346872 0.842551
Si Si4 0.200074 0.543937 0.572206
Si Si5 0.828344 0.441085 0.955445
Si Si6 0.717243 0.794594 0.020733
Si Si7 0.837230 0.207294 0.894265
Si Si8 0.518198 0.195973 0.637912
O O1 0.165644 0.075295 0.813129
O O2 0.222332 0.157853 0.948908
O O3 0.000000 0.107216 0.750000
O O4 0.327359 0.078183 0.185405
O O5 0.336526 0.935494 0.371314
O O6 0.572585 0.926759 0.513432
O O7 0.500000 0.000000 0.500000
O O8 0.497245 0.331049 0.599531
O O9 0.701483 0.401051 0.828417
O O10 0.840895 0.327806 0.103614
O O11 0.814051 0.328757 0.889564
O O12 0.259439 0.491484 0.662272
O O13 0.000000 0.544124 0.250000
O O14 0.000000 0.445332 0.250000
O O15 0.792588 0.786177 0.224776
O O16 0.500000 0.800796 0.750000
O O17 0.750000 0.750000 0.000000
O O18 0.648467 0.198415 0.711316
O O19 0.953492 0.252365 0.077549
#
# Coordination Sequence:
#
# PCOD9266387 Si02
#       8
#     8   8   8   8   8   8   8   8
#     4  11  24  44  71 101 141 183 235 291 353 431
#     4   9  19  38  71  98 127 183 232 280 353 423
#     4  11  24  39  66 103 142 182 231 293 350 424
#     4   8  17  38  68  94 128 175 223 274 336 421
#     4  10  19  37  64 101 138 173 224 284 349 419
#     4  12  28  49  70 103 138 181 236 304 363 424
#     4  12  25  43  71  95 135 185 237 288 356 435
#     4  11  23  41  67  98 135 185 232 290 356 428
#
# _framework density 21.763487999999999
#
# number of rings (size 3 to 8) (size 9 to 14) (size 15 to 20)
#    0.000    1.500    2.500    3.750    3.500    3.000 
#    0.000    3.750    2.750    0.000    0.000    0.000 
#    0.000    0.000    0.000    0.000    0.000    0.000 
#
# Total GULP energy -178222.998899 kJ/mol
# GULP energy per Si atom -5569.468716 kJ/mol
# Density = 2.171395 g / cm^3
# Si number density = 21.763488 Si / 1000 Ang^3
#
#
#
# Elastic Constant Matrix: (Units=GPa)
#
#
# Indices 1 2 3 4 5 6 
#
# 1 166.9423 72.9373 35.2436 -0.0001 12.3746 0.0001
# 2 72.9373 135.1578 24.2364 0.0000 21.4435 0.0000
# 3 35.2436 24.2364 29.9130 -0.0002 8.9560 0.0004
# 4 -0.0001 0.0000 -0.0002 -1.8046 -0.0001 13.8333
# 5 12.3746 21.4435 8.9560 -0.0001 50.0303 0.0001
# 6 0.0001 0.0000 0.0004 13.8333 0.0001 73.1994
#
#
#
# Elastic Compliance Matrix: (Units=1/GPa)
#
#
# Indices 1 2 3 4 5 6 
#
# 1 0.009253 -0.003645 -0.008168 0.000000 0.000736 0.000000
# 2 -0.003645 0.010423 -0.003257 0.000000 -0.002983 0.000000
# 3 -0.008168 -0.003257 0.047200 -0.000003 -0.005033 0.000000
# 4 0.000000 0.000000 -0.000003 -0.226306 0.000000 0.042768
# 5 0.000736 -0.002983 -0.005033 0.000000 0.021985 0.000000
# 6 0.000000 0.000000 0.000000 0.042768 0.000000 0.005579
#
#
# Mechanical properties :
#
#
# Convention : Reuss Voigt Hill
#
# Bulk Modulus (GPa) = 27.22255 66.31639 46.76947
# Shear Modulus (GPa) = -55.87922 37.59140 -9.14391
#
# Velocity S-wave (km/s) = -5.07261 4.16055 -2.05198
# Velocity P-wave (km/s) = 4.66616 7.32242 3.99029
#
# Compressibility (1/GPa) = 0.03673425
#
# Stress axis : x y z
#
# Youngs Moduli (GPa) = 108.07850 95.93992 21.18631
#
# Poissons Ratio (x) = 0.34971 0.17306
# Poissons Ratio (y) = 0.39396 0.06901
# Poissons Ratio (z) = 0.88282 0.31252
#
# Static dielectric constant tensor:
#      x y z
#    x 1.789600 0.000000 0.007660 
#    y 0.000000 1.804070 0.000000 
#    z 0.007660 0.000000 1.806420 
# 
# From -- ./inp_files/170111.got.cif
#   From: 2010.05.17/outbox.cif.g08.bks.cpg/sg15_86_cif.got.tgz:170111.got - 2010.06.03 18:47:42.
