data_PCOD9266984
_publ_section_title
;
Structure prediction by ZEFSAII (Michael W. Deem and Ramdas Pophale) SiO2 
 PCOD9266984
Probable space group: C 2/C
;
_chemical_formula_sum "Si O2"
_cell_formula_units_Z 56
_cell_length_a 23.284358
_cell_length_b 14.529315
_cell_length_c 9.266257
_cell_angle_alpha 90.000000
_cell_angle_beta 124.627168
_cell_angle_gamma 90.000000
_cell_volume 2579.546765
_symmetry_space_group_name_H-M "C 2/C"
_symmetry_group_IT_number 15
_symmetry_cell_setting 'monoclinic'
loop_
_space_group_symop_operation_xyz
x,y,z
-x,y,1/2-z
-x,-y,-z
x,-y,1/2+z
1/2+x,1/2+y,z
1/2-x,1/2+y,1/2-z
1/2-x,1/2-y,-z
1/2+x,1/2-y,1/2+z
loop_
_atom_site_type_symbol
_atom_site_label
_atom_site_fract_x
_atom_site_fract_y
_atom_site_fract_z
Si Si1 0.081473 0.962849 0.323831
Si Si2 0.328267 0.197840 0.246750
Si Si3 0.829159 0.204688 0.441680
Si Si4 0.500000 0.124793 0.250000
Si Si5 0.919957 0.472846 0.844683
Si Si6 0.104811 0.878074 0.049522
Si Si7 0.908706 0.327029 0.357844
Si Si8 0.000000 0.756083 0.750000
O O1 0.116849 0.877058 0.454716
O O2 0.093871 0.941817 0.173515
O O3 0.000000 0.967689 0.250000
O O4 0.116839 0.056482 0.430441
O O5 0.249577 0.168268 0.166254
O O6 0.382359 0.115721 0.359610
O O7 0.341577 0.295556 0.343771
O O8 0.335404 0.225183 0.087340
O O9 0.849892 0.258122 0.327297
O O10 0.564786 0.060926 0.295900
O O11 0.529758 0.179408 0.430107
O O12 0.881266 0.568578 0.808331
O O13 0.000000 0.500000 0.000000
O O14 0.034439 0.821926 0.917373
O O15 0.943431 0.302661 0.255385
#
# Coordination Sequence:
#
# PCOD9266984 Si02
#       8
#     8   8   8   4   8   8   8   4
#     4  11  23  40  69  98 127 178 230 286 338 408
#     4  10  22  45  65  98 136 181 228 287 340 427
#     4  10  23  41  70  93 134 188 230 271 356 417
#     4  10  19  38  63  96 126 176 229 284 347 402
#     4  10  20  35  64 100 137 170 225 291 351 402
#     4  11  24  41  66  96 137 168 227 287 343 403
#     4  11  23  38  66  99 136 180 225 287 351 415
#     4  12  25  40  65 108 144 174 225 302 353 406
#
# _framework density 21.709239
#
# number of rings (size 3 to 8) (size 9 to 14) (size 15 to 20)
#    0.000    1.429    2.143    3.429    5.000    2.286 
#    0.000    0.714    0.000    0.000    0.000    0.000 
#    0.000    0.000    0.000    0.000    0.000    0.000 
#
# Total GULP energy -156280.594145 kJ/mol
# GULP energy per Si atom -5581.449791 kJ/mol
# Density = 2.165983 g / cm^3
# Si number density = 21.709239 Si / 1000 Ang^3
#
#
#
# Elastic Constant Matrix: (Units=GPa)
#
#
# Indices 1 2 3 4 5 6 
#
# 1 71.1621 47.7648 25.4442 0.0000 -0.5116 0.0000
# 2 47.7648 111.2158 36.2324 0.0000 -6.8623 0.0000
# 3 25.4442 36.2324 64.0160 0.0000 -10.1752 0.0000
# 4 0.0000 0.0000 0.0000 26.3311 0.0000 -5.0223
# 5 -0.5116 -6.8623 -10.1752 0.0000 26.1660 0.0000
# 6 0.0000 0.0000 0.0000 -5.0223 0.0000 20.6052
#
#
#
# Elastic Compliance Matrix: (Units=1/GPa)
#
#
# Indices 1 2 3 4 5 6 
#
# 1 0.020771 -0.007680 -0.004439 0.000000 -0.003334 0.000000
# 2 -0.007680 0.013870 -0.004523 0.000000 0.001729 0.000000
# 3 -0.004439 -0.004523 0.021044 0.000000 0.006910 0.000000
# 4 0.000000 0.000000 0.000000 0.039830 0.000000 0.009708
# 5 -0.003334 0.001729 0.006910 0.000000 0.041293 0.000000
# 6 0.000000 0.000000 0.000000 0.009708 0.000000 0.050898
#
#
# Mechanical properties :
#
#
# Convention : Reuss Voigt Hill
#
# Bulk Modulus (GPa) = 44.64147 51.69742 48.16945
# Shear Modulus (GPa) = 21.88614 23.75062 22.81838
#
# Velocity S-wave (km/s) = 3.17858 3.31121 3.24557
# Velocity P-wave (km/s) = 5.83774 6.20355 6.02342
#
# Compressibility (1/GPa) = 0.02240070
#
# Stress axis : x y z
#
# Youngs Moduli (GPa) = 48.14519 72.09707 47.52021
#
# Poissons Ratio (x) = 0.55372 0.21093
# Poissons Ratio (y) = 0.36976 0.21493
# Poissons Ratio (z) = 0.21370 0.32610
#
# Static dielectric constant tensor:
#      x y z
#    x 1.769590 0.000000 -0.004820 
#    y 0.000000 1.830490 0.000000 
#    z -0.004820 0.000000 1.871000 
# 
# From -- ./inp_files/62026.got.cif
#   From: 2010.05.17/outbox.cif.g08.bks.cpg/sg15_32_cif.got.tgz:62026.got - 2010.06.03 18:47:42.
