data_PCOD9266386
_publ_section_title
;
Structure prediction by ZEFSAII (Michael W. Deem and Ramdas Pophale) SiO2 
 PCOD9266386
Probable space group: C 2/C
;
_chemical_formula_sum "Si O2"
_cell_formula_units_Z 60
_cell_length_a 18.055237
_cell_length_b 14.094284
_cell_length_c 10.290047
_cell_angle_alpha 90.000000
_cell_angle_beta 68.531183
_cell_angle_gamma 90.000000
_cell_volume 2436.882021
_symmetry_space_group_name_H-M "C 2/C"
_symmetry_group_IT_number 15
_symmetry_cell_setting 'monoclinic'
loop_
_space_group_symop_operation_xyz
x,y,z
-x,y,1/2-z
-x,-y,-z
x,-y,1/2+z
1/2+x,1/2+y,z
1/2-x,1/2+y,1/2-z
1/2-x,1/2-y,-z
1/2+x,1/2-y,1/2+z
loop_
_atom_site_type_symbol
_atom_site_label
_atom_site_fract_x
_atom_site_fract_y
_atom_site_fract_z
Si Si1 0.266693 0.571838 0.860160
Si Si2 0.174640 0.405414 0.194545
Si Si3 0.500000 0.768780 0.750000
Si Si4 0.343153 0.115524 0.075020
Si Si5 0.486227 0.140325 0.611044
Si Si6 0.839647 0.629486 0.357381
Si Si7 0.485154 0.656434 0.505817
Si Si8 0.074447 0.008952 0.603591
O O1 0.256526 0.606962 0.719504
O O2 0.213453 0.475836 0.889221
O O3 0.350931 0.541000 0.861032
O O4 0.227144 0.641696 0.991082
O O5 0.106204 0.382579 0.344117
O O6 0.158591 0.515268 0.166158
O O7 0.167881 0.345887 0.065153
O O8 0.574400 0.831248 0.655589
O O9 0.466159 0.703393 0.657038
O O10 0.322320 0.167928 0.222769
O O11 0.439728 0.098995 0.019148
O O12 0.500000 0.107836 0.750000
O O13 0.493197 0.253473 0.594045
O O14 0.556291 0.585334 0.501475
O O15 0.422437 0.591655 0.471069
O O16 0.000000 0.003378 0.750000
#
# Coordination Sequence:
#
# PCOD9266386 Si02
#       8
#     8   8   4   8   8   8   8   8
#     4  10  22  40  66 102 132 176 234 283 352 416
#     4   9  20  35  61 102 143 186 221 267 337 432
#     4  12  22  40  68 106 144 174 224 286 350 424
#     4   9  19  34  59  93 139 181 216 268 329 416
#     4  10  19  37  63  99 143 181 226 273 339 415
#     4  10  21  35  65 102 146 181 210 274 351 427
#     4  11  24  43  69  98 127 178 242 299 347 408
#     4  11  26  49  75  88 122 185 250 305 352 404
#
# _framework density 24.621625999999999
#
# number of rings (size 3 to 8) (size 9 to 14) (size 15 to 20)
#    0.000    1.867    2.000    1.200    4.667    7.467 
#    0.000    3.333    2.933    0.000    0.000    0.000 
#    0.000    0.000    0.000    0.000    0.000    0.000 
#
# Total GULP energy -167411.453129 kJ/mol
# GULP energy per Si atom -5580.381771 kJ/mol
# Density = 2.456559 g / cm^3
# Si number density = 24.621626 Si / 1000 Ang^3
#
#
#
# Elastic Constant Matrix: (Units=GPa)
#
#
# Indices 1 2 3 4 5 6 
#
# 1 164.3318 30.5856 56.2976 0.0000 12.5388 0.0000
# 2 30.5856 70.7459 8.2802 0.0000 -4.0368 0.0000
# 3 56.2976 8.2802 98.8188 0.0000 16.8682 0.0000
# 4 0.0000 0.0000 0.0000 21.1667 0.0000 9.9236
# 5 12.5388 -4.0368 16.8682 0.0000 34.5428 0.0000
# 6 0.0000 0.0000 0.0000 9.9236 0.0000 -59.3669
#
#
#
# Elastic Compliance Matrix: (Units=1/GPa)
#
#
# Indices 1 2 3 4 5 6 
#
# 1 0.008202 -0.003130 -0.004189 0.000000 -0.001297 0.000000
# 2 -0.003130 0.015663 -0.000039 0.000000 0.002986 0.000000
# 3 -0.004189 -0.000039 0.013365 0.000000 -0.005010 0.000000
# 4 0.000000 0.000000 0.000000 0.043811 0.000000 0.007323
# 5 -0.001297 0.002986 -0.005010 0.000000 0.032216 0.000000
# 6 0.000000 0.000000 0.000000 0.007323 0.000000 -0.015620
#
#
# Mechanical properties :
#
#
# Convention : Reuss Voigt Hill
#
# Bulk Modulus (GPa) = 44.41666 58.24703 51.33185
# Shear Modulus (GPa) = 41.71682 15.18407 28.45044
#
# Velocity S-wave (km/s) = 4.12067 2.48603 3.40296
# Velocity P-wave (km/s) = 6.38113 5.65232 6.02775
#
# Compressibility (1/GPa) = 0.02251408
#
# Stress axis : x y z
#
# Youngs Moduli (GPa) = 121.92454 63.84445 74.82504
#
# Poissons Ratio (x) = 0.19981 0.31344
# Poissons Ratio (y) = 0.38158 0.00293
# Poissons Ratio (z) = 0.51073 0.00250
#
# Static dielectric constant tensor:
#      x y z
#    x 2.013640 0.000000 0.018520 
#    y 0.000000 1.955060 0.000000 
#    z 0.018520 0.000000 2.076560 
# 
# From -- ./inp_files/105713.got.cif
#   From: 2010.05.17/outbox.cif.g08.bks.cpg/sg15_53_cif.got.tgz:105713.got - 2010.06.03 18:47:42.
