data_PCOD9266389
_publ_section_title
;
Structure prediction by ZEFSAII (Michael W. Deem and Ramdas Pophale) SiO2 
 PCOD9266389
Probable space group: C 2/C
;
_chemical_formula_sum "Si O2"
_cell_formula_units_Z 56
_cell_length_a 21.954097
_cell_length_b 9.660078
_cell_length_c 17.968621
_cell_angle_alpha 90.000000
_cell_angle_beta 56.297993
_cell_angle_gamma 90.000000
_cell_volume 3170.298770
_symmetry_space_group_name_H-M "C 2/C"
_symmetry_group_IT_number 15
_symmetry_cell_setting 'monoclinic'
loop_
_space_group_symop_operation_xyz
x,y,z
-x,y,1/2-z
-x,-y,-z
x,-y,1/2+z
1/2+x,1/2+y,z
1/2-x,1/2+y,1/2-z
1/2-x,1/2-y,-z
1/2+x,1/2-y,1/2+z
loop_
_atom_site_type_symbol
_atom_site_label
_atom_site_fract_x
_atom_site_fract_y
_atom_site_fract_z
Si Si1 0.508814 0.182594 0.440345
Si Si2 0.716079 0.219495 0.441938
Si Si3 0.570572 0.387649 0.509537
Si Si4 0.654109 0.511012 0.813367
Si Si5 0.870777 0.520877 0.580644
Si Si6 0.224122 0.722765 0.752745
Si Si7 0.021863 0.927960 0.319447
O O1 0.514084 0.280539 0.510016
O O2 0.431599 0.103465 0.491147
O O3 0.520895 0.280808 0.361930
O O4 0.577839 0.081661 0.405878
O O5 0.750000 0.250000 0.500000
O O6 0.640898 0.305593 0.490215
O O7 0.771519 0.275316 0.340279
O O8 0.687225 0.068032 0.430306
O O9 0.601137 0.479805 0.420671
O O10 0.534822 0.476865 0.597503
O O11 0.698009 0.654877 0.779650
O O12 0.707760 0.381262 0.785013
O O13 0.601374 0.503268 0.778294
O O14 0.831773 0.626153 0.664007
O O15 0.000000 0.915260 0.250000
#
# Coordination Sequence:
#
# PCOD9266389 Si02
#       7
#     8   8   8   8   8   8   8
#     4   9  19  38  59  83 108 153 200 238 279 343
#     4  10  22  37  54  88 123 148 190 246 294 343
#     4   9  19  37  58  79 112 153 195 233 282 344
#     4  10  21  36  60  86 112 151 202 237 278 350
#     4  10  19  37  64  79 111 156 199 238 286 346
#     4  11  20  36  62  87 111 156 199 238 281 350
#     4  11  22  35  56  86 121 149 188 242 295 348
#
# _framework density 17.663951000000001
#
# number of rings (size 3 to 8) (size 9 to 14) (size 15 to 20)
#    0.000    2.000    1.429    4.286    2.000    0.000 
#    2.571    0.000    0.000    4.286    0.000    0.000 
#    0.000    0.000    0.000    0.000    0.000    0.000 
#
# Total GULP energy -155951.740815 kJ/mol
# GULP energy per Si atom -5569.705029 kJ/mol
# Density = 1.762375 g / cm^3
# Si number density = 17.663951 Si / 1000 Ang^3
#
#
#
# Elastic Constant Matrix: (Units=GPa)
#
#
# Indices 1 2 3 4 5 6 
#
# 1 94.0135 41.6855 42.8030 0.0000 16.3722 0.0000
# 2 41.6855 90.4554 32.2817 0.0000 -0.4651 0.0000
# 3 42.8030 32.2817 61.3222 0.0000 9.2039 0.0000
# 4 0.0000 0.0000 0.0000 30.1645 0.0000 -13.1498
# 5 16.3722 -0.4651 9.2039 0.0000 29.5160 0.0000
# 6 0.0000 0.0000 0.0000 -13.1498 0.0000 24.4594
#
#
#
# Elastic Compliance Matrix: (Units=1/GPa)
#
#
# Indices 1 2 3 4 5 6 
#
# 1 0.018343 -0.005324 -0.008877 0.000000 -0.007491 0.000000
# 2 -0.005324 0.015346 -0.005080 0.000000 0.004779 0.000000
# 3 -0.008877 -0.005080 0.025651 0.000000 -0.003155 0.000000
# 4 0.000000 0.000000 0.000000 0.043300 0.000000 0.023279
# 5 -0.007491 0.004779 -0.003155 0.000000 0.039094 0.000000
# 6 0.000000 0.000000 0.000000 0.023279 0.000000 0.053399
#
#
# Mechanical properties :
#
#
# Convention : Reuss Voigt Hill
#
# Bulk Modulus (GPa) = 48.12437 53.25908 50.69172
# Shear Modulus (GPa) = 20.77959 25.42936 23.10447
#
# Velocity S-wave (km/s) = 3.43357 3.79835 3.62055
# Velocity P-wave (km/s) = 6.55917 7.03231 6.79985
#
# Compressibility (1/GPa) = 0.02077949
#
# Stress axis : x y z
#
# Youngs Moduli (GPa) = 54.51564 65.16316 38.98494
#
# Poissons Ratio (x) = 0.34693 0.34606
# Poissons Ratio (y) = 0.29024 0.19803
# Poissons Ratio (z) = 0.48392 0.33101
#
# Static dielectric constant tensor:
#      x y z
#    x 1.611140 0.000000 -0.031500 
#    y 0.000000 1.644060 0.000000 
#    z -0.031500 0.000000 1.600240 
# 
# From -- ./inp_files/213800.got.cif
#   From: 2010.05.17/outbox.cif.g08.bks.cpg/sg15_107_cif.got.tgz:213800.got - 2010.06.03 18:47:42.
