data_PCOD9266009
_publ_section_title
;
Structure prediction by ZEFSAII (Michael W. Deem and Ramdas Pophale) SiO2 
 PCOD9266009
Probable space group: C 2/C
;
_chemical_formula_sum "Si O2"
_cell_formula_units_Z 48
_cell_length_a 18.193684
_cell_length_b 9.002411
_cell_length_c 16.042731
_cell_angle_alpha 90.000000
_cell_angle_beta 57.276056
_cell_angle_gamma 90.000000
_cell_volume 2210.552840
_symmetry_space_group_name_H-M "C 2/C"
_symmetry_group_IT_number 15
_symmetry_cell_setting 'monoclinic'
loop_
_space_group_symop_operation_xyz
x,y,z
-x,y,1/2-z
-x,-y,-z
x,-y,1/2+z
1/2+x,1/2+y,z
1/2-x,1/2+y,1/2-z
1/2-x,1/2-y,-z
1/2+x,1/2-y,1/2+z
loop_
_atom_site_type_symbol
_atom_site_label
_atom_site_fract_x
_atom_site_fract_y
_atom_site_fract_z
Si Si1 0.186443 0.194114 0.347289
Si Si2 0.589249 0.063569 0.840168
Si Si3 0.389259 0.886919 0.509137
Si Si4 0.154446 0.314575 0.539992
Si Si5 0.891616 0.721280 0.256580
Si Si6 0.414348 0.406889 0.081937
O O1 0.147991 0.291535 0.295765
O O2 0.132783 0.250138 0.462246
O O3 0.287240 0.226067 0.301565
O O4 0.162330 0.023944 0.352325
O O5 0.492009 0.103679 0.926691
O O6 0.583454 0.950777 0.768722
O O7 0.629783 0.964125 0.890080
O O8 0.378916 0.711701 0.534724
O O9 0.346474 0.005120 0.470466
O O10 0.250000 0.250000 0.500000
O O11 0.097518 0.252003 0.651608
O O12 0.932311 0.819112 0.157577
O O13 0.500000 0.500000 0.000000
#
# Coordination Sequence:
#
# PCOD9266009 Si02
#       6
#     8   8   8   8   8   8
#     4  10  19  37  59  85 120 155 204 258 312 368
#     4   9  17  32  55  80 107 149 203 243 294 366
#     4   9  18  34  56  80 111 152 195 249 307 364
#     4   9  20  38  58  83 119 160 203 253 314 374
#     4  10  21  35  57  87 115 162 205 245 306 381
#     4  11  21  37  61  90 122 156 204 264 310 364
#
# _framework density 21.714023999999998
#
# number of rings (size 3 to 8) (size 9 to 14) (size 15 to 20)
#    0.000    2.333    1.667    1.000    2.333    2.000 
#    0.000    5.000    3.667    0.000    0.000    0.000 
#    0.000    0.000    0.000    0.000    0.000    0.000 
#
# Total GULP energy -133664.529163 kJ/mol
# GULP energy per Si atom -5569.355382 kJ/mol
# Density = 2.166460 g / cm^3
# Si number density = 21.714024 Si / 1000 Ang^3
#
#
#
# Elastic Constant Matrix: (Units=GPa)
#
#
# Indices 1 2 3 4 5 6 
#
# 1 68.3711 39.3958 11.9938 0.0000 -3.1132 0.0000
# 2 39.3958 141.6411 22.7691 0.0000 -2.2611 0.0000
# 3 11.9938 22.7691 96.5526 0.0000 7.4349 0.0000
# 4 0.0000 0.0000 0.0000 34.2639 0.0000 -2.7410
# 5 -3.1132 -2.2611 7.4349 0.0000 23.4519 0.0000
# 6 0.0000 0.0000 0.0000 -2.7410 0.0000 36.8887
#
#
#
# Elastic Compliance Matrix: (Units=1/GPa)
#
#
# Indices 1 2 3 4 5 6 
#
# 1 0.017642 -0.004666 -0.001268 0.000000 0.002294 0.000000
# 2 -0.004666 0.008611 -0.001504 0.000000 0.000688 0.000000
# 3 -0.001268 -0.001504 0.011166 0.000000 -0.003853 0.000000
# 4 0.000000 0.000000 0.000000 0.029360 0.000000 0.002182
# 5 0.002294 0.000688 -0.003853 0.000000 0.044233 0.000000
# 6 0.000000 0.000000 0.000000 0.002182 0.000000 0.027271
#
#
# Mechanical properties :
#
#
# Convention : Reuss Voigt Hill
#
# Bulk Modulus (GPa) = 44.36083 50.54245 47.45164
# Shear Modulus (GPa) = 31.11936 34.41464 32.76700
#
# Velocity S-wave (km/s) = 3.78980 3.98540 3.88883
# Velocity P-wave (km/s) = 6.29476 6.67120 6.48571
#
# Compressibility (1/GPa) = 0.02254241
#
# Stress axis : x y z
#
# Youngs Moduli (GPa) = 56.68383 116.13407 89.55866
#
# Poissons Ratio (x) = 0.54193 0.11353
# Poissons Ratio (y) = 0.26451 0.13468
# Poissons Ratio (z) = 0.07186 0.17465
#
# Static dielectric constant tensor:
#      x y z
#    x 1.803440 0.000000 -0.006400 
#    y 0.000000 1.846930 0.000000 
#    z -0.006400 0.000000 1.877740 
# 
# From -- ./inp_files/218124.got.cif
#   From: 2010.05.17/outbox.cif.g08.bks.cpg/sg15_110_cif.got.tgz:218124.got - 2010.06.03 18:47:42.
