data_PCOD9266477
_publ_section_title
;
Structure prediction by ZEFSAII (Michael W. Deem and Ramdas Pophale) SiO2 
 PCOD9266477
Probable space group: C 2/C
;
_chemical_formula_sum "Si O2"
_cell_formula_units_Z 52
_cell_length_a 10.959574
_cell_length_b 8.237628
_cell_length_c 26.697681
_cell_angle_alpha 90.000000
_cell_angle_beta 70.522180
_cell_angle_gamma 90.000000
_cell_volume 2272.351121
_symmetry_space_group_name_H-M "C 2/C"
_symmetry_group_IT_number 15
_symmetry_cell_setting 'monoclinic'
loop_
_space_group_symop_operation_xyz
x,y,z
-x,y,1/2-z
-x,-y,-z
x,-y,1/2+z
1/2+x,1/2+y,z
1/2-x,1/2+y,1/2-z
1/2-x,1/2-y,-z
1/2+x,1/2-y,1/2+z
loop_
_atom_site_type_symbol
_atom_site_label
_atom_site_fract_x
_atom_site_fract_y
_atom_site_fract_z
Si Si1 0.341295 0.313023 0.533312
Si Si2 0.580514 0.000607 0.937023
Si Si3 0.500000 0.121089 0.250000
Si Si4 0.143522 0.797678 0.705476
Si Si5 0.993188 0.390108 0.347867
Si Si6 0.346079 0.315333 0.031182
Si Si7 0.757906 0.148875 0.780796
O O1 0.250000 0.250000 0.500000
O O2 0.499227 0.324448 0.504408
O O3 0.307075 0.500006 0.550396
O O4 0.328940 0.159645 0.572331
O O5 0.490352 0.023706 0.901306
O O6 0.650262 0.827769 0.928153
O O7 0.500000 0.000000 0.000000
O O8 0.504652 0.015702 0.300062
O O9 0.623122 0.234895 0.227538
O O10 0.210644 0.969599 0.704126
O O11 0.222967 0.664957 0.726651
O O12 0.000000 0.812956 0.750000
O O13 0.117094 0.732730 0.653726
O O14 0.128757 0.293677 0.326247
O O15 0.250000 0.250000 0.000000
#
# Coordination Sequence:
#
# PCOD9266477 Si02
#       7
#     8   8   4   8   8   8   8
#     4  10  20  39  66  91 128 172 220 277 329 387
#     4  10  23  46  66  95 139 179 220 275 333 392
#     4  12  22  40  68  96 132 166 218 272 332 394
#     4  10  19  37  65  90 130 164 206 266 329 388
#     4  11  23  44  64  96 134 170 217 277 323 395
#     4  10  20  39  66  93 122 175 225 273 327 388
#     4  11  20  39  66  97 126 169 211 267 332 394
#
# _framework density 22.883787999999999
#
# number of rings (size 3 to 8) (size 9 to 14) (size 15 to 20)
#    0.000    1.538    6.154    0.000    0.000    0.000 
#   13.846    0.000    0.000    0.000    0.000    0.000 
#    0.000    0.000    0.000    0.000    0.000    0.000 
#
# Total GULP energy -144938.259347 kJ/mol
# GULP energy per Si atom -5574.548436 kJ/mol
# Density = 2.283170 g / cm^3
# Si number density = 22.883788 Si / 1000 Ang^3
#
#
#
# Elastic Constant Matrix: (Units=GPa)
#
#
# Indices 1 2 3 4 5 6 
#
# 1 135.4421 30.4939 26.9328 0.0000 10.8779 0.0000
# 2 30.4939 183.6428 14.5202 0.0000 12.0974 0.0000
# 3 26.9328 14.5202 83.3692 0.0000 14.9512 0.0000
# 4 0.0000 0.0000 0.0000 12.9027 0.0000 17.9145
# 5 10.8779 12.0974 14.9512 0.0000 31.5860 0.0000
# 6 0.0000 0.0000 0.0000 17.9145 0.0000 39.2141
#
#
#
# Elastic Compliance Matrix: (Units=1/GPa)
#
#
# Indices 1 2 3 4 5 6 
#
# 1 0.008177 -0.001094 -0.002209 0.000000 -0.001352 0.000000
# 2 -0.001094 0.005765 -0.000352 0.000000 -0.001664 0.000000
# 3 -0.002209 -0.000352 0.013779 0.000000 -0.005627 0.000000
# 4 0.000000 0.000000 0.000000 0.211925 0.000000 -0.096815
# 5 -0.001352 -0.001664 -0.005627 0.000000 0.035426 0.000000
# 6 0.000000 0.000000 0.000000 -0.096815 0.000000 0.069730
#
#
# Mechanical properties :
#
#
# Convention : Reuss Voigt Hill
#
# Bulk Modulus (GPa) = 48.99393 60.70533 54.84963
# Shear Modulus (GPa) = 13.93088 38.77435 26.35262
#
# Velocity S-wave (km/s) = 2.47000 4.12078 3.39718
# Velocity P-wave (km/s) = 5.43975 7.01615 6.27763
#
# Compressibility (1/GPa) = 0.02041069
#
# Stress axis : x y z
#
# Youngs Moduli (GPa) = 122.28914 173.47519 72.57539
#
# Poissons Ratio (x) = 0.18981 0.16030
# Poissons Ratio (y) = 0.13381 0.02555
# Poissons Ratio (z) = 0.27011 0.06107
#
# Static dielectric constant tensor:
#      x y z
#    x 1.947440 0.000000 -0.041690 
#    y 0.000000 1.903910 0.000000 
#    z -0.041690 0.000000 1.920140 
# 
# From -- ./inp_files/309697.got.cif
#   From: 2010.05.17/outbox.cif.g08.bks.cpg/sg15_155_cif.got.tgz:309697.got - 2010.06.03 18:47:42.
