data_PCOD9266490
_publ_section_title
;
Structure prediction by ZEFSAII (Michael W. Deem and Ramdas Pophale) SiO2 
 PCOD9266490
Probable space group: C 2/C
;
_chemical_formula_sum "Si O2"
_cell_formula_units_Z 60
_cell_length_a 23.296707
_cell_length_b 14.714117
_cell_length_c 25.789062
_cell_angle_alpha 90.000000
_cell_angle_beta 19.080693
_cell_angle_gamma 90.000000
_cell_volume 2889.871237
_symmetry_space_group_name_H-M "C 2/C"
_symmetry_group_IT_number 15
_symmetry_cell_setting 'monoclinic'
loop_
_space_group_symop_operation_xyz
x,y,z
-x,y,1/2-z
-x,-y,-z
x,-y,1/2+z
1/2+x,1/2+y,z
1/2-x,1/2+y,1/2-z
1/2-x,1/2-y,-z
1/2+x,1/2-y,1/2+z
loop_
_atom_site_type_symbol
_atom_site_label
_atom_site_fract_x
_atom_site_fract_y
_atom_site_fract_z
Si Si1 0.212631 0.846664 0.558305
Si Si2 0.500000 0.032753 0.750000
Si Si3 0.811138 0.324699 0.695637
Si Si4 0.235282 0.054666 0.399685
Si Si5 0.669481 0.251861 0.908983
Si Si6 0.850282 0.382041 0.553602
Si Si7 0.779860 0.531253 0.752952
Si Si8 0.144561 0.935929 0.258524
O O1 0.250000 0.750000 0.500000
O O2 0.337286 0.913086 0.416580
O O3 0.296417 0.846802 0.543971
O O4 0.000000 0.863313 0.750000
O O5 0.594862 0.974683 0.713769
O O6 0.652534 0.285038 0.863546
O O7 0.793972 0.317343 0.649091
O O8 0.838743 0.431703 0.682335
O O9 0.970307 0.275966 0.589371
O O10 0.238842 0.159947 0.379278
O O11 0.055969 0.047160 0.585012
O O12 0.214452 0.990311 0.366569
O O13 0.778038 0.160052 0.825265
O O14 0.757746 0.480107 0.641289
O O15 0.056281 0.401930 0.383334
O O16 0.655988 0.565306 0.812217
#
# Coordination Sequence:
#
# PCOD9266490 Si02
#       8
#     8   4   8   8   8   8   8   8
#     4  12  27  50  75 101 131 178 232 290 335 398
#     4  12  26  52  72  96 138 178 238 280 336 400
#     4  10  20  35  58  94 131 166 203 265 334 400
#     4  11  24  40  65  94 132 181 218 281 331 398
#     4  11  20  35  60  95 138 166 213 268 329 393
#     4  11  21  40  67  93 131 174 219 270 347 402
#     4  10  19  37  65  93 127 172 210 269 342 399
#     4  11  20  38  66 100 133 171 224 267 342 417
#
# _framework density 20.762170000000001
#
# number of rings (size 3 to 8) (size 9 to 14) (size 15 to 20)
#    0.000    1.067    6.000    2.000    0.000    1.067 
#    2.400    0.667    1.467    0.000    0.000    0.000 
#    0.000    0.000    0.000    0.000    0.000    0.000 
#
# Total GULP energy -167326.059445 kJ/mol
# GULP energy per Si atom -5577.535315 kJ/mol
# Density = 2.071491 g / cm^3
# Si number density = 20.762170 Si / 1000 Ang^3
#
#
#
# Elastic Constant Matrix: (Units=GPa)
#
#
# Indices 1 2 3 4 5 6 
#
# 1 67.1193 19.0253 16.9328 0.0110 -2.9237 -0.0063
# 2 19.0253 90.0276 30.2109 0.0020 -7.3344 -0.0153
# 3 16.9328 30.2109 87.1410 -0.0022 -6.9934 -0.0115
# 4 0.0110 0.0020 -0.0022 15.4625 -0.0049 -2.2761
# 5 -2.9237 -7.3344 -6.9934 -0.0049 28.3773 0.0064
# 6 -0.0063 -0.0153 -0.0115 -2.2761 0.0064 20.2620
#
#
#
# Elastic Compliance Matrix: (Units=1/GPa)
#
#
# Indices 1 2 3 4 5 6 
#
# 1 0.016225 -0.002656 -0.002196 -0.000011 0.000444 0.000000
# 2 -0.002656 0.013143 -0.003866 0.000001 0.002171 0.000006
# 3 -0.002196 -0.003866 0.013410 0.000005 0.002079 0.000004
# 4 -0.000011 0.000001 0.000005 0.065760 0.000010 0.007387
# 5 0.000444 0.002171 0.002079 0.000010 0.036359 -0.000007
# 6 0.000000 0.000006 0.000004 0.007387 -0.000007 0.050183
#
#
# Mechanical properties :
#
#
# Convention : Reuss Voigt Hill
#
# Bulk Modulus (GPa) = 39.46152 41.84732 40.65442
# Shear Modulus (GPa) = 22.62813 24.69495 23.66154
#
# Velocity S-wave (km/s) = 3.30490 3.45254 3.37953
# Velocity P-wave (km/s) = 5.79749 6.00772 5.90354
#
# Compressibility (1/GPa) = 0.02534114
#
# Stress axis : x y z
#
# Youngs Moduli (GPa) = 61.63317 76.08512 74.57256
#
# Poissons Ratio (x) = 0.20205 0.16380
# Poissons Ratio (y) = 0.16367 0.28833
# Poissons Ratio (z) = 0.13538 0.29418
#
# Static dielectric constant tensor:
#      x y z
#    x 1.724280 0.000000 0.043000 
#    y 0.000000 1.758090 0.000020 
#    z 0.043000 0.000020 1.801570 
# 
# From -- ./inp_files/302349.got.cif
#   From: 2010.05.17/outbox.cif.g08.bks.cpg/sg15_152_cif.got.tgz:302349.got - 2010.06.03 18:47:42.
