data_PCOD9266230
_publ_section_title
;
Structure prediction by ZEFSAII (Michael W. Deem and Ramdas Pophale) SiO2 
 PCOD9266230
Probable space group: C 2/C
;
_chemical_formula_sum "Si O2"
_cell_formula_units_Z 36
_cell_length_a 19.222405
_cell_length_b 13.138200
_cell_length_c 8.970719
_cell_angle_alpha 90.000000
_cell_angle_beta 146.868771
_cell_angle_gamma 90.000000
_cell_volume 1238.247557
_symmetry_space_group_name_H-M "C 2/C"
_symmetry_group_IT_number 15
_symmetry_cell_setting 'monoclinic'
loop_
_space_group_symop_operation_xyz
x,y,z
-x,y,1/2-z
-x,-y,-z
x,-y,1/2+z
1/2+x,1/2+y,z
1/2-x,1/2+y,1/2-z
1/2-x,1/2-y,-z
1/2+x,1/2-y,1/2+z
loop_
_atom_site_type_symbol
_atom_site_label
_atom_site_fract_x
_atom_site_fract_y
_atom_site_fract_z
Si Si1 0.645597 0.844844 0.503787
Si Si2 0.432831 0.383371 0.350328
Si Si3 0.500000 0.499215 0.250000
Si Si4 0.852127 0.701525 0.026515
Si Si5 0.292364 0.009846 0.114566
O O1 0.750780 0.758265 0.735069
O O2 0.646917 0.935918 0.632958
O O3 0.668046 0.902516 0.383722
O O4 0.500000 0.806380 0.250000
O O5 0.555506 0.402650 0.470849
O O6 0.441046 0.413871 0.530421
O O7 0.372903 0.278259 0.202247
O O8 0.359855 0.477573 0.124806
O O9 0.806975 0.593340 0.009626
O O10 0.000000 0.683347 0.250000
#
# Coordination Sequence:
#
# PCOD9266230 Si02
#       5
#     8   8   4   8   8
#     4  11  24  46  73 100 137 187 233 278 345 420
#     4  10  19  37  61  98 134 174 217 279 342 398
#     4  10  20  32  66 100 134 168 226 280 338 408
#     4  11  24  46  69 101 143 180 226 293 347 402
#     4  11  24  45  70  99 139 185 229 287 348 411
#
# _framework density 29.073349
#
# number of rings (size 3 to 8) (size 9 to 14) (size 15 to 20)
#    0.000    1.333    1.111    6.667    3.111    0.000 
#    8.000    2.222    0.000    0.000    0.000    0.000 
#    0.000    0.000    0.000    0.000    0.000    0.000 
#
# Total GULP energy -100413.003737 kJ/mol
# GULP energy per Si atom -5578.500208 kJ/mol
# Density = 2.900718 g / cm^3
# Si number density = 29.073349 Si / 1000 Ang^3
#
#
#
# Elastic Constant Matrix: (Units=GPa)
#
#
# Indices 1 2 3 4 5 6 
#
# 1 174.3625 79.7223 76.1171 0.0000 12.7452 0.0000
# 2 79.7223 159.7249 60.4252 0.0000 2.8353 0.0000
# 3 76.1171 60.4252 160.7032 0.0000 0.2611 0.0000
# 4 0.0000 0.0000 0.0000 45.0744 0.0000 -6.4593
# 5 12.7452 2.8353 0.2611 0.0000 66.9664 0.0000
# 6 0.0000 0.0000 0.0000 -6.4593 0.0000 53.7713
#
#
#
# Elastic Compliance Matrix: (Units=1/GPa)
#
#
# Indices 1 2 3 4 5 6 
#
# 1 0.008530 -0.003152 -0.002853 0.000000 -0.001479 0.000000
# 2 -0.003152 0.008470 -0.001692 0.000000 0.000248 0.000000
# 3 -0.002853 -0.001692 0.008209 0.000000 0.000583 0.000000
# 4 0.000000 0.000000 0.000000 0.022574 0.000000 0.002712
# 5 -0.001479 0.000248 0.000583 0.000000 0.015202 0.000000
# 6 0.000000 0.000000 0.000000 0.002712 0.000000 0.018923
#
#
# Mechanical properties :
#
#
# Convention : Reuss Voigt Hill
#
# Bulk Modulus (GPa) = 101.88273 103.03555 102.45914
# Shear Modulus (GPa) = 49.71555 51.73083 50.72319
#
# Velocity S-wave (km/s) = 4.13971 4.22278 4.18145
# Velocity P-wave (km/s) = 7.61374 7.70017 7.65707
#
# Compressibility (1/GPa) = 0.00981521
#
# Stress axis : x y z
#
# Youngs Moduli (GPa) = 117.23766 118.06750 121.81672
#
# Poissons Ratio (x) = 0.37215 0.34749
# Poissons Ratio (y) = 0.36953 0.20613
# Poissons Ratio (z) = 0.33442 0.19979
#
# Static dielectric constant tensor:
#      x y z
#    x 2.634730 0.000000 0.206300 
#    y 0.000000 2.318700 0.000000 
#    z 0.206300 0.000000 2.415000 
# 
# From -- ./inp_files/55711.got.cif
#   From: 2010.05.17/outbox.cif.g08.bks.cpg/sg15_28_cif.got.tgz:55711.got - 2010.06.03 18:47:42.
