data_PCOD9266590
_publ_section_title
;
Structure prediction by ZEFSAII (Michael W. Deem and Ramdas Pophale) SiO2 
 PCOD9266590
Probable space group: C 2/C
;
_chemical_formula_sum "Si O2"
_cell_formula_units_Z 48
_cell_length_a 7.873869
_cell_length_b 13.615353
_cell_length_c 17.310739
_cell_angle_alpha 90.000000
_cell_angle_beta 81.153666
_cell_angle_gamma 90.000000
_cell_volume 1833.730492
_symmetry_space_group_name_H-M "C 2/C"
_symmetry_group_IT_number 15
_symmetry_cell_setting 'monoclinic'
loop_
_space_group_symop_operation_xyz
x,y,z
-x,y,1/2-z
-x,-y,-z
x,-y,1/2+z
1/2+x,1/2+y,z
1/2-x,1/2+y,1/2-z
1/2-x,1/2-y,-z
1/2+x,1/2-y,1/2+z
loop_
_atom_site_type_symbol
_atom_site_label
_atom_site_fract_x
_atom_site_fract_y
_atom_site_fract_z
Si Si1 0.315716 0.981886 0.799461
Si Si2 0.326964 0.555498 0.852352
Si Si3 0.542355 0.914000 0.060337
Si Si4 0.706274 0.339321 0.578636
Si Si5 0.608077 0.295033 0.812623
Si Si6 0.618814 0.287841 0.309043
O O1 0.500000 0.965142 0.750000
O O2 0.234442 0.879744 0.832146
O O3 0.206164 0.025289 0.735044
O O4 0.355617 0.049515 0.870443
O O5 0.342167 0.451943 0.895781
O O6 0.495611 0.624392 0.849429
O O7 0.154455 0.608040 0.897969
O O8 0.686276 0.848146 0.007104
O O9 0.500000 0.000000 0.000000
O O10 0.530456 0.280029 0.610114
O O11 0.840701 0.291542 0.629111
O O12 0.500000 0.342500 0.750000
O O13 0.703050 0.211061 0.754718
O O14 0.500000 0.247424 0.250000
#
# Coordination Sequence:
#
# PCOD9266590 Si02
#       6
#     8   8   8   8   8   8
#     4  10  19  37  70 104 142 191 257 310 372 458
#     4  10  21  40  70 110 143 192 261 312 375 459
#     4   9  21  38  69 111 147 194 260 306 380 482
#     4  10  22  43  69 104 152 192 248 317 387 460
#     4  10  20  37  67 101 140 190 247 309 375 449
#     4  11  24  37  71 107 139 195 252 316 378 441
#
# _framework density 26.176148000000001
#
# number of rings (size 3 to 8) (size 9 to 14) (size 15 to 20)
#    0.000    2.000    3.333    0.500    7.000    1.333 
#    0.000    7.500    0.000    3.000    0.000    0.000 
#    0.000    0.000    0.000    0.167    0.000    0.000 
#
# Total GULP energy -133918.056898 kJ/mol
# GULP energy per Si atom -5579.919037 kJ/mol
# Density = 2.611657 g / cm^3
# Si number density = 26.176148 Si / 1000 Ang^3
#
#
#
# Elastic Constant Matrix: (Units=GPa)
#
#
# Indices 1 2 3 4 5 6 
#
# 1 165.2200 64.9906 61.5655 0.0000 -43.4197 0.0000
# 2 64.9906 127.1799 56.1966 0.0000 -37.1450 0.0000
# 3 61.5655 56.1966 184.3768 0.0000 -63.5320 0.0000
# 4 0.0000 0.0000 0.0000 47.7060 0.0000 -26.6812
# 5 -43.4197 -37.1450 -63.5320 0.0000 54.9776 0.0000
# 6 0.0000 0.0000 0.0000 -26.6812 0.0000 63.1434
#
#
#
# Elastic Compliance Matrix: (Units=1/GPa)
#
#
# Indices 1 2 3 4 5 6 
#
# 1 0.008470 -0.002890 -0.000524 0.000000 0.004132 0.000000
# 2 -0.002890 0.010937 -0.001011 0.000000 0.003938 0.000000
# 3 -0.000524 -0.001011 0.009187 0.000000 0.009519 0.000000
# 4 0.000000 0.000000 0.000000 0.027449 0.000000 0.011598
# 5 0.004132 0.003938 0.009519 0.000000 0.035113 0.000000
# 6 0.000000 0.000000 0.000000 0.011598 0.000000 0.020738
#
#
# Mechanical properties :
#
#
# Convention : Reuss Voigt Hill
#
# Bulk Modulus (GPa) = 50.65035 93.58691 72.11863
# Shear Modulus (GPa) = 39.26910 52.76700 46.01805
#
# Velocity S-wave (km/s) = 3.87743 4.49468 4.19742
# Velocity P-wave (km/s) = 6.27995 7.92254 7.14858
#
# Compressibility (1/GPa) = 0.01974320
#
# Stress axis : x y z
#
# Youngs Moduli (GPa) = 118.05766 91.43324 108.84882
#
# Poissons Ratio (x) = 0.26428 0.05701
# Poissons Ratio (y) = 0.34123 0.11010
# Poissons Ratio (z) = 0.06183 0.09248
#
# Static dielectric constant tensor:
#      x y z
#    x 2.202350 0.000000 -0.086470 
#    y 0.000000 2.324890 0.000000 
#    z -0.086470 0.000000 2.047710 
# 
# From -- ./inp_files/189757.got.cif
#   From: 2010.05.17/outbox.cif.g08.bks.cpg/sg15_95_cif.got.tgz:189757.got - 2010.06.03 18:47:42.
