data_PCOD9266390
_publ_section_title
;
Structure prediction by ZEFSAII (Michael W. Deem and Ramdas Pophale) SiO2 
 PCOD9266390
Probable space group: C 2/C
;
_chemical_formula_sum "Si O2"
_cell_formula_units_Z 60
_cell_length_a 8.394133
_cell_length_b 17.084619
_cell_length_c 22.740858
_cell_angle_alpha 90.000000
_cell_angle_beta 70.963207
_cell_angle_gamma 90.000000
_cell_volume 3082.917675
_symmetry_space_group_name_H-M "C 2/C"
_symmetry_group_IT_number 15
_symmetry_cell_setting 'monoclinic'
loop_
_space_group_symop_operation_xyz
x,y,z
-x,y,1/2-z
-x,-y,-z
x,-y,1/2+z
1/2+x,1/2+y,z
1/2-x,1/2+y,1/2-z
1/2-x,1/2-y,-z
1/2+x,1/2-y,1/2+z
loop_
_atom_site_type_symbol
_atom_site_label
_atom_site_fract_x
_atom_site_fract_y
_atom_site_fract_z
Si Si1 0.832123 0.183933 0.870858
Si Si2 0.750323 0.928111 0.076025
Si Si3 0.482711 0.830046 0.465162
Si Si4 0.000000 0.080784 0.750000
Si Si5 0.797429 0.488832 0.289087
Si Si6 0.053104 0.166179 0.514651
Si Si7 0.623065 0.847688 0.681776
Si Si8 0.591744 0.092267 0.063127
O O1 0.658039 0.146331 0.912956
O O2 0.932668 0.133127 0.811963
O O3 0.790902 0.267594 0.847273
O O4 0.934710 0.194227 0.919083
O O5 0.657764 0.850310 0.064830
O O6 0.740263 0.939859 0.147168
O O7 0.937738 0.911066 0.030282
O O8 0.653043 0.002734 0.060367
O O9 0.492080 0.739874 0.483844
O O10 0.468403 0.883399 0.525516
O O11 0.835466 0.034986 0.745095
O O12 0.765757 0.579395 0.310526
O O13 0.000000 0.482179 0.250000
O O14 0.238137 0.141947 0.470481
O O15 0.500000 0.829318 0.750000
O O16 0.529668 0.881194 0.634892
#
# Coordination Sequence:
#
# PCOD9266390 Si02
#       8
#     8   8   8   4   8   8   8   8
#     4  11  20  36  63  86 113 162 203 243 300 372
#     4  11  22  36  57  88 123 152 197 254 304 353
#     4  11  21  36  58  88 121 153 201 246 306 358
#     4  12  22  40  70  86 120 160 212 248 308 362
#     4  10  23  41  63  89 124 159 205 258 305 360
#     4  11  20  37  58  88 116 157 199 241 300 362
#     4  10  19  37  64  83 115 160 198 244 304 358
#     4  10  20  37  59  82 118 158 196 240 301 368
#
# _framework density 19.462083
#
# number of rings (size 3 to 8) (size 9 to 14) (size 15 to 20)
#    0.000    1.333    4.667    2.800    0.000    0.000 
#    0.000    0.000   10.267    0.000    0.000    0.000 
#    0.000    0.000    0.000    0.000    0.000    0.000 
#
# Total GULP energy -167260.802840 kJ/mol
# GULP energy per Si atom -5575.360095 kJ/mol
# Density = 1.941779 g / cm^3
# Si number density = 19.462083 Si / 1000 Ang^3
#
#
#
# Elastic Constant Matrix: (Units=GPa)
#
#
# Indices 1 2 3 4 5 6 
#
# 1 54.2504 23.4912 9.8078 0.0000 10.0777 0.0000
# 2 23.4912 68.8057 26.0128 0.0000 14.2192 0.0000
# 3 9.8078 26.0128 94.8079 0.0000 6.5403 0.0000
# 4 0.0000 0.0000 0.0000 28.6338 0.0000 5.8365
# 5 10.0777 14.2192 6.5403 0.0000 21.3471 0.0000
# 6 0.0000 0.0000 0.0000 5.8365 0.0000 17.8223
#
#
#
# Elastic Compliance Matrix: (Units=1/GPa)
#
#
# Indices 1 2 3 4 5 6 
#
# 1 0.022349 -0.006263 -0.000157 0.000000 -0.006331 0.000000
# 2 -0.006263 0.020178 -0.004255 0.000000 -0.009180 0.000000
# 3 -0.000157 -0.004255 0.011780 0.000000 -0.000701 0.000000
# 4 0.000000 0.000000 0.000000 0.037422 0.000000 -0.012255
# 5 -0.006331 -0.009180 -0.000701 0.000000 0.056163 0.000000
# 6 0.000000 0.000000 0.000000 -0.012255 0.000000 0.060123
#
#
# Mechanical properties :
#
#
# Convention : Reuss Voigt Hill
#
# Bulk Modulus (GPa) = 30.34226 37.38753 33.86489
# Shear Modulus (GPa) = 20.80305 24.13078 22.46691
#
# Velocity S-wave (km/s) = 3.27295 3.52502 3.40132
# Velocity P-wave (km/s) = 5.46875 5.98497 5.73267
#
# Compressibility (1/GPa) = 0.03295734
#
# Stress axis : x y z
#
# Youngs Moduli (GPa) = 44.74406 49.55982 84.89183
#
# Poissons Ratio (x) = 0.31037 0.01333
# Poissons Ratio (y) = 0.28022 0.36122
# Poissons Ratio (z) = 0.00702 0.21088
#
# Static dielectric constant tensor:
#      x y z
#    x 1.718660 0.000000 0.007430 
#    y 0.000000 1.709860 0.000000 
#    z 0.007430 0.000000 1.688780 
# 
# From -- ./inp_files/232651.got.cif
#   From: 2010.05.17/outbox.cif.g08.bks.cpg/sg15_117_cif.got.tgz:232651.got - 2010.06.03 18:47:42.
