data_PCOD9266568
_publ_section_title
;
Structure prediction by ZEFSAII (Michael W. Deem and Ramdas Pophale) SiO2 
 PCOD9266568
Probable space group: C 2/C
;
_chemical_formula_sum "Si O2"
_cell_formula_units_Z 52
_cell_length_a 7.745207
_cell_length_b 18.626736
_cell_length_c 14.821863
_cell_angle_alpha 90.000000
_cell_angle_beta 96.549809
_cell_angle_gamma 90.000000
_cell_volume 2124.362772
_symmetry_space_group_name_H-M "C 2/C"
_symmetry_group_IT_number 15
_symmetry_cell_setting 'monoclinic'
loop_
_space_group_symop_operation_xyz
x,y,z
-x,y,1/2-z
-x,-y,-z
x,-y,1/2+z
1/2+x,1/2+y,z
1/2-x,1/2+y,1/2-z
1/2-x,1/2-y,-z
1/2+x,1/2-y,1/2+z
loop_
_atom_site_type_symbol
_atom_site_label
_atom_site_fract_x
_atom_site_fract_y
_atom_site_fract_z
Si Si1 0.148737 0.341845 0.531034
Si Si2 0.900330 0.086724 0.410182
Si Si3 0.000000 0.855949 0.250000
Si Si4 0.233480 0.495227 0.532384
Si Si5 0.325920 0.951275 0.288318
Si Si6 0.985787 0.798770 0.444439
Si Si7 0.694978 0.123804 0.232017
O O1 0.110697 0.425967 0.521378
O O2 0.997186 0.283659 0.524274
O O3 0.286719 0.319927 0.462311
O O4 0.230128 0.338191 0.638226
O O5 0.841240 0.128424 0.317558
O O6 0.079899 0.040631 0.424133
O O7 0.911267 0.144964 0.489536
O O8 0.759415 0.028788 0.435625
O O9 0.837202 0.907963 0.258049
O O10 0.022545 0.810155 0.341871
O O11 0.184410 0.553058 0.604300
O O12 0.500000 0.926524 0.250000
O O13 0.311855 0.037233 0.277550
O O14 0.500000 0.145624 0.250000
#
# Coordination Sequence:
#
# PCOD9266568 Si02
#       7
#     8   8   4   8   8   8   8
#     4   9  21  41  61  96 133 184 224 290 355 427
#     4  10  19  37  68 104 129 185 244 291 358 440
#     4  12  22  40  72  96 140 190 232 294 366 428
#     4   9  18  36  65 101 138 175 230 304 357 421
#     4  10  21  38  60 102 138 174 231 295 361 425
#     4  10  22  39  67  95 133 184 242 284 355 439
#     4  10  22  39  63  96 141 178 227 297 363 423
#
# _framework density 24.477927000000001
#
# number of rings (size 3 to 8) (size 9 to 14) (size 15 to 20)
#    0.000    2.154    1.538    0.923    5.385    4.923 
#    2.769    3.077   10.154    0.000    0.000    0.000 
#    0.000    0.000    0.000    0.000    0.000    0.000 
#
# Total GULP energy -145274.933898 kJ/mol
# GULP energy per Si atom -5587.497458 kJ/mol
# Density = 2.442221 g / cm^3
# Si number density = 24.477927 Si / 1000 Ang^3
#
#
#
# Elastic Constant Matrix: (Units=GPa)
#
#
# Indices 1 2 3 4 5 6 
#
# 1 105.1192 25.7676 30.1601 0.0000 -13.6582 0.0000
# 2 25.7676 73.8501 8.6251 0.0000 -8.7446 0.0000
# 3 30.1601 8.6251 126.8213 0.0000 -11.9351 0.0000
# 4 0.0000 0.0000 0.0000 25.7076 0.0000 -7.1403
# 5 -13.6582 -8.7446 -11.9351 0.0000 37.2267 0.0000
# 6 0.0000 0.0000 0.0000 -7.1403 0.0000 17.4245
#
#
#
# Elastic Compliance Matrix: (Units=1/GPa)
#
#
# Indices 1 2 3 4 5 6 
#
# 1 0.011320 -0.003378 -0.002213 0.000000 0.002650 0.000000
# 2 -0.003378 0.014990 -0.000002 0.000000 0.002281 0.000000
# 3 -0.002213 -0.000002 0.008594 0.000000 0.001943 0.000000
# 4 0.000000 0.000000 0.000000 0.043895 0.000000 0.017988
# 5 0.002650 0.002281 0.001943 0.000000 0.028994 0.000000
# 6 0.000000 0.000000 0.000000 0.017988 0.000000 0.064762
#
#
# Mechanical properties :
#
#
# Convention : Reuss Voigt Hill
#
# Bulk Modulus (GPa) = 42.15800 48.32177 45.23988
# Shear Modulus (GPa) = 26.08980 32.15427 29.12203
#
# Velocity S-wave (km/s) = 3.26828 3.62830 3.45298
# Velocity P-wave (km/s) = 5.61270 6.11036 5.86681
#
# Compressibility (1/GPa) = 0.02372029
#
# Stress axis : x y z
#
# Youngs Moduli (GPa) = 88.33731 66.71227 116.35529
#
# Poissons Ratio (x) = 0.22532 0.25749
# Poissons Ratio (y) = 0.29836 0.00018
# Poissons Ratio (z) = 0.19549 0.00010
#
# Static dielectric constant tensor:
#      x y z
#    x 2.005090 0.000000 0.013210 
#    y 0.000000 1.939350 0.000000 
#    z 0.013210 0.000000 1.988700 
# 
# From -- ./inp_files/136115.got.cif
#   From: 2010.05.17/outbox.cif.g08.bks.cpg/sg15_69_cif.got.tgz:136115.got - 2010.06.03 18:47:42.
