data_PCOD9266522
_publ_section_title
;
Structure prediction by ZEFSAII (Michael W. Deem and Ramdas Pophale) SiO2 
 PCOD9266522
Probable space group: C 2/C
;
_chemical_formula_sum "Si O2"
_cell_formula_units_Z 48
_cell_length_a 23.461965
_cell_length_b 17.349905
_cell_length_c 11.335211
_cell_angle_alpha 90.000000
_cell_angle_beta 30.633887
_cell_angle_gamma 90.000000
_cell_volume 2351.138659
_symmetry_space_group_name_H-M "C 2/C"
_symmetry_group_IT_number 15
_symmetry_cell_setting 'monoclinic'
loop_
_space_group_symop_operation_xyz
x,y,z
-x,y,1/2-z
-x,-y,-z
x,-y,1/2+z
1/2+x,1/2+y,z
1/2-x,1/2+y,1/2-z
1/2-x,1/2-y,-z
1/2+x,1/2-y,1/2+z
loop_
_atom_site_type_symbol
_atom_site_label
_atom_site_fract_x
_atom_site_fract_y
_atom_site_fract_z
Si Si1 0.253996 0.626424 0.253278
Si Si2 0.630593 0.783706 0.523649
Si Si3 0.107053 0.690908 0.333660
Si Si4 0.649329 0.665664 0.931308
Si Si5 0.131983 0.723285 0.658551
Si Si6 0.065467 0.999047 0.011185
O O1 0.175492 0.621928 0.276197
O O2 0.166384 0.656880 0.506090
O O3 0.340614 0.696602 0.069633
O O4 0.326696 0.557032 0.175532
O O5 0.500000 0.798842 0.750000
O O6 0.651402 0.797689 0.624509
O O7 0.715246 0.837214 0.299262
O O8 0.134339 0.766355 0.363111
O O9 0.971533 0.692845 0.580925
O O10 0.599521 0.700095 0.141022
O O11 0.603420 0.586001 0.968552
O O12 0.250000 0.750000 0.500000
O O13 0.000000 0.976446 0.250000
O O14 0.000000 0.000000 0.000000
#
# Coordination Sequence:
#
# PCOD9266522 Si02
#       6
#     8   8   8   8   8   8
#     4  10  22  39  59  90 126 169 212 261 325 386
#     4  10  20  36  64  92 121 162 215 266 316 379
#     4  10  19  37  66  90 124 164 217 270 318 380
#     4  10  22  39  58  90 127 164 210 262 322 382
#     4  10  20  36  65  93 124 160 216 269 319 377
#     4  12  29  43  66  94 135 173 214 265 333 399
#
# _framework density 20.415638999999999
#
# number of rings (size 3 to 8) (size 9 to 14) (size 15 to 20)
#    0.000    2.000    0.000    7.500   11.667    0.000 
#    0.000    1.667    0.000    3.000    0.000    0.000 
#    0.000    0.000    0.000    0.000    0.000    0.000 
#
# Total GULP energy -133624.990547 kJ/mol
# GULP energy per Si atom -5567.707939 kJ/mol
# Density = 2.036917 g / cm^3
# Si number density = 20.415639 Si / 1000 Ang^3
#
#
#
# Elastic Constant Matrix: (Units=GPa)
#
#
# Indices 1 2 3 4 5 6 
#
# 1 102.9491 31.4811 22.7567 0.0000 -12.8995 0.0000
# 2 31.4811 82.1075 10.7777 0.0000 -7.3460 0.0000
# 3 22.7567 10.7777 123.6557 0.0000 -4.5681 0.0000
# 4 0.0000 0.0000 0.0000 23.8357 0.0000 -15.4355
# 5 -12.8995 -7.3460 -4.5681 0.0000 42.0707 0.0000
# 6 0.0000 0.0000 0.0000 -15.4355 0.0000 25.0329
#
#
#
# Elastic Compliance Matrix: (Units=1/GPa)
#
#
# Indices 1 2 3 4 5 6 
#
# 1 0.011649 -0.004003 -0.001696 0.000000 0.002689 0.000000
# 2 -0.004003 0.013873 -0.000430 0.000000 0.001148 0.000000
# 3 -0.001696 -0.000430 0.008448 0.000000 0.000322 0.000000
# 4 0.000000 0.000000 0.000000 0.069841 0.000000 0.043065
# 5 0.002689 0.001148 0.000322 0.000000 0.024829 0.000000
# 6 0.000000 0.000000 0.000000 0.043065 0.000000 0.066501
#
#
# Mechanical properties :
#
#
# Convention : Reuss Voigt Hill
#
# Bulk Modulus (GPa) = 46.05518 48.74923 47.40221
# Shear Modulus (GPa) = 23.29492 34.43434 28.86463
#
# Velocity S-wave (km/s) = 3.38158 4.11136 3.76420
# Velocity P-wave (km/s) = 6.15261 6.81674 6.49317
#
# Compressibility (1/GPa) = 0.02171308
#
# Stress axis : x y z
#
# Youngs Moduli (GPa) = 85.84083 72.08089 118.36550
#
# Poissons Ratio (x) = 0.28857 0.20070
# Poissons Ratio (y) = 0.34366 0.05090
# Poissons Ratio (z) = 0.14555 0.03099
#
# Static dielectric constant tensor:
#      x y z
#    x 1.890680 0.000000 -0.044410 
#    y 0.000000 1.700590 0.000000 
#    z -0.044410 0.000000 1.910340 
# 
# From -- ./inp_files/119373.got.cif
#   From: 2010.05.17/outbox.cif.g08.bks.cpg/sg15_60_cif.got.tgz:119373.got - 2010.06.03 18:47:42.
