data_PCOD9266582
_publ_section_title
;
Structure prediction by ZEFSAII (Michael W. Deem and Ramdas Pophale) SiO2 
 PCOD9266582
Probable space group: C 2/C
;
_chemical_formula_sum "Si O2"
_cell_formula_units_Z 56
_cell_length_a 8.118799
_cell_length_b 26.460140
_cell_length_c 15.104653
_cell_angle_alpha 90.000000
_cell_angle_beta 136.839506
_cell_angle_gamma 90.000000
_cell_volume 2219.621465
_symmetry_space_group_name_H-M "C 2/C"
_symmetry_group_IT_number 15
_symmetry_cell_setting 'monoclinic'
loop_
_space_group_symop_operation_xyz
x,y,z
-x,y,1/2-z
-x,-y,-z
x,-y,1/2+z
1/2+x,1/2+y,z
1/2-x,1/2+y,1/2-z
1/2-x,1/2-y,-z
1/2+x,1/2-y,1/2+z
loop_
_atom_site_type_symbol
_atom_site_label
_atom_site_fract_x
_atom_site_fract_y
_atom_site_fract_z
Si Si1 0.095436 0.295306 0.585388
Si Si2 0.562178 0.411917 0.375765
Si Si3 0.877451 0.539139 0.783098
Si Si4 0.476165 0.702883 0.636616
Si Si5 0.721369 0.122911 0.993752
Si Si6 0.390588 0.056929 0.387233
Si Si7 0.748298 0.365209 0.700386
O O1 0.133707 0.324475 0.507002
O O2 0.252251 0.325951 0.718044
O O3 0.810347 0.299116 0.494306
O O4 0.124698 0.236630 0.624848
O O5 0.500000 0.424348 0.250000
O O6 0.462846 0.355571 0.345357
O O7 0.839933 0.419805 0.503499
O O8 0.388795 0.449889 0.356672
O O9 0.886667 0.502808 0.871522
O O10 0.000000 0.511713 0.750000
O O11 0.023193 0.591537 0.860125
O O12 0.500000 0.720002 0.750000
O O13 0.748224 0.082761 0.085858
O O14 0.982824 0.134514 0.053910
O O15 0.279451 0.080097 0.254990
O O16 0.000000 0.353550 0.750000
#
# Coordination Sequence:
#
# PCOD9266582 Si02
#       7
#     8   8   8   8   8   8   8
#     4  10  20  40  67 100 132 183 230 281 350 417
#     4  11  22  42  70  99 140 182 237 283 350 421
#     4  12  28  42  66 104 141 184 231 293 348 409
#     4  10  19  37  69 102 138 177 233 292 346 411
#     4  11  23  45  68  99 141 177 238 283 340 427
#     4  11  23  44  66  99 134 188 232 281 349 417
#     4  11  24  41  67 101 139 180 231 289 343 413
#
# _framework density 25.229526
#
# number of rings (size 3 to 8) (size 9 to 14) (size 15 to 20)
#    0.000    1.143    4.286    3.857    4.000    0.571 
#    0.000    1.429    0.000   15.429    0.000    0.000 
#    0.000    0.000    0.000    0.000    0.000    0.000 
#
# Total GULP energy -156267.609895 kJ/mol
# GULP energy per Si atom -5580.986068 kJ/mol
# Density = 2.517210 g / cm^3
# Si number density = 25.229526 Si / 1000 Ang^3
#
#
#
# Elastic Constant Matrix: (Units=GPa)
#
#
# Indices 1 2 3 4 5 6 
#
# 1 91.2691 36.4884 19.7988 0.0000 16.4356 0.0000
# 2 36.4884 121.9608 24.2075 0.0000 12.2705 0.0000
# 3 19.7988 24.2075 87.2680 0.0000 16.2423 0.0000
# 4 0.0000 0.0000 0.0000 23.2198 0.0000 -3.9983
# 5 16.4356 12.2705 16.2423 0.0000 42.3869 0.0000
# 6 0.0000 0.0000 0.0000 -3.9983 0.0000 31.4684
#
#
#
# Elastic Compliance Matrix: (Units=1/GPa)
#
#
# Indices 1 2 3 4 5 6 
#
# 1 0.013243 -0.003317 -0.001408 0.000000 -0.003635 0.000000
# 2 -0.003317 0.009625 -0.001764 0.000000 -0.000824 0.000000
# 3 -0.001408 -0.001764 0.012998 0.000000 -0.003924 0.000000
# 4 0.000000 0.000000 0.000000 0.044030 0.000000 0.005594
# 5 -0.003635 -0.000824 -0.003924 0.000000 0.026744 0.000000
# 6 0.000000 0.000000 0.000000 0.005594 0.000000 0.032489
#
#
# Mechanical properties :
#
#
# Convention : Reuss Voigt Hill
#
# Bulk Modulus (GPa) = 43.69021 51.27636 47.48328
# Shear Modulus (GPa) = 31.30193 34.08191 32.69192
#
# Velocity S-wave (km/s) = 3.52616 3.67941 3.60360
# Velocity P-wave (km/s) = 5.82521 6.19829 6.01465
#
# Compressibility (1/GPa) = 0.02288842
#
# Stress axis : x y z
#
# Youngs Moduli (GPa) = 75.51362 103.89919 76.93481
#
# Poissons Ratio (x) = 0.34461 0.10831
# Poissons Ratio (y) = 0.25046 0.13571
# Poissons Ratio (z) = 0.10630 0.18327
#
# Static dielectric constant tensor:
#      x y z
#    x 2.182200 0.000000 -0.024340 
#    y 0.000000 2.031170 0.000000 
#    z -0.024340 0.000000 2.000210 
# 
# From -- ./inp_files/193915.got.cif
#   From: 2010.05.17/outbox.cif.g08.bks.cpg/sg15_97_cif.got.tgz:193915.got - 2010.06.03 18:47:42.
