data_PCOD9266427
_publ_section_title
;
Structure prediction by ZEFSAII (Michael W. Deem and Ramdas Pophale) SiO2 
 PCOD9266427
Probable space group: C 2/C
;
_chemical_formula_sum "Si O2"
_cell_formula_units_Z 56
_cell_length_a 10.551520
_cell_length_b 10.078320
_cell_length_c 22.727415
_cell_angle_alpha 90.000000
_cell_angle_beta 96.175896
_cell_angle_gamma 90.000000
_cell_volume 2402.842802
_symmetry_space_group_name_H-M "C 2/C"
_symmetry_group_IT_number 15
_symmetry_cell_setting 'monoclinic'
loop_
_space_group_symop_operation_xyz
x,y,z
-x,y,1/2-z
-x,-y,-z
x,-y,1/2+z
1/2+x,1/2+y,z
1/2-x,1/2+y,1/2-z
1/2-x,1/2-y,-z
1/2+x,1/2-y,1/2+z
loop_
_atom_site_type_symbol
_atom_site_label
_atom_site_fract_x
_atom_site_fract_y
_atom_site_fract_z
Si Si1 0.254350 0.463767 0.305897
Si Si2 0.418295 0.145741 0.372859
Si Si3 0.357089 0.305200 0.648545
Si Si4 0.927573 0.234556 0.529884
Si Si5 0.944941 0.395417 0.061922
Si Si6 0.000000 0.612927 0.250000
Si Si7 0.500000 0.525550 0.250000
Si Si8 0.220176 0.926267 0.562780
O O1 0.203944 0.319401 0.320225
O O2 0.373188 0.455597 0.267823
O O3 0.293826 0.539232 0.368882
O O4 0.131069 0.533699 0.270586
O O5 0.269894 0.114117 0.373020
O O6 0.458551 0.267435 0.417409
O O7 0.465510 0.180932 0.309983
O O8 0.491993 0.011249 0.395620
O O9 0.427935 0.239024 0.597739
O O10 0.451143 0.384315 0.694193
O O11 0.892869 0.110472 0.487645
O O12 0.806629 0.291772 0.560105
O O13 0.971225 0.353750 0.488878
O O14 0.804319 0.451956 0.041800
#
# Coordination Sequence:
#
# PCOD9266427 Si02
#       8
#     8   8   8   8   8   4   4   8
#     4  11  23  43  63  94 132 168 217 270 312 387
#     4  11  22  39  66  93 125 166 215 258 312 391
#     4  11  24  40  64  93 129 170 209 264 328 366
#     4  10  19  37  64  93 121 166 212 258 320 374
#     4  10  21  40  63  92 124 161 212 266 311 378
#     4  12  19  43  68  86 130 172 203 267 318 368
#     4  12  25  41  64  96 130 170 225 261 312 396
#     4   9  18  36  61  88 123 161 209 259 312 377
#
# _framework density 23.305730000000001
#
# number of rings (size 3 to 8) (size 9 to 14) (size 15 to 20)
#    0.000    1.429    5.714    3.000    0.000    1.143 
#    0.000    8.571    3.143    0.000    0.000    0.000 
#    0.000    0.000    0.000    0.000    0.000    0.000 
#
# Total GULP energy -156376.861118 kJ/mol
# GULP energy per Si atom -5584.887897 kJ/mol
# Density = 2.325268 g / cm^3
# Si number density = 23.305730 Si / 1000 Ang^3
#
#
#
# Elastic Constant Matrix: (Units=GPa)
#
#
# Indices 1 2 3 4 5 6 
#
# 1 101.5798 15.5782 37.8081 0.0000 -0.3658 0.0000
# 2 15.5782 42.9205 19.5448 0.0000 3.3451 0.0000
# 3 37.8081 19.5448 100.4397 0.0000 -5.0757 0.0000
# 4 0.0000 0.0000 0.0000 -23.3962 0.0000 -27.2620
# 5 -0.3658 3.3451 -5.0757 0.0000 39.9601 0.0000
# 6 0.0000 0.0000 0.0000 -27.2620 0.0000 -10.7577
#
#
#
# Elastic Compliance Matrix: (Units=1/GPa)
#
#
# Indices 1 2 3 4 5 6 
#
# 1 0.011681 -0.002434 -0.003933 0.000000 -0.000189 0.000000
# 2 -0.002434 0.026384 -0.004359 0.000000 -0.002785 0.000000
# 3 -0.003933 -0.004359 0.012381 0.000000 0.001901 0.000000
# 4 0.000000 0.000000 0.000000 0.021886 0.000000 -0.055464
# 5 -0.000189 -0.002785 0.001901 0.000000 0.025498 0.000000
# 6 0.000000 0.000000 0.000000 -0.055464 0.000000 0.047599
#
#
# Mechanical properties :
#
#
# Convention : Reuss Voigt Hill
#
# Bulk Modulus (GPa) = 34.48885 43.42249 38.95567
# Shear Modulus (GPa) = 28.32136 12.62849 20.47492
#
# Velocity S-wave (km/s) = 3.48977 2.33032 2.96723
# Velocity P-wave (km/s) = 5.57392 5.09045 5.33766
#
# Compressibility (1/GPa) = 0.02899488
#
# Stress axis : x y z
#
# Youngs Moduli (GPa) = 85.60975 37.90152 80.76944
#
# Poissons Ratio (x) = 0.09225 0.31766
# Poissons Ratio (y) = 0.20837 0.35205
# Poissons Ratio (z) = 0.33670 0.16520
#
# Static dielectric constant tensor:
#      x y z
#    x 2.036340 0.000000 -0.008600 
#    y 0.000000 1.899640 0.000000 
#    z -0.008600 0.000000 1.926700 
# 
# From -- ./inp_files/268519.got.cif
#   From: 2010.05.17/outbox.cif.g08.bks.cpg/sg15_135_cif.got.tgz:268519.got - 2010.06.03 18:47:42.
