data_PCOD9266703
_publ_section_title
;
Structure prediction by ZEFSAII (Michael W. Deem and Ramdas Pophale) SiO2 
 PCOD9266703
Probable space group: C 2/C
;
_chemical_formula_sum "Si O2"
_cell_formula_units_Z 56
_cell_length_a 15.330313
_cell_length_b 17.276541
_cell_length_c 17.534034
_cell_angle_alpha 90.000000
_cell_angle_beta 36.112432
_cell_angle_gamma 90.000000
_cell_volume 2737.025924
_symmetry_space_group_name_H-M "C 2/C"
_symmetry_group_IT_number 15
_symmetry_cell_setting 'monoclinic'
loop_
_space_group_symop_operation_xyz
x,y,z
-x,y,1/2-z
-x,-y,-z
x,-y,1/2+z
1/2+x,1/2+y,z
1/2-x,1/2+y,1/2-z
1/2-x,1/2-y,-z
1/2+x,1/2-y,1/2+z
loop_
_atom_site_type_symbol
_atom_site_label
_atom_site_fract_x
_atom_site_fract_y
_atom_site_fract_z
Si Si1 0.646737 0.525022 0.248128
Si Si2 0.547743 0.803002 0.339429
Si Si3 0.193987 0.974990 0.538124
Si Si4 0.640778 0.091493 0.188803
Si Si5 0.307549 0.314902 0.043810
Si Si6 0.583998 0.025715 0.864306
Si Si7 0.614539 0.334051 0.883462
O O1 0.475425 0.503957 0.362868
O O2 0.708885 0.523700 0.118529
O O3 0.743960 0.469707 0.232260
O O4 0.654134 0.609718 0.283352
O O5 0.394289 0.755950 0.443063
O O6 0.655301 0.795038 0.191805
O O7 0.529596 0.892380 0.371864
O O8 0.631560 0.755140 0.347231
O O9 0.214946 0.887948 0.494177
O O10 0.296375 0.032134 0.418313
O O11 0.500000 0.133489 0.250000
O O12 0.777149 0.141239 0.125568
O O13 0.581818 0.039706 0.301099
O O14 0.435409 0.341933 0.015486
O O15 0.500000 0.000000 0.000000
#
# Coordination Sequence:
#
# PCOD9266703 Si02
#       7
#     8   8   8   8   8   8   8
#     4   9  20  35  61  85 119 160 199 249 303 362
#     4  10  21  38  62  91 121 161 205 243 310 366
#     4  10  19  38  59  87 120 156 205 250 305 364
#     4  11  22  37  60  89 120 159 205 257 307 357
#     4   9  20  37  62  88 121 163 199 253 301 372
#     4  11  23  37  63  89 120 158 203 257 304 364
#     4   8  21  36  62  81 122 159 200 247 307 361
#
# _framework density 20.460163999999999
#
# number of rings (size 3 to 8) (size 9 to 14) (size 15 to 20)
#    0.857    1.429    1.429    0.857    6.000    1.714 
#    0.000    2.143    3.143    2.571    0.000    0.000 
#    0.000    0.000    0.000    0.000    0.000    0.000 
#
# Total GULP energy -156195.636001 kJ/mol
# GULP energy per Si atom -5578.415571 kJ/mol
# Density = 2.041360 g / cm^3
# Si number density = 20.460164 Si / 1000 Ang^3
#
#
#
# Elastic Constant Matrix: (Units=GPa)
#
#
# Indices 1 2 3 4 5 6 
#
# 1 125.2056 3.5377 16.3985 0.0002 -20.0955 0.0000
# 2 3.5377 38.7519 9.5281 0.0002 -15.8872 0.0000
# 3 16.3985 9.5281 116.6719 0.0004 -5.8475 -0.0001
# 4 0.0002 0.0002 0.0004 23.6330 0.0000 -5.6224
# 5 -20.0955 -15.8872 -5.8475 0.0000 13.6973 -0.0001
# 6 0.0000 0.0000 -0.0001 -5.6224 -0.0001 20.8071
#
#
#
# Elastic Compliance Matrix: (Units=1/GPa)
#
#
# Indices 1 2 3 4 5 6 
#
# 1 0.013241 0.013045 -0.001221 0.000000 0.034035 0.000000
# 2 0.013045 0.062214 -0.002390 0.000000 0.090278 0.000000
# 3 -0.001221 -0.002390 0.008899 0.000000 -0.000763 0.000000
# 4 0.000000 0.000000 0.000000 0.045221 -0.000001 0.012219
# 5 0.034035 0.090278 -0.000763 -0.000001 0.227326 0.000000
# 6 0.000000 0.000000 0.000000 0.012219 0.000000 0.051362
#
#
# Mechanical properties :
#
#
# Convention : Reuss Voigt Hill
#
# Bulk Modulus (GPa) = 9.68775 37.72868 23.70822
# Shear Modulus (GPa) = 11.79798 28.37183 20.08490
#
# Velocity S-wave (km/s) = 2.40392 3.72786 3.13654
# Velocity P-wave (km/s) = 3.52850 6.08353 4.97291
#
# Compressibility (1/GPa) = 0.10322311
#
# Stress axis : x y z
#
# Youngs Moduli (GPa) = 75.52446 16.07367 112.36591
#
# Poissons Ratio (x) = -0.20968 0.13715
# Poissons Ratio (y) = -0.98520 0.26851
# Poissons Ratio (z) = 0.09218 0.03841
#
# Static dielectric constant tensor:
#      x y z
#    x 1.782300 0.000000 -0.034320 
#    y 0.000000 1.696130 0.000000 
#    z -0.034320 0.000000 1.749080 
# 
# From -- ./inp_files/156170.got.cif
#   From: 2010.05.17/outbox.cif.g08.bks.cpg/sg15_79_cif.got.tgz:156170.got - 2010.06.03 18:47:42.
