data_PCOD9266725
_publ_section_title
;
Structure prediction by ZEFSAII (Michael W. Deem and Ramdas Pophale) SiO2 
 PCOD9266725
Probable space group: C 2/C
;
_chemical_formula_sum "Si O2"
_cell_formula_units_Z 40
_cell_length_a 16.517299
_cell_length_b 9.364386
_cell_length_c 11.787699
_cell_angle_alpha 90.000000
_cell_angle_beta 106.157950
_cell_angle_gamma 90.000000
_cell_volume 1751.232959
_symmetry_space_group_name_H-M "C 2/C"
_symmetry_group_IT_number 15
_symmetry_cell_setting 'monoclinic'
loop_
_space_group_symop_operation_xyz
x,y,z
-x,y,1/2-z
-x,-y,-z
x,-y,1/2+z
1/2+x,1/2+y,z
1/2-x,1/2+y,1/2-z
1/2-x,1/2-y,-z
1/2+x,1/2-y,1/2+z
loop_
_atom_site_type_symbol
_atom_site_label
_atom_site_fract_x
_atom_site_fract_y
_atom_site_fract_z
Si Si1 0.265846 0.776286 0.330892
Si Si2 0.838131 0.258820 0.934103
Si Si3 0.592094 0.054661 0.503839
Si Si4 0.015250 0.185436 0.881607
Si Si5 0.176378 0.960802 0.480959
O O1 0.229533 0.745064 0.193869
O O2 0.205104 0.886326 0.375229
O O3 0.272330 0.628051 0.403673
O O4 0.356878 0.854623 0.380839
O O5 0.853843 0.413192 0.996062
O O6 0.928158 0.219191 0.909703
O O7 0.817198 0.129831 0.009800
O O8 0.500000 0.000000 0.500000
O O9 0.571388 0.168196 0.397683
O O10 0.000000 0.131676 0.750000
O O11 0.078794 0.077405 0.966047
#
# Coordination Sequence:
#
# PCOD9266725 Si02
#       5
#     8   8   8   8   8
#     4  10  20  37  58  84 117 155 193 238 302 352
#     4  11  20  36  61  85 115 152 196 247 291 346
#     4   9  21  37  58  86 116 154 197 240 292 359
#     4  10  19  38  60  81 117 161 192 234 302 359
#     4  10  21  35  58  87 114 151 198 240 289 357
#
# _framework density 22.841051
#
# number of rings (size 3 to 8) (size 9 to 14) (size 15 to 20)
#    0.000    2.000    2.000    1.800    0.000    0.800 
#    0.000    1.000    8.800    0.000    0.000    0.000 
#    0.000    0.000    0.000    0.000    0.000    0.000 
#
# Total GULP energy -111674.767634 kJ/mol
# GULP energy per Si atom -5583.738382 kJ/mol
# Density = 2.278906 g / cm^3
# Si number density = 22.841051 Si / 1000 Ang^3
#
#
#
# Elastic Constant Matrix: (Units=GPa)
#
#
# Indices 1 2 3 4 5 6 
#
# 1 103.5502 7.3387 20.4439 0.0000 23.3357 0.0000
# 2 7.3387 160.4522 30.5957 0.0000 7.1875 0.0000
# 3 20.4439 30.5957 67.4499 0.0000 16.4761 0.0000
# 4 0.0000 0.0000 0.0000 11.5239 0.0000 3.2533
# 5 23.3357 7.1875 16.4761 0.0000 34.2102 0.0000
# 6 0.0000 0.0000 0.0000 3.2533 0.0000 35.3757
#
#
#
# Elastic Compliance Matrix: (Units=1/GPa)
#
#
# Indices 1 2 3 4 5 6 
#
# 1 0.011603 0.000139 -0.001858 0.000000 -0.007049 0.000000
# 2 0.000139 0.006824 -0.003133 0.000000 -0.000020 0.000000
# 3 -0.001858 -0.003133 0.018518 0.000000 -0.006993 0.000000
# 4 0.000000 0.000000 0.000000 0.089089 0.000000 -0.008193
# 5 -0.007049 -0.000020 -0.006993 0.000000 0.037411 0.000000
# 6 0.000000 0.000000 0.000000 -0.008193 0.000000 0.029021
#
#
# Mechanical properties :
#
#
# Convention : Reuss Voigt Hill
#
# Bulk Modulus (GPa) = 36.70812 49.80101 43.25456
# Shear Modulus (GPa) = 23.66853 34.42690 29.04771
#
# Velocity S-wave (km/s) = 3.22254 3.88653 3.57001
# Velocity P-wave (km/s) = 5.47288 6.48003 5.99763
#
# Compressibility (1/GPa) = 0.02724193
#
# Stress axis : x y z
#
# Youngs Moduli (GPa) = 86.18743 146.53517 54.00070
#
# Poissons Ratio (x) = -0.02043 0.10034
# Poissons Ratio (y) = -0.01201 0.16918
# Poissons Ratio (z) = 0.16015 0.45908
#
# Static dielectric constant tensor:
#      x y z
#    x 1.925250 0.000000 0.042380 
#    y 0.000000 1.884490 0.000000 
#    z 0.042380 0.000000 1.779870 
# 
# From -- ./inp_files/159096.got.cif
#   From: 2010.05.17/outbox.cif.g08.bks.cpg/sg15_80_cif.got.tgz:159096.got - 2010.06.03 18:47:42.
