data_PCOD9266393
_publ_section_title
;
Structure prediction by ZEFSAII (Michael W. Deem and Ramdas Pophale) SiO2 
 PCOD9266393
Probable space group: C 2/C
;
_chemical_formula_sum "Si O2"
_cell_formula_units_Z 48
_cell_length_a 13.280249
_cell_length_b 12.606158
_cell_length_c 12.609261
_cell_angle_alpha 90.000000
_cell_angle_beta 77.684605
_cell_angle_gamma 90.000000
_cell_volume 2062.376545
_symmetry_space_group_name_H-M "C 2/C"
_symmetry_group_IT_number 15
_symmetry_cell_setting 'monoclinic'
loop_
_space_group_symop_operation_xyz
x,y,z
-x,y,1/2-z
-x,-y,-z
x,-y,1/2+z
1/2+x,1/2+y,z
1/2-x,1/2+y,1/2-z
1/2-x,1/2-y,-z
1/2+x,1/2-y,1/2+z
loop_
_atom_site_type_symbol
_atom_site_label
_atom_site_fract_x
_atom_site_fract_y
_atom_site_fract_z
Si Si1 0.861417 0.304470 0.772711
Si Si2 0.085695 0.392869 0.317872
Si Si3 0.009409 0.343468 0.557053
Si Si4 0.177054 0.072107 0.801382
Si Si5 0.370133 0.349894 0.737076
Si Si6 0.146555 0.180527 0.014995
O O1 0.927748 0.370510 0.670184
O O2 0.868437 0.179695 0.740684
O O3 0.746331 0.339123 0.778123
O O4 0.895295 0.317108 0.886693
O O5 0.202870 0.429751 0.265073
O O6 0.086957 0.263634 0.307763
O O7 0.000000 0.426614 0.250000
O O8 0.050046 0.411032 0.447464
O O9 0.945875 0.248149 0.515311
O O10 0.106204 0.969727 0.800641
O O11 0.177003 0.089151 0.927371
O O12 0.378623 0.352491 0.861557
O O13 0.250000 0.250000 0.000000
#
# Coordination Sequence:
#
# PCOD9266393 Si02
#       6
#     8   8   8   8   8   8
#     4   9  21  40  59  85 127 165 198 256 328 364
#     4  11  21  39  63  92 120 161 216 263 299 368
#     4  10  19  37  64  85 118 162 204 260 312 359
#     4  10  23  38  60  92 122 166 211 250 316 375
#     4  11  22  39  63  90 123 168 210 252 315 377
#     4  11  18  41  64  81 128 177 201 242 324 385
#
# _framework density 23.274121999999998
#
# number of rings (size 3 to 8) (size 9 to 14) (size 15 to 20)
#    0.000    1.667    6.667    0.000    0.000    5.333 
#    9.000    5.000    0.000    0.000    0.000    0.000 
#    0.000    0.000    0.000    0.000    0.000    0.000 
#
# Total GULP energy -133820.589719 kJ/mol
# GULP energy per Si atom -5575.857905 kJ/mol
# Density = 2.322115 g / cm^3
# Si number density = 23.274122 Si / 1000 Ang^3
#
#
#
# Elastic Constant Matrix: (Units=GPa)
#
#
# Indices 1 2 3 4 5 6 
#
# 1 118.7196 6.1385 40.7928 0.0000 24.2856 0.0000
# 2 6.1385 97.4395 39.7771 0.0000 -2.1251 0.0000
# 3 40.7928 39.7771 163.1911 0.0000 30.2536 0.0000
# 4 0.0000 0.0000 0.0000 34.5001 0.0000 -0.6724
# 5 24.2856 -2.1251 30.2536 0.0000 43.0056 0.0000
# 6 0.0000 0.0000 0.0000 -0.6724 0.0000 20.1074
#
#
#
# Elastic Compliance Matrix: (Units=1/GPa)
#
#
# Indices 1 2 3 4 5 6 
#
# 1 0.009897 -0.000051 -0.001638 0.000000 -0.004439 0.000000
# 2 -0.000051 0.011719 -0.003400 0.000000 0.003000 0.000000
# 3 -0.001638 -0.003400 0.008309 0.000000 -0.005088 0.000000
# 4 0.000000 0.000000 0.000000 0.029004 0.000000 0.000970
# 5 -0.004439 0.003000 -0.005088 0.000000 0.029487 0.000000
# 6 0.000000 0.000000 0.000000 0.000970 0.000000 0.049765
#
#
# Mechanical properties :
#
#
# Convention : Reuss Voigt Hill
#
# Bulk Modulus (GPa) = 50.64300 61.41854 56.03077
# Shear Modulus (GPa) = 32.26978 39.03207 35.65092
#
# Velocity S-wave (km/s) = 3.72763 4.09963 3.91805
# Velocity P-wave (km/s) = 6.35087 6.98969 6.67792
#
# Compressibility (1/GPa) = 0.01974606
#
# Stress axis : x y z
#
# Youngs Moduli (GPa) = 101.04215 85.32915 120.34651
#
# Poissons Ratio (x) = 0.00439 0.19719
# Poissons Ratio (y) = 0.00520 0.40916
# Poissons Ratio (z) = 0.16556 0.29010
#
# Static dielectric constant tensor:
#      x y z
#    x 1.865750 0.000000 -0.048920 
#    y 0.000000 1.937750 0.000000 
#    z -0.048920 0.000000 1.812260 
# 
# From -- ./inp_files/96314.got.cif
#   From: 2010.05.17/outbox.cif.g08.bks.cpg/sg15_49_cif.got.tgz:96314.got - 2010.06.03 18:47:42.
