data_PCOD9266220
_publ_section_title
;
Structure prediction by ZEFSAII (Michael W. Deem and Ramdas Pophale) SiO2 
 PCOD9266220
Probable space group: C 2/C
;
_chemical_formula_sum "Si O2"
_cell_formula_units_Z 64
_cell_length_a 32.419146
_cell_length_b 7.197045
_cell_length_c 19.523650
_cell_angle_alpha 90.000000
_cell_angle_beta 144.267150
_cell_angle_gamma 90.000000
_cell_volume 2660.324679
_symmetry_space_group_name_H-M "C 2/C"
_symmetry_group_IT_number 15
_symmetry_cell_setting 'monoclinic'
loop_
_space_group_symop_operation_xyz
x,y,z
-x,y,1/2-z
-x,-y,-z
x,-y,1/2+z
1/2+x,1/2+y,z
1/2-x,1/2+y,1/2-z
1/2-x,1/2-y,-z
1/2+x,1/2-y,1/2+z
loop_
_atom_site_type_symbol
_atom_site_label
_atom_site_fract_x
_atom_site_fract_y
_atom_site_fract_z
Si Si1 0.686070 0.226079 0.088292
Si Si2 0.211204 0.369738 0.890990
Si Si3 0.669683 0.194101 0.913533
Si Si4 0.363518 0.271908 0.337805
Si Si5 0.157470 0.208755 0.153860
Si Si6 0.652417 0.603181 0.000941
Si Si7 0.500947 0.686299 0.955893
Si Si8 0.054000 0.980188 0.263224
O O1 0.663654 0.154187 0.133541
O O2 0.769905 0.266920 0.212201
O O3 0.633090 0.403220 0.007353
O O4 0.674602 0.129177 0.999715
O O5 0.157048 0.516506 0.848594
O O6 0.178988 0.244725 0.789451
O O7 0.277020 0.461011 0.941351
O O8 0.250000 0.250000 0.000000
O O9 0.610624 0.354942 0.822300
O O10 0.750000 0.250000 0.000000
O O11 0.350760 0.488123 0.339818
O O12 0.440061 0.207838 0.414879
O O13 0.166467 0.232149 0.084032
O O14 0.078322 0.276219 0.062896
O O15 0.599278 0.665180 0.870647
O O16 0.479602 0.616734 0.849425
O O17 0.500000 0.500000 0.000000
O O18 0.000000 0.048090 0.250000
#
# Coordination Sequence:
#
# PCOD9266220 Si02
#       8
#     8   8   8   8   8   8   8   8
#     4  10  20  37  61  87 126 157 214 259 306 372
#     4  12  22  38  61  91 128 159 207 261 317 370
#     4  11  24  39  64  94 124 167 216 257 314 376
#     4  10  22  35  58  91 124 158 202 267 315 366
#     4  10  19  37  61  93 118 161 212 259 313 373
#     4  10  20  36  60  95 118 162 209 260 312 370
#     4  10  22  35  63  92 123 159 215 262 315 379
#     4  11  21  39  64  92 128 166 215 264 313 384
#
# _framework density 24.057214999999999
#
# number of rings (size 3 to 8) (size 9 to 14) (size 15 to 20)
#    0.000    1.500    5.000    1.500    5.250    0.000 
#    0.000    0.000    2.750    6.750    0.000    0.000 
#    0.000    0.000    0.000    0.000    0.000    0.000 
#
# Total GULP energy -178203.985364 kJ/mol
# GULP energy per Si atom -5568.874543 kJ/mol
# Density = 2.400246 g / cm^3
# Si number density = 24.057215 Si / 1000 Ang^3
#
#
#
# Elastic Constant Matrix: (Units=GPa)
#
#
# Indices 1 2 3 4 5 6 
#
# 1 155.1429 26.9511 64.5867 0.0000 -6.5584 0.0000
# 2 26.9511 45.8802 18.4770 0.0000 -8.6707 -0.0001
# 3 64.5867 18.4770 127.8441 0.0000 -10.9719 0.0000
# 4 0.0000 0.0000 0.0000 21.4523 0.0000 -2.9864
# 5 -6.5584 -8.6707 -10.9719 0.0000 52.5348 0.0000
# 6 0.0000 -0.0001 0.0000 -2.9864 0.0000 23.6081
#
#
#
# Elastic Compliance Matrix: (Units=1/GPa)
#
#
# Indices 1 2 3 4 5 6 
#
# 1 0.008676 -0.003590 -0.003892 0.000000 -0.000322 0.000000
# 2 -0.003590 0.025162 -0.001532 0.000000 0.003385 0.000000
# 3 -0.003892 -0.001532 0.010128 0.000000 0.001376 0.000000
# 4 0.000000 0.000000 0.000000 0.047451 0.000000 0.006002
# 5 -0.000322 0.003385 0.001376 0.000000 0.019841 0.000000
# 6 0.000000 0.000000 0.000000 0.006002 0.000000 0.043118
#
#
# Mechanical properties :
#
#
# Convention : Reuss Voigt Hill
#
# Bulk Modulus (GPa) = 38.55537 60.98856 49.77196
# Shear Modulus (GPa) = 27.61693 34.10920 30.86307
#
# Velocity S-wave (km/s) = 3.39184 3.76950 3.58565
# Velocity P-wave (km/s) = 5.60364 6.65973 6.15438
#
# Compressibility (1/GPa) = 0.02593673
#
# Stress axis : x y z
#
# Youngs Moduli (GPa) = 115.26197 39.74319 98.73824
#
# Poissons Ratio (x) = 0.14268 0.38427
# Poissons Ratio (y) = 0.41379 0.15131
# Poissons Ratio (z) = 0.44858 0.06090
#
# Static dielectric constant tensor:
#      x y z
#    x 2.163030 0.000000 0.063760 
#    y 0.000000 2.326170 0.000000 
#    z 0.063760 0.000000 2.017370 
# 
# From -- ./inp_files/224614.got.cif
#   From: 2010.05.17/outbox.cif.g08.bks.cpg/sg15_113_cif.got.tgz:224614.got - 2010.06.03 18:47:42.
