data_PCOD9266170
_publ_section_title
;
Structure prediction by ZEFSAII (Michael W. Deem and Ramdas Pophale) SiO2 
 PCOD9266170
Probable space group: C 2/C
;
_chemical_formula_sum "Si O2"
_cell_formula_units_Z 56
_cell_length_a 23.661925
_cell_length_b 19.321396
_cell_length_c 18.567219
_cell_angle_alpha 90.000000
_cell_angle_beta 19.858511
_cell_angle_gamma 90.000000
_cell_volume 2883.561155
_symmetry_space_group_name_H-M "C 2/C"
_symmetry_group_IT_number 15
_symmetry_cell_setting 'monoclinic'
loop_
_space_group_symop_operation_xyz
x,y,z
-x,y,1/2-z
-x,-y,-z
x,-y,1/2+z
1/2+x,1/2+y,z
1/2-x,1/2+y,1/2-z
1/2-x,1/2-y,-z
1/2+x,1/2-y,1/2+z
loop_
_atom_site_type_symbol
_atom_site_label
_atom_site_fract_x
_atom_site_fract_y
_atom_site_fract_z
Si Si1 0.828937 0.983237 0.748274
Si Si2 0.159666 0.214238 0.822541
Si Si3 0.214945 0.446608 0.685912
Si Si4 0.193652 0.301460 0.505821
Si Si5 0.165645 0.420929 0.336927
Si Si6 0.303161 0.046019 0.463941
Si Si7 0.811926 0.152367 0.185307
O O1 0.773652 0.907928 0.788377
O O2 0.705245 0.040983 0.864787
O O3 0.000000 0.000000 0.500000
O O4 0.812028 0.992348 0.853755
O O5 0.267003 0.223754 0.621106
O O6 0.243310 0.152498 0.768584
O O7 0.174321 0.287858 0.843630
O O8 0.980240 0.189676 0.009981
O O9 0.230689 0.523458 0.700779
O O10 0.218556 0.453159 0.596056
O O11 0.331929 0.391065 0.586446
O O12 0.032736 0.418391 0.928675
O O13 0.250000 0.250000 0.500000
O O14 0.260957 0.378477 0.434960
O O15 0.000000 0.309323 0.750000
O O16 0.500000 0.036047 0.250000
#
# Coordination Sequence:
#
# PCOD9266170 Si02
#       7
#     8   8   8   8   8   8   8
#     4  11  20  39  62  88 124 167 207 260 305 370
#     4  12  21  39  57  86 122 167 201 256 308 374
#     4  10  21  36  59  94 116 164 204 256 301 380
#     4  11  21  32  53  81 122 157 189 237 298 372
#     4  10  19  37  61  83 127 155 211 249 309 368
#     4  11  20  37  60  89 123 162 207 251 310 365
#     4  11  24  37  63  90 124 162 213 251 316 371
#
# _framework density 19.420431000000001
#
# number of rings (size 3 to 8) (size 9 to 14) (size 15 to 20)
#    0.000    1.143    4.286    3.429    0.000    0.000 
#    0.000    5.714    0.000    0.857    0.000    0.000 
#    0.000    0.000    0.000    0.000    0.000    0.000 
#
# Total GULP energy -156258.047858 kJ/mol
# GULP energy per Si atom -5580.644566 kJ/mol
# Density = 1.937623 g / cm^3
# Si number density = 19.420431 Si / 1000 Ang^3
#
#
#
# Elastic Constant Matrix: (Units=GPa)
#
#
# Indices 1 2 3 4 5 6 
#
# 1 105.7383 69.5344 25.8786 0.0148 4.7424 -0.0108
# 2 69.5344 145.3722 27.7180 0.0008 6.6492 -0.0117
# 3 25.8786 27.7180 55.2042 -0.0101 -2.9998 0.0065
# 4 0.0148 0.0008 -0.0101 16.3974 0.0007 -5.3385
# 5 4.7424 6.6492 -2.9998 0.0007 20.4592 0.0021
# 6 -0.0108 -0.0117 0.0065 -5.3385 0.0021 45.0052
#
#
#
# Elastic Compliance Matrix: (Units=1/GPa)
#
#
# Indices 1 2 3 4 5 6 
#
# 1 0.014506 -0.006119 -0.003833 -0.000015 -0.001936 0.000001
# 2 -0.006119 0.010383 -0.002471 0.000004 -0.002318 0.000002
# 3 -0.003833 -0.002471 0.021414 0.000016 0.004831 -0.000003
# 4 -0.000015 0.000004 0.000016 0.063435 0.000001 0.007525
# 5 -0.001936 -0.002318 0.004831 0.000001 0.050788 -0.000004
# 6 0.000001 0.000002 -0.000003 0.007525 -0.000004 0.023112
#
#
# Mechanical properties :
#
#
# Convention : Reuss Voigt Hill
#
# Bulk Modulus (GPa) = 46.60293 61.39742 54.00017
# Shear Modulus (GPa) = 23.18704 28.58462 25.88583
#
# Velocity S-wave (km/s) = 3.45911 3.84068 3.65487
# Velocity P-wave (km/s) = 6.32478 7.16598 6.75848
#
# Compressibility (1/GPa) = 0.02145788
#
# Stress axis : x y z
#
# Youngs Moduli (GPa) = 68.93547 96.31137 46.69750
#
# Poissons Ratio (x) = 0.58936 0.17899
# Poissons Ratio (y) = 0.42184 0.11537
# Poissons Ratio (z) = 0.26423 0.23795
#
# Static dielectric constant tensor:
#      x y z
#    x 1.736150 0.000000 -0.042420 
#    y 0.000000 1.725310 0.000000 
#    z -0.042420 0.000000 1.704340 
# 
# From -- ./inp_files/220172.got.cif
#   From: 2010.05.17/outbox.cif.g08.bks.cpg/sg15_111_cif.got.tgz:220172.got - 2010.06.03 18:47:42.
