data_PCOD9266216
_publ_section_title
;
Structure prediction by ZEFSAII (Michael W. Deem and Ramdas Pophale) SiO2 
 PCOD9266216
Probable space group: C 2/C
;
_chemical_formula_sum "Si O2"
_cell_formula_units_Z 52
_cell_length_a 5.008352
_cell_length_b 27.280766
_cell_length_c 19.183245
_cell_angle_alpha 90.000000
_cell_angle_beta 107.886995
_cell_angle_gamma 90.000000
_cell_volume 2494.348808
_symmetry_space_group_name_H-M "C 2/C"
_symmetry_group_IT_number 15
_symmetry_cell_setting 'monoclinic'
loop_
_space_group_symop_operation_xyz
x,y,z
-x,y,1/2-z
-x,-y,-z
x,-y,1/2+z
1/2+x,1/2+y,z
1/2-x,1/2+y,1/2-z
1/2-x,1/2-y,-z
1/2+x,1/2-y,1/2+z
loop_
_atom_site_type_symbol
_atom_site_label
_atom_site_fract_x
_atom_site_fract_y
_atom_site_fract_z
Si Si1 0.969821 0.159087 0.827782
Si Si2 0.230635 0.087391 0.097151
Si Si3 0.691526 0.760522 0.696826
Si Si4 0.799220 0.133180 0.167201
Si Si5 0.000000 0.580031 0.750000
Si Si6 0.226231 0.413270 0.057569
Si Si7 0.802176 0.471169 0.104665
O O1 0.905777 0.212369 0.853668
O O2 0.732036 0.117561 0.798624
O O3 0.000000 0.173497 0.750000
O O4 0.227141 0.131573 0.884920
O O5 0.508999 0.105974 0.157445
O O6 0.962032 0.108289 0.115882
O O7 0.254754 0.028696 0.094866
O O8 0.251524 0.105503 0.019194
O O9 0.500000 0.772991 0.750000
O O10 0.725798 0.809362 0.653845
O O11 0.000000 0.747633 0.750000
O O12 0.000000 0.129526 0.250000
O O13 0.984449 0.543459 0.814955
O O14 0.493289 0.448795 0.090014
O O15 0.947141 0.444137 0.050872
#
# Coordination Sequence:
#
# PCOD9266216 Si02
#       7
#     8   8   8   8   4   8   8
#     4  10  19  37  61  92 121 159 204 265 318 366
#     4  12  24  42  62  88 128 171 205 255 314 371
#     4  10  20  37  64  89 121 159 208 266 327 374
#     4  11  24  42  62  89 118 162 218 260 306 375
#     4  10  20  34  58  92 120 150 210 264 296 360
#     4  11  23  40  62  91 129 165 207 251 314 385
#     4  11  23  38  61  89 127 164 211 248 313 367
#
# _framework density 20.847125999999999
#
# number of rings (size 3 to 8) (size 9 to 14) (size 15 to 20)
#    0.000    1.231    2.308    5.077    2.154    0.000 
#    0.000    1.538    0.000    0.000    0.000    0.000 
#    0.000    0.000    0.000    0.000    0.000    0.000 
#
# Total GULP energy -144967.478193 kJ/mol
# GULP energy per Si atom -5575.672238 kJ/mol
# Density = 2.079968 g / cm^3
# Si number density = 20.847126 Si / 1000 Ang^3
#
#
#
# Elastic Constant Matrix: (Units=GPa)
#
#
# Indices 1 2 3 4 5 6 
#
# 1 80.5485 21.5686 -8.3366 0.0000 -9.7750 0.0000
# 2 21.5686 102.1759 16.3211 0.0000 -1.6498 0.0000
# 3 -8.3366 16.3211 57.8648 0.0000 -12.7276 0.0000
# 4 0.0000 0.0000 0.0000 3.1937 0.0000 -4.9991
# 5 -9.7750 -1.6498 -12.7276 0.0000 28.2887 0.0000
# 6 0.0000 0.0000 0.0000 -4.9991 0.0000 30.4919
#
#
#
# Elastic Compliance Matrix: (Units=1/GPa)
#
#
# Indices 1 2 3 4 5 6 
#
# 1 0.014761 -0.003758 0.004728 0.000000 0.007009 0.000000
# 2 -0.003758 0.011221 -0.004271 0.000000 -0.002566 0.000000
# 3 0.004728 -0.004271 0.021611 0.000000 0.011108 0.000000
# 4 0.000000 0.000000 0.000000 0.421216 0.000000 0.069058
# 5 0.007009 -0.002566 0.011108 0.000000 0.042620 0.000000
# 6 0.000000 0.000000 0.000000 0.069058 0.000000 0.044118
#
#
# Mechanical properties :
#
#
# Convention : Reuss Voigt Hill
#
# Bulk Modulus (GPa) = 24.39514 33.29947 28.84730
# Shear Modulus (GPa) = 8.68340 26.46393 17.57367
#
# Velocity S-wave (km/s) = 2.04311 3.56677 2.90656
# Velocity P-wave (km/s) = 4.15849 5.74198 5.01315
#
# Compressibility (1/GPa) = 0.04099178
#
# Stress axis : x y z
#
# Youngs Moduli (GPa) = 67.74560 89.11779 46.27346
#
# Poissons Ratio (x) = 0.33491 -0.21879
# Poissons Ratio (y) = 0.25459 0.19762
# Poissons Ratio (z) = -0.32032 0.38060
#
# Static dielectric constant tensor:
#      x y z
#    x 1.828130 0.000000 -0.081960 
#    y 0.000000 1.851840 0.000000 
#    z -0.081960 0.000000 1.846660 
# 
# From -- ./inp_files/185923.got.cif
#   From: 2010.05.17/outbox.cif.g08.bks.cpg/sg15_93_cif.got.tgz:185923.got - 2010.06.03 18:47:42.
