data_PCOD9266243
_publ_section_title
;
Structure prediction by ZEFSAII (Michael W. Deem and Ramdas Pophale) SiO2 
 PCOD9266243
Probable space group: C 2/C
;
_chemical_formula_sum "Si O2"
_cell_formula_units_Z 60
_cell_length_a 11.332522
_cell_length_b 8.060858
_cell_length_c 29.647313
_cell_angle_alpha 90.000000
_cell_angle_beta 106.892219
_cell_angle_gamma 90.000000
_cell_volume 2591.423705
_symmetry_space_group_name_H-M "C 2/C"
_symmetry_group_IT_number 15
_symmetry_cell_setting 'monoclinic'
loop_
_space_group_symop_operation_xyz
x,y,z
-x,y,1/2-z
-x,-y,-z
x,-y,1/2+z
1/2+x,1/2+y,z
1/2-x,1/2+y,1/2-z
1/2-x,1/2-y,-z
1/2+x,1/2-y,1/2+z
loop_
_atom_site_type_symbol
_atom_site_label
_atom_site_fract_x
_atom_site_fract_y
_atom_site_fract_z
Si Si1 0.415202 0.078412 0.901466
Si Si2 0.047598 0.528367 0.687304
Si Si3 0.128445 0.309713 0.009923
Si Si4 0.416492 0.313775 0.428403
Si Si5 0.543746 0.656037 0.665579
Si Si6 0.000000 0.957053 0.750000
Si Si7 0.167600 0.336256 0.283942
Si Si8 0.316544 0.876726 0.041541
O O1 0.373956 0.098913 0.845638
O O2 0.556748 0.146505 0.917000
O O3 0.396395 0.881927 0.912068
O O4 0.355133 0.179173 0.935160
O O5 0.004186 0.346392 0.668098
O O6 0.128822 0.531625 0.741367
O O7 0.925269 0.630697 0.685281
O O8 0.123986 0.491298 0.987158
O O9 0.015985 0.199260 0.979681
O O10 0.250000 0.250000 0.000000
O O11 0.474033 0.392718 0.389021
O O12 0.293582 0.400943 0.434156
O O13 0.490231 0.556155 0.701998
O O14 0.691738 0.656963 0.687968
O O15 0.880268 0.838918 0.740494
O O16 0.250000 0.750000 0.000000
#
# Coordination Sequence:
#
# PCOD9266243 Si02
#       8
#     8   8   8   8   8   4   8   8
#     4  10  19  37  62  84 114 153 199 234 284 349
#     4   9  20  37  62  86 112 157 197 232 294 357
#     4  11  23  39  53  87 126 147 188 247 288 342
#     4  10  21  39  60  86 111 155 201 231 286 353
#     4  11  21  39  63  86 116 155 197 239 291 351
#     4  10  22  38  58  90 120 144 194 250 286 348
#     4  10  21  41  59  86 122 149 192 245 299 343
#     4  11  18  37  64  79 109 160 195 233 284 340
#
# _framework density 23.153295
#
# number of rings (size 3 to 8) (size 9 to 14) (size 15 to 20)
#    0.000    1.867    2.667    3.200    0.000    0.533 
#   12.000    0.000    0.000    0.000    0.000    0.000 
#    0.000    0.000    0.000    0.000    0.000    0.000 
#
# Total GULP energy -167233.764064 kJ/mol
# GULP energy per Si atom -5574.458802 kJ/mol
# Density = 2.310060 g / cm^3
# Si number density = 23.153295 Si / 1000 Ang^3
#
#
#
# Elastic Constant Matrix: (Units=GPa)
#
#
# Indices 1 2 3 4 5 6 
#
# 1 75.3567 6.3210 -7.5455 0.0000 -19.7409 0.0000
# 2 6.3210 29.6891 9.6621 0.0000 -11.5825 0.0000
# 3 -7.5455 9.6621 117.0109 0.0000 -45.2705 0.0000
# 4 0.0000 0.0000 0.0000 -47.5024 0.0000 -80.5474
# 5 -19.7409 -11.5825 -45.2705 0.0000 38.7165 0.0000
# 6 0.0000 0.0000 0.0000 -80.5474 0.0000 -105.4022
#
#
#
# Elastic Compliance Matrix: (Units=1/GPa)
#
#
# Indices 1 2 3 4 5 6 
#
# 1 0.019774 0.001096 0.009518 0.000000 0.021540 0.000000
# 2 0.001096 0.038538 0.002858 0.000000 0.015430 0.000000
# 3 0.009518 0.002858 0.020329 0.000000 0.029478 0.000000
# 4 0.000000 0.000000 0.000000 0.071168 0.000000 -0.054386
# 5 0.021540 0.015430 0.029478 0.000000 0.075896 0.000000
# 6 0.000000 0.000000 0.000000 -0.054386 0.000000 0.032074
#
#
# Mechanical properties :
#
#
# Convention : Reuss Voigt Hill
#
# Bulk Modulus (GPa) = 9.47107 26.54797 18.00952
# Shear Modulus (GPa) = 18.79480 -8.59633 5.09923
#
# Velocity S-wave (km/s) = 2.85222 -1.92895 1.48565
# Velocity P-wave (km/s) = 3.86605 2.55537 3.27691
#
# Compressibility (1/GPa) = 0.10558464
#
# Stress axis : x y z
#
# Youngs Moduli (GPa) = 50.57132 25.94811 49.19104
#
# Poissons Ratio (x) = -0.02843 -0.46821
# Poissons Ratio (y) = -0.05540 -0.14058
# Poissons Ratio (z) = -0.48135 -0.07416
#
# Static dielectric constant tensor:
#      x y z
#    x 1.870910 0.000000 0.005810 
#    y 0.000000 1.829950 0.000000 
#    z 0.005810 0.000000 1.851600 
# 
# From -- ./inp_files/291575.got.cif
#   From: 2010.05.17/outbox.cif.g08.bks.cpg/sg15_146_cif.got.tgz:291575.got - 2010.06.03 18:47:42.
