data_PCOD9266425
_publ_section_title
;
Structure prediction by ZEFSAII (Michael W. Deem and Ramdas Pophale) SiO2 
 PCOD9266425
Probable space group: C 2/C
;
_chemical_formula_sum "Si O2"
_cell_formula_units_Z 52
_cell_length_a 8.801260
_cell_length_b 16.757673
_cell_length_c 18.866802
_cell_angle_alpha 90.000000
_cell_angle_beta 89.772760
_cell_angle_gamma 90.000000
_cell_volume 2782.617028
_symmetry_space_group_name_H-M "C 2/C"
_symmetry_group_IT_number 15
_symmetry_cell_setting 'monoclinic'
loop_
_space_group_symop_operation_xyz
x,y,z
-x,y,1/2-z
-x,-y,-z
x,-y,1/2+z
1/2+x,1/2+y,z
1/2-x,1/2+y,1/2-z
1/2-x,1/2-y,-z
1/2+x,1/2-y,1/2+z
loop_
_atom_site_type_symbol
_atom_site_label
_atom_site_fract_x
_atom_site_fract_y
_atom_site_fract_z
Si Si1 0.500000 0.430732 0.750000
Si Si2 0.852143 0.829043 0.875650
Si Si3 0.925504 0.919985 0.529360
Si Si4 0.936834 0.343646 0.330326
Si Si5 0.139406 0.598070 0.950656
Si Si6 0.729479 0.988542 0.660768
Si Si7 0.450851 0.080686 0.092284
O O1 0.437469 0.375918 0.812744
O O2 0.351356 0.478373 0.723291
O O3 0.855901 0.737006 0.854851
O O4 0.682704 0.861238 0.885022
O O5 0.951842 0.856428 0.943392
O O6 0.811087 0.884134 0.471938
O O7 0.820446 0.955001 0.592762
O O8 0.000000 0.000000 0.500000
O O9 0.828738 0.420618 0.341470
O O10 0.000000 0.340904 0.250000
O O11 0.076673 0.354216 0.384294
O O12 0.122608 0.504645 0.929563
O O13 0.035702 0.610203 0.020817
O O14 0.573129 0.937425 0.654408
#
# Coordination Sequence:
#
# PCOD9266425 Si02
#       7
#     4   8   8   8   8   8   8
#     4  10  22  40  60  86 118 162 212 242 292 366
#     4  11  22  37  62  89 124 157 194 257 308 348
#     4  10  19  37  64  93 116 153 208 256 294 357
#     4  11  24  39  58  88 127 162 195 251 306 357
#     4   9  19  37  60  88 118 151 203 246 297 358
#     4   9  22  38  62  87 116 160 210 243 296 364
#     4   9  18  36  62  90 112 152 202 250 293 359
#
# _framework density 18.687442999999998
#
# number of rings (size 3 to 8) (size 9 to 14) (size 15 to 20)
#    0.000    2.154    2.308    0.923    4.308    1.231 
#    0.000    1.538    0.000    0.000    0.000    0.000 
#    0.000    0.000    0.000    0.000    0.000    0.000 
#
# Total GULP energy -144960.013206 kJ/mol
# GULP energy per Si atom -5575.385123 kJ/mol
# Density = 1.864491 g / cm^3
# Si number density = 18.687443 Si / 1000 Ang^3
#
#
#
# Elastic Constant Matrix: (Units=GPa)
#
#
# Indices 1 2 3 4 5 6 
#
# 1 134.0085 61.6950 48.4918 0.0000 34.5603 0.0000
# 2 61.6950 96.4133 34.9900 0.0000 8.2049 0.0000
# 3 48.4918 34.9900 70.7907 0.0000 28.0391 0.0000
# 4 0.0000 0.0000 0.0000 5.9006 0.0000 4.6724
# 5 34.5603 8.2049 28.0391 0.0000 34.0145 0.0000
# 6 0.0000 0.0000 0.0000 4.6724 0.0000 12.8456
#
#
#
# Elastic Compliance Matrix: (Units=1/GPa)
#
#
# Indices 1 2 3 4 5 6 
#
# 1 0.014636 -0.007818 -0.001512 0.000000 -0.011738 0.000000
# 2 -0.007818 0.017042 -0.006810 0.000000 0.009446 0.000000
# 3 -0.001512 -0.006810 0.025640 0.000000 -0.017957 0.000000
# 4 0.000000 0.000000 0.000000 0.238034 0.000000 -0.086582
# 5 -0.011738 0.009446 -0.017957 0.000000 0.053850 0.000000
# 6 0.000000 0.000000 0.000000 -0.086582 0.000000 0.109341
#
#
# Mechanical properties :
#
#
# Convention : Reuss Voigt Hill
#
# Bulk Modulus (GPa) = 39.93713 65.72955 52.83334
# Shear Modulus (GPa) = 10.01668 20.95453 15.48560
#
# Velocity S-wave (km/s) = 2.31770 3.35224 2.88177
# Velocity P-wave (km/s) = 5.34601 7.08751 6.27745
#
# Compressibility (1/GPa) = 0.02503935
#
# Stress axis : x y z
#
# Youngs Moduli (GPa) = 68.32557 58.67834 39.00141
#
# Poissons Ratio (x) = 0.45873 0.05897
# Poissons Ratio (y) = 0.53415 0.26558
# Poissons Ratio (z) = 0.10331 0.39957
#
# Static dielectric constant tensor:
#      x y z
#    x 1.668880 0.000000 0.022530 
#    y 0.000000 1.626630 0.000000 
#    z 0.022530 0.000000 1.692600 
# 
# From -- ./inp_files/231242.got.cif
#   From: 2010.05.17/outbox.cif.g08.bks.cpg/sg15_116_cif.got.tgz:231242.got - 2010.06.03 18:47:42.
