data_PCOD9266011
_publ_section_title
;
Structure prediction by ZEFSAII (Michael W. Deem and Ramdas Pophale) SiO2 
 PCOD9266011
Probable space group: C 2/C
;
_chemical_formula_sum "Si O2"
_cell_formula_units_Z 56
_cell_length_a 9.710701
_cell_length_b 12.618055
_cell_length_c 19.801856
_cell_angle_alpha 90.000000
_cell_angle_beta 63.565211
_cell_angle_gamma 90.000000
_cell_volume 2172.632005
_symmetry_space_group_name_H-M "C 2/C"
_symmetry_group_IT_number 15
_symmetry_cell_setting 'monoclinic'
loop_
_space_group_symop_operation_xyz
x,y,z
-x,y,1/2-z
-x,-y,-z
x,-y,1/2+z
1/2+x,1/2+y,z
1/2-x,1/2+y,1/2-z
1/2-x,1/2-y,-z
1/2+x,1/2-y,1/2+z
loop_
_atom_site_type_symbol
_atom_site_label
_atom_site_fract_x
_atom_site_fract_y
_atom_site_fract_z
Si Si1 0.557361 0.611938 0.960634
Si Si2 0.054022 0.050814 0.808284
Si Si3 0.394396 0.101927 0.363002
Si Si4 0.770722 0.628614 0.256809
Si Si5 0.347189 0.340102 0.853763
Si Si6 0.991384 0.658291 0.481663
Si Si7 0.591968 0.876347 0.097999
O O1 0.563056 0.610070 0.877353
O O2 0.464840 0.717017 0.998230
O O3 0.500000 0.500000 0.000000
O O4 0.725094 0.625000 0.957164
O O5 0.216914 0.993633 0.759269
O O6 0.061849 0.950047 0.656361
O O7 0.000000 0.104979 0.750000
O O8 0.269036 0.143735 0.337621
O O9 0.556564 0.148913 0.304652
O O10 0.380985 0.120116 0.445837
O O11 0.416286 0.975463 0.350291
O O12 0.670027 0.685642 0.222310
O O13 0.430329 0.241588 0.870337
O O14 0.170572 0.351600 0.918302
O O15 0.987383 0.603199 0.555237
#
# Coordination Sequence:
#
# PCOD9266011 Si02
#       7
#     8   8   8   8   8   8   8
#     4  11  21  37  61  86 119 153 196 242 294 343
#     4  10  19  37  59  86 115 148 195 244 291 346
#     4  10  20  38  58  81 120 151 190 238 291 344
#     4   9  19  38  55  82 116 149 187 242 289 338
#     4   9  19  36  61  84 110 147 195 238 281 343
#     4  10  21  37  58  87 114 155 191 238 288 342
#     4  11  20  37  61  86 113 155 198 232 287 351
#
# _framework density 25.775189999999998
#
# number of rings (size 3 to 8) (size 9 to 14) (size 15 to 20)
#    0.000    2.000    1.429    3.857    0.000    0.000 
#   15.429    0.714    6.286    0.000    0.000    0.000 
#    0.000    0.000    0.000    0.000    0.000    0.000 
#
# Total GULP energy -156459.219364 kJ/mol
# GULP energy per Si atom -5587.829263 kJ/mol
# Density = 2.571652 g / cm^3
# Si number density = 25.775190 Si / 1000 Ang^3
#
#
#
# Elastic Constant Matrix: (Units=GPa)
#
#
# Indices 1 2 3 4 5 6 
#
# 1 91.5294 8.0045 42.5240 0.0000 43.7320 0.0000
# 2 8.0045 78.8564 17.4273 0.0000 9.5052 0.0000
# 3 42.5240 17.4273 122.7711 0.0000 59.8254 0.0000
# 4 0.0000 0.0000 0.0000 32.4055 0.0000 5.9414
# 5 43.7320 9.5052 59.8254 0.0000 67.1023 0.0000
# 6 0.0000 0.0000 0.0000 5.9414 0.0000 15.4776
#
#
#
# Elastic Compliance Matrix: (Units=1/GPa)
#
#
# Indices 1 2 3 4 5 6 
#
# 1 0.015917 -0.000282 -0.000774 0.000000 -0.009644 0.000000
# 2 -0.000282 0.013102 -0.001675 0.000000 -0.000179 0.000000
# 3 -0.000774 -0.001675 0.014658 0.000000 -0.012326 0.000000
# 4 0.000000 0.000000 0.000000 0.033195 0.000000 -0.012743
# 5 -0.009644 -0.000179 -0.012326 0.000000 0.032203 0.000000
# 6 0.000000 0.000000 0.000000 -0.012743 0.000000 0.069501
#
#
# Mechanical properties :
#
#
# Convention : Reuss Voigt Hill
#
# Bulk Modulus (GPa) = 26.16812 47.67426 36.92119
# Shear Modulus (GPa) = 25.40960 38.01050 31.71005
#
# Velocity S-wave (km/s) = 3.14318 3.84434 3.51130
# Velocity P-wave (km/s) = 4.83190 6.18398 5.54927
#
# Compressibility (1/GPa) = 0.03821444
#
# Stress axis : x y z
#
# Youngs Moduli (GPa) = 62.82434 76.32641 68.22384
#
# Poissons Ratio (x) = 0.02154 0.05280
# Poissons Ratio (y) = 0.01773 0.11427
# Poissons Ratio (z) = 0.04862 0.12785
#
# Static dielectric constant tensor:
#      x y z
#    x 2.038980 0.000000 -0.019100 
#    y 0.000000 1.993100 0.000000 
#    z -0.019100 0.000000 2.089180 
# 
# From -- ./inp_files/204772.got.cif
#   From: 2010.05.17/outbox.cif.g08.bks.cpg/sg15_103_cif.got.tgz:204772.got - 2010.06.03 18:47:42.
