data_PCOD9266385
_publ_section_title
;
Structure prediction by ZEFSAII (Michael W. Deem and Ramdas Pophale) SiO2 
 PCOD9266385
Probable space group: C 2/C
;
_chemical_formula_sum "Si O2"
_cell_formula_units_Z 40
_cell_length_a 7.935222
_cell_length_b 19.132052
_cell_length_c 11.472622
_cell_angle_alpha 90.000000
_cell_angle_beta 96.260009
_cell_angle_gamma 90.000000
_cell_volume 1731.354507
_symmetry_space_group_name_H-M "C 2/C"
_symmetry_group_IT_number 15
_symmetry_cell_setting 'monoclinic'
loop_
_space_group_symop_operation_xyz
x,y,z
-x,y,1/2-z
-x,-y,-z
x,-y,1/2+z
1/2+x,1/2+y,z
1/2-x,1/2+y,1/2-z
1/2-x,1/2-y,-z
1/2+x,1/2-y,1/2+z
loop_
_atom_site_type_symbol
_atom_site_label
_atom_site_fract_x
_atom_site_fract_y
_atom_site_fract_z
Si Si1 0.027339 0.771501 0.416372
Si Si2 0.635875 0.769679 0.181255
Si Si3 0.859762 0.956701 0.842918
Si Si4 0.822965 0.645977 0.319436
Si Si5 0.640707 0.401213 0.033009
O O1 0.188758 0.799856 0.357483
O O2 0.057197 0.758814 0.554953
O O3 0.981664 0.695427 0.362485
O O4 0.880891 0.828949 0.399854
O O5 0.500000 0.810854 0.250000
O O6 0.687268 0.703840 0.265785
O O7 0.701049 0.913802 0.779901
O O8 0.000000 0.960579 0.750000
O O9 0.958660 0.919098 0.957423
O O10 0.814083 0.033547 0.883593
O O11 0.768637 0.611315 0.436948
#
# Coordination Sequence:
#
# PCOD9266385 Si02
#       5
#     8   8   8   8   8
#     4  11  23  37  67 103 132 172 226 275 334 400
#     4  11  22  40  61  99 137 171 215 276 339 397
#     4   9  19  36  62  95 134 178 225 268 321 402
#     4  11  20  40  64  98 136 171 218 284 330 383
#     4  10  19  37  63  99 131 180 223 263 329 408
#
# _framework density 23.103297999999999
#
# number of rings (size 3 to 8) (size 9 to 14) (size 15 to 20)
#    0.000    1.600    4.000    1.800    0.000    1.600 
#    0.000    0.000    0.000    4.800    5.200    0.000 
#    0.000    0.000    0.000    0.000    0.000    0.000 
#
# Total GULP energy -111651.835108 kJ/mol
# GULP energy per Si atom -5582.591755 kJ/mol
# Density = 2.305071 g / cm^3
# Si number density = 23.103298 Si / 1000 Ang^3
#
#
#
# Elastic Constant Matrix: (Units=GPa)
#
#
# Indices 1 2 3 4 5 6 
#
# 1 74.3271 14.6616 27.0307 0.0000 -15.3542 0.0000
# 2 14.6616 109.0374 34.9925 0.0000 -1.7341 0.0000
# 3 27.0307 34.9925 118.7394 0.0000 -16.8731 0.0000
# 4 0.0000 0.0000 0.0000 49.6611 0.0000 -7.6331
# 5 -15.3542 -1.7341 -16.8731 0.0000 27.6063 0.0000
# 6 0.0000 0.0000 0.0000 -7.6331 0.0000 16.3265
#
#
#
# Elastic Compliance Matrix: (Units=1/GPa)
#
#
# Indices 1 2 3 4 5 6 
#
# 1 0.016068 -0.001336 -0.002197 0.000000 0.007510 0.000000
# 2 -0.001336 0.010283 -0.003001 0.000000 -0.001931 0.000000
# 3 -0.002197 -0.003001 0.010519 0.000000 0.005019 0.000000
# 4 0.000000 0.000000 0.000000 0.021696 0.000000 0.010143
# 5 0.007510 -0.001931 0.005019 0.000000 0.043347 0.000000
# 6 0.000000 0.000000 0.000000 0.010143 0.000000 0.065993
#
#
# Mechanical properties :
#
#
# Convention : Reuss Voigt Hill
#
# Bulk Modulus (GPa) = 42.01123 50.60816 46.30970
# Shear Modulus (GPa) = 26.46797 33.74670 30.10734
#
# Velocity S-wave (km/s) = 3.38840 3.82604 3.61385
# Velocity P-wave (km/s) = 5.79067 6.43979 6.12383
#
# Compressibility (1/GPa) = 0.02380316
#
# Stress axis : x y z
#
# Youngs Moduli (GPa) = 62.23568 97.24692 95.06184
#
# Poissons Ratio (x) = 0.12993 0.20884
# Poissons Ratio (y) = 0.08315 0.28525
# Poissons Ratio (z) = 0.13672 0.29181
#
# Static dielectric constant tensor:
#      x y z
#    x 1.988550 0.000000 0.007410 
#    y 0.000000 1.819130 0.000000 
#    z 0.007410 0.000000 1.878990 
# 
# From -- ./inp_files/76931.got.cif
#   From: 2010.05.17/outbox.cif.g08.bks.cpg/sg15_39_cif.got.tgz:76931.got - 2010.06.03 18:47:42.
