data_PCOD9266806
_publ_section_title
;
Structure prediction by ZEFSAII (Michael W. Deem and Ramdas Pophale) SiO2 
 PCOD9266806
Probable space group: C 2/C
;
_chemical_formula_sum "Si O2"
_cell_formula_units_Z 40
_cell_length_a 12.799421
_cell_length_b 13.867718
_cell_length_c 8.518450
_cell_angle_alpha 90.000000
_cell_angle_beta 93.147613
_cell_angle_gamma 90.000000
_cell_volume 1509.733274
_symmetry_space_group_name_H-M "C 2/C"
_symmetry_group_IT_number 15
_symmetry_cell_setting 'monoclinic'
loop_
_space_group_symop_operation_xyz
x,y,z
-x,y,1/2-z
-x,-y,-z
x,-y,1/2+z
1/2+x,1/2+y,z
1/2-x,1/2+y,1/2-z
1/2-x,1/2-y,-z
1/2+x,1/2-y,1/2+z
loop_
_atom_site_type_symbol
_atom_site_label
_atom_site_fract_x
_atom_site_fract_y
_atom_site_fract_z
Si Si1 0.326256 0.646885 0.963241
Si Si2 0.954161 0.201734 0.421994
Si Si3 0.134951 0.593788 0.093836
Si Si4 0.615784 0.887700 0.955295
Si Si5 0.618184 0.517415 0.230100
O O1 0.441775 0.695106 0.961013
O O2 0.203942 0.668404 0.995647
O O3 0.346599 0.578267 0.117556
O O4 0.318641 0.575802 0.814144
O O5 0.873351 0.284600 0.462056
O O6 0.000000 0.221276 0.250000
O O7 0.896188 0.098815 0.407019
O O8 0.154152 0.611542 0.279356
O O9 0.011064 0.603670 0.057407
O O10 0.155340 0.483123 0.044832
O O11 0.500000 0.484457 0.250000
#
# Coordination Sequence:
#
# PCOD9266806 Si02
#       5
#     8   8   8   8   8
#     4  10  19  38  61  88 116 150 197 239 287 349
#     4   9  20  37  61  84 118 155 190 237 298 348
#     4  10  22  38  60  83 115 154 198 239 287 349
#     4  10  22  40  60  81 118 159 195 234 300 347
#     4   9  18  36  60  88 118 152 183 237 302 349
#
# _framework density 26.494747
#
# number of rings (size 3 to 8) (size 9 to 14) (size 15 to 20)
#    0.000    2.800    0.000    3.600    5.600    0.800 
#   10.800    9.000    0.000    0.000    0.000    0.000 
#    0.000    0.000    0.000    0.000    0.000    0.000 
#
# Total GULP energy -111715.909729 kJ/mol
# GULP energy per Si atom -5585.795486 kJ/mol
# Density = 2.643444 g / cm^3
# Si number density = 26.494747 Si / 1000 Ang^3
#
#
#
# Elastic Constant Matrix: (Units=GPa)
#
#
# Indices 1 2 3 4 5 6 
#
# 1 95.1611 11.1913 -5.7479 0.0000 -5.2345 0.0000
# 2 11.1913 57.7357 7.3521 0.0000 -14.9360 0.0000
# 3 -5.7479 7.3521 22.6832 0.0000 -5.8609 0.0000
# 4 0.0000 0.0000 0.0000-1197.4158 0.0000 1309.3898
# 5 -5.2345 -14.9360 -5.8609 0.0000 39.4644 0.0000
# 6 0.0000 0.0000 0.0000 1309.3898 0.0000-1374.8736
#
#
#
# Elastic Compliance Matrix: (Units=1/GPa)
#
#
# Indices 1 2 3 4 5 6 
#
# 1 0.011081 -0.002341 0.003866 0.000000 0.001158 0.000000
# 2 -0.002341 0.020151 -0.005443 0.000000 0.006508 0.000000
# 3 0.003866 -0.005443 0.048282 0.000000 0.005623 0.000000
# 4 0.000000 0.000000 0.000000 0.020158 0.000000 0.019197
# 5 0.001158 0.006508 0.005623 0.000000 0.028791 0.000000
# 6 0.000000 0.000000 0.000000 0.019197 0.000000 0.017556
#
#
# Mechanical properties :
#
#
# Convention : Reuss Voigt Hill
#
# Bulk Modulus (GPa) = 13.95126 22.35235 18.15180
# Shear Modulus (GPa) = 28.13001 -495.71270 -233.79134
#
# Velocity S-wave (km/s) = 3.26194 -13.69323 -9.40384
# Velocity P-wave (km/s) = 4.41181 15.54192 10.53772
#
# Compressibility (1/GPa) = 0.07167812
#
# Stress axis : x y z
#
# Youngs Moduli (GPa) = 90.24494 49.62632 20.71162
#
# Poissons Ratio (x) = 0.11615 -0.08007
# Poissons Ratio (y) = 0.21123 0.11273
# Poissons Ratio (z) = -0.34886 0.27011
#
# Static dielectric constant tensor:
#      x y z
#    x 2.218810 0.000000 -0.007320 
#    y 0.000000 2.244300 0.000000 
#    z -0.007320 0.000000 2.038350 
# 
# From -- ./inp_files/37963.got.cif
#   From: 2010.05.17/outbox.cif.g08.bks.cpg/sg15_19_cif.got.tgz:37963.got - 2010.06.03 18:47:42.
