data_PCOD9266926
_publ_section_title
;
Structure prediction by ZEFSAII (Michael W. Deem and Ramdas Pophale) SiO2 
 PCOD9266926
Probable space group: C 2/C
;
_chemical_formula_sum "Si O2"
_cell_formula_units_Z 40
_cell_length_a 14.081271
_cell_length_b 10.019953
_cell_length_c 24.958498
_cell_angle_alpha 90.000000
_cell_angle_beta 30.016055
_cell_angle_gamma 90.000000
_cell_volume 1761.597579
_symmetry_space_group_name_H-M "C 2/C"
_symmetry_group_IT_number 15
_symmetry_cell_setting 'monoclinic'
loop_
_space_group_symop_operation_xyz
x,y,z
-x,y,1/2-z
-x,-y,-z
x,-y,1/2+z
1/2+x,1/2+y,z
1/2-x,1/2+y,1/2-z
1/2-x,1/2-y,-z
1/2+x,1/2-y,1/2+z
loop_
_atom_site_type_symbol
_atom_site_label
_atom_site_fract_x
_atom_site_fract_y
_atom_site_fract_z
Si Si1 0.480426 0.349723 0.487600
Si Si2 0.300352 0.479551 0.360970
Si Si3 0.053821 0.613725 0.394888
Si Si4 0.754447 0.256866 0.434591
Si Si5 0.411486 0.051449 0.349536
O O1 0.500000 0.500000 0.500000
O O2 0.606886 0.267894 0.382630
O O3 0.544805 0.268504 0.509599
O O4 0.281786 0.364669 0.554368
O O5 0.500000 0.410696 0.250000
O O6 0.147749 0.411248 0.475298
O O7 0.343564 0.621813 0.368313
O O8 0.196870 0.516788 0.356012
O O9 0.031725 0.581810 0.343635
O O10 0.750000 0.250000 0.500000
O O11 0.862549 0.394091 0.369314
O O12 0.500000 0.089460 0.250000
#
# Coordination Sequence:
#
# PCOD9266926 Si02
#       5
#     8   8   8   8   8
#     4   9  21  39  61  87 120 167 206 263 337 383
#     4  10  21  38  64  94 123 168 219 267 327 388
#     4  10  21  40  63  92 132 164 213 276 324 393
#     4  10  19  38  63  87 123 170 218 265 318 388
#     4  11  22  38  60  93 130 166 213 267 326 393
#
# _framework density 22.706661
#
# number of rings (size 3 to 8) (size 9 to 14) (size 15 to 20)
#    0.000    2.000    2.000    1.200    0.000    2.400 
#    3.600    0.000    4.400    0.000    0.000    0.000 
#    0.000    0.000    0.000    0.000    0.000    0.000 
#
# Total GULP energy -111429.709485 kJ/mol
# GULP energy per Si atom -5571.485474 kJ/mol
# Density = 2.265498 g / cm^3
# Si number density = 22.706661 Si / 1000 Ang^3
#
#
#
# Elastic Constant Matrix: (Units=GPa)
#
#
# Indices 1 2 3 4 5 6 
#
# 1 153.3913 16.3656 29.6038 0.0000 42.9843 0.0000
# 2 16.3656 111.2860 0.4013 0.0000 8.0499 0.0000
# 3 29.6038 0.4013 45.9017 -0.0002 8.3702 0.0000
# 4 0.0000 0.0000 -0.0002 -17.9387 -0.0002 -11.0538
# 5 42.9843 8.0499 8.3702 -0.0002 31.9974 0.0000
# 6 0.0000 0.0000 0.0000 -11.0538 0.0000 18.5247
#
#
#
# Elastic Compliance Matrix: (Units=1/GPa)
#
#
# Indices 1 2 3 4 5 6 
#
# 1 0.011419 -0.000655 -0.004821 0.000000 -0.013913 0.000000
# 2 -0.000655 0.009196 0.000634 0.000000 -0.001599 0.000000
# 3 -0.004821 0.000634 0.024927 0.000000 -0.000203 0.000000
# 4 0.000000 0.000000 0.000000 -0.040759 0.000000 -0.024321
# 5 -0.013913 -0.001599 -0.000203 0.000000 0.050398 0.000000
# 6 0.000000 0.000000 0.000000 -0.024321 0.000000 0.039470
#
#
# Mechanical properties :
#
#
# Convention : Reuss Voigt Hill
#
# Bulk Modulus (GPa) = 27.89031 44.81339 36.35185
# Shear Modulus (GPa) = 42.99680 24.13055 33.56368
#
# Velocity S-wave (km/s) = 4.35625 3.26346 3.84883
# Velocity P-wave (km/s) = 6.13287 5.82914 5.98293
#
# Compressibility (1/GPa) = 0.03585475
#
# Stress axis : x y z
#
# Youngs Moduli (GPa) = 87.57664 108.74766 40.11762
#
# Poissons Ratio (x) = 0.07127 0.19343
# Poissons Ratio (y) = 0.05740 -0.02543
# Poissons Ratio (z) = 0.42225 -0.06893
#
# Static dielectric constant tensor:
#      x y z
#    x 1.815410 0.000000 -0.044710 
#    y 0.000000 1.984630 0.000000 
#    z -0.044710 0.000000 1.709040 
# 
# From -- ./inp_files/273738.got.cif
#   From: 2010.05.17/outbox.cif.g08.bks.cpg/sg15_137_cif.got.tgz:273738.got - 2010.06.03 18:47:42.
