data_PCOD9266531
_publ_section_title
;
Structure prediction by ZEFSAII (Michael W. Deem and Ramdas Pophale) SiO2 
 PCOD9266531
Probable space group: C 2/C
;
_chemical_formula_sum "Si O2"
_cell_formula_units_Z 64
_cell_length_a 24.264688
_cell_length_b 12.734069
_cell_length_c 14.153197
_cell_angle_alpha 90.000000
_cell_angle_beta 41.516631
_cell_angle_gamma 90.000000
_cell_volume 2898.701384
_symmetry_space_group_name_H-M "C 2/C"
_symmetry_group_IT_number 15
_symmetry_cell_setting 'monoclinic'
loop_
_space_group_symop_operation_xyz
x,y,z
-x,y,1/2-z
-x,-y,-z
x,-y,1/2+z
1/2+x,1/2+y,z
1/2-x,1/2+y,1/2-z
1/2-x,1/2-y,-z
1/2+x,1/2-y,1/2+z
loop_
_atom_site_type_symbol
_atom_site_label
_atom_site_fract_x
_atom_site_fract_y
_atom_site_fract_z
Si Si1 0.316273 0.745496 0.581789
Si Si2 0.360003 0.079343 0.879445
Si Si3 0.881560 0.297873 0.165383
Si Si4 0.370553 0.124457 0.476040
Si Si5 0.326382 0.362797 0.250608
Si Si6 0.409227 0.652332 0.843940
Si Si7 0.583284 0.561445 0.367324
Si Si8 0.329927 0.547776 0.444727
O O1 0.349807 0.843032 0.481296
O O2 0.216068 0.736416 0.702372
O O3 0.339004 0.730898 0.660976
O O4 0.349550 0.641389 0.488887
O O5 0.401707 0.140401 0.737061
O O6 0.265557 0.057028 0.965260
O O7 0.396602 0.972633 0.876439
O O8 0.891496 0.372851 0.061222
O O9 0.923189 0.183567 0.096058
O O10 0.270212 0.132400 0.598668
O O11 0.403676 0.233547 0.394114
O O12 0.383519 0.342967 0.267651
O O13 0.347167 0.479329 0.183432
O O14 0.500000 0.609457 0.750000
O O15 0.345413 0.567023 0.967040
O O16 0.500000 0.500000 0.500000
O O17 0.609960 0.563084 0.222742
#
# Coordination Sequence:
#
# PCOD9266531 Si02
#       8
#     8   8   8   8   8   8   8   8
#     4  10  19  37  66  93 133 171 222 279 330 408
#     4  11  19  41  66  93 133 176 233 278 326 410
#     4  10  21  36  62 101 129 175 223 280 342 397
#     4  11  23  39  66  95 128 177 228 282 337 405
#     4  10  23  39  61 100 126 172 226 271 343 418
#     4  11  25  42  63  94 138 172 223 287 358 399
#     4  11  21  37  64  95 141 170 217 285 348 407
#     4  10  20  38  63  95 131 175 213 279 347 400
#
# _framework density 22.078854
#
# number of rings (size 3 to 8) (size 9 to 14) (size 15 to 20)
#    0.000    1.500    5.000    1.125    5.250    1.000 
#    4.500    0.000    2.750    1.500    0.000    0.000 
#    0.000    0.000    0.000    0.000    0.000    0.000 
#
# Total GULP energy -178629.154643 kJ/mol
# GULP energy per Si atom -5582.161083 kJ/mol
# Density = 2.202860 g / cm^3
# Si number density = 22.078854 Si / 1000 Ang^3
#
#
#
# Elastic Constant Matrix: (Units=GPa)
#
#
# Indices 1 2 3 4 5 6 
#
# 1 62.5841 23.3825 25.8217 0.0000 13.1142 0.0000
# 2 23.3825 118.9687 21.7392 0.0000 9.3725 0.0000
# 3 25.8217 21.7392 48.2763 0.0000 0.6568 0.0000
# 4 0.0000 0.0000 0.0000 26.3214 0.0000 3.2666
# 5 13.1142 9.3725 0.6568 0.0000 23.4696 0.0000
# 6 0.0000 0.0000 0.0000 3.2666 0.0000 18.2347
#
#
#
# Elastic Compliance Matrix: (Units=1/GPa)
#
#
# Indices 1 2 3 4 5 6 
#
# 1 0.024161 -0.001559 -0.012050 0.000000 -0.012541 0.000000
# 2 -0.001559 0.009564 -0.003434 0.000000 -0.002852 0.000000
# 3 -0.012050 -0.003434 0.028607 0.000000 0.007304 0.000000
# 4 0.000000 0.000000 0.000000 0.038856 0.000000 -0.006961
# 5 -0.012541 -0.002852 0.007304 0.000000 0.050550 0.000000
# 6 0.000000 0.000000 0.000000 -0.006961 0.000000 0.056088
#
#
# Mechanical properties :
#
#
# Convention : Reuss Voigt Hill
#
# Bulk Modulus (GPa) = 35.40489 41.30177 38.35333
# Shear Modulus (GPa) = 19.89443 24.19751 22.04597
#
# Velocity S-wave (km/s) = 3.00503 3.31412 3.16335
# Velocity P-wave (km/s) = 5.30195 5.77855 5.54537
#
# Compressibility (1/GPa) = 0.02824468
#
# Stress axis : x y z
#
# Youngs Moduli (GPa) = 41.38985 104.55669 34.95691
#
# Poissons Ratio (x) = 0.16297 0.42124
# Poissons Ratio (y) = 0.06451 0.12005
# Poissons Ratio (z) = 0.49876 0.35908
#
# Static dielectric constant tensor:
#      x y z
#    x 1.831810 0.000000 0.007390 
#    y 0.000000 1.837680 0.000000 
#    z 0.007390 0.000000 1.879080 
# 
# From -- ./inp_files/177799.got.cif
#   From: 2010.05.17/outbox.cif.g08.bks.cpg/sg15_89_cif.got.tgz:177799.got - 2010.06.03 18:47:42.
