data_PCOD9266099
_publ_section_title
;
Structure prediction by ZEFSAII (Michael W. Deem and Ramdas Pophale) SiO2 
 PCOD9266099
Probable space group: C 2/C
;
_chemical_formula_sum "Si O2"
_cell_formula_units_Z 40
_cell_length_a 13.477238
_cell_length_b 12.278163
_cell_length_c 13.977464
_cell_angle_alpha 90.000000
_cell_angle_beta 118.373407
_cell_angle_gamma 90.000000
_cell_volume 2035.076813
_symmetry_space_group_name_H-M "C 2/C"
_symmetry_group_IT_number 15
_symmetry_cell_setting 'monoclinic'
loop_
_space_group_symop_operation_xyz
x,y,z
-x,y,1/2-z
-x,-y,-z
x,-y,1/2+z
1/2+x,1/2+y,z
1/2-x,1/2+y,1/2-z
1/2-x,1/2-y,-z
1/2+x,1/2-y,1/2+z
loop_
_atom_site_type_symbol
_atom_site_label
_atom_site_fract_x
_atom_site_fract_y
_atom_site_fract_z
Si Si1 0.389651 0.341281 0.598050
Si Si2 0.512027 0.424388 0.146408
Si Si3 0.759351 0.935434 0.369075
Si Si4 0.193355 0.824821 0.553282
Si Si5 0.883073 0.267468 0.288571
O O1 0.458306 0.454803 0.622804
O O2 0.295038 0.357909 0.474762
O O3 0.485083 0.248962 0.627345
O O4 0.352681 0.318716 0.689930
O O5 0.500000 0.383943 0.250000
O O6 0.635848 0.431024 0.157716
O O7 0.432318 0.354524 0.040683
O O8 0.652140 0.884013 0.268204
O O9 0.748292 0.058130 0.402035
O O10 0.250000 0.750000 0.500000
O O11 0.186158 0.761851 0.649426
#
# Coordination Sequence:
#
# PCOD9266099 Si02
#       5
#     8   8   8   8   8
#     4  10  19  37  60  85 116 156 210 237 283 354
#     4  11  18  36  62  90 118 156 204 247 286 352
#     4  11  21  36  62  92 116 156 208 239 298 352
#     4  11  22  37  59  92 123 150 196 255 303 345
#     4  11  20  36  61  87 117 156 198 251 289 352
#
# _framework density 19.655277000000002
#
# number of rings (size 3 to 8) (size 9 to 14) (size 15 to 20)
#    0.000    1.200    6.000    3.000    0.000    1.600 
#    0.000    0.000   13.200    6.000    0.000    0.000 
#    0.000    0.000    0.000    0.000    0.000    0.000 
#
# Total GULP energy -111637.783451 kJ/mol
# GULP energy per Si atom -5581.889173 kJ/mol
# Density = 1.961054 g / cm^3
# Si number density = 19.655277 Si / 1000 Ang^3
#
#
#
# Elastic Constant Matrix: (Units=GPa)
#
#
# Indices 1 2 3 4 5 6 
#
# 1 74.4171 39.6297 29.4644 0.0000 -32.5899 0.0000
# 2 39.6297 93.5378 47.5913 0.0000 -5.3840 0.0000
# 3 29.4644 47.5913 94.0876 0.0000 -20.1690 0.0000
# 4 0.0000 0.0000 0.0000 36.1305 0.0000 -2.4771
# 5 -32.5899 -5.3840 -20.1690 0.0000 43.2240 0.0000
# 6 0.0000 0.0000 0.0000 -2.4771 0.0000 24.0661
#
#
#
# Elastic Compliance Matrix: (Units=1/GPa)
#
#
# Indices 1 2 3 4 5 6 
#
# 1 0.027719 -0.011262 0.001328 0.000000 0.020116 0.000000
# 2 -0.011262 0.019096 -0.008270 0.000000 -0.009971 0.000000
# 3 0.001328 -0.008270 0.015989 0.000000 0.007432 0.000000
# 4 0.000000 0.000000 0.000000 0.027874 0.000000 0.002869
# 5 0.020116 -0.009971 0.007432 0.000000 0.040528 0.000000
# 6 0.000000 0.000000 0.000000 0.002869 0.000000 0.041848
#
#
# Mechanical properties :
#
#
# Convention : Reuss Voigt Hill
#
# Bulk Modulus (GPa) = 37.88361 55.04594 46.46478
# Shear Modulus (GPa) = 22.90857 30.37459 26.64158
#
# Velocity S-wave (km/s) = 3.41767 3.93538 3.68563
# Velocity P-wave (km/s) = 5.90676 6.97969 6.46552
#
# Compressibility (1/GPa) = 0.02639664
#
# Stress axis : x y z
#
# Youngs Moduli (GPa) = 36.07657 52.36742 62.54451
#
# Poissons Ratio (x) = 0.58975 -0.08307
# Poissons Ratio (y) = 0.40628 0.51723
# Poissons Ratio (z) = -0.04792 0.43307
#
# Static dielectric constant tensor:
#      x y z
#    x 1.708780 0.000000 0.000080 
#    y 0.000000 1.694390 0.000000 
#    z 0.000080 0.000000 1.749520 
# 
# From -- ./inp_files/151204.got.cif
#   From: 2010.05.17/outbox.cif.g08.bks.cpg/sg15_76_cif.got.tgz:151204.got - 2010.06.03 18:47:42.
