data_PCOD9266471
_publ_section_title
;
Structure prediction by ZEFSAII (Michael W. Deem and Ramdas Pophale) SiO2 
 PCOD9266471
Probable space group: C 2/C
;
_chemical_formula_sum "Si O2"
_cell_formula_units_Z 60
_cell_length_a 9.814302
_cell_length_b 9.427524
_cell_length_c 26.352411
_cell_angle_alpha 90.000000
_cell_angle_beta 97.084205
_cell_angle_gamma 90.000000
_cell_volume 2419.631805
_symmetry_space_group_name_H-M "C 2/C"
_symmetry_group_IT_number 15
_symmetry_cell_setting 'monoclinic'
loop_
_space_group_symop_operation_xyz
x,y,z
-x,y,1/2-z
-x,-y,-z
x,-y,1/2+z
1/2+x,1/2+y,z
1/2-x,1/2+y,1/2-z
1/2-x,1/2-y,-z
1/2+x,1/2-y,1/2+z
loop_
_atom_site_type_symbol
_atom_site_label
_atom_site_fract_x
_atom_site_fract_y
_atom_site_fract_z
Si Si1 0.893223 0.847082 0.122113
Si Si2 0.985432 0.277302 0.059836
Si Si3 0.505922 0.090387 0.082641
Si Si4 0.495378 0.607280 0.336528
Si Si5 0.236419 0.047570 0.465039
Si Si6 0.806166 0.600909 0.308072
Si Si7 0.250000 0.250000 0.000000
Si Si8 0.759657 0.719077 0.783063
O O1 0.806015 0.966913 0.089463
O O2 0.822566 0.780109 0.167611
O O3 0.907936 0.727541 0.079237
O O4 0.020164 0.942270 0.147562
O O5 0.941061 0.436217 0.073906
O O6 0.023665 0.202679 0.114710
O O7 0.118406 0.287901 0.031237
O O8 0.867726 0.175998 0.032928
O O9 0.613186 0.103503 0.041812
O O10 0.586374 0.104889 0.140241
O O11 0.649732 0.621012 0.321418
O O12 0.383918 0.669110 0.293219
O O13 0.219097 0.924455 0.504621
O O14 0.811016 0.443821 0.282868
O O15 0.829094 0.723319 0.267716
#
# Coordination Sequence:
#
# PCOD9266471 Si02
#       8
#     8   8   8   8   8   8   4   8
#     4  10  23  39  63  87 120 166 205 248 307 364
#     4  10  19  37  65  88 123 159 200 247 311 373
#     4  11  21  39  61  88 119 161 205 248 296 373
#     4  10  20  42  63  79 122 167 200 249 312 365
#     4  10  20  43  62  90 125 160 202 248 313 373
#     4  11  23  38  59  87 120 157 214 250 306 355
#     4  10  20  34  70  98 118 154 206 258 304 374
#     4  11  22  40  55  88 122 158 205 268 294 354
#
# _framework density 24.797160000000002
#
# number of rings (size 3 to 8) (size 9 to 14) (size 15 to 20)
#    0.000    1.600    5.333    1.600    1.867    2.667 
#    2.400    2.667    0.000   14.400    0.000    0.000 
#    0.000    0.000    0.000    0.000    0.000    0.000 
#
# Total GULP energy -167497.769143 kJ/mol
# GULP energy per Si atom -5583.258971 kJ/mol
# Density = 2.474072 g / cm^3
# Si number density = 24.797160 Si / 1000 Ang^3
#
#
#
# Elastic Constant Matrix: (Units=GPa)
#
#
# Indices 1 2 3 4 5 6 
#
# 1 75.0133 54.6851 8.9148 0.0000 5.8924 0.0000
# 2 54.6851 139.8764 47.7578 0.0000 -6.8943 0.0000
# 3 8.9148 47.7578 103.7512 0.0000 7.7017 0.0000
# 4 0.0000 0.0000 0.0000 61.8921 0.0000 5.5883
# 5 5.8924 -6.8943 7.7017 0.0000 34.0548 0.0000
# 6 0.0000 0.0000 0.0000 5.5883 0.0000 48.2453
#
#
#
# Elastic Compliance Matrix: (Units=1/GPa)
#
#
# Indices 1 2 3 4 5 6 
#
# 1 0.020141 -0.009173 0.002938 0.000000 -0.006006 0.000000
# 2 -0.009173 0.012901 -0.005555 0.000000 0.005455 0.000000
# 3 0.002938 -0.005555 0.012270 0.000000 -0.004408 0.000000
# 4 0.000000 0.000000 0.000000 0.016328 0.000000 -0.001891
# 5 -0.006006 0.005455 -0.004408 0.000000 0.032505 0.000000
# 6 0.000000 0.000000 0.000000 -0.001891 0.000000 0.020946
#
#
# Mechanical properties :
#
#
# Convention : Reuss Voigt Hill
#
# Bulk Modulus (GPa) = 46.01715 60.15069 53.08392
# Shear Modulus (GPa) = 34.26602 42.65733 38.46167
#
# Velocity S-wave (km/s) = 3.72136 4.15209 3.94261
# Velocity P-wave (km/s) = 6.08789 6.87722 6.49456
#
# Compressibility (1/GPa) = 0.02173103
#
# Stress axis : x y z
#
# Youngs Moduli (GPa) = 49.64991 77.51262 81.49707
#
# Poissons Ratio (x) = 0.71105 -0.23943
# Poissons Ratio (y) = 0.45545 0.45274
# Poissons Ratio (z) = -0.14586 0.43060
#
# Static dielectric constant tensor:
#      x y z
#    x 1.914240 0.000000 0.029190 
#    y 0.000000 1.952420 0.000000 
#    z 0.029190 0.000000 1.919890 
# 
# From -- ./inp_files/309970.got.cif
#   From: 2010.05.17/outbox.cif.g08.bks.cpg/sg15_155_cif.got.tgz:309970.got - 2010.06.03 18:47:42.
