data_PCOD9266810
_publ_section_title
;
Structure prediction by ZEFSAII (Michael W. Deem and Ramdas Pophale) SiO2 
 PCOD9266810
Probable space group: C 2/C
;
_chemical_formula_sum "Si O2"
_cell_formula_units_Z 56
_cell_length_a 13.862036
_cell_length_b 13.442894
_cell_length_c 18.378543
_cell_angle_alpha 90.000000
_cell_angle_beta 62.748638
_cell_angle_gamma 90.000000
_cell_volume 3044.638206
_symmetry_space_group_name_H-M "C 2/C"
_symmetry_group_IT_number 15
_symmetry_cell_setting 'monoclinic'
loop_
_space_group_symop_operation_xyz
x,y,z
-x,y,1/2-z
-x,-y,-z
x,-y,1/2+z
1/2+x,1/2+y,z
1/2-x,1/2+y,1/2-z
1/2-x,1/2-y,-z
1/2+x,1/2-y,1/2+z
loop_
_atom_site_type_symbol
_atom_site_label
_atom_site_fract_x
_atom_site_fract_y
_atom_site_fract_z
Si Si1 0.766567 0.528231 0.419127
Si Si2 0.803536 0.051398 0.835086
Si Si3 0.112091 0.548214 0.484483
Si Si4 0.456014 0.727327 0.501329
Si Si5 0.566798 0.535647 0.083161
Si Si6 0.853947 0.082790 0.649134
Si Si7 0.782604 0.757780 0.572650
O O1 0.853693 0.498738 0.449623
O O2 0.655029 0.522954 0.504414
O O3 0.750711 0.447414 0.361838
O O4 0.770511 0.637961 0.384276
O O5 0.827663 0.071806 0.742713
O O6 0.770095 0.160322 0.874941
O O7 0.901212 0.998749 0.846558
O O8 0.702236 0.981825 0.893471
O O9 0.097423 0.666213 0.494554
O O10 0.000000 0.500000 0.500000
O O11 0.426915 0.649262 0.446639
O O12 0.406992 0.680088 0.593081
O O13 0.586874 0.739493 0.461805
O O14 0.447650 0.499158 0.105155
O O15 0.750000 0.750000 0.500000
#
# Coordination Sequence:
#
# PCOD9266810 Si02
#       7
#     8   8   8   8   8   8   8
#     4  10  20  36  64  85 116 160 200 245 295 362
#     4  11  24  35  62  91 127 152 199 258 308 350
#     4  11  22  40  60  89 119 161 202 243 295 369
#     4  11  21  38  67  85 119 161 208 243 297 366
#     4  10  19  38  61  89 112 159 203 246 291 359
#     4  11  21  38  59  95 123 149 202 261 305 345
#     4  12  18  37  63  91 111 163 213 240 289 362
#
# _framework density 18.392989
#
# number of rings (size 3 to 8) (size 9 to 14) (size 15 to 20)
#    0.000    1.143    7.143    1.286    0.000    6.286 
#    0.000    0.714    0.000    3.429    0.000    0.000 
#    0.000    0.000    0.000    0.000    0.000    0.000 
#
# Total GULP energy -156036.816683 kJ/mol
# GULP energy per Si atom -5572.743453 kJ/mol
# Density = 1.835113 g / cm^3
# Si number density = 18.392989 Si / 1000 Ang^3
#
#
#
# Elastic Constant Matrix: (Units=GPa)
#
#
# Indices 1 2 3 4 5 6 
#
# 1 112.3954 38.7195 41.1623 0.0000 18.0806 0.0000
# 2 38.7195 149.8600 34.6550 0.0000 -0.2721 0.0000
# 3 41.1623 34.6550 89.5309 0.0000 27.2314 0.0000
# 4 0.0000 0.0000 0.0000 11.5308 0.0000 -0.5628
# 5 18.0806 -0.2721 27.2314 0.0000 19.2221 0.0000
# 6 0.0000 0.0000 0.0000 -0.5628 0.0000 30.4887
#
#
#
# Elastic Compliance Matrix: (Units=1/GPa)
#
#
# Indices 1 2 3 4 5 6 
#
# 1 0.011865 -0.002668 -0.001785 0.000000 -0.008669 0.000000
# 2 -0.002668 0.008552 -0.005067 0.000000 0.009809 0.000000
# 3 -0.001785 -0.005067 0.023655 0.000000 -0.031904 0.000000
# 4 0.000000 0.000000 0.000000 0.086802 0.000000 0.001602
# 5 -0.008669 0.009809 -0.031904 0.000000 0.105513 0.000000
# 6 0.000000 0.000000 0.000000 0.001602 0.000000 0.032829
#
#
# Mechanical properties :
#
#
# Convention : Reuss Voigt Hill
#
# Bulk Modulus (GPa) = 39.95128 64.53999 52.24564
# Shear Modulus (GPa) = 16.85767 28.06497 22.46132
#
# Velocity S-wave (km/s) = 3.03070 3.91045 3.49834
# Velocity P-wave (km/s) = 5.83224 7.45349 6.69214
#
# Compressibility (1/GPa) = 0.02503049
#
# Stress axis : x y z
#
# Youngs Moduli (GPa) = 84.28321 116.93367 42.27393
#
# Poissons Ratio (x) = 0.31202 0.07548
# Poissons Ratio (y) = 0.22490 0.21420
# Poissons Ratio (z) = 0.15048 0.59249
#
# Static dielectric constant tensor:
#      x y z
#    x 1.685730 0.000000 0.043400 
#    y 0.000000 1.679880 0.000000 
#    z 0.043400 0.000000 1.661030 
# 
# From -- ./inp_files/203960.got.cif
#   From: 2010.05.17/outbox.cif.g08.bks.cpg/sg15_102_cif.got.tgz:203960.got - 2010.06.03 18:47:42.
