data_PCOD9266104
_publ_section_title
;
Structure prediction by ZEFSAII (Michael W. Deem and Ramdas Pophale) SiO2 
 PCOD9266104
Probable space group: C 2/C
;
_chemical_formula_sum "Si O2"
_cell_formula_units_Z 60
_cell_length_a 21.191490
_cell_length_b 8.550795
_cell_length_c 18.385518
_cell_angle_alpha 90.000000
_cell_angle_beta 107.170644
_cell_angle_gamma 90.000000
_cell_volume 3183.043813
_symmetry_space_group_name_H-M "C 2/C"
_symmetry_group_IT_number 15
_symmetry_cell_setting 'monoclinic'
loop_
_space_group_symop_operation_xyz
x,y,z
-x,y,1/2-z
-x,-y,-z
x,-y,1/2+z
1/2+x,1/2+y,z
1/2-x,1/2+y,1/2-z
1/2-x,1/2-y,-z
1/2+x,1/2-y,1/2+z
loop_
_atom_site_type_symbol
_atom_site_label
_atom_site_fract_x
_atom_site_fract_y
_atom_site_fract_z
Si Si1 0.405433 0.963812 0.692323
Si Si2 0.628504 0.259725 0.560560
Si Si3 0.261210 0.106599 0.149184
Si Si4 0.500000 0.769126 0.250000
Si Si5 0.435805 0.469852 0.838044
Si Si6 0.311524 0.331747 0.291659
Si Si7 0.027522 0.257645 0.897494
Si Si8 0.103199 0.562820 0.135205
O O1 0.276043 0.759452 0.714539
O O2 0.447143 0.825594 0.670319
O O3 0.330841 0.944573 0.638594
O O4 0.447323 0.119686 0.691062
O O5 0.703275 0.322972 0.579871
O O6 0.591647 0.385470 0.599581
O O7 0.588543 0.247427 0.472762
O O8 0.623242 0.093588 0.600530
O O9 0.234307 0.954352 0.182625
O O10 0.399758 0.039360 0.278092
O O11 0.539255 0.661260 0.207887
O O12 0.374946 0.570529 0.785344
O O13 0.493895 0.590180 0.875648
O O14 0.342863 0.200328 0.355368
O O15 0.969268 0.370550 0.908374
#
# Coordination Sequence:
#
# PCOD9266104 Si02
#       8
#     8   8   8   4   8   8   8   8
#     4  11  21  38  58  85 118 150 196 247 292 350
#     4  11  21  40  58  87 123 160 193 240 291 361
#     4  10  21  35  56  84 119 154 196 239 294 352
#     4  12  22  36  62  86 118 140 196 258 298 334
#     4  10  23  36  59  92 115 150 199 249 293 340
#     4   9  20  34  58  84 113 148 198 248 282 343
#     4  11  22  36  62  86 124 156 194 240 302 353
#     4  10  19  37  60  86 112 152 204 242 290 340
#
# _framework density 18.849882000000001
#
# number of rings (size 3 to 8) (size 9 to 14) (size 15 to 20)
#    0.000    1.600    2.667    2.400    7.467    0.533 
#    0.000    0.000    0.000    1.600    0.000    0.000 
#    0.000    0.000    0.000    0.000    0.000    0.000 
#
# Total GULP energy -167444.279587 kJ/mol
# GULP energy per Si atom -5581.475986 kJ/mol
# Density = 1.880698 g / cm^3
# Si number density = 18.849882 Si / 1000 Ang^3
#
#
#
# Elastic Constant Matrix: (Units=GPa)
#
#
# Indices 1 2 3 4 5 6 
#
# 1 98.6773 49.8776 31.5495 0.0000 29.6834 0.0000
# 2 49.8776 122.0211 26.8997 0.0000 12.7193 0.0000
# 3 31.5495 26.8997 56.6915 0.0000 21.9542 0.0000
# 4 0.0000 0.0000 0.0000 11.0283 0.0000 0.7864
# 5 29.6834 12.7193 21.9542 0.0000 28.5493 0.0000
# 6 0.0000 0.0000 0.0000 0.7864 0.0000 22.5180
#
#
#
# Elastic Compliance Matrix: (Units=1/GPa)
#
#
# Indices 1 2 3 4 5 6 
#
# 1 0.017866 -0.005393 -0.001596 0.000000 -0.014946 0.000000
# 2 -0.005393 0.010803 -0.003464 0.000000 0.003458 0.000000
# 3 -0.001596 -0.003464 0.026959 0.000000 -0.017529 0.000000
# 4 0.000000 0.000000 0.000000 0.090902 0.000000 -0.003175
# 5 -0.014946 0.003458 -0.017529 0.000000 0.062506 0.000000
# 6 0.000000 0.000000 0.000000 -0.003175 0.000000 0.044520
#
#
# Mechanical properties :
#
#
# Convention : Reuss Voigt Hill
#
# Bulk Modulus (GPa) = 28.79941 54.89370 41.84655
# Shear Modulus (GPa) = 17.48031 23.69000 20.58516
#
# Velocity S-wave (km/s) = 3.04853 3.54894 3.30821
# Velocity P-wave (km/s) = 5.26335 6.78071 6.06964
#
# Compressibility (1/GPa) = 0.03472294
#
# Stress axis : x y z
#
# Youngs Moduli (GPa) = 55.97120 92.56689 37.09314
#
# Poissons Ratio (x) = 0.49924 0.05919
# Poissons Ratio (y) = 0.30187 0.12848
# Poissons Ratio (z) = 0.08932 0.32062
#
# Static dielectric constant tensor:
#      x y z
#    x 1.682530 0.000000 0.027020 
#    y 0.000000 1.660820 0.000000 
#    z 0.027020 0.000000 1.642290 
# 
# From -- ./inp_files/251622.got.cif
#   From: 2010.05.17/outbox.cif.g08.bks.cpg/sg15_126_cif.got.tgz:251622.got - 2010.06.03 18:47:42.
