data_PCOD9266497
_publ_section_title
;
Structure prediction by ZEFSAII (Michael W. Deem and Ramdas Pophale) SiO2 
 PCOD9266497
Probable space group: C 2/C
;
_chemical_formula_sum "Si O2"
_cell_formula_units_Z 48
_cell_length_a 14.797090
_cell_length_b 13.408015
_cell_length_c 10.731884
_cell_angle_alpha 90.000000
_cell_angle_beta 111.922886
_cell_angle_gamma 90.000000
_cell_volume 1975.233007
_symmetry_space_group_name_H-M "C 2/C"
_symmetry_group_IT_number 15
_symmetry_cell_setting 'monoclinic'
loop_
_space_group_symop_operation_xyz
x,y,z
-x,y,1/2-z
-x,-y,-z
x,-y,1/2+z
1/2+x,1/2+y,z
1/2-x,1/2+y,1/2-z
1/2-x,1/2-y,-z
1/2+x,1/2-y,1/2+z
loop_
_atom_site_type_symbol
_atom_site_label
_atom_site_fract_x
_atom_site_fract_y
_atom_site_fract_z
Si Si1 0.817901 0.971029 0.780952
Si Si2 0.762404 0.668102 0.665115
Si Si3 0.086432 0.705885 0.098158
Si Si4 0.188056 0.335033 0.898722
Si Si5 0.656853 0.968359 0.499695
Si Si6 0.439594 0.705199 0.343335
O O1 0.758887 0.908929 0.856005
O O2 0.761499 0.959808 0.621876
O O3 0.918762 0.913018 0.829113
O O4 0.807076 0.087005 0.803679
O O5 0.680789 0.745296 0.575086
O O6 0.614091 0.791198 0.757642
O O7 0.831159 0.597743 0.617362
O O8 0.162168 0.735306 0.719358
O O9 0.995028 0.763209 0.996367
O O10 0.084893 0.590803 0.053690
O O11 0.250000 0.250000 0.000000
O O12 0.137166 0.416158 0.962532
O O13 0.500000 0.731066 0.250000
#
# Coordination Sequence:
#
# PCOD9266497 Si02
#       6
#     8   8   8   8   8   8
#     4  10  23  40  69  99 135 190 228 286 359 423
#     4  11  21  42  66  95 142 180 231 290 356 419
#     4  11  22  40  68  99 139 182 231 294 352 417
#     4  10  21  40  68  93 137 187 228 284 356 423
#     4  10  19  37  65  96 127 187 227 276 350 422
#     4  12  23  41  73 107 139 183 242 295 347 426
#
# _framework density 24.300930999999999
#
# number of rings (size 3 to 8) (size 9 to 14) (size 15 to 20)
#    0.000    1.333    5.000    2.500    0.000    0.667 
#    0.000   10.000    0.000    0.000    0.000    0.000 
#    0.000    0.000    0.000    0.000    0.000    0.000 
#
# Total GULP energy -134087.522836 kJ/mol
# GULP energy per Si atom -5586.980118 kJ/mol
# Density = 2.424562 g / cm^3
# Si number density = 24.300931 Si / 1000 Ang^3
#
#
#
# Elastic Constant Matrix: (Units=GPa)
#
#
# Indices 1 2 3 4 5 6 
#
# 1 61.3473 45.7061 28.3599 0.0000 14.2139 0.0000
# 2 45.7061 164.9028 56.7110 0.0000 10.6007 0.0000
# 3 28.3599 56.7110 94.2454 0.0000 14.8532 0.0000
# 4 0.0000 0.0000 0.0000 43.6600 0.0000 -10.8407
# 5 14.2139 10.6007 14.8532 0.0000 28.9385 0.0000
# 6 0.0000 0.0000 0.0000 -10.8407 0.0000 41.9503
#
#
#
# Elastic Compliance Matrix: (Units=1/GPa)
#
#
# Indices 1 2 3 4 5 6 
#
# 1 0.023132 -0.004962 -0.002688 0.000000 -0.008164 0.000000
# 2 -0.004962 0.008717 -0.003953 0.000000 0.001273 0.000000
# 3 -0.002688 -0.003953 0.014538 0.000000 -0.004693 0.000000
# 4 0.000000 0.000000 0.000000 0.024475 0.000000 0.006325
# 5 -0.008164 0.001273 -0.004693 0.000000 0.040509 0.000000
# 6 0.000000 0.000000 0.000000 0.006325 0.000000 0.025472
#
#
# Mechanical properties :
#
#
# Convention : Reuss Voigt Hill
#
# Bulk Modulus (GPa) = 43.13956 64.67215 53.90585
# Shear Modulus (GPa) = 29.80169 35.55765 32.67967
#
# Velocity S-wave (km/s) = 3.50574 3.82936 3.67112
# Velocity P-wave (km/s) = 5.84617 6.79873 6.34037
#
# Compressibility (1/GPa) = 0.02318058
#
# Stress axis : x y z
#
# Youngs Moduli (GPa) = 43.23020 114.71676 68.78640
#
# Poissons Ratio (x) = 0.56925 0.18491
# Poissons Ratio (y) = 0.21452 0.27190
# Poissons Ratio (z) = 0.11621 0.45346
#
# Static dielectric constant tensor:
#      x y z
#    x 2.011640 0.000000 -0.092950 
#    y 0.000000 1.979830 0.000000 
#    z -0.092950 0.000000 1.956410 
# 
# From -- ./inp_files/111217.got.cif
#   From: 2010.05.17/outbox.cif.g08.bks.cpg/sg15_56_cif.got.tgz:111217.got - 2010.06.03 18:47:42.
