data_PCOD9266123
_publ_section_title
;
Structure prediction by ZEFSAII (Michael W. Deem and Ramdas Pophale) SiO2 
 PCOD9266123
Probable space group: C 2/C
;
_chemical_formula_sum "Si O2"
_cell_formula_units_Z 48
_cell_length_a 21.064466
_cell_length_b 11.959765
_cell_length_c 14.018213
_cell_angle_alpha 90.000000
_cell_angle_beta 142.624253
_cell_angle_gamma 90.000000
_cell_volume 2143.792346
_symmetry_space_group_name_H-M "C 2/C"
_symmetry_group_IT_number 15
_symmetry_cell_setting 'monoclinic'
loop_
_space_group_symop_operation_xyz
x,y,z
-x,y,1/2-z
-x,-y,-z
x,-y,1/2+z
1/2+x,1/2+y,z
1/2-x,1/2+y,1/2-z
1/2-x,1/2-y,-z
1/2+x,1/2-y,1/2+z
loop_
_atom_site_type_symbol
_atom_site_label
_atom_site_fract_x
_atom_site_fract_y
_atom_site_fract_z
Si Si1 0.245627 0.163053 0.633265
Si Si2 0.647268 0.135949 0.457569
Si Si3 0.790023 0.595159 0.472600
Si Si4 0.322284 0.196772 0.224402
Si Si5 0.548338 0.251059 0.507722
Si Si6 0.662262 0.461772 0.648794
O O1 0.189589 0.280090 0.540371
O O2 0.269457 0.105134 0.560373
O O3 0.356233 0.197396 0.816223
O O4 0.176255 0.080530 0.615088
O O5 0.657266 0.151342 0.357134
O O6 0.754827 0.191033 0.626726
O O7 0.564374 0.204351 0.419997
O O8 0.630430 0.004507 0.455355
O O9 0.690380 0.549806 0.293787
O O10 0.434316 0.216637 0.405127
O O11 0.251899 0.112011 0.200998
O O12 0.560127 0.385213 0.515394
#
# Coordination Sequence:
#
# PCOD9266123 Si02
#       6
#     8   8   8   8   8   8
#     4  10  20  37  61  84 122 162 194 241 305 352
#     4  10  19  37  60  87 121 153 192 254 298 340
#     4  10  20  37  60  86 118 163 196 237 306 358
#     4  10  21  36  60  91 118 152 203 247 297 348
#     4  10  21  37  60  91 115 154 205 245 293 355
#     4  10  20  38  61  85 118 160 196 247 296 351
#
# _framework density 22.390229000000001
#
# number of rings (size 3 to 8) (size 9 to 14) (size 15 to 20)
#    0.000    2.000    3.333    0.500    0.000    0.667 
#    0.000    4.167    0.000    0.000    0.000    0.000 
#    0.000    0.000    0.000    0.000    0.000    0.000 
#
# Total GULP energy -133844.656668 kJ/mol
# GULP energy per Si atom -5576.860695 kJ/mol
# Density = 2.233927 g / cm^3
# Si number density = 22.390229 Si / 1000 Ang^3
#
#
#
# Elastic Constant Matrix: (Units=GPa)
#
#
# Indices 1 2 3 4 5 6 
#
# 1 53.6003 3.1499 26.6483 0.0000 -26.1971 0.0000
# 2 3.1499 136.3569 15.7142 0.0000 -7.3453 0.0000
# 3 26.6483 15.7142 60.0262 0.0000 -14.2733 0.0000
# 4 0.0000 0.0000 0.0000 9.4298 0.0000 -16.3677
# 5 -26.1971 -7.3453 -14.2733 0.0000 42.1052 0.0000
# 6 0.0000 0.0000 0.0000 -16.3677 0.0000 27.9842
#
#
#
# Elastic Compliance Matrix: (Units=1/GPa)
#
#
# Indices 1 2 3 4 5 6 
#
# 1 0.031912 0.001374 -0.010603 0.000000 0.016500 0.000000
# 2 0.001374 0.007640 -0.002273 0.000000 0.001417 0.000000
# 3 -0.010603 -0.002273 0.022078 0.000000 0.000491 0.000000
# 4 0.000000 0.000000 0.000000 -6.969863 0.000000 -4.076605
# 5 0.016500 0.001417 0.000491 0.000000 0.034430 0.000000
# 6 0.000000 0.000000 0.000000 -4.076605 0.000000 -2.348633
#
#
# Mechanical properties :
#
#
# Convention : Reuss Voigt Hill
#
# Bulk Modulus (GPa) = 25.88976 37.88979 31.88978
# Shear Modulus (GPa) = -0.54427 29.53523 14.49548
#
# Velocity S-wave (km/s) = -0.49357 3.63590 2.54717
# Velocity P-wave (km/s) = 3.35608 5.88095 4.78794
#
# Compressibility (1/GPa) = 0.03862531
#
# Stress axis : x y z
#
# Youngs Moduli (GPa) = 31.33623 130.88593 45.29319
#
# Poissons Ratio (x) = -0.17979 0.48025
# Poissons Ratio (y) = -0.04304 0.10295
# Poissons Ratio (z) = 0.33227 0.29751
#
# Static dielectric constant tensor:
#      x y z
#    x 1.797740 0.000000 -0.008790 
#    y 0.000000 1.890780 0.000000 
#    z -0.008790 0.000000 1.896610 
# 
# From -- ./inp_files/167892.got.cif
#   From: 2010.05.17/outbox.cif.g08.bks.cpg/sg15_84_cif.got.tgz:167892.got - 2010.06.03 18:47:42.
