data_PCOD9266829
_publ_section_title
;
Structure prediction by ZEFSAII (Michael W. Deem and Ramdas Pophale) SiO2 
 PCOD9266829
Probable space group: C 2/C
;
_chemical_formula_sum "Si O2"
_cell_formula_units_Z 48
_cell_length_a 19.400645
_cell_length_b 12.409507
_cell_length_c 10.811714
_cell_angle_alpha 90.000000
_cell_angle_beta 61.828687
_cell_angle_gamma 90.000000
_cell_volume 2294.601323
_symmetry_space_group_name_H-M "C 2/C"
_symmetry_group_IT_number 15
_symmetry_cell_setting 'monoclinic'
loop_
_space_group_symop_operation_xyz
x,y,z
-x,y,1/2-z
-x,-y,-z
x,-y,1/2+z
1/2+x,1/2+y,z
1/2-x,1/2+y,1/2-z
1/2-x,1/2-y,-z
1/2+x,1/2-y,1/2+z
loop_
_atom_site_type_symbol
_atom_site_label
_atom_site_fract_x
_atom_site_fract_y
_atom_site_fract_z
Si Si1 0.239017 0.700649 0.210489
Si Si2 0.910427 0.056190 0.691006
Si Si3 0.758966 0.034065 0.395954
Si Si4 0.500000 0.744530 0.750000
Si Si5 0.147387 0.159853 0.986904
Si Si6 0.849114 0.648342 0.469738
Si Si7 0.500000 0.367122 0.750000
O O1 0.265608 0.594550 0.260143
O O2 0.184022 0.759150 0.357632
O O3 0.192282 0.672882 0.126465
O O4 0.310012 0.776759 0.108041
O O5 0.888400 0.063918 0.566521
O O6 0.957456 0.161829 0.692207
O O7 0.828467 0.054384 0.835586
O O8 0.956385 0.949062 0.691923
O O9 0.784689 0.116117 0.481294
O O10 0.677034 0.973836 0.479179
O O11 0.561856 0.818339 0.625613
O O12 0.071716 0.197721 0.128536
#
# Coordination Sequence:
#
# PCOD9266829 Si02
#       7
#     8   8   8   4   8   8   4
#     4  11  23  43  67  96 130 169 222 264 321 392
#     4  10  19  38  61  94 126 165 212 268 324 379
#     4  11  23  40  68  96 129 172 217 268 320 389
#     4  11  22  40  65  94 130 170 219 264 319 380
#     4  11  20  39  61  98 130 165 210 270 327 379
#     4  11  23  43  67  94 130 175 215 265 322 387
#     4   9  22  30  59  96 136 162 203 272 333 376
#
# _framework density 20.918666000000002
#
# number of rings (size 3 to 8) (size 9 to 14) (size 15 to 20)
#    0.000    1.333    3.333    3.000    0.000    5.333 
#    0.000    1.667    0.000    0.000    0.000    0.000 
#    0.000    0.000    0.000    0.000    0.000    0.000 
#
# Total GULP energy -134037.063964 kJ/mol
# GULP energy per Si atom -5584.877665 kJ/mol
# Density = 2.087105 g / cm^3
# Si number density = 20.918666 Si / 1000 Ang^3
#
#
#
# Elastic Constant Matrix: (Units=GPa)
#
#
# Indices 1 2 3 4 5 6 
#
# 1 65.1461 32.0157 36.3998 0.0000 -9.9834 0.0000
# 2 32.0157 53.3413 45.6665 0.0000 -8.5104 0.0000
# 3 36.3998 45.6665 124.0493 0.0000 -24.7701 0.0000
# 4 0.0000 0.0000 0.0000 28.4990 0.0000 -4.2975
# 5 -9.9834 -8.5104 -24.7701 0.0000 42.3510 0.0000
# 6 0.0000 0.0000 0.0000 -4.2975 0.0000 12.5003
#
#
#
# Elastic Compliance Matrix: (Units=1/GPa)
#
#
# Indices 1 2 3 4 5 6 
#
# 1 0.022354 -0.011422 -0.001994 0.000000 0.001808 0.000000
# 2 -0.011422 0.033218 -0.009151 0.000000 -0.001369 0.000000
# 3 -0.001994 -0.009151 0.013082 0.000000 0.005342 0.000000
# 4 0.000000 0.000000 0.000000 0.037007 0.000000 0.012723
# 5 0.001808 -0.001369 0.005342 0.000000 0.026888 0.000000
# 6 0.000000 0.000000 0.000000 0.012723 0.000000 0.084372
#
#
# Mechanical properties :
#
#
# Convention : Reuss Voigt Hill
#
# Bulk Modulus (GPa) = 42.51317 52.30005 47.40661
# Shear Modulus (GPa) = 18.52575 25.23371 21.87973
#
# Velocity S-wave (km/s) = 2.97915 3.47692 3.23761
# Velocity P-wave (km/s) = 5.67459 6.41674 6.05704
#
# Compressibility (1/GPa) = 0.02352212
#
# Stress axis : x y z
#
# Youngs Moduli (GPa) = 44.73398 30.10400 76.44299
#
# Poissons Ratio (x) = 0.34385 0.15239
# Poissons Ratio (y) = 0.51095 0.69949
# Poissons Ratio (z) = 0.08918 0.27547
#
# Static dielectric constant tensor:
#      x y z
#    x 1.795240 0.000000 -0.023020 
#    y 0.000000 1.808270 0.000000 
#    z -0.023020 0.000000 1.780080 
# 
# From -- ./inp_files/110910.got.cif
#   From: 2010.05.17/outbox.cif.g08.bks.cpg/sg15_56_cif.got.tgz:110910.got - 2010.06.03 18:47:42.
