data_PCOD9266325
_publ_section_title
;
Structure prediction by ZEFSAII (Michael W. Deem and Ramdas Pophale) SiO2 
 PCOD9266325
Probable space group: C 2/C
;
_chemical_formula_sum "Si O2"
_cell_formula_units_Z 64
_cell_length_a 7.493429
_cell_length_b 15.870250
_cell_length_c 28.803257
_cell_angle_alpha 90.000000
_cell_angle_beta 55.020330
_cell_angle_gamma 90.000000
_cell_volume 2806.585933
_symmetry_space_group_name_H-M "C 2/C"
_symmetry_group_IT_number 15
_symmetry_cell_setting 'monoclinic'
loop_
_space_group_symop_operation_xyz
x,y,z
-x,y,1/2-z
-x,-y,-z
x,-y,1/2+z
1/2+x,1/2+y,z
1/2-x,1/2+y,1/2-z
1/2-x,1/2-y,-z
1/2+x,1/2-y,1/2+z
loop_
_atom_site_type_symbol
_atom_site_label
_atom_site_fract_x
_atom_site_fract_y
_atom_site_fract_z
Si Si1 0.168853 0.151124 0.953942
Si Si2 0.378518 0.682372 0.392027
Si Si3 0.788378 0.762143 0.801242
Si Si4 0.034428 0.993625 0.634448
Si Si5 0.825048 0.163453 0.077724
Si Si6 0.120077 0.498555 0.125338
Si Si7 0.106170 0.832218 0.097485
Si Si8 0.304201 0.933401 0.741649
O O1 0.264949 0.245208 0.938865
O O2 0.992501 0.151548 0.938640
O O3 0.343951 0.080468 0.913490
O O4 0.041728 0.131361 0.019855
O O5 0.353177 0.710472 0.343349
O O6 0.314708 0.584701 0.402577
O O7 0.623702 0.677342 0.375548
O O8 0.579735 0.704712 0.840425
O O9 0.742949 0.843915 0.776260
O O10 0.000000 0.715105 0.750000
O O11 0.830257 0.004283 0.628955
O O12 0.910166 0.968940 0.700608
O O13 0.168157 0.079468 0.610938
O O14 0.646688 0.091023 0.098046
O O15 0.769395 0.255012 0.067146
O O16 0.903093 0.503333 0.188260
O O17 0.500000 0.923160 0.750000
#
# Coordination Sequence:
#
# PCOD9266325 Si02
#       8
#     8   8   8   8   8   8   8   8
#     4  10  21  38  59  88 117 155 199 246 300 338
#     4  10  22  38  58  83 120 157 190 240 294 349
#     4  11  21  36  62  84 119 153 188 239 305 347
#     4   9  19  37  58  82 121 152 187 240 295 345
#     4  11  20  39  61  84 119 157 199 249 286 343
#     4   9  19  35  61  87 112 149 200 240 286 353
#     4  10  22  37  59  90 114 154 202 244 285 357
#     4  10  19  37  63  86 115 152 194 240 298 362
#
# _framework density 22.803505000000001
#
# number of rings (size 3 to 8) (size 9 to 14) (size 15 to 20)
#    0.000    2.000    2.500    1.125    0.000    3.500 
#    2.250    0.625    5.500    0.000    0.000    0.000 
#    0.000    0.000    0.000    0.000    0.000    0.000 
#
# Total GULP energy -178587.478214 kJ/mol
# GULP energy per Si atom -5580.858694 kJ/mol
# Density = 2.275160 g / cm^3
# Si number density = 22.803505 Si / 1000 Ang^3
#
#
#
# Elastic Constant Matrix: (Units=GPa)
#
#
# Indices 1 2 3 4 5 6 
#
# 1 47.0785 9.3355 8.7220 0.0000 6.9122 0.0000
# 2 9.3355 130.3552 43.1650 -0.0002 2.4150 0.0002
# 3 8.7220 43.1650 90.1256 -0.0002 -7.6126 0.0005
# 4 0.0000 -0.0002 -0.0002 32.4149 0.0000 -7.0770
# 5 6.9122 2.4150 -7.6126 0.0000 21.5447 -0.0002
# 6 0.0000 0.0002 0.0005 -7.0770 -0.0002 20.7417
#
#
#
# Elastic Compliance Matrix: (Units=1/GPa)
#
#
# Indices 1 2 3 4 5 6 
#
# 1 0.023065 -0.000628 -0.002629 0.000000 -0.008258 0.000000
# 2 -0.000628 0.009283 -0.004593 0.000000 -0.002462 0.000000
# 3 -0.002629 -0.004593 0.014085 0.000000 0.006335 0.000000
# 4 0.000000 0.000000 0.000000 0.033333 0.000000 0.011373
# 5 -0.008258 -0.002462 0.006335 0.000000 0.051579 0.000000
# 6 0.000000 0.000000 0.000000 0.011373 0.000000 0.052093
#
#
# Mechanical properties :
#
#
# Convention : Reuss Voigt Hill
#
# Bulk Modulus (GPa) = 32.53871 43.33380 37.93625
# Shear Modulus (GPa) = 23.87974 28.69605 26.28789
#
# Velocity S-wave (km/s) = 3.23955 3.55125 3.39898
# Velocity P-wave (km/s) = 5.31912 5.98828 5.66359
#
# Compressibility (1/GPa) = 0.03073263
#
# Stress axis : x y z
#
# Youngs Moduli (GPa) = 43.35522 107.72505 70.99767
#
# Poissons Ratio (x) = 0.06769 0.18664
# Poissons Ratio (y) = 0.02724 0.32610
# Poissons Ratio (z) = 0.11397 0.49479
#
# Static dielectric constant tensor:
#      x y z
#    x 1.910370 0.000000 0.013390 
#    y 0.000000 1.895110 0.000000 
#    z 0.013390 0.000000 1.837510 
# 
# From -- ./inp_files/307989.got.cif
#   From: 2010.05.17/outbox.cif.g08.bks.cpg/sg15_154_cif.got.tgz:307989.got - 2010.06.03 18:47:42.
