data_PCOD9266472
_publ_section_title
;
Structure prediction by ZEFSAII (Michael W. Deem and Ramdas Pophale) SiO2 
 PCOD9266472
Probable space group: C 2/C
;
_chemical_formula_sum "Si O2"
_cell_formula_units_Z 52
_cell_length_a 17.614655
_cell_length_b 17.481016
_cell_length_c 17.212469
_cell_angle_alpha 90.000000
_cell_angle_beta 29.279596
_cell_angle_gamma 90.000000
_cell_volume 2592.129294
_symmetry_space_group_name_H-M "C 2/C"
_symmetry_group_IT_number 15
_symmetry_cell_setting 'monoclinic'
loop_
_space_group_symop_operation_xyz
x,y,z
-x,y,1/2-z
-x,-y,-z
x,-y,1/2+z
1/2+x,1/2+y,z
1/2-x,1/2+y,1/2-z
1/2-x,1/2-y,-z
1/2+x,1/2-y,1/2+z
loop_
_atom_site_type_symbol
_atom_site_label
_atom_site_fract_x
_atom_site_fract_y
_atom_site_fract_z
Si Si1 0.500000 0.027047 0.750000
Si Si2 0.500000 0.217581 0.250000
Si Si3 0.702463 0.088705 0.989110
Si Si4 0.342013 0.691986 0.749090
Si Si5 0.278847 0.371007 0.016936
Si Si6 0.500000 0.483222 0.750000
Si Si7 0.562648 0.274982 0.920346
Si Si8 0.708552 0.205391 0.415542
O O1 0.366562 0.077555 0.830619
O O2 0.568630 0.972751 0.621961
O O3 0.360020 0.162092 0.405519
O O4 0.560235 0.269863 0.267560
O O5 0.748382 0.119796 0.864386
O O6 0.855805 0.041403 0.874526
O O7 0.450956 0.678056 0.577446
O O8 0.207209 0.748928 0.843028
O O9 0.288266 0.294124 0.058300
O O10 0.432608 0.423035 0.874110
O O11 0.232010 0.344761 0.970982
O O12 0.649000 0.309949 0.769102
O O13 0.454967 0.205127 0.984183
#
# Coordination Sequence:
#
# PCOD9266472 Si02
#       8
#     4   4   8   8   8   4   8   8
#     4   9  20  35  55  88 115 154 186 242 283 350
#     4  11  21  36  60  85 107 156 204 248 285 331
#     4  10  21  35  54  86 117 148 192 238 284 333
#     4  11  21  37  56  87 117 154 194 246 285 337
#     4  10  19  37  65  89 114 144 199 247 290 336
#     4  10  21  33  57  93 116 150 190 248 274 343
#     4  10  22  34  55  90 124 149 178 247 307 343
#     4  10  20  37  62  93 114 145 190 253 298 340
#
# _framework density 20.060727
#
# number of rings (size 3 to 8) (size 9 to 14) (size 15 to 20)
#    0.000    1.846    1.538    2.769    2.154    2.462 
#    0.000    0.000    0.000   29.538    8.000    0.000 
#    0.000    0.000    0.000    0.000    0.000    0.000 
#
# Total GULP energy -144752.224169 kJ/mol
# GULP energy per Si atom -5567.393237 kJ/mol
# Density = 2.001507 g / cm^3
# Si number density = 20.060727 Si / 1000 Ang^3
#
#
#
# Elastic Constant Matrix: (Units=GPa)
#
#
# Indices 1 2 3 4 5 6 
#
# 1 83.0045 16.4406 34.2314 -0.0007 3.1915 0.0007
# 2 16.4406 61.9293 32.1645 0.0028 2.9915 -0.0014
# 3 34.2314 32.1645 147.3213 0.0018 7.8168 -0.0023
# 4 -0.0007 0.0028 0.0018 32.8509 0.0022 -2.8268
# 5 3.1915 2.9915 7.8168 0.0022 29.8538 -0.0009
# 6 0.0007 -0.0014 -0.0023 -2.8268 -0.0009 14.9921
#
#
#
# Elastic Compliance Matrix: (Units=1/GPa)
#
#
# Indices 1 2 3 4 5 6 
#
# 1 0.013598 -0.002208 -0.002649 0.000001 -0.000539 -0.000001
# 2 -0.002208 0.018590 -0.003508 -0.000001 -0.000708 0.000001
# 3 -0.002649 -0.003508 0.008250 0.000000 -0.001526 0.000001
# 4 0.000001 -0.000001 0.000000 0.030943 -0.000002 0.005834
# 5 -0.000539 -0.000708 -0.001526 -0.000002 0.034025 0.000001
# 6 -0.000001 0.000001 0.000001 0.005834 0.000001 0.067802
#
#
# Mechanical properties :
#
#
# Convention : Reuss Voigt Hill
#
# Bulk Modulus (GPa) = 42.17998 50.88091 46.53044
# Shear Modulus (GPa) = 25.27293 29.50059 27.38676
#
# Velocity S-wave (km/s) = 3.55325 3.83895 3.69886
# Velocity P-wave (km/s) = 6.15677 6.71331 6.44106
#
# Compressibility (1/GPa) = 0.02370793
#
# Stress axis : x y z
#
# Youngs Moduli (GPa) = 73.53995 53.79280 121.20856
#
# Poissons Ratio (x) = 0.11878 0.32107
# Poissons Ratio (y) = 0.16238 0.42521
# Poissons Ratio (z) = 0.19480 0.18871
#
# Static dielectric constant tensor:
#      x y z
#    x 1.751240 0.000000 -0.018020 
#    y 0.000000 1.738600 0.000000 
#    z -0.018020 0.000000 1.757320 
# 
# From -- ./inp_files/48680.got.cif
#   From: 2010.05.17/outbox.cif.g08.bks.cpg/sg15_25_cif.got.tgz:48680.got - 2010.06.03 18:47:42.
