data_PCOD9266993
_publ_section_title
;
Structure prediction by ZEFSAII (Michael W. Deem and Ramdas Pophale) SiO2 
 PCOD9266993
Probable space group: C 2/C
;
_chemical_formula_sum "Si O2"
_cell_formula_units_Z 44
_cell_length_a 7.481796
_cell_length_b 12.767395
_cell_length_c 20.734769
_cell_angle_alpha 90.000000
_cell_angle_beta 97.541416
_cell_angle_gamma 90.000000
_cell_volume 1963.516161
_symmetry_space_group_name_H-M "C 2/C"
_symmetry_group_IT_number 15
_symmetry_cell_setting 'monoclinic'
loop_
_space_group_symop_operation_xyz
x,y,z
-x,y,1/2-z
-x,-y,-z
x,-y,1/2+z
1/2+x,1/2+y,z
1/2-x,1/2+y,1/2-z
1/2-x,1/2-y,-z
1/2+x,1/2-y,1/2+z
loop_
_atom_site_type_symbol
_atom_site_label
_atom_site_fract_x
_atom_site_fract_y
_atom_site_fract_z
Si Si1 0.242709 0.378399 0.318137
Si Si2 0.128313 0.966534 0.564373
Si Si3 0.500000 0.035836 0.250000
Si Si4 0.550067 0.759410 0.115811
Si Si5 0.467331 0.775044 0.654925
Si Si6 0.917029 0.330176 0.517313
O O1 0.328978 0.446331 0.380571
O O2 0.170938 0.459697 0.261957
O O3 0.395239 0.299886 0.303395
O O4 0.077731 0.306131 0.335643
O O5 0.040885 0.863759 0.595367
O O6 0.316444 0.932019 0.539377
O O7 0.000000 0.000000 0.500000
O O8 0.519320 0.111721 0.311801
O O9 0.762760 0.767274 0.143626
O O10 0.500768 0.826694 0.049266
O O11 0.529237 0.786933 0.582876
O O12 0.750000 0.250000 0.500000
#
# Coordination Sequence:
#
# PCOD9266993 Si02
#       6
#     8   8   4   8   8   8
#     4  12  25  43  71  96 127 183 222 268 338 395
#     4  10  19  38  64 101 137 168 214 271 332 396
#     4  12  26  48  64  96 136 174 234 274 322 408
#     4  10  22  43  68 102 135 166 224 275 333 406
#     4  10  23  47  65  93 140 169 217 288 318 390
#     4   8  16  37  63  93 135 162 202 273 328 381
#
# _framework density 22.408781000000001
#
# number of rings (size 3 to 8) (size 9 to 14) (size 15 to 20)
#    0.000    2.182    3.636    3.273    2.545    3.636 
#    6.545    1.818    0.000    0.000    0.000    0.000 
#    0.000    0.000    0.000    0.000    0.000    0.000 
#
# Total GULP energy -122793.807634 kJ/mol
# GULP energy per Si atom -5581.536711 kJ/mol
# Density = 2.235778 g / cm^3
# Si number density = 22.408781 Si / 1000 Ang^3
#
#
#
# Elastic Constant Matrix: (Units=GPa)
#
#
# Indices 1 2 3 4 5 6 
#
# 1 71.9803 46.0142 41.5822 0.0000 5.0300 0.0000
# 2 46.0142 110.0969 21.4445 0.0000 2.0326 0.0000
# 3 41.5822 21.4445 86.9451 0.0000 10.4307 0.0000
# 4 0.0000 0.0000 0.0000 37.7792 0.0000 13.0738
# 5 5.0300 2.0326 10.4307 0.0000 34.8759 0.0000
# 6 0.0000 0.0000 0.0000 13.0738 0.0000 37.5795
#
#
#
# Elastic Compliance Matrix: (Units=1/GPa)
#
#
# Indices 1 2 3 4 5 6 
#
# 1 0.025068 -0.008553 -0.009859 0.000000 -0.000168 0.000000
# 2 -0.008553 0.012461 0.000992 0.000000 0.000211 0.000000
# 3 -0.009859 0.000992 0.016397 0.000000 -0.003540 0.000000
# 4 0.000000 0.000000 0.000000 0.030093 0.000000 -0.010469
# 5 -0.000168 0.000211 -0.003540 0.000000 0.029744 0.000000
# 6 0.000000 0.000000 0.000000 -0.010469 0.000000 0.030252
#
#
# Mechanical properties :
#
#
# Convention : Reuss Voigt Hill
#
# Bulk Modulus (GPa) = 52.39893 54.12268 53.26081
# Shear Modulus (GPa) = 26.99551 32.71234 29.85393
#
# Velocity S-wave (km/s) = 3.47462 3.82488 3.65395
# Velocity P-wave (km/s) = 6.28739 6.61144 6.45145
#
# Compressibility (1/GPa) = 0.01908436
#
# Stress axis : x y z
#
# Youngs Moduli (GPa) = 39.89184 80.25280 60.98814
#
# Poissons Ratio (x) = 0.68644 0.60128
# Poissons Ratio (y) = 0.34121 -0.06051
# Poissons Ratio (z) = 0.39329 -0.07962
#
# Static dielectric constant tensor:
#      x y z
#    x 1.783080 0.000000 -0.016940 
#    y 0.000000 1.868010 0.000000 
#    z -0.016940 0.000000 1.906810 
# 
# From -- ./inp_files/263183.got.cif
#   From: 2010.05.17/outbox.cif.g08.bks.cpg/sg15_132_cif.got.tgz:263183.got - 2010.06.03 18:47:42.
