data_PCOD9266893
_publ_section_title
;
Structure prediction by ZEFSAII (Michael W. Deem and Ramdas Pophale) SiO2 
 PCOD9266893
Probable space group: C 2/C
;
_chemical_formula_sum "Si O2"
_cell_formula_units_Z 52
_cell_length_a 21.082417
_cell_length_b 8.330025
_cell_length_c 16.972076
_cell_angle_alpha 90.000000
_cell_angle_beta 49.234944
_cell_angle_gamma 90.000000
_cell_volume 2257.476325
_symmetry_space_group_name_H-M "C 2/C"
_symmetry_group_IT_number 15
_symmetry_cell_setting 'monoclinic'
loop_
_space_group_symop_operation_xyz
x,y,z
-x,y,1/2-z
-x,-y,-z
x,-y,1/2+z
1/2+x,1/2+y,z
1/2-x,1/2+y,1/2-z
1/2-x,1/2-y,-z
1/2+x,1/2-y,1/2+z
loop_
_atom_site_type_symbol
_atom_site_label
_atom_site_fract_x
_atom_site_fract_y
_atom_site_fract_z
Si Si1 0.000000 0.821974 0.750000
Si Si2 0.331078 0.579101 0.436081
Si Si3 0.823984 0.113344 0.090991
Si Si4 0.926641 0.405641 0.171865
Si Si5 0.961024 0.346002 0.964141
Si Si6 0.183325 0.600660 0.453792
Si Si7 0.737537 0.671132 0.776373
O O1 0.927288 0.938446 0.838665
O O2 0.962693 0.704730 0.712044
O O3 0.293928 0.475784 0.537476
O O4 0.274492 0.544360 0.406897
O O5 0.332600 0.763291 0.467066
O O6 0.766164 0.257214 0.169948
O O7 0.820739 0.983820 0.164573
O O8 0.916043 0.175319 0.993564
O O9 0.827437 0.377455 0.243049
O O10 0.956892 0.592206 0.148292
O O11 0.967575 0.356504 0.054176
O O12 0.889113 0.470610 0.992317
O O13 0.193156 0.690131 0.362875
#
# Coordination Sequence:
#
# PCOD9266893 Si02
#       7
#     4   8   8   8   8   8   8
#     4  12  20  42  64  92 124 174 212 260 320 394
#     4  10  22  37  65  94 127 170 209 262 322 381
#     4  10  22  38  62  92 127 162 213 267 317 380
#     4  10  21  36  66  87 121 171 218 254 320 387
#     4  10  21  40  59  91 126 167 215 271 312 376
#     4  10  19  38  64  91 125 164 216 261 312 389
#     4  10  19  38  62  92 123 166 215 256 322 383
#
# _framework density 23.034572000000001
#
# number of rings (size 3 to 8) (size 9 to 14) (size 15 to 20)
#    0.000    1.846    3.077    1.846    0.000    0.615 
#    0.000    5.385    0.000    0.000    0.000    0.000 
#    0.000    0.000    0.000    0.000    0.000    0.000 
#
# Total GULP energy -144994.180125 kJ/mol
# GULP energy per Si atom -5576.699236 kJ/mol
# Density = 2.298214 g / cm^3
# Si number density = 23.034572 Si / 1000 Ang^3
#
#
#
# Elastic Constant Matrix: (Units=GPa)
#
#
# Indices 1 2 3 4 5 6 
#
# 1 73.3445 34.7976 22.4871 -0.0002 0.7215 0.0001
# 2 34.7976 68.8914 29.8542 -0.0003 8.8107 0.0002
# 3 22.4871 29.8542 79.6105 -0.0001 -12.4370 0.0001
# 4 -0.0002 -0.0003 -0.0001 46.6941 -0.0001 0.0413
# 5 0.7215 8.8107 -12.4370 -0.0001 32.0297 0.0001
# 6 0.0001 0.0002 0.0001 0.0413 0.0001 11.8157
#
#
#
# Elastic Compliance Matrix: (Units=1/GPa)
#
#
# Indices 1 2 3 4 5 6 
#
# 1 0.018246 -0.008642 -0.001710 0.000000 0.001302 0.000000
# 2 -0.008642 0.023450 -0.007803 0.000000 -0.009286 0.000000
# 3 -0.001710 -0.007803 0.017365 0.000000 0.008928 0.000000
# 4 0.000000 0.000000 0.000000 0.021416 0.000000 -0.000075
# 5 0.001302 -0.009286 0.008928 0.000000 0.037213 0.000000
# 6 0.000000 0.000000 0.000000 -0.000075 0.000000 0.084633
#
#
# Mechanical properties :
#
#
# Convention : Reuss Voigt Hill
#
# Bulk Modulus (GPa) = 43.95411 44.01382 43.98397
# Shear Modulus (GPa) = 20.30739 27.08840 23.69789
#
# Velocity S-wave (km/s) = 2.97240 3.43299 3.21097
# Velocity P-wave (km/s) = 5.55909 5.90450 5.73439
#
# Compressibility (1/GPa) = 0.02275100
#
# Stress axis : x y z
#
# Youngs Moduli (GPa) = 54.80769 42.64422 57.58664
#
# Poissons Ratio (x) = 0.36852 0.09845
# Poissons Ratio (y) = 0.47363 0.44938
# Poissons Ratio (z) = 0.09370 0.33277
#
# Static dielectric constant tensor:
#      x y z
#    x 1.900880 0.000000 -0.043440 
#    y 0.000000 2.000130 0.000000 
#    z -0.043440 0.000000 1.897670 
# 
# From -- ./inp_files/214220.got.cif
#   From: 2010.05.17/outbox.cif.g08.bks.cpg/sg15_108_cif.got.tgz:214220.got - 2010.06.03 18:47:42.
