data_PCOD9266267
_publ_section_title
;
Structure prediction by ZEFSAII (Michael W. Deem and Ramdas Pophale) SiO2 
 PCOD9266267
Probable space group: C 2/C
;
_chemical_formula_sum "Si O2"
_cell_formula_units_Z 40
_cell_length_a 13.221922
_cell_length_b 8.094608
_cell_length_c 16.705509
_cell_angle_alpha 90.000000
_cell_angle_beta 128.960751
_cell_angle_gamma 90.000000
_cell_volume 1390.251793
_symmetry_space_group_name_H-M "C 2/C"
_symmetry_group_IT_number 15
_symmetry_cell_setting 'monoclinic'
loop_
_space_group_symop_operation_xyz
x,y,z
-x,y,1/2-z
-x,-y,-z
x,-y,1/2+z
1/2+x,1/2+y,z
1/2-x,1/2+y,1/2-z
1/2-x,1/2-y,-z
1/2+x,1/2-y,1/2+z
loop_
_atom_site_type_symbol
_atom_site_label
_atom_site_fract_x
_atom_site_fract_y
_atom_site_fract_z
Si Si1 0.464283 0.201524 0.340346
Si Si2 0.203115 0.724590 0.617378
Si Si3 0.587725 0.159709 0.725403
Si Si4 0.382023 0.358423 0.448728
Si Si5 0.316804 0.458261 0.048009
O O1 0.332776 0.249507 0.232221
O O2 0.487006 0.013968 0.327284
O O3 0.447050 0.216353 0.427357
O O4 0.561056 0.348032 0.365338
O O5 0.105191 0.731642 0.644146
O O6 0.216787 0.557080 0.571037
O O7 0.216302 0.857237 0.551025
O O8 0.500000 0.248017 0.750000
O O9 0.736336 0.130566 0.833363
O O10 0.500000 0.500000 0.500000
O O11 0.350557 0.366936 0.526932
#
# Coordination Sequence:
#
# PCOD9266267 Si02
#       5
#     8   8   8   8   8
#     4  10  20  37  62  88 118 161 201 250 304 369
#     4  10  21  35  61  89 119 157 199 247 312 361
#     4  11  22  38  62  90 124 156 206 261 309 356
#     4   9  20  39  63  84 122 163 204 247 302 373
#     4  10  19  37  62  88 118 158 204 246 302 376
#
# _framework density 28.771764999999998
#
# number of rings (size 3 to 8) (size 9 to 14) (size 15 to 20)
#    0.000    2.000    2.000    1.800    2.800    0.800 
#    0.000    1.000   22.000    0.000    0.000    0.000 
#    0.000    0.000    0.000    0.000    0.000    0.000 
#
# Total GULP energy -111439.594979 kJ/mol
# GULP energy per Si atom -5571.979749 kJ/mol
# Density = 2.870628 g / cm^3
# Si number density = 28.771765 Si / 1000 Ang^3
#
#
#
# Elastic Constant Matrix: (Units=GPa)
#
#
# Indices 1 2 3 4 5 6 
#
# 1 178.8529 49.8784 63.2024 0.0000 -36.7283 0.0000
# 2 49.8784 35.2643 21.6117 0.0000 -16.8188 0.0000
# 3 63.2024 21.6117 166.5390 0.0000 -30.9235 0.0000
# 4 0.0000 0.0000 0.0000 41.3350 0.0000 -11.2182
# 5 -36.7283 -16.8188 -30.9235 0.0000 64.9847 0.0000
# 6 0.0000 0.0000 0.0000 -11.2182 0.0000 52.0427
#
#
#
# Elastic Compliance Matrix: (Units=1/GPa)
#
#
# Indices 1 2 3 4 5 6 
#
# 1 0.009999 -0.012216 -0.001917 0.000000 0.001578 0.000000
# 2 -0.012216 0.048604 -0.000677 0.000000 0.005353 0.000000
# 3 -0.001917 -0.000677 0.007225 0.000000 0.002179 0.000000
# 4 0.000000 0.000000 0.000000 0.025696 0.000000 0.005539
# 5 0.001578 0.005353 0.002179 0.000000 0.018702 0.000000
# 6 0.000000 0.000000 0.000000 0.005539 0.000000 0.020409
#
#
# Mechanical properties :
#
#
# Convention : Reuss Voigt Hill
#
# Bulk Modulus (GPa) = 27.61847 72.22681 49.92264
# Shear Modulus (GPa) = 29.01514 48.07004 38.54259
#
# Velocity S-wave (km/s) = 3.17907 4.09190 3.66402
# Velocity P-wave (km/s) = 4.80576 6.89077 5.94046
#
# Compressibility (1/GPa) = 0.03620765
#
# Stress axis : x y z
#
# Youngs Moduli (GPa) = 100.00737 20.57452 138.41787
#
# Poissons Ratio (x) = 0.25134 0.26528
# Poissons Ratio (y) = 1.22170 0.09376
# Poissons Ratio (z) = 0.19167 0.01394
#
# Static dielectric constant tensor:
#      x y z
#    x 2.477800 0.000000 0.098430 
#    y 0.000000 2.524550 0.000000 
#    z 0.098430 0.000000 2.251750 
# 
# From -- ./inp_files/151490.got.cif
#   From: 2010.05.17/outbox.cif.g08.bks.cpg/sg15_76_cif.got.tgz:151490.got - 2010.06.03 18:47:42.
