data_PCOD9266115
_publ_section_title
;
Structure prediction by ZEFSAII (Michael W. Deem and Ramdas Pophale) SiO2 
 PCOD9266115
Probable space group: C 2/C
;
_chemical_formula_sum "Si O2"
_cell_formula_units_Z 60
_cell_length_a 18.250925
_cell_length_b 12.198022
_cell_length_c 14.761907
_cell_angle_alpha 90.000000
_cell_angle_beta 95.756921
_cell_angle_gamma 90.000000
_cell_volume 3269.797154
_symmetry_space_group_name_H-M "C 2/C"
_symmetry_group_IT_number 15
_symmetry_cell_setting 'monoclinic'
loop_
_space_group_symop_operation_xyz
x,y,z
-x,y,1/2-z
-x,-y,-z
x,-y,1/2+z
1/2+x,1/2+y,z
1/2-x,1/2+y,1/2-z
1/2-x,1/2-y,-z
1/2+x,1/2-y,1/2+z
loop_
_atom_site_type_symbol
_atom_site_label
_atom_site_fract_x
_atom_site_fract_y
_atom_site_fract_z
Si Si1 0.852928 0.745762 0.439927
Si Si2 0.500000 0.683568 0.750000
Si Si3 0.115608 0.373979 0.723809
Si Si4 0.080356 0.625464 0.724206
Si Si5 0.721877 0.885352 0.901437
Si Si6 0.207762 0.357602 0.386048
Si Si7 0.866129 0.258142 0.452830
Si Si8 0.500733 0.616039 0.950101
O O1 0.869718 0.641337 0.380253
O O2 0.825249 0.707426 0.533266
O O3 0.787963 0.807779 0.378375
O O4 0.924181 0.821222 0.458076
O O5 0.566997 0.769016 0.745610
O O6 0.508396 0.612650 0.841830
O O7 0.078976 0.492842 0.727967
O O8 0.185550 0.369801 0.798303
O O9 0.148456 0.653857 0.798998
O O10 0.102029 0.673176 0.628398
O O11 0.000000 0.664617 0.750000
O O12 0.800600 0.825283 0.915918
O O13 0.722138 0.016049 0.913777
O O14 0.669949 0.833708 0.973213
O O15 0.932651 0.189040 0.503742
O O16 0.500000 0.500000 0.000000
#
# Coordination Sequence:
#
# PCOD9266115 Si02
#       8
#     8   4   8   8   8   8   8   8
#     4  10  21  37  61  81 120 154 204 243 297 354
#     4  10  20  40  60  86 114 156 198 236 298 358
#     4  10  19  37  60  87 115 158 195 242 293 364
#     4  11  22  36  59  91 124 153 199 250 306 352
#     4  10  21  37  61  86 120 158 199 246 303 363
#     4  10  21  38  56  86 117 161 196 244 299 359
#     4  11  22  38  60  89 122 155 201 253 303 352
#     4  11  23  41  62  87 118 160 202 250 297 359
#
# _framework density 18.349761999999998
#
# number of rings (size 3 to 8) (size 9 to 14) (size 15 to 20)
#    0.000    1.600    2.000    3.200    0.000    0.000 
#    3.600    4.000    8.800    0.000    0.000    0.000 
#    0.000    0.000    0.000    0.000    0.000    0.000 
#
# Total GULP energy -167343.369257 kJ/mol
# GULP energy per Si atom -5578.112309 kJ/mol
# Density = 1.830800 g / cm^3
# Si number density = 18.349762 Si / 1000 Ang^3
#
#
#
# Elastic Constant Matrix: (Units=GPa)
#
#
# Indices 1 2 3 4 5 6 
#
# 1 105.6942 21.8345 36.1940 0.0000 11.8891 0.0000
# 2 21.8345 59.3653 41.9269 0.0000 10.5239 0.0000
# 3 36.1940 41.9269 105.8785 0.0000 4.2016 0.0000
# 4 0.0000 0.0000 0.0000 29.8280 0.0000 -4.6161
# 5 11.8891 10.5239 4.2016 0.0000 26.3266 0.0000
# 6 0.0000 0.0000 0.0000 -4.6161 0.0000 12.4325
#
#
#
# Elastic Compliance Matrix: (Units=1/GPa)
#
#
# Indices 1 2 3 4 5 6 
#
# 1 0.011268 -0.001123 -0.003244 0.000000 -0.004122 0.000000
# 2 -0.001123 0.025262 -0.009298 0.000000 -0.008107 0.000000
# 3 -0.003244 -0.009298 0.014119 0.000000 0.002928 0.000000
# 4 0.000000 0.000000 0.000000 0.035569 0.000000 0.013206
# 5 -0.004122 -0.008107 0.002928 0.000000 0.042619 0.000000
# 6 0.000000 0.000000 0.000000 0.013206 0.000000 0.085338
#
#
# Mechanical properties :
#
#
# Convention : Reuss Voigt Hill
#
# Bulk Modulus (GPa) = 42.88129 52.31653 47.59891
# Shear Modulus (GPa) = 20.05803 25.11626 22.58715
#
# Velocity S-wave (km/s) = 3.30979 3.70368 3.51226
# Velocity P-wave (km/s) = 6.16651 6.84560 6.51491
#
# Compressibility (1/GPa) = 0.02332019
#
# Stress axis : x y z
#
# Youngs Moduli (GPa) = 88.75009 39.58568 70.82513
#
# Poissons Ratio (x) = 0.04444 0.22973
# Poissons Ratio (y) = 0.09964 0.65852
# Poissons Ratio (z) = 0.28787 0.36806
#
# Static dielectric constant tensor:
#      x y z
#    x 1.638730 0.000000 -0.009170 
#    y 0.000000 1.606590 0.000000 
#    z -0.009170 0.000000 1.620590 
# 
# From -- ./inp_files/160935.got.cif
#   From: 2010.05.17/outbox.cif.g08.bks.cpg/sg15_81_cif.got.tgz:160935.got - 2010.06.03 18:47:42.
