data_PCOD9266288
_publ_section_title
;
Structure prediction by ZEFSAII (Michael W. Deem and Ramdas Pophale) SiO2 
 PCOD9266288
Probable space group: C 2/C
;
_chemical_formula_sum "Si O2"
_cell_formula_units_Z 56
_cell_length_a 8.884517
_cell_length_b 18.205249
_cell_length_c 25.836293
_cell_angle_alpha 90.000000
_cell_angle_beta 41.903915
_cell_angle_gamma 90.000000
_cell_volume 2791.009435
_symmetry_space_group_name_H-M "C 2/C"
_symmetry_group_IT_number 15
_symmetry_cell_setting 'monoclinic'
loop_
_space_group_symop_operation_xyz
x,y,z
-x,y,1/2-z
-x,-y,-z
x,-y,1/2+z
1/2+x,1/2+y,z
1/2-x,1/2+y,1/2-z
1/2-x,1/2-y,-z
1/2+x,1/2-y,1/2+z
loop_
_atom_site_type_symbol
_atom_site_label
_atom_site_fract_x
_atom_site_fract_y
_atom_site_fract_z
Si Si1 0.956052 0.708503 0.993747
Si Si2 0.855154 0.563918 0.508447
Si Si3 0.968737 0.431317 0.329954
Si Si4 0.831163 0.859661 0.016098
Si Si5 0.683821 0.917122 0.603231
Si Si6 0.622741 0.383087 0.331507
Si Si7 0.082524 0.255983 0.669380
O O1 0.741477 0.675408 0.019376
O O2 0.039202 0.644281 0.008814
O O3 0.160238 0.726705 0.901819
O O4 0.899269 0.787680 0.032284
O O5 0.848286 0.559923 0.448261
O O6 0.601765 0.571535 0.596333
O O7 0.000000 0.500000 0.500000
O O8 0.881447 0.401536 0.406871
O O9 0.919904 0.517259 0.337278
O O10 0.798785 0.390558 0.333688
O O11 0.228345 0.415464 0.253339
O O12 0.047624 0.910565 0.956936
O O13 0.584292 0.838015 0.644926
O O14 0.555636 0.301236 0.330909
O O15 0.000000 0.255988 0.750000
#
# Coordination Sequence:
#
# PCOD9266288 Si02
#       7
#     8   8   8   8   8   8   8
#     4   9  21  35  61  94 122 165 210 266 308 384
#     4  11  23  41  63  94 129 168 212 269 326 377
#     4  11  22  39  63  93 125 166 213 259 317 391
#     4  10  19  37  62  91 125 164 216 255 312 381
#     4  11  24  38  67  93 128 169 214 267 318 380
#     4  10  24  40  64  89 125 168 210 258 324 386
#     4  10  22  41  63  88 127 168 214 264 326 382
#
# _framework density 20.064423999999999
#
# number of rings (size 3 to 8) (size 9 to 14) (size 15 to 20)
#    0.000    1.714    1.429    2.143    6.000    2.857 
#    0.000    1.429    0.000    0.000    0.000    0.000 
#    0.000    0.000    0.000    0.000    0.000    0.000 
#
# Total GULP energy -156172.753555 kJ/mol
# GULP energy per Si atom -5577.598341 kJ/mol
# Density = 2.001876 g / cm^3
# Si number density = 20.064424 Si / 1000 Ang^3
#
#
#
# Elastic Constant Matrix: (Units=GPa)
#
#
# Indices 1 2 3 4 5 6 
#
# 1 61.4051 30.4315 34.1554 0.0036 -9.5090 -0.0005
# 2 30.4315 123.4634 55.7257 0.0013 -4.3292 -0.0008
# 3 34.1554 55.7257 93.1277 -0.0012 -1.9936 -0.0025
# 4 0.0036 0.0013 -0.0012 19.2677 -0.0046 -1.8173
# 5 -9.5090 -4.3292 -1.9936 -0.0046 24.1329 0.0013
# 6 -0.0005 -0.0008 -0.0025 -1.8173 0.0013 34.3375
#
#
#
# Elastic Compliance Matrix: (Units=1/GPa)
#
#
# Indices 1 2 3 4 5 6 
#
# 1 0.022318 -0.002202 -0.006700 -0.000003 0.007845 -0.000001
# 2 -0.002202 0.011364 -0.005978 -0.000001 0.000677 0.000000
# 3 -0.006700 -0.005978 0.016722 0.000002 -0.002331 0.000001
# 4 -0.000003 -0.000001 0.000002 0.052161 0.000009 0.002761
# 5 0.007845 0.000677 -0.002331 0.000009 0.044458 -0.000001
# 6 -0.000001 0.000000 0.000001 0.002761 -0.000001 0.029269
#
#
# Mechanical properties :
#
#
# Convention : Reuss Voigt Hill
#
# Bulk Modulus (GPa) = 48.43750 57.62460 53.03105
# Shear Modulus (GPa) = 23.48153 26.05984 24.77068
#
# Velocity S-wave (km/s) = 3.42469 3.60781 3.51744
# Velocity P-wave (km/s) = 6.31121 6.79243 6.55624
#
# Compressibility (1/GPa) = 0.02064516
#
# Stress axis : x y z
#
# Youngs Moduli (GPa) = 44.80666 87.99503 59.79992
#
# Poissons Ratio (x) = 0.19376 0.40065
# Poissons Ratio (y) = 0.09866 0.35749
# Poissons Ratio (z) = 0.30020 0.52604
#
# Static dielectric constant tensor:
#      x y z
#    x 1.748060 0.000000 0.024780 
#    y 0.000000 1.748030 0.000000 
#    z 0.024780 0.000000 1.736300 
# 
# From -- ./inp_files/289669.got.cif
#   From: 2010.05.17/outbox.cif.g08.bks.cpg/sg15_145_cif.got.tgz:289669.got - 2010.06.03 18:47:42.
