data_PCOD9266109
_publ_section_title
;
Structure prediction by ZEFSAII (Michael W. Deem and Ramdas Pophale) SiO2 
 PCOD9266109
Probable space group: C 2/C
;
_chemical_formula_sum "Si O2"
_cell_formula_units_Z 48
_cell_length_a 10.278944
_cell_length_b 27.898213
_cell_length_c 15.571878
_cell_angle_alpha 90.000000
_cell_angle_beta 28.372880
_cell_angle_gamma 90.000000
_cell_volume 2122.019784
_symmetry_space_group_name_H-M "C 2/C"
_symmetry_group_IT_number 15
_symmetry_cell_setting 'monoclinic'
loop_
_space_group_symop_operation_xyz
x,y,z
-x,y,1/2-z
-x,-y,-z
x,-y,1/2+z
1/2+x,1/2+y,z
1/2-x,1/2+y,1/2-z
1/2-x,1/2-y,-z
1/2+x,1/2-y,1/2+z
loop_
_atom_site_type_symbol
_atom_site_label
_atom_site_fract_x
_atom_site_fract_y
_atom_site_fract_z
Si Si1 0.232572 0.403163 0.962185
Si Si2 0.494323 0.848335 0.956646
Si Si3 0.703472 0.501331 0.963912
Si Si4 0.940255 0.842645 0.985837
Si Si5 0.702504 0.762650 0.929572
Si Si6 0.284466 0.603908 0.028745
O O1 0.500000 0.394813 0.750000
O O2 0.009420 0.391185 0.018663
O O3 0.224240 0.364439 0.043880
O O4 0.289412 0.453899 0.975417
O O5 0.488193 0.799630 0.015423
O O6 0.262298 0.860378 0.022812
O O7 0.770317 0.842170 0.735975
O O8 0.664360 0.450071 0.031797
O O9 0.000000 0.502414 0.750000
O O10 0.500000 0.500000 0.000000
O O11 0.988252 0.878550 0.036626
O O12 0.859031 0.790613 0.069529
O O13 0.000000 0.786732 0.750000
O O14 0.750000 0.750000 0.000000
O O15 0.000000 0.602859 0.250000
#
# Coordination Sequence:
#
# PCOD9266109 Si02
#       6
#     8   8   8   8   8   8
#     4  10  20  37  64  89 121 161 208 251 314 373
#     4  10  20  37  59  89 118 161 203 249 309 378
#     4  11  23  42  66  95 127 167 216 259 313 379
#     4  10  19  37  60  86 116 160 200 248 306 373
#     4  12  21  36  61  89 116 152 207 257 301 367
#     4   9  20  38  61  84 123 162 202 245 311 376
#
# _framework density 22.619959000000001
#
# number of rings (size 3 to 8) (size 9 to 14) (size 15 to 20)
#    0.000    1.667    5.000    0.500    2.333    2.000 
#    0.000    0.000    0.000    0.000    0.000    0.000 
#    0.000    0.000    0.000    0.000    0.000    0.000 
#
# Total GULP energy -133673.641242 kJ/mol
# GULP energy per Si atom -5569.735052 kJ/mol
# Density = 2.256847 g / cm^3
# Si number density = 22.619959 Si / 1000 Ang^3
#
#
#
# Elastic Constant Matrix: (Units=GPa)
#
#
# Indices 1 2 3 4 5 6 
#
# 1 130.6495 52.8043 14.7941 0.0000 12.9996 0.0000
# 2 52.8043 174.6789 4.2519 0.0000 20.4077 0.0000
# 3 14.7941 4.2519 32.0930 -0.0001 2.8616 0.0000
# 4 0.0000 0.0000 -0.0001 17.1341 0.0000 3.2762
# 5 12.9996 20.4077 2.8616 0.0000 22.8537 0.0000
# 6 0.0000 0.0000 0.0000 3.2762 0.0000 40.9768
#
#
#
# Elastic Compliance Matrix: (Units=1/GPa)
#
#
# Indices 1 2 3 4 5 6 
#
# 1 0.009319 -0.002413 -0.003737 0.000000 -0.002678 0.000000
# 2 -0.002413 0.007020 0.000626 0.000000 -0.004975 0.000000
# 3 -0.003737 0.000626 0.033028 0.000000 -0.002569 0.000000
# 4 0.000000 0.000000 0.000000 0.059269 0.000000 -0.004739
# 5 -0.002678 -0.004975 -0.002569 0.000000 0.050044 0.000000
# 6 0.000000 0.000000 0.000000 -0.004739 0.000000 0.024783
#
#
# Mechanical properties :
#
#
# Convention : Reuss Voigt Hill
#
# Bulk Modulus (GPa) = 26.09718 53.45800 39.77759
# Shear Modulus (GPa) = 24.12128 33.89765 29.00946
#
# Velocity S-wave (km/s) = 3.26908 3.87534 3.58505
# Velocity P-wave (km/s) = 5.08050 6.61126 5.89577
#
# Compressibility (1/GPa) = 0.03831832
#
# Stress axis : x y z
#
# Youngs Moduli (GPa) = 107.30657 142.44521 30.27695
#
# Poissons Ratio (x) = 0.34376 0.11316
# Poissons Ratio (y) = 0.25896 -0.01895
# Poissons Ratio (z) = 0.40105 -0.08916
#
# Static dielectric constant tensor:
#      x y z
#    x 1.836070 0.000000 0.007720 
#    y 0.000000 1.938370 0.000000 
#    z 0.007720 0.000000 1.873320 
# 
# From -- ./inp_files/26124.got.cif
#   From: 2010.05.17/outbox.cif.g08.bks.cpg/sg15_14_cif.got.tgz:26124.got - 2010.06.03 18:47:42.
