data_PCOD9266969
_publ_section_title
;
Structure prediction by ZEFSAII (Michael W. Deem and Ramdas Pophale) SiO2 
 PCOD9266969
Probable space group: C 2/C
;
_chemical_formula_sum "Si O2"
_cell_formula_units_Z 40
_cell_length_a 7.764483
_cell_length_b 22.818353
_cell_length_c 17.187774
_cell_angle_alpha 90.000000
_cell_angle_beta 145.466069
_cell_angle_gamma 90.000000
_cell_volume 1726.308780
_symmetry_space_group_name_H-M "C 2/C"
_symmetry_group_IT_number 15
_symmetry_cell_setting 'monoclinic'
loop_
_space_group_symop_operation_xyz
x,y,z
-x,y,1/2-z
-x,-y,-z
x,-y,1/2+z
1/2+x,1/2+y,z
1/2-x,1/2+y,1/2-z
1/2-x,1/2-y,-z
1/2+x,1/2-y,1/2+z
loop_
_atom_site_type_symbol
_atom_site_label
_atom_site_fract_x
_atom_site_fract_y
_atom_site_fract_z
Si Si1 0.304772 0.364611 0.242600
Si Si2 0.733677 0.928446 0.541676
Si Si3 0.324827 0.772818 0.116081
Si Si4 0.686966 0.356237 0.608990
Si Si5 0.198040 0.560465 0.483690
O O1 0.500000 0.331859 0.250000
O O2 0.541646 0.400556 0.380220
O O3 0.088186 0.320378 0.204035
O O4 0.078282 0.409857 0.117015
O O5 0.624364 0.931006 0.591057
O O6 0.981121 0.882078 0.602874
O O7 0.796581 0.993581 0.533935
O O8 0.500000 0.735004 0.250000
O O9 0.250000 0.750000 0.000000
O O10 0.014393 0.809624 0.014778
O O11 0.795267 0.412938 0.599612
O O12 0.000000 0.326369 0.750000
#
# Coordination Sequence:
#
# PCOD9266969 Si02
#       5
#     8   8   8   8   8
#     4   9  19  39  65  92 132 177 225 279 337 412
#     4   9  21  35  61  98 134 183 228 265 334 418
#     4  11  24  49  72  98 131 178 239 300 363 420
#     4  11  24  41  63  99 136 174 226 287 349 415
#     4  10  19  38  63  92 139 183 222 277 331 414
#
# _framework density 23.170826999999999
#
# number of rings (size 3 to 8) (size 9 to 14) (size 15 to 20)
#    0.000    2.000    2.000    0.600    2.800    1.600 
#   10.800    2.000    0.000    0.000    0.000    0.000 
#    0.000    0.000    0.000    0.000    0.000    0.000 
#
# Total GULP energy -111401.040459 kJ/mol
# GULP energy per Si atom -5570.052023 kJ/mol
# Density = 2.311809 g / cm^3
# Si number density = 23.170827 Si / 1000 Ang^3
#
#
#
# Elastic Constant Matrix: (Units=GPa)
#
#
# Indices 1 2 3 4 5 6 
#
# 1 82.0437 18.4895 53.1297 0.0008 1.8838 0.0007
# 2 18.4895 47.2449 23.9810 0.0003 -5.4810 0.0003
# 3 53.1297 23.9810 142.3842 0.0072 16.3568 0.0073
# 4 0.0008 0.0003 0.0072 30.0928 0.0014 31.6244
# 5 1.8838 -5.4810 16.3568 0.0014 34.3600 0.0021
# 6 0.0007 0.0003 0.0073 31.6244 0.0021 74.3808
#
#
#
# Elastic Compliance Matrix: (Units=1/GPa)
#
#
# Indices 1 2 3 4 5 6 
#
# 1 0.016687 -0.003438 -0.005797 0.000001 0.001296 0.000000
# 2 -0.003438 0.025029 -0.003610 0.000001 0.005900 0.000000
# 3 -0.005797 -0.003610 0.010392 -0.000002 -0.005205 0.000000
# 4 0.000001 0.000001 -0.000002 0.060071 0.000000 -0.025540
# 5 0.001296 0.005900 -0.005205 0.000000 0.032452 0.000000
# 6 0.000000 0.000000 0.000000 -0.025540 0.000000 0.024303
#
#
# Mechanical properties :
#
#
# Convention : Reuss Voigt Hill
#
# Bulk Modulus (GPa) = 37.85229 51.43037 44.64133
# Shear Modulus (GPa) = 24.57843 39.50487 32.04165
#
# Velocity S-wave (km/s) = 3.26045 4.13357 3.72270
# Velocity P-wave (km/s) = 5.52681 6.71016 6.14703
#
# Compressibility (1/GPa) = 0.02641848
#
# Stress axis : x y z
#
# Youngs Moduli (GPa) = 59.92516 39.95399 96.22525
#
# Poissons Ratio (x) = 0.13736 0.55779
# Poissons Ratio (y) = 0.20602 0.34740
# Poissons Ratio (z) = 0.34737 0.14425
#
# Static dielectric constant tensor:
#      x y z
#    x 2.012030 0.000000 -0.144470 
#    y 0.000000 1.885470 0.000000 
#    z -0.144470 0.000000 1.901590 
# 
# From -- ./inp_files/137028.got.cif
#   From: 2010.05.17/outbox.cif.g08.bks.cpg/sg15_69_cif.got.tgz:137028.got - 2010.06.03 18:47:42.
