data_PCOD9266880
_publ_section_title
;
Structure prediction by ZEFSAII (Michael W. Deem and Ramdas Pophale) SiO2 
 PCOD9266880
Probable space group: C 2/C
;
_chemical_formula_sum "Si O2"
_cell_formula_units_Z 48
_cell_length_a 9.063659
_cell_length_b 18.460289
_cell_length_c 14.914537
_cell_angle_alpha 90.000000
_cell_angle_beta 85.713994
_cell_angle_gamma 90.000000
_cell_volume 2488.488209
_symmetry_space_group_name_H-M "C 2/C"
_symmetry_group_IT_number 15
_symmetry_cell_setting 'monoclinic'
loop_
_space_group_symop_operation_xyz
x,y,z
-x,y,1/2-z
-x,-y,-z
x,-y,1/2+z
1/2+x,1/2+y,z
1/2-x,1/2+y,1/2-z
1/2-x,1/2-y,-z
1/2+x,1/2-y,1/2+z
loop_
_atom_site_type_symbol
_atom_site_label
_atom_site_fract_x
_atom_site_fract_y
_atom_site_fract_z
Si Si1 0.675702 0.197146 0.739588
Si Si2 0.580532 0.597477 0.335259
Si Si3 0.363400 0.433294 0.189519
Si Si4 0.359097 0.367754 0.993813
Si Si5 0.708332 0.220506 0.100203
Si Si6 0.624485 0.218971 0.417376
O O1 0.500000 0.206597 0.750000
O O2 0.721559 0.113965 0.722226
O O3 0.745467 0.219242 0.830622
O O4 0.760019 0.246277 0.659978
O O5 0.500000 0.627366 0.250000
O O6 0.647973 0.519724 0.307848
O O7 0.451647 0.591821 0.414487
O O8 0.698820 0.650838 0.373195
O O9 0.500000 0.413637 0.250000
O O10 0.385330 0.408543 0.085664
O O11 0.406492 0.284135 0.010439
O O12 0.194994 0.350522 0.963474
O O13 0.534651 0.203855 0.116459
O O14 0.750000 0.250000 0.000000
#
# Coordination Sequence:
#
# PCOD9266880 Si02
#       6
#     8   8   8   8   8   8
#     4  11  23  41  65  91 126 167 213 267 318 378
#     4  11  23  41  62  94 127 168 213 258 317 378
#     4  10  23  41  63  88 125 170 213 256 318 382
#     4  10  19  38  62  90 127 163 208 261 311 377
#     4  12  23  37  66  98 128 162 212 264 318 378
#     4  10  21  37  64  96 127 162 211 262 317 370
#
# _framework density 19.288820000000001
#
# number of rings (size 3 to 8) (size 9 to 14) (size 15 to 20)
#    0.000    1.333    1.667    5.500    4.667    0.000 
#    0.000    5.833    0.000    0.000    0.000    0.000 
#    0.000    0.000    0.000    0.000    0.000    0.000 
#
# Total GULP energy -133903.059248 kJ/mol
# GULP energy per Si atom -5579.294135 kJ/mol
# Density = 1.924492 g / cm^3
# Si number density = 19.288820 Si / 1000 Ang^3
#
#
#
# Elastic Constant Matrix: (Units=GPa)
#
#
# Indices 1 2 3 4 5 6 
#
# 1 150.8576 45.2773 55.0993 0.0000 19.9020 0.0000
# 2 45.2773 90.0145 32.2391 0.0000 8.3791 0.0000
# 3 55.0993 32.2391 135.2690 0.0000 15.6567 0.0000
# 4 0.0000 0.0000 0.0000 25.0319 0.0000 8.6832
# 5 19.9020 8.3791 15.6567 0.0000 27.4144 0.0000
# 6 0.0000 0.0000 0.0000 8.6832 0.0000 25.4477
#
#
#
# Elastic Compliance Matrix: (Units=1/GPa)
#
#
# Indices 1 2 3 4 5 6 
#
# 1 0.009054 -0.003299 -0.002417 0.000000 -0.004184 0.000000
# 2 -0.003299 0.013474 -0.001786 0.000000 -0.000703 0.000000
# 3 -0.002417 -0.001786 0.009141 0.000000 -0.002920 0.000000
# 4 0.000000 0.000000 0.000000 0.045312 0.000000 -0.015461
# 5 -0.004184 -0.000703 -0.002920 0.000000 0.041397 0.000000
# 6 0.000000 0.000000 0.000000 -0.015461 0.000000 0.044572
#
#
# Mechanical properties :
#
#
# Convention : Reuss Voigt Hill
#
# Bulk Modulus (GPa) = 60.01008 71.26363 65.63686
# Shear Modulus (GPa) = 27.24664 31.81382 29.53023
#
# Velocity S-wave (km/s) = 3.76248 4.06561 3.91698
# Velocity P-wave (km/s) = 7.07488 7.68536 7.38643
#
# Compressibility (1/GPa) = 0.01666387
#
# Stress axis : x y z
#
# Youngs Moduli (GPa) = 110.45177 74.21813 109.39727
#
# Poissons Ratio (x) = 0.24483 0.26446
# Poissons Ratio (y) = 0.36435 0.19540
# Poissons Ratio (z) = 0.26701 0.13257
#
# Static dielectric constant tensor:
#      x y z
#    x 1.691740 0.000000 0.004170 
#    y 0.000000 1.675270 0.000000 
#    z 0.004170 0.000000 1.709790 
# 
# From -- ./inp_files/134853.got.cif
#   From: 2010.05.17/outbox.cif.g08.bks.cpg/sg15_68_cif.got.tgz:134853.got - 2010.06.03 18:47:42.
