data_PCOD9266421
_publ_section_title
;
Structure prediction by ZEFSAII (Michael W. Deem and Ramdas Pophale) SiO2 
 PCOD9266421
Probable space group: C 2/C
;
_chemical_formula_sum "Si O2"
_cell_formula_units_Z 40
_cell_length_a 12.898429
_cell_length_b 15.420956
_cell_length_c 9.369401
_cell_angle_alpha 90.000000
_cell_angle_beta 105.434643
_cell_angle_gamma 90.000000
_cell_volume 1796.418588
_symmetry_space_group_name_H-M "C 2/C"
_symmetry_group_IT_number 15
_symmetry_cell_setting 'monoclinic'
loop_
_space_group_symop_operation_xyz
x,y,z
-x,y,1/2-z
-x,-y,-z
x,-y,1/2+z
1/2+x,1/2+y,z
1/2-x,1/2+y,1/2-z
1/2-x,1/2-y,-z
1/2+x,1/2-y,1/2+z
loop_
_atom_site_type_symbol
_atom_site_label
_atom_site_fract_x
_atom_site_fract_y
_atom_site_fract_z
Si Si1 0.676301 0.807250 0.373390
Si Si2 0.775208 0.513271 0.732776
Si Si3 0.448840 0.577122 0.389560
Si Si4 0.908314 0.556340 0.045984
Si Si5 0.045335 0.730908 0.555118
O O1 0.750000 0.750000 0.500000
O O2 0.734924 0.897061 0.358889
O O3 0.561813 0.810373 0.412599
O O4 0.640591 0.769475 0.207802
O O5 0.674767 0.450223 0.680388
O O6 0.804932 0.536854 0.905644
O O7 0.878332 0.471888 0.692876
O O8 0.500000 0.586554 0.250000
O O9 0.500000 0.500000 0.500000
O O10 0.468270 0.667810 0.479443
O O11 0.926851 0.659347 0.050964
O O12 0.000000 0.500000 0.000000
#
# Coordination Sequence:
#
# PCOD9266421 Si02
#       5
#     8   8   8   8   8
#     4  10  19  37  64  92 117 172 218 250 315 400
#     4  11  24  38  67  97 127 169 217 268 327 383
#     4  12  25  44  66  92 134 174 220 268 323 387
#     4  11  22  42  65  97 132 166 219 273 324 387
#     4  10  22  39  65  91 131 171 217 263 321 391
#
# _framework density 22.266524
#
# number of rings (size 3 to 8) (size 9 to 14) (size 15 to 20)
#    0.000    1.200    4.000    3.000    2.800    0.800 
#    0.000    2.000    0.000    0.000    0.000    0.000 
#    0.000    0.000    0.000    0.000    0.000    0.000 
#
# Total GULP energy -111715.936384 kJ/mol
# GULP energy per Si atom -5585.796819 kJ/mol
# Density = 2.221584 g / cm^3
# Si number density = 22.266524 Si / 1000 Ang^3
#
#
#
# Elastic Constant Matrix: (Units=GPa)
#
#
# Indices 1 2 3 4 5 6 
#
# 1 81.8240 20.1822 7.6669 0.0000 8.4648 0.0000
# 2 20.1822 148.8245 19.8510 0.0000 -14.0348 0.0000
# 3 7.6669 19.8510 62.7170 0.0000 -3.2521 0.0000
# 4 0.0000 0.0000 0.0000 30.5600 0.0000 2.3927
# 5 8.4648 -14.0348 -3.2521 0.0000 20.4668 0.0000
# 6 0.0000 0.0000 0.0000 2.3927 0.0000 26.0470
#
#
#
# Elastic Compliance Matrix: (Units=1/GPa)
#
#
# Indices 1 2 3 4 5 6 
#
# 1 0.013713 -0.002394 -0.001308 0.000000 -0.007521 0.000000
# 2 -0.002394 0.007869 -0.001882 0.000000 0.006087 0.000000
# 3 -0.001308 -0.001882 0.016800 0.000000 0.001920 0.000000
# 4 0.000000 0.000000 0.000000 0.032960 0.000000 -0.003028
# 5 -0.007521 0.006087 0.001920 0.000000 0.056450 0.000000
# 6 0.000000 0.000000 0.000000 -0.003028 0.000000 0.038670
#
#
# Mechanical properties :
#
#
# Convention : Reuss Voigt Hill
#
# Bulk Modulus (GPa) = 36.74932 43.19618 39.97275
# Shear Modulus (GPa) = 26.78065 31.79246 29.28655
#
# Velocity S-wave (km/s) = 3.47180 3.78274 3.63060
# Velocity P-wave (km/s) = 5.71064 6.20649 5.96372
#
# Compressibility (1/GPa) = 0.02721138
#
# Stress axis : x y z
#
# Youngs Moduli (GPa) = 72.92567 127.07839 59.52397
#
# Poissons Ratio (x) = 0.30427 0.07788
# Poissons Ratio (y) = 0.17461 0.11205
# Poissons Ratio (z) = 0.09542 0.23921
#
# Static dielectric constant tensor:
#      x y z
#    x 1.873660 0.000000 0.014050 
#    y 0.000000 1.839350 0.000000 
#    z 0.014050 0.000000 1.823150 
# 
# From -- ./inp_files/56373.got.cif
#   From: 2010.05.17/outbox.cif.g08.bks.cpg/sg15_29_cif.got.tgz:56373.got - 2010.06.03 18:47:42.
