data_PCOD9266872
_publ_section_title
;
Structure prediction by ZEFSAII (Michael W. Deem and Ramdas Pophale) SiO2 
 PCOD9266872
Probable space group: C 2/C
;
_chemical_formula_sum "Si O2"
_cell_formula_units_Z 56
_cell_length_a 23.050606
_cell_length_b 6.705044
_cell_length_c 12.789328
_cell_angle_alpha 90.000000
_cell_angle_beta 89.361340
_cell_angle_gamma 90.000000
_cell_volume 1976.535979
_symmetry_space_group_name_H-M "C 2/C"
_symmetry_group_IT_number 15
_symmetry_cell_setting 'monoclinic'
loop_
_space_group_symop_operation_xyz
x,y,z
-x,y,1/2-z
-x,-y,-z
x,-y,1/2+z
1/2+x,1/2+y,z
1/2-x,1/2+y,1/2-z
1/2-x,1/2-y,-z
1/2+x,1/2-y,1/2+z
loop_
_atom_site_type_symbol
_atom_site_label
_atom_site_fract_x
_atom_site_fract_y
_atom_site_fract_z
Si Si1 0.394856 0.770754 0.935920
Si Si2 0.222251 0.283569 0.646763
Si Si3 0.804340 0.423186 0.623374
Si Si4 0.843396 0.817043 0.696624
Si Si5 0.983794 0.237297 0.501652
Si Si6 0.137216 0.806851 0.565112
Si Si7 0.059813 0.860565 0.283340
O O1 0.329995 0.860091 0.923977
O O2 0.451652 0.829171 0.001780
O O3 0.376658 0.539608 0.956281
O O4 0.418617 0.761902 0.816364
O O5 0.201393 0.303542 0.767138
O O6 0.245920 0.062072 0.614877
O O7 0.283458 0.396341 0.647757
O O8 0.850826 0.601813 0.643471
O O9 0.675067 0.215190 0.471071
O O10 0.836289 0.777401 0.820563
O O11 0.894507 0.971870 0.688060
O O12 0.929375 0.279007 0.427582
O O13 0.955765 0.268043 0.616393
O O14 0.000000 0.000000 0.500000
O O15 0.000000 0.963984 0.250000
#
# Coordination Sequence:
#
# PCOD9266872 Si02
#       7
#     8   8   8   8   8   8   8
#     4   9  18  33  60  93 117 157 205 253 300 366
#     4  10  21  38  60  89 124 161 209 252 302 378
#     4  10  22  39  62  89 126 165 210 251 316 367
#     4   9  22  37  59  88 121 165 208 249 313 370
#     4   9  18  32  61  95 118 153 207 253 300 369
#     4  10  19  38  62  89 122 164 205 259 313 364
#     4   9  16  33  59  87 122 156 200 252 307 358
#
# _framework density 28.332398000000001
#
# number of rings (size 3 to 8) (size 9 to 14) (size 15 to 20)
#    0.857    1.714    0.000    3.429    0.000    2.286 
#    0.000    5.000    0.000   12.857    0.000    0.000 
#    0.000    0.000    0.000    0.000    0.000    0.000 
#
# Total GULP energy -156635.777362 kJ/mol
# GULP energy per Si atom -5594.134906 kJ/mol
# Density = 2.826791 g / cm^3
# Si number density = 28.332398 Si / 1000 Ang^3
#
#
#
# Elastic Constant Matrix: (Units=GPa)
#
#
# Indices 1 2 3 4 5 6 
#
# 1 209.6668 44.6951 90.1624 0.0000 41.7982 0.0000
# 2 44.6951 92.6869 17.0662 0.0000 -4.9211 0.0000
# 3 90.1624 17.0662 157.4807 0.0000 7.4707 0.0000
# 4 0.0000 0.0000 0.0000 38.3402 0.0000 2.9231
# 5 41.7982 -4.9211 7.4707 0.0000 73.9273 0.0000
# 6 0.0000 0.0000 0.0000 2.9231 0.0000 32.2402
#
#
#
# Elastic Compliance Matrix: (Units=1/GPa)
#
#
# Indices 1 2 3 4 5 6 
#
# 1 0.008126 -0.003402 -0.004074 0.000000 -0.004409 0.000000
# 2 -0.003402 0.012488 0.000466 0.000000 0.002708 0.000000
# 3 -0.004074 0.000466 0.008562 0.000000 0.001469 0.000000
# 4 0.000000 0.000000 0.000000 0.026264 0.000000 -0.002381
# 5 -0.004409 0.002708 0.001469 0.000000 0.016051 0.000000
# 6 0.000000 0.000000 0.000000 -0.002381 0.000000 0.031233
#
#
# Mechanical properties :
#
#
# Convention : Reuss Voigt Hill
#
# Bulk Modulus (GPa) = 65.98550 84.85353 75.41952
# Shear Modulus (GPa) = 41.05198 49.42893 45.24045
#
# Velocity S-wave (km/s) = 3.81063 4.18138 4.00030
# Velocity P-wave (km/s) = 6.53464 7.30248 6.92920
#
# Compressibility (1/GPa) = 0.01515484
#
# Stress axis : x y z
#
# Youngs Moduli (GPa) = 123.06457 80.07953 116.78863
#
# Poissons Ratio (x) = 0.27245 0.47584
# Poissons Ratio (y) = 0.41870 -0.05444
# Poissons Ratio (z) = 0.50141 -0.03733
#
# Static dielectric constant tensor:
#      x y z
#    x 2.241610 0.000000 0.027610 
#    y 0.000000 2.294380 0.000000 
#    z 0.027610 0.000000 2.206510 
# 
# From -- ./inp_files/218887.got.cif
#   From: 2010.05.17/outbox.cif.g08.bks.cpg/sg15_110_cif.got.tgz:218887.got - 2010.06.03 18:47:42.
