data_PCOD9266266
_publ_section_title
;
Structure prediction by ZEFSAII (Michael W. Deem and Ramdas Pophale) SiO2 
 PCOD9266266
Probable space group: C 2/C
;
_chemical_formula_sum "Si O2"
_cell_formula_units_Z 52
_cell_length_a 21.344414
_cell_length_b 11.054814
_cell_length_c 13.283056
_cell_angle_alpha 90.000000
_cell_angle_beta 128.839301
_cell_angle_gamma 90.000000
_cell_volume 2441.292570
_symmetry_space_group_name_H-M "C 2/C"
_symmetry_group_IT_number 15
_symmetry_cell_setting 'monoclinic'
loop_
_space_group_symop_operation_xyz
x,y,z
-x,y,1/2-z
-x,-y,-z
x,-y,1/2+z
1/2+x,1/2+y,z
1/2-x,1/2+y,1/2-z
1/2-x,1/2-y,-z
1/2+x,1/2-y,1/2+z
loop_
_atom_site_type_symbol
_atom_site_label
_atom_site_fract_x
_atom_site_fract_y
_atom_site_fract_z
Si Si1 0.829696 0.104994 0.550308
Si Si2 0.300017 0.237987 0.842057
Si Si3 0.125770 0.951589 0.724290
Si Si4 0.490412 0.725436 0.138058
Si Si5 0.032244 0.624639 0.486467
Si Si6 0.500000 0.743786 0.750000
Si Si7 0.654442 0.610118 0.585324
O O1 0.784177 0.209013 0.438483
O O2 0.920306 0.161276 0.653060
O O3 0.819321 0.031828 0.644837
O O4 0.819006 0.996423 0.460382
O O5 0.329475 0.345582 0.794816
O O6 0.224586 0.177516 0.713423
O O7 0.371506 0.139812 0.926698
O O8 0.050913 0.889534 0.705682
O O9 0.097674 0.047382 0.611916
O O10 0.500000 0.800366 0.250000
O O11 0.512058 0.783837 0.055233
O O12 0.397455 0.696627 0.035237
O O13 0.000000 0.500000 0.500000
O O14 0.993896 0.671824 0.343401
#
# Coordination Sequence:
#
# PCOD9266266 Si02
#       7
#     8   8   8   8   8   4   8
#     4  10  19  37  62  88 118 157 199 252 306 352
#     4   9  23  39  56  93 128 157 205 253 308 382
#     4  10  20  38  62  92 118 159 207 255 308 363
#     4  11  21  38  64  95 117 159 216 259 306 373
#     4  10  23  41  63  88 126 169 207 253 310 377
#     4  10  20  40  66  92 118 154 216 264 294 368
#     4  11  21  37  62  88 128 157 197 262 314 358
#
# _framework density 21.300191999999999
#
# number of rings (size 3 to 8) (size 9 to 14) (size 15 to 20)
#    0.000    1.846    1.538    3.231    1.077    3.692 
#    0.000    3.077    0.000    0.000    0.000    0.000 
#    0.000    0.000    0.000    0.000    0.000    0.000 
#
# Total GULP energy -144752.453532 kJ/mol
# GULP energy per Si atom -5567.402059 kJ/mol
# Density = 2.125171 g / cm^3
# Si number density = 21.300192 Si / 1000 Ang^3
#
#
#
# Elastic Constant Matrix: (Units=GPa)
#
#
# Indices 1 2 3 4 5 6 
#
# 1 41.0844 31.4853 37.7897 0.0000 -10.4909 0.0000
# 2 31.4853 84.8206 61.0887 0.0000 -3.2251 0.0000
# 3 37.7897 61.0887 170.9846 0.0000 -12.5514 0.0000
# 4 0.0000 0.0000 0.0000 25.8312 0.0000 11.7898
# 5 -10.4909 -3.2251 -12.5514 0.0000 41.1531 0.0000
# 6 0.0000 0.0000 0.0000 11.7898 0.0000 10.5149
#
#
#
# Elastic Compliance Matrix: (Units=1/GPa)
#
#
# Indices 1 2 3 4 5 6 
#
# 1 0.038497 -0.011145 -0.003959 0.000000 0.007733 0.000000
# 2 -0.011145 0.019111 -0.004565 0.000000 -0.002736 0.000000
# 3 -0.003959 -0.004565 0.008443 0.000000 0.001208 0.000000
# 4 0.000000 0.000000 0.000000 0.079290 0.000000 -0.088903
# 5 0.007733 -0.002736 0.001208 0.000000 0.026425 0.000000
# 6 0.000000 0.000000 0.000000 -0.088903 0.000000 0.194786
#
#
# Mechanical properties :
#
#
# Convention : Reuss Voigt Hill
#
# Bulk Modulus (GPa) = 37.43551 61.95744 49.69647
# Shear Modulus (GPa) = 12.05419 26.60157 19.32788
#
# Velocity S-wave (km/s) = 2.38149 3.53780 3.01558
# Velocity P-wave (km/s) = 5.01750 6.77044 5.95878
#
# Compressibility (1/GPa) = 0.02671261
#
# Stress axis : x y z
#
# Youngs Moduli (GPa) = 25.97604 52.32706 118.43766
#
# Poissons Ratio (x) = 0.58317 0.46888
# Poissons Ratio (y) = 0.28950 0.54072
# Poissons Ratio (z) = 0.10284 0.23890
#
# Static dielectric constant tensor:
#      x y z
#    x 1.824090 0.000000 0.014520 
#    y 0.000000 1.841380 0.000000 
#    z 0.014520 0.000000 1.594010 
# 
# From -- ./inp_files/118052.got.cif
#   From: 2010.05.17/outbox.cif.g08.bks.cpg/sg15_60_cif.got.tgz:118052.got - 2010.06.03 18:47:42.
