data_PCOD9266820
_publ_section_title
;
Structure prediction by ZEFSAII (Michael W. Deem and Ramdas Pophale) SiO2 
 PCOD9266820
Probable space group: C 2/C
;
_chemical_formula_sum "Si O2"
_cell_formula_units_Z 56
_cell_length_a 5.442392
_cell_length_b 25.027321
_cell_length_c 17.742608
_cell_angle_alpha 90.000000
_cell_angle_beta 73.665963
_cell_angle_gamma 90.000000
_cell_volume 2319.152218
_symmetry_space_group_name_H-M "C 2/C"
_symmetry_group_IT_number 15
_symmetry_cell_setting 'monoclinic'
loop_
_space_group_symop_operation_xyz
x,y,z
-x,y,1/2-z
-x,-y,-z
x,-y,1/2+z
1/2+x,1/2+y,z
1/2-x,1/2+y,1/2-z
1/2-x,1/2-y,-z
1/2+x,1/2-y,1/2+z
loop_
_atom_site_type_symbol
_atom_site_label
_atom_site_fract_x
_atom_site_fract_y
_atom_site_fract_z
Si Si1 0.677988 0.212290 0.664605
Si Si2 0.237927 0.379174 0.539486
Si Si3 0.457579 0.538449 0.574881
Si Si4 0.219668 0.544688 0.181978
Si Si5 0.711077 0.680917 0.081453
Si Si6 0.000000 0.868951 0.750000
Si Si7 0.529633 0.899068 0.338721
Si Si8 0.500000 0.357082 0.250000
O O1 0.500000 0.232406 0.750000
O O2 0.734294 0.255666 0.595657
O O3 0.541637 0.162218 0.636669
O O4 0.899809 0.183536 0.693967
O O5 0.351180 0.413519 0.461071
O O6 0.158009 0.423913 0.609416
O O7 0.473983 0.342395 0.551702
O O8 0.986202 0.345431 0.540731
O O9 0.500000 0.500000 0.500000
O O10 0.450196 0.496259 0.644227
O O11 0.167086 0.562083 0.604122
O O12 0.299418 0.592610 0.228293
O O13 0.000000 0.516446 0.250000
O O14 0.637822 0.662347 0.172269
O O15 0.500000 0.900589 0.250000
O O16 0.832460 0.898538 0.313162
#
# Coordination Sequence:
#
# PCOD9266820 Si02
#       8
#     8   8   8   8   8   4   8   4
#     4   9  19  33  62  99 124 164 205 264 328 385
#     4  10  24  40  60  93 135 171 212 264 329 393
#     4  10  22  44  64  84 127 177 220 271 327 395
#     4  10  19  38  61  92 118 162 215 277 326 379
#     4  11  21  38  64  95 135 167 211 265 331 391
#     4  10  20  34  61 100 122 158 213 282 326 390
#     4   9  19  40  64  94 125 159 218 268 323 383
#     4   8  18  34  63  94 130 154 209 274 328 378
#
# _framework density 24.146753
#
# number of rings (size 3 to 8) (size 9 to 14) (size 15 to 20)
#    0.000    2.571    2.143    0.429    4.000    0.000 
#    7.714    7.857    0.000    0.000    0.000    0.000 
#    0.000    0.000    0.000    0.000    0.000    0.000 
#
# Total GULP energy -155996.282985 kJ/mol
# GULP energy per Si atom -5571.295821 kJ/mol
# Density = 2.409179 g / cm^3
# Si number density = 24.146753 Si / 1000 Ang^3
#
#
#
# Elastic Constant Matrix: (Units=GPa)
#
#
# Indices 1 2 3 4 5 6 
#
# 1 61.6034 18.5778 44.4598 0.0000 -25.7957 0.0000
# 2 18.5778 114.7389 41.9978 0.0000 -21.0321 0.0000
# 3 44.4598 41.9978 138.8114 0.0000 -13.8769 0.0000
# 4 0.0000 0.0000 0.000039407.7960 0.000024488.0619
# 5 -25.7957 -21.0321 -13.8769 0.0000 38.3311 0.0000
# 6 0.0000 0.0000 0.000024488.0619 0.000015258.8836
#
#
#
# Elastic Compliance Matrix: (Units=1/GPa)
#
#
# Indices 1 2 3 4 5 6 
#
# 1 0.028736 0.001402 -0.007904 0.000000 0.017246 0.000000
# 2 0.001402 0.010666 -0.003109 0.000000 0.005670 0.000000
# 3 -0.007904 -0.003109 0.010348 0.000000 -0.003279 0.000000
# 4 0.000000 0.000000 0.000000 0.009227 0.000000 -0.014807
# 5 0.017246 0.005670 -0.003279 0.000000 0.039619 0.000000
# 6 0.000000 0.000000 0.000000 -0.014807 0.000000 0.023829
#
#
# Mechanical properties :
#
#
# Convention : Reuss Voigt Hill
#
# Bulk Modulus (GPa) = 32.75716 58.35829 45.55773
# Shear Modulus (GPa) = 32.93310 10955.01003 5493.97156
#
# Velocity S-wave (km/s) = 3.69707 67.42919 47.75125
# Velocity P-wave (km/s) = 5.64090 78.01590 55.30959
#
# Compressibility (1/GPa) = 0.03052768
#
# Stress axis : x y z
#
# Youngs Moduli (GPa) = 34.79945 93.75735 96.63307
#
# Poissons Ratio (x) = -0.13140 0.76377
# Poissons Ratio (y) = -0.04877 0.30044
# Poissons Ratio (z) = 0.27505 0.29150
#
# Static dielectric constant tensor:
#      x y z
#    x 1.332790 0.000000 -0.701180 
#    y 0.000000 1.979730 0.000000 
#    z -0.701180 0.000000 1.566760 
# 
# From -- ./inp_files/228430.got.cif
#   From: 2010.05.17/outbox.cif.g08.bks.cpg/sg15_115_cif.got.tgz:228430.got - 2010.06.03 18:47:42.
