data_PCOD9266108
_publ_section_title
;
Structure prediction by ZEFSAII (Michael W. Deem and Ramdas Pophale) SiO2 
 PCOD9266108
Probable space group: C 2/C
;
_chemical_formula_sum "Si O2"
_cell_formula_units_Z 36
_cell_length_a 10.228067
_cell_length_b 10.856432
_cell_length_c 12.055827
_cell_angle_alpha 90.000000
_cell_angle_beta 106.300542
_cell_angle_gamma 90.000000
_cell_volume 1284.871295
_symmetry_space_group_name_H-M "C 2/C"
_symmetry_group_IT_number 15
_symmetry_cell_setting 'monoclinic'
loop_
_space_group_symop_operation_xyz
x,y,z
-x,y,1/2-z
-x,-y,-z
x,-y,1/2+z
1/2+x,1/2+y,z
1/2-x,1/2+y,1/2-z
1/2-x,1/2-y,-z
1/2+x,1/2-y,1/2+z
loop_
_atom_site_type_symbol
_atom_site_label
_atom_site_fract_x
_atom_site_fract_y
_atom_site_fract_z
Si Si1 0.500000 0.503565 0.250000
Si Si2 0.337363 0.208043 0.416993
Si Si3 0.917561 0.179821 0.436109
Si Si4 0.842906 0.619803 0.195141
Si Si5 0.194667 0.563438 0.650007
O O1 0.469635 0.590181 0.350795
O O2 0.640282 0.433302 0.314341
O O3 0.250000 0.250000 0.500000
O O4 0.463944 0.302618 0.446132
O O5 0.274692 0.201891 0.278445
O O6 0.356253 0.059131 0.429162
O O7 0.762718 0.138165 0.429125
O O8 0.897552 0.322140 0.399720
O O9 0.832671 0.479075 0.229491
O O10 0.000000 0.651322 0.250000
#
# Coordination Sequence:
#
# PCOD9266108 Si02
#       5
#     4   8   8   8   8
#     4  10  20  38  58  90 120 158 204 250 294 360
#     4  10  19  37  60  86 116 154 207 242 296 367
#     4  11  19  36  63  80 120 162 189 256 300 348
#     4   9  22  37  52  88 117 146 196 248 295 360
#     4   9  21  34  60  87 113 157 204 237 299 361
#
# _framework density 28.018370000000001
#
# number of rings (size 3 to 8) (size 9 to 14) (size 15 to 20)
#    1.333    0.889    2.222    0.667    3.111    0.889 
#    0.000    0.000    0.000    4.000    0.000    0.000 
#    0.000    0.000    0.000    0.000    0.000    0.000 
#
# Total GULP energy -100390.656817 kJ/mol
# GULP energy per Si atom -5577.258712 kJ/mol
# Density = 2.795460 g / cm^3
# Si number density = 28.018370 Si / 1000 Ang^3
#
#
#
# Elastic Constant Matrix: (Units=GPa)
#
#
# Indices 1 2 3 4 5 6 
#
# 1 107.8251 0.7605 33.1041 0.0000 28.7524 0.0000
# 2 0.7605 94.8673 3.1219 0.0000 -14.2442 0.0000
# 3 33.1041 3.1219 67.7811 0.0000 13.4755 0.0000
# 4 0.0000 0.0000 0.0000 38.5577 0.0000 5.8753
# 5 28.7524 -14.2442 13.4755 0.0000 45.7024 0.0000
# 6 0.0000 0.0000 0.0000 5.8753 0.0000 47.7772
#
#
#
# Elastic Compliance Matrix: (Units=1/GPa)
#
#
# Indices 1 2 3 4 5 6 
#
# 1 0.012547 -0.000966 -0.004732 0.000000 -0.006799 0.000000
# 2 -0.000966 0.011237 -0.000917 0.000000 0.004380 0.000000
# 3 -0.004732 -0.000917 0.017603 0.000000 -0.002499 0.000000
# 4 0.000000 0.000000 0.000000 0.026430 0.000000 -0.003250
# 5 -0.006799 0.004380 -0.002499 0.000000 0.028260 0.000000
# 6 0.000000 0.000000 0.000000 -0.003250 0.000000 0.021330
#
#
# Mechanical properties :
#
#
# Convention : Reuss Voigt Hill
#
# Bulk Modulus (GPa) = 35.51285 38.27182 36.89233
# Shear Modulus (GPa) = 35.70861 41.97326 38.84093
#
# Velocity S-wave (km/s) = 3.57385 3.87468 3.72730
# Velocity P-wave (km/s) = 5.45272 5.80575 5.63200
#
# Compressibility (1/GPa) = 0.02815882
#
# Stress axis : x y z
#
# Youngs Moduli (GPa) = 79.70108 88.99486 56.80721
#
# Poissons Ratio (x) = 0.08595 0.26879
# Poissons Ratio (y) = 0.07698 0.05207
# Poissons Ratio (z) = 0.37711 0.08158
#
# Static dielectric constant tensor:
#      x y z
#    x 2.368330 0.000000 -0.037280 
#    y 0.000000 2.218020 0.000000 
#    z -0.037280 0.000000 2.212120 
# 
# From -- ./inp_files/141282.got.cif
#   From: 2010.05.17/outbox.cif.g08.bks.cpg/sg15_71_cif.got.tgz:141282.got - 2010.06.03 18:47:42.
