data_PCOD9266720
_publ_section_title
;
Structure prediction by ZEFSAII (Michael W. Deem and Ramdas Pophale) SiO2 
 PCOD9266720
Probable space group: C 2/C
;
_chemical_formula_sum "Si O2"
_cell_formula_units_Z 48
_cell_length_a 12.631747
_cell_length_b 18.954541
_cell_length_c 14.586711
_cell_angle_alpha 90.000000
_cell_angle_beta 141.294579
_cell_angle_gamma 90.000000
_cell_volume 2183.906059
_symmetry_space_group_name_H-M "C 2/C"
_symmetry_group_IT_number 15
_symmetry_cell_setting 'monoclinic'
loop_
_space_group_symop_operation_xyz
x,y,z
-x,y,1/2-z
-x,-y,-z
x,-y,1/2+z
1/2+x,1/2+y,z
1/2-x,1/2+y,1/2-z
1/2-x,1/2-y,-z
1/2+x,1/2-y,1/2+z
loop_
_atom_site_type_symbol
_atom_site_label
_atom_site_fract_x
_atom_site_fract_y
_atom_site_fract_z
Si Si1 0.863220 0.921397 0.580372
Si Si2 0.098126 0.077578 0.914395
Si Si3 0.477235 0.073126 0.535810
Si Si4 0.885482 0.663019 0.028658
Si Si5 0.614962 0.709170 0.698452
Si Si6 0.329672 0.166458 0.690748
O O1 0.694353 0.933320 0.524986
O O2 0.811405 0.861062 0.474752
O O3 0.000000 0.903185 0.750000
O O4 0.903734 0.995944 0.557198
O O5 0.000000 0.073706 0.750000
O O6 0.994492 0.138303 0.896897
O O7 0.289041 0.107344 0.028693
O O8 0.489397 0.126955 0.459758
O O9 0.612130 0.102384 0.701716
O O10 0.500000 0.000000 0.500000
O O11 0.989374 0.728012 0.136801
O O12 0.732774 0.693544 0.864322
O O13 0.740504 0.722267 0.697576
O O14 0.500000 0.187630 0.750000
#
# Coordination Sequence:
#
# PCOD9266720 Si02
#       6
#     8   8   8   8   8   8
#     4  10  20  36  58  87 113 147 190 236 283 333
#     4   9  18  34  56  81 117 147 177 230 288 333
#     4  10  19  38  60  79 113 153 187 231 286 332
#     4  10  20  37  57  82 114 151 186 228 281 338
#     4  10  21  37  56  81 113 152 184 229 284 336
#     4   9  21  39  57  83 115 150 188 235 288 329
#
# _framework density 21.978967999999998
#
# number of rings (size 3 to 8) (size 9 to 14) (size 15 to 20)
#    0.000    2.333    1.667    0.500    2.333    2.000 
#    3.000    8.333    0.000    0.000    0.000    0.000 
#    0.000    0.000    0.000    0.000    0.000    0.000 
#
# Total GULP energy -133879.008492 kJ/mol
# GULP energy per Si atom -5578.292021 kJ/mol
# Density = 2.192894 g / cm^3
# Si number density = 21.978968 Si / 1000 Ang^3
#
#
#
# Elastic Constant Matrix: (Units=GPa)
#
#
# Indices 1 2 3 4 5 6 
#
# 1 63.8689 5.0266 5.5427 0.0001 -9.5673 0.0000
# 2 5.0266 34.3330 22.0573 -0.0001 9.6436 0.0000
# 3 5.5427 22.0573 55.6595 -0.0001 7.6784 0.0000
# 4 0.0001 -0.0001 -0.0001 15.3927 0.0000 8.5497
# 5 -9.5673 9.6436 7.6784 0.0000 14.2349 0.0000
# 6 0.0000 0.0000 0.0000 8.5497 0.0000 16.4945
#
#
#
# Elastic Compliance Matrix: (Units=1/GPa)
#
#
# Indices 1 2 3 4 5 6 
#
# 1 0.019106 -0.006864 -0.001724 0.000000 0.018421 0.000000
# 2 -0.006864 0.047339 -0.014062 0.000000 -0.029099 0.000000
# 3 -0.001724 -0.014062 0.024370 0.000000 -0.004777 0.000000
# 4 0.000000 0.000000 0.000000 0.091231 -0.000001 -0.047288
# 5 0.018421 -0.029099 -0.004777 -0.000001 0.104921 0.000000
# 6 0.000000 0.000000 0.000000 -0.047288 0.000000 0.085137
#
#
# Mechanical properties :
#
#
# Convention : Reuss Voigt Hill
#
# Bulk Modulus (GPa) = 21.97078 24.34606 23.15842
# Shear Modulus (GPa) = 11.55865 17.30675 14.43270
#
# Velocity S-wave (km/s) = 2.29573 2.80915 2.56532
# Velocity P-wave (km/s) = 4.12858 4.65003 4.39704
#
# Compressibility (1/GPa) = 0.04551499
#
# Stress axis : x y z
#
# Youngs Moduli (GPa) = 52.33873 21.12415 41.03446
#
# Poissons Ratio (x) = 0.14500 0.07073
# Poissons Ratio (y) = 0.35926 0.57704
# Poissons Ratio (z) = 0.09022 0.29705
#
# Static dielectric constant tensor:
#      x y z
#    x 1.824020 0.000000 0.014480 
#    y 0.000000 1.880340 0.000000 
#    z 0.014480 0.000000 1.801570 
# 
# From -- ./inp_files/39629.got.cif
#   From: 2010.05.17/outbox.cif.g08.bks.cpg/sg15_20_cif.got.tgz:39629.got - 2010.06.03 18:47:42.
