data_PCOD9266651
_publ_section_title
;
Structure prediction by ZEFSAII (Michael W. Deem and Ramdas Pophale) SiO2 
 PCOD9266651
Probable space group: C 2/C
;
_chemical_formula_sum "Si O2"
_cell_formula_units_Z 56
_cell_length_a 25.606196
_cell_length_b 17.618732
_cell_length_c 9.290935
_cell_angle_alpha 90.000000
_cell_angle_beta 48.735592
_cell_angle_gamma 90.000000
_cell_volume 3150.711612
_symmetry_space_group_name_H-M "C 2/C"
_symmetry_group_IT_number 15
_symmetry_cell_setting 'monoclinic'
loop_
_space_group_symop_operation_xyz
x,y,z
-x,y,1/2-z
-x,-y,-z
x,-y,1/2+z
1/2+x,1/2+y,z
1/2-x,1/2+y,1/2-z
1/2-x,1/2-y,-z
1/2+x,1/2-y,1/2+z
loop_
_atom_site_type_symbol
_atom_site_label
_atom_site_fract_x
_atom_site_fract_y
_atom_site_fract_z
Si Si1 0.665884 0.722911 0.976430
Si Si2 0.134882 0.331062 0.810243
Si Si3 0.364945 0.169483 0.701400
Si Si4 0.273478 0.575802 0.520470
Si Si5 0.503708 0.081694 0.418051
Si Si6 0.265226 0.583493 0.190055
Si Si7 0.187747 0.243384 0.446339
O O1 0.658157 0.774077 0.130982
O O2 0.614174 0.762072 0.955471
O O3 0.670557 0.635654 0.016335
O O4 0.740934 0.738320 0.767606
O O5 0.072386 0.375143 0.848853
O O6 0.185720 0.389514 0.801764
O O7 0.180791 0.289784 0.604769
O O8 0.303047 0.108182 0.799393
O O9 0.436870 0.127909 0.594116
O O10 0.370753 0.221378 0.549589
O O11 0.276026 0.575035 0.341926
O O12 0.280378 0.493623 0.578377
O O13 0.500000 0.075971 0.250000
O O14 0.500000 0.000000 0.500000
O O15 0.312499 0.652778 0.045218
#
# Coordination Sequence:
#
# PCOD9266651 Si02
#       7
#     8   8   8   8   8   8   8
#     4  10  20  38  59  83 109 155 193 242 292 345
#     4  11  23  38  59  83 115 158 198 232 284 346
#     4  11  20  40  61  75 120 158 196 236 283 346
#     4  11  22  34  55  87 118 147 183 239 297 343
#     4  12  28  42  57  86 122 162 200 237 278 341
#     4  11  22  34  54  88 117 147 185 238 298 340
#     4  10  19  38  58  81 113 150 195 242 291 345
#
# _framework density 17.773762000000001
#
# number of rings (size 3 to 8) (size 9 to 14) (size 15 to 20)
#    0.000    1.143    5.714    3.429    8.000    2.286 
#    0.000    0.000    0.000    0.000    0.000    6.000 
#    0.000    0.000    0.000    0.000    0.000    0.000 
#
# Total GULP energy -156120.124112 kJ/mol
# GULP energy per Si atom -5575.718718 kJ/mol
# Density = 1.773331 g / cm^3
# Si number density = 17.773762 Si / 1000 Ang^3
#
#
#
# Elastic Constant Matrix: (Units=GPa)
#
#
# Indices 1 2 3 4 5 6 
#
# 1 95.7759 64.2827 29.0738 0.0000 19.8262 0.0000
# 2 64.2827 165.1123 45.6958 0.0000 15.0637 0.0000
# 3 29.0738 45.6958 56.4742 0.0000 22.3202 0.0000
# 4 0.0000 0.0000 0.0000 32.8034 0.0000 9.8993
# 5 19.8262 15.0637 22.3202 0.0000 32.4740 0.0000
# 6 0.0000 0.0000 0.0000 9.8993 0.0000 33.1727
#
#
#
# Elastic Compliance Matrix: (Units=1/GPa)
#
#
# Indices 1 2 3 4 5 6 
#
# 1 0.015580 -0.005099 -0.001469 0.000000 -0.006137 0.000000
# 2 -0.005099 0.009496 -0.006244 0.000000 0.003000 0.000000
# 3 -0.001469 -0.006244 0.030229 0.000000 -0.016983 0.000000
# 4 0.000000 0.000000 0.000000 0.033502 0.000000 -0.009997
# 5 -0.006137 0.003000 -0.016983 0.000000 0.044822 0.000000
# 6 0.000000 0.000000 0.000000 -0.009997 0.000000 0.033129
#
#
# Mechanical properties :
#
#
# Convention : Reuss Voigt Hill
#
# Bulk Modulus (GPa) = 33.69433 66.16301 49.92867
# Shear Modulus (GPa) = 24.71877 31.57735 28.14806
#
# Velocity S-wave (km/s) = 3.73332 4.21958 3.98387
# Velocity P-wave (km/s) = 6.13042 7.81318 7.02238
#
# Compressibility (1/GPa) = 0.02967859
#
# Stress axis : x y z
#
# Youngs Moduli (GPa) = 64.18555 105.30558 33.08129
#
# Poissons Ratio (x) = 0.53696 0.04861
# Poissons Ratio (y) = 0.32729 0.20657
# Poissons Ratio (z) = 0.09432 0.65757
#
# Static dielectric constant tensor:
#      x y z
#    x 1.669590 0.000000 0.041100 
#    y 0.000000 1.623120 0.000000 
#    z 0.041100 0.000000 1.614940 
# 
# From -- ./inp_files/62403.got.cif
#   From: 2010.05.17/outbox.cif.g08.bks.cpg/sg15_32_cif.got.tgz:62403.got - 2010.06.03 18:47:42.
