data_PCOD9266803
_publ_section_title
;
Structure prediction by ZEFSAII (Michael W. Deem and Ramdas Pophale) SiO2 
 PCOD9266803
Probable space group: C 2/C
;
_chemical_formula_sum "Si O2"
_cell_formula_units_Z 40
_cell_length_a 20.553050
_cell_length_b 6.587914
_cell_length_c 16.297701
_cell_angle_alpha 90.000000
_cell_angle_beta 134.790753
_cell_angle_gamma 90.000000
_cell_volume 1566.086819
_symmetry_space_group_name_H-M "C 2/C"
_symmetry_group_IT_number 15
_symmetry_cell_setting 'monoclinic'
loop_
_space_group_symop_operation_xyz
x,y,z
-x,y,1/2-z
-x,-y,-z
x,-y,1/2+z
1/2+x,1/2+y,z
1/2-x,1/2+y,1/2-z
1/2-x,1/2-y,-z
1/2+x,1/2-y,1/2+z
loop_
_atom_site_type_symbol
_atom_site_label
_atom_site_fract_x
_atom_site_fract_y
_atom_site_fract_z
Si Si1 0.421590 0.259127 0.729986
Si Si2 0.734563 0.665338 0.308841
Si Si3 0.180477 0.292055 0.787928
Si Si4 0.318683 0.477498 0.493049
Si Si5 0.505495 0.396259 0.414402
O O1 0.500000 0.133928 0.750000
O O2 0.357590 0.203997 0.751392
O O3 0.350801 0.360901 0.602764
O O4 0.481411 0.433575 0.825592
O O5 0.762632 0.635454 0.240608
O O6 0.712386 0.442232 0.321390
O O7 0.813210 0.791473 0.423445
O O8 0.219735 0.409981 0.902401
O O9 0.072202 0.273598 0.670190
O O10 0.390378 0.642858 0.520649
O O11 0.500000 0.500000 0.500000
#
# Coordination Sequence:
#
# PCOD9266803 Si02
#       5
#     8   8   8   8   8
#     4   9  21  37  62  91 124 167 205 256 316 364
#     4  11  20  37  62  89 122 164 205 251 306 364
#     4  11  22  38  65  94 122 166 209 253 310 373
#     4  11  21  40  62  90 127 165 208 258 308 372
#     4  10  19  38  61  87 126 161 201 254 309 366
#
# _framework density 25.541367999999999
#
# number of rings (size 3 to 8) (size 9 to 14) (size 15 to 20)
#    0.000    1.600    4.000    1.800    0.000    3.200 
#    0.000    7.000    0.000   10.800    0.000    0.000 
#    0.000    0.000    0.000    0.000    0.000    0.000 
#
# Total GULP energy -111392.332203 kJ/mol
# GULP energy per Si atom -5569.616610 kJ/mol
# Density = 2.548323 g / cm^3
# Si number density = 25.541368 Si / 1000 Ang^3
#
#
#
# Elastic Constant Matrix: (Units=GPa)
#
#
# Indices 1 2 3 4 5 6 
#
# 1 122.6865 -2.2008 5.5507 0.0000 8.9128 0.0000
# 2 -2.2008 44.3833 20.1815 0.0000 -0.2666 0.0000
# 3 5.5507 20.1815 118.1845 0.0000 -8.8676 0.0000
# 4 0.0000 0.0000 0.0000 41.5432 0.0000 9.0620
# 5 8.9128 -0.2666 -8.8676 0.0000 47.4300 0.0000
# 6 0.0000 0.0000 0.0000 9.0620 0.0000 21.6707
#
#
#
# Elastic Compliance Matrix: (Units=1/GPa)
#
#
# Indices 1 2 3 4 5 6 
#
# 1 0.008314 0.000691 -0.000634 0.000000 -0.001677 0.000000
# 2 0.000691 0.024505 -0.004276 0.000000 -0.000792 0.000000
# 3 -0.000634 -0.004276 0.009360 0.000000 0.001845 0.000000
# 4 0.000000 0.000000 0.000000 0.026487 0.000000 -0.011076
# 5 -0.001677 -0.000792 0.001845 0.000000 0.021739 0.000000
# 6 0.000000 0.000000 0.000000 -0.011076 0.000000 0.050777
#
#
# Mechanical properties :
#
#
# Convention : Reuss Voigt Hill
#
# Bulk Modulus (GPa) = 29.63971 36.92413 33.28192
# Shear Modulus (GPa) = 31.08129 39.57697 35.32913
#
# Velocity S-wave (km/s) = 3.49219 3.94067 3.72319
# Velocity P-wave (km/s) = 5.28113 5.93238 5.61620
#
# Compressibility (1/GPa) = 0.03373852
#
# Stress axis : x y z
#
# Youngs Moduli (GPa) = 120.28242 40.80802 106.83969
#
# Poissons Ratio (x) = -0.02818 0.06776
# Poissons Ratio (y) = -0.08306 0.45689
# Poissons Ratio (z) = 0.07629 0.17451
#
# Static dielectric constant tensor:
#      x y z
#    x 2.184420 0.000000 0.076720 
#    y 0.000000 2.165680 0.000000 
#    z 0.076720 0.000000 2.107970 
# 
# From -- ./inp_files/218410.got.cif
#   From: 2010.05.17/outbox.cif.g08.bks.cpg/sg15_110_cif.got.tgz:218410.got - 2010.06.03 18:47:42.
