data_PCOD9266454
_publ_section_title
;
Structure prediction by ZEFSAII (Michael W. Deem and Ramdas Pophale) SiO2 
 PCOD9266454
Probable space group: C 2/C
;
_chemical_formula_sum "Si O2"
_cell_formula_units_Z 44
_cell_length_a 13.873180
_cell_length_b 9.091463
_cell_length_c 14.832116
_cell_angle_alpha 90.000000
_cell_angle_beta 87.735211
_cell_angle_gamma 90.000000
_cell_volume 1869.276460
_symmetry_space_group_name_H-M "C 2/C"
_symmetry_group_IT_number 15
_symmetry_cell_setting 'monoclinic'
loop_
_space_group_symop_operation_xyz
x,y,z
-x,y,1/2-z
-x,-y,-z
x,-y,1/2+z
1/2+x,1/2+y,z
1/2-x,1/2+y,1/2-z
1/2-x,1/2-y,-z
1/2+x,1/2-y,1/2+z
loop_
_atom_site_type_symbol
_atom_site_label
_atom_site_fract_x
_atom_site_fract_y
_atom_site_fract_z
Si Si1 0.825123 0.146102 0.158814
Si Si2 0.500000 0.809843 0.250000
Si Si3 0.874168 0.439614 0.850725
Si Si4 0.048753 0.623558 0.434281
Si Si5 0.287556 0.058559 0.555025
Si Si6 0.104917 0.934121 0.486662
O O1 0.917873 0.208520 0.207552
O O2 0.718004 0.116549 0.202795
O O3 0.803579 0.275360 0.085999
O O4 0.857807 0.995506 0.110294
O O5 0.566778 0.919066 0.186786
O O6 0.963319 0.329539 0.869797
O O7 0.823711 0.463044 0.950566
O O8 0.138946 0.538600 0.388862
O O9 0.091710 0.760368 0.486033
O O10 0.000000 0.500000 0.500000
O O11 0.179619 0.996557 0.557730
O O12 0.000000 0.000000 0.500000
#
# Coordination Sequence:
#
# PCOD9266454 Si02
#       6
#     8   4   8   8   8   8
#     4  11  24  47  69 100 139 182 234 296 349 421
#     4  12  26  48  68  94 150 198 222 290 362 428
#     4  10  22  44  69  97 131 183 233 280 354 414
#     4  10  19  37  64  99 134 168 221 286 347 403
#     4  10  20  41  73  97 136 173 231 302 346 411
#     4  11  21  35  65 108 130 167 228 292 351 405
#
# _framework density 23.538519999999998
#
# number of rings (size 3 to 8) (size 9 to 14) (size 15 to 20)
#    0.000    1.455    1.818    6.000    2.545    0.000 
#   13.091    0.000    0.000    0.000    0.000    0.000 
#    0.000    0.000    0.000    0.000    0.000    0.000 
#
# Total GULP energy -122607.139425 kJ/mol
# GULP energy per Si atom -5573.051792 kJ/mol
# Density = 2.348495 g / cm^3
# Si number density = 23.538520 Si / 1000 Ang^3
#
#
#
# Elastic Constant Matrix: (Units=GPa)
#
#
# Indices 1 2 3 4 5 6 
#
# 1 232.9496 48.3972 43.2633 0.0000 39.3452 0.0000
# 2 48.3972 131.5323 25.8552 0.0000 2.7159 0.0000
# 3 43.2633 25.8552 64.0045 0.0000 -2.4689 0.0000
# 4 0.0000 0.0000 0.0000 20.5627 0.0000 5.2278
# 5 39.3452 2.7159 -2.4689 0.0000 36.8047 0.0000
# 6 0.0000 0.0000 0.0000 5.2278 0.0000 51.0705
#
#
#
# Elastic Compliance Matrix: (Units=1/GPa)
#
#
# Indices 1 2 3 4 5 6 
#
# 1 0.006581 -0.001460 -0.004137 0.000000 -0.007205 0.000000
# 2 -0.001460 0.008608 -0.002461 0.000000 0.000760 0.000000
# 3 -0.004137 -0.002461 0.019643 0.000000 0.005922 0.000000
# 4 0.000000 0.000000 0.000000 0.049931 0.000000 -0.005111
# 5 -0.007205 0.000760 0.005922 0.000000 0.035214 0.000000
# 6 0.000000 0.000000 0.000000 -0.005111 0.000000 0.020104
#
#
# Mechanical properties :
#
#
# Convention : Reuss Voigt Hill
#
# Bulk Modulus (GPa) = 53.42888 73.72418 63.57653
# Shear Modulus (GPa) = 30.78137 42.41898 36.60017
#
# Velocity S-wave (km/s) = 3.62014 4.24973 3.94751
# Velocity P-wave (km/s) = 6.34205 7.44775 6.91703
#
# Compressibility (1/GPa) = 0.01871647
#
# Stress axis : x y z
#
# Youngs Moduli (GPa) = 151.94525 116.17261 50.90899
#
# Poissons Ratio (x) = 0.16957 0.21061
# Poissons Ratio (y) = 0.22178 0.12530
# Poissons Ratio (z) = 0.62858 0.28593
#
# Static dielectric constant tensor:
#      x y z
#    x 2.073310 0.000000 0.075300 
#    y 0.000000 2.042540 0.000000 
#    z 0.075300 0.000000 2.059240 
# 
# From -- ./inp_files/202675.got.cif
#   From: 2010.05.17/outbox.cif.g08.bks.cpg/sg15_102_cif.got.tgz:202675.got - 2010.06.03 18:47:42.
