data_PCOD9266161
_publ_section_title
;
Structure prediction by ZEFSAII (Michael W. Deem and Ramdas Pophale) SiO2 
 PCOD9266161
Probable space group: C 2/C
;
_chemical_formula_sum "Si O2"
_cell_formula_units_Z 56
_cell_length_a 14.391186
_cell_length_b 5.660631
_cell_length_c 28.508793
_cell_angle_alpha 90.000000
_cell_angle_beta 106.636228
_cell_angle_gamma 90.000000
_cell_volume 2225.204982
_symmetry_space_group_name_H-M "C 2/C"
_symmetry_group_IT_number 15
_symmetry_cell_setting 'monoclinic'
loop_
_space_group_symop_operation_xyz
x,y,z
-x,y,1/2-z
-x,-y,-z
x,-y,1/2+z
1/2+x,1/2+y,z
1/2-x,1/2+y,1/2-z
1/2-x,1/2-y,-z
1/2+x,1/2-y,1/2+z
loop_
_atom_site_type_symbol
_atom_site_label
_atom_site_fract_x
_atom_site_fract_y
_atom_site_fract_z
Si Si1 0.515564 0.482733 0.947292
Si Si2 0.256905 0.505280 0.546000
Si Si3 0.132831 0.222978 0.645258
Si Si4 0.988099 0.398258 0.124322
Si Si5 0.461871 0.591906 0.289022
Si Si6 0.212900 0.489572 0.932234
Si Si7 0.216686 0.645069 0.768643
O O1 0.628306 0.531871 0.950236
O O2 0.434293 0.630714 0.907149
O O3 0.503702 0.222117 0.925005
O O4 0.500000 0.500000 0.000000
O O5 0.203764 0.498388 0.488068
O O6 0.228003 0.747897 0.567903
O O7 0.245826 0.254462 0.570467
O O8 0.091980 0.484086 0.647024
O O9 0.245754 0.178515 0.672109
O O10 0.096163 0.078336 0.685339
O O11 0.969391 0.213681 0.163105
O O12 0.890391 0.546993 0.107173
O O13 0.500000 0.450654 0.250000
O O14 0.395767 0.791252 0.254758
O O15 0.237470 0.379073 0.752222
#
# Coordination Sequence:
#
# PCOD9266161 Si02
#       7
#     8   8   8   8   8   8   8
#     4  10  21  36  57  84 121 157 207 250 298 363
#     4   9  17  32  52  79 108 152 185 239 288 342
#     4  10  20  38  62  85 122 166 207 248 321 377
#     4  10  19  37  61  82 114 160 198 252 308 371
#     4  10  22  39  62  92 122 157 209 264 317 374
#     4   9  17  31  56  77 108 146 196 229 292 350
#     4  10  20  39  65  90 123 168 206 259 324 381
#
# _framework density 25.166221
#
# number of rings (size 3 to 8) (size 9 to 14) (size 15 to 20)
#    0.000    2.286    2.857    0.000    0.000    1.143 
#    2.571    0.000    3.143    0.000    0.000    0.000 
#    0.000    0.000    0.000    0.000    0.000    0.000 
#
# Total GULP energy -156007.430229 kJ/mol
# GULP energy per Si atom -5571.693937 kJ/mol
# Density = 2.510894 g / cm^3
# Si number density = 25.166221 Si / 1000 Ang^3
#
#
#
# Elastic Constant Matrix: (Units=GPa)
#
#
# Indices 1 2 3 4 5 6 
#
# 1 74.3590 4.7413 31.1736 0.0000 11.4290 0.0000
# 2 4.7413 123.8909 18.0731 0.0000 0.2425 0.0000
# 3 31.1736 18.0731 149.9261 0.0000 14.1481 0.0000
# 4 0.0000 0.0000 0.0000 26.4335 0.0000 29.3872
# 5 11.4290 0.2425 14.1481 0.0000 40.7079 0.0000
# 6 0.0000 0.0000 0.0000 29.3872 0.0000 15.4450
#
#
#
# Elastic Compliance Matrix: (Units=1/GPa)
#
#
# Indices 1 2 3 4 5 6 
#
# 1 0.015144 -0.000162 -0.002821 0.000000 -0.003270 0.000000
# 2 -0.000162 0.008221 -0.000990 0.000000 0.000340 0.000000
# 3 -0.002821 -0.000990 0.007548 0.000000 -0.001825 0.000000
# 4 0.000000 0.000000 0.000000 -0.033920 0.000000 0.064539
# 5 -0.003270 0.000340 -0.001825 0.000000 0.026116 0.000000
# 6 0.000000 0.000000 0.000000 0.064539 0.000000 -0.058052
#
#
# Mechanical properties :
#
#
# Convention : Reuss Voigt Hill
#
# Bulk Modulus (GPa) = 43.53618 50.68357 47.10987
# Shear Modulus (GPa) = -258.50526 36.12981 -111.18772
#
# Velocity S-wave (km/s) = -10.14604 3.79310 -6.65412
# Velocity P-wave (km/s) = 10.95076 6.27429 6.34635
#
# Compressibility (1/GPa) = 0.02296940
#
# Stress axis : x y z
#
# Youngs Moduli (GPa) = 66.03376 121.63233 132.48533
#
# Poissons Ratio (x) = 0.01966 0.37370
# Poissons Ratio (y) = 0.01068 0.13110
# Poissons Ratio (z) = 0.18626 0.12036
#
# Static dielectric constant tensor:
#      x y z
#    x 2.280880 0.000000 0.029710 
#    y 0.000000 2.098290 0.000000 
#    z 0.029710 0.000000 2.037220 
# 
# From -- ./inp_files/297783.got.cif
#   From: 2010.05.17/outbox.cif.g08.bks.cpg/sg15_149_cif.got.tgz:297783.got - 2010.06.03 18:47:42.
