data_PCOD9266114
_publ_section_title
;
Structure prediction by ZEFSAII (Michael W. Deem and Ramdas Pophale) SiO2 
 PCOD9266114
Probable space group: C 2/C
;
_chemical_formula_sum "Si O2"
_cell_formula_units_Z 56
_cell_length_a 16.434871
_cell_length_b 7.911995
_cell_length_c 21.292386
_cell_angle_alpha 90.000000
_cell_angle_beta 99.701188
_cell_angle_gamma 90.000000
_cell_volume 2729.112132
_symmetry_space_group_name_H-M "C 2/C"
_symmetry_group_IT_number 15
_symmetry_cell_setting 'monoclinic'
loop_
_space_group_symop_operation_xyz
x,y,z
-x,y,1/2-z
-x,-y,-z
x,-y,1/2+z
1/2+x,1/2+y,z
1/2-x,1/2+y,1/2-z
1/2-x,1/2-y,-z
1/2+x,1/2-y,1/2+z
loop_
_atom_site_type_symbol
_atom_site_label
_atom_site_fract_x
_atom_site_fract_y
_atom_site_fract_z
Si Si1 0.838377 0.136960 0.781283
Si Si2 0.404313 0.897629 0.892755
Si Si3 0.519787 0.570358 0.154382
Si Si4 0.028351 0.847986 0.459545
Si Si5 0.038347 0.426346 0.322494
Si Si6 0.791307 0.394636 0.668960
Si Si7 0.849792 0.749007 0.925949
O O1 0.856660 0.272602 0.839350
O O2 0.817009 0.236228 0.715544
O O3 0.764597 0.016461 0.794429
O O4 0.921134 0.023618 0.788481
O O5 0.454197 0.787910 0.950158
O O6 0.477359 0.988962 0.864072
O O7 0.349605 0.049435 0.911998
O O8 0.469683 0.427938 0.109650
O O9 0.464860 0.724163 0.170848
O O10 0.585379 0.659763 0.114288
O O11 0.112076 0.778824 0.500411
O O12 0.000000 0.000000 0.500000
O O13 0.128320 0.503016 0.340231
O O14 0.000000 0.469280 0.250000
O O15 0.736241 0.333503 0.603473
#
# Coordination Sequence:
#
# PCOD9266114 Si02
#       7
#     8   8   8   8   8   8   8
#     4  10  20  36  56  83 114 152 192 241 282 347
#     4  10  19  37  60  87 114 155 197 235 286 352
#     4   8  19  36  57  81 113 149 197 233 282 345
#     4   9  17  35  60  87 110 148 204 245 276 337
#     4  11  22  39  55  85 121 154 190 237 294 351
#     4  11  22  36  57  86 121 149 193 241 294 343
#     4   9  18  34  59  84 112 150 190 242 287 333
#
# _framework density 20.519494000000002
#
# number of rings (size 3 to 8) (size 9 to 14) (size 15 to 20)
#    0.000    2.286    1.429    2.143    4.000    0.000 
#    5.143    1.429    0.000    0.000    0.000    0.000 
#    0.000    0.000    0.000    0.000    0.000    0.000 
#
# Total GULP energy -156358.247635 kJ/mol
# GULP energy per Si atom -5584.223130 kJ/mol
# Density = 2.047279 g / cm^3
# Si number density = 20.519494 Si / 1000 Ang^3
#
#
#
# Elastic Constant Matrix: (Units=GPa)
#
#
# Indices 1 2 3 4 5 6 
#
# 1 68.5632 28.9405 23.7642 0.0000 19.2909 0.0000
# 2 28.9405 100.2978 10.3219 0.0000 14.5987 0.0000
# 3 23.7642 10.3219 45.7743 0.0000 32.8329 0.0000
# 4 0.0000 0.0000 0.0000 43.5400 0.0000 -2.1809
# 5 19.2909 14.5987 32.8329 0.0000 28.7787 0.0000
# 6 0.0000 0.0000 0.0000 -2.1809 0.0000 27.9578
#
#
#
# Elastic Compliance Matrix: (Units=1/GPa)
#
#
# Indices 1 2 3 4 5 6 
#
# 1 0.019805 -0.004608 -0.007690 0.000000 -0.002164 0.000000
# 2 -0.004608 0.012427 0.010437 0.000000 -0.015122 0.000000
# 3 -0.007690 0.010437 0.129819 0.000000 -0.148247 0.000000
# 4 0.000000 0.000000 0.000000 0.023057 0.000000 0.001799
# 5 -0.002164 -0.015122 -0.148247 0.000000 0.213000 0.000000
# 6 0.000000 0.000000 0.000000 0.001799 0.000000 0.035908
#
#
# Mechanical properties :
#
#
# Convention : Reuss Voigt Hill
#
# Bulk Modulus (GPa) = 6.31603 37.85426 22.08514
# Shear Modulus (GPa) = 10.19334 30.16257 20.17796
#
# Velocity S-wave (km/s) = 2.23124 3.83815 3.13925
# Velocity P-wave (km/s) = 3.11811 6.17494 4.89145
#
# Compressibility (1/GPa) = 0.15832735
#
# Stress axis : x y z
#
# Youngs Moduli (GPa) = 50.49345 80.47030 7.70301
#
# Poissons Ratio (x) = 0.37082 0.05924
# Poissons Ratio (y) = 0.23268 -0.08039
# Poissons Ratio (z) = 0.38832 -0.83985
#
# Static dielectric constant tensor:
#      x y z
#    x 1.707540 0.000000 -0.010770 
#    y 0.000000 1.746840 0.000000 
#    z -0.010770 0.000000 1.754390 
# 
# From -- ./inp_files/272833.got.cif
#   From: 2010.05.17/outbox.cif.g08.bks.cpg/sg15_137_cif.got.tgz:272833.got - 2010.06.03 18:47:42.
