data_PCOD9266779
_publ_section_title
;
Structure prediction by ZEFSAII (Michael W. Deem and Ramdas Pophale) SiO2 
 PCOD9266779
Probable space group: C 2/C
;
_chemical_formula_sum "Si O2"
_cell_formula_units_Z 40
_cell_length_a 30.076880
_cell_length_b 9.077340
_cell_length_c 14.077300
_cell_angle_alpha 90.000000
_cell_angle_beta 148.208695
_cell_angle_gamma 90.000000
_cell_volume 2024.783634
_symmetry_space_group_name_H-M "C 2/C"
_symmetry_group_IT_number 15
_symmetry_cell_setting 'monoclinic'
loop_
_space_group_symop_operation_xyz
x,y,z
-x,y,1/2-z
-x,-y,-z
x,-y,1/2+z
1/2+x,1/2+y,z
1/2-x,1/2+y,1/2-z
1/2-x,1/2-y,-z
1/2+x,1/2-y,1/2+z
loop_
_atom_site_type_symbol
_atom_site_label
_atom_site_fract_x
_atom_site_fract_y
_atom_site_fract_z
Si Si1 0.149947 0.364038 0.864015
Si Si2 0.188620 0.477415 0.735015
Si Si3 0.212329 0.157904 0.722752
Si Si4 0.995762 0.576012 0.631094
Si Si5 0.559388 0.366560 0.076203
O O1 0.200481 0.425882 0.864512
O O2 0.109612 0.209988 0.755020
O O3 0.074856 0.477214 0.747679
O O4 0.209610 0.354581 0.062642
O O5 0.194599 0.330733 0.681507
O O6 0.256850 0.588571 0.819048
O O7 0.089883 0.517238 0.545600
O O8 0.130311 0.090302 0.626165
O O9 0.989353 0.727192 0.559682
O O10 0.000000 0.611000 0.750000
O O11 0.500000 0.500000 0.000000
#
# Coordination Sequence:
#
# PCOD9266779 Si02
#       5
#     8   8   8   8   8
#     4  10  20  40  63  81 111 158 194 227 280 348
#     4  10  20  36  58  85 115 146 189 236 281 334
#     4  10  21  39  58  84 116 149 191 234 282 338
#     4  10  19  38  61  83 114 152 194 228 278 346
#     4  10  22  40  57  85 121 146 186 242 292 327
#
# _framework density 19.755196999999999
#
# number of rings (size 3 to 8) (size 9 to 14) (size 15 to 20)
#    0.000    2.400    2.000    4.800    0.000    3.200 
#   14.400    2.000    0.000    0.000    0.000    0.000 
#    0.000    0.000    0.000    0.000    0.000    0.000 
#
# Total GULP energy -111589.495078 kJ/mol
# GULP energy per Si atom -5579.474754 kJ/mol
# Density = 1.971023 g / cm^3
# Si number density = 19.755197 Si / 1000 Ang^3
#
#
#
# Elastic Constant Matrix: (Units=GPa)
#
#
# Indices 1 2 3 4 5 6 
#
# 1 69.9202 51.3094 11.4711 0.0000 21.8248 0.0000
# 2 51.3094 51.3717 17.5781 0.0000 26.2852 0.0000
# 3 11.4711 17.5781 66.5383 0.0000 13.4661 0.0000
# 4 0.0000 0.0000 0.0000 22.6729 0.0000 18.7736
# 5 21.8248 26.2852 13.4661 0.0000 37.1852 0.0000
# 6 0.0000 0.0000 0.0000 18.7736 0.0000 39.2944
#
#
#
# Elastic Compliance Matrix: (Units=1/GPa)
#
#
# Indices 1 2 3 4 5 6 
#
# 1 0.057522 -0.064187 0.005061 0.000000 0.009779 0.000000
# 2 -0.064187 0.103133 -0.009766 0.000000 -0.031693 0.000000
# 3 0.005061 -0.009766 0.017201 0.000000 -0.002296 0.000000
# 4 0.000000 0.000000 0.000000 0.072974 0.000000 -0.034865
# 5 0.009779 -0.031693 -0.002296 0.000000 0.044387 0.000000
# 6 0.000000 0.000000 0.000000 -0.034865 0.000000 0.042106
#
#
# Mechanical properties :
#
#
# Convention : Reuss Voigt Hill
#
# Bulk Modulus (GPa) = 24.95496 38.72749 31.84123
# Shear Modulus (GPa) = 10.23614 26.99526 18.61570
#
# Velocity S-wave (km/s) = 2.27876 3.70062 3.07305
# Velocity P-wave (km/s) = 4.42529 6.15676 5.36138
#
# Compressibility (1/GPa) = 0.04007219
#
# Stress axis : x y z
#
# Youngs Moduli (GPa) = 17.38469 9.69619 58.13585
#
# Poissons Ratio (x) = 0.62237 -0.29424
# Poissons Ratio (y) = 1.11588 0.56775
# Poissons Ratio (z) = -0.08799 0.09469
#
# Static dielectric constant tensor:
#      x y z
#    x 1.727590 0.000000 0.009090 
#    y 0.000000 1.691160 0.000000 
#    z 0.009090 0.000000 1.724610 
# 
# From -- ./inp_files/181261.got.cif
#   From: 2010.05.17/outbox.cif.g08.bks.cpg/sg15_91_cif.got.tgz:181261.got - 2010.06.03 18:47:42.
