data_PCOD9266697
_publ_section_title
;
Structure prediction by ZEFSAII (Michael W. Deem and Ramdas Pophale) SiO2 
 PCOD9266697
Probable space group: C 2/C
;
_chemical_formula_sum "Si O2"
_cell_formula_units_Z 56
_cell_length_a 24.378302
_cell_length_b 14.987282
_cell_length_c 13.830287
_cell_angle_alpha 90.000000
_cell_angle_beta 28.681088
_cell_angle_gamma 90.000000
_cell_volume 2425.152163
_symmetry_space_group_name_H-M "C 2/C"
_symmetry_group_IT_number 15
_symmetry_cell_setting 'monoclinic'
loop_
_space_group_symop_operation_xyz
x,y,z
-x,y,1/2-z
-x,-y,-z
x,-y,1/2+z
1/2+x,1/2+y,z
1/2-x,1/2+y,1/2-z
1/2-x,1/2-y,-z
1/2+x,1/2-y,1/2+z
loop_
_atom_site_type_symbol
_atom_site_label
_atom_site_fract_x
_atom_site_fract_y
_atom_site_fract_z
Si Si1 0.523827 0.090333 0.404540
Si Si2 0.734769 0.568199 0.406637
Si Si3 0.000000 0.996510 0.750000
Si Si4 0.415052 0.431473 0.082767
Si Si5 0.258751 0.202721 0.194395
Si Si6 0.000000 0.278190 0.250000
Si Si7 0.554997 0.729332 0.372247
Si Si8 0.200131 0.591813 0.832124
O O1 0.661193 0.097050 0.184422
O O2 0.475754 0.172919 0.542153
O O3 0.436770 0.091694 0.448657
O O4 0.500000 0.000000 0.500000
O O5 0.603512 0.552325 0.638873
O O6 0.726286 0.641023 0.334319
O O7 0.774068 0.474147 0.297850
O O8 0.054253 0.940865 0.578863
O O9 0.452028 0.335025 0.061729
O O10 0.500000 0.500000 0.000000
O O11 0.279599 0.446317 0.295011
O O12 0.170454 0.193292 0.242346
O O13 0.246078 0.307546 0.242194
O O14 0.388297 0.175613 0.967612
O O15 0.057470 0.229166 0.252590
#
# Coordination Sequence:
#
# PCOD9266697 Si02
#       8
#     8   8   4   8   8   4   8   8
#     4   9  18  35  59  79 115 162 198 238 300 368
#     4  10  19  38  59  86 115 161 206 251 298 375
#     4  10  23  38  64  87 126 166 211 254 314 365
#     4  11  21  38  62  94 124 157 206 261 312 368
#     4  11  22  37  58  90 122 157 202 252 316 378
#     4  12  21  36  56  91 130 152 199 260 320 379
#     4  11  21  35  57  90 124 157 196 254 317 368
#     4   9  19  34  61  82 116 153 198 245 310 356
#
# _framework density 23.091335000000001
#
# number of rings (size 3 to 8) (size 9 to 14) (size 15 to 20)
#    0.000    1.714    2.857    2.571    2.000    0.000 
#    2.571    0.000    0.000   15.429    0.000    0.000 
#    0.000    0.000    0.000    0.000    0.000    0.000 
#
# Total GULP energy -156083.319319 kJ/mol
# GULP energy per Si atom -5574.404261 kJ/mol
# Density = 2.303878 g / cm^3
# Si number density = 23.091335 Si / 1000 Ang^3
#
#
#
# Elastic Constant Matrix: (Units=GPa)
#
#
# Indices 1 2 3 4 5 6 
#
# 1 125.1047 18.2504 60.5419 0.0000 -54.6027 0.0000
# 2 18.2504 106.2122 20.4986 0.0000 -3.1924 0.0000
# 3 60.5419 20.4986 109.4229 0.0000 -44.8285 0.0000
# 4 0.0000 0.0000 0.0000 17.4833 0.0000 -3.5845
# 5 -54.6027 -3.1924 -44.8285 0.0000 62.9722 0.0000
# 6 0.0000 0.0000 0.0000 -3.5845 0.0000 21.7878
#
#
#
# Elastic Compliance Matrix: (Units=1/GPa)
#
#
# Indices 1 2 3 4 5 6 
#
# 1 0.014156 -0.001445 -0.003618 0.000000 0.009626 0.000000
# 2 -0.001445 0.009974 -0.001941 0.000000 -0.002129 0.000000
# 3 -0.003618 -0.001941 0.014370 0.000000 0.006994 0.000000
# 4 0.000000 0.000000 0.000000 0.059194 0.000000 0.009738
# 5 0.009626 -0.002129 0.006994 0.000000 0.029097 0.000000
# 6 0.000000 0.000000 0.000000 0.009738 0.000000 0.047499
#
#
# Mechanical properties :
#
#
# Convention : Reuss Voigt Hill
#
# Bulk Modulus (GPa) = 40.83123 59.92462 50.37793
# Shear Modulus (GPa) = 25.45004 36.54525 30.99764
#
# Velocity S-wave (km/s) = 3.32346 3.98256 3.66784
# Velocity P-wave (km/s) = 5.69632 6.86696 6.30885
#
# Compressibility (1/GPa) = 0.02449106
#
# Stress axis : x y z
#
# Youngs Moduli (GPa) = 70.63980 100.26010 69.59116
#
# Poissons Ratio (x) = 0.14486 0.25180
# Poissons Ratio (y) = 0.10206 0.13510
# Poissons Ratio (z) = 0.25559 0.19464
#
# Static dielectric constant tensor:
#      x y z
#    x 1.937680 0.000000 -0.046410 
#    y 0.000000 1.860400 0.000000 
#    z -0.046410 0.000000 1.929970 
# 
# From -- ./inp_files/173831.got.cif
#   From: 2010.05.17/outbox.cif.g08.bks.cpg/sg15_87_cif.got.tgz:173831.got - 2010.06.03 18:47:42.
