data_PCOD9266332
_publ_section_title
;
Structure prediction by ZEFSAII (Michael W. Deem and Ramdas Pophale) SiO2 
 PCOD9266332
Probable space group: C 2/C
;
_chemical_formula_sum "Si O2"
_cell_formula_units_Z 56
_cell_length_a 9.392942
_cell_length_b 22.568201
_cell_length_c 12.824133
_cell_angle_alpha 90.000000
_cell_angle_beta 110.559195
_cell_angle_gamma 90.000000
_cell_volume 2545.342320
_symmetry_space_group_name_H-M "C 2/C"
_symmetry_group_IT_number 15
_symmetry_cell_setting 'monoclinic'
loop_
_space_group_symop_operation_xyz
x,y,z
-x,y,1/2-z
-x,-y,-z
x,-y,1/2+z
1/2+x,1/2+y,z
1/2-x,1/2+y,1/2-z
1/2-x,1/2-y,-z
1/2+x,1/2-y,1/2+z
loop_
_atom_site_type_symbol
_atom_site_label
_atom_site_fract_x
_atom_site_fract_y
_atom_site_fract_z
Si Si1 0.577922 0.278008 0.654407
Si Si2 0.316781 0.542140 0.699447
Si Si3 0.196969 0.813152 0.035371
Si Si4 0.679912 0.870103 0.790145
Si Si5 0.358620 0.848409 0.281213
Si Si6 0.298996 0.422523 0.602907
Si Si7 0.610682 0.461900 0.602010
O O1 0.500000 0.288211 0.750000
O O2 0.479337 0.309152 0.539849
O O3 0.744233 0.305664 0.690864
O O4 0.579111 0.207635 0.639610
O O5 0.500000 0.552534 0.750000
O O6 0.223541 0.601810 0.674117
O O7 0.264514 0.493211 0.600929
O O8 0.297601 0.509763 0.806190
O O9 0.253656 0.874353 0.995552
O O10 0.250000 0.750000 0.000000
O O11 0.242821 0.819953 0.166581
O O12 0.500000 0.870314 0.750000
O O13 0.734142 0.897094 0.693465
O O14 0.765948 0.912477 0.896493
O O15 0.500000 0.872665 0.250000
O O16 0.482172 0.426763 0.636164
O O17 0.500000 0.500000 0.500000
#
# Coordination Sequence:
#
# PCOD9266332 Si02
#       7
#     8   8   8   8   8   8   8
#     4  11  20  39  67  89 123 169 211 270 330 387
#     4   9  21  37  57  85 125 173 203 245 328 392
#     4  12  20  37  71 100 115 161 236 269 315 393
#     4  11  21  36  61  94 126 163 215 270 327 383
#     4  11  23  39  64  95 126 160 216 276 326 386
#     4  10  20  39  64  87 125 172 214 262 315 397
#     4  10  19  37  63  88 118 173 220 258 321 397
#
# _framework density 22.000971
#
# number of rings (size 3 to 8) (size 9 to 14) (size 15 to 20)
#    0.000    1.429    5.714    2.143    0.000    2.857 
#    0.000    4.286    0.000    2.571    0.000    0.000 
#    0.000    0.000    0.000    0.000    0.000    0.000 
#
# Total GULP energy -155967.602200 kJ/mol
# GULP energy per Si atom -5570.271507 kJ/mol
# Density = 2.195090 g / cm^3
# Si number density = 22.000971 Si / 1000 Ang^3
#
#
#
# Elastic Constant Matrix: (Units=GPa)
#
#
# Indices 1 2 3 4 5 6 
#
# 1 95.5912 50.8071 4.9826 0.0000 24.9312 0.0000
# 2 50.8071 142.2156 24.3059 0.0000 7.0110 0.0000
# 3 4.9826 24.3059 59.3261 0.0000 9.6780 0.0000
# 4 0.0000 0.0000 0.0000 37.2044 0.0000 7.1755
# 5 24.9312 7.0110 9.6780 0.0000 19.6339 0.0000
# 6 0.0000 0.0000 0.0000 7.1755 0.0000 41.2106
#
#
#
# Elastic Compliance Matrix: (Units=1/GPa)
#
#
# Indices 1 2 3 4 5 6 
#
# 1 0.020925 -0.007099 0.005516 0.000000 -0.026754 0.000000
# 2 -0.007099 0.009999 -0.004772 0.000000 0.007796 0.000000
# 3 0.005516 -0.004772 0.020892 0.000000 -0.015598 0.000000
# 4 0.000000 0.000000 0.000000 0.027813 0.000000 -0.004843
# 5 -0.026754 0.007796 -0.015598 0.000000 0.089809 0.000000
# 6 0.000000 0.000000 0.000000 -0.004843 0.000000 0.025109
#
#
# Mechanical properties :
#
#
# Convention : Reuss Voigt Hill
#
# Bulk Modulus (GPa) = 25.57249 50.81379 38.19314
# Shear Modulus (GPa) = 22.69704 34.07894 28.38799
#
# Velocity S-wave (km/s) = 3.21540 3.93997 3.59598
# Velocity P-wave (km/s) = 5.04317 6.62149 5.88548
#
# Compressibility (1/GPa) = 0.03910453
#
# Stress axis : x y z
#
# Youngs Moduli (GPa) = 47.79058 100.00964 47.86422
#
# Poissons Ratio (x) = 0.70998 -0.26400
# Poissons Ratio (y) = 0.33927 0.22842
# Poissons Ratio (z) = -0.26359 0.47727
#
# Static dielectric constant tensor:
#      x y z
#    x 1.846090 0.000000 -0.014510 
#    y 0.000000 1.884620 0.000000 
#    z -0.014510 0.000000 1.894020 
# 
# From -- ./inp_files/137950.got.cif
#   From: 2010.05.17/outbox.cif.g08.bks.cpg/sg15_69_cif.got.tgz:137950.got - 2010.06.03 18:47:42.
