data_PCOD9266016
_publ_section_title
;
Structure prediction by ZEFSAII (Michael W. Deem and Ramdas Pophale) SiO2 
 PCOD9266016
Probable space group: C 2/C
;
_chemical_formula_sum "Si O2"
_cell_formula_units_Z 52
_cell_length_a 14.882103
_cell_length_b 22.735329
_cell_length_c 8.161864
_cell_angle_alpha 90.000000
_cell_angle_beta 119.193235
_cell_angle_gamma 90.000000
_cell_volume 2410.788076
_symmetry_space_group_name_H-M "C 2/C"
_symmetry_group_IT_number 15
_symmetry_cell_setting 'monoclinic'
loop_
_space_group_symop_operation_xyz
x,y,z
-x,y,1/2-z
-x,-y,-z
x,-y,1/2+z
1/2+x,1/2+y,z
1/2-x,1/2+y,1/2-z
1/2-x,1/2-y,-z
1/2+x,1/2-y,1/2+z
loop_
_atom_site_type_symbol
_atom_site_label
_atom_site_fract_x
_atom_site_fract_y
_atom_site_fract_z
Si Si1 0.332078 0.661489 0.329682
Si Si2 0.589387 0.455170 0.534945
Si Si3 0.235398 0.002247 0.923919
Si Si4 0.453203 0.227918 0.040393
Si Si5 0.500000 0.180084 0.750000
Si Si6 0.697125 0.874139 0.022744
Si Si7 0.777772 0.375924 0.095913
O O1 0.424154 0.612905 0.430615
O O2 0.368393 0.726690 0.400003
O O3 0.253924 0.644080 0.406456
O O4 0.285028 0.654789 0.106683
O O5 0.500000 0.500000 0.500000
O O6 0.695696 0.472637 0.722370
O O7 0.628997 0.466069 0.387847
O O8 0.316198 0.055190 0.989211
O O9 0.267770 0.945573 0.056178
O O10 0.500000 0.253009 0.250000
O O11 0.519651 0.216153 0.936007
O O12 0.402792 0.166203 0.050292
O O13 0.603304 0.143001 0.812446
O O14 0.756861 0.862436 0.248504
#
# Coordination Sequence:
#
# PCOD9266016 Si02
#       7
#     8   8   8   8   4   8   8
#     4  10  23  39  65  89 124 170 211 252 319 375
#     4  10  20  35  56  88 120 155 197 254 310 366
#     4  10  19  37  59  86 123 157 203 250 312 377
#     4  11  24  43  60  92 127 166 215 266 302 373
#     4  10  24  42  64  90 130 160 216 266 308 368
#     4  10  21  39  65  88 122 166 206 257 316 373
#     4  10  21  42  62  93 126 165 210 260 314 381
#
# _framework density 21.569711000000002
#
# number of rings (size 3 to 8) (size 9 to 14) (size 15 to 20)
#    0.000    1.846    1.538    1.846    0.000    6.154 
#    6.923    1.538    0.000    0.000    0.000    0.000 
#    0.000    0.000    0.000    0.000    0.000    0.000 
#
# Total GULP energy -144837.792778 kJ/mol
# GULP energy per Si atom -5570.684338 kJ/mol
# Density = 2.152062 g / cm^3
# Si number density = 21.569711 Si / 1000 Ang^3
#
#
#
# Elastic Constant Matrix: (Units=GPa)
#
#
# Indices 1 2 3 4 5 6 
#
# 1 36.0392 0.1055 9.7708 0.0000 -16.4656 0.0000
# 2 0.1055 62.6821 7.0778 0.0000 5.9492 0.0000
# 3 9.7708 7.0778 106.0563 0.0000 -21.5522 0.0000
# 4 0.0000 0.0000 0.0000 25.7800 0.0000 2.3347
# 5 -16.4656 5.9492 -21.5522 0.0000 28.0787 0.0000
# 6 0.0000 0.0000 0.0000 2.3347 0.0000 24.1924
#
#
#
# Elastic Compliance Matrix: (Units=1/GPa)
#
#
# Indices 1 2 3 4 5 6 
#
# 1 0.038419 -0.002544 0.001562 0.000000 0.024267 0.000000
# 2 -0.002544 0.016861 -0.002275 0.000000 -0.006810 0.000000
# 3 0.001562 -0.002275 0.011517 0.000000 0.010238 0.000000
# 4 0.000000 0.000000 0.000000 0.039132 0.000000 -0.003776
# 5 0.024267 -0.006810 0.010238 0.000000 0.059146 0.000000
# 6 0.000000 0.000000 0.000000 -0.003776 0.000000 0.041700
#
#
# Mechanical properties :
#
#
# Convention : Reuss Voigt Hill
#
# Bulk Modulus (GPa) = 16.58853 26.52065 21.55459
# Shear Modulus (GPa) = 21.42397 28.13179 24.77788
#
# Velocity S-wave (km/s) = 3.15500 3.61533 3.39298
# Velocity P-wave (km/s) = 4.58032 5.45431 5.03631
#
# Compressibility (1/GPa) = 0.06028260
#
# Stress axis : x y z
#
# Youngs Moduli (GPa) = 26.02900 59.30832 86.82485
#
# Poissons Ratio (x) = 0.15089 -0.13560
# Poissons Ratio (y) = 0.06622 0.19751
# Poissons Ratio (z) = -0.04065 0.13492
#
# Static dielectric constant tensor:
#      x y z
#    x 1.817200 0.000000 -0.059610 
#    y 0.000000 1.811600 0.000000 
#    z -0.059610 0.000000 1.864600 
# 
# From -- ./inp_files/43250.got.cif
#   From: 2010.05.17/outbox.cif.g08.bks.cpg/sg15_22_cif.got.tgz:43250.got - 2010.06.03 18:47:42.
