data_PCOD9266239
_publ_section_title
;
Structure prediction by ZEFSAII (Michael W. Deem and Ramdas Pophale) SiO2 
 PCOD9266239
Probable space group: C 2/C
;
_chemical_formula_sum "Si O2"
_cell_formula_units_Z 36
_cell_length_a 10.620172
_cell_length_b 9.616951
_cell_length_c 15.310123
_cell_angle_alpha 90.000000
_cell_angle_beta 64.630960
_cell_angle_gamma 90.000000
_cell_volume 1412.888743
_symmetry_space_group_name_H-M "C 2/C"
_symmetry_group_IT_number 15
_symmetry_cell_setting 'monoclinic'
loop_
_space_group_symop_operation_xyz
x,y,z
-x,y,1/2-z
-x,-y,-z
x,-y,1/2+z
1/2+x,1/2+y,z
1/2-x,1/2+y,1/2-z
1/2-x,1/2-y,-z
1/2+x,1/2-y,1/2+z
loop_
_atom_site_type_symbol
_atom_site_label
_atom_site_fract_x
_atom_site_fract_y
_atom_site_fract_z
Si Si1 0.230079 0.410325 0.906914
Si Si2 0.500265 0.932767 0.373773
Si Si3 0.500000 0.830900 0.750000
Si Si4 0.481334 0.372283 0.600698
Si Si5 0.882563 0.849029 0.126903
O O1 0.380912 0.445029 0.898808
O O2 0.237689 0.249904 0.874034
O O3 0.148750 0.502403 0.860393
O O4 0.116598 0.417774 0.017382
O O5 0.539097 0.772695 0.344081
O O6 0.432633 0.050718 0.332525
O O7 0.570071 0.727870 0.799150
O O8 0.508468 0.344685 0.488881
O O9 0.363860 0.487948 0.646945
#
# Coordination Sequence:
#
# PCOD9266239 Si02
#       5
#     8   8   4   8   8
#     4   9  18  37  59  81 107 141 185 228 263 322
#     4   9  18  34  56  80 111 145 178 220 277 327
#     4  10  20  36  52  80 122 144 168 234 284 320
#     4  10  19  37  62  82 102 147 194 224 263 325
#     4   9  19  35  56  82 112 139 179 231 272 315
#
# _framework density 25.479711000000002
#
# number of rings (size 3 to 8) (size 9 to 14) (size 15 to 20)
#    0.000    2.667    0.000    4.000    0.000    0.889 
#    0.000   45.556    0.000    0.000    0.000    0.000 
#    0.000    0.000    0.000    0.000    0.000    0.000 
#
# Total GULP energy -100318.219217 kJ/mol
# GULP energy per Si atom -5573.234401 kJ/mol
# Density = 2.542172 g / cm^3
# Si number density = 25.479711 Si / 1000 Ang^3
#
#
#
# Elastic Constant Matrix: (Units=GPa)
#
#
# Indices 1 2 3 4 5 6 
#
# 1 124.7130 51.8036 44.0835 0.0000 30.2794 0.0000
# 2 51.8036 179.6242 36.3539 0.0000 13.9959 0.0000
# 3 44.0835 36.3539 114.4602 0.0000 13.2050 0.0000
# 4 0.0000 0.0000 0.0000 19.1385 0.0000 17.3615
# 5 30.2794 13.9959 13.2050 0.0000 34.4123 0.0000
# 6 0.0000 0.0000 0.0000 17.3615 0.0000 25.6836
#
#
#
# Elastic Compliance Matrix: (Units=1/GPa)
#
#
# Indices 1 2 3 4 5 6 
#
# 1 0.012066 -0.002213 -0.002954 0.000000 -0.008583 0.000000
# 2 -0.002213 0.006461 -0.001173 0.000000 -0.000230 0.000000
# 3 -0.002954 -0.001173 0.010350 0.000000 -0.000895 0.000000
# 4 0.000000 0.000000 0.000000 0.135088 0.000000 -0.091316
# 5 -0.008583 -0.000230 -0.000895 0.000000 0.037049 0.000000
# 6 0.000000 0.000000 0.000000 -0.091316 0.000000 0.100663
#
#
# Mechanical properties :
#
#
# Convention : Reuss Voigt Hill
#
# Bulk Modulus (GPa) = 61.74179 75.91995 68.83087
# Shear Modulus (GPa) = 15.63696 34.95065 25.29380
#
# Velocity S-wave (km/s) = 2.47999 3.70767 3.15414
# Velocity P-wave (km/s) = 5.69955 6.94190 6.35117
#
# Compressibility (1/GPa) = 0.01619649
#
# Stress axis : x y z
#
# Youngs Moduli (GPa) = 82.87914 154.77941 96.61619
#
# Poissons Ratio (x) = 0.34255 0.28540
# Poissons Ratio (y) = 0.18342 0.11334
# Poissons Ratio (z) = 0.24482 0.18157
#
# Static dielectric constant tensor:
#      x y z
#    x 1.982640 0.000000 0.088030 
#    y 0.000000 2.026570 0.000000 
#    z 0.088030 0.000000 2.293410 
# 
# From -- ./inp_files/194915.got.cif
#   From: 2010.05.17/outbox.cif.g08.bks.cpg/sg15_98_cif.got.tgz:194915.got - 2010.06.03 18:47:42.
