data_PCOD9266481
_publ_section_title
;
Structure prediction by ZEFSAII (Michael W. Deem and Ramdas Pophale) SiO2 
 PCOD9266481
Probable space group: C 2/C
;
_chemical_formula_sum "Si O2"
_cell_formula_units_Z 40
_cell_length_a 12.523224
_cell_length_b 8.325584
_cell_length_c 25.715965
_cell_angle_alpha 90.000000
_cell_angle_beta 140.340117
_cell_angle_gamma 90.000000
_cell_volume 1711.237071
_symmetry_space_group_name_H-M "C 2/C"
_symmetry_group_IT_number 15
_symmetry_cell_setting 'monoclinic'
loop_
_space_group_symop_operation_xyz
x,y,z
-x,y,1/2-z
-x,-y,-z
x,-y,1/2+z
1/2+x,1/2+y,z
1/2-x,1/2+y,1/2-z
1/2-x,1/2-y,-z
1/2+x,1/2-y,1/2+z
loop_
_atom_site_type_symbol
_atom_site_label
_atom_site_fract_x
_atom_site_fract_y
_atom_site_fract_z
Si Si1 0.320334 0.788849 0.082755
Si Si2 0.586706 0.553033 0.226477
Si Si3 0.019897 0.683286 0.493829
Si Si4 0.881592 0.797891 0.345615
Si Si5 0.188777 0.959587 0.593119
O O1 0.479402 0.682219 0.153060
O O2 0.169796 0.735639 0.063670
O O3 0.326495 0.973544 0.104159
O O4 0.250000 0.750000 0.000000
O O5 0.500000 0.541886 0.250000
O O6 0.764442 0.642077 0.297750
O O7 0.583069 0.383455 0.195558
O O8 0.035646 0.738756 0.439750
O O9 0.000000 0.500000 0.500000
O O10 0.163881 0.768076 0.582294
O O11 0.797718 0.949111 0.346925
O O12 0.000000 0.000000 0.500000
#
# Coordination Sequence:
#
# PCOD9266481 Si02
#       5
#     8   8   8   8   8
#     4  10  19  37  65  91 128 177 218 271 338 411
#     4  12  22  44  69  95 141 181 227 276 351 414
#     4  10  20  38  65  95 134 168 224 288 334 397
#     4  10  23  40  65  96 132 178 221 284 341 403
#     4   8  16  35  58  91 125 165 216 263 333 395
#
# _framework density 23.374904000000001
#
# number of rings (size 3 to 8) (size 9 to 14) (size 15 to 20)
#    0.000    2.400    4.000    3.600    0.000    3.200 
#    0.000    7.000    4.400    0.000    0.000    0.000 
#    0.000    0.000    0.000    0.000    0.000    0.000 
#
# Total GULP energy -111364.533098 kJ/mol
# GULP energy per Si atom -5568.226655 kJ/mol
# Density = 2.332170 g / cm^3
# Si number density = 23.374904 Si / 1000 Ang^3
#
#
#
# Elastic Constant Matrix: (Units=GPa)
#
#
# Indices 1 2 3 4 5 6 
#
# 1 46.1534 17.6406 14.0229 0.0000 -16.2225 0.0000
# 2 17.6406 108.3958 -3.0092 0.0000 -17.6086 0.0000
# 3 14.0229 -3.0092 53.0590 0.0000 -25.3251 0.0000
# 4 0.0000 0.0000 0.0000 29.9410 0.0000 -8.4588
# 5 -16.2225 -17.6086 -25.3251 0.0000 33.0707 0.0000
# 6 0.0000 0.0000 0.0000 -8.4588 0.0000 28.5242
#
#
#
# Elastic Compliance Matrix: (Units=1/GPa)
#
#
# Indices 1 2 3 4 5 6 
#
# 1 0.026979 -0.002903 -0.002705 0.000000 0.009617 0.000000
# 2 -0.002903 0.011309 0.005679 0.000000 0.008946 0.000000
# 3 -0.002705 0.005679 0.032615 0.000000 0.026673 0.000000
# 4 0.000000 0.000000 0.000000 0.036453 0.000000 0.010810
# 5 0.009617 0.008946 0.026673 0.000000 0.060145 0.000000
# 6 0.000000 0.000000 0.000000 0.010810 0.000000 0.038264
#
#
# Mechanical properties :
#
#
# Convention : Reuss Voigt Hill
#
# Bulk Modulus (GPa) = 14.07590 29.43518 21.75554
# Shear Modulus (GPa) = 21.80515 30.23744 26.02129
#
# Velocity S-wave (km/s) = 3.05756 3.60055 3.34011
# Velocity P-wave (km/s) = 4.30114 5.46857 4.91961
#
# Compressibility (1/GPa) = 0.07104343
#
# Stress axis : x y z
#
# Youngs Moduli (GPa) = 37.06638 88.42667 30.66093
#
# Poissons Ratio (x) = 0.25674 0.08292
# Poissons Ratio (y) = 0.10762 -0.17411
# Poissons Ratio (z) = 0.10025 -0.50213
#
# Static dielectric constant tensor:
#      x y z
#    x 2.069990 0.000000 -0.152080 
#    y 0.000000 2.611280 0.000000 
#    z -0.152080 0.000000 2.105010 
# 
# From -- ./inp_files/294943.got.cif
#   From: 2010.05.17/outbox.cif.g08.bks.cpg/sg15_148_cif.got.tgz:294943.got - 2010.06.03 18:47:42.
