data_PCOD9266017
_publ_section_title
;
Structure prediction by ZEFSAII (Michael W. Deem and Ramdas Pophale) SiO2 
 PCOD9266017
Probable space group: C 2/C
;
_chemical_formula_sum "Si O2"
_cell_formula_units_Z 40
_cell_length_a 6.805842
_cell_length_b 11.968837
_cell_length_c 20.533662
_cell_angle_alpha 90.000000
_cell_angle_beta 86.879614
_cell_angle_gamma 90.000000
_cell_volume 1670.151417
_symmetry_space_group_name_H-M "C 2/C"
_symmetry_group_IT_number 15
_symmetry_cell_setting 'monoclinic'
loop_
_space_group_symop_operation_xyz
x,y,z
-x,y,1/2-z
-x,-y,-z
x,-y,1/2+z
1/2+x,1/2+y,z
1/2-x,1/2+y,1/2-z
1/2-x,1/2-y,-z
1/2+x,1/2-y,1/2+z
loop_
_atom_site_type_symbol
_atom_site_label
_atom_site_fract_x
_atom_site_fract_y
_atom_site_fract_z
Si Si1 0.799772 0.007989 0.688719
Si Si2 0.061851 0.212876 0.181820
Si Si3 0.337413 0.027682 0.174886
Si Si4 0.176435 0.183906 0.916461
Si Si5 0.341985 0.078230 0.035825
O O1 0.914532 0.891443 0.676238
O O2 0.781356 0.035123 0.766108
O O3 0.569947 0.989523 0.674034
O O4 0.885316 0.105295 0.641905
O O5 0.104039 0.279209 0.114976
O O6 0.000000 0.272281 0.250000
O O7 0.273836 0.155389 0.191984
O O8 0.270613 0.014810 0.101690
O O9 0.079086 0.301636 0.938390
O O10 0.191412 0.112533 0.982013
O O11 0.500000 0.000000 0.000000
#
# Coordination Sequence:
#
# PCOD9266017 Si02
#       5
#     8   8   8   8   8
#     4  10  19  37  63  86 115 156 200 245 295 352
#     4   9  20  37  59  89 119 152 204 252 292 351
#     4   9  19  36  61  82 121 155 186 255 295 332
#     4  10  21  35  63  86 115 165 197 238 305 355
#     4  10  19  37  59  86 125 156 192 249 297 347
#
# _framework density 23.949926999999999
#
# number of rings (size 3 to 8) (size 9 to 14) (size 15 to 20)
#    0.000    2.400    2.000    0.000    2.800    0.000 
#    0.000   14.000   44.000    0.000    0.000    0.000 
#    0.000    0.000    0.000    0.000    0.000    0.000 
#
# Total GULP energy -111391.958217 kJ/mol
# GULP energy per Si atom -5569.597911 kJ/mol
# Density = 2.389542 g / cm^3
# Si number density = 23.949927 Si / 1000 Ang^3
#
#
#
# Elastic Constant Matrix: (Units=GPa)
#
#
# Indices 1 2 3 4 5 6 
#
# 1 65.8030 41.7158 28.0791 0.0000 -15.5691 0.0000
# 2 41.7158 105.7565 54.0089 0.0000 0.7291 0.0000
# 3 28.0791 54.0089 221.4286 0.0000 -6.7763 0.0000
# 4 0.0000 0.0000 0.0000 47.2047 0.0000 -3.0451
# 5 -15.5691 0.7291 -6.7763 0.0000 24.8792 0.0000
# 6 0.0000 0.0000 0.0000 -3.0451 0.0000 37.8998
#
#
#
# Elastic Compliance Matrix: (Units=1/GPa)
#
#
# Indices 1 2 3 4 5 6 
#
# 1 0.025501 -0.010020 -0.000295 0.000000 0.016171 0.000000
# 2 -0.010020 0.014765 -0.002557 0.000000 -0.007399 0.000000
# 3 -0.000295 -0.002557 0.005217 0.000000 0.001311 0.000000
# 4 0.000000 0.000000 0.000000 0.021295 0.000000 0.001711
# 5 0.016171 -0.007399 0.001311 0.000000 0.050888 0.000000
# 6 0.000000 0.000000 0.000000 0.001711 0.000000 0.026523
#
#
# Mechanical properties :
#
#
# Convention : Reuss Voigt Hill
#
# Bulk Modulus (GPa) = 50.65976 71.17730 60.91853
# Shear Modulus (GPa) = 28.32661 39.94237 34.13449
#
# Velocity S-wave (km/s) = 3.44283 4.08823 3.77934
# Velocity P-wave (km/s) = 6.08296 7.21586 6.67349
#
# Compressibility (1/GPa) = 0.01973953
#
# Stress axis : x y z
#
# Youngs Moduli (GPa) = 39.21425 67.72810 191.66696
#
# Poissons Ratio (x) = 0.67862 0.05653
# Poissons Ratio (y) = 0.39292 0.49013
# Poissons Ratio (z) = 0.01157 0.17319
#
# Static dielectric constant tensor:
#      x y z
#    x 1.977340 0.000000 0.036340 
#    y 0.000000 1.993690 0.000000 
#    z 0.036340 0.000000 2.035140 
# 
# From -- ./inp_files/229848.got.cif
#   From: 2010.05.17/outbox.cif.g08.bks.cpg/sg15_115_cif.got.tgz:229848.got - 2010.06.03 18:47:42.
