data_PCOD9266700
_publ_section_title
;
Structure prediction by ZEFSAII (Michael W. Deem and Ramdas Pophale) SiO2 
 PCOD9266700
Probable space group: C 2/C
;
_chemical_formula_sum "Si O2"
_cell_formula_units_Z 56
_cell_length_a 9.746532
_cell_length_b 25.948791
_cell_length_c 15.147600
_cell_angle_alpha 90.000000
_cell_angle_beta 37.505917
_cell_angle_gamma 90.000000
_cell_volume 2332.473083
_symmetry_space_group_name_H-M "C 2/C"
_symmetry_group_IT_number 15
_symmetry_cell_setting 'monoclinic'
loop_
_space_group_symop_operation_xyz
x,y,z
-x,y,1/2-z
-x,-y,-z
x,-y,1/2+z
1/2+x,1/2+y,z
1/2-x,1/2+y,1/2-z
1/2-x,1/2-y,-z
1/2+x,1/2-y,1/2+z
loop_
_atom_site_type_symbol
_atom_site_label
_atom_site_fract_x
_atom_site_fract_y
_atom_site_fract_z
Si Si1 0.873435 0.154992 0.512436
Si Si2 0.481980 0.936316 0.901000
Si Si3 0.427281 0.858315 0.162841
Si Si4 0.793165 0.539006 0.687071
Si Si5 0.270159 0.716248 0.093119
Si Si6 0.372056 0.170477 0.499701
Si Si7 0.431556 0.556208 0.003652
O O1 0.721801 0.160903 0.679546
O O2 0.683371 0.162186 0.535174
O O3 0.981858 0.098603 0.471515
O O4 0.081641 0.194080 0.403353
O O5 0.540472 0.876358 0.888708
O O6 0.671725 0.979930 0.803470
O O7 0.339071 0.954542 0.060476
O O8 0.323173 0.939340 0.897384
O O9 0.462299 0.920543 0.148427
O O10 0.305865 0.844820 0.132878
O O11 0.565217 0.561498 0.842532
O O12 0.284853 0.673667 0.007180
O O13 0.000000 0.723298 0.250000
O O14 0.398377 0.767981 0.997208
O O15 0.500000 0.500000 0.000000
#
# Coordination Sequence:
#
# PCOD9266700 Si02
#       7
#     8   8   8   8   8   8   8
#     4  10  21  40  61  93 124 160 208 253 301 367
#     4  10  19  38  59  87 115 155 203 247 298 356
#     4   9  20  39  67  91 120 161 204 252 305 368
#     4   9  20  35  59  87 119 149 202 249 290 366
#     4  11  25  40  62  93 125 158 210 262 303 359
#     4  10  23  40  64  88 119 165 206 254 309 357
#     4  11  21  33  56  87 120 161 194 238 306 359
#
# _framework density 24.008852000000001
#
# number of rings (size 3 to 8) (size 9 to 14) (size 15 to 20)
#    0.000    2.000    1.429    1.286    4.000    4.571 
#    0.000    0.714    0.000    0.000    0.000    0.000 
#    0.000    0.000    0.000    0.000    0.000    0.000 
#
# Total GULP energy -155928.546309 kJ/mol
# GULP energy per Si atom -5568.876654 kJ/mol
# Density = 2.395421 g / cm^3
# Si number density = 24.008852 Si / 1000 Ang^3
#
#
#
# Elastic Constant Matrix: (Units=GPa)
#
#
# Indices 1 2 3 4 5 6 
#
# 1 57.7132 15.2022 30.5446 0.0000 -7.4847 0.0000
# 2 15.2022 135.8824 24.7567 0.0000 -16.8053 0.0000
# 3 30.5446 24.7567 100.3699 0.0000 -5.3264 0.0000
# 4 0.0000 0.0000 0.0000 23.2183 0.0000 6.2261
# 5 -7.4847 -16.8053 -5.3264 0.0000 30.1076 0.0000
# 6 0.0000 0.0000 0.0000 6.2261 0.0000 29.1960
#
#
#
# Elastic Compliance Matrix: (Units=1/GPa)
#
#
# Indices 1 2 3 4 5 6 
#
# 1 0.021236 -0.000806 -0.006064 0.000000 0.003756 0.000000
# 2 -0.000806 0.008246 -0.001570 0.000000 0.004124 0.000000
# 3 -0.006064 -0.001570 0.012184 0.000000 -0.000228 0.000000
# 4 0.000000 0.000000 0.000000 0.045682 0.000000 -0.009742
# 5 0.003756 0.004124 -0.000228 0.000000 0.036410 0.000000
# 6 0.000000 0.000000 0.000000 -0.009742 0.000000 0.036329
#
#
# Mechanical properties :
#
#
# Convention : Reuss Voigt Hill
#
# Bulk Modulus (GPa) = 40.34729 48.33028 44.33878
# Shear Modulus (GPa) = 26.99380 31.40185 29.19782
#
# Velocity S-wave (km/s) = 3.35674 3.62045 3.49109
# Velocity P-wave (km/s) = 5.64493 6.13602 5.89559
#
# Compressibility (1/GPa) = 0.02478481
#
# Stress axis : x y z
#
# Youngs Moduli (GPa) = 47.08948 121.27748 82.07705
#
# Poissons Ratio (x) = 0.09780 0.49774
# Poissons Ratio (y) = 0.03797 0.12882
# Poissons Ratio (z) = 0.28557 0.19035
#
# Static dielectric constant tensor:
#      x y z
#    x 1.949730 0.000000 0.021680 
#    y 0.000000 1.947100 0.000000 
#    z 0.021680 0.000000 2.011900 
# 
# From -- ./inp_files/193858.got.cif
#   From: 2010.05.17/outbox.cif.g08.bks.cpg/sg15_97_cif.got.tgz:193858.got - 2010.06.03 18:47:42.
