data_PCOD9266225
_publ_section_title
;
Structure prediction by ZEFSAII (Michael W. Deem and Ramdas Pophale) SiO2 
 PCOD9266225
Probable space group: C 2/C
;
_chemical_formula_sum "Si O2"
_cell_formula_units_Z 48
_cell_length_a 13.376223
_cell_length_b 30.537562
_cell_length_c 5.073946
_cell_angle_alpha 90.000000
_cell_angle_beta 112.945900
_cell_angle_gamma 90.000000
_cell_volume 1908.594298
_symmetry_space_group_name_H-M "C 2/C"
_symmetry_group_IT_number 15
_symmetry_cell_setting 'monoclinic'
loop_
_space_group_symop_operation_xyz
x,y,z
-x,y,1/2-z
-x,-y,-z
x,-y,1/2+z
1/2+x,1/2+y,z
1/2-x,1/2+y,1/2-z
1/2-x,1/2-y,-z
1/2+x,1/2-y,1/2+z
loop_
_atom_site_type_symbol
_atom_site_label
_atom_site_fract_x
_atom_site_fract_y
_atom_site_fract_z
Si Si1 0.000000 0.386618 0.750000
Si Si2 0.696002 0.528759 0.244715
Si Si3 0.500000 0.577417 0.250000
Si Si4 0.883463 0.136214 0.770980
Si Si5 0.881792 0.322793 0.000636
Si Si6 0.194999 0.402374 0.261889
Si Si7 0.076785 0.767006 0.083663
O O1 0.914500 0.353766 0.795275
O O2 0.925408 0.412848 0.470310
O O3 0.710784 0.512695 0.960919
O O4 0.571483 0.546006 0.139951
O O5 0.772226 0.563602 0.476589
O O6 0.590462 0.612135 0.430076
O O7 0.779143 0.106556 0.603388
O O8 0.867565 0.187843 0.770547
O O9 0.000000 0.129711 0.750000
O O10 0.844397 0.273974 0.892991
O O11 0.812977 0.353510 0.118876
O O12 0.000000 0.314185 0.250000
O O13 0.000000 0.753509 0.250000
O O14 0.000000 0.777397 0.750000
#
# Coordination Sequence:
#
# PCOD9266225 Si02
#       7
#     4   8   4   8   8   8   8
#     4  10  20  42  68  90 127 179 232 280 328 406
#     4  11  26  44  68 102 135 172 226 286 346 418
#     4  10  22  40  68  94 137 189 218 270 340 414
#     4  10  22  38  63 100 143 184 219 279 333 410
#     4   9  19  37  64  90 128 181 231 277 328 403
#     4  10  24  41  68  98 131 179 232 279 347 406
#     4  10  19  37  61  95 141 180 225 277 333 391
#
# _framework density 25.1494
#
# number of rings (size 3 to 8) (size 9 to 14) (size 15 to 20)
#    0.000    2.000    1.667    0.500    7.000    2.000 
#    0.000    1.667    0.000    0.000    0.000    0.000 
#    0.000    0.000    0.000    0.000    0.000    0.000 
#
# Total GULP energy -133764.641346 kJ/mol
# GULP energy per Si atom -5573.526723 kJ/mol
# Density = 2.509216 g / cm^3
# Si number density = 25.149400 Si / 1000 Ang^3
#
#
#
# Elastic Constant Matrix: (Units=GPa)
#
#
# Indices 1 2 3 4 5 6 
#
# 1 63.5985 24.6402 8.8292 0.0000 -0.5096 0.0000
# 2 24.6402 128.6482 8.5271 0.0000 22.8877 0.0000
# 3 8.8292 8.5271 71.0176 0.0000 6.5209 0.0000
# 4 0.0000 0.0000 0.0000 18.6336 0.0000 3.9688
# 5 -0.5096 22.8877 6.5209 0.0000 35.4599 0.0000
# 6 0.0000 0.0000 0.0000 3.9688 0.0000 -1.7075
#
#
#
# Elastic Compliance Matrix: (Units=1/GPa)
#
#
# Indices 1 2 3 4 5 6 
#
# 1 0.017482 -0.003757 -0.002002 0.000000 0.003044 0.000000
# 2 -0.003757 0.009610 -0.000114 0.000000 -0.006236 0.000000
# 3 -0.002002 -0.000114 0.014586 0.000000 -0.002637 0.000000
# 4 0.000000 0.000000 0.000000 0.035896 0.000000 0.083434
# 5 0.003044 -0.006236 -0.002637 0.000000 0.032754 0.000000
# 6 0.000000 0.000000 0.000000 0.083434 0.000000 -0.391725
#
#
# Mechanical properties :
#
#
# Convention : Reuss Voigt Hill
#
# Bulk Modulus (GPa) = 33.41053 38.58415 35.99734
# Shear Modulus (GPa) = -19.25492 25.22838 2.98673
#
# Velocity S-wave (km/s) = -2.76999 3.17068 1.09095
# Velocity P-wave (km/s) = 1.75591 5.36466 3.99141
#
# Compressibility (1/GPa) = 0.02993068
#
# Stress axis : x y z
#
# Youngs Moduli (GPa) = 57.20295 104.06137 68.56003
#
# Poissons Ratio (x) = 0.39098 0.13724
# Poissons Ratio (y) = 0.21493 0.00783
# Poissons Ratio (z) = 0.11451 0.01188
#
# Static dielectric constant tensor:
#      x y z
#    x 2.385750 0.000000 0.228350 
#    y 0.000000 1.995010 0.000000 
#    z 0.228350 0.000000 2.344840 
# 
# From -- ./inp_files/9169.got.cif
#   From: 2010.05.17/outbox.cif.g08.bks.cpg/sg15_5_cif.got.tgz:9169.got - 2010.06.03 18:47:42.
