data_PCOD9266631
_publ_section_title
;
Structure prediction by ZEFSAII (Michael W. Deem and Ramdas Pophale) SiO2 
 PCOD9266631
Probable space group: C 2/C
;
_chemical_formula_sum "Si O2"
_cell_formula_units_Z 60
_cell_length_a 6.496644
_cell_length_b 29.118271
_cell_length_c 17.197903
_cell_angle_alpha 90.000000
_cell_angle_beta 74.611917
_cell_angle_gamma 90.000000
_cell_volume 3136.714787
_symmetry_space_group_name_H-M "C 2/C"
_symmetry_group_IT_number 15
_symmetry_cell_setting 'monoclinic'
loop_
_space_group_symop_operation_xyz
x,y,z
-x,y,1/2-z
-x,-y,-z
x,-y,1/2+z
1/2+x,1/2+y,z
1/2-x,1/2+y,1/2-z
1/2-x,1/2-y,-z
1/2+x,1/2-y,1/2+z
loop_
_atom_site_type_symbol
_atom_site_label
_atom_site_fract_x
_atom_site_fract_y
_atom_site_fract_z
Si Si1 0.750279 0.820741 0.396579
Si Si2 0.921582 0.155781 0.041221
Si Si3 0.614167 0.916735 0.364484
Si Si4 0.167729 0.295069 0.965072
Si Si5 0.000000 0.973081 0.250000
Si Si6 0.085235 0.722594 0.158380
Si Si7 0.719499 0.559948 0.487551
Si Si8 0.791418 0.024215 0.614944
O O1 0.916426 0.835264 0.448067
O O2 0.674682 0.863092 0.351323
O O3 0.545091 0.808518 0.468593
O O4 0.834318 0.775250 0.346606
O O5 0.774811 0.191952 0.102574
O O6 0.825584 0.105135 0.058661
O O7 0.159898 0.164642 0.046228
O O8 0.626880 0.927433 0.456007
O O9 0.390704 0.937023 0.356154
O O10 0.808881 0.943313 0.305244
O O11 0.105462 0.281996 0.884275
O O12 0.250000 0.250000 0.000000
O O13 0.113113 0.995653 0.313744
O O14 0.000000 0.707281 0.250000
O O15 0.491973 0.545945 0.548776
O O16 0.797163 0.517399 0.428359
#
# Coordination Sequence:
#
# PCOD9266631 Si02
#       8
#     8   8   8   8   4   8   8   8
#     4  10  20  35  57  83 108 148 189 230 281 339
#     4  10  19  38  58  82 110 145 194 233 275 339
#     4  10  20  35  57  84 112 144 186 234 286 342
#     4  11  18  36  60  77 103 154 190 227 275 333
#     4  10  22  36  52  80 120 148 174 228 288 346
#     4  11  23  36  51  82 121 148 185 237 285 336
#     4   9  20  35  62  84 106 142 193 242 276 336
#     4  10  19  38  56  84 113 145 185 235 293 342
#
# _framework density 19.128292999999999
#
# number of rings (size 3 to 8) (size 9 to 14) (size 15 to 20)
#    0.000    1.867    2.667    2.400    0.933    0.533 
#    0.000    4.000    0.000    0.000    0.000    0.000 
#    0.000    0.000    0.000    0.000    0.000    0.000 
#
# Total GULP energy -167291.106961 kJ/mol
# GULP energy per Si atom -5576.370232 kJ/mol
# Density = 1.908476 g / cm^3
# Si number density = 19.128293 Si / 1000 Ang^3
#
#
#
# Elastic Constant Matrix: (Units=GPa)
#
#
# Indices 1 2 3 4 5 6 
#
# 1 75.7318 -0.6913 10.8078 0.0000 13.4026 0.0000
# 2 -0.6913 62.7103 -3.2279 0.0000 6.0418 0.0000
# 3 10.8078 -3.2279 52.0313 0.0000 5.9779 0.0000
# 4 0.0000 0.0000 0.0000 6.3788 0.0000 4.3522
# 5 13.4026 6.0418 5.9779 0.0000 20.2914 0.0000
# 6 0.0000 0.0000 0.0000 4.3522 0.0000 23.7570
#
#
#
# Elastic Compliance Matrix: (Units=1/GPa)
#
#
# Indices 1 2 3 4 5 6 
#
# 1 0.015226 0.001008 -0.001977 0.000000 -0.009774 0.000000
# 2 0.001008 0.016620 0.001518 0.000000 -0.006061 0.000000
# 3 -0.001977 0.001518 0.020314 0.000000 -0.005131 0.000000
# 4 0.000000 0.000000 0.000000 0.179164 0.000000 -0.032822
# 5 -0.009774 -0.006061 -0.005131 0.000000 0.059054 0.000000
# 6 0.000000 0.000000 0.000000 -0.032822 0.000000 0.048106
#
#
# Mechanical properties :
#
#
# Convention : Reuss Voigt Hill
#
# Bulk Modulus (GPa) = 18.77711 22.69450 20.73580
# Shear Modulus (GPa) = 14.07904 22.32442 18.20173
#
# Velocity S-wave (km/s) = 2.71594 3.41997 3.08808
# Velocity P-wave (km/s) = 4.43540 5.24262 4.85581
#
# Compressibility (1/GPa) = 0.05325633
#
# Stress axis : x y z
#
# Youngs Moduli (GPa) = 65.67870 60.16992 49.22826
#
# Poissons Ratio (x) = -0.06064 0.09733
# Poissons Ratio (y) = -0.06619 -0.07474
# Poissons Ratio (z) = 0.12985 -0.09135
#
# Static dielectric constant tensor:
#      x y z
#    x 1.755270 0.000000 0.012680 
#    y 0.000000 1.688950 0.000000 
#    z 0.012680 0.000000 1.675020 
# 
# From -- ./inp_files/186723.got.cif
#   From: 2010.05.17/outbox.cif.g08.bks.cpg/sg15_94_cif.got.tgz:186723.got - 2010.06.03 18:47:42.
