data_PCOD9266552
_publ_section_title
;
Structure prediction by ZEFSAII (Michael W. Deem and Ramdas Pophale) SiO2 
 PCOD9266552
Probable space group: C 2/C
;
_chemical_formula_sum "Si O2"
_cell_formula_units_Z 60
_cell_length_a 25.329600
_cell_length_b 7.861467
_cell_length_c 24.836446
_cell_angle_alpha 90.000000
_cell_angle_beta 146.006817
_cell_angle_gamma 90.000000
_cell_volume 2765.071793
_symmetry_space_group_name_H-M "C 2/C"
_symmetry_group_IT_number 15
_symmetry_cell_setting 'monoclinic'
loop_
_space_group_symop_operation_xyz
x,y,z
-x,y,1/2-z
-x,-y,-z
x,-y,1/2+z
1/2+x,1/2+y,z
1/2-x,1/2+y,1/2-z
1/2-x,1/2-y,-z
1/2+x,1/2-y,1/2+z
loop_
_atom_site_type_symbol
_atom_site_label
_atom_site_fract_x
_atom_site_fract_y
_atom_site_fract_z
Si Si1 0.637375 0.361478 0.301806
Si Si2 0.207079 0.905990 0.538226
Si Si3 0.000000 0.886830 0.750000
Si Si4 0.932814 0.595084 0.819152
Si Si5 0.266378 0.550183 0.822517
Si Si6 0.328193 0.603623 0.265507
Si Si7 0.628758 0.095208 0.859543
Si Si8 0.953162 0.340499 0.625825
O O1 0.721478 0.256947 0.400671
O O2 0.573645 0.493638 0.281246
O O3 0.678098 0.461071 0.285196
O O4 0.559223 0.224898 0.219591
O O5 0.197781 0.977990 0.590684
O O6 0.110222 0.823192 0.438049
O O7 0.260005 0.052494 0.548463
O O8 0.075807 0.755987 0.841305
O O9 0.845486 0.500361 0.774911
O O10 0.923365 0.784889 0.835203
O O11 0.899690 0.612481 0.727948
O O12 0.030775 0.493313 0.903722
O O13 0.320996 0.476617 0.818081
O O14 0.254193 0.754562 0.811540
O O15 0.585488 0.934783 0.854322
#
# Coordination Sequence:
#
# PCOD9266552 Si02
#       8
#     8   8   4   8   8   8   8   8
#     4  12  21  37  60  93 112 154 207 238 294 365
#     4  11  23  39  58  90 117 160 199 241 296 357
#     4  12  20  34  66  84 116 162 190 250 294 344
#     4   9  19  36  60  82 115 156 191 240 304 333
#     4   9  19  37  62  84 115 154 199 243 303 342
#     4  10  19  37  67  87 113 161 192 249 304 346
#     4  11  18  41  56  82 123 157 193 238 301 340
#     4  12  22  37  63  84 123 160 195 244 297 353
#
# _framework density 21.699255999999998
#
# number of rings (size 3 to 8) (size 9 to 14) (size 15 to 20)
#    0.800    0.533    5.333    2.000    0.000    0.000 
#    0.000    8.000    0.000    0.000    0.000    0.000 
#    0.000    0.000    0.000    0.000    0.000    0.000 
#
# Total GULP energy -167031.355578 kJ/mol
# GULP energy per Si atom -5567.711853 kJ/mol
# Density = 2.164987 g / cm^3
# Si number density = 21.699256 Si / 1000 Ang^3
#
#
#
# Elastic Constant Matrix: (Units=GPa)
#
#
# Indices 1 2 3 4 5 6 
#
# 1 94.8071 22.5674 0.1064 0.0000 0.1413 0.0000
# 2 22.5674 74.0731 -1.9717 -0.0001 -5.5593 0.0001
# 3 0.1064 -1.9717 33.9695 0.0000 12.4757 0.0000
# 4 0.0000 -0.0001 0.0000 15.8905 0.0000 11.6731
# 5 0.1413 -5.5593 12.4757 0.0000 15.4675 0.0000
# 6 0.0000 0.0001 0.0000 11.6731 0.0000 37.0378
#
#
#
# Elastic Compliance Matrix: (Units=1/GPa)
#
#
# Indices 1 2 3 4 5 6 
#
# 1 0.011405 -0.003592 0.000381 0.000000 -0.001703 0.000000
# 2 -0.003592 0.015057 -0.001583 0.000000 0.006722 0.000000
# 3 0.000381 -0.001583 0.041995 0.000000 -0.034445 0.000000
# 4 0.000000 0.000000 0.000000 0.081890 0.000000 -0.025809
# 5 -0.001703 0.006722 -0.034445 0.000000 0.094866 0.000000
# 6 0.000000 0.000000 0.000000 -0.025809 0.000000 0.035134
#
#
# Mechanical properties :
#
#
# Convention : Reuss Voigt Hill
#
# Bulk Modulus (GPa) = 16.98711 27.13930 22.06321
# Shear Modulus (GPa) = 16.15204 25.82234 20.98719
#
# Velocity S-wave (km/s) = 2.73125 3.45340 3.11333
# Velocity P-wave (km/s) = 4.21803 5.33249 4.80766
#
# Compressibility (1/GPa) = 0.05886816
#
# Stress axis : x y z
#
# Youngs Moduli (GPa) = 87.68129 66.41449 23.81210
#
# Poissons Ratio (x) = 0.23858 -0.00908
# Poissons Ratio (y) = 0.31498 0.03770
# Poissons Ratio (z) = -0.03342 0.10516
#
# Static dielectric constant tensor:
#      x y z
#    x 1.822700 0.000000 0.007170 
#    y 0.000000 1.906560 0.000000 
#    z 0.007170 0.000000 1.804590 
# 
# From -- ./inp_files/303108.got.cif
#   From: 2010.05.17/outbox.cif.g08.bks.cpg/sg15_152_cif.got.tgz:303108.got - 2010.06.03 18:47:42.
