data_PCOD9266580
_publ_section_title
;
Structure prediction by ZEFSAII (Michael W. Deem and Ramdas Pophale) SiO2 
 PCOD9266580
Probable space group: C 2/C
;
_chemical_formula_sum "Si O2"
_cell_formula_units_Z 56
_cell_length_a 8.401672
_cell_length_b 26.153879
_cell_length_c 15.483706
_cell_angle_alpha 90.000000
_cell_angle_beta 128.561120
_cell_angle_gamma 90.000000
_cell_volume 2660.432258
_symmetry_space_group_name_H-M "C 2/C"
_symmetry_group_IT_number 15
_symmetry_cell_setting 'monoclinic'
loop_
_space_group_symop_operation_xyz
x,y,z
-x,y,1/2-z
-x,-y,-z
x,-y,1/2+z
1/2+x,1/2+y,z
1/2-x,1/2+y,1/2-z
1/2-x,1/2-y,-z
1/2+x,1/2-y,1/2+z
loop_
_atom_site_type_symbol
_atom_site_label
_atom_site_fract_x
_atom_site_fract_y
_atom_site_fract_z
Si Si1 0.200785 0.124885 0.354070
Si Si2 0.274228 0.129209 0.188032
Si Si3 0.957039 0.299441 0.148185
Si Si4 0.915040 0.556709 0.968217
Si Si5 0.438181 0.442886 0.008761
Si Si6 0.819492 0.407016 0.250132
Si Si7 0.965868 0.200292 0.054105
O O1 0.280170 0.145640 0.289884
O O2 0.386170 0.093421 0.457222
O O3 0.117813 0.167989 0.390846
O O4 0.000000 0.094618 0.250000
O O5 0.500000 0.110499 0.250000
O O6 0.186486 0.178140 0.107497
O O7 0.119272 0.086613 0.099202
O O8 0.099721 0.349266 0.199479
O O9 0.000000 0.268915 0.250000
O O10 0.980661 0.260308 0.077967
O O11 0.717483 0.311911 0.072025
O O12 0.758151 0.561317 0.994765
O O13 0.809148 0.566487 0.839993
O O14 0.000000 0.500000 0.000000
O O15 0.618676 0.416602 0.125350
O O16 0.500000 0.500000 0.000000
O O17 0.000000 0.428507 0.250000
#
# Coordination Sequence:
#
# PCOD9266580 Si02
#       7
#     8   8   8   8   8   8   8
#     4  10  22  39  66  92 128 167 220 274 331 402
#     4  11  22  41  62  91 130 166 215 278 333 398
#     4  10  19  37  68  98 129 170 226 276 341 411
#     4  12  26  43  65  95 132 176 224 280 344 404
#     4  12  28  44  66  95 134 182 230 279 346 409
#     4  11  24  44  69  97 134 174 225 282 334 411
#     4  10  21  39  68  98 127 173 226 279 340 410
#
# _framework density 21.049212000000001
#
# number of rings (size 3 to 8) (size 9 to 14) (size 15 to 20)
#    0.000    1.143    2.857    4.286    8.000    0.571 
#    0.000    1.429    0.000    6.000    0.000    0.000 
#    0.000    0.000    0.000    0.000    0.000    0.000 
#
# Total GULP energy -155891.809463 kJ/mol
# GULP energy per Si atom -5567.564624 kJ/mol
# Density = 2.100130 g / cm^3
# Si number density = 21.049212 Si / 1000 Ang^3
#
#
#
# Elastic Constant Matrix: (Units=GPa)
#
#
# Indices 1 2 3 4 5 6 
#
# 1 52.8252 5.0384 22.9161 0.0000 -0.2007 0.0000
# 2 5.0384 86.5034 42.3455 0.0000 8.8749 0.0000
# 3 22.9161 42.3455 155.7891 0.0000 19.8415 0.0000
# 4 0.0000 0.0000 0.0000 26.6180 0.0000 -0.1927
# 5 -0.2007 8.8749 19.8415 0.0000 43.0634 0.0000
# 6 0.0000 0.0000 0.0000 -0.1927 0.0000 21.5626
#
#
#
# Elastic Compliance Matrix: (Units=1/GPa)
#
#
# Indices 1 2 3 4 5 6 
#
# 1 0.020324 0.000251 -0.003254 0.000000 0.001542 0.000000
# 2 0.000251 0.013391 -0.003533 0.000000 -0.001131 0.000000
# 3 -0.003254 -0.003533 0.008251 0.000000 -0.003089 0.000000
# 4 0.000000 0.000000 0.000000 0.037571 0.000000 0.000336
# 5 0.001542 -0.001131 -0.003089 0.000000 0.024885 0.000000
# 6 0.000000 0.000000 0.000000 0.000336 0.000000 0.046380
#
#
# Mechanical properties :
#
#
# Convention : Reuss Voigt Hill
#
# Bulk Modulus (GPa) = 34.60890 48.41309 41.51100
# Shear Modulus (GPa) = 28.81756 33.23664 31.02710
#
# Velocity S-wave (km/s) = 3.70409 3.97797 3.84347
# Velocity P-wave (km/s) = 5.89672 6.64446 6.28173
#
# Compressibility (1/GPa) = 0.02889430
#
# Stress axis : x y z
#
# Youngs Moduli (GPa) = 49.20286 74.67702 121.19324
#
# Poissons Ratio (x) = -0.01875 0.39440
# Poissons Ratio (y) = -0.01235 0.42815
# Poissons Ratio (z) = 0.16012 0.26382
#
# Static dielectric constant tensor:
#      x y z
#    x 1.969090 0.000000 0.045350 
#    y 0.000000 1.788190 0.000000 
#    z 0.045350 0.000000 1.823880 
# 
# From -- ./inp_files/139574.got.cif
#   From: 2010.05.17/outbox.cif.g08.bks.cpg/sg15_70_cif.got.tgz:139574.got - 2010.06.03 18:47:42.
