data_PCOD9266495
_publ_section_title
;
Structure prediction by ZEFSAII (Michael W. Deem and Ramdas Pophale) SiO2 
 PCOD9266495
Probable space group: C 2/C
;
_chemical_formula_sum "Si O2"
_cell_formula_units_Z 48
_cell_length_a 13.554820
_cell_length_b 19.483791
_cell_length_c 12.056814
_cell_angle_alpha 90.000000
_cell_angle_beta 47.358514
_cell_angle_gamma 90.000000
_cell_volume 2342.316123
_symmetry_space_group_name_H-M "C 2/C"
_symmetry_group_IT_number 15
_symmetry_cell_setting 'monoclinic'
loop_
_space_group_symop_operation_xyz
x,y,z
-x,y,1/2-z
-x,-y,-z
x,-y,1/2+z
1/2+x,1/2+y,z
1/2-x,1/2+y,1/2-z
1/2-x,1/2-y,-z
1/2+x,1/2-y,1/2+z
loop_
_atom_site_type_symbol
_atom_site_label
_atom_site_fract_x
_atom_site_fract_y
_atom_site_fract_z
Si Si1 0.533549 0.081453 0.600761
Si Si2 0.150964 0.118450 0.675567
Si Si3 0.204498 0.503857 0.824037
Si Si4 0.150088 0.609118 0.183776
Si Si5 0.785906 0.252763 0.732566
Si Si6 0.015157 0.745121 0.611772
O O1 0.500000 0.058456 0.750000
O O2 0.666757 0.044904 0.455922
O O3 0.535604 0.163001 0.600436
O O4 0.417707 0.056859 0.605276
O O5 0.250943 0.113563 0.495486
O O6 0.187107 0.188484 0.709779
O O7 0.000000 0.121086 0.750000
O O8 0.173356 0.052743 0.738425
O O9 0.200787 0.453414 0.722166
O O10 0.156215 0.678139 0.254800
O O11 0.000000 0.600442 0.250000
O O12 0.626865 0.261489 0.837006
O O13 0.859912 0.233480 0.560140
O O14 0.000000 0.770570 0.750000
#
# Coordination Sequence:
#
# PCOD9266495 Si02
#       6
#     8   8   8   8   8   8
#     4  10  19  37  65  96 122 164 219 277 317 377
#     4  12  26  43  64  98 139 177 213 270 342 394
#     4  11  21  40  65  97 128 166 226 273 319 390
#     4  12  24  43  71 100 126 177 228 273 322 389
#     4  12  23  45  65 101 136 175 219 274 327 393
#     4  11  23  41  68  97 133 172 219 267 331 390
#
# _framework density 20.492536000000001
#
# number of rings (size 3 to 8) (size 9 to 14) (size 15 to 20)
#    0.000    0.667    3.333    7.000    0.000    0.667 
#    0.000    0.833    0.000    0.000    0.000    0.000 
#    0.000    0.000    0.000    0.000    0.000    0.000 
#
# Total GULP energy -134157.748297 kJ/mol
# GULP energy per Si atom -5589.906179 kJ/mol
# Density = 2.044589 g / cm^3
# Si number density = 20.492536 Si / 1000 Ang^3
#
#
#
# Elastic Constant Matrix: (Units=GPa)
#
#
# Indices 1 2 3 4 5 6 
#
# 1 66.8009 24.0672 -3.2994 0.0000 2.2842 -0.0002
# 2 24.0672 69.5423 7.3088 0.0000 14.8959 -0.0001
# 3 -3.2994 7.3088 84.5894 0.0000 9.3265 -0.0004
# 4 0.0000 0.0000 0.0000 2.5061 0.0000 -29.8301
# 5 2.2842 14.8959 9.3265 0.0000 32.1308 0.0002
# 6 -0.0002 -0.0001 -0.0004 -29.8301 0.0002 -32.5500
#
#
#
# Elastic Compliance Matrix: (Units=1/GPa)
#
#
# Indices 1 2 3 4 5 6 
#
# 1 0.017279 -0.006398 0.001069 0.000000 0.001427 0.000000
# 2 -0.006398 0.018362 -0.000979 0.000000 -0.007774 0.000000
# 3 0.001069 -0.000979 0.012300 0.000000 -0.003192 0.000000
# 4 0.000000 0.000000 0.000000 0.033508 0.000000 -0.030708
# 5 0.001427 -0.007774 -0.003192 0.000000 0.035552 0.000000
# 6 0.000000 0.000000 0.000000 -0.030708 0.000000 -0.002580
#
#
# Mechanical properties :
#
#
# Convention : Reuss Voigt Hill
#
# Bulk Modulus (GPa) = 28.30795 30.78732 29.54763
# Shear Modulus (GPa) = 36.02002 13.27442 24.64722
#
# Velocity S-wave (km/s) = 4.19706 2.54789 3.47182
# Velocity P-wave (km/s) = 6.10990 4.86949 5.52462
#
# Compressibility (1/GPa) = 0.03532576
#
# Stress axis : x y z
#
# Youngs Moduli (GPa) = 57.87377 54.46036 81.30011
#
# Poissons Ratio (x) = 0.34844 -0.08694
# Poissons Ratio (y) = 0.37028 0.07959
# Poissons Ratio (z) = -0.06189 0.05332
#
# Static dielectric constant tensor:
#      x y z
#    x 1.723180 0.000000 0.027110 
#    y 0.000000 1.722430 0.000000 
#    z 0.027110 0.000000 1.745600 
# 
# From -- ./inp_files/89409.got.cif
#   From: 2010.05.17/outbox.cif.g08.bks.cpg/sg15_45_cif.got.tgz:89409.got - 2010.06.03 18:47:42.
