data_PCOD9266322
_publ_section_title
;
Structure prediction by ZEFSAII (Michael W. Deem and Ramdas Pophale) SiO2 
 PCOD9266322
Probable space group: C 2/C
;
_chemical_formula_sum "Si O2"
_cell_formula_units_Z 64
_cell_length_a 21.130285
_cell_length_b 10.963670
_cell_length_c 10.271554
_cell_angle_alpha 90.000000
_cell_angle_beta 99.275220
_cell_angle_gamma 90.000000
_cell_volume 2348.452828
_symmetry_space_group_name_H-M "C 2/C"
_symmetry_group_IT_number 15
_symmetry_cell_setting 'monoclinic'
loop_
_space_group_symop_operation_xyz
x,y,z
-x,y,1/2-z
-x,-y,-z
x,-y,1/2+z
1/2+x,1/2+y,z
1/2-x,1/2+y,1/2-z
1/2-x,1/2-y,-z
1/2+x,1/2-y,1/2+z
loop_
_atom_site_type_symbol
_atom_site_label
_atom_site_fract_x
_atom_site_fract_y
_atom_site_fract_z
Si Si1 0.053419 0.431670 0.982713
Si Si2 0.050037 0.665449 0.180114
Si Si3 0.170222 0.549230 0.124793
Si Si4 0.682680 0.654810 0.897190
Si Si5 0.405302 0.692788 0.396876
Si Si6 0.595633 0.413816 0.124131
Si Si7 0.209398 0.296070 0.253473
Si Si8 0.712687 0.402954 0.987025
O O1 0.042770 0.362037 0.833299
O O2 0.968952 0.448084 0.926405
O O3 0.124986 0.497381 0.990687
O O4 0.051976 0.315053 0.084454
O O5 0.127378 0.648380 0.183358
O O6 0.043940 0.807246 0.133153
O O7 0.177845 0.426484 0.206689
O O8 0.241352 0.601223 0.125516
O O9 0.642182 0.590343 0.766771
O O10 0.739678 0.724503 0.845151
O O11 0.633606 0.712551 0.981138
O O12 0.713360 0.549177 0.996950
O O13 0.429638 0.553237 0.399800
O O14 0.351343 0.706744 0.267013
O O15 0.639904 0.379110 0.013109
O O16 0.243066 0.332392 0.397318
#
# Coordination Sequence:
#
# PCOD9266322 Si02
#       8
#     8   8   8   8   8   8   8   8
#     4   9  20  39  63  89 118 153 210 264 321 374
#     4  11  23  39  61  86 118 171 219 263 303 380
#     4   9  20  38  62  93 125 157 202 265 335 375
#     4   9  18  37  56  91 127 166 206 247 307 393
#     4  10  19  37  63  85 125 166 206 265 310 377
#     4  10  22  39  57  92 126 168 218 246 313 385
#     4   9  18  35  59  95 124 157 202 250 327 382
#     4   9  19  38  61  91 130 159 198 263 324 386
#
# _framework density 27.251985999999999
#
# number of rings (size 3 to 8) (size 9 to 14) (size 15 to 20)
#    0.000    2.500    0.000    1.125    1.750    2.000 
#   24.750    0.000    2.750    0.000    0.000    0.000 
#    0.000    0.000    0.000    0.000    0.000    0.000 
#
# Total GULP energy -178330.483875 kJ/mol
# GULP energy per Si atom -5572.827621 kJ/mol
# Density = 2.718996 g / cm^3
# Si number density = 27.251986 Si / 1000 Ang^3
#
#
#
# Elastic Constant Matrix: (Units=GPa)
#
#
# Indices 1 2 3 4 5 6 
#
# 1 82.4042 69.2619 20.5158 0.0000 0.2770 0.0000
# 2 69.2619 199.9818 61.2436 0.0000 5.3867 0.0000
# 3 20.5158 61.2436 77.0150 0.0000 -0.0333 0.0000
# 4 0.0000 0.0000 0.0000 14.0186 0.0000 3.1473
# 5 0.2770 5.3867 -0.0333 0.0000 46.0938 0.0000
# 6 0.0000 0.0000 0.0000 3.1473 0.0000 58.0811
#
#
#
# Elastic Compliance Matrix: (Units=1/GPa)
#
#
# Indices 1 2 3 4 5 6 
#
# 1 0.017138 -0.006020 0.000222 0.000000 0.000601 0.000000
# 2 -0.006020 0.008753 -0.005357 0.000000 -0.000991 0.000000
# 3 0.000222 -0.005357 0.017186 0.000000 0.000637 0.000000
# 4 0.000000 0.000000 0.000000 0.072212 0.000000 -0.003913
# 5 0.000601 -0.000991 0.000637 0.000000 0.021808 0.000000
# 6 0.000000 0.000000 0.000000 -0.003913 0.000000 0.017429
#
#
# Mechanical properties :
#
#
# Convention : Reuss Voigt Hill
#
# Bulk Modulus (GPa) = 48.15494 73.49375 60.82434
# Shear Modulus (GPa) = 27.20995 37.53069 32.37032
#
# Velocity S-wave (km/s) = 3.16327 3.71505 3.45021
# Velocity P-wave (km/s) = 5.57228 6.74010 6.18382
#
# Compressibility (1/GPa) = 0.02076630
#
# Stress axis : x y z
#
# Youngs Moduli (GPa) = 58.35132 114.25262 58.18805
#
# Poissons Ratio (x) = 0.68775 -0.01291
# Poissons Ratio (y) = 0.35125 0.31172
# Poissons Ratio (z) = -0.01295 0.61206
#
# Static dielectric constant tensor:
#      x y z
#    x 2.487310 0.000000 0.129890 
#    y 0.000000 2.160200 0.000000 
#    z 0.129890 0.000000 2.343710 
# 
# From -- ./inp_files/117609.got.cif
#   From: 2010.05.17/outbox.cif.g08.bks.cpg/sg15_59_cif.got.tgz:117609.got - 2010.06.03 18:47:42.
