data_PCOD9266871
_publ_section_title
;
Structure prediction by ZEFSAII (Michael W. Deem and Ramdas Pophale) SiO2 
 PCOD9266871
Probable space group: C 2/C
;
_chemical_formula_sum "Si O2"
_cell_formula_units_Z 60
_cell_length_a 9.039541
_cell_length_b 26.462054
_cell_length_c 11.122601
_cell_angle_alpha 90.000000
_cell_angle_beta 81.659419
_cell_angle_gamma 90.000000
_cell_volume 2632.439632
_symmetry_space_group_name_H-M "C 2/C"
_symmetry_group_IT_number 15
_symmetry_cell_setting 'monoclinic'
loop_
_space_group_symop_operation_xyz
x,y,z
-x,y,1/2-z
-x,-y,-z
x,-y,1/2+z
1/2+x,1/2+y,z
1/2-x,1/2+y,1/2-z
1/2-x,1/2-y,-z
1/2+x,1/2-y,1/2+z
loop_
_atom_site_type_symbol
_atom_site_label
_atom_site_fract_x
_atom_site_fract_y
_atom_site_fract_z
Si Si1 0.857891 0.796568 0.517529
Si Si2 0.163725 0.442476 0.169501
Si Si3 0.108964 0.263046 0.125806
Si Si4 0.233136 0.884740 0.117444
Si Si5 0.430468 0.136772 0.997197
Si Si6 0.363022 0.533222 0.064362
Si Si7 0.000000 0.104322 0.250000
Si Si8 0.736925 0.173931 0.284650
O O1 0.750000 0.750000 0.500000
O O2 0.870590 0.837582 0.409493
O O3 0.774921 0.824071 0.639818
O O4 0.010699 0.771563 0.547235
O O5 0.259371 0.406724 0.248611
O O6 0.141701 0.414019 0.045473
O O7 0.241583 0.495528 0.135409
O O8 0.000000 0.447930 0.250000
O O9 0.145888 0.315842 0.060984
O O10 0.241949 0.230570 0.167669
O O11 0.000000 0.274177 0.250000
O O12 0.398731 0.864648 0.064837
O O13 0.198889 0.932306 0.035844
O O14 0.406916 0.148129 0.140247
O O15 0.424119 0.569900 0.159703
O O16 0.500000 0.500000 0.000000
O O17 0.874133 0.140597 0.320106
#
# Coordination Sequence:
#
# PCOD9266871 Si02
#       8
#     8   8   8   8   8   8   4   8
#     4  11  21  39  65  94 132 174 213 272 333 399
#     4  10  25  44  67  98 130 176 223 275 343 397
#     4  10  19  38  62  88 130 177 214 260 325 402
#     4  11  23  43  67  97 133 172 214 275 342 391
#     4  11  23  39  65  96 132 170 222 268 330 406
#     4  12  25  44  69  94 131 171 228 279 335 397
#     4  12  22  42  64  90 122 172 212 272 326 396
#     4  11  22  39  65  94 128 173 224 263 333 401
#
# _framework density 22.792546000000002
#
# number of rings (size 3 to 8) (size 9 to 14) (size 15 to 20)
#    0.000    1.067    4.667    3.200    1.867    3.733 
#    0.000    0.000    0.000    0.000    0.000    0.000 
#    0.000    0.000    0.000    0.000    0.000    0.000 
#
# Total GULP energy -167764.059155 kJ/mol
# GULP energy per Si atom -5592.135305 kJ/mol
# Density = 2.274067 g / cm^3
# Si number density = 22.792546 Si / 1000 Ang^3
#
#
#
# Elastic Constant Matrix: (Units=GPa)
#
#
# Indices 1 2 3 4 5 6 
#
# 1 18.9201 15.7763 15.3515 0.0000 0.9941 0.0000
# 2 15.7763 114.8375 24.7803 0.0000 6.4911 0.0000
# 3 15.3515 24.7803 56.9575 0.0000 4.9988 0.0000
# 4 0.0000 0.0000 0.0000 37.7345 0.0000 17.2270
# 5 0.9941 6.4911 4.9988 0.0000 37.9227 0.0000
# 6 0.0000 0.0000 0.0000 17.2270 0.0000 38.0714
#
#
#
# Elastic Compliance Matrix: (Units=1/GPa)
#
#
# Indices 1 2 3 4 5 6 
#
# 1 0.071568 -0.006315 -0.016665 0.000000 0.001402 0.000000
# 2 -0.006315 0.010214 -0.002633 0.000000 -0.001236 0.000000
# 3 -0.016665 -0.002633 0.023387 0.000000 -0.002195 0.000000
# 4 0.000000 0.000000 0.000000 0.033401 0.000000 -0.015114
# 5 0.001402 -0.001236 -0.002195 0.000000 0.026834 0.000000
# 6 0.000000 0.000000 0.000000 -0.015114 0.000000 0.033105
#
#
# Mechanical properties :
#
#
# Convention : Reuss Voigt Hill
#
# Bulk Modulus (GPa) = 18.53843 33.61457 26.07650
# Shear Modulus (GPa) = 18.67666 31.73285 25.20475
#
# Velocity S-wave (km/s) = 2.86566 3.73533 3.32901
# Velocity P-wave (km/s) = 4.37041 5.77786 5.12270
#
# Compressibility (1/GPa) = 0.05394201
#
# Stress axis : x y z
#
# Youngs Moduli (GPa) = 13.97280 97.90924 42.75930
#
# Poissons Ratio (x) = 0.61831 0.71257
# Poissons Ratio (y) = 0.08824 0.11259
# Poissons Ratio (z) = 0.23285 0.25780
#
# Static dielectric constant tensor:
#      x y z
#    x 1.877240 0.000000 -0.014830 
#    y 0.000000 1.826740 0.000000 
#    z -0.014830 0.000000 1.885180 
# 
# From -- ./inp_files/81360.got.cif
#   From: 2010.05.17/outbox.cif.g08.bks.cpg/sg15_41_cif.got.tgz:81360.got - 2010.06.03 18:47:42.
