data_PCOD9266781
_publ_section_title
;
Structure prediction by ZEFSAII (Michael W. Deem and Ramdas Pophale) SiO2 
 PCOD9266781
Probable space group: C 2/C
;
_chemical_formula_sum "Si O2"
_cell_formula_units_Z 52
_cell_length_a 16.223373
_cell_length_b 10.827453
_cell_length_c 14.849722
_cell_angle_alpha 90.000000
_cell_angle_beta 69.384890
_cell_angle_gamma 90.000000
_cell_volume 2441.440749
_symmetry_space_group_name_H-M "C 2/C"
_symmetry_group_IT_number 15
_symmetry_cell_setting 'monoclinic'
loop_
_space_group_symop_operation_xyz
x,y,z
-x,y,1/2-z
-x,-y,-z
x,-y,1/2+z
1/2+x,1/2+y,z
1/2-x,1/2+y,1/2-z
1/2-x,1/2-y,-z
1/2+x,1/2-y,1/2+z
loop_
_atom_site_type_symbol
_atom_site_label
_atom_site_fract_x
_atom_site_fract_y
_atom_site_fract_z
Si Si1 0.000000 0.479699 0.750000
Si Si2 0.888218 0.939624 0.391393
Si Si3 0.211555 0.109648 0.404035
Si Si4 0.591896 0.568160 0.831994
Si Si5 0.759022 0.149124 0.394914
Si Si6 0.843696 0.677445 0.221738
Si Si7 0.344611 0.886958 0.393404
O O1 0.070634 0.391799 0.772983
O O2 0.057003 0.568355 0.663058
O O3 0.837028 0.854788 0.484208
O O4 0.894374 0.918227 0.281693
O O5 0.988162 0.948397 0.385930
O O6 0.833280 0.066081 0.412794
O O7 0.271238 0.207077 0.326899
O O8 0.142249 0.040723 0.364526
O O9 0.284421 0.005668 0.398339
O O10 0.626357 0.703258 0.846441
O O11 0.711645 0.092399 0.326087
O O12 0.681543 0.161294 0.497958
O O13 0.809504 0.273833 0.346668
#
# Coordination Sequence:
#
# PCOD9266781 Si02
#       7
#     4   8   8   8   8   8   8
#     4  10  22  38  54  86 118 154 188 246 288 346
#     4  10  22  36  61  88 119 149 198 238 287 343
#     4  10  20  39  60  86 117 158 190 238 290 352
#     4  11  21  38  59  89 118 150 193 245 287 341
#     4  10  19  38  61  84 110 159 192 237 288 344
#     4  11  22  39  62  81 119 156 191 235 299 340
#     4   9  20  37  60  83 117 148 199 239 287 340
#
# _framework density 21.298898000000001
#
# number of rings (size 3 to 8) (size 9 to 14) (size 15 to 20)
#    0.000    1.846    3.077    1.385    0.000    2.462 
#    0.000    1.538    0.000    0.000    0.000    0.000 
#    0.000    0.000    0.000    0.000    0.000    0.000 
#
# Total GULP energy -144763.110445 kJ/mol
# GULP energy per Si atom -5567.811940 kJ/mol
# Density = 2.125042 g / cm^3
# Si number density = 21.298898 Si / 1000 Ang^3
#
#
#
# Elastic Constant Matrix: (Units=GPa)
#
#
# Indices 1 2 3 4 5 6 
#
# 1 115.6324 17.0656 59.8559 0.0000 -22.2404 0.0000
# 2 17.0656 24.0327 -2.2060 0.0000 -8.7707 0.0000
# 3 59.8559 -2.2060 92.6492 0.0000 -16.3107 0.0000
# 4 0.0000 0.0000 0.0000 22.0590 0.0000 -2.0909
# 5 -22.2404 -8.7707 -16.3107 0.0000 36.7381 0.0000
# 6 0.0000 0.0000 0.0000 -2.0909 0.0000 23.1076
#
#
#
# Elastic Compliance Matrix: (Units=1/GPa)
#
#
# Indices 1 2 3 4 5 6 
#
# 1 0.016130 -0.011496 -0.010261 0.000000 0.002465 0.000000
# 2 -0.011496 0.054698 0.010634 0.000000 0.010820 0.000000
# 3 -0.010261 0.010634 0.018473 0.000000 0.004529 0.000000
# 4 0.000000 0.000000 0.000000 0.045725 0.000000 0.004137
# 5 0.002465 0.010820 0.004529 0.000000 0.033306 0.000000
# 6 0.000000 0.000000 0.000000 0.004137 0.000000 0.043650
#
#
# Mechanical properties :
#
#
# Convention : Reuss Voigt Hill
#
# Bulk Modulus (GPa) = 14.91285 42.41615 28.66450
# Shear Modulus (GPa) = 19.48713 26.88753 23.18733
#
# Velocity S-wave (km/s) = 3.02807 3.55687 3.30307
# Velocity P-wave (km/s) = 4.38663 6.06847 5.29476
#
# Compressibility (1/GPa) = 0.06705627
#
# Stress axis : x y z
#
# Youngs Moduli (GPa) = 61.99553 18.28206 54.13373
#
# Poissons Ratio (x) = 0.21018 0.55545
# Poissons Ratio (y) = 0.71272 -0.57568
# Poissons Ratio (z) = 0.63612 -0.19442
#
# Static dielectric constant tensor:
#      x y z
#    x 1.751410 0.000000 0.030000 
#    y 0.000000 1.815350 0.000000 
#    z 0.030000 0.000000 1.904900 
# 
# From -- ./inp_files/152574.got.cif
#   From: 2010.05.17/outbox.cif.g08.bks.cpg/sg15_77_cif.got.tgz:152574.got - 2010.06.03 18:47:42.
