data_PCOD9266263
_publ_section_title
;
Structure prediction by ZEFSAII (Michael W. Deem and Ramdas Pophale) SiO2 
 PCOD9266263
Probable space group: C 2/C
;
_chemical_formula_sum "Si O2"
_cell_formula_units_Z 60
_cell_length_a 8.639764
_cell_length_b 22.691080
_cell_length_c 16.256728
_cell_angle_alpha 90.000000
_cell_angle_beta 113.916441
_cell_angle_gamma 90.000000
_cell_volume 2913.411218
_symmetry_space_group_name_H-M "C 2/C"
_symmetry_group_IT_number 15
_symmetry_cell_setting 'monoclinic'
loop_
_space_group_symop_operation_xyz
x,y,z
-x,y,1/2-z
-x,-y,-z
x,-y,1/2+z
1/2+x,1/2+y,z
1/2-x,1/2+y,1/2-z
1/2-x,1/2-y,-z
1/2+x,1/2-y,1/2+z
loop_
_atom_site_type_symbol
_atom_site_label
_atom_site_fract_x
_atom_site_fract_y
_atom_site_fract_z
Si Si1 0.480863 0.802634 0.067828
Si Si2 0.542721 0.068320 0.604463
Si Si3 0.773705 0.793037 0.629019
Si Si4 0.347273 0.415748 0.283386
Si Si5 0.063241 0.029139 0.115904
Si Si6 0.688051 0.284333 0.262201
Si Si7 0.268043 0.025290 0.007815
Si Si8 0.500000 0.606256 0.250000
O O1 0.446047 0.869701 0.089179
O O2 0.384885 0.752851 0.099688
O O3 0.679398 0.793730 0.134171
O O4 0.402582 0.799500 0.959203
O O5 0.672733 0.063754 0.706310
O O6 0.424030 0.012164 0.575073
O O7 0.658277 0.067816 0.546335
O O8 0.751084 0.764555 0.713361
O O9 0.876103 0.852966 0.668597
O O10 0.500000 0.422911 0.250000
O O11 0.384285 0.460366 0.364256
O O12 0.327435 0.346150 0.291008
O O13 0.096623 0.064366 0.206253
O O14 0.164054 0.054303 0.059961
O O15 0.862461 0.022075 0.059549
O O16 0.500000 0.269831 0.250000
#
# Coordination Sequence:
#
# PCOD9266263 Si02
#       8
#     8   8   8   8   8   8   8   4
#     4  10  22  41  65  91 121 171 214 260 321 376
#     4  10  20  39  62  90 129 154 206 276 304 373
#     4  11  23  43  64  91 125 172 219 256 320 389
#     4  10  19  37  62  87 120 164 203 254 318 368
#     4  11  22  39  62  91 127 175 204 252 326 393
#     4  10  22  41  65  94 124 158 214 272 315 373
#     4  10  22  38  60  96 125 161 215 257 327 379
#     4  12  22  42  66  88 138 176 212 266 316 392
#
# _framework density 20.594415999999999
#
# number of rings (size 3 to 8) (size 9 to 14) (size 15 to 20)
#    0.000    1.600    3.333    0.800    1.867    2.133 
#    4.800    0.000    0.000    0.000    0.000    0.000 
#    0.000    0.000    0.000    0.000    0.000    0.000 
#
# Total GULP energy -167388.545378 kJ/mol
# GULP energy per Si atom -5579.618179 kJ/mol
# Density = 2.054754 g / cm^3
# Si number density = 20.594416 Si / 1000 Ang^3
#
#
#
# Elastic Constant Matrix: (Units=GPa)
#
#
# Indices 1 2 3 4 5 6 
#
# 1 47.2522 10.9780 10.9188 0.0000 -2.6383 0.0000
# 2 10.9780 54.5531 14.1184 0.0000 -1.4159 0.0000
# 3 10.9188 14.1184 78.3992 0.0000 12.5117 0.0000
# 4 0.0000 0.0000 0.0000 23.3596 0.0000 1.8206
# 5 -2.6383 -1.4159 12.5117 0.0000 31.6970 0.0000
# 6 0.0000 0.0000 0.0000 1.8206 0.0000 11.8775
#
#
#
# Elastic Compliance Matrix: (Units=1/GPa)
#
#
# Indices 1 2 3 4 5 6 
#
# 1 0.022887 -0.003760 -0.002975 0.000000 0.002911 0.000000
# 2 -0.003760 0.020014 -0.003386 0.000000 0.001918 0.000000
# 3 -0.002975 -0.003386 0.014774 0.000000 -0.006230 0.000000
# 4 0.000000 0.000000 0.000000 0.043327 0.000000 -0.006641
# 5 0.002911 0.001918 -0.006230 0.000000 0.034336 0.000000
# 6 0.000000 0.000000 0.000000 -0.006641 0.000000 0.085211
#
#
# Mechanical properties :
#
#
# Convention : Reuss Voigt Hill
#
# Bulk Modulus (GPa) = 26.71591 28.02609 27.37100
# Shear Modulus (GPa) = 19.74196 22.99944 21.37070
#
# Velocity S-wave (km/s) = 3.09950 3.34545 3.22482
# Velocity P-wave (km/s) = 5.08033 5.34424 5.21395
#
# Compressibility (1/GPa) = 0.03743088
#
# Stress axis : x y z
#
# Youngs Moduli (GPa) = 43.69365 49.96595 67.68778
#
# Poissons Ratio (x) = 0.18788 0.20137
# Poissons Ratio (y) = 0.16429 0.22922
# Poissons Ratio (z) = 0.12999 0.16921
#
# Static dielectric constant tensor:
#      x y z
#    x 1.766390 0.000000 0.013880 
#    y 0.000000 1.718520 0.000000 
#    z 0.013880 0.000000 1.758850 
# 
# From -- ./inp_files/192573.got.cif
#   From: 2010.05.17/outbox.cif.g08.bks.cpg/sg15_97_cif.got.tgz:192573.got - 2010.06.03 18:47:42.
