data_PCOD9266031
_publ_section_title
;
Structure prediction by ZEFSAII (Michael W. Deem and Ramdas Pophale) SiO2 
 PCOD9266031
Probable space group: C 2/C
;
_chemical_formula_sum "Si O2"
_cell_formula_units_Z 60
_cell_length_a 17.257874
_cell_length_b 8.647577
_cell_length_c 25.405947
_cell_angle_alpha 90.000000
_cell_angle_beta 122.969543
_cell_angle_gamma 90.000000
_cell_volume 3180.961090
_symmetry_space_group_name_H-M "C 2/C"
_symmetry_group_IT_number 15
_symmetry_cell_setting 'monoclinic'
loop_
_space_group_symop_operation_xyz
x,y,z
-x,y,1/2-z
-x,-y,-z
x,-y,1/2+z
1/2+x,1/2+y,z
1/2-x,1/2+y,1/2-z
1/2-x,1/2-y,-z
1/2+x,1/2-y,1/2+z
loop_
_atom_site_type_symbol
_atom_site_label
_atom_site_fract_x
_atom_site_fract_y
_atom_site_fract_z
Si Si1 0.176308 0.361667 0.877632
Si Si2 0.449742 0.447661 0.286620
Si Si3 0.288934 0.365165 0.469812
Si Si4 0.123848 0.060075 0.912330
Si Si5 0.500000 0.966900 0.750000
Si Si6 0.753319 0.665208 0.815119
Si Si7 0.754453 0.863435 0.625467
Si Si8 0.123731 0.284194 0.240858
O O1 0.212660 0.518987 0.917012
O O2 0.173546 0.223471 0.919393
O O3 0.075180 0.381943 0.814268
O O4 0.240351 0.300936 0.853127
O O5 0.500000 0.414437 0.250000
O O6 0.517711 0.408158 0.359067
O O7 0.348979 0.371183 0.246305
O O8 0.437425 0.631290 0.285251
O O9 0.250000 0.250000 0.500000
O O10 0.359747 0.478216 0.525884
O O11 0.314408 0.243807 0.433346
O O12 0.168993 0.943170 0.885141
O O13 0.438390 0.072111 0.765870
O O14 0.784081 0.509603 0.856962
O O15 0.821207 0.698049 0.792701
O O16 0.805616 0.753483 0.685856
#
# Coordination Sequence:
#
# PCOD9266031 Si02
#       8
#     8   8   8   8   4   8   8   8
#     4  11  21  36  58  94 124 146 202 255 297 354
#     4  11  18  38  62  85 122 156 195 246 303 358
#     4  10  21  34  59  88 118 161 206 242 295 358
#     4  10  19  37  59  88 114 164 197 250 290 356
#     4  12  22  32  60  94 120 144 196 252 292 356
#     4  10  23  36  60  89 123 158 187 254 315 350
#     4   9  18  37  55  81 119 155 200 239 293 357
#     4  11  21  35  59  91 119 156 194 243 314 359
#
# _framework density 18.862224000000001
#
# number of rings (size 3 to 8) (size 9 to 14) (size 15 to 20)
#    0.000    1.600    6.000    1.200    5.600    0.000 
#    0.000    0.000    0.000    4.000    0.000    0.000 
#    0.000    0.000    0.000    0.000    0.000    0.000 
#
# Total GULP energy -167245.001258 kJ/mol
# GULP energy per Si atom -5574.833375 kJ/mol
# Density = 1.881929 g / cm^3
# Si number density = 18.862224 Si / 1000 Ang^3
#
#
#
# Elastic Constant Matrix: (Units=GPa)
#
#
# Indices 1 2 3 4 5 6 
#
# 1 54.2193 32.9113 21.5344 0.0000 -9.7466 0.0000
# 2 32.9113 101.2300 56.5841 0.0000 -6.7756 0.0000
# 3 21.5344 56.5841 91.8199 0.0000 -2.4821 0.0000
# 4 0.0000 0.0000 0.0000 -11.6145 0.0000 47.0571
# 5 -9.7466 -6.7756 -2.4821 0.0000 14.6954 0.0000
# 6 0.0000 0.0000 0.0000 47.0571 0.0000 -25.7691
#
#
#
# Elastic Compliance Matrix: (Units=1/GPa)
#
#
# Indices 1 2 3 4 5 6 
#
# 1 0.025459 -0.006457 -0.001623 0.000000 0.013634 0.000000
# 2 -0.006457 0.017147 -0.008995 0.000000 0.002104 0.000000
# 3 -0.001623 -0.008995 0.016750 0.000000 -0.002395 0.000000
# 4 0.000000 0.000000 0.000000 0.013456 0.000000 0.024572
# 5 0.013634 0.002104 -0.002395 0.000000 0.077656 0.000000
# 6 0.000000 0.000000 0.000000 0.024572 0.000000 0.006065
#
#
# Mechanical properties :
#
#
# Convention : Reuss Voigt Hill
#
# Bulk Modulus (GPa) = 39.67567 52.14765 45.91166
# Shear Modulus (GPa) = 25.11487 4.54501 14.82994
#
# Velocity S-wave (km/s) = 3.65292 1.55397 2.80701
# Velocity P-wave (km/s) = 6.23473 5.56115 5.90755
#
# Compressibility (1/GPa) = 0.02520436
#
# Stress axis : x y z
#
# Youngs Moduli (GPa) = 39.27950 58.31998 59.70067
#
# Poissons Ratio (x) = 0.37658 0.09689
# Poissons Ratio (y) = 0.25364 0.53703
# Poissons Ratio (z) = 0.06375 0.52461
#
# Static dielectric constant tensor:
#      x y z
#    x 1.619390 0.000000 0.001640 
#    y 0.000000 1.688800 0.000000 
#    z 0.001640 0.000000 1.691120 
# 
# From -- ./inp_files/276587.got.cif
#   From: 2010.05.17/outbox.cif.g08.bks.cpg/sg15_139_cif.got.tgz:276587.got - 2010.06.03 18:47:42.
