data_PCOD9266577
_publ_section_title
;
Structure prediction by ZEFSAII (Michael W. Deem and Ramdas Pophale) SiO2 
 PCOD9266577
Probable space group: C 2/C
;
_chemical_formula_sum "Si O2"
_cell_formula_units_Z 32
_cell_length_a 10.733244
_cell_length_b 18.457940
_cell_length_c 13.749999
_cell_angle_alpha 90.000000
_cell_angle_beta 148.057647
_cell_angle_gamma 90.000000
_cell_volume 1441.207608
_symmetry_space_group_name_H-M "C 2/C"
_symmetry_group_IT_number 15
_symmetry_cell_setting 'monoclinic'
loop_
_space_group_symop_operation_xyz
x,y,z
-x,y,1/2-z
-x,-y,-z
x,-y,1/2+z
1/2+x,1/2+y,z
1/2-x,1/2+y,1/2-z
1/2-x,1/2-y,-z
1/2+x,1/2-y,1/2+z
loop_
_atom_site_type_symbol
_atom_site_label
_atom_site_fract_x
_atom_site_fract_y
_atom_site_fract_z
Si Si1 0.191893 0.835255 0.960160
Si Si2 0.232401 0.172980 0.193885
Si Si3 0.973038 0.583297 0.955113
Si Si4 0.540419 0.324862 0.163747
O O1 0.401532 0.886364 0.060811
O O2 0.000000 0.846187 0.750000
O O3 0.035289 0.848074 0.951634
O O4 0.250000 0.750000 0.000000
O O5 0.409901 0.125983 0.375791
O O6 0.304753 0.255387 0.268022
O O7 0.200383 0.168331 0.056592
O O8 0.000000 0.500000 0.000000
O O9 0.701887 0.604611 0.766189
O O10 0.500000 0.311183 0.250000
#
# Coordination Sequence:
#
# PCOD9266577 Si02
#       4
#     8   8   8   8
#     4  10  19  37  68  96 124 165 233 280 330 409
#     4  11  22  41  69  98 126 180 237 282 333 419
#     4  11  26  43  64 102 143 172 222 297 357 397
#     4  12  24  40  70  98 132 181 238 281 343 420
#
# _framework density 22.203602
#
# number of rings (size 3 to 8) (size 9 to 14) (size 15 to 20)
#    0.000    1.000    5.000    2.250    0.000    4.000 
#    0.000    2.500    0.000    0.000    0.000    0.000 
#    0.000    0.000    0.000    0.000    0.000    0.000 
#
# Total GULP energy -89284.374010 kJ/mol
# GULP energy per Si atom -5580.273376 kJ/mol
# Density = 2.215307 g / cm^3
# Si number density = 22.203602 Si / 1000 Ang^3
#
#
#
# Elastic Constant Matrix: (Units=GPa)
#
#
# Indices 1 2 3 4 5 6 
#
# 1 58.7039 1.7225 -8.4362 0.0020 -8.6088 0.0008
# 2 1.7225 120.1763 -6.7129 0.0020 3.8606 0.0010
# 3 -8.4362 -6.7129 84.5601 0.0070 -20.9122 0.0036
# 4 0.0020 0.0020 0.0070 34.1155 0.0024 -2.5139
# 5 -8.6088 3.8606 -20.9122 0.0024 41.0145 0.0008
# 6 0.0008 0.0010 0.0036 -2.5139 0.0008 17.3623
#
#
#
# Elastic Compliance Matrix: (Units=1/GPa)
#
#
# Indices 1 2 3 4 5 6 
#
# 1 0.018299 -0.000262 0.003159 -0.000002 0.005476 -0.000002
# 2 -0.000262 0.008371 0.000492 -0.000001 -0.000592 -0.000001
# 3 0.003159 0.000492 0.014112 -0.000004 0.007812 -0.000004
# 4 -0.000002 -0.000001 -0.000004 0.029628 -0.000004 0.004290
# 5 0.005476 -0.000592 0.007812 -0.000004 0.029570 -0.000004
# 6 -0.000002 -0.000001 -0.000004 0.004290 -0.000004 0.058217
#
#
# Mechanical properties :
#
#
# Convention : Reuss Voigt Hill
#
# Bulk Modulus (GPa) = 21.02518 26.28744 23.65631
# Shear Modulus (GPa) = 29.89118 36.95625 33.42371
#
# Velocity S-wave (km/s) = 3.67308 4.08416 3.88407
# Velocity P-wave (km/s) = 5.24200 5.83999 5.54906
#
# Compressibility (1/GPa) = 0.04756202
#
# Stress axis : x y z
#
# Youngs Moduli (GPa) = 54.64654 119.45484 70.86086
#
# Poissons Ratio (x) = 0.03127 -0.22387
# Poissons Ratio (y) = 0.01430 -0.03487
# Poissons Ratio (z) = -0.17264 -0.05878
#
# Static dielectric constant tensor:
#      x y z
#    x 2.079200 0.000000 0.000260 
#    y 0.000000 1.792810 0.000000 
#    z 0.000260 0.000000 1.860340 
# 
# From -- ./inp_files/27967.got.cif
#   From: 2010.05.17/outbox.cif.g08.bks.cpg/sg15_14_cif.got.tgz:27967.got - 2010.06.03 18:47:42.
