data_PCOD9266318
_publ_section_title
;
Structure prediction by ZEFSAII (Michael W. Deem and Ramdas Pophale) SiO2 
 PCOD9266318
Probable space group: C 2/C
;
_chemical_formula_sum "Si O2"
_cell_formula_units_Z 40
_cell_length_a 15.204246
_cell_length_b 23.021695
_cell_length_c 9.300606
_cell_angle_alpha 90.000000
_cell_angle_beta 41.050829
_cell_angle_gamma 90.000000
_cell_volume 2137.957960
_symmetry_space_group_name_H-M "C 2/C"
_symmetry_group_IT_number 15
_symmetry_cell_setting 'monoclinic'
loop_
_space_group_symop_operation_xyz
x,y,z
-x,y,1/2-z
-x,-y,-z
x,-y,1/2+z
1/2+x,1/2+y,z
1/2-x,1/2+y,1/2-z
1/2-x,1/2-y,-z
1/2+x,1/2-y,1/2+z
loop_
_atom_site_type_symbol
_atom_site_label
_atom_site_fract_x
_atom_site_fract_y
_atom_site_fract_z
Si Si1 0.428492 0.049692 0.683215
Si Si2 0.895797 0.322298 0.247992
Si Si3 0.607419 0.692948 0.246433
Si Si4 0.628322 0.470497 0.485650
Si Si5 0.021278 0.907186 0.057605
O O1 0.500000 0.049188 0.750000
O O2 0.429849 0.117209 0.626532
O O3 0.269888 0.036452 0.887320
O O4 0.500000 0.000000 0.500000
O O5 0.748429 0.322664 0.499411
O O6 0.900021 0.257682 0.176412
O O7 0.000000 0.319907 0.250000
O O8 0.500000 0.689080 0.250000
O O9 0.580777 0.646148 0.400098
O O10 0.608190 0.427953 0.374595
O O11 0.614743 0.535778 0.443014
O O12 0.500000 0.461452 0.750000
O O13 0.000000 0.893536 0.250000
#
# Coordination Sequence:
#
# PCOD9266318 Si02
#       5
#     8   8   8   8   8
#     4  11  25  39  59  88 123 155 192 245 303 356
#     4   9  20  36  59  85 110 152 200 234 287 352
#     4  10  19  37  63  84 110 150 200 246 281 348
#     4  10  22  39  60  84 118 160 200 237 287 361
#     4  10  21  33  61  90 116 145 197 248 294 332
#
# _framework density 18.709443
#
# number of rings (size 3 to 8) (size 9 to 14) (size 15 to 20)
#    0.000    2.000    0.000    3.000   14.000    0.800 
#    0.000    1.000    0.000   16.800    0.000    0.000 
#    0.000    0.000    0.000    0.000    0.000    0.000 
#
# Total GULP energy -111474.054253 kJ/mol
# GULP energy per Si atom -5573.702713 kJ/mol
# Density = 1.866686 g / cm^3
# Si number density = 18.709443 Si / 1000 Ang^3
#
#
#
# Elastic Constant Matrix: (Units=GPa)
#
#
# Indices 1 2 3 4 5 6 
#
# 1 123.9693 28.6568 55.7278 0.0000 -20.0633 0.0000
# 2 28.6568 160.4379 46.8223 0.0000 13.4610 0.0000
# 3 55.7278 46.8223 67.9632 0.0000 -5.5096 0.0000
# 4 0.0000 0.0000 0.0000 25.5980 0.0000 10.1568
# 5 -20.0633 13.4610 -5.5096 0.0000 40.4995 0.0000
# 6 0.0000 0.0000 0.0000 10.1568 0.0000 17.9466
#
#
#
# Elastic Compliance Matrix: (Units=1/GPa)
#
#
# Indices 1 2 3 4 5 6 
#
# 1 0.013857 0.000349 -0.011179 0.000000 0.005228 0.000000
# 2 0.000349 0.008291 -0.006276 0.000000 -0.003437 0.000000
# 3 -0.011179 -0.006276 0.028236 0.000000 0.000389 0.000000
# 4 0.000000 0.000000 0.000000 0.050378 0.000000 -0.028511
# 5 0.005228 -0.003437 0.000389 0.000000 0.028477 0.000000
# 6 0.000000 0.000000 0.000000 -0.028511 0.000000 0.071857
#
#
# Mechanical properties :
#
#
# Convention : Reuss Voigt Hill
#
# Bulk Modulus (GPa) = 61.84041 68.30936 65.07488
# Shear Modulus (GPa) = 20.77284 31.55305 26.16295
#
# Velocity S-wave (km/s) = 3.33571 4.11113 3.74355
# Velocity P-wave (km/s) = 6.92537 7.68928 7.31730
#
# Compressibility (1/GPa) = 0.01617066
#
# Stress axis : x y z
#
# Youngs Moduli (GPa) = 72.16403 120.61752 35.41609
#
# Poissons Ratio (x) = -0.04206 0.39592
# Poissons Ratio (y) = -0.02516 0.22228
# Poissons Ratio (z) = 0.80672 0.75703
#
# Static dielectric constant tensor:
#      x y z
#    x 1.658790 0.000000 -0.013490 
#    y 0.000000 1.720680 0.000000 
#    z -0.013490 0.000000 1.635310 
# 
# From -- ./inp_files/41955.got.cif
#   From: 2010.05.17/outbox.cif.g08.bks.cpg/sg15_21_cif.got.tgz:41955.got - 2010.06.03 18:47:42.
