data_PCOD9266059
_publ_section_title
;
Structure prediction by ZEFSAII (Michael W. Deem and Ramdas Pophale) SiO2 
 PCOD9266059
Probable space group: C 2/C
;
_chemical_formula_sum "Si O2"
_cell_formula_units_Z 64
_cell_length_a 18.574622
_cell_length_b 9.068538
_cell_length_c 28.251739
_cell_angle_alpha 90.000000
_cell_angle_beta 136.973245
_cell_angle_gamma 90.000000
_cell_volume 3247.155984
_symmetry_space_group_name_H-M "C 2/C"
_symmetry_group_IT_number 15
_symmetry_cell_setting 'monoclinic'
loop_
_space_group_symop_operation_xyz
x,y,z
-x,y,1/2-z
-x,-y,-z
x,-y,1/2+z
1/2+x,1/2+y,z
1/2-x,1/2+y,1/2-z
1/2-x,1/2-y,-z
1/2+x,1/2-y,1/2+z
loop_
_atom_site_type_symbol
_atom_site_label
_atom_site_fract_x
_atom_site_fract_y
_atom_site_fract_z
Si Si1 0.742265 0.068042 0.195878
Si Si2 0.878652 0.475483 0.453900
Si Si3 0.127099 0.179176 0.696873
Si Si4 0.763377 0.802439 0.937260
Si Si5 0.612622 0.587891 0.921511
Si Si6 0.884730 0.386186 0.718422
Si Si7 0.227914 0.816677 0.937786
Si Si8 0.379796 0.787074 0.204948
O O1 0.683388 0.982334 0.125604
O O2 0.666812 0.195917 0.179869
O O3 0.836648 0.155664 0.215917
O O4 0.790858 0.955099 0.257052
O O5 0.848745 0.322902 0.465024
O O6 0.830094 0.601961 0.464653
O O7 0.000000 0.500000 0.500000
O O8 0.121895 0.266137 0.744012
O O9 0.010349 0.117747 0.630371
O O10 0.669471 0.724856 0.922227
O O11 0.707091 0.859151 0.863542
O O12 0.823499 0.920502 0.998444
O O13 0.640213 0.444598 0.903941
O O14 0.873204 0.556246 0.728112
O O15 0.000000 0.373663 0.750000
O O16 0.184412 0.710878 0.875588
O O17 0.250000 0.750000 0.000000
O O18 0.500000 0.760879 0.250000
#
# Coordination Sequence:
#
# PCOD9266059 Si02
#       8
#     8   8   8   8   8   8   8   8
#     4  11  24  41  61  85 124 163 208 263 311 381
#     4  10  21  40  60  86 124 167 201 252 322 376
#     4  12  23  41  62  90 124 163 217 258 321 370
#     4  10  19  37  59  92 122 157 206 249 306 376
#     4  10  21  35  63  91 124 163 204 259 309 377
#     4  11  21  37  64  92 122 161 206 256 311 375
#     4  10  21  40  62  93 125 161 209 262 308 380
#     4  10  22  40  61  88 124 160 203 253 314 368
#
# _framework density 19.709555999999999
#
# number of rings (size 3 to 8) (size 9 to 14) (size 15 to 20)
#    0.000    1.500    2.500    3.000    0.000    0.500 
#    9.000    0.000    0.000    5.250    0.000    0.000 
#    0.000    0.000    0.000    0.000    0.000    0.000 
#
# Total GULP energy -178693.463188 kJ/mol
# GULP energy per Si atom -5584.170725 kJ/mol
# Density = 1.966470 g / cm^3
# Si number density = 19.709556 Si / 1000 Ang^3
#
#
#
# Elastic Constant Matrix: (Units=GPa)
#
#
# Indices 1 2 3 4 5 6 
#
# 1 81.0003 18.6354 23.7132 0.0000 17.0133 0.0000
# 2 18.6354 45.5385 15.3786 0.0000 14.5165 0.0000
# 3 23.7132 15.3786 55.6895 0.0000 7.9529 0.0000
# 4 0.0000 0.0000 0.0000 24.8469 0.0000 -7.8937
# 5 17.0133 14.5165 7.9529 0.0000 34.7179 0.0000
# 6 0.0000 0.0000 0.0000 -7.8937 0.0000 23.9746
#
#
#
# Elastic Compliance Matrix: (Units=1/GPa)
#
#
# Indices 1 2 3 4 5 6 
#
# 1 0.015623 -0.003011 -0.005073 0.000000 -0.005235 0.000000
# 2 -0.003011 0.027775 -0.005107 0.000000 -0.008968 0.000000
# 3 -0.005073 -0.005107 0.021573 0.000000 -0.000320 0.000000
# 4 0.000000 0.000000 0.000000 0.044948 0.000000 0.014799
# 5 -0.005235 -0.008968 -0.000320 0.000000 0.035192 0.000000
# 6 0.000000 0.000000 0.000000 0.014799 0.000000 0.046584
#
#
# Mechanical properties :
#
#
# Convention : Reuss Voigt Hill
#
# Bulk Modulus (GPa) = 25.91496 33.07584 29.49540
# Shear Modulus (GPa) = 21.65051 25.00796 23.32924
#
# Velocity S-wave (km/s) = 3.31793 3.56592 3.44416
# Velocity P-wave (km/s) = 5.27780 5.81141 5.55102
#
# Compressibility (1/GPa) = 0.03858775
#
# Stress axis : x y z
#
# Youngs Moduli (GPa) = 64.00733 36.00338 46.35412
#
# Poissons Ratio (x) = 0.10842 0.23517
# Poissons Ratio (y) = 0.19275 0.23674
# Poissons Ratio (z) = 0.32473 0.18387
#
# Static dielectric constant tensor:
#      x y z
#    x 1.687630 0.000000 -0.028580 
#    y 0.000000 1.690070 0.000000 
#    z -0.028580 0.000000 1.697850 
# 
# From -- ./inp_files/315732.got.cif
#   From: 2010.05.17/outbox.cif.g08.bks.cpg/sg15_158_cif.got.tgz:315732.got - 2010.06.03 18:47:42.
