data_PCOD9266666
_publ_section_title
;
Structure prediction by ZEFSAII (Michael W. Deem and Ramdas Pophale) SiO2 
 PCOD9266666
Probable space group: C 2/C
;
_chemical_formula_sum "Si O2"
_cell_formula_units_Z 56
_cell_length_a 18.420652
_cell_length_b 17.940366
_cell_length_c 7.501117
_cell_angle_alpha 90.000000
_cell_angle_beta 106.365381
_cell_angle_gamma 90.000000
_cell_volume 2378.483549
_symmetry_space_group_name_H-M "C 2/C"
_symmetry_group_IT_number 15
_symmetry_cell_setting 'monoclinic'
loop_
_space_group_symop_operation_xyz
x,y,z
-x,y,1/2-z
-x,-y,-z
x,-y,1/2+z
1/2+x,1/2+y,z
1/2-x,1/2+y,1/2-z
1/2-x,1/2-y,-z
1/2+x,1/2-y,1/2+z
loop_
_atom_site_type_symbol
_atom_site_label
_atom_site_fract_x
_atom_site_fract_y
_atom_site_fract_z
Si Si1 0.657837 0.397494 0.462129
Si Si2 0.361413 0.441792 0.636751
Si Si3 0.316366 0.063329 0.526784
Si Si4 0.828655 0.720418 0.635147
Si Si5 0.335794 0.099789 0.129894
Si Si6 0.450099 0.309936 0.537115
Si Si7 0.905580 0.751042 0.055493
O O1 0.638735 0.410148 0.660815
O O2 0.620755 0.470681 0.349409
O O3 0.748535 0.390265 0.504919
O O4 0.624688 0.321995 0.355685
O O5 0.274105 0.443725 0.511356
O O6 0.410008 0.390838 0.536443
O O7 0.337449 0.131899 0.666480
O O8 0.330009 0.092098 0.337961
O O9 0.355745 0.983860 0.578974
O O10 0.750000 0.750000 0.500000
O O11 0.886914 0.748619 0.528613
O O12 0.851512 0.753886 0.841103
O O13 0.389404 0.168800 0.117803
O O14 0.500000 0.309725 0.750000
O O15 0.510284 0.276003 0.440575
#
# Coordination Sequence:
#
# PCOD9266666 Si02
#       7
#     8   8   8   8   8   8   8
#     4  10  20  36  59  87 121 162 204 247 306 359
#     4  10  19  38  58  89 122 159 205 251 303 374
#     4  10  20  37  63  93 121 158 210 264 308 360
#     4  11  19  36  65  89 116 160 213 254 304 369
#     4  10  21  38  60  91 126 156 208 261 309 367
#     4  10  20  38  60  85 125 165 203 242 313 379
#     4  11  22  39  59  87 128 167 200 257 311 371
#
# _framework density 23.544414
#
# number of rings (size 3 to 8) (size 9 to 14) (size 15 to 20)
#    0.000    1.714    4.286    2.143    0.000    1.714 
#    2.571    1.429    0.000    0.000    0.000    0.000 
#    0.000    0.000    0.000    0.000    0.000    0.000 
#
# Total GULP energy -156357.279836 kJ/mol
# GULP energy per Si atom -5584.188566 kJ/mol
# Density = 2.349083 g / cm^3
# Si number density = 23.544414 Si / 1000 Ang^3
#
#
#
# Elastic Constant Matrix: (Units=GPa)
#
#
# Indices 1 2 3 4 5 6 
#
# 1 63.8281 55.6002 29.6561 0.0000 -18.6456 0.0000
# 2 55.6002 237.8965 30.2618 0.0000 -9.4781 0.0000
# 3 29.6561 30.2618 50.3336 0.0000 -9.1464 0.0000
# 4 0.0000 0.0000 0.0000 32.8192 0.0000 -10.7951
# 5 -18.6456 -9.4781 -9.1464 0.0000 17.0969 0.0000
# 6 0.0000 0.0000 0.0000 -10.7951 0.0000 41.1909
#
#
#
# Elastic Compliance Matrix: (Units=1/GPa)
#
#
# Indices 1 2 3 4 5 6 
#
# 1 0.033815 -0.005312 -0.011701 0.000000 0.027673 0.000000
# 2 -0.005312 0.005407 -0.000697 0.000000 -0.003168 0.000000
# 3 -0.011701 -0.000697 0.027461 0.000000 0.001544 0.000000
# 4 0.000000 0.000000 0.000000 0.033344 0.000000 0.008739
# 5 0.027673 -0.003168 0.001544 0.000000 0.087740 0.000000
# 6 0.000000 0.000000 0.000000 0.008739 0.000000 0.026567
#
#
# Mechanical properties :
#
#
# Convention : Reuss Voigt Hill
#
# Bulk Modulus (GPa) = 31.98638 64.78826 48.38732
# Shear Modulus (GPa) = 19.21773 33.99075 26.60424
#
# Velocity S-wave (km/s) = 2.86008 3.80371 3.36513
# Velocity P-wave (km/s) = 4.95195 6.84603 5.97453
#
# Compressibility (1/GPa) = 0.03126330
#
# Stress axis : x y z
#
# Youngs Moduli (GPa) = 29.57264 184.92969 36.41511
#
# Poissons Ratio (x) = 0.98237 0.42610
# Poissons Ratio (y) = 0.15709 0.02538
# Poissons Ratio (z) = 0.34603 0.12889
#
# Static dielectric constant tensor:
#      x y z
#    x 1.880300 0.000000 -0.024560 
#    y 0.000000 1.986730 0.000000 
#    z -0.024560 0.000000 1.969680 
# 
# From -- ./inp_files/49154.got.cif
#   From: 2010.05.17/outbox.cif.g08.bks.cpg/sg15_25_cif.got.tgz:49154.got - 2010.06.03 18:47:42.
