data_PCOD9266070
_publ_section_title
;
Structure prediction by ZEFSAII (Michael W. Deem and Ramdas Pophale) SiO2 
 PCOD9266070
Probable space group: C 2/C
;
_chemical_formula_sum "Si O2"
_cell_formula_units_Z 56
_cell_length_a 9.092200
_cell_length_b 16.625836
_cell_length_c 27.669024
_cell_angle_alpha 90.000000
_cell_angle_beta 139.392577
_cell_angle_gamma 90.000000
_cell_volume 2722.339523
_symmetry_space_group_name_H-M "C 2/C"
_symmetry_group_IT_number 15
_symmetry_cell_setting 'monoclinic'
loop_
_space_group_symop_operation_xyz
x,y,z
-x,y,1/2-z
-x,-y,-z
x,-y,1/2+z
1/2+x,1/2+y,z
1/2-x,1/2+y,1/2-z
1/2-x,1/2-y,-z
1/2+x,1/2-y,1/2+z
loop_
_atom_site_type_symbol
_atom_site_label
_atom_site_fract_x
_atom_site_fract_y
_atom_site_fract_z
Si Si1 0.884235 0.915788 0.668359
Si Si2 0.558460 0.641583 0.885988
Si Si3 0.268299 0.659656 0.721682
Si Si4 0.198757 0.655192 0.263827
Si Si5 0.995054 0.676361 0.106098
Si Si6 0.074720 0.571671 0.589121
Si Si7 0.152986 0.967393 0.494407
O O1 0.706022 0.842946 0.623763
O O2 0.000000 0.918615 0.750000
O O3 0.088483 0.903102 0.682951
O O4 0.739587 0.995126 0.626818
O O5 0.348338 0.640151 0.795832
O O6 0.569375 0.730480 0.911688
O O7 0.798335 0.630012 0.917165
O O8 0.527518 0.572158 0.917609
O O9 0.500000 0.646130 0.750000
O O10 0.217031 0.754095 0.704608
O O11 0.090053 0.607532 0.647308
O O12 0.000000 0.632668 0.250000
O O13 0.089157 0.660672 0.183491
O O14 0.807010 0.608550 0.050184
O O15 0.824559 0.537388 0.518932
O O16 0.000000 0.000000 0.500000
#
# Coordination Sequence:
#
# PCOD9266070 Si02
#       7
#     8   8   8   8   8   8   8
#     4   9  17  31  53  79 109 142 176 218 276 332
#     4  10  19  37  60  79 105 147 189 225 271 334
#     4   8  16  32  57  83 107 137 180 230 275 325
#     4   9  17  31  55  86 112 137 180 235 277 317
#     4   9  20  37  55  76 109 151 186 221 272 335
#     4  10  20  37  59  82 109 147 186 229 281 331
#     4  11  24  39  53  79 117 149 184 232 278 326
#
# _framework density 20.570540999999999
#
# number of rings (size 3 to 8) (size 9 to 14) (size 15 to 20)
#    0.000    2.571    0.000    3.000    0.000    2.286 
#    0.000    2.857    0.000    7.714    0.000    0.000 
#    0.000    0.000    0.000    0.000    0.000    0.000 
#
# Total GULP energy -156162.808531 kJ/mol
# GULP energy per Si atom -5577.243162 kJ/mol
# Density = 2.052372 g / cm^3
# Si number density = 20.570541 Si / 1000 Ang^3
#
#
#
# Elastic Constant Matrix: (Units=GPa)
#
#
# Indices 1 2 3 4 5 6 
#
# 1 102.2155 32.9083 18.3410 0.0000 12.9890 0.0000
# 2 32.9083 61.3637 15.5283 0.0000 10.1766 0.0000
# 3 18.3410 15.5283 29.3009 0.0001 -0.8446 0.0000
# 4 0.0000 0.0000 0.0001 23.9506 0.0001 -0.0434
# 5 12.9890 10.1766 -0.8446 0.0001 22.7272 0.0000
# 6 0.0000 0.0000 0.0000 -0.0434 0.0000 32.9620
#
#
#
# Elastic Compliance Matrix: (Units=1/GPa)
#
#
# Indices 1 2 3 4 5 6 
#
# 1 0.013024 -0.004560 -0.005898 0.000000 -0.005621 0.000000
# 2 -0.004560 0.022359 -0.009219 0.000000 -0.007748 0.000000
# 3 -0.005898 -0.009219 0.042968 0.000000 0.009095 0.000000
# 4 0.000000 0.000000 0.000000 0.041753 0.000000 0.000055
# 5 -0.005621 -0.007748 0.009095 0.000000 0.051020 0.000000
# 6 0.000000 0.000000 0.000000 0.000055 0.000000 0.030338
#
#
# Mechanical properties :
#
#
# Convention : Reuss Voigt Hill
#
# Bulk Modulus (GPa) = 25.64188 36.27059 30.95624
# Shear Modulus (GPa) = 19.69945 24.33481 22.01713
#
# Velocity S-wave (km/s) = 3.09795 3.44320 3.27513
# Velocity P-wave (km/s) = 5.02880 5.78602 5.42065
#
# Compressibility (1/GPa) = 0.03899870
#
# Stress axis : x y z
#
# Youngs Moduli (GPa) = 76.78239 44.72377 23.27309
#
# Poissons Ratio (x) = 0.20393 0.13726
# Poissons Ratio (y) = 0.35012 0.21455
# Poissons Ratio (z) = 0.45285 0.41229
#
# Static dielectric constant tensor:
#      x y z
#    x 1.742040 0.000000 -0.035320 
#    y 0.000000 1.786870 0.000000 
#    z -0.035320 0.000000 1.784810 
# 
# From -- ./inp_files/289747.got.cif
#   From: 2010.05.17/outbox.cif.g08.bks.cpg/sg15_145_cif.got.tgz:289747.got - 2010.06.03 18:47:42.
