data_PCOD9266756
_publ_section_title
;
Structure prediction by ZEFSAII (Michael W. Deem and Ramdas Pophale) SiO2 
 PCOD9266756
Probable space group: C 2/C
;
_chemical_formula_sum "Si O2"
_cell_formula_units_Z 36
_cell_length_a 7.104676
_cell_length_b 15.864346
_cell_length_c 17.393366
_cell_angle_alpha 90.000000
_cell_angle_beta 53.042518
_cell_angle_gamma 90.000000
_cell_volume 1566.539577
_symmetry_space_group_name_H-M "C 2/C"
_symmetry_group_IT_number 15
_symmetry_cell_setting 'monoclinic'
loop_
_space_group_symop_operation_xyz
x,y,z
-x,y,1/2-z
-x,-y,-z
x,-y,1/2+z
1/2+x,1/2+y,z
1/2-x,1/2+y,1/2-z
1/2-x,1/2-y,-z
1/2+x,1/2-y,1/2+z
loop_
_atom_site_type_symbol
_atom_site_label
_atom_site_fract_x
_atom_site_fract_y
_atom_site_fract_z
Si Si1 0.339576 0.164962 0.938922
Si Si2 0.206297 0.237213 0.264576
Si Si3 0.083733 0.177577 0.574442
Si Si4 0.500000 0.087388 0.250000
Si Si5 0.733913 0.984430 0.537570
O O1 0.592552 0.192426 0.846904
O O2 0.150143 0.156421 0.917563
O O3 0.340685 0.074585 0.978675
O O4 0.250000 0.250000 0.000000
O O5 0.451658 0.276567 0.176187
O O6 0.277347 0.147985 0.284432
O O7 0.000000 0.223686 0.250000
O O8 0.250000 0.250000 0.500000
O O9 0.238056 0.093093 0.528474
O O10 0.423556 0.038124 0.347309
O O11 0.000000 0.000000 0.500000
#
# Coordination Sequence:
#
# PCOD9266756 Si02
#       5
#     8   8   8   4   8
#     4  10  22  40  61  90 125 165 209 258 315 372
#     4  10  22  38  66  91 128 166 209 262 317 376
#     4  10  19  38  60  90 123 163 202 258 316 366
#     4  12  22  40  72  90 126 168 212 258 324 376
#     4  10  22  36  65  94 119 169 212 252 316 382
#
# _framework density 22.980588000000001
#
# number of rings (size 3 to 8) (size 9 to 14) (size 15 to 20)
#    0.000    1.778    2.222    2.667    7.778    0.000 
#    0.000    1.111   12.222    0.000    0.000    0.000 
#    0.000    0.000    0.000    0.000    0.000    0.000 
#
# Total GULP energy -100281.018622 kJ/mol
# GULP energy per Si atom -5571.167701 kJ/mol
# Density = 2.292828 g / cm^3
# Si number density = 22.980588 Si / 1000 Ang^3
#
#
#
# Elastic Constant Matrix: (Units=GPa)
#
#
# Indices 1 2 3 4 5 6 
#
# 1 93.3531 8.9835 -2.2674 0.0000 -24.7089 0.0000
# 2 8.9835 177.8165 50.8109 0.0000 -12.4308 0.0000
# 3 -2.2674 50.8109 141.6755 0.0000 -34.2403 0.0000
# 4 0.0000 0.0000 0.0000 48.4591 0.0000 -8.2783
# 5 -24.7089 -12.4308 -34.2403 0.0000 33.0806 0.0000
# 6 0.0000 0.0000 0.0000 -8.2783 0.0000 31.7875
#
#
#
# Elastic Compliance Matrix: (Units=1/GPa)
#
#
# Indices 1 2 3 4 5 6 
#
# 1 0.014921 -0.000902 0.004233 0.000000 0.015188 0.000000
# 2 -0.000902 0.006320 -0.002494 0.000000 -0.000880 0.000000
# 3 0.004233 -0.002494 0.011413 0.000000 0.014038 0.000000
# 4 0.000000 0.000000 0.000000 0.021597 0.000000 0.005624
# 5 0.015188 -0.000880 0.014038 0.000000 0.055773 0.000000
# 6 0.000000 0.000000 0.000000 0.005624 0.000000 0.032924
#
#
# Mechanical properties :
#
#
# Convention : Reuss Voigt Hill
#
# Bulk Modulus (GPa) = 29.12927 58.65544 43.89236
# Shear Modulus (GPa) = 32.74036 46.35330 39.54683
#
# Velocity S-wave (km/s) = 3.77861 4.49604 4.15285
# Velocity P-wave (km/s) = 5.63385 7.24789 6.49123
#
# Compressibility (1/GPa) = 0.03432973
#
# Stress axis : x y z
#
# Youngs Moduli (GPa) = 67.01746 158.21697 87.61819
#
# Poissons Ratio (x) = 0.14265 -0.37086
# Poissons Ratio (y) = 0.06042 0.21850
# Poissons Ratio (z) = -0.28367 0.39456
#
# Static dielectric constant tensor:
#      x y z
#    x 1.924510 0.000000 0.115610 
#    y 0.000000 1.893220 0.000000 
#    z 0.115610 0.000000 1.900840 
# 
# From -- ./inp_files/132624.got.cif
#   From: 2010.05.17/outbox.cif.g08.bks.cpg/sg15_67_cif.got.tgz:132624.got - 2010.06.03 18:47:42.
