data_PCOD9266683
_publ_section_title
;
Structure prediction by ZEFSAII (Michael W. Deem and Ramdas Pophale) SiO2 
 PCOD9266683
Probable space group: C 2/C
;
_chemical_formula_sum "Si O2"
_cell_formula_units_Z 64
_cell_length_a 12.591789
_cell_length_b 12.475161
_cell_length_c 22.585641
_cell_angle_alpha 90.000000
_cell_angle_beta 121.508500
_cell_angle_gamma 90.000000
_cell_volume 3024.769711
_symmetry_space_group_name_H-M "C 2/C"
_symmetry_group_IT_number 15
_symmetry_cell_setting 'monoclinic'
loop_
_space_group_symop_operation_xyz
x,y,z
-x,y,1/2-z
-x,-y,-z
x,-y,1/2+z
1/2+x,1/2+y,z
1/2-x,1/2+y,1/2-z
1/2-x,1/2-y,-z
1/2+x,1/2-y,1/2+z
loop_
_atom_site_type_symbol
_atom_site_label
_atom_site_fract_x
_atom_site_fract_y
_atom_site_fract_z
Si Si1 0.060782 0.157593 0.710028
Si Si2 0.296442 0.996847 0.160335
Si Si3 0.736490 0.324555 0.733228
Si Si4 0.635821 0.249432 0.817366
Si Si5 0.093572 0.757520 0.512922
Si Si6 0.876397 0.332061 0.601258
Si Si7 0.531872 0.306120 0.907799
Si Si8 0.979076 0.033347 0.917804
O O1 0.810073 0.215764 0.739101
O O2 0.973577 0.254244 0.661632
O O3 0.000000 0.108422 0.750000
O O4 0.060966 0.070666 0.659218
O O5 0.332406 0.875259 0.183172
O O6 0.154881 0.995670 0.094303
O O7 0.299283 0.074231 0.218881
O O8 0.378417 0.054115 0.134102
O O9 0.725891 0.321037 0.801795
O O10 0.599950 0.316809 0.665006
O O11 0.500000 0.268379 0.750000
O O12 0.628738 0.269137 0.885869
O O13 0.096312 0.670721 0.460894
O O14 0.237856 0.781730 0.570864
O O15 0.005444 0.739471 0.544237
O O16 0.041884 0.865584 0.466599
O O17 0.561146 0.427060 0.937559
#
# Coordination Sequence:
#
# PCOD9266683 Si02
#       8
#     8   8   8   8   8   8   8   8
#     4  11  19  33  54  88 114 142 185 241 283 341
#     4  11  20  37  57  86 111 155 184 231 286 352
#     4  10  20  36  57  84 117 144 192 231 284 345
#     4  10  23  38  58  83 120 155 180 228 297 343
#     4  10  19  38  59  84 111 150 194 245 268 339
#     4  10  21  32  59  85 113 147 195 229 291 327
#     4  10  20  39  58  83 115 154 188 237 285 337
#     4  10  21  33  62  83 111 146 198 232 282 326
#
# _framework density 21.158636000000001
#
# number of rings (size 3 to 8) (size 9 to 14) (size 15 to 20)
#    0.000    1.750    5.000    0.375    1.750    2.500 
#    0.000    1.250    0.000    0.000    0.000    0.000 
#    0.000    0.000    0.000    0.000    0.000    0.000 
#
# Total GULP energy -178511.858177 kJ/mol
# GULP energy per Si atom -5578.495568 kJ/mol
# Density = 2.111048 g / cm^3
# Si number density = 21.158636 Si / 1000 Ang^3
#
#
#
# Elastic Constant Matrix: (Units=GPa)
#
#
# Indices 1 2 3 4 5 6 
#
# 1 57.3738 29.3161 32.1466 0.0000 -38.4187 0.0000
# 2 29.3161 61.6375 27.5377 0.0000 -19.6568 0.0000
# 3 32.1466 27.5377 85.5205 0.0000 -40.8858 0.0000
# 4 0.0000 0.0000 0.0000 27.3827 0.0000 -5.5687
# 5 -38.4187 -19.6568 -40.8858 0.0000 45.2138 0.0000
# 6 0.0000 0.0000 0.0000 -5.5687 0.0000 29.5008
#
#
#
# Elastic Compliance Matrix: (Units=1/GPa)
#
#
# Indices 1 2 3 4 5 6 
#
# 1 0.047135 -0.012109 0.004954 0.000000 0.039266 0.000000
# 2 -0.012109 0.022669 -0.005206 0.000000 -0.005141 0.000000
# 3 0.004954 -0.005206 0.021910 0.000000 0.021759 0.000000
# 4 0.000000 0.000000 0.000000 0.037977 0.000000 0.007169
# 5 0.039266 -0.005141 0.021759 0.000000 0.072923 0.000000
# 6 0.000000 0.000000 0.000000 0.007169 0.000000 0.035251
#
#
# Mechanical properties :
#
#
# Convention : Reuss Voigt Hill
#
# Bulk Modulus (GPa) = 14.92709 42.50360 28.71535
# Shear Modulus (GPa) = 17.54895 28.12153 22.83524
#
# Velocity S-wave (km/s) = 2.88305 3.64961 3.28874
# Velocity P-wave (km/s) = 4.26061 6.15558 5.29358
#
# Compressibility (1/GPa) = 0.06699230
#
# Stress axis : x y z
#
# Youngs Moduli (GPa) = 21.21572 44.11221 45.64216
#
# Poissons Ratio (x) = 0.53416 -0.22611
# Poissons Ratio (y) = 0.25690 0.23760
# Poissons Ratio (z) = -0.10510 0.22963
#
# Static dielectric constant tensor:
#      x y z
#    x 1.821460 0.000000 -0.041380 
#    y 0.000000 1.734920 0.000000 
#    z -0.041380 0.000000 1.812530 
# 
# From -- ./inp_files/268924.got.cif
#   From: 2010.05.17/outbox.cif.g08.bks.cpg/sg15_135_cif.got.tgz:268924.got - 2010.06.03 18:47:42.
