data_PCOD9266418
_publ_section_title
;
Structure prediction by ZEFSAII (Michael W. Deem and Ramdas Pophale) SiO2 
 PCOD9266418
Probable space group: C 2/C
;
_chemical_formula_sum "Si O2"
_cell_formula_units_Z 40
_cell_length_a 9.458746
_cell_length_b 21.109565
_cell_length_c 8.157154
_cell_angle_alpha 90.000000
_cell_angle_beta 82.561307
_cell_angle_gamma 90.000000
_cell_volume 1615.031513
_symmetry_space_group_name_H-M "C 2/C"
_symmetry_group_IT_number 15
_symmetry_cell_setting 'monoclinic'
loop_
_space_group_symop_operation_xyz
x,y,z
-x,y,1/2-z
-x,-y,-z
x,-y,1/2+z
1/2+x,1/2+y,z
1/2-x,1/2+y,1/2-z
1/2-x,1/2-y,-z
1/2+x,1/2-y,1/2+z
loop_
_atom_site_type_symbol
_atom_site_label
_atom_site_fract_x
_atom_site_fract_y
_atom_site_fract_z
Si Si1 0.451830 0.763317 0.028621
Si Si2 0.288973 0.726191 0.716354
Si Si3 0.465076 0.899664 0.932521
Si Si4 0.225793 0.505872 0.451991
Si Si5 0.645119 0.581974 0.830160
O O1 0.372888 0.733966 0.879552
O O2 0.615472 0.755335 0.944726
O O3 0.434698 0.839168 0.045344
O O4 0.361894 0.742610 0.204053
O O5 0.289334 0.651701 0.672278
O O6 0.500000 0.872204 0.750000
O O7 0.596129 0.943878 0.966415
O O8 0.330375 0.945535 0.936390
O O9 0.359433 0.547087 0.493810
O O10 0.257052 0.468098 0.281334
O O11 0.500000 0.586572 0.750000
#
# Coordination Sequence:
#
# PCOD9266418 Si02
#       5
#     8   8   8   8   8
#     4  10  19  37  64  91 124 176 215 270 329 392
#     4  10  20  35  63  93 127 172 223 264 329 392
#     4  11  20  40  67  93 124 166 223 279 322 393
#     4  11  25  39  66  97 128 170 219 274 342 387
#     4  12  23  43  61  96 137 174 216 274 334 408
#
# _framework density 24.767319000000001
#
# number of rings (size 3 to 8) (size 9 to 14) (size 15 to 20)
#    0.000    1.200    8.000    0.600    0.000    0.000 
#    0.000    1.000    0.000    0.000    0.000    0.000 
#    0.000    0.000    0.000    0.000    0.000    0.000 
#
# Total GULP energy -111511.096546 kJ/mol
# GULP energy per Si atom -5575.554827 kJ/mol
# Density = 2.471095 g / cm^3
# Si number density = 24.767319 Si / 1000 Ang^3
#
#
#
# Elastic Constant Matrix: (Units=GPa)
#
#
# Indices 1 2 3 4 5 6 
#
# 1 93.2703 16.1684 12.3128 0.0000 -13.0998 0.0000
# 2 16.1684 144.6705 24.7357 0.0000 -0.0729 0.0000
# 3 12.3128 24.7357 103.0576 0.0000 -36.0074 0.0000
# 4 0.0000 0.0000 0.0000 66.6375 0.0000 1.8674
# 5 -13.0998 -0.0729 -36.0074 0.0000 32.7990 0.0000
# 6 0.0000 0.0000 0.0000 1.8674 0.0000 35.9048
#
#
#
# Elastic Compliance Matrix: (Units=1/GPa)
#
#
# Indices 1 2 3 4 5 6 
#
# 1 0.011649 -0.001461 0.000946 0.000000 0.005688 0.000000
# 2 -0.001461 0.007585 -0.002991 0.000000 -0.003851 0.000000
# 3 0.000946 -0.002991 0.016933 0.000000 0.018960 0.000000
# 4 0.000000 0.000000 0.000000 0.015028 0.000000 -0.000782
# 5 0.005688 -0.003851 0.018960 0.000000 0.053567 0.000000
# 6 0.000000 0.000000 0.000000 -0.000782 0.000000 0.027892
#
#
# Mechanical properties :
#
#
# Convention : Reuss Voigt Hill
#
# Bulk Modulus (GPa) = 34.29973 49.71467 42.00720
# Shear Modulus (GPa) = 33.47070 46.25370 39.86220
#
# Velocity S-wave (km/s) = 3.68014 4.32618 4.01617
# Velocity P-wave (km/s) = 5.65126 6.71347 6.20514
#
# Compressibility (1/GPa) = 0.02915475
#
# Stress axis : x y z
#
# Youngs Moduli (GPa) = 85.84641 131.83852 59.05675
#
# Poissons Ratio (x) = 0.19259 -0.05588
# Poissons Ratio (y) = 0.12540 0.17666
# Poissons Ratio (z) = -0.08123 0.39438
#
# Static dielectric constant tensor:
#      x y z
#    x 2.128330 0.000000 -0.005710 
#    y 0.000000 1.869270 0.000000 
#    z -0.005710 0.000000 2.275040 
# 
# From -- ./inp_files/30154.got.cif
#   From: 2010.05.17/outbox.cif.g08.bks.cpg/sg15_16_cif.got.tgz:30154.got - 2010.06.03 18:47:42.
