data_PCOD9266620
_publ_section_title
;
Structure prediction by ZEFSAII (Michael W. Deem and Ramdas Pophale) SiO2 
 PCOD9266620
Probable space group: C 2/C
;
_chemical_formula_sum "Si O2"
_cell_formula_units_Z 52
_cell_length_a 17.396456
_cell_length_b 23.179789
_cell_length_c 5.626331
_cell_angle_alpha 90.000000
_cell_angle_beta 124.431165
_cell_angle_gamma 90.000000
_cell_volume 1871.317114
_symmetry_space_group_name_H-M "C 2/C"
_symmetry_group_IT_number 15
_symmetry_cell_setting 'monoclinic'
loop_
_space_group_symop_operation_xyz
x,y,z
-x,y,1/2-z
-x,-y,-z
x,-y,1/2+z
1/2+x,1/2+y,z
1/2-x,1/2+y,1/2-z
1/2-x,1/2-y,-z
1/2+x,1/2-y,1/2+z
loop_
_atom_site_type_symbol
_atom_site_label
_atom_site_fract_x
_atom_site_fract_y
_atom_site_fract_z
Si Si1 0.845747 0.730809 0.334806
Si Si2 0.898425 0.376112 0.163979
Si Si3 0.860792 0.017870 0.635579
Si Si4 0.148462 0.523299 0.658550
Si Si5 0.090418 0.160505 0.292450
Si Si6 0.781487 0.869169 0.885144
Si Si7 0.500000 0.746628 0.750000
O O1 0.882408 0.692471 0.625316
O O2 0.857466 0.796157 0.438852
O O3 0.746864 0.698201 0.122512
O O4 0.919624 0.719802 0.252644
O O5 0.000000 0.388256 0.250000
O O6 0.872642 0.408533 0.357932
O O7 0.820660 0.395840 0.835261
O O8 0.758837 0.989699 0.392136
O O9 0.840384 0.086495 0.644686
O O10 0.905165 0.008671 0.450961
O O11 0.109350 0.499391 0.841628
O O12 0.166700 0.126982 0.277536
O O13 0.000000 0.130972 0.250000
O O14 0.045409 0.202866 0.017398
#
# Coordination Sequence:
#
# PCOD9266620 Si02
#       7
#     8   8   8   8   8   8   4
#     4   9  20  40  55  88 121 164 197 250 307 368
#     4  10  20  36  54  87 120 164 207 249 310 372
#     4  10  19  41  60  90 128 168 208 269 318 374
#     4  10  19  38  55  83 121 170 211 258 305 368
#     4  10  21  41  63  86 124 156 208 266 320 379
#     4  10  21  39  61  94 117 167 213 252 319 383
#     4  10  20  38  60  84 126 160 198 264 318 364
#
# _framework density 27.787914000000001
#
# number of rings (size 3 to 8) (size 9 to 14) (size 15 to 20)
#    0.923    1.231    3.077    1.846    0.000    1.231 
#   24.923    0.000    0.000    0.923    0.000    0.000 
#    0.000    0.000    0.000    0.000    0.000    0.000 
#
# Total GULP energy -145219.238746 kJ/mol
# GULP energy per Si atom -5585.355336 kJ/mol
# Density = 2.772467 g / cm^3
# Si number density = 27.787914 Si / 1000 Ang^3
#
#
#
# Elastic Constant Matrix: (Units=GPa)
#
#
# Indices 1 2 3 4 5 6 
#
# 1 98.0634 -4.0088 44.2551 0.0000 9.3852 0.0000
# 2 -4.0088 73.1718 8.5708 0.0000 4.7207 0.0000
# 3 44.2551 8.5708 139.1175 0.0000 -6.0126 0.0000
# 4 0.0000 0.0000 0.0000 18.3097 0.0000 -14.9529
# 5 9.3852 4.7207 -6.0126 0.0000 36.3796 0.0000
# 6 0.0000 0.0000 0.0000 -14.9529 0.0000 23.1373
#
#
#
# Elastic Compliance Matrix: (Units=1/GPa)
#
#
# Indices 1 2 3 4 5 6 
#
# 1 0.012581 0.001457 -0.004271 0.000000 -0.004140 0.000000
# 2 0.001457 0.014072 -0.001436 0.000000 -0.002439 0.000000
# 3 -0.004271 -0.001436 0.008753 0.000000 0.002735 0.000000
# 4 0.000000 0.000000 0.000000 0.115659 0.000000 0.074747
# 5 -0.004140 -0.002439 0.002735 0.000000 0.029325 0.000000
# 6 0.000000 0.000000 0.000000 0.074747 0.000000 0.091527
#
#
# Mechanical properties :
#
#
# Convention : Reuss Voigt Hill
#
# Bulk Modulus (GPa) = 37.16632 45.33189 41.24910
# Shear Modulus (GPa) = 17.27804 33.00103 25.13953
#
# Velocity S-wave (km/s) = 2.49626 3.44990 3.01107
# Velocity P-wave (km/s) = 4.65966 5.67609 5.19281
#
# Compressibility (1/GPa) = 0.02690608
#
# Stress axis : x y z
#
# Youngs Moduli (GPa) = 79.48725 71.06419 114.24128
#
# Poissons Ratio (x) = -0.10351 0.48790
# Poissons Ratio (y) = -0.11578 0.16402
# Poissons Ratio (z) = 0.33947 0.10203
#
# Static dielectric constant tensor:
#      x y z
#    x 2.186910 0.000000 -0.039070 
#    y 0.000000 2.316110 0.000000 
#    z -0.039070 0.000000 2.188350 
# 
# From -- ./inp_files/12083.got.cif
#   From: 2010.05.17/outbox.cif.g08.bks.cpg/sg15_7_cif.got.tgz:12083.got - 2010.06.03 18:47:42.
