data_PCOD9266206
_publ_section_title
;
Structure prediction by ZEFSAII (Michael W. Deem and Ramdas Pophale) SiO2 
 PCOD9266206
Probable space group: C 2/C
;
_chemical_formula_sum "Si O2"
_cell_formula_units_Z 36
_cell_length_a 26.858809
_cell_length_b 14.045311
_cell_length_c 14.069968
_cell_angle_alpha 90.000000
_cell_angle_beta 20.629358
_cell_angle_gamma 90.000000
_cell_volume 1870.036305
_symmetry_space_group_name_H-M "C 2/C"
_symmetry_group_IT_number 15
_symmetry_cell_setting 'monoclinic'
loop_
_space_group_symop_operation_xyz
x,y,z
-x,y,1/2-z
-x,-y,-z
x,-y,1/2+z
1/2+x,1/2+y,z
1/2-x,1/2+y,1/2-z
1/2-x,1/2-y,-z
1/2+x,1/2-y,1/2+z
loop_
_atom_site_type_symbol
_atom_site_label
_atom_site_fract_x
_atom_site_fract_y
_atom_site_fract_z
Si Si1 0.132725 0.219955 0.955591
Si Si2 0.593396 0.960345 0.746789
Si Si3 0.154336 0.160208 0.702846
Si Si4 0.947987 0.738455 0.448583
Si Si5 0.500000 0.905388 0.250000
O O1 0.143553 0.170113 0.835179
O O2 0.281207 0.220043 0.744254
O O3 0.000000 0.178235 0.250000
O O4 0.092324 0.332385 0.021171
O O5 0.754168 0.932584 0.486329
O O6 0.520454 0.861795 0.844737
O O7 0.586606 0.030463 0.668681
O O8 0.500000 0.000000 0.000000
O O9 0.250000 0.250000 0.500000
O O10 0.005944 0.181093 0.916687
O O11 0.000000 0.764966 0.250000
#
# Coordination Sequence:
#
# PCOD9266206 Si02
#       5
#     8   8   8   8   4
#     4  10  22  37  61  90 123 160 210 250 297 368
#     4  11  21  37  64  89 121 155 204 257 310 355
#     4  10  19  37  61  90 118 162 207 243 300 371
#     4  11  20  38  66  85 118 168 208 245 301 372
#     4  10  20  36  58  90 120 154 200 252 308 342
#
# _framework density 19.250964
#
# number of rings (size 3 to 8) (size 9 to 14) (size 15 to 20)
#    0.667    0.889    5.556    2.667    0.000    0.889 
#    0.000    1.111    4.889    0.000    0.000    0.000 
#    0.000    0.000    0.000    0.000    0.000    0.000 
#
# Total GULP energy -100284.601651 kJ/mol
# GULP energy per Si atom -5571.366758 kJ/mol
# Density = 1.920715 g / cm^3
# Si number density = 19.250964 Si / 1000 Ang^3
#
#
#
# Elastic Constant Matrix: (Units=GPa)
#
#
# Indices 1 2 3 4 5 6 
#
# 1 87.1904 11.2549 42.8229 0.0000 -2.4541 0.0000
# 2 11.2549 46.1639 1.6296 0.0000 0.2349 0.0000
# 3 42.8229 1.6296 115.3692 0.0000 -5.4233 0.0000
# 4 0.0000 0.0000 0.0000 29.2004 0.0000 -3.8062
# 5 -2.4541 0.2349 -5.4233 0.0000 39.6221 0.0000
# 6 0.0000 0.0000 0.0000 -3.8062 0.0000 3.5196
#
#
#
# Elastic Compliance Matrix: (Units=1/GPa)
#
#
# Indices 1 2 3 4 5 6 
#
# 1 0.014528 -0.003355 -0.005336 0.000000 0.000189 0.000000
# 2 -0.003355 0.022449 0.000918 0.000000 -0.000215 0.000000
# 3 -0.005336 0.000918 0.010689 0.000000 0.001127 0.000000
# 4 0.000000 0.000000 0.000000 0.039866 0.000000 0.043113
# 5 0.000189 -0.000215 0.001127 0.000000 0.025406 0.000000
# 6 0.000000 0.000000 0.000000 0.043113 0.000000 0.330751
#
#
# Mechanical properties :
#
#
# Convention : Reuss Voigt Hill
#
# Bulk Modulus (GPa) = 31.13382 40.01537 35.57460
# Shear Modulus (GPa) = 10.63964 27.33614 18.98789
#
# Velocity S-wave (km/s) = 2.35347 3.77236 3.14400
# Velocity P-wave (km/s) = 4.85724 6.30917 5.63020
#
# Compressibility (1/GPa) = 0.03211941
#
# Stress axis : x y z
#
# Youngs Moduli (GPa) = 68.83047 44.54636 93.55748
#
# Poissons Ratio (x) = 0.14944 0.49926
# Poissons Ratio (y) = 0.23090 -0.08588
# Poissons Ratio (z) = 0.36731 -0.04089
#
# Static dielectric constant tensor:
#      x y z
#    x 1.691730 0.000000 -0.019970 
#    y 0.000000 1.677730 0.000000 
#    z -0.019970 0.000000 1.715950 
# 
# From -- ./inp_files/178095.got.cif
#   From: 2010.05.17/outbox.cif.g08.bks.cpg/sg15_90_cif.got.tgz:178095.got - 2010.06.03 18:47:42.
