data_PCOD9266366
_publ_section_title
;
Structure prediction by ZEFSAII (Michael W. Deem and Ramdas Pophale) SiO2 
 PCOD9266366
Probable space group: C 2/C
;
_chemical_formula_sum "Si O2"
_cell_formula_units_Z 40
_cell_length_a 22.530595
_cell_length_b 7.680898
_cell_length_c 14.073016
_cell_angle_alpha 90.000000
_cell_angle_beta 141.746730
_cell_angle_gamma 90.000000
_cell_volume 1507.855898
_symmetry_space_group_name_H-M "C 2/C"
_symmetry_group_IT_number 15
_symmetry_cell_setting 'monoclinic'
loop_
_space_group_symop_operation_xyz
x,y,z
-x,y,1/2-z
-x,-y,-z
x,-y,1/2+z
1/2+x,1/2+y,z
1/2-x,1/2+y,1/2-z
1/2-x,1/2-y,-z
1/2+x,1/2-y,1/2+z
loop_
_atom_site_type_symbol
_atom_site_label
_atom_site_fract_x
_atom_site_fract_y
_atom_site_fract_z
Si Si1 0.083135 0.391280 0.423903
Si Si2 0.253701 0.865454 0.402170
Si Si3 0.555859 0.426082 0.220807
Si Si4 0.465542 0.221970 0.933505
Si Si5 0.264726 0.293751 0.732992
O O1 0.141192 0.552818 0.450496
O O2 0.167322 0.254767 0.553420
O O3 0.000000 0.340489 0.250000
O O4 0.030108 0.415055 0.457454
O O5 0.170133 0.876133 0.374776
O O6 0.255134 0.703632 0.333925
O O7 0.214980 0.009951 0.276055
O O8 0.500000 0.418690 0.250000
O O9 0.540603 0.612484 0.148965
O O10 0.513282 0.291865 0.089889
O O11 0.354782 0.181425 0.814542
#
# Coordination Sequence:
#
# PCOD9266366 Si02
#       5
#     8   8   8   8   8
#     4  10  21  38  61  94 132 163 211 269 316 382
#     4   9  19  40  63  95 126 170 214 263 322 386
#     4  10  19  37  63  92 123 169 217 268 310 384
#     4  10  20  37  61  91 129 167 216 258 326 379
#     4   9  20  38  65  89 133 166 213 260 321 384
#
# _framework density 26.527735
#
# number of rings (size 3 to 8) (size 9 to 14) (size 15 to 20)
#    1.200    1.200    2.000    0.600    0.000    1.600 
#    3.600    2.000    0.000    1.200    0.000   12.600 
#    0.000    0.000    0.000    0.000    0.000    0.000 
#
# Total GULP energy -111699.379394 kJ/mol
# GULP energy per Si atom -5584.968970 kJ/mol
# Density = 2.646736 g / cm^3
# Si number density = 26.527735 Si / 1000 Ang^3
#
#
#
# Elastic Constant Matrix: (Units=GPa)
#
#
# Indices 1 2 3 4 5 6 
#
# 1 235.6478 19.6288 78.4044 0.0000 15.3950 0.0000
# 2 19.6288 48.1386 6.4482 0.0000 1.2206 0.0000
# 3 78.4044 6.4482 171.2598 0.0000 23.4755 0.0000
# 4 0.0000 0.0000 0.0000 5.5622 0.0000 7.6547
# 5 15.3950 1.2206 23.4755 0.0000 51.7381 0.0000
# 6 0.0000 0.0000 0.0000 7.6547 0.0000 41.9808
#
#
#
# Elastic Compliance Matrix: (Units=1/GPa)
#
#
# Indices 1 2 3 4 5 6 
#
# 1 0.005167 -0.001796 -0.002232 0.000000 -0.000483 0.000000
# 2 -0.001796 0.021504 0.000009 0.000000 0.000023 0.000000
# 3 -0.002232 0.000009 0.007218 0.000000 -0.002611 0.000000
# 4 0.000000 0.000000 0.000000 0.240014 0.000000 -0.043764
# 5 -0.000483 0.000023 -0.002611 0.000000 0.020656 0.000000
# 6 0.000000 0.000000 0.000000 -0.043764 0.000000 0.031800
#
#
# Mechanical properties :
#
#
# Convention : Reuss Voigt Hill
#
# Bulk Modulus (GPa) = 38.68041 73.77877 56.22959
# Shear Modulus (GPa) = 14.57668 43.22720 28.90194
#
# Velocity S-wave (km/s) = 2.34666 4.04110 3.30434
# Velocity P-wave (km/s) = 4.68564 7.04601 5.98337
#
# Compressibility (1/GPa) = 0.02585288
#
# Stress axis : x y z
#
# Youngs Moduli (GPa) = 193.52385 46.50353 138.53347
#
# Poissons Ratio (x) = 0.08351 0.30919
# Poissons Ratio (y) = 0.34753 -0.00130
# Poissons Ratio (z) = 0.43193 -0.00044
#
# Static dielectric constant tensor:
#      x y z
#    x 2.204870 0.000000 -0.008230 
#    y 0.000000 2.190270 0.000000 
#    z -0.008230 0.000000 2.096610 
# 
# From -- ./inp_files/167412.got.cif
#   From: 2010.05.17/outbox.cif.g08.bks.cpg/sg15_84_cif.got.tgz:167412.got - 2010.06.03 18:47:42.
