data_PCOD9266087
_publ_section_title
;
Structure prediction by ZEFSAII (Michael W. Deem and Ramdas Pophale) SiO2 
 PCOD9266087
Probable space group: C 2/C
;
_chemical_formula_sum "Si O2"
_cell_formula_units_Z 48
_cell_length_a 18.302026
_cell_length_b 16.317225
_cell_length_c 11.491822
_cell_angle_alpha 90.000000
_cell_angle_beta 133.611930
_cell_angle_gamma 90.000000
_cell_volume 2484.791056
_symmetry_space_group_name_H-M "C 2/C"
_symmetry_group_IT_number 15
_symmetry_cell_setting 'monoclinic'
loop_
_space_group_symop_operation_xyz
x,y,z
-x,y,1/2-z
-x,-y,-z
x,-y,1/2+z
1/2+x,1/2+y,z
1/2-x,1/2+y,1/2-z
1/2-x,1/2-y,-z
1/2+x,1/2-y,1/2+z
loop_
_atom_site_type_symbol
_atom_site_label
_atom_site_fract_x
_atom_site_fract_y
_atom_site_fract_z
Si Si1 0.612016 0.527817 0.590927
Si Si2 0.645820 0.327215 0.969486
Si Si3 0.766568 0.132621 0.340655
Si Si4 0.101144 0.143119 0.792956
Si Si5 0.356362 0.765244 0.264090
Si Si6 0.434789 0.791286 0.916131
O O1 0.500000 0.500000 0.500000
O O2 0.612244 0.584006 0.475813
O O3 0.685117 0.451194 0.653256
O O4 0.638509 0.585529 0.729215
O O5 0.613671 0.297052 0.807216
O O6 0.767807 0.321482 0.114367
O O7 0.604678 0.261514 0.017064
O O8 0.809701 0.147912 0.516377
O O9 0.810390 0.207371 0.312700
O O10 0.646047 0.138083 0.197280
O O11 0.069748 0.228443 0.697416
O O12 0.000000 0.112865 0.750000
O O13 0.451272 0.812014 0.422911
#
# Coordination Sequence:
#
# PCOD9266087 Si02
#       6
#     8   8   8   8   8   8
#     4  11  22  36  55  84 118 151 183 240 289 341
#     4   9  21  36  57  85 115 146 189 238 282 333
#     4  11  22  35  56  86 115 149 187 232 292 336
#     4  11  20  37  55  84 114 146 187 232 285 336
#     4  10  19  37  60  84 111 149 192 235 278 332
#     4  10  20  36  58  83 112 150 191 234 274 343
#
# _framework density 19.317519000000001
#
# number of rings (size 3 to 8) (size 9 to 14) (size 15 to 20)
#    0.000    1.667    3.333    2.000    2.333    0.000 
#    3.000    0.833    0.000    0.000    4.333    0.000 
#    0.000    0.000    0.000    0.000    0.000    0.000 
#
# Total GULP energy -133973.935705 kJ/mol
# GULP energy per Si atom -5582.247321 kJ/mol
# Density = 1.927355 g / cm^3
# Si number density = 19.317519 Si / 1000 Ang^3
#
#
#
# Elastic Constant Matrix: (Units=GPa)
#
#
# Indices 1 2 3 4 5 6 
#
# 1 56.6565 15.6893 39.6193 0.0000 3.1063 0.0000
# 2 15.6893 48.1824 36.9918 0.0000 17.0488 0.0000
# 3 39.6193 36.9918 119.9789 0.0000 0.3565 0.0000
# 4 0.0000 0.0000 0.0000 15.4664 0.0000 5.7213
# 5 3.1063 17.0488 0.3565 0.0000 33.3074 0.0000
# 6 0.0000 0.0000 0.0000 5.7213 0.0000 27.3501
#
#
#
# Elastic Compliance Matrix: (Units=1/GPa)
#
#
# Indices 1 2 3 4 5 6 
#
# 1 0.023164 -0.001607 -0.007150 0.000000 -0.001261 0.000000
# 2 -0.001607 0.035620 -0.010398 0.000000 -0.017971 0.000000
# 3 -0.007150 -0.010398 0.013885 0.000000 0.005841 0.000000
# 4 0.000000 0.000000 0.000000 0.070079 0.000000 -0.014660
# 5 -0.001261 -0.017971 0.005841 0.000000 0.039277 0.000000
# 6 0.000000 0.000000 0.000000 -0.014660 0.000000 0.039629
#
#
# Mechanical properties :
#
#
# Convention : Reuss Voigt Hill
#
# Bulk Modulus (GPa) = 29.10531 45.49095 37.29813
# Shear Modulus (GPa) = 18.42176 24.05928 21.24052
#
# Velocity S-wave (km/s) = 3.09144 3.53294 3.31954
# Velocity P-wave (km/s) = 5.27657 6.34369 5.83458
#
# Compressibility (1/GPa) = 0.03435800
#
# Stress axis : x y z
#
# Youngs Moduli (GPa) = 43.16965 28.07418 72.02273
#
# Poissons Ratio (x) = 0.04512 0.51497
# Poissons Ratio (y) = 0.06938 0.74891
# Poissons Ratio (z) = 0.30867 0.29192
#
# Static dielectric constant tensor:
#      x y z
#    x 1.710300 0.000000 0.023450 
#    y 0.000000 1.671250 0.000000 
#    z 0.023450 0.000000 1.708400 
# 
# From -- ./inp_files/106514.got.cif
#   From: 2010.05.17/outbox.cif.g08.bks.cpg/sg15_54_cif.got.tgz:106514.got - 2010.06.03 18:47:42.
