data_PCOD9266760
_publ_section_title
;
Structure prediction by ZEFSAII (Michael W. Deem and Ramdas Pophale) SiO2 
 PCOD9266760
Probable space group: C 2/C
;
_chemical_formula_sum "Si O2"
_cell_formula_units_Z 44
_cell_length_a 7.925204
_cell_length_b 23.250335
_cell_length_c 17.106511
_cell_angle_alpha 90.000000
_cell_angle_beta 134.355592
_cell_angle_gamma 90.000000
_cell_volume 2253.803800
_symmetry_space_group_name_H-M "C 2/C"
_symmetry_group_IT_number 15
_symmetry_cell_setting 'monoclinic'
loop_
_space_group_symop_operation_xyz
x,y,z
-x,y,1/2-z
-x,-y,-z
x,-y,1/2+z
1/2+x,1/2+y,z
1/2-x,1/2+y,1/2-z
1/2-x,1/2-y,-z
1/2+x,1/2-y,1/2+z
loop_
_atom_site_type_symbol
_atom_site_label
_atom_site_fract_x
_atom_site_fract_y
_atom_site_fract_z
Si Si1 0.245373 0.210868 0.302084
Si Si2 0.409013 0.852644 0.469407
Si Si3 0.682592 0.936800 0.919693
Si Si4 0.000000 0.215992 0.750000
Si Si5 0.814308 0.459107 0.984124
Si Si6 0.163460 0.087842 0.200382
O O1 0.415539 0.191420 0.428663
O O2 0.391151 0.246119 0.285095
O O3 0.162813 0.151884 0.233389
O O4 0.000000 0.239776 0.250000
O O5 0.294717 0.892546 0.500854
O O6 0.560748 0.897510 0.466441
O O7 0.209835 0.821521 0.355246
O O8 0.808820 0.912094 0.884407
O O9 0.403133 0.939572 0.810123
O O10 0.754002 0.001478 0.964674
O O11 0.576665 0.445437 0.860042
O O12 0.000000 0.500000 0.000000
#
# Coordination Sequence:
#
# PCOD9266760 Si02
#       6
#     8   8   8   4   8   8
#     4  11  22  42  68  86 118 169 215 257 310 373
#     4  10  22  41  59  91 123 159 204 257 313 371
#     4   9  20  35  64  91 121 164 197 253 308 367
#     4  12  26  42  62  94 124 158 214 274 320 348
#     4  10  20  34  59  89 123 163 193 244 311 370
#     4  10  19  38  60  91 121 159 214 245 297 388
#
# _framework density 19.522551
#
# number of rings (size 3 to 8) (size 9 to 14) (size 15 to 20)
#    0.000    1.818    1.818    3.273    0.000    3.636 
#    3.273    0.000    0.000    0.000    0.000    0.000 
#    0.000    0.000    0.000    0.000    0.000    0.000 
#
# Total GULP energy -122746.334548 kJ/mol
# GULP energy per Si atom -5579.378843 kJ/mol
# Density = 1.947812 g / cm^3
# Si number density = 19.522551 Si / 1000 Ang^3
#
#
#
# Elastic Constant Matrix: (Units=GPa)
#
#
# Indices 1 2 3 4 5 6 
#
# 1 83.6132 22.6107 29.3484 0.0000 12.9704 0.0000
# 2 22.6107 68.9549 54.2504 0.0000 9.3256 0.0000
# 3 29.3484 54.2504 99.7812 0.0000 13.8229 -0.0001
# 4 0.0000 0.0000 0.0000 22.1991 0.0000 10.4332
# 5 12.9704 9.3256 13.8229 0.0000 34.1192 0.0000
# 6 0.0000 0.0000 -0.0001 10.4332 0.0000 26.0488
#
#
#
# Elastic Compliance Matrix: (Units=1/GPa)
#
#
# Indices 1 2 3 4 5 6 
#
# 1 0.013975 -0.002185 -0.002404 0.000000 -0.003741 0.000000
# 2 -0.002185 0.025750 -0.013240 0.000000 -0.000843 0.000000
# 3 -0.002404 -0.013240 0.018329 0.000000 -0.002893 0.000000
# 4 0.000000 0.000000 0.000000 0.055493 0.000000 -0.022226
# 5 -0.003741 -0.000843 -0.002893 0.000000 0.032134 0.000000
# 6 0.000000 0.000000 0.000000 -0.022226 0.000000 0.047292
#
#
# Mechanical properties :
#
#
# Convention : Reuss Voigt Hill
#
# Bulk Modulus (GPa) = 44.65492 51.64092 48.14792
# Shear Modulus (GPa) = 21.17789 26.21607 23.69698
#
# Velocity S-wave (km/s) = 3.29719 3.66848 3.48778
# Velocity P-wave (km/s) = 6.11706 6.66731 6.39810
#
# Compressibility (1/GPa) = 0.02239395
#
# Stress axis : x y z
#
# Youngs Moduli (GPa) = 71.55663 38.83539 54.55969
#
# Poissons Ratio (x) = 0.08486 0.13117
# Poissons Ratio (y) = 0.15635 0.72240
# Poissons Ratio (z) = 0.17203 0.51420
#
# Static dielectric constant tensor:
#      x y z
#    x 1.778410 0.000000 -0.018140 
#    y 0.000000 1.673800 0.000000 
#    z -0.018140 0.000000 1.668220 
# 
# From -- ./inp_files/78113.got.cif
#   From: 2010.05.17/outbox.cif.g08.bks.cpg/sg15_40_cif.got.tgz:78113.got - 2010.06.03 18:47:42.
