data_PCOD9266868
_publ_section_title
;
Structure prediction by ZEFSAII (Michael W. Deem and Ramdas Pophale) SiO2 
 PCOD9266868
Probable space group: C 2/C
;
_chemical_formula_sum "Si O2"
_cell_formula_units_Z 56
_cell_length_a 26.421877
_cell_length_b 5.382751
_cell_length_c 15.867203
_cell_angle_alpha 90.000000
_cell_angle_beta 82.523367
_cell_angle_gamma 90.000000
_cell_volume 2237.485257
_symmetry_space_group_name_H-M "C 2/C"
_symmetry_group_IT_number 15
_symmetry_cell_setting 'monoclinic'
loop_
_space_group_symop_operation_xyz
x,y,z
-x,y,1/2-z
-x,-y,-z
x,-y,1/2+z
1/2+x,1/2+y,z
1/2-x,1/2+y,1/2-z
1/2-x,1/2-y,-z
1/2+x,1/2-y,1/2+z
loop_
_atom_site_type_symbol
_atom_site_label
_atom_site_fract_x
_atom_site_fract_y
_atom_site_fract_z
Si Si1 0.716532 0.940388 0.953823
Si Si2 0.907875 0.984435 0.975267
Si Si3 0.059379 0.605690 0.755747
Si Si4 0.181648 0.229032 0.600027
Si Si5 0.942106 0.513258 0.549734
Si Si6 0.716842 0.790165 0.768817
Si Si7 0.554549 0.395679 0.196981
O O1 0.696919 0.832606 0.868899
O O2 0.759075 0.143074 0.917321
O O3 0.750000 0.750000 0.000000
O O4 0.678764 0.054884 0.030977
O O5 0.857014 0.025749 0.929881
O O6 0.917103 0.223184 0.030977
O O7 0.952177 0.003267 0.895399
O O8 0.913300 0.726131 0.019863
O O9 0.076446 0.384916 0.689443
O O10 0.000000 0.657279 0.750000
O O11 0.083234 0.879506 0.738917
O O12 0.061367 0.502796 0.848960
O O13 0.177049 0.284424 0.700279
O O14 0.000000 0.500000 0.500000
O O15 0.746973 0.527664 0.760404
O O16 0.500000 0.352257 0.250000
#
# Coordination Sequence:
#
# PCOD9266868 Si02
#       7
#     8   8   8   8   8   8   8
#     4  10  20  42  74  95 143 192 233 281 358 442
#     4  12  26  42  67 103 140 175 235 304 345 418
#     4  10  20  38  63  88 119 165 229 275 331 415
#     4  10  24  42  66 107 142 182 236 298 358 420
#     4  12  24  43  69  95 131 186 234 284 357 426
#     4  10  20  38  68 101 131 185 236 278 350 435
#     4  10  19  38  62  88 125 172 218 273 343 404
#
# _framework density 25.028100999999999
#
# number of rings (size 3 to 8) (size 9 to 14) (size 15 to 20)
#    0.000    1.429    1.429    5.571    2.000    0.000 
#    2.571    1.429    0.000    0.000    0.000    0.000 
#    0.000    0.000    0.000    0.000    0.000    0.000 
#
# Total GULP energy -156448.053076 kJ/mol
# GULP energy per Si atom -5587.430467 kJ/mol
# Density = 2.497114 g / cm^3
# Si number density = 25.028101 Si / 1000 Ang^3
#
#
#
# Elastic Constant Matrix: (Units=GPa)
#
#
# Indices 1 2 3 4 5 6 
#
# 1 71.1888 30.7179 15.8948 0.0000 24.0884 0.0000
# 2 30.7179 171.1587 39.7879 0.0000 11.7547 0.0000
# 3 15.8948 39.7879 173.9979 0.0000 28.4432 0.0000
# 4 0.0000 0.0000 0.0000 48.5056 0.0000 6.8331
# 5 24.0884 11.7547 28.4432 0.0000 26.6685 0.0000
# 6 0.0000 0.0000 0.0000 6.8331 0.0000 34.5012
#
#
#
# Elastic Compliance Matrix: (Units=1/GPa)
#
#
# Indices 1 2 3 4 5 6 
#
# 1 0.021851 -0.002984 0.002056 0.000000 -0.020615 0.000000
# 2 -0.002984 0.006626 -0.001460 0.000000 0.001332 0.000000
# 3 0.002056 -0.001460 0.007378 0.000000 -0.009082 0.000000
# 4 0.000000 0.000000 0.000000 0.021208 0.000000 -0.004200
# 5 -0.020615 0.001332 -0.009082 0.000000 0.065217 0.000000
# 6 0.000000 0.000000 0.000000 -0.004200 0.000000 0.029816
#
#
# Mechanical properties :
#
#
# Convention : Reuss Voigt Hill
#
# Bulk Modulus (GPa) = 32.17617 65.46072 48.81844
# Shear Modulus (GPa) = 29.89848 43.93139 36.91494
#
# Velocity S-wave (km/s) = 3.46004 4.19415 3.84466
# Velocity P-wave (km/s) = 5.37089 7.04743 6.26549
#
# Compressibility (1/GPa) = 0.03107890
#
# Stress axis : x y z
#
# Youngs Moduli (GPa) = 45.76438 150.92003 135.53784
#
# Poissons Ratio (x) = 0.45032 -0.27868
# Poissons Ratio (y) = 0.13655 0.19793
# Poissons Ratio (z) = -0.09409 0.22040
#
# Static dielectric constant tensor:
#      x y z
#    x 2.118920 0.000000 -0.071690 
#    y 0.000000 2.098690 0.000000 
#    z -0.071690 0.000000 2.009310 
# 
# From -- ./inp_files/180106.got.cif
#   From: 2010.05.17/outbox.cif.g08.bks.cpg/sg15_91_cif.got.tgz:180106.got - 2010.06.03 18:47:42.
