data_PCOD9266347
_publ_section_title
;
Structure prediction by ZEFSAII (Michael W. Deem and Ramdas Pophale) SiO2 
 PCOD9266347
Probable space group: C 2/C
;
_chemical_formula_sum "Si O2"
_cell_formula_units_Z 40
_cell_length_a 12.385666
_cell_length_b 8.096081
_cell_length_c 27.313450
_cell_angle_alpha 90.000000
_cell_angle_beta 132.284502
_cell_angle_gamma 90.000000
_cell_volume 2026.248904
_symmetry_space_group_name_H-M "C 2/C"
_symmetry_group_IT_number 15
_symmetry_cell_setting 'monoclinic'
loop_
_space_group_symop_operation_xyz
x,y,z
-x,y,1/2-z
-x,-y,-z
x,-y,1/2+z
1/2+x,1/2+y,z
1/2-x,1/2+y,1/2-z
1/2-x,1/2-y,-z
1/2+x,1/2-y,1/2+z
loop_
_atom_site_type_symbol
_atom_site_label
_atom_site_fract_x
_atom_site_fract_y
_atom_site_fract_z
Si Si1 0.825319 0.791636 0.074160
Si Si2 0.886824 0.924927 0.925723
Si Si3 0.370840 0.677117 0.072821
Si Si4 0.853037 0.857543 0.325211
Si Si5 0.940861 0.829823 0.786024
O O1 0.734942 0.689640 0.086778
O O2 0.997957 0.749969 0.127183
O O3 0.820763 0.992150 0.073699
O O4 0.750000 0.750000 0.000000
O O5 0.987971 0.824841 0.919095
O O6 0.829208 0.068642 0.872407
O O7 0.000000 0.000000 0.000000
O O8 0.432277 0.753843 0.141820
O O9 0.250000 0.750000 0.000000
O O10 0.706362 0.773798 0.262984
O O11 0.894689 0.003510 0.300234
O O12 0.000000 0.864155 0.750000
#
# Coordination Sequence:
#
# PCOD9266347 Si02
#       5
#     8   8   8   8   8
#     4  10  19  37  63  89 123 167 204 259 317 378
#     4  10  19  38  63  89 123 159 213 258 314 384
#     4  10  24  39  60  96 126 157 217 266 315 386
#     4  10  24  40  61  92 125 166 212 261 317 391
#     4  10  24  42  61  90 127 164 207 263 317 380
#
# _framework density 19.740912999999999
#
# number of rings (size 3 to 8) (size 9 to 14) (size 15 to 20)
#    0.000    2.400    4.000    0.000    2.800   10.400 
#    0.000    0.000    0.000    0.000    0.000    0.000 
#    0.000    0.000    0.000    0.000    0.000    0.000 
#
# Total GULP energy -111387.377237 kJ/mol
# GULP energy per Si atom -5569.368862 kJ/mol
# Density = 1.969598 g / cm^3
# Si number density = 19.740913 Si / 1000 Ang^3
#
#
#
# Elastic Constant Matrix: (Units=GPa)
#
#
# Indices 1 2 3 4 5 6 
#
# 1 155.3381 55.0773 67.9411 0.0000 -6.0446 0.0000
# 2 55.0773 51.4022 53.0016 0.0000 12.4805 0.0000
# 3 67.9411 53.0016 199.5086 0.0000 6.4554 0.0000
# 4 0.0000 0.0000 0.0000 44.1048 0.0000 1.3482
# 5 -6.0446 12.4805 6.4554 0.0000 41.0259 0.0000
# 6 0.0000 0.0000 0.0000 1.3482 0.0000 42.6462
#
#
#
# Elastic Compliance Matrix: (Units=1/GPa)
#
#
# Indices 1 2 3 4 5 6 
#
# 1 0.011632 -0.013224 -0.000637 0.000000 0.005837 0.000000
# 2 -0.013224 0.044035 -0.006733 0.000000 -0.014285 0.000000
# 3 -0.000637 -0.006733 0.006990 0.000000 0.000854 0.000000
# 4 0.000000 0.000000 0.000000 0.022695 0.000000 -0.000717
# 5 0.005837 -0.014285 0.000854 0.000000 0.029446 0.000000
# 6 0.000000 0.000000 0.000000 -0.000717 0.000000 0.023471
#
#
# Mechanical properties :
#
#
# Convention : Reuss Voigt Hill
#
# Bulk Modulus (GPa) = 46.57816 84.25432 65.41624
# Shear Modulus (GPa) = 26.79330 40.90399 33.84865
#
# Velocity S-wave (km/s) = 3.68808 4.55691 4.14532
# Velocity P-wave (km/s) = 6.46389 8.39404 7.49139
#
# Compressibility (1/GPa) = 0.02146929
#
# Stress axis : x y z
#
# Youngs Moduli (GPa) = 85.96874 22.70935 143.05808
#
# Poissons Ratio (x) = 0.30032 0.09112
# Poissons Ratio (y) = 1.13688 0.96316
# Poissons Ratio (z) = 0.05476 0.15289
#
# Static dielectric constant tensor:
#      x y z
#    x 1.638460 0.000000 0.026020 
#    y 0.000000 1.713130 0.000000 
#    z 0.026020 0.000000 1.755770 
# 
# From -- ./inp_files/235874.got.cif
#   From: 2010.05.17/outbox.cif.g08.bks.cpg/sg15_118_cif.got.tgz:235874.got - 2010.06.03 18:47:42.
