data_PCOD9266668
_publ_section_title
;
Structure prediction by ZEFSAII (Michael W. Deem and Ramdas Pophale) SiO2 
 PCOD9266668
Probable space group: C 2/C
;
_chemical_formula_sum "Si O2"
_cell_formula_units_Z 52
_cell_length_a 10.967759
_cell_length_b 14.852270
_cell_length_c 22.989006
_cell_angle_alpha 90.000000
_cell_angle_beta 141.363548
_cell_angle_gamma 90.000000
_cell_volume 2338.178173
_symmetry_space_group_name_H-M "C 2/C"
_symmetry_group_IT_number 15
_symmetry_cell_setting 'monoclinic'
loop_
_space_group_symop_operation_xyz
x,y,z
-x,y,1/2-z
-x,-y,-z
x,-y,1/2+z
1/2+x,1/2+y,z
1/2-x,1/2+y,1/2-z
1/2-x,1/2-y,-z
1/2+x,1/2-y,1/2+z
loop_
_atom_site_type_symbol
_atom_site_label
_atom_site_fract_x
_atom_site_fract_y
_atom_site_fract_z
Si Si1 0.710818 0.461556 0.936744
Si Si2 0.400275 0.347634 0.875773
Si Si3 0.068928 0.499730 0.649835
Si Si4 0.438871 0.216467 0.476260
Si Si5 0.798469 0.879092 0.154770
Si Si6 0.500000 0.938006 0.750000
Si Si7 0.303300 0.314957 0.715064
O O1 0.514090 0.435351 0.895818
O O2 0.809485 0.368803 0.950000
O O3 0.665027 0.529915 0.868074
O O4 0.871156 0.504979 0.038602
O O5 0.195186 0.376997 0.826972
O O6 0.356318 0.289556 0.800997
O O7 0.550262 0.297349 0.974150
O O8 0.179332 0.586927 0.666591
O O9 0.023130 0.496753 0.700624
O O10 0.199025 0.411894 0.684362
O O11 0.661055 0.181435 0.563238
O O12 0.351692 0.240964 0.381088
O O13 0.000000 0.836824 0.250000
O O14 0.500000 0.319584 0.750000
#
# Coordination Sequence:
#
# PCOD9266668 Si02
#       7
#     8   8   8   8   8   4   8
#     4  11  20  37  66  91 118 153 214 269 301 360
#     4  11  24  39  60  90 129 167 204 251 322 382
#     4  10  19  38  58  91 116 158 207 254 302 368
#     4  11  22  38  60  99 121 156 205 266 313 369
#     4  11  20  36  68  94 119 151 214 273 303 353
#     4  10  24  40  58  80 130 174 194 238 324 392
#     4  11  19  37  65  86 119 161 207 256 316 365
#
# _framework density 22.239536999999999
#
# number of rings (size 3 to 8) (size 9 to 14) (size 15 to 20)
#    0.000    1.231    4.615    3.692    1.077    0.615 
#    0.000    7.692    0.000    0.000    0.000    0.000 
#    0.000    0.000    0.000    0.000    0.000    0.000 
#
# Total GULP energy -145284.982805 kJ/mol
# GULP energy per Si atom -5587.883954 kJ/mol
# Density = 2.218892 g / cm^3
# Si number density = 22.239537 Si / 1000 Ang^3
#
#
#
# Elastic Constant Matrix: (Units=GPa)
#
#
# Indices 1 2 3 4 5 6 
#
# 1 86.0698 10.2513 27.0533 0.0000 3.5217 0.0000
# 2 10.2513 34.2174 3.3189 0.0000 -2.0567 0.0000
# 3 27.0533 3.3189 146.6933 0.0000 0.0770 0.0000
# 4 0.0000 0.0000 0.0000 14.6322 0.0000 4.3952
# 5 3.5217 -2.0567 0.0770 0.0000 47.7441 0.0000
# 6 0.0000 0.0000 0.0000 4.3952 0.0000 0.0593
#
#
#
# Elastic Compliance Matrix: (Units=1/GPa)
#
#
# Indices 1 2 3 4 5 6 
#
# 1 0.012819 -0.003686 -0.002280 0.000000 -0.001101 0.000000
# 2 -0.003686 0.030425 -0.000010 0.000000 0.001582 0.000000
# 3 -0.002280 -0.000010 0.007238 0.000000 0.000156 0.000000
# 4 0.000000 0.000000 0.000000 -0.003214 0.000000 0.238221
# 5 -0.001101 0.001582 0.000156 0.000000 0.021094 0.000000
# 6 0.000000 0.000000 0.000000 0.238221 0.000000 -0.793072
#
#
# Mechanical properties :
#
#
# Convention : Reuss Voigt Hill
#
# Bulk Modulus (GPa) = 25.95279 38.69194 32.32237
# Shear Modulus (GPa) = -7.14372 27.57759 10.21693
#
# Velocity S-wave (km/s) = -1.79420 3.52522 2.14570
# Velocity P-wave (km/s) = 2.72081 5.83139 4.55016
#
# Compressibility (1/GPa) = 0.03853150
#
# Stress axis : x y z
#
# Youngs Moduli (GPa) = 78.00818 32.86756 138.16768
#
# Poissons Ratio (x) = 0.12113 0.31504
# Poissons Ratio (y) = 0.28750 0.00131
# Poissons Ratio (z) = 0.17787 0.00031
#
# Static dielectric constant tensor:
#      x y z
#    x 1.841580 0.000000 -0.023530 
#    y 0.000000 1.838170 0.000000 
#    z -0.023530 0.000000 1.867050 
# 
# From -- ./inp_files/270005.got.cif
#   From: 2010.05.17/outbox.cif.g08.bks.cpg/sg15_136_cif.got.tgz:270005.got - 2010.06.03 18:47:42.
