data_PCOD9266876
_publ_section_title
;
Structure prediction by ZEFSAII (Michael W. Deem and Ramdas Pophale) SiO2 
 PCOD9266876
Probable space group: C 2/C
;
_chemical_formula_sum "Si O2"
_cell_formula_units_Z 48
_cell_length_a 12.318135
_cell_length_b 16.609550
_cell_length_c 17.992356
_cell_angle_alpha 90.000000
_cell_angle_beta 135.423823
_cell_angle_gamma 90.000000
_cell_volume 2583.684378
_symmetry_space_group_name_H-M "C 2/C"
_symmetry_group_IT_number 15
_symmetry_cell_setting 'monoclinic'
loop_
_space_group_symop_operation_xyz
x,y,z
-x,y,1/2-z
-x,-y,-z
x,-y,1/2+z
1/2+x,1/2+y,z
1/2-x,1/2+y,1/2-z
1/2-x,1/2-y,-z
1/2+x,1/2-y,1/2+z
loop_
_atom_site_type_symbol
_atom_site_label
_atom_site_fract_x
_atom_site_fract_y
_atom_site_fract_z
Si Si1 0.296037 0.965324 0.471863
Si Si2 0.932470 0.746724 0.574580
Si Si3 0.000000 0.976866 0.250000
Si Si4 0.400284 0.122750 0.434600
Si Si5 0.632461 0.401606 0.692959
Si Si6 0.823259 0.515749 0.155514
Si Si7 0.500000 0.141992 0.750000
O O1 0.451649 0.916189 0.532420
O O2 0.265277 0.968511 0.544216
O O3 0.151927 0.932222 0.353962
O O4 0.332153 0.055155 0.458187
O O5 0.750000 0.750000 0.500000
O O6 0.951233 0.698584 0.507352
O O7 0.999985 0.695888 0.676664
O O8 0.011627 0.833447 0.611290
O O9 0.050944 0.033402 0.206406
O O10 0.266977 0.137926 0.309526
O O11 0.713714 0.446467 0.663947
O O12 0.000000 0.548961 0.250000
O O13 0.854629 0.419899 0.180076
#
# Coordination Sequence:
#
# PCOD9266876 Si02
#       7
#     8   8   4   8   8   8   4
#     4  10  19  38  62  90 120 160 215 260 313 371
#     4  12  23  38  58  94 130 168 202 266 331 387
#     4  10  23  36  58  93 128 158 198 266 323 366
#     4  10  19  38  64  84 120 170 206 254 314 379
#     4  11  23  39  62  94 131 162 208 263 327 377
#     4  10  20  39  67  93 115 168 218 268 305 377
#     4  10  21  38  64  91 118 162 228 256 307 382
#
# _framework density 18.578119999999998
#
# number of rings (size 3 to 8) (size 9 to 14) (size 15 to 20)
#    0.500    1.000    3.333    3.500    4.667    0.667 
#    0.000    2.500    1.833    0.000    0.000    0.000 
#    0.000    0.000    0.000    0.000    0.000    0.000 
#
# Total GULP energy -133963.382309 kJ/mol
# GULP energy per Si atom -5581.807596 kJ/mol
# Density = 1.853584 g / cm^3
# Si number density = 18.578120 Si / 1000 Ang^3
#
#
#
# Elastic Constant Matrix: (Units=GPa)
#
#
# Indices 1 2 3 4 5 6 
#
# 1 114.1513 27.3936 23.5523 0.0000 -14.3555 0.0000
# 2 27.3936 34.3194 0.4372 0.0000 -3.4224 0.0000
# 3 23.5523 0.4372 73.4658 0.0000 1.0998 0.0000
# 4 0.0000 0.0000 0.0000 20.0459 0.0000 10.2356
# 5 -14.3555 -3.4224 1.0998 0.0000 38.9824 0.0000
# 6 0.0000 0.0000 0.0000 10.2356 0.0000 2.0818
#
#
#
# Elastic Compliance Matrix: (Units=1/GPa)
#
#
# Indices 1 2 3 4 5 6 
#
# 1 0.012310 -0.009394 -0.003948 0.000000 0.003820 0.000000
# 2 -0.009394 0.036568 0.002799 0.000000 -0.000328 0.000000
# 3 -0.003948 0.002799 0.014885 0.000000 -0.001628 0.000000
# 4 0.000000 0.000000 0.000000 -0.033024 0.000000 0.162374
# 5 0.003820 -0.000328 -0.001628 0.000000 0.027076 0.000000
# 6 0.000000 0.000000 0.000000 0.162374 0.000000 -0.318001
#
#
# Mechanical properties :
#
#
# Convention : Reuss Voigt Hill
#
# Bulk Modulus (GPa) = 23.43179 36.07808 29.75494
# Shear Modulus (GPa) = -22.23459 23.59225 0.67883
#
# Velocity S-wave (km/s) = -3.46326 3.56742 0.60513
# Velocity P-wave (km/s) = 1.83091 6.03577 4.06683
#
# Compressibility (1/GPa) = 0.04267706
#
# Stress axis : x y z
#
# Youngs Moduli (GPa) = 81.23771 27.34619 67.18155
#
# Poissons Ratio (x) = 0.25690 0.26521
# Poissons Ratio (y) = 0.76317 -0.18804
# Poissons Ratio (z) = 0.32069 -0.07654
#
# Static dielectric constant tensor:
#      x y z
#    x 1.734400 0.000000 -0.000250 
#    y 0.000000 1.638420 0.000000 
#    z -0.000250 0.000000 1.678710 
# 
# From -- ./inp_files/199341.got.cif
#   From: 2010.05.17/outbox.cif.g08.bks.cpg/sg15_100_cif.got.tgz:199341.got - 2010.06.03 18:47:42.
