data_PCOD9266974
_publ_section_title
;
Structure prediction by ZEFSAII (Michael W. Deem and Ramdas Pophale) SiO2 
 PCOD9266974
Probable space group: C 2/C
;
_chemical_formula_sum "Si O2"
_cell_formula_units_Z 64
_cell_length_a 10.635066
_cell_length_b 23.383005
_cell_length_c 21.375850
_cell_angle_alpha 90.000000
_cell_angle_beta 143.460124
_cell_angle_gamma 90.000000
_cell_volume 3164.897719
_symmetry_space_group_name_H-M "C 2/C"
_symmetry_group_IT_number 15
_symmetry_cell_setting 'monoclinic'
loop_
_space_group_symop_operation_xyz
x,y,z
-x,y,1/2-z
-x,-y,-z
x,-y,1/2+z
1/2+x,1/2+y,z
1/2-x,1/2+y,1/2-z
1/2-x,1/2-y,-z
1/2+x,1/2-y,1/2+z
loop_
_atom_site_type_symbol
_atom_site_label
_atom_site_fract_x
_atom_site_fract_y
_atom_site_fract_z
Si Si1 0.497787 0.392297 0.619975
Si Si2 0.604052 0.100933 0.053114
Si Si3 0.354215 0.016907 0.137754
Si Si4 0.213915 0.113616 0.809463
Si Si5 0.045497 0.084676 0.542531
Si Si6 0.700106 0.826509 0.282073
Si Si7 0.261471 0.009200 0.293149
Si Si8 0.706577 0.693467 0.287813
O O1 0.277355 0.389808 0.568354
O O2 0.461130 0.396232 0.532211
O O3 0.621735 0.447870 0.695593
O O4 0.636402 0.337856 0.696241
O O5 0.678730 0.044542 0.120611
O O6 0.623850 0.153335 0.110038
O O7 0.378397 0.100665 0.930526
O O8 0.500000 0.044620 0.250000
O O9 0.517370 0.995167 0.151866
O O10 0.184278 0.058020 0.037957
O O11 0.220434 0.965734 0.115426
O O12 0.325976 0.148918 0.798437
O O13 0.000000 0.141826 0.750000
O O14 0.150758 0.051204 0.757677
O O15 0.114552 0.135685 0.614023
O O16 0.500000 0.833057 0.250000
O O17 0.756864 0.759735 0.301316
O O18 0.500000 0.690078 0.250000
#
# Coordination Sequence:
#
# PCOD9266974 Si02
#       8
#     8   8   8   8   8   8   8   8
#     4  10  19  38  63  94 115 155 202 259 298 363
#     4  10  21  39  62  87 118 158 205 248 300 361
#     4  11  22  38  55  90 126 164 196 252 296 378
#     4  12  26  39  59  91 130 162 199 250 310 368
#     4  11  23  35  62  88 125 161 202 243 317 359
#     4  11  23  42  65  91 121 162 207 261 303 356
#     4  11  21  37  62  85 126 156 201 239 311 364
#     4   8  19  39  66  90 116 152 211 260 300 353
#
# _framework density 20.221822
#
# number of rings (size 3 to 8) (size 9 to 14) (size 15 to 20)
#    0.000    1.500    1.250    5.625    3.500    1.000 
#    0.000    4.375    5.500    0.000    0.000    0.000 
#    0.000    0.000    0.000    0.000    0.000    0.000 
#
# Total GULP energy -178808.057079 kJ/mol
# GULP energy per Si atom -5587.751784 kJ/mol
# Density = 2.017580 g / cm^3
# Si number density = 20.221822 Si / 1000 Ang^3
#
#
#
# Elastic Constant Matrix: (Units=GPa)
#
#
# Indices 1 2 3 4 5 6 
#
# 1 61.5358 -5.3474 5.5107 0.0000 5.2772 0.0001
# 2 -5.3474 100.3943 22.7955 -0.0003 -0.8936 -0.0001
# 3 5.5107 22.7955 82.8696 -0.0010 -4.7291 -0.0003
# 4 0.0000 -0.0003 -0.0010 13.8688 0.0000 -3.8639
# 5 5.2772 -0.8936 -4.7291 0.0000 32.4826 0.0001
# 6 0.0001 -0.0001 -0.0003 -3.8639 0.0001 19.6480
#
#
#
# Elastic Compliance Matrix: (Units=1/GPa)
#
#
# Indices 1 2 3 4 5 6 
#
# 1 0.016754 0.001234 -0.001620 0.000000 -0.002924 0.000000
# 2 0.001234 0.010716 -0.003050 0.000000 -0.000350 0.000000
# 3 -0.001620 -0.003050 0.013133 0.000001 0.002091 0.000000
# 4 0.000000 0.000000 0.000001 0.076284 0.000000 0.015002
# 5 -0.002924 -0.000350 0.002091 0.000000 0.031556 0.000000
# 6 0.000000 0.000000 0.000000 0.015002 0.000000 0.053846
#
#
# Mechanical properties :
#
#
# Convention : Reuss Voigt Hill
#
# Bulk Modulus (GPa) = 29.64631 32.30192 30.97412
# Shear Modulus (GPa) = 22.68567 27.98929 25.33748
#
# Velocity S-wave (km/s) = 3.35302 3.72440 3.54358
# Velocity P-wave (km/s) = 5.44819 5.87396 5.66507
#
# Compressibility (1/GPa) = 0.03373101
#
# Stress axis : x y z
#
# Youngs Moduli (GPa) = 59.68794 93.31994 76.14316
#
# Poissons Ratio (x) = -0.11518 0.12339
# Poissons Ratio (y) = -0.07367 0.23221
# Poissons Ratio (z) = 0.09672 0.28460
#
# Static dielectric constant tensor:
#      x y z
#    x 1.755040 0.000000 -0.003400 
#    y 0.000000 1.700740 0.000000 
#    z -0.003400 0.000000 1.706390 
# 
# From -- ./inp_files/271304.got.cif
#   From: 2010.05.17/outbox.cif.g08.bks.cpg/sg15_136_cif.got.tgz:271304.got - 2010.06.03 18:47:42.
