data_PCOD9266639
_publ_section_title
;
Structure prediction by ZEFSAII (Michael W. Deem and Ramdas Pophale) SiO2 
 PCOD9266639
Probable space group: C 2/C
;
_chemical_formula_sum "Si O2"
_cell_formula_units_Z 64
_cell_length_a 7.770596
_cell_length_b 14.086346
_cell_length_c 27.279631
_cell_angle_alpha 90.000000
_cell_angle_beta 105.987293
_cell_angle_gamma 90.000000
_cell_volume 2870.518944
_symmetry_space_group_name_H-M "C 2/C"
_symmetry_group_IT_number 15
_symmetry_cell_setting 'monoclinic'
loop_
_space_group_symop_operation_xyz
x,y,z
-x,y,1/2-z
-x,-y,-z
x,-y,1/2+z
1/2+x,1/2+y,z
1/2-x,1/2+y,1/2-z
1/2-x,1/2-y,-z
1/2+x,1/2-y,1/2+z
loop_
_atom_site_type_symbol
_atom_site_label
_atom_site_fract_x
_atom_site_fract_y
_atom_site_fract_z
Si Si1 0.260095 0.589642 0.012007
Si Si2 0.233514 0.674791 0.108440
Si Si3 0.504702 0.355897 0.060246
Si Si4 0.315316 0.761194 0.211484
Si Si5 0.864442 0.609844 0.953094
Si Si6 0.802035 0.051427 0.843465
Si Si7 0.792788 0.932240 0.748872
Si Si8 0.579479 0.987968 0.142567
O O1 0.407926 0.602714 0.982143
O O2 0.068291 0.636887 0.981710
O O3 0.326940 0.635731 0.067584
O O4 0.196479 0.482879 0.019714
O O5 0.121882 0.765943 0.084330
O O6 0.355274 0.708904 0.162790
O O7 0.106104 0.590866 0.118989
O O8 0.299651 0.323372 0.046013
O O9 0.538647 0.434994 0.105523
O O10 0.500000 0.792668 0.250000
O O11 0.200894 0.853232 0.189978
O O12 0.229050 0.676469 0.236398
O O13 0.857193 0.583865 0.894832
O O14 0.790914 0.966550 0.804234
O O15 0.621249 0.042538 0.860795
O O16 0.686118 0.999718 0.702243
O O17 0.000000 0.933721 0.750000
#
# Coordination Sequence:
#
# PCOD9266639 Si02
#       8
#     8   8   8   8   8   8   8   8
#     4  10  20  39  60  86 125 164 199 256 314 353
#     4   9  21  36  59  84 125 158 198 262 301 363
#     4  11  21  38  61  92 120 160 213 247 309 368
#     4   9  19  37  58  86 117 155 202 247 304 372
#     4  10  21  36  61  88 120 156 208 255 294 369
#     4  11  21  37  63  87 116 164 203 246 314 374
#     4  10  20  35  56  84 115 152 200 252 300 368
#     4  10  19  38  57  82 118 160 197 251 312 356
#
# _framework density 22.295622000000002
#
# number of rings (size 3 to 8) (size 9 to 14) (size 15 to 20)
#    0.000    2.000    1.250    2.625    0.000    1.500 
#    0.000    7.500    2.750    0.000    0.000    0.000 
#    0.000    0.000    0.000    0.000    0.000    0.000 
#
# Total GULP energy -178616.656757 kJ/mol
# GULP energy per Si atom -5581.770524 kJ/mol
# Density = 2.224488 g / cm^3
# Si number density = 22.295622 Si / 1000 Ang^3
#
#
#
# Elastic Constant Matrix: (Units=GPa)
#
#
# Indices 1 2 3 4 5 6 
#
# 1 89.8631 -2.3908 16.3730 0.0000 -15.6013 0.0000
# 2 -2.3908 43.2122 30.0740 0.0000 -8.4432 0.0000
# 3 16.3730 30.0740 70.6462 0.0000 -24.2150 0.0000
# 4 0.0000 0.0000 0.0000 30.8011 0.0000 5.4358
# 5 -15.6013 -8.4432 -24.2150 0.0000 32.6070 0.0000
# 6 0.0000 0.0000 0.0000 5.4358 0.0000 14.3585
#
#
#
# Elastic Compliance Matrix: (Units=1/GPa)
#
#
# Indices 1 2 3 4 5 6 
#
# 1 0.012575 0.003571 -0.002757 0.000000 0.004894 0.000000
# 2 0.003571 0.034054 -0.015717 0.000000 -0.001146 0.000000
# 3 -0.002757 -0.015717 0.026343 0.000000 0.014175 0.000000
# 4 0.000000 0.000000 0.000000 0.034791 0.000000 -0.013171
# 5 0.004894 -0.001146 0.014175 0.000000 0.043240 0.000000
# 6 0.000000 0.000000 0.000000 -0.013171 0.000000 0.074632
#
#
# Mechanical properties :
#
#
# Convention : Reuss Voigt Hill
#
# Bulk Modulus (GPa) = 23.16662 32.42599 27.79630
# Shear Modulus (GPa) = 18.53029 26.19767 22.36398
#
# Velocity S-wave (km/s) = 2.88604 3.43157 3.17056
# Velocity P-wave (km/s) = 4.63884 5.50237 5.08896
#
# Compressibility (1/GPa) = 0.04316556
#
# Stress axis : x y z
#
# Youngs Moduli (GPa) = 79.52296 29.36550 37.96052
#
# Poissons Ratio (x) = -0.10486 0.10466
# Poissons Ratio (y) = -0.28395 0.59662
# Poissons Ratio (z) = 0.21924 0.46153
#
# Static dielectric constant tensor:
#      x y z
#    x 1.807010 0.000000 0.022220 
#    y 0.000000 1.874550 0.000000 
#    z 0.022220 0.000000 1.858090 
# 
# From -- ./inp_files/288792.got.cif
#   From: 2010.05.17/outbox.cif.g08.bks.cpg/sg15_145_cif.got.tgz:288792.got - 2010.06.03 18:47:42.
