data_PCOD9266617
_publ_section_title
;
Structure prediction by ZEFSAII (Michael W. Deem and Ramdas Pophale) SiO2 
 PCOD9266617
Probable space group: C 2/C
;
_chemical_formula_sum "Si O2"
_cell_formula_units_Z 36
_cell_length_a 10.026389
_cell_length_b 10.026326
_cell_length_c 22.318447
_cell_angle_alpha 90.000000
_cell_angle_beta 102.980120
_cell_angle_gamma 90.000000
_cell_volume 2186.296388
_symmetry_space_group_name_H-M "C 2/C"
_symmetry_group_IT_number 15
_symmetry_cell_setting 'monoclinic'
loop_
_space_group_symop_operation_xyz
x,y,z
-x,y,1/2-z
-x,-y,-z
x,-y,1/2+z
1/2+x,1/2+y,z
1/2-x,1/2+y,1/2-z
1/2-x,1/2-y,-z
1/2+x,1/2-y,1/2+z
loop_
_atom_site_type_symbol
_atom_site_label
_atom_site_fract_x
_atom_site_fract_y
_atom_site_fract_z
Si Si1 0.000000 0.374998 0.750000
Si Si2 0.051730 0.484857 0.073171
Si Si3 0.728557 0.734852 0.926829
Si Si4 0.306382 0.987426 0.137915
Si Si5 0.081532 0.762580 0.137913
O O1 0.112991 0.465771 0.794434
O O2 0.068552 0.284225 0.705563
O O3 0.168503 0.375003 0.087003
O O4 0.105988 0.627080 0.102583
O O5 0.924217 0.445305 0.102585
O O6 0.000000 0.500000 0.000000
O O7 0.753401 0.877073 0.897415
O O8 0.571631 0.695298 0.897417
O O9 0.750000 0.750000 0.000000
O O10 0.194021 0.875003 0.138043
#
# Coordination Sequence:
#
# PCOD9266617 Si02
#       5
#     4   8   8   8   8
#     4   8  20  40  56  76 120 144 188 248 288 316
#     4  10  19  38  55  81 120 149 177 228 281 335
#     4  10  19  38  55  81 120 149 177 228 281 335
#     4  10  22  37  60  85 108 154 194 231 284 339
#     4  10  22  37  60  85 108 154 194 231 284 339
#
# _framework density 16.466204000000001
#
# number of rings (size 3 to 8) (size 9 to 14) (size 15 to 20)
#    0.000    2.667    4.444    0.000    0.000   10.667 
#    0.000    0.000    0.000    0.000    0.000    0.000 
#    0.000    0.000    0.000    0.000    0.000    0.000 
#
# Total GULP energy -100325.436885 kJ/mol
# GULP energy per Si atom -5573.635382 kJ/mol
# Density = 1.642873 g / cm^3
# Si number density = 16.466204 Si / 1000 Ang^3
#
#
#
# Elastic Constant Matrix: (Units=GPa)
#
#
# Indices 1 2 3 4 5 6 
#
# 1 153.5179 121.1219 69.6061 0.0000 -3.2956 0.0000
# 2 121.1219 153.8392 69.4173 0.0000 -2.6061 0.0000
# 3 69.6061 69.4173 147.1910 0.0000 2.9879 0.0000
# 4 0.0000 0.0000 0.0000 9.4100 0.0000 -2.6245
# 5 -3.2956 -2.6061 2.9879 0.0000 9.5956 0.0000
# 6 0.0000 0.0000 0.0000 -2.6245 0.0000 61.4047
#
#
#
# Elastic Compliance Matrix: (Units=1/GPa)
#
#
# Indices 1 2 3 4 5 6 
#
# 1 0.017893 -0.012933 -0.002431 0.000000 0.003390 0.000000
# 2 -0.012933 0.017723 -0.002264 0.000000 0.001076 0.000000
# 3 -0.002431 -0.002264 0.009098 0.000000 -0.004283 0.000000
# 4 0.000000 0.000000 0.000000 0.107552 0.000000 0.004597
# 5 0.003390 0.001076 -0.004283 0.000000 0.107004 0.000000
# 6 0.000000 0.000000 0.000000 0.004597 0.000000 0.016482
#
#
# Mechanical properties :
#
#
# Convention : Reuss Voigt Hill
#
# Bulk Modulus (GPa) = 105.73552 108.31542 107.02547
# Shear Modulus (GPa) = 15.91544 29.04225 22.47885
#
# Velocity S-wave (km/s) = 3.11231 4.20426 3.69880
# Velocity P-wave (km/s) = 8.79024 9.45997 9.13125
#
# Compressibility (1/GPa) = 0.00945756
#
# Stress axis : x y z
#
# Youngs Moduli (GPa) = 55.88833 56.42421 109.91288
#
# Poissons Ratio (x) = 0.72975 0.26717
# Poissons Ratio (y) = 0.72282 0.24886
# Poissons Ratio (z) = 0.13585 0.12775
#
# Static dielectric constant tensor:
#      x y z
#    x 1.537460 0.000000 0.001150 
#    y 0.000000 1.537400 0.000000 
#    z 0.001150 0.000000 1.560290 
# 
# From -- ./inp_files/229534.got.cif
#   From: 2010.05.17/outbox.cif.g08.bks.cpg/sg15_115_cif.got.tgz:229534.got - 2010.06.03 18:47:42.
