data_PCOD9266718
_publ_section_title
;
Structure prediction by ZEFSAII (Michael W. Deem and Ramdas Pophale) SiO2 
 PCOD9266718
Probable space group: C 2/C
;
_chemical_formula_sum "Si O2"
_cell_formula_units_Z 56
_cell_length_a 16.429980
_cell_length_b 14.024087
_cell_length_c 27.801918
_cell_angle_alpha 90.000000
_cell_angle_beta 26.313347
_cell_angle_gamma 90.000000
_cell_volume 2839.648215
_symmetry_space_group_name_H-M "C 2/C"
_symmetry_group_IT_number 15
_symmetry_cell_setting 'monoclinic'
loop_
_space_group_symop_operation_xyz
x,y,z
-x,y,1/2-z
-x,-y,-z
x,-y,1/2+z
1/2+x,1/2+y,z
1/2-x,1/2+y,1/2-z
1/2-x,1/2-y,-z
1/2+x,1/2-y,1/2+z
loop_
_atom_site_type_symbol
_atom_site_label
_atom_site_fract_x
_atom_site_fract_y
_atom_site_fract_z
Si Si1 0.727898 0.723361 0.592837
Si Si2 0.392462 0.092015 0.760534
Si Si3 0.729091 0.543375 0.527942
Si Si4 0.453714 0.643709 0.612271
Si Si5 0.795780 0.280254 0.169599
Si Si6 0.141090 0.658851 0.539296
Si Si7 0.555125 0.115819 0.294627
O O1 0.679509 0.623424 0.593396
O O2 0.752655 0.706686 0.636252
O O3 0.576376 0.804368 0.660296
O O4 0.913428 0.768316 0.471608
O O5 0.500000 0.129720 0.750000
O O6 0.185481 0.123498 0.857602
O O7 0.514870 0.124378 0.650556
O O8 0.392948 0.977098 0.762936
O O9 0.591949 0.559600 0.555437
O O10 0.738156 0.433621 0.538300
O O11 0.932258 0.575341 0.403025
O O12 0.330534 0.664208 0.724782
O O13 0.740545 0.170820 0.209854
O O14 0.003217 0.308992 0.070513
O O15 0.250000 0.750000 0.500000
#
# Coordination Sequence:
#
# PCOD9266718 Si02
#       7
#     8   8   8   8   8   8   8
#     4  11  20  36  68  87 122 152 204 251 293 358
#     4  10  22  38  61  85 121 156 203 243 304 365
#     4  10  20  40  61  85 124 155 201 247 303 347
#     4  10  21  38  60  92 118 162 193 252 303 344
#     4  11  21  36  62  89 120 157 203 240 305 351
#     4  10  25  41  56  86 124 160 195 254 297 364
#     4  10  19  38  59  94 118 148 198 259 290 353
#
# _framework density 19.720752000000001
#
# number of rings (size 3 to 8) (size 9 to 14) (size 15 to 20)
#    0.000    1.714    2.857    2.143    4.000    0.571 
#    0.000    2.857    3.143    0.000    0.000    0.000 
#    0.000    0.000    0.000    0.000    0.000    0.000 
#
# Total GULP energy -156074.269379 kJ/mol
# GULP energy per Si atom -5574.081049 kJ/mol
# Density = 1.967587 g / cm^3
# Si number density = 19.720752 Si / 1000 Ang^3
#
#
#
# Elastic Constant Matrix: (Units=GPa)
#
#
# Indices 1 2 3 4 5 6 
#
# 1 111.2813 50.4148 22.9240 -0.0039 -20.4780 -0.0004
# 2 50.4148 135.1868 31.3782 -0.0030 -26.7207 -0.0006
# 3 22.9240 31.3782 45.9867 -0.0231 -15.8641 -0.0020
# 4 -0.0039 -0.0030 -0.0231 19.2061 0.0026 -6.3328
# 5 -20.4780 -26.7207 -15.8641 0.0026 29.7603 0.0008
# 6 -0.0004 -0.0006 -0.0020 -6.3328 0.0008 15.4394
#
#
#
# Elastic Compliance Matrix: (Units=1/GPa)
#
#
# Indices 1 2 3 4 5 6 
#
# 1 0.011556 -0.002968 -0.002343 -0.000002 0.004039 -0.000001
# 2 -0.002968 0.010436 -0.003815 -0.000005 0.005294 -0.000003
# 3 -0.002343 -0.003815 0.029137 0.000039 0.010494 0.000019
# 4 -0.000002 -0.000005 0.000039 0.060210 0.000009 0.024696
# 5 0.004039 0.005294 0.010494 0.000009 0.046728 0.000003
# 6 -0.000001 -0.000003 0.000019 0.024696 0.000003 0.074899
#
#
# Mechanical properties :
#
#
# Convention : Reuss Voigt Hill
#
# Bulk Modulus (GPa) = 30.41522 55.76542 43.09032
# Shear Modulus (GPa) = 19.07112 25.39702 22.23407
#
# Velocity S-wave (km/s) = 3.11313 3.59253 3.36139
# Velocity P-wave (km/s) = 5.32715 6.74887 6.07971
#
# Compressibility (1/GPa) = 0.03287827
#
# Stress axis : x y z
#
# Youngs Moduli (GPa) = 86.53139 95.82341 34.32115
#
# Poissons Ratio (x) = 0.28438 0.08040
# Poissons Ratio (y) = 0.25680 0.13093
# Poissons Ratio (z) = 0.20271 0.36556
#
# Static dielectric constant tensor:
#      x y z
#    x 1.731710 0.000000 -0.013220 
#    y 0.000000 1.704740 0.000000 
#    z -0.013220 0.000000 1.735690 
# 
# From -- ./inp_files/296537.got.cif
#   From: 2010.05.17/outbox.cif.g08.bks.cpg/sg15_149_cif.got.tgz:296537.got - 2010.06.03 18:47:42.
