data_PCOD9266270
_publ_section_title
;
Structure prediction by ZEFSAII (Michael W. Deem and Ramdas Pophale) SiO2 
 PCOD9266270
Probable space group: C 2/C
;
_chemical_formula_sum "Si O2"
_cell_formula_units_Z 64
_cell_length_a 10.129311
_cell_length_b 18.047219
_cell_length_c 32.322727
_cell_angle_alpha 90.000000
_cell_angle_beta 143.224417
_cell_angle_gamma 90.000000
_cell_volume 3537.485036
_symmetry_space_group_name_H-M "C 2/C"
_symmetry_group_IT_number 15
_symmetry_cell_setting 'monoclinic'
loop_
_space_group_symop_operation_xyz
x,y,z
-x,y,1/2-z
-x,-y,-z
x,-y,1/2+z
1/2+x,1/2+y,z
1/2-x,1/2+y,1/2-z
1/2-x,1/2-y,-z
1/2+x,1/2-y,1/2+z
loop_
_atom_site_type_symbol
_atom_site_label
_atom_site_fract_x
_atom_site_fract_y
_atom_site_fract_z
Si Si1 0.171069 0.958051 0.930240
Si Si2 0.984743 0.542053 0.431529
Si Si3 0.502026 0.219376 0.438783
Si Si4 0.693766 0.282902 0.940770
Si Si5 0.242072 0.216166 0.792360
Si Si6 0.248841 0.460998 0.200267
Si Si7 0.244010 0.199952 0.697434
Si Si8 0.745036 0.970561 0.294425
O O1 0.297039 0.976105 0.918765
O O2 0.202849 0.871622 0.946609
O O3 0.917015 0.977719 0.860750
O O4 0.290748 0.006648 0.995005
O O5 0.002120 0.630501 0.433942
O O6 0.911057 0.504010 0.370687
O O7 0.750000 0.250000 0.500000
O O8 0.367756 0.237710 0.447616
O O9 0.380438 0.255145 0.368979
O O10 0.449238 0.258050 0.864673
O O11 0.750000 0.250000 0.000000
O O12 0.288031 0.127887 0.809766
O O13 0.226766 0.230964 0.739451
O O14 0.000000 0.232440 0.750000
O O15 0.500000 0.473977 0.250000
O O16 0.229823 0.487888 0.242268
O O17 0.500000 0.199051 0.750000
O O18 0.168273 0.114163 0.679616
O O19 0.500000 0.974484 0.250000
#
# Coordination Sequence:
#
# PCOD9266270 Si02
#       8
#     8   8   8   8   8   8   8   8
#     4  10  21  39  60  84 117 154 191 242 292 340
#     4  10  21  38  62  87 111 150 203 242 281 342
#     4  11  24  40  62  87 117 157 200 246 292 348
#     4  11  24  41  60  86 122 156 195 246 296 350
#     4  10  22  37  62  91 118 157 194 237 294 352
#     4  10  19  37  62  89 114 150 199 238 282 350
#     4  10  20  39  61  86 120 155 195 240 295 351
#     4  10  21  37  59  87 121 152 185 239 298 346
#
# _framework density 18.091947999999999
#
# number of rings (size 3 to 8) (size 9 to 14) (size 15 to 20)
#    0.000    1.750    2.500    1.500    1.750    2.000 
#    2.250    0.625    0.000    0.000    0.000    0.000 
#    0.000    0.000    0.000    0.000    0.000    0.000 
#
# Total GULP energy -178655.042647 kJ/mol
# GULP energy per Si atom -5582.970083 kJ/mol
# Density = 1.805077 g / cm^3
# Si number density = 18.091948 Si / 1000 Ang^3
#
#
#
# Elastic Constant Matrix: (Units=GPa)
#
#
# Indices 1 2 3 4 5 6 
#
# 1 111.8075 36.7581 67.4906 0.0000 -21.2956 0.0000
# 2 36.7581 58.7242 61.5161 0.0000 -16.5102 0.0000
# 3 67.4906 61.5161 139.4539 -0.0001 -21.1572 0.0000
# 4 0.0000 0.0000 -0.0001 38.9814 0.0000 1.3527
# 5 -21.2956 -16.5102 -21.1572 0.0000 33.7965 0.0000
# 6 0.0000 0.0000 0.0000 1.3527 0.0000 29.8749
#
#
#
# Elastic Compliance Matrix: (Units=1/GPa)
#
#
# Indices 1 2 3 4 5 6 
#
# 1 0.013422 -0.001971 -0.004960 0.000000 0.004389 0.000000
# 2 -0.001971 0.033730 -0.012832 0.000000 0.007202 0.000000
# 3 -0.004960 -0.012832 0.015256 0.000000 0.000156 0.000000
# 4 0.000000 0.000000 0.000000 0.025694 0.000000 -0.001163
# 5 0.004389 0.007202 0.000156 0.000000 0.035971 0.000000
# 6 0.000000 0.000000 0.000000 -0.001163 0.000000 0.033526
#
#
# Mechanical properties :
#
#
# Convention : Reuss Voigt Hill
#
# Bulk Modulus (GPa) = 43.70635 71.27945 57.49290
# Shear Modulus (GPa) = 24.41972 30.14527 27.28250
#
# Velocity S-wave (km/s) = 3.67789 4.08637 3.88750
# Velocity P-wave (km/s) = 6.49970 7.85802 7.21092
#
# Compressibility (1/GPa) = 0.02287997
#
# Stress axis : x y z
#
# Youngs Moduli (GPa) = 74.50285 29.64723 65.54934
#
# Poissons Ratio (x) = 0.05845 0.32515
# Poissons Ratio (y) = 0.14688 0.84114
# Poissons Ratio (z) = 0.36956 0.38044
#
# Static dielectric constant tensor:
#      x y z
#    x 1.641220 0.000000 -0.031480 
#    y 0.000000 1.616150 0.000000 
#    z -0.031480 0.000000 1.624250 
# 
# From -- ./inp_files/233883.got.cif
#   From: 2010.05.17/outbox.cif.g08.bks.cpg/sg15_117_cif.got.tgz:233883.got - 2010.06.03 18:47:42.
