data_PCOD9266556
_publ_section_title
;
Structure prediction by ZEFSAII (Michael W. Deem and Ramdas Pophale) SiO2 
 PCOD9266556
Probable space group: C 2/C
;
_chemical_formula_sum "Si O2"
_cell_formula_units_Z 56
_cell_length_a 27.515237
_cell_length_b 15.046831
_cell_length_c 16.901365
_cell_angle_alpha 90.000000
_cell_angle_beta 21.067373
_cell_angle_gamma 90.000000
_cell_volume 2515.343338
_symmetry_space_group_name_H-M "C 2/C"
_symmetry_group_IT_number 15
_symmetry_cell_setting 'monoclinic'
loop_
_space_group_symop_operation_xyz
x,y,z
-x,y,1/2-z
-x,-y,-z
x,-y,1/2+z
1/2+x,1/2+y,z
1/2-x,1/2+y,1/2-z
1/2-x,1/2-y,-z
1/2+x,1/2-y,1/2+z
loop_
_atom_site_type_symbol
_atom_site_label
_atom_site_fract_x
_atom_site_fract_y
_atom_site_fract_z
Si Si1 0.490717 0.229425 0.008640
Si Si2 0.361808 0.647244 0.103610
Si Si3 0.331448 0.295045 0.475949
Si Si4 0.805382 0.946834 0.198900
Si Si5 0.274642 0.892521 0.006835
Si Si6 0.525466 0.052739 0.041155
Si Si7 0.914835 0.239805 0.459810
O O1 0.544533 0.316580 0.968962
O O2 0.513635 0.227961 0.880616
O O3 0.329762 0.215948 0.260256
O O4 0.551647 0.151527 0.968488
O O5 0.395545 0.682117 0.963230
O O6 0.375773 0.541242 0.079301
O O7 0.213133 0.691540 0.348340
O O8 0.359491 0.197073 0.400441
O O9 0.324356 0.365749 0.415189
O O10 0.792538 0.926095 0.311382
O O11 0.655879 0.968757 0.393282
O O12 0.863335 0.858849 0.066715
O O13 0.389888 0.956117 0.798089
O O14 0.500000 0.000000 0.000000
O O15 0.000000 0.235259 0.250000
#
# Coordination Sequence:
#
# PCOD9266556 Si02
#       7
#     8   8   8   8   8   8   8
#     4  10  20  42  69  87 130 180 214 273 339 405
#     4  11  23  43  68  96 131 178 227 279 340 404
#     4   9  19  40  65  96 130 166 218 281 334 399
#     4  12  23  42  66  98 137 174 231 281 334 413
#     4  10  19  37  67  93 129 171 212 275 339 394
#     4  11  22  39  67 101 130 168 224 282 336 394
#     4  11  25  47  65  95 141 178 228 282 343 412
#
# _framework density 22.263362000000001
#
# number of rings (size 3 to 8) (size 9 to 14) (size 15 to 20)
#    0.000    1.429    4.286    3.000    0.000    4.571 
#    5.143    5.000    0.000    0.000    0.000    0.000 
#    0.000    0.000    0.000    0.000    0.000    0.000 
#
# Total GULP energy -156416.479891 kJ/mol
# GULP energy per Si atom -5586.302853 kJ/mol
# Density = 2.221269 g / cm^3
# Si number density = 22.263362 Si / 1000 Ang^3
#
#
#
# Elastic Constant Matrix: (Units=GPa)
#
#
# Indices 1 2 3 4 5 6 
#
# 1 147.8202 -5.8355 40.7532 0.0000 20.1796 0.0000
# 2 -5.8355 68.5198 5.9577 0.0001 10.9391 0.0000
# 3 40.7532 5.9577 76.9167 0.0001 38.7308 0.0000
# 4 0.0000 0.0001 0.0001 31.1165 0.0000 2.4347
# 5 20.1796 10.9391 38.7308 0.0000 51.2173 0.0000
# 6 0.0000 0.0000 0.0000 2.4347 0.0000 36.5731
#
#
#
# Elastic Compliance Matrix: (Units=1/GPa)
#
#
# Indices 1 2 3 4 5 6 
#
# 1 0.007999 0.001078 -0.004229 0.000000 -0.000184 0.000000
# 2 0.001078 0.015281 0.000165 0.000000 -0.003814 0.000000
# 3 -0.004229 0.000165 0.023267 0.000000 -0.015964 0.000000
# 4 0.000000 0.000000 0.000000 0.032306 0.000000 -0.002151
# 5 -0.000184 -0.003814 -0.015964 0.000000 0.032484 0.000000
# 6 0.000000 0.000000 0.000000 -0.002151 0.000000 0.027486
#
#
# Mechanical properties :
#
#
# Convention : Reuss Voigt Hill
#
# Bulk Modulus (GPa) = 24.64497 41.66751 33.15624
# Shear Modulus (GPa) = 31.58212 40.60679 36.09445
#
# Velocity S-wave (km/s) = 3.77048 4.27538 4.03084
# Velocity P-wave (km/s) = 5.48170 6.56721 6.04886
#
# Compressibility (1/GPa) = 0.04057623
#
# Stress axis : x y z
#
# Youngs Moduli (GPa) = 125.02340 65.44250 42.97844
#
# Poissons Ratio (x) = -0.07056 0.18175
# Poissons Ratio (y) = -0.13480 -0.00711
# Poissons Ratio (z) = 0.52870 -0.01083
#
# Static dielectric constant tensor:
#      x y z
#    x 1.800870 0.000000 -0.014880 
#    y 0.000000 1.701120 0.000000 
#    z -0.014880 0.000000 1.880360 
# 
# From -- ./inp_files/173813.got.cif
#   From: 2010.05.17/outbox.cif.g08.bks.cpg/sg15_87_cif.got.tgz:173813.got - 2010.06.03 18:47:42.
