data_PCOD9266936
_publ_section_title
;
Structure prediction by ZEFSAII (Michael W. Deem and Ramdas Pophale) SiO2 
 PCOD9266936
Probable space group: C 2/C
;
_chemical_formula_sum "Si O2"
_cell_formula_units_Z 36
_cell_length_a 6.972358
_cell_length_b 21.511904
_cell_length_c 19.407049
_cell_angle_alpha 90.000000
_cell_angle_beta 32.728902
_cell_angle_gamma 90.000000
_cell_volume 1573.787453
_symmetry_space_group_name_H-M "C 2/C"
_symmetry_group_IT_number 15
_symmetry_cell_setting 'monoclinic'
loop_
_space_group_symop_operation_xyz
x,y,z
-x,y,1/2-z
-x,-y,-z
x,-y,1/2+z
1/2+x,1/2+y,z
1/2-x,1/2+y,1/2-z
1/2-x,1/2-y,-z
1/2+x,1/2-y,1/2+z
loop_
_atom_site_type_symbol
_atom_site_label
_atom_site_fract_x
_atom_site_fract_y
_atom_site_fract_z
Si Si1 0.251392 0.095498 0.758037
Si Si2 0.401940 0.025960 0.360651
Si Si3 0.524374 0.747241 0.998497
Si Si4 0.164449 0.357732 0.527240
Si Si5 0.000000 0.801817 0.250000
O O1 0.500000 0.098458 0.750000
O O2 0.293639 0.152002 0.692575
O O3 0.342513 0.030656 0.695438
O O4 0.858068 0.104702 0.907250
O O5 0.500000 0.035545 0.250000
O O6 0.465669 0.090139 0.381066
O O7 0.000000 0.000000 0.500000
O O8 0.466522 0.684503 0.973652
O O9 0.131876 0.760844 0.147663
O O10 0.596533 0.806493 0.927392
O O11 0.750000 0.750000 0.000000
#
# Coordination Sequence:
#
# PCOD9266936 Si02
#       5
#     8   8   8   8   4
#     4  10  19  38  63  88 130 171 213 269 338 391
#     4  11  21  38  68  97 135 182 221 280 341 404
#     4  10  22  40  66  91 129 173 223 285 334 396
#     4  10  21  40  61  96 128 172 228 273 336 413
#     4  10  22  38  64  96 120 174 224 266 346 418
#
# _framework density 22.874752000000001
#
# number of rings (size 3 to 8) (size 9 to 14) (size 15 to 20)
#    0.000    1.778    4.444    1.333    1.556    0.000 
#    0.000    8.889    0.000    0.000    0.000    0.000 
#    0.000    0.000    0.000    0.000    0.000    0.000 
#
# Total GULP energy -100324.195307 kJ/mol
# GULP energy per Si atom -5573.566406 kJ/mol
# Density = 2.282269 g / cm^3
# Si number density = 22.874752 Si / 1000 Ang^3
#
#
#
# Elastic Constant Matrix: (Units=GPa)
#
#
# Indices 1 2 3 4 5 6 
#
# 1 127.9000 37.0844 11.0097 -0.0002 9.7999 0.0000
# 2 37.0844 152.4933 59.3866 0.0002 6.7965 -0.0001
# 3 11.0097 59.3866 95.2085 -0.0032 31.2077 0.0015
# 4 -0.0002 0.0002 -0.0032 48.8712 0.0011 26.4790
# 5 9.7999 6.7965 31.2077 0.0011 22.5101 -0.0006
# 6 0.0000 -0.0001 0.0015 26.4790 -0.0006 33.5070
#
#
#
# Elastic Compliance Matrix: (Units=1/GPa)
#
#
# Indices 1 2 3 4 5 6 
#
# 1 0.009056 -0.003238 0.003564 0.000001 -0.007906 -0.000001
# 2 -0.003238 0.010925 -0.010670 -0.000003 0.012903 0.000003
# 3 0.003564 -0.010670 0.029692 0.000007 -0.039495 -0.000008
# 4 0.000001 -0.000003 0.000007 0.035783 -0.000012 -0.028278
# 5 -0.007906 0.012903 -0.039495 -0.000012 0.098726 0.000013
# 6 -0.000001 0.000003 -0.000008 -0.028278 0.000013 0.052191
#
#
# Mechanical properties :
#
#
# Convention : Reuss Voigt Hill
#
# Bulk Modulus (GPa) = 34.49913 65.61811 50.05862
# Shear Modulus (GPa) = 18.74606 38.85240 28.79923
#
# Velocity S-wave (km/s) = 2.86581 4.12574 3.55208
# Velocity P-wave (km/s) = 5.10539 7.17243 6.22530
#
# Compressibility (1/GPa) = 0.02898623
#
# Stress axis : x y z
#
# Youngs Moduli (GPa) = 110.41868 91.53198 33.67909
#
# Poissons Ratio (x) = 0.29638 -0.12003
# Poissons Ratio (y) = 0.35753 0.35934
# Poissons Ratio (z) = -0.39352 0.97661
#
# Static dielectric constant tensor:
#      x y z
#    x 1.932320 0.000000 -0.059590 
#    y 0.000000 1.898750 0.000000 
#    z -0.059590 0.000000 1.937240 
# 
# From -- ./inp_files/129022.got.cif
#   From: 2010.05.17/outbox.cif.g08.bks.cpg/sg15_65_cif.got.tgz:129022.got - 2010.06.03 18:47:42.
