data_PCOD9266979
_publ_section_title
;
Structure prediction by ZEFSAII (Michael W. Deem and Ramdas Pophale) SiO2 
 PCOD9266979
Probable space group: C 2/C
;
_chemical_formula_sum "Si O2"
_cell_formula_units_Z 64
_cell_length_a 13.488872
_cell_length_b 28.476112
_cell_length_c 12.620289
_cell_angle_alpha 90.000000
_cell_angle_beta 40.580695
_cell_angle_gamma 90.000000
_cell_volume 3153.444421
_symmetry_space_group_name_H-M "C 2/C"
_symmetry_group_IT_number 15
_symmetry_cell_setting 'monoclinic'
loop_
_space_group_symop_operation_xyz
x,y,z
-x,y,1/2-z
-x,-y,-z
x,-y,1/2+z
1/2+x,1/2+y,z
1/2-x,1/2+y,1/2-z
1/2-x,1/2-y,-z
1/2+x,1/2-y,1/2+z
loop_
_atom_site_type_symbol
_atom_site_label
_atom_site_fract_x
_atom_site_fract_y
_atom_site_fract_z
Si Si1 0.850569 0.866805 0.681735
Si Si2 0.826597 0.962094 0.343755
Si Si3 0.509432 0.275429 0.618582
Si Si4 0.297188 0.195291 0.756658
Si Si5 0.808369 0.093113 0.637485
Si Si6 0.820213 0.384097 0.895954
Si Si7 0.183889 0.066828 0.103815
Si Si8 0.820472 0.793265 0.380401
O O1 0.890213 0.811774 0.661308
O O2 0.744439 0.879243 0.669739
O O3 0.782908 0.890196 0.843477
O O4 0.017440 0.888985 0.521062
O O5 0.812765 0.939632 0.237663
O O6 0.729434 0.931585 0.505115
O O7 0.000000 0.960224 0.250000
O O8 0.773667 0.016102 0.384547
O O9 0.500000 0.285359 0.750000
O O10 0.455247 0.222518 0.640885
O O11 0.678345 0.286770 0.441559
O O12 0.295686 0.139012 0.759890
O O13 0.222621 0.210187 0.706684
O O14 0.762499 0.071450 0.561113
O O15 0.000000 0.379098 0.750000
O O16 0.745745 0.341684 0.021864
O O17 0.000000 0.066891 0.250000
O O18 0.750000 0.750000 0.500000
O O19 0.000000 0.793588 0.250000
#
# Coordination Sequence:
#
# PCOD9266979 Si02
#       8
#     8   8   8   8   8   8   8   8
#     4  10  20  39  62  92 128 162 207 267 321 372
#     4  11  21  38  66  93 122 162 210 267 326 380
#     4  11  23  40  63  91 125 168 209 256 308 369
#     4  11  22  38  61  90 126 166 205 255 307 374
#     4  10  19  38  63  94 129 157 210 266 322 376
#     4  12  25  40  60  90 126 172 211 258 314 381
#     4   9  21  34  65 100 121 157 211 274 325 381
#     4  12  23  40  62  93 126 165 208 260 319 375
#
# _framework density 20.295268
#
# number of rings (size 3 to 8) (size 9 to 14) (size 15 to 20)
#    0.000    1.250    2.500    6.000    1.750    2.500 
#    0.000    0.625    0.000    0.000    0.000    0.000 
#    0.000    0.000    0.000    0.000    0.000    0.000 
#
# Total GULP energy -178850.042150 kJ/mol
# GULP energy per Si atom -5589.063817 kJ/mol
# Density = 2.024908 g / cm^3
# Si number density = 20.295268 Si / 1000 Ang^3
#
#
#
# Elastic Constant Matrix: (Units=GPa)
#
#
# Indices 1 2 3 4 5 6 
#
# 1 33.1749 -4.1148 13.1474 0.0000 13.2295 0.0000
# 2 -4.1148 72.7087 -1.3604 0.0000 -2.7027 0.0000
# 3 13.1474 -1.3604 37.5560 0.0000 9.5463 0.0000
# 4 0.0000 0.0000 0.0000 25.8494 0.0000 9.4767
# 5 13.2295 -2.7027 9.5463 0.0000 42.5427 0.0000
# 6 0.0000 0.0000 0.0000 9.4767 0.0000 28.5981
#
#
#
# Elastic Compliance Matrix: (Units=1/GPa)
#
#
# Indices 1 2 3 4 5 6 
#
# 1 0.038452 0.001621 -0.011017 0.000000 -0.009382 0.000000
# 2 0.001621 0.013857 -0.000171 0.000000 0.000415 0.000000
# 3 -0.011017 -0.000171 0.031401 0.000000 -0.003631 0.000000
# 4 0.000000 0.000000 0.000000 0.044035 0.000000 -0.014592
# 5 -0.009382 0.000415 -0.003631 0.000000 0.027264 0.000000
# 6 0.000000 0.000000 0.000000 -0.014592 0.000000 0.039803
#
#
# Mechanical properties :
#
#
# Convention : Reuss Voigt Hill
#
# Bulk Modulus (GPa) = 15.48570 17.64265 16.56417
# Shear Modulus (GPa) = 21.23391 28.44919 24.84155
#
# Velocity S-wave (km/s) = 3.23809 3.74808 3.50238
# Velocity P-wave (km/s) = 4.65049 5.23857 4.95327
#
# Compressibility (1/GPa) = 0.06457572
#
# Stress axis : x y z
#
# Youngs Moduli (GPa) = 26.00637 72.16324 31.84655
#
# Poissons Ratio (x) = -0.11699 0.35087
# Poissons Ratio (y) = -0.04216 0.00544
# Poissons Ratio (z) = 0.28652 0.01234
#
# Static dielectric constant tensor:
#      x y z
#    x 1.698700 0.000000 0.017570 
#    y 0.000000 1.755660 0.000000 
#    z 0.017570 0.000000 1.707630 
# 
# From -- ./inp_files/44853.got.cif
#   From: 2010.05.17/outbox.cif.g08.bks.cpg/sg15_23_cif.got.tgz:44853.got - 2010.06.03 18:47:42.
