data_PCOD9266051
_publ_section_title
;
Structure prediction by ZEFSAII (Michael W. Deem and Ramdas Pophale) SiO2 
 PCOD9266051
Probable space group: C 2/C
;
_chemical_formula_sum "Si O2"
_cell_formula_units_Z 64
_cell_length_a 24.264005
_cell_length_b 10.498659
_cell_length_c 12.675904
_cell_angle_alpha 90.000000
_cell_angle_beta 67.063113
_cell_angle_gamma 90.000000
_cell_volume 2973.747526
_symmetry_space_group_name_H-M "C 2/C"
_symmetry_group_IT_number 15
_symmetry_cell_setting 'monoclinic'
loop_
_space_group_symop_operation_xyz
x,y,z
-x,y,1/2-z
-x,-y,-z
x,-y,1/2+z
1/2+x,1/2+y,z
1/2-x,1/2+y,1/2-z
1/2-x,1/2-y,-z
1/2+x,1/2-y,1/2+z
loop_
_atom_site_type_symbol
_atom_site_label
_atom_site_fract_x
_atom_site_fract_y
_atom_site_fract_z
Si Si1 0.222461 0.594221 0.441610
Si Si2 0.390591 0.332090 0.472282
Si Si3 0.490184 0.348068 0.017827
Si Si4 0.740974 0.628169 0.432833
Si Si5 0.667294 0.751775 0.171722
Si Si6 0.343281 0.017562 0.209095
Si Si7 0.563288 0.398554 0.649519
Si Si8 0.937780 0.689514 0.241579
O O1 0.256013 0.493211 0.491314
O O2 0.274851 0.668806 0.342009
O O3 0.186199 0.689966 0.543450
O O4 0.176050 0.528793 0.397360
O O5 0.442849 0.294553 0.515021
O O6 0.324699 0.349901 0.566401
O O7 0.408212 0.470295 0.412172
O O8 0.395730 0.237644 0.368466
O O9 0.454460 0.304260 0.148624
O O10 0.500000 0.500000 0.000000
O O11 0.453477 0.313224 0.940581
O O12 0.750000 0.750000 0.500000
O O13 0.792749 0.597441 0.311162
O O14 0.608416 0.669337 0.195405
O O15 0.658466 0.872373 0.252619
O O16 0.405265 0.082108 0.197516
O O17 0.500000 0.427353 0.750000
O O18 0.000000 0.649060 0.250000
#
# Coordination Sequence:
#
# PCOD9266051 Si02
#       8
#     8   8   8   8   8   8   8   8
#     4  10  23  44  62  89 125 165 211 261 316 380
#     4  10  19  37  59  90 124 156 201 261 309 367
#     4   9  19  35  60  93 118 161 207 248 314 382
#     4  11  22  40  63  93 127 159 206 265 315 371
#     4  10  23  42  63  87 127 168 208 263 319 380
#     4  11  24  39  64  92 122 169 211 254 321 387
#     4  11  21  38  60  89 125 161 205 257 310 367
#     4  10  20  38  62  85 125 162 204 258 317 368
#
# _framework density 21.521666
#
# number of rings (size 3 to 8) (size 9 to 14) (size 15 to 20)
#    0.000    1.750    2.500    2.625    1.750    1.500 
#    4.500    0.000    0.000    4.500    0.000    0.000 
#    0.000    0.000    0.000    0.000    0.000    0.000 
#
# Total GULP energy -178770.638656 kJ/mol
# GULP energy per Si atom -5586.582458 kJ/mol
# Density = 2.147268 g / cm^3
# Si number density = 21.521666 Si / 1000 Ang^3
#
#
#
# Elastic Constant Matrix: (Units=GPa)
#
#
# Indices 1 2 3 4 5 6 
#
# 1 94.2302 8.6600 10.5176 0.0000 7.4490 0.0000
# 2 8.6600 36.1066 -6.4744 0.0000 -3.1699 0.0000
# 3 10.5176 -6.4744 46.6017 0.0000 2.0500 0.0000
# 4 0.0000 0.0000 0.0000 23.0641 0.0000 1.9591
# 5 7.4490 -3.1699 2.0500 0.0000 39.0085 0.0000
# 6 0.0000 0.0000 0.0000 1.9591 0.0000 27.7554
#
#
#
# Elastic Compliance Matrix: (Units=1/GPa)
#
#
# Indices 1 2 3 4 5 6 
#
# 1 0.011446 -0.003480 -0.002965 0.000000 -0.002313 0.000000
# 2 -0.003480 0.029635 0.004778 0.000000 0.002822 0.000000
# 3 -0.002965 0.004778 0.022802 0.000000 -0.000244 0.000000
# 4 0.000000 0.000000 0.000000 0.043619 0.000000 -0.003079
# 5 -0.002313 0.002822 -0.000244 0.000000 0.026319 0.000000
# 6 0.000000 0.000000 0.000000 -0.003079 0.000000 0.036246
#
#
# Mechanical properties :
#
#
# Convention : Reuss Voigt Hill
#
# Bulk Modulus (GPa) = 16.51524 22.48278 19.49901
# Shear Modulus (GPa) = 25.82861 28.91462 27.37162
#
# Velocity S-wave (km/s) = 3.46804 3.66937 3.57012
# Velocity P-wave (km/s) = 4.87102 5.33120 5.10629
#
# Compressibility (1/GPa) = 0.06055012
#
# Stress axis : x y z
#
# Youngs Moduli (GPa) = 87.36762 33.74394 43.85538
#
# Poissons Ratio (x) = 0.11743 0.13003
# Poissons Ratio (y) = 0.30403 -0.20956
# Poissons Ratio (z) = 0.25904 -0.16124
#
# Static dielectric constant tensor:
#      x y z
#    x 1.808440 0.000000 0.008930 
#    y 0.000000 1.920490 0.000000 
#    z 0.008930 0.000000 1.820640 
# 
# From -- ./inp_files/118012.got.cif
#   From: 2010.05.17/outbox.cif.g08.bks.cpg/sg15_60_cif.got.tgz:118012.got - 2010.06.03 18:47:42.
