data_PCOD9266095
_publ_section_title
;
Structure prediction by ZEFSAII (Michael W. Deem and Ramdas Pophale) SiO2 
 PCOD9266095
Probable space group: C 2/C
;
_chemical_formula_sum "Si O2"
_cell_formula_units_Z 56
_cell_length_a 20.955171
_cell_length_b 8.913405
_cell_length_c 19.280209
_cell_angle_alpha 90.000000
_cell_angle_beta 126.503167
_cell_angle_gamma 90.000000
_cell_volume 2894.726555
_symmetry_space_group_name_H-M "C 2/C"
_symmetry_group_IT_number 15
_symmetry_cell_setting 'monoclinic'
loop_
_space_group_symop_operation_xyz
x,y,z
-x,y,1/2-z
-x,-y,-z
x,-y,1/2+z
1/2+x,1/2+y,z
1/2-x,1/2+y,1/2-z
1/2-x,1/2-y,-z
1/2+x,1/2-y,1/2+z
loop_
_atom_site_type_symbol
_atom_site_label
_atom_site_fract_x
_atom_site_fract_y
_atom_site_fract_z
Si Si1 0.264608 0.705024 0.589882
Si Si2 0.290902 0.043445 0.345562
Si Si3 0.394013 0.328604 0.422826
Si Si4 0.480944 0.434502 0.892540
Si Si5 0.632438 0.278829 0.787325
Si Si6 0.080172 0.027730 0.843010
Si Si7 0.232009 0.516130 0.829434
O O1 0.250000 0.750000 0.500000
O O2 0.208873 0.582052 0.593252
O O3 0.351438 0.632217 0.640700
O O4 0.265413 0.849482 0.639498
O O5 0.364938 0.159131 0.390491
O O6 0.212277 0.141782 0.310479
O O7 0.278476 0.976311 0.260743
O O8 0.474291 0.340514 0.519661
O O9 0.416943 0.441944 0.375190
O O10 0.315058 0.405439 0.403853
O O11 0.437035 0.323276 0.811010
O O12 0.552665 0.528100 0.903873
O O13 0.608441 0.359461 0.842828
O O14 0.657281 0.107722 0.811143
O O15 0.000000 0.060665 0.750000
#
# Coordination Sequence:
#
# PCOD9266095 Si02
#       7
#     8   8   8   8   8   8   8
#     4  11  23  39  61  91 124 158 202 260 307 361
#     4  10  21  37  60  88 117 156 206 247 303 364
#     4  10  21  35  62  87 113 157 198 259 303 359
#     4  10  19  37  60  84 119 151 202 245 317 362
#     4   9  19  36  59  83 109 153 201 245 291 370
#     4   9  20  37  59  79 114 157 193 236 303 372
#     4  11  21  37  64  88 117 157 210 254 302 361
#
# _framework density 19.345523
#
# number of rings (size 3 to 8) (size 9 to 14) (size 15 to 20)
#    0.000    2.000    1.429    2.571    4.000    1.143 
#    0.000    8.571    0.000    0.000    0.000    0.000 
#    0.000    0.000    0.000    0.000    0.000    0.000 
#
# Total GULP energy -155906.678940 kJ/mol
# GULP energy per Si atom -5568.095676 kJ/mol
# Density = 1.930149 g / cm^3
# Si number density = 19.345523 Si / 1000 Ang^3
#
#
#
# Elastic Constant Matrix: (Units=GPa)
#
#
# Indices 1 2 3 4 5 6 
#
# 1 62.7613 22.1437 19.9456 0.0000 13.7091 0.0000
# 2 22.1437 95.8983 33.8007 0.0000 12.8028 0.0000
# 3 19.9456 33.8007 51.0272 0.0000 -4.0769 0.0000
# 4 0.0000 0.0000 0.0000 20.6081 0.0000 6.9476
# 5 13.7091 12.8028 -4.0769 0.0000 18.9713 0.0000
# 6 0.0000 0.0000 0.0000 6.9476 0.0000 30.9559
#
#
#
# Elastic Compliance Matrix: (Units=1/GPa)
#
#
# Indices 1 2 3 4 5 6 
#
# 1 0.023714 0.001484 -0.011906 0.000000 -0.020696 0.000000
# 2 0.001484 0.016590 -0.012768 0.000000 -0.015011 0.000000
# 3 -0.011906 -0.012768 0.034680 0.000000 0.024673 0.000000
# 4 0.000000 0.000000 0.000000 0.052497 0.000000 -0.011782
# 5 -0.020696 -0.015011 0.024673 0.000000 0.083099 0.000000
# 6 0.000000 0.000000 0.000000 -0.011782 0.000000 0.034948
#
#
# Mechanical properties :
#
#
# Convention : Reuss Voigt Hill
#
# Bulk Modulus (GPa) = 34.96125 40.16298 37.56211
# Shear Modulus (GPa) = 16.58684 23.02684 19.80684
#
# Velocity S-wave (km/s) = 2.93132 3.45381 3.20323
# Velocity P-wave (km/s) = 5.43765 6.05896 5.75669
#
# Compressibility (1/GPa) = 0.02860310
#
# Stress axis : x y z
#
# Youngs Moduli (GPa) = 42.16851 60.27890 28.83494
#
# Poissons Ratio (x) = -0.08942 0.34330
# Poissons Ratio (y) = -0.06256 0.36817
# Poissons Ratio (z) = 0.50205 0.76966
#
# Static dielectric constant tensor:
#      x y z
#    x 1.708140 0.000000 -0.059840 
#    y 0.000000 1.699580 0.000000 
#    z -0.059840 0.000000 1.750910 
# 
# From -- ./inp_files/251957.got.cif
#   From: 2010.05.17/outbox.cif.g08.bks.cpg/sg15_126_cif.got.tgz:251957.got - 2010.06.03 18:47:42.
