data_PCOD9266638
_publ_section_title
;
Structure prediction by ZEFSAII (Michael W. Deem and Ramdas Pophale) SiO2 
 PCOD9266638
Probable space group: C 2/C
;
_chemical_formula_sum "Si O2"
_cell_formula_units_Z 40
_cell_length_a 23.606381
_cell_length_b 13.010416
_cell_length_c 19.380840
_cell_angle_alpha 90.000000
_cell_angle_beta 16.520907
_cell_angle_gamma 90.000000
_cell_volume 1692.659611
_symmetry_space_group_name_H-M "C 2/C"
_symmetry_group_IT_number 15
_symmetry_cell_setting 'monoclinic'
loop_
_space_group_symop_operation_xyz
x,y,z
-x,y,1/2-z
-x,-y,-z
x,-y,1/2+z
1/2+x,1/2+y,z
1/2-x,1/2+y,1/2-z
1/2-x,1/2-y,-z
1/2+x,1/2-y,1/2+z
loop_
_atom_site_type_symbol
_atom_site_label
_atom_site_fract_x
_atom_site_fract_y
_atom_site_fract_z
Si Si1 0.409510 0.916942 0.932471
Si Si2 0.826561 0.853236 0.057001
Si Si3 0.972313 0.645859 0.702064
Si Si4 0.472334 0.555636 0.958646
Si Si5 0.051111 0.616620 0.415532
O O1 0.500000 0.902798 0.750000
O O2 0.525939 0.871597 0.862561
O O3 0.412634 0.039805 0.946343
O O4 0.178099 0.886503 0.203305
O O5 0.746627 0.869702 0.072721
O O6 0.631018 0.830338 0.332331
O O7 0.956942 0.752781 0.911478
O O8 0.933958 0.957694 0.953838
O O9 0.000000 0.659129 0.750000
O O10 0.500000 0.500000 0.000000
O O11 0.278088 0.627300 0.175801
O O12 0.000000 0.500000 0.500000
#
# Coordination Sequence:
#
# PCOD9266638 Si02
#       5
#     8   8   8   8   8
#     4  11  22  38  59  90 125 157 196 250 302 358
#     4  11  21  37  57  83 122 167 208 238 291 361
#     4  11  22  36  53  91 136 163 192 238 300 382
#     4  11  19  36  61  80 117 164 203 254 288 340
#     4  10  19  38  57  81 112 158 215 241 281 352
#
# _framework density 23.631450000000001
#
# number of rings (size 3 to 8) (size 9 to 14) (size 15 to 20)
#    0.000    1.200    8.000    1.800    0.000    2.400 
#    0.000    0.000    0.000    0.000    0.000    1.400 
#    0.000    0.000    0.000    0.000    0.000    0.000 
#
# Total GULP energy -111733.929978 kJ/mol
# GULP energy per Si atom -5586.696499 kJ/mol
# Density = 2.357766 g / cm^3
# Si number density = 23.631450 Si / 1000 Ang^3
#
#
#
# Elastic Constant Matrix: (Units=GPa)
#
#
# Indices 1 2 3 4 5 6 
#
# 1 192.8385 6.2184 36.8660 0.0021 -15.8320 -0.0017
# 2 6.2184 42.6343 -16.7002 0.0038 -8.6809 -0.0035
# 3 36.8660 -16.7002 94.1913 0.0011 -21.5922 0.0031
# 4 0.0021 0.0038 0.0011 24.1707 0.0029 -6.3473
# 5 -15.8320 -8.6809 -21.5922 0.0029 41.1876 -0.0006
# 6 -0.0017 -0.0035 0.0031 -6.3473 -0.0006 18.8781
#
#
#
# Elastic Compliance Matrix: (Units=1/GPa)
#
#
# Indices 1 2 3 4 5 6 
#
# 1 0.005748 -0.001660 -0.002407 0.000000 0.000598 0.000001
# 2 -0.001660 0.028764 0.007948 -0.000005 0.009591 0.000002
# 3 -0.002407 0.007948 0.014935 -0.000003 0.008579 -0.000002
# 4 0.000000 -0.000005 -0.000003 0.045379 -0.000006 0.015258
# 5 0.000598 0.009591 0.008579 -0.000006 0.031028 -0.000001
# 6 0.000001 0.000002 -0.000002 0.015258 -0.000001 0.058102
#
#
# Mechanical properties :
#
#
# Convention : Reuss Voigt Hill
#
# Bulk Modulus (GPa) = 17.47967 42.49250 29.98608
# Shear Modulus (GPa) = 25.60654 37.06593 31.33624
#
# Velocity S-wave (km/s) = 3.29535 3.96473 3.64543
# Velocity P-wave (km/s) = 4.67888 6.24332 5.51684
#
# Compressibility (1/GPa) = 0.05720933
#
# Stress axis : x y z
#
# Youngs Moduli (GPa) = 173.95926 34.76627 66.95824
#
# Poissons Ratio (x) = 0.05770 0.16117
# Poissons Ratio (y) = 0.28870 -0.53218
# Poissons Ratio (z) = 0.41873 -0.27632
#
# Static dielectric constant tensor:
#      x y z
#    x 1.941620 -0.000010 0.009690 
#    y -0.000010 1.890400 0.000020 
#    z 0.009690 0.000020 2.021540 
# 
# From -- ./inp_files/215673.got.cif
#   From: 2010.05.17/outbox.cif.g08.bks.cpg/sg15_108_cif.got.tgz:215673.got - 2010.06.03 18:47:42.
