data_PCOD9266785
_publ_section_title
;
Structure prediction by ZEFSAII (Michael W. Deem and Ramdas Pophale) SiO2 
 PCOD9266785
Probable space group: C 2/C
;
_chemical_formula_sum "Si O2"
_cell_formula_units_Z 52
_cell_length_a 9.667280
_cell_length_b 15.061238
_cell_length_c 25.060466
_cell_angle_alpha 90.000000
_cell_angle_beta 44.661874
_cell_angle_gamma 90.000000
_cell_volume 2564.844133
_symmetry_space_group_name_H-M "C 2/C"
_symmetry_group_IT_number 15
_symmetry_cell_setting 'monoclinic'
loop_
_space_group_symop_operation_xyz
x,y,z
-x,y,1/2-z
-x,-y,-z
x,-y,1/2+z
1/2+x,1/2+y,z
1/2-x,1/2+y,1/2-z
1/2-x,1/2-y,-z
1/2+x,1/2-y,1/2+z
loop_
_atom_site_type_symbol
_atom_site_label
_atom_site_fract_x
_atom_site_fract_y
_atom_site_fract_z
Si Si1 0.872561 0.566105 0.675694
Si Si2 0.241286 0.209323 0.087937
Si Si3 0.290130 0.613050 0.511892
Si Si4 0.289086 0.256480 0.698782
Si Si5 0.410011 0.136462 0.151281
Si Si6 0.000000 0.468897 0.250000
Si Si7 0.778124 0.101014 0.109128
O O1 0.753958 0.653997 0.691557
O O2 0.813575 0.463128 0.683124
O O3 0.090399 0.573058 0.590052
O O4 0.888911 0.582720 0.734683
O O5 0.326351 0.296707 0.035917
O O6 0.344819 0.179358 0.113619
O O7 0.012077 0.232616 0.159581
O O8 0.248533 0.135479 0.039468
O O9 0.500675 0.566856 0.458175
O O10 0.155416 0.302441 0.780575
O O11 0.285438 0.314121 0.646014
O O12 0.645096 0.123692 0.094370
O O13 0.847476 0.529662 0.323499
#
# Coordination Sequence:
#
# PCOD9266785 Si02
#       7
#     8   8   8   8   8   4   8
#     4  10  22  36  62  87 117 155 202 236 297 353
#     4   9  20  36  59  85 117 157 203 232 288 354
#     4   9  20  38  59  84 116 165 191 238 292 356
#     4  10  19  38  61  84 119 157 194 244 290 352
#     4  11  21  36  60  91 118 154 196 254 287 344
#     4  10  20  36  58  90 110 154 196 250 278 360
#     4  10  19  39  62  81 124 151 192 242 305 331
#
# _framework density 20.274138000000001
#
# number of rings (size 3 to 8) (size 9 to 14) (size 15 to 20)
#    0.000    2.154    3.077    1.385    4.308    3.692 
#    0.000    3.077    3.385    0.000    0.000    0.000 
#    0.000    0.000    0.000    0.000    0.000    0.000 
#
# Total GULP energy -144874.952900 kJ/mol
# GULP energy per Si atom -5572.113573 kJ/mol
# Density = 2.022799 g / cm^3
# Si number density = 20.274138 Si / 1000 Ang^3
#
#
#
# Elastic Constant Matrix: (Units=GPa)
#
#
# Indices 1 2 3 4 5 6 
#
# 1 79.4620 11.2313 15.1143 0.0001 15.3472 -0.0001
# 2 11.2313 81.7912 10.9761 0.0000 6.7548 0.0000
# 3 15.1143 10.9761 66.7659 0.0006 -8.1357 -0.0002
# 4 0.0001 0.0000 0.0006 9.1245 -0.0003 7.3716
# 5 15.3472 6.7548 -8.1357 -0.0003 28.3829 0.0002
# 6 -0.0001 0.0000 -0.0002 7.3716 0.0002 23.6040
#
#
#
# Elastic Compliance Matrix: (Units=1/GPa)
#
#
# Indices 1 2 3 4 5 6 
#
# 1 0.015366 -0.000726 -0.004508 0.000000 -0.009428 0.000000
# 2 -0.000726 0.012922 -0.002369 0.000000 -0.003362 0.000000
# 3 -0.004508 -0.002369 0.017360 -0.000001 0.007977 0.000001
# 4 0.000000 0.000000 -0.000001 0.146577 0.000002 -0.045776
# 5 -0.009428 -0.003362 0.007977 0.000002 0.043417 -0.000001
# 6 0.000000 0.000000 0.000001 -0.045776 -0.000001 0.056662
#
#
# Mechanical properties :
#
#
# Convention : Reuss Voigt Hill
#
# Bulk Modulus (GPa) = 32.85193 33.62917 33.24055
# Shear Modulus (GPa) = 15.74029 24.93546 20.33787
#
# Velocity S-wave (km/s) = 2.78937 3.51082 3.17068
# Velocity P-wave (km/s) = 5.15879 5.74958 5.46218
#
# Compressibility (1/GPa) = 0.03043961
#
# Stress axis : x y z
#
# Youngs Moduli (GPa) = 65.08051 77.38984 57.60441
#
# Poissons Ratio (x) = 0.05622 0.25967
# Poissons Ratio (y) = 0.04728 0.13649
# Poissons Ratio (z) = 0.29337 0.18337
#
# Static dielectric constant tensor:
#      x y z
#    x 1.747390 0.000000 -0.030530 
#    y 0.000000 1.779250 0.000000 
#    z -0.030530 0.000000 1.722810 
# 
# From -- ./inp_files/288605.got.cif
#   From: 2010.05.17/outbox.cif.g08.bks.cpg/sg15_145_cif.got.tgz:288605.got - 2010.06.03 18:47:42.
