data_PCOD9266144
_publ_section_title
;
Structure prediction by ZEFSAII (Michael W. Deem and Ramdas Pophale) SiO2 
 PCOD9266144
Probable space group: C 2/C
;
_chemical_formula_sum "Si O2"
_cell_formula_units_Z 48
_cell_length_a 16.210068
_cell_length_b 13.359637
_cell_length_c 24.041669
_cell_angle_alpha 90.000000
_cell_angle_beta 24.858314
_cell_angle_gamma 90.000000
_cell_volume 2188.677579
_symmetry_space_group_name_H-M "C 2/C"
_symmetry_group_IT_number 15
_symmetry_cell_setting 'monoclinic'
loop_
_space_group_symop_operation_xyz
x,y,z
-x,y,1/2-z
-x,-y,-z
x,-y,1/2+z
1/2+x,1/2+y,z
1/2-x,1/2+y,1/2-z
1/2-x,1/2-y,-z
1/2+x,1/2-y,1/2+z
loop_
_atom_site_type_symbol
_atom_site_label
_atom_site_fract_x
_atom_site_fract_y
_atom_site_fract_z
Si Si1 0.270243 0.076577 0.880802
Si Si2 0.255230 0.706945 0.703889
Si Si3 0.592236 0.665425 0.090312
Si Si4 0.777615 0.424825 0.182210
Si Si5 0.818618 0.950299 0.468735
Si Si6 0.033256 0.616129 0.051343
O O1 0.500000 0.105224 0.750000
O O2 0.224406 0.108038 0.846347
O O3 0.107248 0.137355 0.015902
O O4 0.250622 0.970904 0.925243
O O5 0.149239 0.665793 0.823878
O O6 0.444297 0.773184 0.600351
O O7 0.109526 0.788676 0.765479
O O8 0.666254 0.560846 0.069951
O O9 0.750000 0.750000 0.000000
O O10 0.543026 0.417366 0.331262
O O11 0.864153 0.529735 0.152527
O O12 0.839514 0.409568 0.080996
O O13 0.663204 0.891273 0.527324
#
# Coordination Sequence:
#
# PCOD9266144 Si02
#       6
#     8   8   8   8   8   8
#     4  10  20  36  61  95 126 168 221 279 327 388
#     4  12  22  40  66 100 134 172 228 284 334 397
#     4  10  19  37  60  92 125 164 221 275 326 377
#     4  11  24  42  66  94 136 178 221 280 338 407
#     4  10  23  42  61  93 129 179 220 274 335 404
#     4  11  23  43  66  96 135 177 226 275 337 406
#
# _framework density 21.931051
#
# number of rings (size 3 to 8) (size 9 to 14) (size 15 to 20)
#    1.000    0.333    3.333    3.500    0.000    2.667 
#    3.000    1.667    0.000    0.000    0.000    0.000 
#    0.000    0.000    0.000    0.000    0.000    0.000 
#
# Total GULP energy -133627.213842 kJ/mol
# GULP energy per Si atom -5567.800577 kJ/mol
# Density = 2.188114 g / cm^3
# Si number density = 21.931051 Si / 1000 Ang^3
#
#
#
# Elastic Constant Matrix: (Units=GPa)
#
#
# Indices 1 2 3 4 5 6 
#
# 1 82.2229 26.9394 37.8245 -0.0001 -8.4636 -0.0037
# 2 26.9394 52.3614 24.8525 0.0010 -4.3855 0.0032
# 3 37.8245 24.8525 78.8126 0.0133 -7.2054 -0.0011
# 4 -0.0001 0.0010 0.0133 29.6937 -0.0028 -0.1034
# 5 -8.4636 -4.3855 -7.2054 -0.0028 30.7856 0.0034
# 6 -0.0037 0.0032 -0.0011 -0.1034 0.0034 32.8438
#
#
#
# Elastic Compliance Matrix: (Units=1/GPa)
#
#
# Indices 1 2 3 4 5 6 
#
# 1 0.017125 -0.005658 -0.006211 0.000003 0.002448 0.000002
# 2 -0.005658 0.024404 -0.004910 0.000001 0.000772 -0.000003
# 3 -0.006211 -0.004910 0.017369 -0.000007 0.001658 0.000000
# 4 0.000003 0.000001 -0.000007 0.033678 0.000002 0.000106
# 5 0.002448 0.000772 0.001658 0.000002 0.033654 -0.000003
# 6 0.000002 -0.000003 0.000000 0.000106 -0.000003 0.030447
#
#
# Mechanical properties :
#
#
# Convention : Reuss Voigt Hill
#
# Bulk Modulus (GPa) = 39.46107 43.62550 41.54328
# Shear Modulus (GPa) = 25.16615 26.91667 26.04141
#
# Velocity S-wave (km/s) = 3.39117 3.50713 3.44964
# Velocity P-wave (km/s) = 5.77630 6.02787 5.90343
#
# Compressibility (1/GPa) = 0.02534143
#
# Stress axis : x y z
#
# Youngs Moduli (GPa) = 58.39453 40.97731 57.57436
#
# Poissons Ratio (x) = 0.23184 0.35758
# Poissons Ratio (y) = 0.33038 0.28266
# Poissons Ratio (z) = 0.36268 0.20118
#
# Static dielectric constant tensor:
#      x y z
#    x 1.801480 0.000000 -0.023700 
#    y 0.000000 1.878760 0.000000 
#    z -0.023700 0.000000 1.730630 
# 
# From -- ./inp_files/274281.got.cif
#   From: 2010.05.17/outbox.cif.g08.bks.cpg/sg15_138_cif.got.tgz:274281.got - 2010.06.03 18:47:42.
