data_PCOD9266250
_publ_section_title
;
Structure prediction by ZEFSAII (Michael W. Deem and Ramdas Pophale) SiO2 
 PCOD9266250
Probable space group: C 2/C
;
_chemical_formula_sum "Si O2"
_cell_formula_units_Z 52
_cell_length_a 10.719392
_cell_length_b 12.294246
_cell_length_c 23.396859
_cell_angle_alpha 90.000000
_cell_angle_beta 54.385950
_cell_angle_gamma 90.000000
_cell_volume 2506.673172
_symmetry_space_group_name_H-M "C 2/C"
_symmetry_group_IT_number 15
_symmetry_cell_setting 'monoclinic'
loop_
_space_group_symop_operation_xyz
x,y,z
-x,y,1/2-z
-x,-y,-z
x,-y,1/2+z
1/2+x,1/2+y,z
1/2-x,1/2+y,1/2-z
1/2-x,1/2-y,-z
1/2+x,1/2-y,1/2+z
loop_
_atom_site_type_symbol
_atom_site_label
_atom_site_fract_x
_atom_site_fract_y
_atom_site_fract_z
Si Si1 0.953301 0.915864 0.136163
Si Si2 0.622762 0.830004 0.055645
Si Si3 0.203545 0.539921 0.971728
Si Si4 0.000000 0.118658 0.750000
Si Si5 0.419641 0.176241 0.394205
Si Si6 0.795591 0.301553 0.121351
Si Si7 0.126610 0.532935 0.669242
O O1 0.970145 0.944658 0.199131
O O2 0.797034 0.965062 0.152272
O O3 0.112655 0.954396 0.064021
O O4 0.967557 0.781577 0.132649
O O5 0.458253 0.772294 0.101784
O O6 0.644388 0.885367 0.111205
O O7 0.750000 0.750000 0.000000
O O8 0.635564 0.924502 0.004959
O O9 0.192078 0.578290 0.909566
O O10 0.109269 0.621237 0.037589
O O11 0.150981 0.192688 0.701433
O O12 0.258759 0.227780 0.416210
O O13 0.438001 0.079123 0.342716
O O14 0.000000 0.566154 0.750000
#
# Coordination Sequence:
#
# PCOD9266250 Si02
#       7
#     8   8   8   4   8   8   8
#     4  10  20  38  67  88 130 156 224 264 316 398
#     4  11  25  37  60  93 134 168 207 270 341 382
#     4   9  20  38  59  90 115 166 208 260 321 377
#     4   8  18  36  62  88 110 172 202 260 320 368
#     4   9  21  36  66  90 112 166 209 262 322 373
#     4  10  19  37  62  85 127 158 216 260 319 391
#     4  11  25  42  62  95 128 169 217 271 327 395
#
# _framework density 20.744626
#
# number of rings (size 3 to 8) (size 9 to 14) (size 15 to 20)
#    0.000    2.462    0.000    3.231   10.769    1.231 
#    0.000    0.000    6.769    0.000    0.000    0.000 
#    0.000    0.000    0.000    0.000    0.000    0.000 
#
# Total GULP energy -144751.983966 kJ/mol
# GULP energy per Si atom -5567.383999 kJ/mol
# Density = 2.069741 g / cm^3
# Si number density = 20.744626 Si / 1000 Ang^3
#
#
#
# Elastic Constant Matrix: (Units=GPa)
#
#
# Indices 1 2 3 4 5 6 
#
# 1 70.2829 -3.6881 24.4250 0.0000 -32.6121 0.0000
# 2 -3.6881 53.6010 25.6971 0.0000 -5.0493 0.0000
# 3 24.4250 25.6971 99.0318 0.0000 -20.3626 0.0000
# 4 0.0000 0.0000 0.0000 18.1155 0.0000 -1.1058
# 5 -32.6121 -5.0493 -20.3626 0.0000 34.3920 0.0000
# 6 0.0000 0.0000 0.0000 -1.1058 0.0000 13.8068
#
#
#
# Elastic Compliance Matrix: (Units=1/GPa)
#
#
# Indices 1 2 3 4 5 6 
#
# 1 0.027022 0.005650 -0.003065 0.000000 0.024639 0.000000
# 2 0.005650 0.022489 -0.006204 0.000000 0.004986 0.000000
# 3 -0.003065 -0.006204 0.013297 0.000000 0.004056 0.000000
# 4 0.000000 0.000000 0.000000 0.055473 0.000000 0.004443
# 5 0.024639 0.004986 0.004056 0.000000 0.055574 0.000000
# 6 0.000000 0.000000 0.000000 0.004443 0.000000 0.072784
#
#
# Mechanical properties :
#
#
# Convention : Reuss Voigt Hill
#
# Bulk Modulus (GPa) = 17.99484 35.08706 26.54095
# Shear Modulus (GPa) = 18.35532 25.02829 21.69181
#
# Velocity S-wave (km/s) = 2.97782 3.47723 3.23717
# Velocity P-wave (km/s) = 4.52952 5.75083 5.17632
#
# Compressibility (1/GPa) = 0.05557148
#
# Stress axis : x y z
#
# Youngs Moduli (GPa) = 37.00621 44.46623 75.20261
#
# Poissons Ratio (x) = -0.25122 0.23046
# Poissons Ratio (y) = -0.20907 0.46654
# Poissons Ratio (z) = 0.11341 0.27586
#
# Static dielectric constant tensor:
#      x y z
#    x 1.825810 0.000000 -0.005870 
#    y 0.000000 1.811440 0.000000 
#    z -0.005870 0.000000 1.763400 
# 
# From -- ./inp_files/269185.got.cif
#   From: 2010.05.17/outbox.cif.g08.bks.cpg/sg15_135_cif.got.tgz:269185.got - 2010.06.03 18:47:42.
