data_PCOD9266313
_publ_section_title
;
Structure prediction by ZEFSAII (Michael W. Deem and Ramdas Pophale) SiO2 
 PCOD9266313
Probable space group: C 2/C
;
_chemical_formula_sum "Si O2"
_cell_formula_units_Z 48
_cell_length_a 24.264313
_cell_length_b 7.595032
_cell_length_c 17.314858
_cell_angle_alpha 90.000000
_cell_angle_beta 146.297198
_cell_angle_gamma 90.000000
_cell_volume 1770.596555
_symmetry_space_group_name_H-M "C 2/C"
_symmetry_group_IT_number 15
_symmetry_cell_setting 'monoclinic'
loop_
_space_group_symop_operation_xyz
x,y,z
-x,y,1/2-z
-x,-y,-z
x,-y,1/2+z
1/2+x,1/2+y,z
1/2-x,1/2+y,1/2-z
1/2-x,1/2-y,-z
1/2+x,1/2-y,1/2+z
loop_
_atom_site_type_symbol
_atom_site_label
_atom_site_fract_x
_atom_site_fract_y
_atom_site_fract_z
Si Si1 0.340754 0.110853 0.523875
Si Si2 0.750311 0.683537 0.823018
Si Si3 0.039420 0.688951 0.521903
Si Si4 0.942872 0.740707 0.782808
Si Si5 0.507201 0.383441 0.177709
Si Si6 0.800142 0.947701 0.389062
O O1 0.362929 0.131097 0.640179
O O2 0.451036 0.145794 0.614549
O O3 0.280582 0.269204 0.412243
O O4 0.282557 0.934413 0.432823
O O5 0.852385 0.678074 0.890943
O O6 0.726013 0.887371 0.808594
O O7 0.679047 0.597307 0.676510
O O8 0.053478 0.774531 0.621830
O O9 0.972666 0.776455 0.376582
O O10 0.000000 0.500000 0.500000
O O11 0.929056 0.940609 0.735202
O O12 0.500000 0.278471 0.250000
O O13 0.399723 0.468278 0.038463
#
# Coordination Sequence:
#
# PCOD9266313 Si02
#       6
#     8   8   8   8   8   8
#     4  10  19  37  63  81 117 158 198 242 289 354
#     4  11  21  36  61  85 117 156 200 245 288 353
#     4  11  23  34  56  92 122 149 191 250 301 346
#     4  10  19  39  58  87 118 153 195 247 299 342
#     4  10  20  38  64  85 110 157 200 241 292 353
#     4  10  20  35  59  86 110 153 207 237 286 351
#
# _framework density 27.109508000000002
#
# number of rings (size 3 to 8) (size 9 to 14) (size 15 to 20)
#    0.000    1.667    6.667    0.500    0.000    2.667 
#    0.000    0.833    0.000    2.000    0.000    0.000 
#    0.000    0.000    0.000    0.000    0.000    0.000 
#
# Total GULP energy -134215.183581 kJ/mol
# GULP energy per Si atom -5592.299316 kJ/mol
# Density = 2.704781 g / cm^3
# Si number density = 27.109508 Si / 1000 Ang^3
#
#
#
# Elastic Constant Matrix: (Units=GPa)
#
#
# Indices 1 2 3 4 5 6 
#
# 1 54.6703 -16.8562 9.4642 0.0000 -20.7614 0.0000
# 2 -16.8562 135.7705 56.9024 0.0000 -26.7252 0.0000
# 3 9.4642 56.9024 179.3934 0.0000 -43.6360 0.0000
# 4 0.0000 0.0000 0.0000 50.7860 0.0000 -12.8809
# 5 -20.7614 -26.7252 -43.6360 0.0000 48.1014 0.0000
# 6 0.0000 0.0000 0.0000 -12.8809 0.0000 13.8180
#
#
#
# Elastic Compliance Matrix: (Units=1/GPa)
#
#
# Indices 1 2 3 4 5 6 
#
# 1 0.025627 0.005927 0.000333 0.000000 0.014656 0.000000
# 2 0.005927 0.010197 -0.001985 0.000000 0.006423 0.000000
# 3 0.000333 -0.001985 0.007639 0.000000 0.005970 0.000000
# 4 0.000000 0.000000 0.000000 0.025787 0.000000 0.024039
# 5 0.014656 0.006423 0.005970 0.000000 0.036100 0.000000
# 6 0.000000 0.000000 0.000000 0.024039 0.000000 0.094778
#
#
# Mechanical properties :
#
#
# Convention : Reuss Voigt Hill
#
# Bulk Modulus (GPa) = 19.22577 52.09502 35.66040
# Shear Modulus (GPa) = 23.93302 43.89598 33.91450
#
# Velocity S-wave (km/s) = 2.97446 4.02831 3.54081
# Velocity P-wave (km/s) = 4.34786 6.39489 5.46802
#
# Compressibility (1/GPa) = 0.05201353
#
# Stress axis : x y z
#
# Youngs Moduli (GPa) = 39.02126 98.06364 130.91385
#
# Poissons Ratio (x) = -0.58123 -0.04359
# Poissons Ratio (y) = -0.23128 0.25984
# Poissons Ratio (z) = -0.01299 0.19464
#
# Static dielectric constant tensor:
#      x y z
#    x 2.261530 0.000000 0.026700 
#    y 0.000000 2.202420 0.000000 
#    z 0.026700 0.000000 2.287410 
# 
# From -- ./inp_files/180929.got.cif
#   From: 2010.05.17/outbox.cif.g08.bks.cpg/sg15_91_cif.got.tgz:180929.got - 2010.06.03 18:47:42.
