data_PCOD9266380
_publ_section_title
;
Structure prediction by ZEFSAII (Michael W. Deem and Ramdas Pophale) SiO2 
 PCOD9266380
Probable space group: C 2/C
;
_chemical_formula_sum "Si O2"
_cell_formula_units_Z 44
_cell_length_a 14.198357
_cell_length_b 17.703002
_cell_length_c 9.206012
_cell_angle_alpha 90.000000
_cell_angle_beta 60.839782
_cell_angle_gamma 90.000000
_cell_volume 2020.693355
_symmetry_space_group_name_H-M "C 2/C"
_symmetry_group_IT_number 15
_symmetry_cell_setting 'monoclinic'
loop_
_space_group_symop_operation_xyz
x,y,z
-x,y,1/2-z
-x,-y,-z
x,-y,1/2+z
1/2+x,1/2+y,z
1/2-x,1/2+y,1/2-z
1/2-x,1/2-y,-z
1/2+x,1/2-y,1/2+z
loop_
_atom_site_type_symbol
_atom_site_label
_atom_site_fract_x
_atom_site_fract_y
_atom_site_fract_z
Si Si1 0.550380 0.762343 0.949701
Si Si2 0.000000 0.003584 0.750000
Si Si3 0.374870 0.589870 0.585874
Si Si4 0.334334 0.053799 0.596833
Si Si5 0.849573 0.696507 0.432079
Si Si6 0.440411 0.087071 0.939722
O O1 0.593480 0.678398 0.943897
O O2 0.596109 0.795343 0.764550
O O3 0.423274 0.769839 0.008182
O O4 0.583136 0.823991 0.045343
O O5 0.066261 0.054271 0.815626
O O6 0.078918 0.952431 0.590769
O O7 0.247834 0.574706 0.712468
O O8 0.307435 0.111688 0.489186
O O9 0.460569 0.075306 0.523247
O O10 0.340788 0.965715 0.555985
O O11 0.750000 0.750000 0.500000
O O12 0.500000 0.060603 0.750000
#
# Coordination Sequence:
#
# PCOD9266380 Si02
#       6
#     8   4   8   8   8   8
#     4  10  22  39  63  93 129 166 219 272 323 390
#     4  10  26  42  64  94 132 172 222 278 330 396
#     4  11  23  45  66  95 129 176 220 278 330 398
#     4  10  23  39  66  92 130 170 220 263 338 394
#     4  10  19  37  63  95 125 169 219 267 320 392
#     4  10  24  41  60  97 131 168 209 276 328 400
#
# _framework density 21.774705000000001
#
# number of rings (size 3 to 8) (size 9 to 14) (size 15 to 20)
#    0.000    1.818    1.818    1.091   11.455    0.000 
#    3.273    0.909    0.000    0.000    0.000    0.000 
#    0.000    0.000    0.000    0.000    0.000    0.000 
#
# Total GULP energy -122667.870287 kJ/mol
# GULP energy per Si atom -5575.812286 kJ/mol
# Density = 2.172514 g / cm^3
# Si number density = 21.774705 Si / 1000 Ang^3
#
#
#
# Elastic Constant Matrix: (Units=GPa)
#
#
# Indices 1 2 3 4 5 6 
#
# 1 41.1981 41.3777 13.9974 0.0000 -17.9965 0.0000
# 2 41.3777 182.9332 57.5943 0.0000 -19.5885 0.0000
# 3 13.9974 57.5943 78.3888 0.0000 -12.2025 0.0000
# 4 0.0000 0.0000 0.0000 35.6348 0.0000 1.1827
# 5 -17.9965 -19.5885 -12.2025 0.0000 31.2748 0.0000
# 6 0.0000 0.0000 0.0000 1.1827 0.0000 23.2510
#
#
#
# Elastic Compliance Matrix: (Units=1/GPa)
#
#
# Indices 1 2 3 4 5 6 
#
# 1 0.039255 -0.007282 0.001221 0.000000 0.018504 0.000000
# 2 -0.007282 0.008662 -0.005187 0.000000 -0.000789 0.000000
# 3 0.001221 -0.005187 0.016985 0.000000 0.004081 0.000000
# 4 0.000000 0.000000 0.000000 0.028110 0.000000 -0.001430
# 5 0.018504 -0.000789 0.004081 0.000000 0.043721 0.000000
# 6 0.000000 0.000000 0.000000 -0.001430 0.000000 0.043082
#
#
# Mechanical properties :
#
#
# Convention : Reuss Voigt Hill
#
# Bulk Modulus (GPa) = 23.58104 58.71767 41.14935
# Shear Modulus (GPa) = 23.10052 30.66884 26.88468
#
# Velocity S-wave (km/s) = 3.26066 3.75702 3.51761
# Velocity P-wave (km/s) = 5.00289 6.77088 5.95289
#
# Compressibility (1/GPa) = 0.04240695
#
# Stress axis : x y z
#
# Youngs Moduli (GPa) = 25.47446 115.44442 58.87553
#
# Poissons Ratio (x) = 0.84069 -0.07191
# Poissons Ratio (y) = 0.18551 0.30537
# Poissons Ratio (z) = -0.03111 0.59878
#
# Static dielectric constant tensor:
#      x y z
#    x 1.902110 0.000000 0.032140 
#    y 0.000000 1.821900 0.000000 
#    z 0.032140 0.000000 1.829070 
# 
# From -- ./inp_files/48880.got.cif
#   From: 2010.05.17/outbox.cif.g08.bks.cpg/sg15_25_cif.got.tgz:48880.got - 2010.06.03 18:47:42.
