data_PCOD9266185
_publ_section_title
;
Structure prediction by ZEFSAII (Michael W. Deem and Ramdas Pophale) SiO2 
 PCOD9266185
Probable space group: C 2/C
;
_chemical_formula_sum "Si O2"
_cell_formula_units_Z 44
_cell_length_a 13.544195
_cell_length_b 16.753982
_cell_length_c 23.501229
_cell_angle_alpha 90.000000
_cell_angle_beta 156.723507
_cell_angle_gamma 90.000000
_cell_volume 2107.387038
_symmetry_space_group_name_H-M "C 2/C"
_symmetry_group_IT_number 15
_symmetry_cell_setting 'monoclinic'
loop_
_space_group_symop_operation_xyz
x,y,z
-x,y,1/2-z
-x,-y,-z
x,-y,1/2+z
1/2+x,1/2+y,z
1/2-x,1/2+y,1/2-z
1/2-x,1/2-y,-z
1/2+x,1/2-y,1/2+z
loop_
_atom_site_type_symbol
_atom_site_label
_atom_site_fract_x
_atom_site_fract_y
_atom_site_fract_z
Si Si1 0.612345 0.129567 0.747014
Si Si2 0.196719 0.038873 0.147679
Si Si3 0.976383 0.263175 0.536103
Si Si4 0.086392 0.844562 0.675388
Si Si5 0.000000 0.680628 0.250000
Si Si6 0.128371 0.304637 0.496047
O O1 0.500000 0.149699 0.750000
O O2 0.870608 0.179442 0.884246
O O3 0.494562 0.153515 0.623884
O O4 0.617249 0.034209 0.746417
O O5 0.079162 0.067817 0.145047
O O6 0.329355 0.118727 0.195092
O O7 0.000000 0.000000 0.000000
O O8 0.131992 0.314215 0.664597
O O9 0.018235 0.313921 0.500169
O O10 0.687635 0.237132 0.385389
O O11 0.942258 0.787236 0.554707
O O12 0.919468 0.827161 0.643074
#
# Coordination Sequence:
#
# PCOD9266185 Si02
#       6
#     8   8   8   8   4   8
#     4  11  21  35  64  92 122 151 206 260 303 361
#     4  12  22  39  58  95 125 158 200 251 316 359
#     4  11  22  40  58  91 122 161 207 249 306 366
#     4  10  21  36  62  87 120 159 210 253 300 361
#     4  12  24  36  64  88 132 160 194 260 312 368
#     4  10  19  37  61  87 113 162 206 254 297 359
#
# _framework density 20.878935999999999
#
# number of rings (size 3 to 8) (size 9 to 14) (size 15 to 20)
#    0.000    1.091    4.545    4.909    0.000    0.727 
#    0.000    0.909    0.000    0.000    0.000    0.000 
#    0.000    0.000    0.000    0.000    0.000    0.000 
#
# Total GULP energy -122508.304267 kJ/mol
# GULP energy per Si atom -5568.559285 kJ/mol
# Density = 2.083141 g / cm^3
# Si number density = 20.878936 Si / 1000 Ang^3
#
#
#
# Elastic Constant Matrix: (Units=GPa)
#
#
# Indices 1 2 3 4 5 6 
#
# 1 80.2280 34.3629 32.2506 0.0013 -11.2756 0.0009
# 2 34.3629 71.2744 38.8286 0.0002 -10.5035 -0.0002
# 3 32.2506 38.8286 132.5836 0.0013 -11.6003 -0.0012
# 4 0.0013 0.0002 0.0013 18.8711 -0.0022 -3.0650
# 5 -11.2756 -10.5035 -11.6003 -0.0022 27.8610 0.0004
# 6 0.0009 -0.0002 -0.0012 -3.0650 0.0004 38.6771
#
#
#
# Elastic Compliance Matrix: (Units=1/GPa)
#
#
# Indices 1 2 3 4 5 6 
#
# 1 0.016432 -0.006423 -0.001812 -0.000001 0.003474 -0.000001
# 2 -0.006423 0.019746 -0.003940 0.000001 0.003204 0.000000
# 3 -0.001812 -0.003940 0.009281 0.000000 0.001646 0.000000
# 4 -0.000001 0.000001 0.000000 0.053682 0.000004 0.004254
# 5 0.003474 0.003204 0.001646 0.000004 0.039192 0.000000
# 6 -0.000001 0.000000 0.000000 0.004254 0.000000 0.026192
#
#
# Mechanical properties :
#
#
# Convention : Reuss Voigt Hill
#
# Bulk Modulus (GPa) = 47.37416 54.99671 51.18543
# Shear Modulus (GPa) = 25.52172 28.99143 27.25658
#
# Velocity S-wave (km/s) = 3.50003 3.73037 3.61703
# Velocity P-wave (km/s) = 6.25082 6.70463 6.48170
#
# Compressibility (1/GPa) = 0.02110855
#
# Stress axis : x y z
#
# Youngs Moduli (GPa) = 60.85553 50.64405 107.74673
#
# Poissons Ratio (x) = 0.32530 0.19524
# Poissons Ratio (y) = 0.39089 0.42452
# Poissons Ratio (z) = 0.11027 0.19954
#
# Static dielectric constant tensor:
#      x y z
#    x 1.839170 0.000000 0.067170 
#    y 0.000000 1.750970 0.000000 
#    z 0.067170 0.000000 1.868460 
# 
# From -- ./inp_files/112851.got.cif
#   From: 2010.05.17/outbox.cif.g08.bks.cpg/sg15_57_cif.got.tgz:112851.got - 2010.06.03 18:47:42.
