data_PCOD9266788
_publ_section_title
;
Structure prediction by ZEFSAII (Michael W. Deem and Ramdas Pophale) SiO2 
 PCOD9266788
Probable space group: C 2/C
;
_chemical_formula_sum "Si O2"
_cell_formula_units_Z 60
_cell_length_a 13.781973
_cell_length_b 9.269013
_cell_length_c 21.468607
_cell_angle_alpha 90.000000
_cell_angle_beta 103.622094
_cell_angle_gamma 90.000000
_cell_volume 2665.367158
_symmetry_space_group_name_H-M "C 2/C"
_symmetry_group_IT_number 15
_symmetry_cell_setting 'monoclinic'
loop_
_space_group_symop_operation_xyz
x,y,z
-x,y,1/2-z
-x,-y,-z
x,-y,1/2+z
1/2+x,1/2+y,z
1/2-x,1/2+y,1/2-z
1/2-x,1/2-y,-z
1/2+x,1/2-y,1/2+z
loop_
_atom_site_type_symbol
_atom_site_label
_atom_site_fract_x
_atom_site_fract_y
_atom_site_fract_z
Si Si1 0.097412 0.086663 0.071294
Si Si2 0.424239 0.078264 0.942729
Si Si3 0.500000 0.867338 0.250000
Si Si4 0.178084 0.215789 0.206745
Si Si5 0.995710 0.899265 0.152291
Si Si6 0.052856 0.438316 0.864538
Si Si7 0.833510 0.034128 0.718603
Si Si8 0.233375 0.420975 0.989106
O O1 0.058567 0.248645 0.050001
O O2 0.167161 0.128642 0.140928
O O3 0.163719 0.024941 0.025052
O O4 0.023931 0.969716 0.090381
O O5 0.456925 0.014923 0.881898
O O6 0.314755 0.037016 0.951950
O O7 0.500000 0.000000 0.000000
O O8 0.571559 0.768644 0.218168
O O9 0.433415 0.973424 0.197057
O O10 0.251898 0.343629 0.203296
O O11 0.217504 0.112296 0.266810
O O12 0.086138 0.924285 0.214896
O O13 0.970383 0.730267 0.146713
O O14 0.899282 0.977465 0.166752
O O15 0.147589 0.449909 0.924679
O O16 0.250000 0.250000 0.000000
#
# Coordination Sequence:
#
# PCOD9266788 Si02
#       8
#     8   8   4   8   8   8   8   8
#     4  10  19  38  61  85 121 159 206 259 323 366
#     4   9  19  38  60  85 113 159 215 260 303 370
#     4  12  24  36  62  94 128 164 214 254 326 394
#     4  11  23  37  59  89 124 168 207 254 313 390
#     4  10  22  38  56  90 129 161 201 260 311 375
#     4  11  22  37  64  90 128 165 214 265 320 378
#     4  10  23  38  57  85 132 166 206 243 312 383
#     4   9  20  39  65  88 117 166 220 262 310 370
#
# _framework density 22.51097
#
# number of rings (size 3 to 8) (size 9 to 14) (size 15 to 20)
#    0.000    1.867    1.333    3.200    7.467    0.000 
#    0.000    6.667    0.000    0.000    0.000    0.000 
#    0.000    0.000    0.000    0.000    0.000    0.000 
#
# Total GULP energy -167513.757348 kJ/mol
# GULP energy per Si atom -5583.791912 kJ/mol
# Density = 2.245973 g / cm^3
# Si number density = 22.510970 Si / 1000 Ang^3
#
#
#
# Elastic Constant Matrix: (Units=GPa)
#
#
# Indices 1 2 3 4 5 6 
#
# 1 69.7789 -4.6227 25.5520 0.0000 -19.6937 0.0000
# 2 -4.6227 48.3214 2.3132 0.0000 -6.0174 0.0000
# 3 25.5520 2.3132 54.5013 0.0000 -20.7325 0.0000
# 4 0.0000 0.0000 0.0000 34.6136 0.0000 -1.9012
# 5 -19.6937 -6.0174 -20.7325 0.0000 39.6672 0.0000
# 6 0.0000 0.0000 0.0000 -1.9012 0.0000 30.8741
#
#
#
# Elastic Compliance Matrix: (Units=1/GPa)
#
#
# Indices 1 2 3 4 5 6 
#
# 1 0.018678 0.002885 -0.006472 0.000000 0.006328 0.000000
# 2 0.002885 0.021546 -0.000598 0.000000 0.004388 0.000000
# 3 -0.006472 -0.000598 0.025152 0.000000 0.009842 0.000000
# 4 0.000000 0.000000 0.000000 0.028988 0.000000 0.001785
# 5 0.006328 0.004388 0.009842 0.000000 0.034161 0.000000
# 6 0.000000 0.000000 0.000000 0.001785 0.000000 0.032500
#
#
# Mechanical properties :
#
#
# Convention : Reuss Voigt Hill
#
# Bulk Modulus (GPa) = 17.54210 24.34294 20.94252
# Shear Modulus (GPa) = 26.53975 30.98825 28.76400
#
# Velocity S-wave (km/s) = 3.43734 3.71426 3.57848
# Velocity P-wave (km/s) = 4.85421 5.40662 5.13785
#
# Compressibility (1/GPa) = 0.05700571
#
# Stress axis : x y z
#
# Youngs Moduli (GPa) = 53.53883 46.41268 39.75858
#
# Poissons Ratio (x) = -0.13389 0.25732
# Poissons Ratio (y) = -0.15444 0.02376
# Poissons Ratio (z) = 0.34651 0.02774
#
# Static dielectric constant tensor:
#      x y z
#    x 1.843650 0.000000 -0.024620 
#    y 0.000000 1.813550 0.000000 
#    z -0.024620 0.000000 1.869180 
# 
# From -- ./inp_files/272736.got.cif
#   From: 2010.05.17/outbox.cif.g08.bks.cpg/sg15_137_cif.got.tgz:272736.got - 2010.06.03 18:47:42.
