data_PCOD9266695
_publ_section_title
;
Structure prediction by ZEFSAII (Michael W. Deem and Ramdas Pophale) SiO2 
 PCOD9266695
Probable space group: C 2/C
;
_chemical_formula_sum "Si O2"
_cell_formula_units_Z 44
_cell_length_a 7.520824
_cell_length_b 16.435758
_cell_length_c 24.882372
_cell_angle_alpha 90.000000
_cell_angle_beta 53.005323
_cell_angle_gamma 90.000000
_cell_volume 2456.551991
_symmetry_space_group_name_H-M "C 2/C"
_symmetry_group_IT_number 15
_symmetry_cell_setting 'monoclinic'
loop_
_space_group_symop_operation_xyz
x,y,z
-x,y,1/2-z
-x,-y,-z
x,-y,1/2+z
1/2+x,1/2+y,z
1/2-x,1/2+y,1/2-z
1/2-x,1/2-y,-z
1/2+x,1/2-y,1/2+z
loop_
_atom_site_type_symbol
_atom_site_label
_atom_site_fract_x
_atom_site_fract_y
_atom_site_fract_z
Si Si1 0.744822 0.200690 0.119233
Si Si2 0.552948 0.595119 0.986495
Si Si3 0.548723 0.865976 0.397983
Si Si4 0.485815 0.646181 0.876711
Si Si5 0.000000 0.410569 0.750000
Si Si6 0.227122 0.950588 0.241563
O O1 0.911515 0.268894 0.113350
O O2 0.557192 0.257895 0.125388
O O3 0.637413 0.145573 0.184339
O O4 0.876067 0.146164 0.052955
O O5 0.544293 0.624104 0.926335
O O6 0.803152 0.612260 0.960886
O O7 0.500000 0.500000 0.000000
O O8 0.743886 0.891271 0.404180
O O9 0.607332 0.907980 0.330796
O O10 0.659216 0.609941 0.802349
O O11 0.837048 0.469621 0.746321
O O12 0.000000 0.967463 0.250000
#
# Coordination Sequence:
#
# PCOD9266695 Si02
#       6
#     8   8   8   8   4   8
#     4  10  22  40  58  82 120 151 188 232 290 344
#     4  12  22  37  59  90 112 152 196 236 285 335
#     4   9  21  38  60  81 118 153 189 232 285 342
#     4   9  21  38  60  81 118 153 189 232 285 342
#     4  12  22  40  62  88 116 144 192 248 272 340
#     4  10  19  38  59  86 110 150 192 236 285 330
#
# _framework density 17.911283999999998
#
# number of rings (size 3 to 8) (size 9 to 14) (size 15 to 20)
#    1.091    0.727    0.000    5.455    0.000    0.727 
#    3.273    0.000    0.000    0.000    0.000    0.000 
#    0.000    0.000    0.000    0.000    0.000    0.000 
#
# Total GULP energy -122654.700228 kJ/mol
# GULP energy per Si atom -5575.213647 kJ/mol
# Density = 1.787052 g / cm^3
# Si number density = 17.911284 Si / 1000 Ang^3
#
#
#
# Elastic Constant Matrix: (Units=GPa)
#
#
# Indices 1 2 3 4 5 6 
#
# 1 25.6774 11.6135 4.6905 -0.0037 -1.1134 0.0031
# 2 11.6135 116.6109 19.6409 -0.0023 -7.4032 0.0017
# 3 4.6905 19.6409 45.8895 -0.0069 -3.5087 0.0030
# 4 -0.0037 -0.0023 -0.0069 123.4641 0.0029 -53.1438
# 5 -1.1134 -7.4032 -3.5087 0.0029 26.9519 -0.0025
# 6 0.0031 0.0017 0.0030 -53.1438 -0.0025 42.7879
#
#
#
# Elastic Compliance Matrix: (Units=1/GPa)
#
#
# Indices 1 2 3 4 5 6 
#
# 1 0.041079 -0.003627 -0.002619 0.000000 0.000360 -0.000003
# 2 -0.003627 0.009675 -0.003614 0.000000 0.002037 0.000000
# 3 -0.002619 -0.003614 0.023758 0.000001 0.001992 0.000000
# 4 0.000000 0.000000 0.000001 0.017404 0.000000 0.021616
# 5 0.000360 0.002037 0.001992 0.000000 0.037937 0.000002
# 6 -0.000003 0.000000 0.000000 0.021616 0.000002 0.050219
#
#
# Mechanical properties :
#
#
# Convention : Reuss Voigt Hill
#
# Bulk Modulus (GPa) = 18.25093 28.89640 23.57366
# Shear Modulus (GPa) = 22.92970 48.78963 35.85966
#
# Velocity S-wave (km/s) = 3.58184 5.22482 4.47931
# Velocity P-wave (km/s) = 5.22665 7.25027 6.31998
#
# Compressibility (1/GPa) = 0.05479173
#
# Stress axis : x y z
#
# Youngs Moduli (GPa) = 24.34312 103.36047 42.09029
#
# Poissons Ratio (x) = 0.37491 0.11023
# Poissons Ratio (y) = 0.08830 0.15213
# Poissons Ratio (z) = 0.06375 0.37358
#
# Static dielectric constant tensor:
#      x y z
#    x 1.622200 0.000000 -0.008130 
#    y 0.000000 1.590050 0.000000 
#    z -0.008130 0.000000 1.578830 
# 
# From -- ./inp_files/264140.got.cif
#   From: 2010.05.17/outbox.cif.g08.bks.cpg/sg15_133_cif.got.tgz:264140.got - 2010.06.03 18:47:42.
