data_PCOD9266975
_publ_section_title
;
Structure prediction by ZEFSAII (Michael W. Deem and Ramdas Pophale) SiO2 
 PCOD9266975
Probable space group: C 2/C
;
_chemical_formula_sum "Si O2"
_cell_formula_units_Z 60
_cell_length_a 12.916106
_cell_length_b 14.454947
_cell_length_c 18.438792
_cell_angle_alpha 90.000000
_cell_angle_beta 121.522989
_cell_angle_gamma 90.000000
_cell_volume 2934.536564
_symmetry_space_group_name_H-M "C 2/C"
_symmetry_group_IT_number 15
_symmetry_cell_setting 'monoclinic'
loop_
_space_group_symop_operation_xyz
x,y,z
-x,y,1/2-z
-x,-y,-z
x,-y,1/2+z
1/2+x,1/2+y,z
1/2-x,1/2+y,1/2-z
1/2-x,1/2-y,-z
1/2+x,1/2-y,1/2+z
loop_
_atom_site_type_symbol
_atom_site_label
_atom_site_fract_x
_atom_site_fract_y
_atom_site_fract_z
Si Si1 0.715481 0.349020 0.243009
Si Si2 0.817560 0.101885 0.053171
Si Si3 0.479670 0.871052 0.369467
Si Si4 0.817365 0.637820 0.264211
Si Si5 0.604449 0.074481 0.049031
Si Si6 0.500000 0.018334 0.250000
Si Si7 0.436141 0.462649 0.805528
Si Si8 0.815260 0.708197 0.624239
O O1 0.837331 0.374117 0.332010
O O2 0.668288 0.247003 0.245358
O O3 0.621135 0.433722 0.208978
O O4 0.776424 0.330985 0.186711
O O5 0.724852 0.030257 0.056169
O O6 0.792398 0.184539 0.102073
O O7 0.952821 0.063727 0.100390
O O8 0.764169 0.145449 0.960262
O O9 0.551863 0.853708 0.470427
O O10 0.541487 0.793794 0.342080
O O11 0.514013 0.957292 0.328650
O O12 0.880157 0.609212 0.363776
O O13 0.677380 0.605871 0.222023
O O14 0.882813 0.580063 0.224837
O O15 0.500000 0.000000 0.000000
O O16 0.500000 0.453180 0.750000
#
# Coordination Sequence:
#
# PCOD9266975 Si02
#       8
#     8   8   8   8   8   4   8   8
#     4  12  23  39  64  95 130 168 212 264 326 386
#     4  10  22  36  63  94 124 160 213 275 319 371
#     4  11  21  37  67  92 122 164 223 264 309 378
#     4  12  25  43  67  95 131 172 214 267 318 389
#     4  11  20  38  64  92 120 167 215 259 315 377
#     4  12  22  42  62  96 124 170 216 258 310 380
#     4  12  23  41  63  94 131 168 212 264 334 381
#     4  10  19  38  63  94 120 159 220 275 316 367
#
# _framework density 20.446159000000002
#
# number of rings (size 3 to 8) (size 9 to 14) (size 15 to 20)
#    0.000    0.800    6.667    0.800    0.933    0.533 
#    0.000    0.000    0.000    1.600    0.000    0.000 
#    0.000    0.000    0.000    0.000    0.000    0.000 
#
# Total GULP energy -167034.593969 kJ/mol
# GULP energy per Si atom -5567.819799 kJ/mol
# Density = 2.039962 g / cm^3
# Si number density = 20.446159 Si / 1000 Ang^3
#
#
#
# Elastic Constant Matrix: (Units=GPa)
#
#
# Indices 1 2 3 4 5 6 
#
# 1 83.2261 22.5240 28.4113 0.0000 23.8475 0.0000
# 2 22.5240 76.3765 21.4071 0.0000 17.1114 0.0000
# 3 28.4113 21.4071 87.3098 0.0000 26.1965 0.0000
# 4 0.0000 0.0000 0.0000 11.8504 0.0000 3.9903
# 5 23.8475 17.1114 26.1965 0.0000 36.0906 0.0000
# 6 0.0000 0.0000 0.0000 3.9903 0.0000 35.0559
#
#
#
# Elastic Compliance Matrix: (Units=1/GPa)
#
#
# Indices 1 2 3 4 5 6 
#
# 1 0.015565 -0.002264 -0.002232 0.000000 -0.007591 0.000000
# 2 -0.002264 0.015237 -0.001637 0.000000 -0.004540 0.000000
# 3 -0.002232 -0.001637 0.015221 0.000000 -0.008797 0.000000
# 4 0.000000 0.000000 0.000000 0.087749 0.000000 -0.009988
# 5 -0.007591 -0.004540 -0.008797 0.000000 0.041262 0.000000
# 6 0.000000 0.000000 0.000000 -0.009988 0.000000 0.029663
#
#
# Mechanical properties :
#
#
# Convention : Reuss Voigt Hill
#
# Bulk Modulus (GPa) = 29.62395 43.51079 36.56737
# Shear Modulus (GPa) = 21.90919 28.23738 25.07329
#
# Velocity S-wave (km/s) = 3.27701 3.72029 3.50567
# Velocity P-wave (km/s) = 5.37016 6.30722 5.85746
#
# Compressibility (1/GPa) = 0.03375647
#
# Stress axis : x y z
#
# Youngs Moduli (GPa) = 64.24481 65.63137 65.70023
#
# Poissons Ratio (x) = 0.14858 0.14666
# Poissons Ratio (y) = 0.14544 0.10755
# Poissons Ratio (z) = 0.14341 0.10743
#
# Static dielectric constant tensor:
#      x y z
#    x 1.850750 0.000000 -0.006220 
#    y 0.000000 1.886370 0.000000 
#    z -0.006220 0.000000 2.107330 
# 
# From -- ./inp_files/244386.got.cif
#   From: 2010.05.17/outbox.cif.g08.bks.cpg/sg15_123_cif.got.tgz:244386.got - 2010.06.03 18:47:42.
