data_PCOD9266223
_publ_section_title
;
Structure prediction by ZEFSAII (Michael W. Deem and Ramdas Pophale) SiO2 
 PCOD9266223
Probable space group: C 2/C
;
_chemical_formula_sum "Si O2"
_cell_formula_units_Z 56
_cell_length_a 17.833514
_cell_length_b 13.699442
_cell_length_c 27.476757
_cell_angle_alpha 90.000000
_cell_angle_beta 20.470100
_cell_angle_gamma 90.000000
_cell_volume 2347.599021
_symmetry_space_group_name_H-M "C 2/C"
_symmetry_group_IT_number 15
_symmetry_cell_setting 'monoclinic'
loop_
_space_group_symop_operation_xyz
x,y,z
-x,y,1/2-z
-x,-y,-z
x,-y,1/2+z
1/2+x,1/2+y,z
1/2-x,1/2+y,1/2-z
1/2-x,1/2-y,-z
1/2+x,1/2-y,1/2+z
loop_
_atom_site_type_symbol
_atom_site_label
_atom_site_fract_x
_atom_site_fract_y
_atom_site_fract_z
Si Si1 0.040126 0.096868 0.434770
Si Si2 0.208017 0.827480 0.099386
Si Si3 0.045595 0.370438 0.646591
Si Si4 0.991776 0.136107 0.153412
Si Si5 0.442467 0.856793 0.423024
Si Si6 0.103544 0.557795 0.730337
Si Si7 0.941071 0.688179 0.029675
O O1 0.289629 0.127339 0.292105
O O2 0.040383 0.075256 0.376380
O O3 0.844769 0.027041 0.572598
O O4 0.924824 0.198617 0.523189
O O5 0.123706 0.723608 0.128877
O O6 0.000000 0.876895 0.250000
O O7 0.323739 0.875633 0.982941
O O8 0.382006 0.816277 0.035919
O O9 0.067312 0.469403 0.663183
O O10 0.040170 0.242945 0.101223
O O11 0.780257 0.147207 0.314282
O O12 0.200353 0.110284 0.058119
O O13 0.596916 0.904742 0.289442
O O14 0.499647 0.869057 0.444512
O O15 0.000000 0.622554 0.750000
#
# Coordination Sequence:
#
# PCOD9266223 Si02
#       7
#     8   8   8   8   8   8   8
#     4  11  21  38  66  97 134 174 221 282 343 406
#     4  11  23  45  69  96 128 176 239 290 325 402
#     4  11  25  42  67  96 133 183 231 281 343 399
#     4  10  19  37  61  95 128 172 217 270 342 399
#     4  10  22  35  62  96 131 175 215 273 342 411
#     4  12  24  42  63  98 140 176 219 281 347 414
#     4  11  21  37  68  97 130 169 230 280 335 402
#
# _framework density 23.854158000000002
#
# number of rings (size 3 to 8) (size 9 to 14) (size 15 to 20)
#    0.000    1.143    5.714    1.286    0.000    0.000 
#    0.000    2.143    0.000    0.000    0.000    0.000 
#    0.000    0.000    0.000    0.000    0.000    0.000 
#
# Total GULP energy -156208.953000 kJ/mol
# GULP energy per Si atom -5578.891179 kJ/mol
# Density = 2.379987 g / cm^3
# Si number density = 23.854158 Si / 1000 Ang^3
#
#
#
# Elastic Constant Matrix: (Units=GPa)
#
#
# Indices 1 2 3 4 5 6 
#
# 1 184.8901 30.8215 61.6278 0.0165 27.2564 -0.0115
# 2 30.8215 69.9760 -16.5256 -0.0342 41.7223 -0.0168
# 3 61.6278 -16.5256 200.5921 -0.0828 -5.1998 -0.0453
# 4 0.0165 -0.0342 -0.0828 21.9043 -0.0362 -3.7523
# 5 27.2564 41.7223 -5.1998 -0.0362 86.4569 0.0090
# 6 -0.0115 -0.0168 -0.0453 -3.7523 0.0090 37.3952
#
#
#
# Elastic Compliance Matrix: (Units=1/GPa)
#
#
# Indices 1 2 3 4 5 6 
#
# 1 0.006834 -0.003091 -0.002375 -0.000021 -0.000806 -0.000004
# 2 -0.003091 0.021864 0.002506 0.000033 -0.009426 0.000018
# 3 -0.002375 0.002506 0.005919 0.000030 -0.000105 0.000011
# 4 -0.000021 0.000033 0.000030 0.046452 0.000011 0.004661
# 5 -0.000806 -0.009426 -0.000105 0.000011 0.016363 -0.000007
# 6 -0.000004 0.000018 0.000011 0.004661 -0.000007 0.027209
#
#
# Mechanical properties :
#
#
# Convention : Reuss Voigt Hill
#
# Bulk Modulus (GPa) = 34.84530 67.47841 51.16185
# Shear Modulus (GPa) = 35.68216 54.45358 45.06787
#
# Velocity S-wave (km/s) = 3.87181 4.78302 4.35133
# Velocity P-wave (km/s) = 5.88449 7.67153 6.83665
#
# Compressibility (1/GPa) = 0.02869827
#
# Stress axis : x y z
#
# Youngs Moduli (GPa) = 146.31930 45.73731 168.95389
#
# Poissons Ratio (x) = 0.14136 0.40131
# Poissons Ratio (y) = 0.45222 -0.42347
# Poissons Ratio (z) = 0.34754 -0.11464
#
# Static dielectric constant tensor:
#      x y z
#    x 2.071890 0.000020 -0.010570 
#    y 0.000020 2.052360 0.000050 
#    z -0.010570 0.000050 1.918440 
# 
# From -- ./inp_files/299305.got.cif
#   From: 2010.05.17/outbox.cif.g08.bks.cpg/sg15_150_cif.got.tgz:299305.got - 2010.06.03 18:47:42.
