data_PCOD9266995
_publ_section_title
;
Structure prediction by ZEFSAII (Michael W. Deem and Ramdas Pophale) SiO2 
 PCOD9266995
Probable space group: C 2/C
;
_chemical_formula_sum "Si O2"
_cell_formula_units_Z 56
_cell_length_a 7.574552
_cell_length_b 23.143975
_cell_length_c 18.661093
_cell_angle_alpha 90.000000
_cell_angle_beta 124.188092
_cell_angle_gamma 90.000000
_cell_volume 2706.083096
_symmetry_space_group_name_H-M "C 2/C"
_symmetry_group_IT_number 15
_symmetry_cell_setting 'monoclinic'
loop_
_space_group_symop_operation_xyz
x,y,z
-x,y,1/2-z
-x,-y,-z
x,-y,1/2+z
1/2+x,1/2+y,z
1/2-x,1/2+y,1/2-z
1/2-x,1/2-y,-z
1/2+x,1/2-y,1/2+z
loop_
_atom_site_type_symbol
_atom_site_label
_atom_site_fract_x
_atom_site_fract_y
_atom_site_fract_z
Si Si1 0.657056 0.932455 0.397225
Si Si2 0.048776 0.310271 0.177673
Si Si3 0.500000 0.854647 0.750000
Si Si4 0.423347 0.563248 0.096240
Si Si5 0.032377 0.187284 0.172768
Si Si6 0.638523 0.058012 0.394910
Si Si7 0.411107 0.562988 0.599922
Si Si8 0.500000 0.648490 0.750000
O O1 0.537076 0.872256 0.366510
O O2 0.739618 0.938561 0.496118
O O3 0.864401 0.930452 0.392446
O O4 0.541239 0.994033 0.359349
O O5 0.960107 0.249896 0.125572
O O6 0.301597 0.312702 0.226691
O O7 0.000000 0.310310 0.250000
O O8 0.721924 0.820694 0.795918
O O9 0.499046 0.894017 0.677309
O O10 0.421184 0.626398 0.129398
O O11 0.642943 0.558687 0.101475
O O12 0.403445 0.501912 0.131162
O O13 0.000000 0.192447 0.250000
O O14 0.722971 0.068709 0.495956
O O15 0.421649 0.609027 0.665655
#
# Coordination Sequence:
#
# PCOD9266995 Si02
#       8
#     8   8   4   8   8   8   8   4
#     4   9  17  36  59  82 116 148 182 228 289 339
#     4  11  23  38  56  79 112 154 193 227 274 333
#     4  10  19  38  64  80 109 152 184 232 288 330
#     4   8  17  35  59  84 114 145 181 237 282 332
#     4  10  22  38  56  81 111 148 193 233 273 330
#     4   8  17  33  61  89 113 147 182 227 289 342
#     4   9  18  35  58  91 117 140 184 235 282 337
#     4  12  23  36  60  84 115 150 186 236 278 330
#
# _framework density 20.694118
#
# number of rings (size 3 to 8) (size 9 to 14) (size 15 to 20)
#    0.000    2.571    1.429    2.143    2.000    1.714 
#    2.571    1.429    0.000    3.429    0.000    0.000 
#    0.000    0.000    0.000    0.000    0.000    0.000 
#
# Total GULP energy -155901.601457 kJ/mol
# GULP energy per Si atom -5567.914338 kJ/mol
# Density = 2.064702 g / cm^3
# Si number density = 20.694118 Si / 1000 Ang^3
#
#
#
# Elastic Constant Matrix: (Units=GPa)
#
#
# Indices 1 2 3 4 5 6 
#
# 1 59.3300 11.8501 -1.9575 0.0000 -6.1072 0.0000
# 2 11.8501 138.7812 27.0154 0.0000 0.3484 0.0000
# 3 -1.9575 27.0154 42.1637 0.0000 -7.9775 0.0000
# 4 0.0000 0.0000 0.0000 40.6691 0.0000 -4.2352
# 5 -6.1072 0.3484 -7.9775 0.0000 15.4854 0.0000
# 6 0.0000 0.0000 0.0000 -4.2352 0.0000 12.2032
#
#
#
# Elastic Compliance Matrix: (Units=1/GPa)
#
#
# Indices 1 2 3 4 5 6 
#
# 1 0.018454 -0.002418 0.004203 0.000000 0.009498 0.000000
# 2 -0.002418 0.008696 -0.006539 0.000000 -0.004518 0.000000
# 3 0.004203 -0.006539 0.031515 0.000000 0.018040 0.000000
# 4 0.000000 0.000000 0.000000 0.025511 0.000000 0.008854
# 5 0.009498 -0.004518 0.018040 0.000000 0.077718 0.000000
# 6 0.000000 0.000000 0.000000 0.008854 0.000000 0.085019
#
#
# Mechanical properties :
#
#
# Convention : Reuss Voigt Hill
#
# Bulk Modulus (GPa) = 20.34263 34.89897 27.62080
# Shear Modulus (GPa) = 18.32803 27.22933 22.77868
#
# Velocity S-wave (km/s) = 2.97924 3.63133 3.32133
# Velocity P-wave (km/s) = 4.65682 5.87221 5.29948
#
# Compressibility (1/GPa) = 0.04915785
#
# Stress axis : x y z
#
# Youngs Moduli (GPa) = 54.18851 114.99210 31.73078
#
# Poissons Ratio (x) = 0.27802 -0.13336
# Poissons Ratio (y) = 0.13101 0.20749
# Poissons Ratio (z) = -0.22775 0.75193
#
# Static dielectric constant tensor:
#      x y z
#    x 1.775340 0.000000 0.031660 
#    y 0.000000 1.848080 0.000000 
#    z 0.031660 0.000000 1.738830 
# 
# From -- ./inp_files/232839.got.cif
#   From: 2010.05.17/outbox.cif.g08.bks.cpg/sg15_117_cif.got.tgz:232839.got - 2010.06.03 18:47:42.
