data_PCOD9266989
_publ_section_title
;
Structure prediction by ZEFSAII (Michael W. Deem and Ramdas Pophale) SiO2 
 PCOD9266989
Probable space group: C 2/C
;
_chemical_formula_sum "Si O2"
_cell_formula_units_Z 52
_cell_length_a 16.505684
_cell_length_b 11.476787
_cell_length_c 19.759994
_cell_angle_alpha 90.000000
_cell_angle_beta 137.725232
_cell_angle_gamma 90.000000
_cell_volume 2517.987186
_symmetry_space_group_name_H-M "C 2/C"
_symmetry_group_IT_number 15
_symmetry_cell_setting 'monoclinic'
loop_
_space_group_symop_operation_xyz
x,y,z
-x,y,1/2-z
-x,-y,-z
x,-y,1/2+z
1/2+x,1/2+y,z
1/2-x,1/2+y,1/2-z
1/2-x,1/2-y,-z
1/2+x,1/2-y,1/2+z
loop_
_atom_site_type_symbol
_atom_site_label
_atom_site_fract_x
_atom_site_fract_y
_atom_site_fract_z
Si Si1 0.000000 0.303917 0.750000
Si Si2 0.364131 0.280071 0.968468
Si Si3 0.340566 0.621024 0.589975
Si Si4 0.263679 0.613509 0.073530
Si Si5 0.079072 0.396205 0.579980
Si Si6 0.360065 0.870364 0.143580
Si Si7 0.205171 0.558944 0.299503
O O1 0.945157 0.215620 0.662746
O O2 0.895609 0.380180 0.715861
O O3 0.274017 0.180424 0.943150
O O4 0.315931 0.348813 0.872403
O O5 0.342081 0.382460 0.010059
O O6 0.491270 0.215101 0.038343
O O7 0.352705 0.496434 0.631308
O O8 0.178050 0.626951 0.084499
O O9 0.333958 0.734257 0.115037
O O10 0.182162 0.582196 0.956397
O O11 0.146538 0.440312 0.689210
O O12 0.000000 0.500000 0.500000
O O13 0.500000 0.885124 0.250000
O O14 0.284741 0.932534 0.158018
#
# Coordination Sequence:
#
# PCOD9266989 Si02
#       7
#     4   8   8   8   8   8   8
#     4  10  20  34  68  94 122 162 218 266 316 370
#     4  10  21  38  66  93 127 162 213 274 323 378
#     4  10  19  38  63  98 122 160 220 267 312 388
#     4  11  25  43  63  94 130 170 219 264 328 393
#     4  12  24  40  63  99 135 167 208 282 333 383
#     4  11  24  43  68  86 126 178 218 256 320 411
#     4  11  22  39  66  95 123 172 218 262 330 391
#
# _framework density 20.651416000000001
#
# number of rings (size 3 to 8) (size 9 to 14) (size 15 to 20)
#    0.000    1.231    5.385    0.923    1.077    2.462 
#    0.000    0.769    0.000    0.000    0.000    0.000 
#    0.000    0.000    0.000    0.000    0.000    0.000 
#
# Total GULP energy -144801.897528 kJ/mol
# GULP energy per Si atom -5569.303751 kJ/mol
# Density = 2.060441 g / cm^3
# Si number density = 20.651416 Si / 1000 Ang^3
#
#
#
# Elastic Constant Matrix: (Units=GPa)
#
#
# Indices 1 2 3 4 5 6 
#
# 1 45.0356 29.1571 18.4259 0.0000 -13.4082 0.0000
# 2 29.1571 101.3668 16.9019 0.0000 -1.0598 0.0000
# 3 18.4259 16.9019 95.3903 0.0000 -25.5782 0.0000
# 4 0.0000 0.0000 0.0000 24.5611 0.0000 -6.2373
# 5 -13.4082 -1.0598 -25.5782 0.0000 26.0364 0.0000
# 6 0.0000 0.0000 0.0000 -6.2373 0.0000 13.8971
#
#
#
# Elastic Compliance Matrix: (Units=1/GPa)
#
#
# Indices 1 2 3 4 5 6 
#
# 1 0.033286 -0.009340 -0.000381 0.000000 0.016388 0.000000
# 2 -0.009340 0.012851 -0.002203 0.000000 -0.006451 0.000000
# 3 -0.000381 -0.002203 0.014758 0.000000 0.014213 0.000000
# 4 0.000000 0.000000 0.000000 0.045952 0.000000 0.020624
# 5 0.016388 -0.006451 0.014213 0.000000 0.060547 0.000000
# 6 0.000000 0.000000 0.000000 0.020624 0.000000 0.081214
#
#
# Mechanical properties :
#
#
# Convention : Reuss Voigt Hill
#
# Bulk Modulus (GPa) = 26.99066 41.19583 34.09324
# Shear Modulus (GPa) = 17.55588 24.71943 21.13766
#
# Velocity S-wave (km/s) = 2.91882 3.46350 3.20276
# Velocity P-wave (km/s) = 4.94544 5.99883 5.49742
#
# Compressibility (1/GPa) = 0.03704986
#
# Stress axis : x y z
#
# Youngs Moduli (GPa) = 30.04260 77.81229 67.75944
#
# Poissons Ratio (x) = 0.72674 0.02579
# Poissons Ratio (y) = 0.28059 0.14925
# Poissons Ratio (z) = 0.01143 0.17140
#
# Static dielectric constant tensor:
#      x y z
#    x 1.708820 0.000000 -0.058280 
#    y 0.000000 1.776830 0.000000 
#    z -0.058280 0.000000 1.990130 
# 
# From -- ./inp_files/248673.got.cif
#   From: 2010.05.17/outbox.cif.g08.bks.cpg/sg15_125_cif.got.tgz:248673.got - 2010.06.03 18:47:42.
