data_PCOD9266293
_publ_section_title
;
Structure prediction by ZEFSAII (Michael W. Deem and Ramdas Pophale) SiO2 
 PCOD9266293
Probable space group: C 2/C
;
_chemical_formula_sum "Si O2"
_cell_formula_units_Z 60
_cell_length_a 12.878990
_cell_length_b 12.352072
_cell_length_c 21.526716
_cell_angle_alpha 90.000000
_cell_angle_beta 125.166767
_cell_angle_gamma 90.000000
_cell_volume 2799.471581
_symmetry_space_group_name_H-M "C 2/C"
_symmetry_group_IT_number 15
_symmetry_cell_setting 'monoclinic'
loop_
_space_group_symop_operation_xyz
x,y,z
-x,y,1/2-z
-x,-y,-z
x,-y,1/2+z
1/2+x,1/2+y,z
1/2-x,1/2+y,1/2-z
1/2-x,1/2-y,-z
1/2+x,1/2-y,1/2+z
loop_
_atom_site_type_symbol
_atom_site_label
_atom_site_fract_x
_atom_site_fract_y
_atom_site_fract_z
Si Si1 0.904718 0.017084 0.067711
Si Si2 0.733961 0.308207 0.282958
Si Si3 0.895755 0.149822 0.878403
Si Si4 0.765793 0.355870 0.426529
Si Si5 0.500000 0.160254 0.250000
Si Si6 0.014675 0.217875 0.181896
Si Si7 0.592085 0.836004 0.907294
Si Si8 0.277354 0.163615 0.564121
O O1 0.964535 0.119437 0.122587
O O2 0.849719 0.936933 0.100937
O O3 0.787531 0.054554 0.984251
O O4 0.011231 0.946840 0.069892
O O5 0.678251 0.384458 0.209853
O O6 0.798684 0.360003 0.365858
O O7 0.617070 0.237333 0.269600
O O8 0.840200 0.238040 0.285562
O O9 0.802266 0.185201 0.900707
O O10 0.982964 0.250589 0.888460
O O11 0.714254 0.235236 0.426262
O O12 0.870483 0.386154 0.513772
O O13 0.455332 0.102055 0.170969
O O14 0.924254 0.320014 0.132442
O O15 0.000000 0.196593 0.250000
O O16 0.250000 0.250000 0.500000
#
# Coordination Sequence:
#
# PCOD9266293 Si02
#       8
#     8   8   8   8   4   8   8   8
#     4  10  23  38  66  93 120 162 219 274 300 378
#     4  10  20  36  64  91 122 166 207 262 314 381
#     4  10  19  37  62  92 120 162 218 261 313 371
#     4   9  18  34  57  91 119 150 207 259 313 353
#     4   8  16  34  56  88 114 154 220 244 300 370
#     4  11  23  41  64  90 129 172 210 252 326 388
#     4   8  16  30  58  84 120 156 195 261 309 367
#     4  10  22  40  59  87 126 169 211 255 315 391
#
# _framework density 21.432618000000002
#
# number of rings (size 3 to 8) (size 9 to 14) (size 15 to 20)
#    0.000    2.400    1.333    1.200    5.600    0.000 
#    4.800    0.667    7.333    0.000    0.000    0.000 
#    0.000    0.000    0.000    0.000    0.000    0.000 
#
# Total GULP energy -167111.375116 kJ/mol
# GULP energy per Si atom -5570.379171 kJ/mol
# Density = 2.138384 g / cm^3
# Si number density = 21.432618 Si / 1000 Ang^3
#
#
#
# Elastic Constant Matrix: (Units=GPa)
#
#
# Indices 1 2 3 4 5 6 
#
# 1 106.7150 10.9515 30.9398 0.0000 -12.2984 0.0000
# 2 10.9515 25.0520 6.2072 0.0000 5.4466 0.0000
# 3 30.9398 6.2072 127.3738 0.0000 -17.3539 0.0000
# 4 0.0000 0.0000 0.0000 23.6336 0.0000 3.6976
# 5 -12.2984 5.4466 -17.3539 0.0000 36.8250 0.0000
# 6 0.0000 0.0000 0.0000 3.6976 0.0000 6.2317
#
#
#
# Elastic Compliance Matrix: (Units=1/GPa)
#
#
# Indices 1 2 3 4 5 6 
#
# 1 0.010840 -0.005015 -0.001917 0.000000 0.003458 0.000000
# 2 -0.005015 0.044692 -0.002232 0.000000 -0.009337 0.000000
# 3 -0.001917 -0.002232 0.008958 0.000000 0.003911 0.000000
# 4 0.000000 0.000000 0.000000 0.046643 0.000000 -0.027675
# 5 0.003458 -0.009337 0.003911 0.000000 0.031535 0.000000
# 6 0.000000 0.000000 0.000000 -0.027675 0.000000 0.176890
#
#
# Mechanical properties :
#
#
# Convention : Reuss Voigt Hill
#
# Bulk Modulus (GPa) = 21.66321 39.48198 30.57259
# Shear Modulus (GPa) = 14.15328 27.40754 20.78041
#
# Velocity S-wave (km/s) = 2.57254 3.57988 3.11717
# Velocity P-wave (km/s) = 4.35356 5.96228 5.22026
#
# Compressibility (1/GPa) = 0.04616121
#
# Stress axis : x y z
#
# Youngs Moduli (GPa) = 92.25120 22.37517 111.62787
#
# Poissons Ratio (x) = 0.11222 0.21405
# Poissons Ratio (y) = 0.46268 0.24913
# Poissons Ratio (z) = 0.17689 0.04994
#
# Static dielectric constant tensor:
#      x y z
#    x 1.772670 0.000000 0.033380 
#    y 0.000000 1.781370 0.000000 
#    z 0.033380 0.000000 1.880830 
# 
# From -- ./inp_files/238800.got.cif
#   From: 2010.05.17/outbox.cif.g08.bks.cpg/sg15_120_cif.got.tgz:238800.got - 2010.06.03 18:47:42.
