data_PCOD9266578
_publ_section_title
;
Structure prediction by ZEFSAII (Michael W. Deem and Ramdas Pophale) SiO2 
 PCOD9266578
Probable space group: C 2/C
;
_chemical_formula_sum "Si O2"
_cell_formula_units_Z 56
_cell_length_a 17.216833
_cell_length_b 5.746337
_cell_length_c 24.043535
_cell_angle_alpha 90.000000
_cell_angle_beta 72.775994
_cell_angle_gamma 90.000000
_cell_volume 2272.041456
_symmetry_space_group_name_H-M "C 2/C"
_symmetry_group_IT_number 15
_symmetry_cell_setting 'monoclinic'
loop_
_space_group_symop_operation_xyz
x,y,z
-x,y,1/2-z
-x,-y,-z
x,-y,1/2+z
1/2+x,1/2+y,z
1/2-x,1/2+y,1/2-z
1/2-x,1/2-y,-z
1/2+x,1/2-y,1/2+z
loop_
_atom_site_type_symbol
_atom_site_label
_atom_site_fract_x
_atom_site_fract_y
_atom_site_fract_z
Si Si1 0.095100 0.612700 0.576871
Si Si2 0.968892 0.110031 0.885246
Si Si3 0.320807 0.108080 0.615724
Si Si4 0.429844 0.258419 0.034145
Si Si5 0.127637 0.051049 0.300322
Si Si6 0.760866 0.989561 0.567272
Si Si7 0.722569 0.769571 0.191787
O O1 0.048340 0.635679 0.528159
O O2 0.189859 0.572197 0.542978
O O3 0.069780 0.368832 0.611998
O O4 0.080938 0.865642 0.608709
O O5 0.003489 0.116317 0.941832
O O6 0.043073 0.080679 0.825981
O O7 0.363209 0.298921 0.645203
O O8 0.275871 0.217932 0.572424
O O9 0.387671 0.924897 0.584394
O O10 0.252283 0.979958 0.664931
O O11 0.351220 0.419134 0.037559
O O12 0.142903 0.224707 0.245483
O O13 0.204370 0.876149 0.286639
O O14 0.724991 0.077615 0.635128
#
# Coordination Sequence:
#
# PCOD9266578 Si02
#       7
#     8   8   8   8   8   8   8
#     4  12  29  44  67  98 146 186 213 278 351 400
#     4  12  26  44  67 100 141 174 228 276 342 410
#     4  10  19  37  68  97 131 155 237 282 326 382
#     4  11  23  43  71  98 129 182 236 279 322 402
#     4  11  20  37  67 101 124 172 216 294 328 392
#     4  10  24  43  67  98 133 177 230 283 326 414
#     4  10  20  36  70  96 126 163 234 278 335 378
#
# _framework density 24.647437
#
# number of rings (size 3 to 8) (size 9 to 14) (size 15 to 20)
#    0.000    1.143    5.714    2.143    6.000    0.571 
#    0.000    0.714    0.000    0.000    0.000    0.000 
#    0.000    0.000    0.000    0.000    0.000    0.000 
#
# Total GULP energy -156395.784126 kJ/mol
# GULP energy per Si atom -5585.563719 kJ/mol
# Density = 2.459134 g / cm^3
# Si number density = 24.647437 Si / 1000 Ang^3
#
#
#
# Elastic Constant Matrix: (Units=GPa)
#
#
# Indices 1 2 3 4 5 6 
#
# 1 75.3593 37.1752 3.3193 -0.0009 -15.4084 -0.0003
# 2 37.1752 137.5255 21.1430 -0.0017 -14.9888 -0.0004
# 3 3.3193 21.1430 81.4295 -0.0012 -21.3806 -0.0004
# 4 -0.0009 -0.0017 -0.0012 38.9012 -0.0004 -9.0936
# 5 -15.4084 -14.9888 -21.3806 -0.0004 28.0164 -0.0002
# 6 -0.0003 -0.0004 -0.0004 -9.0936 -0.0002 31.8137
#
#
#
# Elastic Compliance Matrix: (Units=1/GPa)
#
#
# Indices 1 2 3 4 5 6 
#
# 1 0.017043 -0.004018 0.002808 0.000000 0.009367 0.000000
# 2 -0.004018 0.008756 -0.001826 0.000000 0.001081 0.000000
# 3 0.002808 -0.001826 0.015994 0.000001 0.012773 0.000000
# 4 0.000000 0.000000 0.000001 0.027547 0.000001 0.007874
# 5 0.009367 0.001081 0.012773 0.000001 0.051171 0.000001
# 6 0.000000 0.000000 0.000000 0.007874 0.000001 0.033684
#
#
# Mechanical properties :
#
#
# Convention : Reuss Voigt Hill
#
# Bulk Modulus (GPa) = 27.99411 46.39881 37.19646
# Shear Modulus (GPa) = 29.04043 35.25804 32.14923
#
# Velocity S-wave (km/s) = 3.43626 3.78629 3.61552
# Velocity P-wave (km/s) = 5.20830 6.16284 5.70556
#
# Compressibility (1/GPa) = 0.03572179
#
# Stress axis : x y z
#
# Youngs Moduli (GPa) = 58.67413 114.20709 62.52349
#
# Poissons Ratio (x) = 0.45887 -0.17556
# Poissons Ratio (y) = 0.23574 0.11415
# Poissons Ratio (z) = -0.16475 0.20851
#
# Static dielectric constant tensor:
#      x y z
#    x 2.019680 0.000000 0.057990 
#    y 0.000000 2.017590 0.000000 
#    z 0.057990 0.000000 2.037440 
# 
# From -- ./inp_files/297734.got.cif
#   From: 2010.05.17/outbox.cif.g08.bks.cpg/sg15_149_cif.got.tgz:297734.got - 2010.06.03 18:47:42.
