data_PCOD9266689
_publ_section_title
;
Structure prediction by ZEFSAII (Michael W. Deem and Ramdas Pophale) SiO2 
 PCOD9266689
Probable space group: C 2/C
;
_chemical_formula_sum "Si O2"
_cell_formula_units_Z 56
_cell_length_a 9.997298
_cell_length_b 20.224119
_cell_length_c 21.010586
_cell_angle_alpha 90.000000
_cell_angle_beta 44.524112
_cell_angle_gamma 90.000000
_cell_volume 2978.777886
_symmetry_space_group_name_H-M "C 2/C"
_symmetry_group_IT_number 15
_symmetry_cell_setting 'monoclinic'
loop_
_space_group_symop_operation_xyz
x,y,z
-x,y,1/2-z
-x,-y,-z
x,-y,1/2+z
1/2+x,1/2+y,z
1/2-x,1/2+y,1/2-z
1/2-x,1/2-y,-z
1/2+x,1/2-y,1/2+z
loop_
_atom_site_type_symbol
_atom_site_label
_atom_site_fract_x
_atom_site_fract_y
_atom_site_fract_z
Si Si1 0.113683 0.934113 0.778054
Si Si2 0.840395 0.348346 0.252856
Si Si3 0.698976 0.237722 0.106425
Si Si4 0.232290 0.290174 0.743530
Si Si5 0.884315 0.456962 0.131808
Si Si6 0.779266 0.988639 0.451260
Si Si7 0.593941 0.352124 0.058594
O O1 0.181464 0.862039 0.775713
O O2 0.000000 0.927626 0.750000
O O3 0.966766 0.967290 0.877281
O O4 0.289188 0.983856 0.705299
O O5 0.845067 0.269623 0.238395
O O6 0.861633 0.390731 0.180915
O O7 0.628407 0.360665 0.351603
O O8 0.000000 0.367383 0.250000
O O9 0.488576 0.210505 0.158928
O O10 0.724234 0.229297 0.172268
O O11 0.690055 0.313117 0.085510
O O12 0.858217 0.196205 0.015708
O O13 0.775792 0.461230 0.100726
O O14 0.103222 0.471179 0.039784
O O15 0.818107 0.924015 0.479705
#
# Coordination Sequence:
#
# PCOD9266689 Si02
#       7
#     8   8   8   8   8   8   8
#     4  10  20  36  57  83 114 152 189 236 287 342
#     4  11  23  39  58  84 119 159 191 241 297 347
#     4   9  20  35  61  87 110 147 197 240 294 336
#     4  10  20  38  58  85 117 151 193 238 288 349
#     4  10  21  38  57  87 115 147 202 237 292 348
#     4  10  20  36  62  83 111 154 195 243 288 346
#     4  10  19  38  59  85 113 148 196 244 287 348
#
# _framework density 18.799655000000001
#
# number of rings (size 3 to 8) (size 9 to 14) (size 15 to 20)
#    0.000    2.000    1.429    2.143    0.000    2.286 
#    5.143    7.143    0.000    0.000    0.000    0.000 
#    0.000    0.000    0.000    0.000    0.000    0.000 
#
# Total GULP energy -156236.426841 kJ/mol
# GULP energy per Si atom -5579.872387 kJ/mol
# Density = 1.875687 g / cm^3
# Si number density = 18.799655 Si / 1000 Ang^3
#
#
#
# Elastic Constant Matrix: (Units=GPa)
#
#
# Indices 1 2 3 4 5 6 
#
# 1 25.2411 3.0454 9.8731 0.0005 1.9842 0.0007
# 2 3.0454 84.2863 16.8968 0.0002 -8.8043 0.0003
# 3 9.8731 16.8968 98.4483 -0.0003 -5.7323 0.0004
# 4 0.0005 0.0002 -0.0003 2.5317 -0.0003 -0.7999
# 5 1.9842 -8.8043 -5.7323 -0.0003 8.5487 -0.0002
# 6 0.0007 0.0003 0.0004 -0.7999 -0.0002 12.7930
#
#
#
# Elastic Compliance Matrix: (Units=1/GPa)
#
#
# Indices 1 2 3 4 5 6 
#
# 1 0.042993 -0.002202 -0.004836 -0.000012 -0.015489 -0.000003
# 2 -0.002202 0.013637 -0.001324 0.000001 0.013668 0.000000
# 3 -0.004836 -0.001324 0.011297 0.000003 0.007334 0.000000
# 4 -0.000012 0.000001 0.000003 0.402946 0.000023 0.025196
# 5 -0.015489 0.013668 0.007334 0.000023 0.139567 0.000004
# 6 -0.000003 0.000000 0.000000 0.025196 0.000004 0.079743
#
#
# Mechanical properties :
#
#
# Convention : Reuss Voigt Hill
#
# Bulk Modulus (GPa) = 19.52985 29.73404 24.63195
# Shear Modulus (GPa) = 6.90633 16.65204 11.77919
#
# Velocity S-wave (km/s) = 1.91876 2.97941 2.50584
# Velocity P-wave (km/s) = 3.91405 5.26179 4.63714
#
# Compressibility (1/GPa) = 0.05120366
#
# Stress axis : x y z
#
# Youngs Moduli (GPa) = 23.25978 73.32986 88.52060
#
# Poissons Ratio (x) = 0.16147 0.42805
# Poissons Ratio (y) = 0.05122 0.11719
# Poissons Ratio (z) = 0.11247 0.09708
#
# Static dielectric constant tensor:
#      x y z
#    x 1.640490 0.000000 0.002430 
#    y 0.000000 1.627450 0.000000 
#    z 0.002430 0.000000 1.645260 
# 
# From -- ./inp_files/270375.got.cif
#   From: 2010.05.17/outbox.cif.g08.bks.cpg/sg15_136_cif.got.tgz:270375.got - 2010.06.03 18:47:42.
