data_PCOD9266521
_publ_section_title
;
Structure prediction by ZEFSAII (Michael W. Deem and Ramdas Pophale) SiO2 
 PCOD9266521
Probable space group: C 2/C
;
_chemical_formula_sum "Si O2"
_cell_formula_units_Z 60
_cell_length_a 7.389009
_cell_length_b 11.943276
_cell_length_c 26.418185
_cell_angle_alpha 90.000000
_cell_angle_beta 93.884955
_cell_angle_gamma 90.000000
_cell_volume 2326.020454
_symmetry_space_group_name_H-M "C 2/C"
_symmetry_group_IT_number 15
_symmetry_cell_setting 'monoclinic'
loop_
_space_group_symop_operation_xyz
x,y,z
-x,y,1/2-z
-x,-y,-z
x,-y,1/2+z
1/2+x,1/2+y,z
1/2-x,1/2+y,1/2-z
1/2-x,1/2-y,-z
1/2+x,1/2-y,1/2+z
loop_
_atom_site_type_symbol
_atom_site_label
_atom_site_fract_x
_atom_site_fract_y
_atom_site_fract_z
Si Si1 0.466768 0.989170 0.362652
Si Si2 0.798186 0.752156 0.840124
Si Si3 0.488988 0.136133 0.491633
Si Si4 0.206368 0.914423 0.055588
Si Si5 0.132796 0.845452 0.559484
Si Si6 0.709213 0.703456 0.735559
Si Si7 0.891479 0.722241 0.372167
Si Si8 0.000000 0.513622 0.750000
O O1 0.365586 0.092887 0.387426
O O2 0.361207 0.874755 0.351175
O O3 0.638861 0.953764 0.399905
O O4 0.494734 0.039389 0.305900
O O5 0.899232 0.831008 0.881142
O O6 0.802671 0.778873 0.780857
O O7 0.592469 0.758490 0.854821
O O8 0.275719 0.130767 0.502943
O O9 0.654057 0.156027 0.454688
O O10 0.552486 0.232686 0.533274
O O11 0.500000 0.000000 0.500000
O O12 0.127295 0.805536 0.081490
O O13 0.085188 0.025245 0.048030
O O14 0.500000 0.691295 0.750000
O O15 0.729547 0.745285 0.678739
O O16 0.819504 0.588696 0.741608
#
# Coordination Sequence:
#
# PCOD9266521 Si02
#       8
#     8   8   8   8   8   8   8   4
#     4  11  22  37  63  88 123 170 209 259 317 388
#     4  10  21  38  59  90 123 159 213 258 311 383
#     4   9  20  37  64  94 123 159 212 265 324 388
#     4  11  21  38  63  92 121 161 212 260 314 393
#     4  10  19  37  66  90 120 170 206 260 331 379
#     4   9  20  37  60  90 132 167 218 269 311 393
#     4  11  23  39  60  92 129 167 206 261 321 373
#     4  10  20  38  64  88 128 184 216 264 336 374
#
# _framework density 25.795133
#
# number of rings (size 3 to 8) (size 9 to 14) (size 15 to 20)
#    0.000    1.867    4.000    0.000    2.800    1.067 
#    0.000    0.667    5.867    4.800    0.000    0.000 
#    0.000    0.000    0.000    0.000    0.000    0.000 
#
# Total GULP energy -167086.915688 kJ/mol
# GULP energy per Si atom -5569.563856 kJ/mol
# Density = 2.573642 g / cm^3
# Si number density = 25.795133 Si / 1000 Ang^3
#
#
#
# Elastic Constant Matrix: (Units=GPa)
#
#
# Indices 1 2 3 4 5 6 
#
# 1 53.6962 46.6561 20.6678 0.0000 6.5833 0.0000
# 2 46.6561 162.1008 21.1261 0.0000 0.5378 0.0000
# 3 20.6678 21.1261 96.8825 0.0000 -3.2756 0.0000
# 4 0.0000 0.0000 0.0000 39.3132 0.0000 -8.1396
# 5 6.5833 0.5378 -3.2756 0.0000 39.3275 0.0000
# 6 0.0000 0.0000 0.0000 -8.1396 0.0000 37.7627
#
#
#
# Elastic Compliance Matrix: (Units=1/GPa)
#
#
# Indices 1 2 3 4 5 6 
#
# 1 0.027192 -0.007239 -0.004385 0.000000 -0.004818 0.000000
# 2 -0.007239 0.008278 -0.000224 0.000000 0.001080 0.000000
# 3 -0.004385 -0.000224 0.011363 0.000000 0.001684 0.000000
# 4 0.000000 0.000000 0.000000 0.026625 0.000000 0.005739
# 5 -0.004818 0.001080 0.001684 0.000000 0.026359 0.000000
# 6 0.000000 0.000000 0.000000 0.005739 0.000000 0.027718
#
#
# Mechanical properties :
#
#
# Convention : Reuss Voigt Hill
#
# Bulk Modulus (GPa) = 43.22240 54.39773 48.81006
# Shear Modulus (GPa) = 31.45757 38.22931 34.84344
#
# Velocity S-wave (km/s) = 3.49594 3.85390 3.67928
# Velocity P-wave (km/s) = 5.75221 6.39824 6.08381
#
# Compressibility (1/GPa) = 0.02313615
#
# Stress axis : x y z
#
# Youngs Moduli (GPa) = 36.77602 120.79983 88.00408
#
# Poissons Ratio (x) = 0.87445 0.38591
# Poissons Ratio (y) = 0.26622 0.01974
# Poissons Ratio (z) = 0.16127 0.02710
#
# Static dielectric constant tensor:
#      x y z
#    x 2.115610 0.000000 0.037940 
#    y 0.000000 2.017930 0.000000 
#    z 0.037940 0.000000 2.339120 
# 
# From -- ./inp_files/307178.got.cif
#   From: 2010.05.17/outbox.cif.g08.bks.cpg/sg15_154_cif.got.tgz:307178.got - 2010.06.03 18:47:42.
