data_PCOD9266021
_publ_section_title
;
Structure prediction by ZEFSAII (Michael W. Deem and Ramdas Pophale) SiO2 
 PCOD9266021
Probable space group: C 2/C
;
_chemical_formula_sum "Si O2"
_cell_formula_units_Z 40
_cell_length_a 17.407013
_cell_length_b 7.439653
_cell_length_c 12.756181
_cell_angle_alpha 90.000000
_cell_angle_beta 103.049170
_cell_angle_gamma 90.000000
_cell_volume 1609.293753
_symmetry_space_group_name_H-M "C 2/C"
_symmetry_group_IT_number 15
_symmetry_cell_setting 'monoclinic'
loop_
_space_group_symop_operation_xyz
x,y,z
-x,y,1/2-z
-x,-y,-z
x,-y,1/2+z
1/2+x,1/2+y,z
1/2-x,1/2+y,1/2-z
1/2-x,1/2-y,-z
1/2+x,1/2-y,1/2+z
loop_
_atom_site_type_symbol
_atom_site_label
_atom_site_fract_x
_atom_site_fract_y
_atom_site_fract_z
Si Si1 0.903664 0.083275 0.029321
Si Si2 0.625402 0.961472 0.575648
Si Si3 0.558971 0.314325 0.638574
Si Si4 0.234719 0.520006 0.426214
Si Si5 0.773138 0.811381 0.737710
O O1 0.969551 0.129221 0.136342
O O2 0.907141 0.263340 0.958413
O O3 0.811177 0.040653 0.018287
O O4 0.928856 0.912120 0.969545
O O5 0.658008 0.033472 0.474196
O O6 0.702906 0.928345 0.668502
O O7 0.570321 0.101816 0.619506
O O8 0.636432 0.376988 0.726342
O O9 0.226340 0.357581 0.340359
O O10 0.251132 0.690996 0.356275
#
# Coordination Sequence:
#
# PCOD9266021 Si02
#       5
#     8   8   8   8   8
#     4   9  20  36  60  90 119 159 198 252 313 361
#     4  11  21  39  62  89 120 160 208 249 302 367
#     4  10  20  37  62  88 122 164 197 251 314 357
#     4  10  21  38  60  90 116 159 204 251 299 366
#     4  10  19  37  59  87 117 155 204 249 296 364
#
# _framework density 24.855623999999999
#
# number of rings (size 3 to 8) (size 9 to 14) (size 15 to 20)
#    0.000    2.000    2.000    3.000    0.000    3.200 
#    3.600    4.000    0.000    0.000    0.000    0.000 
#    0.000    0.000    0.000    0.000    0.000    0.000 
#
# Total GULP energy -111506.464133 kJ/mol
# GULP energy per Si atom -5575.323207 kJ/mol
# Density = 2.479905 g / cm^3
# Si number density = 24.855624 Si / 1000 Ang^3
#
#
#
# Elastic Constant Matrix: (Units=GPa)
#
#
# Indices 1 2 3 4 5 6 
#
# 1 76.0797 5.4690 24.8204 0.0000 18.4072 0.0000
# 2 5.4690 90.5945 23.4569 0.0000 8.5694 0.0000
# 3 24.8204 23.4569 108.7109 0.0000 45.2886 0.0000
# 4 0.0000 0.0000 0.0000 33.2024 0.0000 10.1874
# 5 18.4072 8.5694 45.2886 0.0000 52.6319 0.0000
# 6 0.0000 0.0000 0.0000 10.1874 0.0000 23.4381
#
#
#
# Elastic Compliance Matrix: (Units=1/GPa)
#
#
# Indices 1 2 3 4 5 6 
#
# 1 0.014602 -0.000068 -0.001865 0.000000 -0.003491 0.000000
# 2 -0.000068 0.011698 -0.002689 0.000000 0.000433 0.000000
# 3 -0.001865 -0.002689 0.015199 0.000000 -0.011988 0.000000
# 4 0.000000 0.000000 0.000000 0.034753 0.000000 -0.015106
# 5 -0.003491 0.000433 -0.011988 0.000000 0.030466 0.000000
# 6 0.000000 0.000000 0.000000 -0.015106 0.000000 0.049231
#
#
# Mechanical properties :
#
#
# Convention : Reuss Voigt Hill
#
# Bulk Modulus (GPa) = 31.00323 42.54197 36.77260
# Shear Modulus (GPa) = 28.41805 36.63038 32.52421
#
# Velocity S-wave (km/s) = 3.38498 3.84308 3.62128
# Velocity P-wave (km/s) = 5.27047 6.07002 5.68432
#
# Compressibility (1/GPa) = 0.03225470
#
# Stress axis : x y z
#
# Youngs Moduli (GPa) = 68.48353 85.48794 65.79401
#
# Poissons Ratio (x) = 0.00585 0.12269
# Poissons Ratio (y) = 0.00469 0.17690
# Poissons Ratio (z) = 0.12770 0.22986
#
# Static dielectric constant tensor:
#      x y z
#    x 2.056100 0.000000 0.011800 
#    y 0.000000 2.062400 0.000000 
#    z 0.011800 0.000000 1.994530 
# 
# From -- ./inp_files/165869.got.cif
#   From: 2010.05.17/outbox.cif.g08.bks.cpg/sg15_83_cif.got.tgz:165869.got - 2010.06.03 18:47:42.
