data_PCOD9266980
_publ_section_title
;
Structure prediction by ZEFSAII (Michael W. Deem and Ramdas Pophale) SiO2 
 PCOD9266980
Probable space group: C 2/C
;
_chemical_formula_sum "Si O2"
_cell_formula_units_Z 40
_cell_length_a 25.075782
_cell_length_b 8.280978
_cell_length_c 23.612784
_cell_angle_alpha 90.000000
_cell_angle_beta 20.668910
_cell_angle_gamma 90.000000
_cell_volume 1730.683522
_symmetry_space_group_name_H-M "C 2/C"
_symmetry_group_IT_number 15
_symmetry_cell_setting 'monoclinic'
loop_
_space_group_symop_operation_xyz
x,y,z
-x,y,1/2-z
-x,-y,-z
x,-y,1/2+z
1/2+x,1/2+y,z
1/2-x,1/2+y,1/2-z
1/2-x,1/2-y,-z
1/2+x,1/2-y,1/2+z
loop_
_atom_site_type_symbol
_atom_site_label
_atom_site_fract_x
_atom_site_fract_y
_atom_site_fract_z
Si Si1 0.242699 0.335069 0.932386
Si Si2 0.000000 0.012280 0.750000
Si Si3 0.881241 0.673287 0.174297
Si Si4 0.745630 0.446259 0.924793
Si Si5 0.000000 0.507182 0.250000
Si Si6 0.789191 0.516152 0.653655
O O1 0.379332 0.405837 0.834274
O O2 0.240717 0.409868 0.871971
O O3 0.253976 0.357771 0.075767
O O4 0.094558 0.398781 0.111992
O O5 0.093107 0.102703 0.608261
O O6 0.784039 0.616259 0.324936
O O7 0.817895 0.590637 0.180494
O O8 0.850635 0.862997 0.199536
O O9 0.054640 0.617820 0.009454
O O10 0.880276 0.394869 0.832508
#
# Coordination Sequence:
#
# PCOD9266980 Si02
#       6
#     8   4   8   8   4   8
#     4  11  20  39  66  98 132 173 215 266 310 380
#     4  10  23  34  67 102 131 170 227 250 317 374
#     4  11  26  47  68  95 128 168 215 270 327 385
#     4  11  20  39  66  98 132 173 215 266 310 380
#     4  10  19  38  63  94 133 176 213 264 313 374
#     4  11  26  47  68  95 128 168 215 270 327 385
#
# _framework density 23.112255000000001
#
# number of rings (size 3 to 8) (size 9 to 14) (size 15 to 20)
#    0.000    1.200    2.000    6.000    2.800    0.800 
#    0.000    6.000    0.000    0.000    0.000    0.000 
#    0.000    0.000    0.000    0.000    0.000    0.000 
#
# Total GULP energy -112033.379956 kJ/mol
# GULP energy per Si atom -5601.668998 kJ/mol
# Density = 2.305965 g / cm^3
# Si number density = 23.112255 Si / 1000 Ang^3
#
#
#
# Elastic Constant Matrix: (Units=GPa)
#
#
# Indices 1 2 3 4 5 6 
#
# 1 140.0006 36.9549 23.0104 -0.0014 18.6118 0.0003
# 2 36.9549 69.2899 20.3801 -0.0064 2.5664 0.0023
# 3 23.0104 20.3801 91.6649 -0.0069 7.2875 0.0025
# 4 -0.0014 -0.0064 -0.0069 28.4006 0.0017 2.4524
# 5 18.6118 2.5664 7.2875 0.0017 31.2231 -0.0001
# 6 0.0003 0.0023 0.0025 2.4524 -0.0001 37.8115
#
#
#
# Elastic Compliance Matrix: (Units=1/GPa)
#
#
# Indices 1 2 3 4 5 6 
#
# 1 0.009101 -0.004404 -0.000920 0.000000 -0.004848 0.000000
# 2 -0.004404 0.017580 -0.002952 0.000003 0.001869 -0.000001
# 3 -0.000920 -0.002952 0.011955 0.000002 -0.001999 -0.000001
# 4 0.000000 0.000003 0.000002 0.035409 -0.000002 -0.002297
# 5 -0.004848 0.001869 -0.001999 -0.000002 0.035231 0.000000
# 6 0.000000 -0.000001 -0.000001 -0.002297 0.000000 0.026596
#
#
# Mechanical properties :
#
#
# Convention : Reuss Voigt Hill
#
# Bulk Modulus (GPa) = 45.27902 51.29402 48.28652
# Shear Modulus (GPa) = 31.29218 34.19437 32.74328
#
# Velocity S-wave (km/s) = 3.68356 3.85059 3.76800
# Velocity P-wave (km/s) = 6.14206 6.48159 6.31411
#
# Compressibility (1/GPa) = 0.02208528
#
# Stress axis : x y z
#
# Youngs Moduli (GPa) = 109.87794 56.88361 83.64368
#
# Poissons Ratio (x) = 0.25050 0.07696
# Poissons Ratio (y) = 0.48387 0.24689
# Poissons Ratio (z) = 0.10109 0.16790
#
# Static dielectric constant tensor:
#      x y z
#    x 1.816340 0.000000 -0.012540 
#    y 0.000000 1.860440 0.000000 
#    z -0.012540 0.000000 1.877440 
# 
# From -- ./inp_files/303078.got.cif
#   From: 2010.05.17/outbox.cif.g08.bks.cpg/sg15_152_cif.got.tgz:303078.got - 2010.06.03 18:47:42.
