data_PCOD9266241
_publ_section_title
;
Structure prediction by ZEFSAII (Michael W. Deem and Ramdas Pophale) SiO2 
 PCOD9266241
Probable space group: C 2/C
;
_chemical_formula_sum "Si O2"
_cell_formula_units_Z 56
_cell_length_a 11.034705
_cell_length_b 27.171469
_cell_length_c 9.712996
_cell_angle_alpha 90.000000
_cell_angle_beta 79.253552
_cell_angle_gamma 90.000000
_cell_volume 2861.164313
_symmetry_space_group_name_H-M "C 2/C"
_symmetry_group_IT_number 15
_symmetry_cell_setting 'monoclinic'
loop_
_space_group_symop_operation_xyz
x,y,z
-x,y,1/2-z
-x,-y,-z
x,-y,1/2+z
1/2+x,1/2+y,z
1/2-x,1/2+y,1/2-z
1/2-x,1/2-y,-z
1/2+x,1/2-y,1/2+z
loop_
_atom_site_type_symbol
_atom_site_label
_atom_site_fract_x
_atom_site_fract_y
_atom_site_fract_z
Si Si1 0.570325 0.287503 0.591448
Si Si2 0.236124 0.918595 0.008004
Si Si3 0.633624 0.978937 0.013124
Si Si4 0.127840 0.401370 0.786855
Si Si5 0.020890 0.125740 0.899656
Si Si6 0.856301 0.316803 0.505197
Si Si7 0.801028 0.602934 0.799275
O O1 0.500000 0.288087 0.750000
O O2 0.514881 0.329235 0.505418
O O3 0.715551 0.301356 0.571462
O O4 0.566982 0.232775 0.529166
O O5 0.090223 0.911699 0.051241
O O6 0.300178 0.897810 0.134067
O O7 0.282964 0.892307 0.859949
O O8 0.276996 0.975029 0.987772
O O9 0.633968 0.944581 0.148228
O O10 0.676465 0.942765 0.881075
O O11 0.500000 0.000000 0.000000
O O12 0.000000 0.419910 0.750000
O O13 0.101347 0.353529 0.884143
O O14 0.000000 0.145452 0.750000
O O15 0.156450 0.101900 0.874187
O O16 0.853398 0.348612 0.364106
#
# Coordination Sequence:
#
# PCOD9266241 Si02
#       7
#     8   8   8   8   8   8   8
#     4  10  19  37  62  83 111 150 196 234 292 347
#     4  11  21  35  61  85 115 154 194 236 292 344
#     4  11  22  39  56  83 118 158 191 235 284 345
#     4  11  22  37  54  85 117 148 194 236 286 335
#     4   9  20  39  59  86 115 151 188 245 294 341
#     4   9  21  38  56  83 116 150 189 242 284 346
#     4   9  21  39  58  82 119 152 194 236 287 344
#
# _framework density 19.57245
#
# number of rings (size 3 to 8) (size 9 to 14) (size 15 to 20)
#    0.000    2.000    1.429    1.714    0.000    2.286 
#    0.000    1.429    0.000    8.571    0.000    0.000 
#    0.000    0.000    0.000    0.000    0.000    0.000 
#
# Total GULP energy -156368.461744 kJ/mol
# GULP energy per Si atom -5584.587919 kJ/mol
# Density = 1.952790 g / cm^3
# Si number density = 19.572450 Si / 1000 Ang^3
#
#
#
# Elastic Constant Matrix: (Units=GPa)
#
#
# Indices 1 2 3 4 5 6 
#
# 1 58.1155 30.5147 23.2182 0.0000 6.4994 0.0000
# 2 30.5147 108.2629 37.9812 0.0000 1.2463 0.0000
# 3 23.2182 37.9812 120.7092 0.0000 -2.7499 0.0000
# 4 0.0000 0.0000 0.0000 11.4572 0.0000 -2.0528
# 5 6.4994 1.2463 -2.7499 0.0000 22.5647 0.0000
# 6 0.0000 0.0000 0.0000 -2.0528 0.0000 442.5555
#
#
#
# Elastic Compliance Matrix: (Units=1/GPa)
#
#
# Indices 1 2 3 4 5 6 
#
# 1 0.021662 -0.005082 -0.002711 0.000000 -0.006289 0.000000
# 2 -0.005082 0.011597 -0.002660 0.000000 0.000499 0.000000
# 3 -0.002711 -0.002660 0.009691 0.000000 0.002109 0.000000
# 4 0.000000 0.000000 0.000000 0.087354 0.000000 0.000405
# 5 -0.006289 0.000499 0.002109 0.000000 0.046358 0.000000
# 6 0.000000 0.000000 0.000000 0.000405 0.000000 0.002261
#
#
# Mechanical properties :
#
#
# Convention : Reuss Voigt Hill
#
# Bulk Modulus (GPa) = 45.36486 52.27956 48.82221
# Shear Modulus (GPa) = 24.13402 108.34038 66.23720
#
# Velocity S-wave (km/s) = 3.51531 7.44807 5.82370
# Velocity P-wave (km/s) = 6.30117 10.03662 8.37969
#
# Compressibility (1/GPa) = 0.02204349
#
# Stress axis : x y z
#
# Youngs Moduli (GPa) = 46.16386 86.23166 103.19073
#
# Poissons Ratio (x) = 0.43824 0.27973
# Poissons Ratio (y) = 0.23461 0.27448
# Poissons Ratio (z) = 0.12514 0.22937
#
# Static dielectric constant tensor:
#      x y z
#    x 1.699130 0.000000 -0.007590 
#    y 0.000000 1.668940 0.000000 
#    z -0.007590 0.000000 1.706050 
# 
# From -- ./inp_files/34191.got.cif
#   From: 2010.05.17/outbox.cif.g08.bks.cpg/sg15_18_cif.got.tgz:34191.got - 2010.06.03 18:47:42.
