data_PCOD9266431
_publ_section_title
;
Structure prediction by ZEFSAII (Michael W. Deem and Ramdas Pophale) SiO2 
 PCOD9266431
Probable space group: C 2/C
;
_chemical_formula_sum "Si O2"
_cell_formula_units_Z 48
_cell_length_a 27.868007
_cell_length_b 10.028666
_cell_length_c 9.112110
_cell_angle_alpha 90.000000
_cell_angle_beta 115.415668
_cell_angle_gamma 90.000000
_cell_volume 2300.173516
_symmetry_space_group_name_H-M "C 2/C"
_symmetry_group_IT_number 15
_symmetry_cell_setting 'monoclinic'
loop_
_space_group_symop_operation_xyz
x,y,z
-x,y,1/2-z
-x,-y,-z
x,-y,1/2+z
1/2+x,1/2+y,z
1/2-x,1/2+y,1/2-z
1/2-x,1/2-y,-z
1/2+x,1/2-y,1/2+z
loop_
_atom_site_type_symbol
_atom_site_label
_atom_site_fract_x
_atom_site_fract_y
_atom_site_fract_z
Si Si1 0.086352 0.579771 0.645304
Si Si2 0.765112 0.896674 0.566688
Si Si3 0.344190 0.050420 0.043282
Si Si4 0.514118 0.828287 0.599951
Si Si5 0.615624 0.323799 0.275317
Si Si6 0.162481 0.983459 0.591577
O O1 0.131578 0.585556 0.582186
O O2 0.116798 0.562618 0.837326
O O3 0.050657 0.445732 0.580532
O O4 0.040839 0.689368 0.559392
O O5 0.750000 0.750000 0.500000
O O6 0.804298 0.889180 0.756639
O O7 0.714650 0.991027 0.536233
O O8 0.796311 0.958260 0.471135
O O9 0.352950 0.183559 0.153868
O O10 0.500000 0.867255 0.750000
O O11 0.554293 0.706610 0.663888
O O12 0.621459 0.406082 0.434017
O O13 0.639381 0.403919 0.169207
#
# Coordination Sequence:
#
# PCOD9266431 Si02
#       6
#     8   8   8   8   8   8
#     4  10  20  36  63  99 126 159 213 267 331 383
#     4  11  26  39  67  99 134 170 223 262 337 397
#     4  11  23  39  69  98 132 172 208 278 340 387
#     4  10  19  37  64  93 125 165 208 271 330 384
#     4  10  23  44  68  86 137 173 224 271 337 380
#     4  10  25  44  61  94 131 180 223 276 311 399
#
# _framework density 20.867992000000001
#
# number of rings (size 3 to 8) (size 9 to 14) (size 15 to 20)
#    0.000    1.667    3.333    1.000   11.667    1.333 
#    0.000    0.833    7.333    0.000    0.000    0.000 
#    0.000    0.000    0.000    0.000    0.000    0.000 
#
# Total GULP energy -133971.386332 kJ/mol
# GULP energy per Si atom -5582.141097 kJ/mol
# Density = 2.082050 g / cm^3
# Si number density = 20.867992 Si / 1000 Ang^3
#
#
#
# Elastic Constant Matrix: (Units=GPa)
#
#
# Indices 1 2 3 4 5 6 
#
# 1 104.8642 39.2323 36.0664 0.0000 -0.6978 0.0000
# 2 39.2323 59.2759 18.0210 0.0000 9.4465 0.0000
# 3 36.0664 18.0210 78.0193 0.0000 3.8938 0.0000
# 4 0.0000 0.0000 0.0000 32.4010 0.0000 12.0065
# 5 -0.6978 9.4465 3.8938 0.0000 17.5883 0.0000
# 6 0.0000 0.0000 0.0000 12.0065 0.0000 29.0598
#
#
#
# Elastic Compliance Matrix: (Units=1/GPa)
#
#
# Indices 1 2 3 4 5 6 
#
# 1 0.014802 -0.009341 -0.005020 0.000000 0.006716 0.000000
# 2 -0.009341 0.025536 -0.000887 0.000000 -0.013889 0.000000
# 3 -0.005020 -0.000887 0.015500 0.000000 -0.003154 0.000000
# 4 0.000000 0.000000 0.000000 0.036443 0.000000 -0.015057
# 5 0.006716 -0.013889 -0.003154 0.000000 0.065280 0.000000
# 6 0.000000 0.000000 0.000000 -0.015057 0.000000 0.040633
#
#
# Mechanical properties :
#
#
# Convention : Reuss Voigt Hill
#
# Bulk Modulus (GPa) = 39.46031 47.64431 43.55231
# Shear Modulus (GPa) = 21.08481 25.73248 23.40865
#
# Velocity S-wave (km/s) = 3.18211 3.51537 3.35289
# Velocity P-wave (km/s) = 5.69664 6.27359 5.99206
#
# Compressibility (1/GPa) = 0.02534192
#
# Stress axis : x y z
#
# Youngs Moduli (GPa) = 67.55782 39.16083 64.51451
#
# Poissons Ratio (x) = 0.36580 0.32388
# Poissons Ratio (y) = 0.63105 0.05722
# Poissons Ratio (z) = 0.33916 0.03474
#
# Static dielectric constant tensor:
#      x y z
#    x 1.715530 0.000000 0.041210 
#    y 0.000000 1.812750 0.000000 
#    z 0.041210 0.000000 1.768630 
# 
# From -- ./inp_files/65251.got.cif
#   From: 2010.05.17/outbox.cif.g08.bks.cpg/sg15_33_cif.got.tgz:65251.got - 2010.06.03 18:47:42.
