data_PCOD9266414
_publ_section_title
;
Structure prediction by ZEFSAII (Michael W. Deem and Ramdas Pophale) SiO2 
 PCOD9266414
Probable space group: C 2/C
;
_chemical_formula_sum "Si O2"
_cell_formula_units_Z 56
_cell_length_a 27.871144
_cell_length_b 9.694403
_cell_length_c 19.070072
_cell_angle_alpha 90.000000
_cell_angle_beta 26.781185
_cell_angle_gamma 90.000000
_cell_volume 2321.690662
_symmetry_space_group_name_H-M "C 2/C"
_symmetry_group_IT_number 15
_symmetry_cell_setting 'monoclinic'
loop_
_space_group_symop_operation_xyz
x,y,z
-x,y,1/2-z
-x,-y,-z
x,-y,1/2+z
1/2+x,1/2+y,z
1/2-x,1/2+y,1/2-z
1/2-x,1/2-y,-z
1/2+x,1/2-y,1/2+z
loop_
_atom_site_type_symbol
_atom_site_label
_atom_site_fract_x
_atom_site_fract_y
_atom_site_fract_z
Si Si1 0.836026 0.030733 0.463898
Si Si2 0.450603 0.295473 0.656079
Si Si3 0.623819 0.084913 0.379546
Si Si4 0.778426 0.317724 0.611861
Si Si5 0.978028 0.365574 0.624197
Si Si6 0.126867 0.567647 0.642359
Si Si7 0.523584 0.437357 0.111989
O O1 0.825323 0.169986 0.525416
O O2 0.735831 0.042674 0.543134
O O3 0.930588 0.994199 0.285625
O O4 0.868165 0.924260 0.484244
O O5 0.520304 0.177932 0.530250
O O6 0.417872 0.215885 0.771439
O O7 0.522401 0.432102 0.562241
O O8 0.342386 0.323136 0.756113
O O9 0.708370 0.144064 0.324149
O O10 0.620811 0.097672 0.299743
O O11 0.586265 0.933209 0.452316
O O12 0.845298 0.421925 0.475276
O O13 0.949336 0.445856 0.733020
O O14 0.990460 0.204803 0.620752
#
# Coordination Sequence:
#
# PCOD9266414 Si02
#       7
#     8   8   8   8   8   8   8
#     4  10  20  35  62  97 124 148 205 271 316 365
#     4  10  19  37  64  91 119 156 212 264 298 379
#     4  10  23  45  62  82 129 172 213 250 312 399
#     4  11  19  37  69  96 110 170 221 259 308 375
#     4  10  25  42  57  88 130 170 201 261 324 380
#     4  10  20  39  64  91 125 159 214 260 312 376
#     4  11  20  36  59  93 125 157 198 264 325 357
#
# _framework density 24.120353000000001
#
# number of rings (size 3 to 8) (size 9 to 14) (size 15 to 20)
#    0.000    1.714    4.286    0.857    0.000    5.714 
#    5.143    2.857    0.000    0.000    0.000    0.000 
#    0.000    0.000    0.000    0.000    0.000    0.000 
#
# Total GULP energy -156231.114626 kJ/mol
# GULP energy per Si atom -5579.682665 kJ/mol
# Density = 2.406545 g / cm^3
# Si number density = 24.120353 Si / 1000 Ang^3
#
#
#
# Elastic Constant Matrix: (Units=GPa)
#
#
# Indices 1 2 3 4 5 6 
#
# 1 100.5356 10.6961 9.6155 0.0000 -11.2274 0.0001
# 2 10.6961 105.6622 8.7499 -0.0005 -2.2269 0.0003
# 3 9.6155 8.7499 18.2533 -0.0007 -0.8244 0.0004
# 4 0.0000 -0.0005 -0.0007 2.7452 0.0003 2.0136
# 5 -11.2274 -2.2269 -0.8244 0.0003 36.2598 0.0000
# 6 0.0001 0.0003 0.0004 2.0136 0.0000 25.0278
#
#
#
# Elastic Compliance Matrix: (Units=1/GPa)
#
#
# Indices 1 2 3 4 5 6 
#
# 1 0.010875 -0.000594 -0.005299 -0.000002 0.003210 0.000000
# 2 -0.000594 0.009897 -0.004416 0.000001 0.000323 0.000000
# 3 -0.005299 -0.004416 0.059668 0.000016 -0.000555 -0.000002
# 4 -0.000002 0.000001 0.000016 0.387111 -0.000003 -0.031144
# 5 0.003210 0.000323 -0.000555 -0.000003 0.028580 0.000000
# 6 0.000000 0.000000 -0.000002 -0.031144 0.000000 0.042461
#
#
# Mechanical properties :
#
#
# Convention : Reuss Voigt Hill
#
# Bulk Modulus (GPa) = 16.71669 31.39715 24.05692
# Shear Modulus (GPa) = 8.63331 25.83256 17.23294
#
# Velocity S-wave (km/s) = 1.89395 3.27614 2.67583
# Velocity P-wave (km/s) = 3.42466 5.23029 4.42065
#
# Compressibility (1/GPa) = 0.05982044
#
# Stress axis : x y z
#
# Youngs Moduli (GPa) = 91.95153 101.04242 16.75943
#
# Poissons Ratio (x) = 0.06006 0.08881
# Poissons Ratio (y) = 0.05466 0.07402
# Poissons Ratio (z) = 0.48725 0.44625
#
# Static dielectric constant tensor:
#      x y z
#    x 2.080590 0.000000 0.067920 
#    y 0.000000 1.885750 0.000000 
#    z 0.067920 0.000000 2.073960 
# 
# From -- ./inp_files/258960.got.cif
#   From: 2010.05.17/outbox.cif.g08.bks.cpg/sg15_130_cif.got.tgz:258960.got - 2010.06.03 18:47:42.
