data_PCOD9266655
_publ_section_title
;
Structure prediction by ZEFSAII (Michael W. Deem and Ramdas Pophale) SiO2 
 PCOD9266655
Probable space group: C 2/C
;
_chemical_formula_sum "Si O2"
_cell_formula_units_Z 56
_cell_length_a 9.686759
_cell_length_b 25.084403
_cell_length_c 13.229137
_cell_angle_alpha 90.000000
_cell_angle_beta 71.015657
_cell_angle_gamma 90.000000
_cell_volume 3039.657769
_symmetry_space_group_name_H-M "C 2/C"
_symmetry_group_IT_number 15
_symmetry_cell_setting 'monoclinic'
loop_
_space_group_symop_operation_xyz
x,y,z
-x,y,1/2-z
-x,-y,-z
x,-y,1/2+z
1/2+x,1/2+y,z
1/2-x,1/2+y,1/2-z
1/2-x,1/2-y,-z
1/2+x,1/2-y,1/2+z
loop_
_atom_site_type_symbol
_atom_site_label
_atom_site_fract_x
_atom_site_fract_y
_atom_site_fract_z
Si Si1 0.920527 0.449483 0.162084
Si Si2 0.896359 0.558936 0.082466
Si Si3 0.877147 0.622293 0.352660
Si Si4 0.844504 0.335334 0.231761
Si Si5 0.700775 0.249281 0.394962
Si Si6 0.624519 0.787684 0.491673
Si Si7 0.672881 0.359420 0.721915
O O1 0.841770 0.501675 0.135149
O O2 0.822348 0.396683 0.202711
O O3 0.000000 0.460084 0.250000
O O4 0.041921 0.439165 0.045658
O O5 0.772912 0.603435 0.126099
O O6 0.034602 0.571669 0.124307
O O7 0.853816 0.657030 0.456156
O O8 0.733373 0.622297 0.317984
O O9 0.000000 0.648406 0.250000
O O10 0.733667 0.305383 0.332642
O O11 0.863479 0.298775 0.129105
O O12 0.000000 0.336487 0.250000
O O13 0.750000 0.250000 0.500000
O O14 0.530913 0.235396 0.439163
O O15 0.784437 0.201596 0.315466
O O16 0.750000 0.750000 0.500000
O O17 0.500000 0.366468 0.750000
#
# Coordination Sequence:
#
# PCOD9266655 Si02
#       7
#     8   8   8   8   8   8   8
#     4  10  20  36  66  96 121 159 211 260 314 356
#     4  10  20  40  67  93 119 163 215 261 299 370
#     4  10  19  38  58  84 117 153 211 251 293 364
#     4  11  22  38  60  94 126 160 204 257 307 373
#     4  12  24  39  60  89 127 164 206 252 311 377
#     4  12  24  38  60  86 121 165 205 256 307 367
#     4  11  23  38  63  91 122 165 208 252 308 375
#
# _framework density 18.423127000000001
#
# number of rings (size 3 to 8) (size 9 to 14) (size 15 to 20)
#    0.000    1.143    5.714    2.571    4.000    0.000 
#    0.000    0.000    3.143    7.714    0.000    0.000 
#    0.000    0.000    0.000    0.000    0.000    0.000 
#
# Total GULP energy -156098.876258 kJ/mol
# GULP energy per Si atom -5574.959866 kJ/mol
# Density = 1.838120 g / cm^3
# Si number density = 18.423127 Si / 1000 Ang^3
#
#
#
# Elastic Constant Matrix: (Units=GPa)
#
#
# Indices 1 2 3 4 5 6 
#
# 1 112.7461 21.1429 25.8025 0.0000 2.6453 0.0000
# 2 21.1429 112.6878 32.0917 0.0000 -3.6234 0.0000
# 3 25.8025 32.0917 104.8549 0.0000 18.3187 0.0000
# 4 0.0000 0.0000 0.0000 29.1990 0.0000 4.8296
# 5 2.6453 -3.6234 18.3187 0.0000 20.0646 0.0000
# 6 0.0000 0.0000 0.0000 4.8296 0.0000 16.4178
#
#
#
# Elastic Compliance Matrix: (Units=1/GPa)
#
#
# Indices 1 2 3 4 5 6 
#
# 1 0.009555 -0.001194 -0.002056 0.000000 0.000402 0.000000
# 2 -0.001194 0.010373 -0.003850 0.000000 0.005545 0.000000
# 3 -0.002056 -0.003850 0.013439 0.000000 -0.012693 0.000000
# 4 0.000000 0.000000 0.000000 0.035999 0.000000 -0.010590
# 5 0.000402 0.005545 -0.012693 0.000000 0.062376 0.000000
# 6 0.000000 0.000000 0.000000 -0.010590 0.000000 0.064025
#
#
# Mechanical properties :
#
#
# Convention : Reuss Voigt Hill
#
# Bulk Modulus (GPa) = 52.17391 54.26254 53.21822
# Shear Modulus (GPa) = 23.11022 29.88640 26.49831
#
# Velocity S-wave (km/s) = 3.54561 4.03205 3.79663
# Velocity P-wave (km/s) = 6.71886 7.15500 6.94036
#
# Compressibility (1/GPa) = 0.01916667
#
# Stress axis : x y z
#
# Youngs Moduli (GPa) = 104.66270 96.40655 74.41211
#
# Poissons Ratio (x) = 0.11514 0.15298
# Poissons Ratio (y) = 0.12500 0.28645
# Poissons Ratio (z) = 0.21516 0.37112
#
# Static dielectric constant tensor:
#      x y z
#    x 1.684770 0.000000 0.058210 
#    y 0.000000 1.958880 0.000000 
#    z 0.058210 0.000000 1.661040 
# 
# From -- ./inp_files/137265.got.cif
#   From: 2010.05.17/outbox.cif.g08.bks.cpg/sg15_69_cif.got.tgz:137265.got - 2010.06.03 18:47:42.
