data_PCOD9266636
_publ_section_title
;
Structure prediction by ZEFSAII (Michael W. Deem and Ramdas Pophale) SiO2 
 PCOD9266636
Probable space group: C 2/C
;
_chemical_formula_sum "Si O2"
_cell_formula_units_Z 44
_cell_length_a 12.297081
_cell_length_b 14.701247
_cell_length_c 15.087222
_cell_angle_alpha 90.000000
_cell_angle_beta 142.572909
_cell_angle_gamma 90.000000
_cell_volume 1657.644708
_symmetry_space_group_name_H-M "C 2/C"
_symmetry_group_IT_number 15
_symmetry_cell_setting 'monoclinic'
loop_
_space_group_symop_operation_xyz
x,y,z
-x,y,1/2-z
-x,-y,-z
x,-y,1/2+z
1/2+x,1/2+y,z
1/2-x,1/2+y,1/2-z
1/2-x,1/2-y,-z
1/2+x,1/2-y,1/2+z
loop_
_atom_site_type_symbol
_atom_site_label
_atom_site_fract_x
_atom_site_fract_y
_atom_site_fract_z
Si Si1 0.685314 0.036220 0.666781
Si Si2 0.385412 0.620647 0.085566
Si Si3 0.293803 0.573580 0.546343
Si Si4 0.000000 0.227877 0.750000
Si Si5 0.389504 0.136037 0.303659
Si Si6 0.034230 0.699167 0.949240
O O1 0.808175 0.048290 0.661164
O O2 0.636405 0.133122 0.676762
O O3 0.500000 0.000000 0.500000
O O4 0.731450 0.953149 0.760674
O O5 0.500000 0.623843 0.250000
O O6 0.355050 0.516778 0.036023
O O7 0.474896 0.694932 0.079437
O O8 0.188841 0.657111 0.986573
O O9 0.403720 0.666162 0.614070
O O10 0.084640 0.596576 0.400161
O O11 0.854075 0.287859 0.708000
O O12 0.411807 0.182894 0.413852
#
# Coordination Sequence:
#
# PCOD9266636 Si02
#       6
#     8   8   8   4   8   8
#     4   8  15  36  58  71 108 152 175 213 282 333
#     4  11  19  33  61  89 109 141 186 232 285 325
#     4  10  19  38  57  79 114 151 178 231 290 320
#     4  12  24  34  58  84 114 148 192 230 274 330
#     4  10  20  40  56  80 112 157 187 219 275 342
#     4   9  19  36  59  82 113 147 182 232 276 329
#
# _framework density 26.543685
#
# number of rings (size 3 to 8) (size 9 to 14) (size 15 to 20)
#    0.000    2.545    6.364    0.545    0.000    2.909 
#    1.636    2.727    0.000    0.000    0.000    0.000 
#    0.000    0.000    0.000    0.000    0.000    0.000 
#
# Total GULP energy -123012.374987 kJ/mol
# GULP energy per Si atom -5591.471590 kJ/mol
# Density = 2.648327 g / cm^3
# Si number density = 26.543685 Si / 1000 Ang^3
#
#
#
# Elastic Constant Matrix: (Units=GPa)
#
#
# Indices 1 2 3 4 5 6 
#
# 1 87.9599 80.7116 14.3063 0.0000 -1.3787 0.0000
# 2 80.7116 198.5680 39.4051 -0.0002 -18.9530 -0.0001
# 3 14.3063 39.4051 48.5762 -0.0008 -5.9429 -0.0003
# 4 0.0000 -0.0002 -0.0008 19.7522 -0.0002 4.6054
# 5 -1.3787 -18.9530 -5.9429 -0.0002 32.7924 0.0000
# 6 0.0000 -0.0001 -0.0003 4.6054 0.0000 66.0744
#
#
#
# Elastic Compliance Matrix: (Units=1/GPa)
#
#
# Indices 1 2 3 4 5 6 
#
# 1 0.018580 -0.008025 0.000579 0.000000 -0.003752 0.000000
# 2 -0.008025 0.009702 -0.004972 0.000000 0.004369 0.000000
# 3 0.000579 -0.004972 0.024647 0.000001 0.001617 0.000000
# 4 0.000000 0.000000 0.000001 0.051464 0.000000 -0.003587
# 5 -0.003752 0.004369 0.001617 0.000000 0.033155 0.000000
# 6 0.000000 0.000000 0.000000 -0.003587 0.000000 0.015384
#
#
# Mechanical properties :
#
#
# Convention : Reuss Voigt Hill
#
# Bulk Modulus (GPa) = 35.59748 67.10559 51.35153
# Shear Modulus (GPa) = 26.71915 37.10254 31.91084
#
# Velocity S-wave (km/s) = 3.17615 3.74276 3.47104
# Velocity P-wave (km/s) = 5.18562 6.63429 5.95417
#
# Compressibility (1/GPa) = 0.02809188
#
# Stress axis : x y z
#
# Youngs Moduli (GPa) = 53.82252 103.07500 40.57308
#
# Poissons Ratio (x) = 0.82718 -0.02349
# Poissons Ratio (y) = 0.43193 0.20173
# Poissons Ratio (z) = -0.03116 0.51249
#
# Static dielectric constant tensor:
#      x y z
#    x 2.137920 0.000000 0.057790 
#    y 0.000000 2.215530 0.000000 
#    z 0.057790 0.000000 2.154590 
# 
# From -- ./inp_files/198077.got.cif
#   From: 2010.05.17/outbox.cif.g08.bks.cpg/sg15_100_cif.got.tgz:198077.got - 2010.06.03 18:47:42.
