data_PCOD9266326
_publ_section_title
;
Structure prediction by ZEFSAII (Michael W. Deem and Ramdas Pophale) SiO2 
 PCOD9266326
Probable space group: C 2/C
;
_chemical_formula_sum "Si O2"
_cell_formula_units_Z 60
_cell_length_a 6.134725
_cell_length_b 17.324628
_cell_length_c 30.270088
_cell_angle_alpha 90.000000
_cell_angle_beta 114.871345
_cell_angle_gamma 90.000000
_cell_volume 2918.783068
_symmetry_space_group_name_H-M "C 2/C"
_symmetry_group_IT_number 15
_symmetry_cell_setting 'monoclinic'
loop_
_space_group_symop_operation_xyz
x,y,z
-x,y,1/2-z
-x,-y,-z
x,-y,1/2+z
1/2+x,1/2+y,z
1/2-x,1/2+y,1/2-z
1/2-x,1/2-y,-z
1/2+x,1/2-y,1/2+z
loop_
_atom_site_type_symbol
_atom_site_label
_atom_site_fract_x
_atom_site_fract_y
_atom_site_fract_z
Si Si1 0.665974 0.218521 0.946175
Si Si2 0.086999 0.018584 0.160121
Si Si3 0.771031 0.175077 0.364365
Si Si4 0.921067 0.229226 0.880702
Si Si5 0.080864 0.748052 0.710510
Si Si6 0.937391 0.419206 0.301837
Si Si7 0.000000 0.966383 0.750000
Si Si8 0.196897 0.399291 0.109655
O O1 0.487174 0.280358 0.907564
O O2 0.881402 0.213062 0.928956
O O3 0.515861 0.138252 0.937838
O O4 0.750000 0.250000 0.000000
O O5 0.183055 0.085201 0.136842
O O6 0.299312 0.954960 0.185428
O O7 0.026112 0.061823 0.201437
O O8 0.850498 0.977841 0.119509
O O9 0.543556 0.191585 0.375763
O O10 0.754256 0.211096 0.312723
O O11 0.666373 0.230187 0.835700
O O12 0.095324 0.165117 0.875286
O O13 0.162589 0.660470 0.728158
O O14 0.000000 0.787141 0.750000
O O15 0.742107 0.483777 0.275066
O O16 0.922587 0.403083 0.352616
#
# Coordination Sequence:
#
# PCOD9266326 Si02
#       8
#     8   8   8   8   8   8   4   8
#     4  10  21  41  68  95 117 151 202 255 316 382
#     4  11  22  39  58  85 126 164 207 252 304 358
#     4  10  24  39  57  90 121 162 198 255 313 356
#     4  10  19  40  59  86 119 155 202 248 305 364
#     4  11  21  34  58  85 119 159 208 249 292 355
#     4  11  20  37  58  87 118 162 214 248 287 356
#     4  10  24  34  60  82 122 170 216 242 298 356
#     4  10  19  37  63  86 115 160 198 246 299 367
#
# _framework density 20.556512999999999
#
# number of rings (size 3 to 8) (size 9 to 14) (size 15 to 20)
#    0.000    1.600    5.333    1.200    2.800    6.933 
#    2.400    0.667    0.000    4.000    0.000    0.000 
#    0.000    0.000    0.000    0.000    0.000    0.000 
#
# Total GULP energy -167021.385539 kJ/mol
# GULP energy per Si atom -5567.379518 kJ/mol
# Density = 2.050973 g / cm^3
# Si number density = 20.556513 Si / 1000 Ang^3
#
#
#
# Elastic Constant Matrix: (Units=GPa)
#
#
# Indices 1 2 3 4 5 6 
#
# 1 88.0126 18.3655 11.9146 0.0000 -14.3323 0.0000
# 2 18.3655 70.6393 3.9349 0.0000 -3.1566 0.0000
# 3 11.9146 3.9349 63.6051 0.0000 -14.3712 0.0000
# 4 0.0000 0.0000 0.0000 15.6106 0.0000 -6.1651
# 5 -14.3323 -3.1566 -14.3712 0.0000 18.3165 0.0000
# 6 0.0000 0.0000 0.0000 -6.1651 0.0000 30.8410
#
#
#
# Elastic Compliance Matrix: (Units=1/GPa)
#
#
# Indices 1 2 3 4 5 6 
#
# 1 0.013663 -0.003096 -0.000088 0.000000 0.010088 0.000000
# 2 -0.003096 0.014976 -0.000378 0.000000 -0.000138 0.000000
# 3 -0.000088 -0.000378 0.019121 0.000000 0.014868 0.000000
# 4 0.000000 0.000000 0.000000 0.069550 0.000000 0.013903
# 5 0.010088 -0.000138 0.014868 0.000000 0.074131 0.000000
# 6 0.000000 0.000000 0.000000 0.013903 0.000000 0.035204
#
#
# Mechanical properties :
#
#
# Convention : Reuss Voigt Hill
#
# Bulk Modulus (GPa) = 24.60916 32.29857 28.45387
# Shear Modulus (GPa) = 20.21703 25.48973 22.85338
#
# Velocity S-wave (km/s) = 3.13946 3.52516 3.33789
# Velocity P-wave (km/s) = 5.01389 5.68465 5.35977
#
# Compressibility (1/GPa) = 0.04063527
#
# Stress axis : x y z
#
# Youngs Moduli (GPa) = 73.19091 66.77196 52.29740
#
# Poissons Ratio (x) = 0.20676 0.00463
# Poissons Ratio (y) = 0.22664 0.01975
# Poissons Ratio (z) = 0.00648 0.02522
#
# Static dielectric constant tensor:
#      x y z
#    x 1.816190 0.000000 -0.003800 
#    y 0.000000 1.819610 0.000000 
#    z -0.003800 0.000000 1.735140 
# 
# From -- ./inp_files/305642.got.cif
#   From: 2010.05.17/outbox.cif.g08.bks.cpg/sg15_153_cif.got.tgz:305642.got - 2010.06.03 18:47:42.
