data_PCOD9266067
_publ_section_title
;
Structure prediction by ZEFSAII (Michael W. Deem and Ramdas Pophale) SiO2 
 PCOD9266067
Probable space group: C 2/C
;
_chemical_formula_sum "Si O2"
_cell_formula_units_Z 64
_cell_length_a 22.504263
_cell_length_b 13.347634
_cell_length_c 13.473397
_cell_angle_alpha 90.000000
_cell_angle_beta 36.374496
_cell_angle_gamma 90.000000
_cell_volume 2400.187802
_symmetry_space_group_name_H-M "C 2/C"
_symmetry_group_IT_number 15
_symmetry_cell_setting 'monoclinic'
loop_
_space_group_symop_operation_xyz
x,y,z
-x,y,1/2-z
-x,-y,-z
x,-y,1/2+z
1/2+x,1/2+y,z
1/2-x,1/2+y,1/2-z
1/2-x,1/2-y,-z
1/2+x,1/2-y,1/2+z
loop_
_atom_site_type_symbol
_atom_site_label
_atom_site_fract_x
_atom_site_fract_y
_atom_site_fract_z
Si Si1 0.321159 0.651779 0.919731
Si Si2 0.319706 0.207609 0.991441
Si Si3 0.254254 0.791417 0.783412
Si Si4 0.467662 0.731920 0.569690
Si Si5 0.335342 0.010405 0.872415
Si Si6 0.443259 0.607030 0.419595
Si Si7 0.468166 0.067578 0.449625
Si Si8 0.262181 0.060202 0.745271
O O1 0.421819 0.669950 0.723412
O O2 0.250000 0.750000 0.000000
O O3 0.319618 0.655348 0.041225
O O4 0.262204 0.552882 0.962934
O O5 0.252785 0.169749 0.173790
O O6 0.250000 0.250000 0.000000
O O7 0.388363 0.297634 0.939128
O O8 0.371393 0.112519 0.874032
O O9 0.370619 0.798044 0.662813
O O10 0.242307 0.672896 0.790958
O O11 0.499859 0.660355 0.435612
O O12 0.544082 0.816768 0.500886
O O13 0.431019 0.937521 0.749605
O O14 0.300006 0.044524 0.808368
O O15 0.500000 0.557803 0.250000
O O16 0.356376 0.540054 0.586897
O O17 0.362747 0.023198 0.554450
O O18 0.500000 0.000000 0.500000
#
# Coordination Sequence:
#
# PCOD9266067 Si02
#       8
#     8   8   8   8   8   8   8   8
#     4  10  19  38  62  84 124 177 217 246 317 392
#     4  10  19  37  59  96 128 163 209 271 326 367
#     4   9  18  37  58  82 125 175 210 254 308 384
#     4   9  19  39  58  84 123 167 213 254 313 392
#     4  11  19  36  64  94 129 172 207 268 322 386
#     4  10  22  37  65  89 120 167 218 263 322 384
#     4  10  20  33  61  95 130 163 204 261 333 383
#     4   9  20  37  58  92 128 157 206 266 324 365
#
# _framework density 26.664580000000001
#
# number of rings (size 3 to 8) (size 9 to 14) (size 15 to 20)
#    0.000    2.500    5.000    0.000    3.500    0.000 
#    6.750    0.625    5.500    2.250    0.000    0.000 
#    0.000    0.000    0.000    0.000    0.000    0.000 
#
# Total GULP energy -178591.436935 kJ/mol
# GULP energy per Si atom -5580.982404 kJ/mol
# Density = 2.660389 g / cm^3
# Si number density = 26.664580 Si / 1000 Ang^3
#
#
#
# Elastic Constant Matrix: (Units=GPa)
#
#
# Indices 1 2 3 4 5 6 
#
# 1 68.8389 10.9184 20.3537 0.0000 9.0719 0.0000
# 2 10.9184 76.8548 -6.4936 0.0000 -7.3770 0.0000
# 3 20.3537 -6.4936 120.0371 0.0000 8.3411 0.0000
# 4 0.0000 0.0000 0.0000 30.3555 0.0000 2.9449
# 5 9.0719 -7.3770 8.3411 0.0000 39.3768 0.0000
# 6 0.0000 0.0000 0.0000 2.9449 0.0000 40.8646
#
#
#
# Elastic Compliance Matrix: (Units=1/GPa)
#
#
# Indices 1 2 3 4 5 6 
#
# 1 0.016261 -0.002892 -0.002655 0.000000 -0.003726 0.000000
# 2 -0.002892 0.013800 0.001026 0.000000 0.003034 0.000000
# 3 -0.002655 0.001026 0.008912 0.000000 -0.001084 0.000000
# 4 0.000000 0.000000 0.000000 0.033175 0.000000 -0.002391
# 5 -0.003726 0.003034 -0.001084 0.000000 0.027052 0.000000
# 6 0.000000 0.000000 0.000000 -0.002391 0.000000 0.024643
#
#
# Mechanical properties :
#
#
# Convention : Reuss Voigt Hill
#
# Bulk Modulus (GPa) = 33.40939 35.03198 34.22069
# Shear Modulus (GPa) = 34.99860 38.18286 36.59073
#
# Velocity S-wave (km/s) = 3.62684 3.78824 3.70842
# Velocity P-wave (km/s) = 5.48592 5.68339 5.58553
#
# Compressibility (1/GPa) = 0.02993171
#
# Stress axis : x y z
#
# Youngs Moduli (GPa) = 61.49551 72.46177 112.21147
#
# Poissons Ratio (x) = 0.20957 0.29791
# Poissons Ratio (y) = 0.17785 -0.11514
# Poissons Ratio (z) = 0.16326 -0.07435
#
# Static dielectric constant tensor:
#      x y z
#    x 2.153220 0.000000 0.091810 
#    y 0.000000 2.111140 0.000000 
#    z 0.091810 0.000000 2.288150 
# 
# From -- ./inp_files/173660.got.cif
#   From: 2010.05.17/outbox.cif.g08.bks.cpg/sg15_87_cif.got.tgz:173660.got - 2010.06.03 18:47:42.
