data_PCOD9266944
_publ_section_title
;
Structure prediction by ZEFSAII (Michael W. Deem and Ramdas Pophale) SiO2 
 PCOD9266944
Probable space group: C 2/C
;
_chemical_formula_sum "Si O2"
_cell_formula_units_Z 44
_cell_length_a 11.979203
_cell_length_b 29.190351
_cell_length_c 9.052539
_cell_angle_alpha 90.000000
_cell_angle_beta 135.997577
_cell_angle_gamma 90.000000
_cell_volume 2199.013711
_symmetry_space_group_name_H-M "C 2/C"
_symmetry_group_IT_number 15
_symmetry_cell_setting 'monoclinic'
loop_
_space_group_symop_operation_xyz
x,y,z
-x,y,1/2-z
-x,-y,-z
x,-y,1/2+z
1/2+x,1/2+y,z
1/2-x,1/2+y,1/2-z
1/2-x,1/2-y,-z
1/2+x,1/2-y,1/2+z
loop_
_atom_site_type_symbol
_atom_site_label
_atom_site_fract_x
_atom_site_fract_y
_atom_site_fract_z
Si Si1 0.728181 0.684559 0.605574
Si Si2 0.500000 0.746719 0.250000
Si Si3 0.436591 0.145028 0.038354
Si Si4 0.841506 0.394243 0.002997
Si Si5 0.838247 0.542563 0.021878
Si Si6 0.825613 0.023886 0.337547
O O1 0.563487 0.712032 0.435650
O O2 0.740859 0.639214 0.514955
O O3 0.861147 0.719749 0.670615
O O4 0.791020 0.671481 0.825251
O O5 0.500000 0.166284 0.250000
O O6 0.371578 0.094807 0.016135
O O7 0.577629 0.135689 0.052421
O O8 0.000000 0.410021 0.250000
O O9 0.729789 0.433752 0.822933
O O10 0.707140 0.538011 0.025546
O O11 0.000000 0.523800 0.250000
O O12 0.791866 0.515910 0.831573
O O13 0.000000 0.000000 0.500000
#
# Coordination Sequence:
#
# PCOD9266944 Si02
#       6
#     8   4   8   8   8   8
#     4  10  21  38  70  91 125 162 205 264 309 389
#     4  10  20  40  64 100 124 152 212 256 322 374
#     4  10  19  38  63  90 118 163 218 249 311 378
#     4  10  20  39  63  89 113 173 213 250 310 387
#     4  11  23  39  61  82 116 169 216 253 297 377
#     4  12  25  39  56  89 127 159 210 274 313 353
#
# _framework density 20.008970000000001
#
# number of rings (size 3 to 8) (size 9 to 14) (size 15 to 20)
#    0.000    1.455    6.364    1.636    5.091    1.455 
#    0.000    0.909    0.000    0.000    0.000    0.000 
#    0.000    0.000    0.000    0.000    0.000    0.000 
#
# Total GULP energy -122675.059160 kJ/mol
# GULP energy per Si atom -5576.139053 kJ/mol
# Density = 1.996343 g / cm^3
# Si number density = 20.008970 Si / 1000 Ang^3
#
#
#
# Elastic Constant Matrix: (Units=GPa)
#
#
# Indices 1 2 3 4 5 6 
#
# 1 26.0158 -9.0457 -6.8194 0.0000 -9.4307 0.0000
# 2 -9.0457 63.9115 24.1927 0.0000 -0.2258 0.0000
# 3 -6.8194 24.1927 91.5055 0.0000 -12.1620 0.0000
# 4 0.0000 0.0000 0.0000 40.7559 0.0000 -3.2128
# 5 -9.4307 -0.2258 -12.1620 0.0000 33.8254 0.0000
# 6 0.0000 0.0000 0.0000 -3.2128 0.0000 -11.8766
#
#
#
# Elastic Compliance Matrix: (Units=1/GPa)
#
#
# Indices 1 2 3 4 5 6 
#
# 1 0.046511 0.005106 0.004037 0.000000 0.014453 0.000000
# 2 0.005106 0.018031 -0.004391 0.000000 -0.000035 0.000000
# 3 0.004037 -0.004391 0.013165 0.000000 0.005830 0.000000
# 4 0.000000 0.000000 0.000000 0.024024 0.000000 -0.006499
# 5 0.014453 -0.000035 0.005830 0.000000 0.035689 0.000000
# 6 0.000000 0.000000 0.000000 -0.006499 0.000000 -0.082441
#
#
# Mechanical properties :
#
#
# Convention : Reuss Voigt Hill
#
# Bulk Modulus (GPa) = 11.46648 22.00979 16.73814
# Shear Modulus (GPa) = 67.07200 24.08127 45.57664
#
# Velocity S-wave (km/s) = 5.79601 3.47295 4.77782
# Velocity P-wave (km/s) = 7.10878 5.20631 6.23059
#
# Compressibility (1/GPa) = 0.08721070
#
# Stress axis : x y z
#
# Youngs Moduli (GPa) = 21.50029 55.45867 75.95876
#
# Poissons Ratio (x) = -0.28316 -0.30667
# Poissons Ratio (y) = -0.10977 0.33357
# Poissons Ratio (z) = -0.08680 0.24354
#
# Static dielectric constant tensor:
#      x y z
#    x 1.743640 0.000000 0.021780 
#    y 0.000000 1.717850 0.000000 
#    z 0.021780 0.000000 1.771680 
# 
# From -- ./inp_files/35406.got.cif
#   From: 2010.05.17/outbox.cif.g08.bks.cpg/sg15_18_cif.got.tgz:35406.got - 2010.06.03 18:47:42.
