data_PCOD9266188
_publ_section_title
;
Structure prediction by ZEFSAII (Michael W. Deem and Ramdas Pophale) SiO2 
 PCOD9266188
Probable space group: C 2/C
;
_chemical_formula_sum "Si O2"
_cell_formula_units_Z 52
_cell_length_a 20.396040
_cell_length_b 8.032968
_cell_length_c 18.216089
_cell_angle_alpha 90.000000
_cell_angle_beta 54.351542
_cell_angle_gamma 90.000000
_cell_volume 2425.259415
_symmetry_space_group_name_H-M "C 2/C"
_symmetry_group_IT_number 15
_symmetry_cell_setting 'monoclinic'
loop_
_space_group_symop_operation_xyz
x,y,z
-x,y,1/2-z
-x,-y,-z
x,-y,1/2+z
1/2+x,1/2+y,z
1/2-x,1/2+y,1/2-z
1/2-x,1/2-y,-z
1/2+x,1/2-y,1/2+z
loop_
_atom_site_type_symbol
_atom_site_label
_atom_site_fract_x
_atom_site_fract_y
_atom_site_fract_z
Si Si1 0.509337 0.290497 0.405042
Si Si2 0.869152 0.553192 0.121352
Si Si3 0.149765 0.162141 0.149482
Si Si4 0.500000 0.419085 0.250000
Si Si5 0.624929 0.498301 0.439231
Si Si6 0.290570 0.714108 0.227509
Si Si7 0.165495 0.330724 0.004033
O O1 0.546839 0.110782 0.399126
O O2 0.516210 0.319688 0.314006
O O3 0.565176 0.414824 0.418090
O O4 0.421781 0.351614 0.489176
O O5 0.802443 0.693807 0.188490
O O6 0.826516 0.385059 0.173821
O O7 0.877594 0.557171 0.028093
O O8 0.159932 0.183522 0.229724
O O9 0.240463 0.117861 0.062609
O O10 0.078269 0.033428 0.184123
O O11 0.134054 0.322545 0.107580
O O12 0.695238 0.579485 0.345519
O O13 0.651727 0.356328 0.479338
#
# Coordination Sequence:
#
# PCOD9266188 Si02
#       7
#     8   8   8   4   8   8   8
#     4  10  21  36  59  86 119 159 198 249 304 361
#     4  10  22  37  61  86 119 158 208 257 299 358
#     4  10  20  33  60  86 118 159 202 243 299 365
#     4  12  20  36  60  90 122 164 196 246 308 368
#     4  10  19  37  61  87 117 154 206 249 300 359
#     4  11  21  38  61  89 118 161 209 253 300 359
#     4   9  19  37  58  87 117 156 205 253 295 359
#
# _framework density 21.441005000000001
#
# number of rings (size 3 to 8) (size 9 to 14) (size 15 to 20)
#    0.000    1.846    3.077    2.769    2.154    0.615 
#    0.000    2.308    0.000    6.462    0.000    0.000 
#    0.000    0.000    0.000    0.000    0.000    0.000 
#
# Total GULP energy -144925.869286 kJ/mol
# GULP energy per Si atom -5574.071896 kJ/mol
# Density = 2.139220 g / cm^3
# Si number density = 21.441005 Si / 1000 Ang^3
#
#
#
# Elastic Constant Matrix: (Units=GPa)
#
#
# Indices 1 2 3 4 5 6 
#
# 1 100.8509 15.1504 26.2386 0.0001 6.6814 0.0009
# 2 15.1504 55.1521 1.3172 -0.0001 -6.8450 0.0020
# 3 26.2386 1.3172 66.1188 0.0001 6.5462 0.0000
# 4 0.0001 -0.0001 0.0001 26.7417 0.0000 -13.5484
# 5 6.6814 -6.8450 6.5462 0.0000 38.2207 -0.0002
# 6 0.0009 0.0020 0.0000 -13.5484 -0.0002 12.6971
#
#
#
# Elastic Compliance Matrix: (Units=1/GPa)
#
#
# Indices 1 2 3 4 5 6 
#
# 1 0.011683 -0.003339 -0.004383 0.000000 -0.001890 -0.000001
# 2 -0.003339 0.019531 0.000541 -0.000003 0.003989 -0.000006
# 3 -0.004383 0.000541 0.017056 0.000000 -0.002058 0.000000
# 4 0.000000 -0.000003 0.000000 0.081401 0.000000 0.086858
# 5 -0.001890 0.003989 -0.002058 0.000000 0.027561 0.000000
# 6 -0.000001 -0.000006 0.000000 0.086858 0.000000 0.171440
#
#
# Mechanical properties :
#
#
# Convention : Reuss Voigt Hill
#
# Bulk Modulus (GPa) = 29.49066 34.17049 31.83057
# Shear Modulus (GPa) = 14.11089 27.49295 20.80192
#
# Velocity S-wave (km/s) = 2.56818 3.58475 3.11817
# Velocity P-wave (km/s) = 4.75166 5.75374 5.27654
#
# Compressibility (1/GPa) = 0.03390904
#
# Stress axis : x y z
#
# Youngs Moduli (GPa) = 85.59694 51.20043 58.62879
#
# Poissons Ratio (x) = 0.17096 0.25694
# Poissons Ratio (y) = 0.28582 -0.03172
# Poissons Ratio (z) = 0.37513 -0.02770
#
# Static dielectric constant tensor:
#      x y z
#    x 1.803610 0.000000 0.004440 
#    y 0.000000 1.838890 0.000000 
#    z 0.004440 0.000000 1.781840 
# 
# From -- ./inp_files/214221.got.cif
#   From: 2010.05.17/outbox.cif.g08.bks.cpg/sg15_108_cif.got.tgz:214221.got - 2010.06.03 18:47:42.
