data_PCOD9266456
_publ_section_title
;
Structure prediction by ZEFSAII (Michael W. Deem and Ramdas Pophale) SiO2 
 PCOD9266456
Probable space group: C 2/C
;
_chemical_formula_sum "Si O2"
_cell_formula_units_Z 36
_cell_length_a 7.891907
_cell_length_b 21.195259
_cell_length_c 8.915167
_cell_angle_alpha 90.000000
_cell_angle_beta 95.470638
_cell_angle_gamma 90.000000
_cell_volume 1484.456651
_symmetry_space_group_name_H-M "C 2/C"
_symmetry_group_IT_number 15
_symmetry_cell_setting 'monoclinic'
loop_
_space_group_symop_operation_xyz
x,y,z
-x,y,1/2-z
-x,-y,-z
x,-y,1/2+z
1/2+x,1/2+y,z
1/2-x,1/2+y,1/2-z
1/2-x,1/2-y,-z
1/2+x,1/2-y,1/2+z
loop_
_atom_site_type_symbol
_atom_site_label
_atom_site_fract_x
_atom_site_fract_y
_atom_site_fract_z
Si Si1 0.500000 0.972682 0.750000
Si Si2 0.051149 0.913256 0.464595
Si Si3 0.670740 0.719162 0.845639
Si Si4 0.149219 0.580952 0.968620
Si Si5 0.000000 0.318812 0.250000
Si Si6 0.500000 0.474485 0.750000
O O1 0.602102 0.932471 0.635970
O O2 0.610168 0.019765 0.863582
O O3 0.846793 0.903285 0.457326
O O4 0.129604 0.852601 0.393849
O O5 0.096439 0.930100 0.639441
O O6 0.092940 0.975144 0.367977
O O7 0.500000 0.743934 0.750000
O O8 0.828401 0.720341 0.745673
O O9 0.750000 0.750000 0.000000
O O10 0.027588 0.635471 0.894129
#
# Coordination Sequence:
#
# PCOD9266456 Si02
#       6
#     4   8   8   8   4   4
#     4   9  20  32  60 114 152 206 244 293 384 478
#     4  11  21  43  70 112 154 201 255 316 402 468
#     4  12  28  54  81 112 155 209 272 334 393 467
#     4  10  19  37  65 100 157 195 244 308 379 467
#     4  11  24  47  74 102 144 191 252 335 388 452
#     4  10  22  35  74 112 152 197 250 316 394 488
#
# _framework density 24.251296
#
# number of rings (size 3 to 8) (size 9 to 14) (size 15 to 20)
#    0.000    1.333    3.333    1.333    0.000   12.444 
#    6.000    0.000    0.000    0.000    0.000    0.000 
#    0.000    0.000    0.000    0.000    0.000    0.000 
#
# Total GULP energy -100696.868342 kJ/mol
# GULP energy per Si atom -5594.270463 kJ/mol
# Density = 2.419610 g / cm^3
# Si number density = 24.251296 Si / 1000 Ang^3
#
#
#
# Elastic Constant Matrix: (Units=GPa)
#
#
# Indices 1 2 3 4 5 6 
#
# 1 182.1447 17.6226 45.4246 0.0000 10.2986 0.0000
# 2 17.6226 18.6588 10.5082 0.0000 8.9554 0.0000
# 3 45.4246 10.5082 180.4333 0.0000 6.8822 0.0000
# 4 0.0000 0.0000 0.0000 26.1716 0.0000 8.0829
# 5 10.2986 8.9554 6.8822 0.0000 48.1150 0.0000
# 6 0.0000 0.0000 0.0000 8.0829 0.0000 4.0950
#
#
#
# Elastic Compliance Matrix: (Units=1/GPa)
#
#
# Indices 1 2 3 4 5 6 
#
# 1 0.006320 -0.005145 -0.001283 0.000000 -0.000212 0.000000
# 2 -0.005145 0.064730 -0.002068 0.000000 -0.010651 0.000000
# 3 -0.001283 -0.002068 0.005993 0.000000 -0.000198 0.000000
# 4 0.000000 0.000000 0.000000 0.097874 0.000000 -0.193188
# 5 -0.000212 -0.010651 -0.000198 0.000000 0.022839 0.000000
# 6 0.000000 0.000000 0.000000 -0.193188 0.000000 0.625519
#
#
# Mechanical properties :
#
#
# Convention : Reuss Voigt Hill
#
# Bulk Modulus (GPa) = 16.65276 58.70530 37.67903
# Shear Modulus (GPa) = 5.81203 36.18841 21.00022
#
# Velocity S-wave (km/s) = 1.54977 3.86712 2.94588
# Velocity P-wave (km/s) = 3.17554 6.64825 5.20976
#
# Compressibility (1/GPa) = 0.06005011
#
# Stress axis : x y z
#
# Youngs Moduli (GPa) = 158.23032 15.44890 166.85290
#
# Poissons Ratio (x) = 0.07948 0.21413
# Poissons Ratio (y) = 0.81403 0.34511
# Poissons Ratio (z) = 0.20307 0.03195
#
# Static dielectric constant tensor:
#      x y z
#    x 2.051940 0.000000 0.032550 
#    y 0.000000 1.946800 0.000000 
#    z 0.032550 0.000000 2.004970 
# 
# From -- ./inp_files/22586.got.cif
#   From: 2010.05.17/outbox.cif.g08.bks.cpg/sg15_12_cif.got.tgz:22586.got - 2010.06.03 18:47:42.
