data_PCOD9266716
_publ_section_title
;
Structure prediction by ZEFSAII (Michael W. Deem and Ramdas Pophale) SiO2 
 PCOD9266716
Probable space group: C 2/C
;
_chemical_formula_sum "Si O2"
_cell_formula_units_Z 48
_cell_length_a 6.339457
_cell_length_b 29.250246
_cell_length_c 15.460635
_cell_angle_alpha 90.000000
_cell_angle_beta 121.864450
_cell_angle_gamma 90.000000
_cell_volume 2434.836080
_symmetry_space_group_name_H-M "C 2/C"
_symmetry_group_IT_number 15
_symmetry_cell_setting 'monoclinic'
loop_
_space_group_symop_operation_xyz
x,y,z
-x,y,1/2-z
-x,-y,-z
x,-y,1/2+z
1/2+x,1/2+y,z
1/2-x,1/2+y,1/2-z
1/2-x,1/2-y,-z
1/2+x,1/2-y,1/2+z
loop_
_atom_site_type_symbol
_atom_site_label
_atom_site_fract_x
_atom_site_fract_y
_atom_site_fract_z
Si Si1 0.371016 0.201228 0.629635
Si Si2 0.888682 0.974939 0.060345
Si Si3 0.031063 0.366552 0.855057
Si Si4 0.588225 0.391756 0.028343
Si Si5 0.519722 0.780821 0.977364
Si Si6 0.679051 0.058290 0.085602
O O1 0.500000 0.199544 0.750000
O O2 0.200568 0.156287 0.581925
O O3 0.543906 0.203160 0.581960
O O4 0.214456 0.247777 0.587399
O O5 0.862312 0.014624 0.126311
O O6 0.603898 0.959747 0.983966
O O7 0.050970 0.928629 0.098123
O O8 0.000000 0.000000 0.000000
O O9 0.838299 0.406772 0.838629
O O10 0.000000 0.352242 0.750000
O O11 0.313147 0.383426 0.930745
O O12 0.992667 0.324784 0.911561
O O13 0.751345 0.413684 0.986452
O O14 0.750000 0.750000 0.000000
#
# Coordination Sequence:
#
# PCOD9266716 Si02
#       6
#     8   8   8   8   8   8
#     4  11  25  41  65  91 127 165 211 264 315 384
#     4   8  16  31  63  86 116 163 200 250 319 364
#     4  11  23  36  62  92 125 165 209 257 312 381
#     4  10  19  38  59  92 120 159 207 256 315 372
#     4  11  24  43  60  89 127 169 210 260 317 377
#     4   9  17  35  57  89 122 161 199 256 315 365
#
# _framework density 19.713851999999999
#
# number of rings (size 3 to 8) (size 9 to 14) (size 15 to 20)
#    0.000    2.000    3.333    0.000    2.333    0.667 
#    0.000    0.000    0.000   46.000    0.000    0.000 
#    0.000    0.000    0.000    0.000    0.000    0.000 
#
# Total GULP energy -133773.510904 kJ/mol
# GULP energy per Si atom -5573.896288 kJ/mol
# Density = 1.966898 g / cm^3
# Si number density = 19.713852 Si / 1000 Ang^3
#
#
#
# Elastic Constant Matrix: (Units=GPa)
#
#
# Indices 1 2 3 4 5 6 
#
# 1 112.2745 51.6655 40.1847 0.0000 -20.3984 0.0000
# 2 51.6655 100.4922 31.1650 0.0000 -15.9996 0.0000
# 3 40.1847 31.1650 99.1106 0.0000 -26.8411 0.0000
# 4 0.0000 0.0000 0.0000 -0.7269 0.0000 -6.2596
# 5 -20.3984 -15.9996 -26.8411 0.0000 23.9069 0.0000
# 6 0.0000 0.0000 0.0000 -6.2596 0.0000 57.0152
#
#
#
# Elastic Compliance Matrix: (Units=1/GPa)
#
#
# Indices 1 2 3 4 5 6 
#
# 1 0.013032 -0.005183 -0.002273 0.000000 0.005098 0.000000
# 2 -0.005183 0.013522 -0.001289 0.000000 0.003179 0.000000
# 3 -0.002273 -0.001289 0.015314 0.000000 0.014391 0.000000
# 4 0.000000 0.000000 0.000000 -0.707154 0.000000 -0.077638
# 5 0.005098 0.003179 0.014391 0.000000 0.064465 0.000000
# 6 0.000000 0.000000 0.000000 -0.077638 0.000000 0.009015
#
#
# Mechanical properties :
#
#
# Convention : Reuss Voigt Hill
#
# Bulk Modulus (GPa) = 41.02334 61.98974 51.50654
# Shear Modulus (GPa) = -8.83097 28.62984 9.89943
#
# Velocity S-wave (km/s) = -2.11880 3.81500 2.24332
# Velocity P-wave (km/s) = 3.85601 7.13573 5.73531
#
# Compressibility (1/GPa) = 0.02437637
#
# Stress axis : x y z
#
# Youngs Moduli (GPa) = 76.73520 73.95397 65.29821
#
# Poissons Ratio (x) = 0.38333 0.14844
# Poissons Ratio (y) = 0.39774 0.08419
# Poissons Ratio (z) = 0.17444 0.09535
#
# Static dielectric constant tensor:
#      x y z
#    x 1.716940 0.000000 -0.016000 
#    y 0.000000 1.746840 0.000000 
#    z -0.016000 0.000000 1.687040 
# 
# From -- ./inp_files/130416.got.cif
#   From: 2010.05.17/outbox.cif.g08.bks.cpg/sg15_66_cif.got.tgz:130416.got - 2010.06.03 18:47:42.
