data_PCOD9266852
_publ_section_title
;
Structure prediction by ZEFSAII (Michael W. Deem and Ramdas Pophale) SiO2 
 PCOD9266852
Probable space group: C 2/C
;
_chemical_formula_sum "Si O2"
_cell_formula_units_Z 64
_cell_length_a 18.237203
_cell_length_b 17.964844
_cell_length_c 22.454839
_cell_angle_alpha 90.000000
_cell_angle_beta 23.445916
_cell_angle_gamma 90.000000
_cell_volume 2927.165460
_symmetry_space_group_name_H-M "C 2/C"
_symmetry_group_IT_number 15
_symmetry_cell_setting 'monoclinic'
loop_
_space_group_symop_operation_xyz
x,y,z
-x,y,1/2-z
-x,-y,-z
x,-y,1/2+z
1/2+x,1/2+y,z
1/2-x,1/2+y,1/2-z
1/2-x,1/2-y,-z
1/2+x,1/2-y,1/2+z
loop_
_atom_site_type_symbol
_atom_site_label
_atom_site_fract_x
_atom_site_fract_y
_atom_site_fract_z
Si Si1 0.816365 0.024764 0.466919
Si Si2 0.979930 0.602739 0.005292
Si Si3 0.380531 0.465683 0.674087
Si Si4 0.331423 0.307749 0.985346
Si Si5 0.249852 0.747292 0.329782
Si Si6 0.146649 0.591933 0.185573
Si Si7 0.404869 0.971576 0.974589
Si Si8 0.465716 0.619406 0.551114
O O1 0.775652 0.111786 0.502306
O O2 0.764983 0.991266 0.442117
O O3 0.025642 0.023499 0.332221
O O4 0.713373 0.978302 0.595827
O O5 0.813263 0.569791 0.169222
O O6 0.913987 0.686025 0.042416
O O7 0.135065 0.583590 0.939294
O O8 0.974185 0.550194 0.951592
O O9 0.381129 0.545717 0.643199
O O10 0.491830 0.409596 0.547726
O O11 0.553012 0.292255 0.827014
O O12 0.250000 0.250000 0.000000
O O13 0.236827 0.290613 0.118324
O O14 0.171950 0.810808 0.343300
O O15 0.000000 0.631206 0.250000
O O16 0.045333 0.563470 0.320713
O O17 0.334772 0.632577 0.066310
#
# Coordination Sequence:
#
# PCOD9266852 Si02
#       8
#     8   8   8   8   8   8   8   8
#     4  10  20  39  60  89 118 163 214 267 311 364
#     4  11  22  38  57  89 128 174 204 254 327 398
#     4  10  19  38  62  86 120 162 219 267 306 371
#     4  12  26  40  58  91 136 174 212 256 327 399
#     4  12  25  42  62  93 133 179 208 266 335 393
#     4   9  19  37  67  96 117 154 224 284 313 356
#     4  10  22  35  61  91 125 164 213 263 312 388
#     4  10  20  37  67  91 120 165 222 271 310 384
#
# _framework density 21.864155
#
# number of rings (size 3 to 8) (size 9 to 14) (size 15 to 20)
#    0.000    1.500    3.750    1.125    0.000    7.500 
#    0.000    0.000    0.000    6.750    0.000    0.000 
#    0.000    0.000    0.000    0.000    0.000    0.000 
#
# Total GULP energy -178516.424548 kJ/mol
# GULP energy per Si atom -5578.638267 kJ/mol
# Density = 2.181439 g / cm^3
# Si number density = 21.864155 Si / 1000 Ang^3
#
#
#
# Elastic Constant Matrix: (Units=GPa)
#
#
# Indices 1 2 3 4 5 6 
#
# 1 143.5721 2.2974 14.5543 -0.0214 -5.6260 -0.0015
# 2 2.2974 50.4067 -22.3009 -0.0479 -9.7708 -0.0046
# 3 14.5543 -22.3009 43.8159 -0.0243 5.6916 0.0037
# 4 -0.0214 -0.0479 -0.0243 20.4231 0.0007 -4.2728
# 5 -5.6260 -9.7708 5.6916 0.0007 30.9636 0.0065
# 6 -0.0015 -0.0046 0.0037 -4.2728 0.0065 28.9079
#
#
#
# Elastic Compliance Matrix: (Units=1/GPa)
#
#
# Indices 1 2 3 4 5 6 
#
# 1 0.007398 -0.001578 -0.003453 0.000000 0.001481 0.000000
# 2 -0.001578 0.027008 0.013524 0.000080 0.005750 0.000013
# 3 -0.003453 0.013524 0.031123 0.000067 -0.002081 0.000008
# 4 0.000000 0.000080 0.000067 0.050527 0.000010 0.007468
# 5 0.001481 0.005750 -0.002081 0.000010 0.034762 -0.000005
# 6 0.000000 0.000013 0.000008 0.007468 -0.000005 0.035697
#
#
# Mechanical properties :
#
#
# Convention : Reuss Voigt Hill
#
# Bulk Modulus (GPa) = 12.11894 25.21072 18.66483
# Shear Modulus (GPa) = 25.37619 32.27516 28.82567
#
# Velocity S-wave (km/s) = 3.41050 3.84626 3.63492
# Velocity P-wave (km/s) = 4.58950 5.59291 5.11586
#
# Compressibility (1/GPa) = 0.08251546
#
# Stress axis : x y z
#
# Youngs Moduli (GPa) = 135.16316 37.02567 32.13045
#
# Poissons Ratio (x) = 0.05842 0.11095
# Poissons Ratio (y) = 0.21326 -0.43452
# Poissons Ratio (z) = 0.46671 -0.50072
#
# Static dielectric constant tensor:
#      x y z
#    x 1.895660 -0.000020 -0.073750 
#    y -0.000020 1.814350 0.000000 
#    z -0.073750 0.000000 1.916720 
# 
# From -- ./inp_files/249619.got.cif
#   From: 2010.05.17/outbox.cif.g08.bks.cpg/sg15_125_cif.got.tgz:249619.got - 2010.06.03 18:47:42.
