data_PCOD9266097
_publ_section_title
;
Structure prediction by ZEFSAII (Michael W. Deem and Ramdas Pophale) SiO2 
 PCOD9266097
Probable space group: C 2/C
;
_chemical_formula_sum "Si O2"
_cell_formula_units_Z 48
_cell_length_a 10.204207
_cell_length_b 12.371492
_cell_length_c 19.035968
_cell_angle_alpha 90.000000
_cell_angle_beta 127.739765
_cell_angle_gamma 90.000000
_cell_volume 1900.388416
_symmetry_space_group_name_H-M "C 2/C"
_symmetry_group_IT_number 15
_symmetry_cell_setting 'monoclinic'
loop_
_space_group_symop_operation_xyz
x,y,z
-x,y,1/2-z
-x,-y,-z
x,-y,1/2+z
1/2+x,1/2+y,z
1/2-x,1/2+y,1/2-z
1/2-x,1/2-y,-z
1/2+x,1/2-y,1/2+z
loop_
_atom_site_type_symbol
_atom_site_label
_atom_site_fract_x
_atom_site_fract_y
_atom_site_fract_z
Si Si1 0.840708 0.552153 0.411581
Si Si2 0.731041 0.336787 0.653721
Si Si3 0.997114 0.715652 0.138192
Si Si4 0.392821 0.122364 0.826426
Si Si5 0.865335 0.918774 0.369169
Si Si6 0.762462 0.125732 0.983264
O O1 0.916371 0.659075 0.400231
O O2 0.788437 0.467828 0.334813
O O3 0.714341 0.570112 0.433560
O O4 0.000000 0.500000 0.500000
O O5 0.877387 0.318710 0.758661
O O6 0.617071 0.234853 0.634974
O O7 0.651754 0.452757 0.641363
O O8 0.818121 0.324844 0.605972
O O9 0.001362 0.844415 0.127383
O O10 0.306407 0.127269 0.722441
O O11 0.583952 0.088260 0.892447
O O12 0.881315 0.893204 0.456963
O O13 0.750000 0.250000 0.000000
#
# Coordination Sequence:
#
# PCOD9266097 Si02
#       6
#     8   8   8   8   8   8
#     4  10  19  37  60  84 119 159 208 254 309 377
#     4  10  21  38  62  90 122 161 212 258 318 377
#     4  10  20  37  61  90 122 162 208 260 310 375
#     4  10  22  39  63  92 120 165 213 260 314 382
#     4  11  21  39  65  93 123 166 216 259 311 388
#     4  11  22  38  61  90 123 161 209 262 315 375
#
# _framework density 25.257994
#
# number of rings (size 3 to 8) (size 9 to 14) (size 15 to 20)
#    0.000    1.667    3.333    2.500    2.333    0.000 
#    3.000    8.333    7.333    0.000    0.000    0.000 
#    0.000    0.000    0.000    0.000    0.000    0.000 
#
# Total GULP energy -134141.019915 kJ/mol
# GULP energy per Si atom -5589.209163 kJ/mol
# Density = 2.520051 g / cm^3
# Si number density = 25.257994 Si / 1000 Ang^3
#
#
#
# Elastic Constant Matrix: (Units=GPa)
#
#
# Indices 1 2 3 4 5 6 
#
# 1 71.6738 42.6935 36.7878 0.0000 -10.1896 0.0000
# 2 42.6935 195.6130 23.5548 0.0000 -30.2327 0.0000
# 3 36.7878 23.5548 99.7663 0.0000 -26.3424 0.0000
# 4 0.0000 0.0000 0.0000 39.0133 0.0000 -11.2710
# 5 -10.1896 -30.2327 -26.3424 0.0000 39.5537 0.0000
# 6 0.0000 0.0000 0.0000 -11.2710 0.0000 28.5083
#
#
#
# Elastic Compliance Matrix: (Units=1/GPa)
#
#
# Indices 1 2 3 4 5 6 
#
# 1 0.019406 -0.003789 -0.006923 0.000000 -0.002508 0.000000
# 2 -0.003789 0.006542 0.001111 0.000000 0.004764 0.000000
# 3 -0.006923 0.001111 0.014642 0.000000 0.008817 0.000000
# 4 0.000000 0.000000 0.000000 0.028938 0.000000 0.011441
# 5 -0.002508 0.004764 0.008817 0.000000 0.034149 0.000000
# 6 0.000000 0.000000 0.000000 0.011441 0.000000 0.039601
#
#
# Mechanical properties :
#
#
# Convention : Reuss Voigt Hill
#
# Bulk Modulus (GPa) = 46.76037 63.68059 55.22048
# Shear Modulus (GPa) = 29.47935 39.01620 34.24777
#
# Velocity S-wave (km/s) = 3.42003 3.93454 3.68627
# Velocity P-wave (km/s) = 5.84370 6.77551 6.32678
#
# Compressibility (1/GPa) = 0.02138563
#
# Stress axis : x y z
#
# Youngs Moduli (GPa) = 51.52956 152.86564 68.29599
#
# Poissons Ratio (x) = 0.57928 0.47284
# Poissons Ratio (y) = 0.19527 -0.07585
# Poissons Ratio (z) = 0.35676 -0.16977
#
# Static dielectric constant tensor:
#      x y z
#    x 2.123350 0.000000 -0.040410 
#    y 0.000000 2.045150 0.000000 
#    z -0.040410 0.000000 2.023960 
# 
# From -- ./inp_files/196044.got.cif
#   From: 2010.05.17/outbox.cif.g08.bks.cpg/sg15_99_cif.got.tgz:196044.got - 2010.06.03 18:47:42.
