data_PCOD9266811
_publ_section_title
;
Structure prediction by ZEFSAII (Michael W. Deem and Ramdas Pophale) SiO2 
 PCOD9266811
Probable space group: C 2/C
;
_chemical_formula_sum "Si O2"
_cell_formula_units_Z 44
_cell_length_a 8.993762
_cell_length_b 29.051328
_cell_length_c 8.696560
_cell_angle_alpha 90.000000
_cell_angle_beta 116.210875
_cell_angle_gamma 90.000000
_cell_volume 2038.599087
_symmetry_space_group_name_H-M "C 2/C"
_symmetry_group_IT_number 15
_symmetry_cell_setting 'monoclinic'
loop_
_space_group_symop_operation_xyz
x,y,z
-x,y,1/2-z
-x,-y,-z
x,-y,1/2+z
1/2+x,1/2+y,z
1/2-x,1/2+y,1/2-z
1/2-x,1/2-y,-z
1/2+x,1/2-y,1/2+z
loop_
_atom_site_type_symbol
_atom_site_label
_atom_site_fract_x
_atom_site_fract_y
_atom_site_fract_z
Si Si1 0.428672 0.153125 0.870966
Si Si2 0.500000 0.743071 0.750000
Si Si3 0.821991 0.554398 0.745301
Si Si4 0.685864 0.518084 0.380594
Si Si5 0.221064 0.810657 0.553441
Si Si6 0.339769 0.895092 0.783466
O O1 0.500000 0.175889 0.750000
O O2 0.318944 0.108736 0.772408
O O3 0.323370 0.182560 0.941089
O O4 0.582300 0.131489 0.035314
O O5 0.340985 0.776155 0.702276
O O6 0.449475 0.711789 0.580742
O O7 0.697501 0.535466 0.560127
O O8 0.795180 0.526600 0.889928
O O9 0.000000 0.544669 0.750000
O O10 0.500000 0.507197 0.250000
O O11 0.753157 0.559290 0.303771
O O12 0.221467 0.859612 0.638416
O O13 0.500000 0.904682 0.750000
#
# Coordination Sequence:
#
# PCOD9266811 Si02
#       6
#     8   4   8   8   8   8
#     4  10  19  38  61  89 117 155 207 245 294 356
#     4  10  20  40  64  94 118 152 206 242 310 362
#     4  11  23  39  61  83 117 170 211 243 292 369
#     4  12  25  39  56  90 127 157 204 267 301 343
#     4  10  21  38  68  88 122 156 199 251 296 375
#     4  10  20  39  63  89 112 169 203 243 296 370
#
# _framework density 21.583449000000002
#
# number of rings (size 3 to 8) (size 9 to 14) (size 15 to 20)
#    0.000    1.455    6.364    1.636    5.091    1.455 
#    1.636    0.909    0.000    0.000    0.000    0.000 
#    0.000    0.000    0.000    0.000    0.000    0.000 
#
# Total GULP energy -122905.745669 kJ/mol
# GULP energy per Si atom -5586.624803 kJ/mol
# Density = 2.153432 g / cm^3
# Si number density = 21.583449 Si / 1000 Ang^3
#
#
#
# Elastic Constant Matrix: (Units=GPa)
#
#
# Indices 1 2 3 4 5 6 
#
# 1 42.9405 14.7990 20.3328 0.0000 -4.4227 0.0000
# 2 14.7990 72.0415 14.4778 0.0000 -2.5449 0.0000
# 3 20.3328 14.4778 79.8738 0.0000 -2.9743 0.0000
# 4 0.0000 0.0000 0.0000 19.2905 0.0000 8.0226
# 5 -4.4227 -2.5449 -2.9743 0.0000 33.5225 0.0000
# 6 0.0000 0.0000 0.0000 8.0226 0.0000 5.7433
#
#
#
# Elastic Compliance Matrix: (Units=1/GPa)
#
#
# Indices 1 2 3 4 5 6 
#
# 1 0.028051 -0.004410 -0.006237 0.000000 0.002813 0.000000
# 2 -0.004410 0.015124 -0.001603 0.000000 0.000424 0.000000
# 3 -0.006237 -0.001603 0.014410 0.000000 0.000334 0.000000
# 4 0.000000 0.000000 0.000000 0.123701 0.000000 -0.172794
# 5 0.002813 0.000424 0.000334 0.000000 0.030264 0.000000
# 6 0.000000 0.000000 0.000000 -0.172794 0.000000 0.415485
#
#
# Mechanical properties :
#
#
# Convention : Reuss Voigt Hill
#
# Bulk Modulus (GPa) = 30.22391 32.67502 31.44947
# Shear Modulus (GPa) = 7.54647 21.39435 14.47041
#
# Velocity S-wave (km/s) = 1.87190 3.15181 2.59209
# Velocity P-wave (km/s) = 4.32501 5.33076 4.85400
#
# Compressibility (1/GPa) = 0.03308638
#
# Stress axis : x y z
#
# Youngs Moduli (GPa) = 35.64999 66.12078 69.39454
#
# Poissons Ratio (x) = 0.29156 0.43279
# Poissons Ratio (y) = 0.15720 0.11124
# Poissons Ratio (z) = 0.22233 0.10599
#
# Static dielectric constant tensor:
#      x y z
#    x 1.769980 0.000000 0.005700 
#    y 0.000000 1.799650 0.000000 
#    z 0.005700 0.000000 1.845870 
# 
# From -- ./inp_files/26256.got.cif
#   From: 2010.05.17/outbox.cif.g08.bks.cpg/sg15_14_cif.got.tgz:26256.got - 2010.06.03 18:47:42.
