data_PCOD9266866
_publ_section_title
;
Structure prediction by ZEFSAII (Michael W. Deem and Ramdas Pophale) SiO2 
 PCOD9266866
Probable space group: C 2/C
;
_chemical_formula_sum "Si O2"
_cell_formula_units_Z 36
_cell_length_a 10.398636
_cell_length_b 19.183622
_cell_length_c 8.086038
_cell_angle_alpha 90.000000
_cell_angle_beta 85.339137
_cell_angle_gamma 90.000000
_cell_volume 1607.697086
_symmetry_space_group_name_H-M "C 2/C"
_symmetry_group_IT_number 15
_symmetry_cell_setting 'monoclinic'
loop_
_space_group_symop_operation_xyz
x,y,z
-x,y,1/2-z
-x,-y,-z
x,-y,1/2+z
1/2+x,1/2+y,z
1/2-x,1/2+y,1/2-z
1/2-x,1/2-y,-z
1/2+x,1/2-y,1/2+z
loop_
_atom_site_type_symbol
_atom_site_label
_atom_site_fract_x
_atom_site_fract_y
_atom_site_fract_z
Si Si1 0.410497 0.560430 0.088567
Si Si2 0.633411 0.659547 0.003381
Si Si3 0.414584 0.180968 0.091121
Si Si4 0.727557 0.446816 0.214095
Si Si5 0.000000 0.598753 0.750000
O O1 0.341678 0.520243 0.244434
O O2 0.500000 0.500000 0.000000
O O3 0.504164 0.625673 0.088366
O O4 0.300345 0.576128 0.967845
O O5 0.598209 0.736737 0.946513
O O6 0.670322 0.611507 0.842386
O O7 0.761443 0.659152 0.106674
O O8 0.500000 0.169258 0.250000
O O9 0.475000 0.144420 0.919528
O O10 0.877015 0.449330 0.234645
#
# Coordination Sequence:
#
# PCOD9266866 Si02
#       5
#     8   8   8   8   4
#     4  10  19  38  62  88 121 165 208 269 317 364
#     4   9  19  38  65  93 132 160 213 269 310 385
#     4  10  20  41  65  93 131 173 206 259 326 384
#     4  10  21  40  61  89 128 162 212 270 318 378
#     4  10  24  44  58  96 130 170 214 260 322 384
#
# _framework density 22.392275999999999
#
# number of rings (size 3 to 8) (size 9 to 14) (size 15 to 20)
#    0.000    2.222    0.000    4.000    0.000    0.889 
#   24.000   15.556    0.000    0.000    0.000    0.000 
#    0.000    0.000    0.000    0.000    0.000    0.000 
#
# Total GULP energy -100466.128174 kJ/mol
# GULP energy per Si atom -5581.451565 kJ/mol
# Density = 2.234131 g / cm^3
# Si number density = 22.392276 Si / 1000 Ang^3
#
#
#
# Elastic Constant Matrix: (Units=GPa)
#
#
# Indices 1 2 3 4 5 6 
#
# 1 144.3430 52.3219 77.4574 0.0000 19.8965 0.0000
# 2 52.3219 98.1426 22.7745 0.0000 3.5951 0.0000
# 3 77.4574 22.7745 139.4976 0.0000 44.7321 0.0000
# 4 0.0000 0.0000 0.0000 23.2563 0.0000 1.3319
# 5 19.8965 3.5951 44.7321 0.0000 41.7790 0.0000
# 6 0.0000 0.0000 0.0000 1.3319 0.0000 39.0472
#
#
#
# Elastic Compliance Matrix: (Units=1/GPa)
#
#
# Indices 1 2 3 4 5 6 
#
# 1 0.011870 -0.004930 -0.006258 0.000000 0.001472 0.000000
# 2 -0.004930 0.012695 0.000400 0.000000 0.000828 0.000000
# 3 -0.006258 0.000400 0.014670 0.000000 -0.012761 0.000000
# 4 0.000000 0.000000 0.000000 0.043083 0.000000 -0.001470
# 5 0.001472 0.000828 -0.012761 0.000000 0.036827 0.000000
# 6 0.000000 0.000000 0.000000 -0.001470 0.000000 0.025660
#
#
# Mechanical properties :
#
#
# Convention : Reuss Voigt Hill
#
# Bulk Modulus (GPa) = 56.63186 76.34344 66.48765
# Shear Modulus (GPa) = 29.02435 36.11178 32.56806
#
# Velocity S-wave (km/s) = 3.60415 4.02019 3.81784
# Velocity P-wave (km/s) = 6.53189 7.46437 7.01365
#
# Compressibility (1/GPa) = 0.01765790
#
# Stress axis : x y z
#
# Youngs Moduli (GPa) = 84.24300 78.77409 68.16426
#
# Poissons Ratio (x) = 0.38836 0.42659
# Poissons Ratio (y) = 0.41532 -0.02723
# Poissons Ratio (z) = 0.52721 -0.03147
#
# Static dielectric constant tensor:
#      x y z
#    x 1.837200 0.000000 -0.009130 
#    y 0.000000 1.799290 0.000000 
#    z -0.009130 0.000000 1.999250 
# 
# From -- ./inp_files/22504.got.cif
#   From: 2010.05.17/outbox.cif.g08.bks.cpg/sg15_12_cif.got.tgz:22504.got - 2010.06.03 18:47:42.
