data_PCOD9266801
_publ_section_title
;
Structure prediction by ZEFSAII (Michael W. Deem and Ramdas Pophale) SiO2 
 PCOD9266801
Probable space group: C 2/C
;
_chemical_formula_sum "Si O2"
_cell_formula_units_Z 40
_cell_length_a 21.795241
_cell_length_b 7.509996
_cell_length_c 27.374792
_cell_angle_alpha 90.000000
_cell_angle_beta 159.046464
_cell_angle_gamma 90.000000
_cell_volume 1602.369864
_symmetry_space_group_name_H-M "C 2/C"
_symmetry_group_IT_number 15
_symmetry_cell_setting 'monoclinic'
loop_
_space_group_symop_operation_xyz
x,y,z
-x,y,1/2-z
-x,-y,-z
x,-y,1/2+z
1/2+x,1/2+y,z
1/2-x,1/2+y,1/2-z
1/2-x,1/2-y,-z
1/2+x,1/2-y,1/2+z
loop_
_atom_site_type_symbol
_atom_site_label
_atom_site_fract_x
_atom_site_fract_y
_atom_site_fract_z
Si Si1 0.644364 0.130415 0.068970
Si Si2 0.901978 0.252346 0.470586
Si Si3 0.007098 0.303909 0.699121
Si Si4 0.510490 0.504669 0.632243
Si Si5 0.477511 0.208520 0.787883
O O1 0.770000 0.275678 0.139164
O O2 0.580739 0.953837 0.992922
O O3 0.785620 0.034891 0.209477
O O4 0.492823 0.220337 0.986074
O O5 0.703373 0.202593 0.326205
O O6 0.992597 0.093099 0.566675
O O7 0.925061 0.158425 0.602872
O O8 0.955212 0.508892 0.659606
O O9 0.000000 0.243805 0.750000
O O10 0.445851 0.324553 0.610807
O O11 0.500000 0.283156 0.750000
#
# Coordination Sequence:
#
# PCOD9266801 Si02
#       5
#     8   8   8   8   8
#     4   8  20  37  58  89 116 157 201 247 293 354
#     4  10  19  38  61  87 121 162 199 241 310 353
#     4  10  21  38  59  88 122 159 202 250 298 353
#     4   9  20  37  59  85 119 161 199 244 299 356
#     4   9  19  40  57  83 123 156 198 254 289 346
#
# _framework density 24.963023
#
# number of rings (size 3 to 8) (size 9 to 14) (size 15 to 20)
#    1.200    1.600    0.000    0.600    0.000    3.200 
#    3.600    4.000    0.000    0.000    0.000    0.000 
#    0.000    0.000    0.000    0.000    0.000    0.000 
#
# Total GULP energy -111363.759592 kJ/mol
# GULP energy per Si atom -5568.187980 kJ/mol
# Density = 2.490621 g / cm^3
# Si number density = 24.963023 Si / 1000 Ang^3
#
#
#
# Elastic Constant Matrix: (Units=GPa)
#
#
# Indices 1 2 3 4 5 6 
#
# 1 54.5920 33.9678 21.5676 0.0046 19.5065 0.0018
# 2 33.9678 132.8747 12.9822 0.0008 -9.3152 0.0005
# 3 21.5676 12.9822 46.6385 0.0155 10.2404 0.0050
# 4 0.0046 0.0008 0.0155 25.0430 0.0029 -3.5273
# 5 19.5065 -9.3152 10.2404 0.0029 32.9996 0.0004
# 6 0.0018 0.0005 0.0050 -3.5273 0.0004 26.8160
#
#
#
# Elastic Compliance Matrix: (Units=1/GPa)
#
#
# Indices 1 2 3 4 5 6 
#
# 1 0.035287 -0.009586 -0.009095 0.000002 -0.020742 0.000000
# 2 -0.009586 0.010640 -0.000464 0.000001 0.008814 0.000001
# 3 -0.009095 -0.000464 0.026426 -0.000015 -0.002955 -0.000006
# 4 0.000002 0.000001 -0.000015 0.040685 0.000000 0.005352
# 5 -0.020742 0.008814 -0.002955 0.000000 0.045969 0.000001
# 6 0.000000 0.000001 -0.000006 0.005352 0.000001 0.037995
#
#
# Mechanical properties :
#
#
# Convention : Reuss Voigt Hill
#
# Bulk Modulus (GPa) = 29.35880 41.23784 35.29832
# Shear Modulus (GPa) = 20.27189 28.01089 24.14139
#
# Velocity S-wave (km/s) = 2.85279 3.35340 3.11317
# Velocity P-wave (km/s) = 4.75790 5.61687 5.20513
#
# Compressibility (1/GPa) = 0.03406134
#
# Stress axis : x y z
#
# Youngs Moduli (GPa) = 28.33891 93.98746 37.84219
#
# Poissons Ratio (x) = 0.90099 0.34419
# Poissons Ratio (y) = 0.27166 0.01755
# Poissons Ratio (z) = 0.25775 0.04360
#
# Static dielectric constant tensor:
#      x y z
#    x 1.980260 0.000000 -0.060740 
#    y 0.000000 2.059960 0.000000 
#    z -0.060740 0.000000 2.111280 
# 
# From -- ./inp_files/317199.got.cif
#   From: 2010.05.17/outbox.cif.g08.bks.cpg/sg15_159_cif.got.tgz:317199.got - 2010.06.03 18:47:42.
