data_PCOD9266942
_publ_section_title
;
Structure prediction by ZEFSAII (Michael W. Deem and Ramdas Pophale) SiO2 
 PCOD9266942
Probable space group: C 2/C
;
_chemical_formula_sum "Si O2"
_cell_formula_units_Z 48
_cell_length_a 12.447864
_cell_length_b 6.744109
_cell_length_c 23.377588
_cell_angle_alpha 90.000000
_cell_angle_beta 71.776186
_cell_angle_gamma 90.000000
_cell_volume 1864.105789
_symmetry_space_group_name_H-M "C 2/C"
_symmetry_group_IT_number 15
_symmetry_cell_setting 'monoclinic'
loop_
_space_group_symop_operation_xyz
x,y,z
-x,y,1/2-z
-x,-y,-z
x,-y,1/2+z
1/2+x,1/2+y,z
1/2-x,1/2+y,1/2-z
1/2-x,1/2-y,-z
1/2+x,1/2-y,1/2+z
loop_
_atom_site_type_symbol
_atom_site_label
_atom_site_fract_x
_atom_site_fract_y
_atom_site_fract_z
Si Si1 0.964797 0.343665 0.846225
Si Si2 0.522776 0.633532 0.422650
Si Si3 0.236523 0.045300 0.331851
Si Si4 0.884336 0.769386 0.480785
Si Si5 0.714735 0.998125 0.303424
Si Si6 0.431313 0.379707 0.818225
O O1 0.864555 0.465394 0.832275
O O2 0.936420 0.342802 0.918152
O O3 0.953121 0.116927 0.824990
O O4 0.090979 0.416351 0.814794
O O5 0.631136 0.490578 0.389615
O O6 0.422519 0.497297 0.464110
O O7 0.565905 0.778859 0.465059
O O8 0.475860 0.710728 0.369985
O O9 0.213455 0.283349 0.331782
O O10 0.227953 0.974213 0.268267
O O11 0.750000 0.750000 0.500000
O O12 0.797878 0.133938 0.327369
O O13 0.500000 0.319630 0.750000
#
# Coordination Sequence:
#
# PCOD9266942 Si02
#       6
#     8   8   8   8   8   8
#     4  10  21  39  65  91 125 172 221 263 325 387
#     4  10  21  38  64  96 125 170 220 267 322 388
#     4  11  22  41  65  95 138 165 217 272 330 394
#     4  10  20  39  69  93 123 176 227 265 320 385
#     4  11  23  39  65  98 131 174 211 270 333 397
#     4  10  19  38  63  89 130 168 205 267 331 383
#
# _framework density 25.749611000000002
#
# number of rings (size 3 to 8) (size 9 to 14) (size 15 to 20)
#    0.000    1.667    3.333    2.500    2.333    0.000 
#    6.000    1.667    0.000    0.000    0.000    0.000 
#    0.000    0.000    0.000    0.000    0.000    0.000 
#
# Total GULP energy -134497.227859 kJ/mol
# GULP energy per Si atom -5604.051161 kJ/mol
# Density = 2.569100 g / cm^3
# Si number density = 25.749611 Si / 1000 Ang^3
#
#
#
# Elastic Constant Matrix: (Units=GPa)
#
#
# Indices 1 2 3 4 5 6 
#
# 1 229.0907 34.0618 63.2978 0.0000 6.8498 0.0000
# 2 34.0618 54.8077 11.4994 0.0000 2.0174 0.0000
# 3 63.2978 11.4994 176.1345 0.0000 17.2100 0.0000
# 4 0.0000 0.0000 0.0000 24.2720 0.0000 -3.9202
# 5 6.8498 2.0174 17.2100 0.0000 62.6333 0.0000
# 6 0.0000 0.0000 0.0000 -3.9202 0.0000 37.8241
#
#
#
# Elastic Compliance Matrix: (Units=1/GPa)
#
#
# Indices 1 2 3 4 5 6 
#
# 1 0.005269 -0.002917 -0.001702 0.000000 -0.000015 0.000000
# 2 -0.002917 0.020119 -0.000239 0.000000 -0.000263 0.000000
# 3 -0.001702 -0.000239 0.006459 0.000000 -0.001581 0.000000
# 4 0.000000 0.000000 0.000000 0.041901 0.000000 0.004343
# 5 -0.000015 -0.000263 -0.001581 0.000000 0.016410 0.000000
# 6 0.000000 0.000000 0.000000 0.004343 0.000000 0.026888
#
#
# Mechanical properties :
#
#
# Convention : Reuss Voigt Hill
#
# Bulk Modulus (GPa) = 45.18699 75.30564 60.24632
# Shear Modulus (GPa) = 37.27432 48.35749 42.81591
#
# Velocity S-wave (km/s) = 3.80882 4.33828 4.08214
# Velocity P-wave (km/s) = 6.07697 7.37584 6.75768
#
# Compressibility (1/GPa) = 0.02213026
#
# Stress axis : x y z
#
# Youngs Moduli (GPa) = 189.77218 49.70543 154.81875
#
# Poissons Ratio (x) = 0.14500 0.26347
# Poissons Ratio (y) = 0.55361 0.03706
# Poissons Ratio (z) = 0.32295 0.01190
#
# Static dielectric constant tensor:
#      x y z
#    x 2.055310 0.000000 -0.015050 
#    y 0.000000 2.189560 0.000000 
#    z -0.015050 0.000000 2.013840 
# 
# From -- ./inp_files/268014.got.cif
#   From: 2010.05.17/outbox.cif.g08.bks.cpg/sg15_135_cif.got.tgz:268014.got - 2010.06.03 18:47:42.
