data_PCOD9266608
_publ_section_title
;
Structure prediction by ZEFSAII (Michael W. Deem and Ramdas Pophale) SiO2 
 PCOD9266608
Probable space group: C 2/C
;
_chemical_formula_sum "Si O2"
_cell_formula_units_Z 40
_cell_length_a 12.938040
_cell_length_b 5.347176
_cell_length_c 26.106265
_cell_angle_alpha 90.000000
_cell_angle_beta 62.892960
_cell_angle_gamma 90.000000
_cell_volume 1607.697130
_symmetry_space_group_name_H-M "C 2/C"
_symmetry_group_IT_number 15
_symmetry_cell_setting 'monoclinic'
loop_
_space_group_symop_operation_xyz
x,y,z
-x,y,1/2-z
-x,-y,-z
x,-y,1/2+z
1/2+x,1/2+y,z
1/2-x,1/2+y,1/2-z
1/2-x,1/2-y,-z
1/2+x,1/2-y,1/2+z
loop_
_atom_site_type_symbol
_atom_site_label
_atom_site_fract_x
_atom_site_fract_y
_atom_site_fract_z
Si Si1 0.120576 0.041154 0.499373
Si Si2 0.914023 0.509652 0.721375
Si Si3 0.680193 0.670421 0.595574
Si Si4 0.857188 0.989389 0.181429
Si Si5 0.260031 0.172836 0.890110
O O1 0.191727 0.270502 0.457554
O O2 0.109458 0.084668 0.562068
O O3 0.203300 0.819428 0.459526
O O4 0.000000 0.000000 0.500000
O O5 0.924528 0.234131 0.694393
O O6 0.778450 0.509439 0.770561
O O7 0.000000 0.549548 0.750000
O O8 0.914129 0.744448 0.681931
O O9 0.689791 0.443825 0.632999
O O10 0.651287 0.940677 0.625698
O O11 0.838473 0.913165 0.126825
#
# Coordination Sequence:
#
# PCOD9266608 Si02
#       5
#     8   8   8   8   8
#     4   9  20  36  55  77 111 151 181 223 272 321
#     4  10  21  40  60  83 112 149 180 226 294 343
#     4   9  20  36  53  75 113 146 180 222 271 316
#     4  10  21  38  60  83 116 143 183 238 276 331
#     4  10  19  38  54  80 112 141 183 230 266 322
#
# _framework density 24.880309
#
# number of rings (size 3 to 8) (size 9 to 14) (size 15 to 20)
#    1.200    1.200    0.000    2.400    0.000    0.800 
#    7.200    0.000    0.000    0.000    0.000    0.000 
#    0.000    0.000    0.000    0.000    0.000    0.000 
#
# Total GULP energy -111632.975531 kJ/mol
# GULP energy per Si atom -5581.648777 kJ/mol
# Density = 2.482368 g / cm^3
# Si number density = 24.880309 Si / 1000 Ang^3
#
#
#
# Elastic Constant Matrix: (Units=GPa)
#
#
# Indices 1 2 3 4 5 6 
#
# 1 108.0017 24.3873 4.4278 -0.0005 27.6781 -0.0005
# 2 24.3873 169.6884 15.3549 -0.0014 22.3869 -0.0008
# 3 4.4278 15.3549 72.9953 -0.0001 27.8632 -0.0003
# 4 -0.0005 -0.0014 -0.0001 33.4845 -0.0002 7.5139
# 5 27.6781 22.3869 27.8632 -0.0002 48.6922 -0.0002
# 6 -0.0005 -0.0008 -0.0003 7.5139 -0.0002 27.8824
#
#
#
# Elastic Compliance Matrix: (Units=1/GPa)
#
#
# Indices 1 2 3 4 5 6 
#
# 1 0.011229 -0.000858 0.002284 0.000000 -0.007295 0.000000
# 2 -0.000858 0.006344 -0.000455 0.000000 -0.002169 0.000000
# 3 0.002284 -0.000455 0.018005 0.000000 -0.011393 0.000000
# 4 0.000000 0.000000 0.000000 0.031787 0.000000 -0.008566
# 5 -0.007295 -0.002169 -0.011393 0.000000 0.032200 0.000000
# 6 0.000000 0.000000 0.000000 -0.008566 0.000000 0.038173
#
#
# Mechanical properties :
#
#
# Convention : Reuss Voigt Hill
#
# Bulk Modulus (GPa) = 26.65179 48.78060 37.71619
# Shear Modulus (GPa) = 33.71497 42.44619 38.08058
#
# Velocity S-wave (km/s) = 3.68514 4.13487 3.91647
# Velocity P-wave (km/s) = 5.37050 6.51498 5.97023
#
# Compressibility (1/GPa) = 0.03752093
#
# Stress axis : x y z
#
# Youngs Moduli (GPa) = 89.05651 157.63617 55.53931
#
# Poissons Ratio (x) = 0.13525 -0.12686
# Poissons Ratio (y) = 0.07641 0.02524
# Poissons Ratio (z) = -0.20341 0.07165
#
# Static dielectric constant tensor:
#      x y z
#    x 1.991960 0.000000 -0.095440 
#    y 0.000000 2.016890 0.000000 
#    z -0.095440 0.000000 2.040760 
# 
# From -- ./inp_files/294080.got.cif
#   From: 2010.05.17/outbox.cif.g08.bks.cpg/sg15_148_cif.got.tgz:294080.got - 2010.06.03 18:47:42.
