data_PCOD9266072
_publ_section_title
;
Structure prediction by ZEFSAII (Michael W. Deem and Ramdas Pophale) SiO2 
 PCOD9266072
Probable space group: C 2/C
;
_chemical_formula_sum "Si O2"
_cell_formula_units_Z 52
_cell_length_a 11.084684
_cell_length_b 8.075246
_cell_length_c 25.982420
_cell_angle_alpha 90.000000
_cell_angle_beta 73.564755
_cell_angle_gamma 90.000000
_cell_volume 2230.697761
_symmetry_space_group_name_H-M "C 2/C"
_symmetry_group_IT_number 15
_symmetry_cell_setting 'monoclinic'
loop_
_space_group_symop_operation_xyz
x,y,z
-x,y,1/2-z
-x,-y,-z
x,-y,1/2+z
1/2+x,1/2+y,z
1/2-x,1/2+y,1/2-z
1/2-x,1/2-y,-z
1/2+x,1/2-y,1/2+z
loop_
_atom_site_type_symbol
_atom_site_label
_atom_site_fract_x
_atom_site_fract_y
_atom_site_fract_z
Si Si1 0.152434 0.984300 0.474487
Si Si2 0.136367 0.921840 0.205132
Si Si3 0.835291 0.629851 0.043444
Si Si4 0.500000 0.159762 0.750000
Si Si5 0.491890 0.607988 0.151226
Si Si6 0.072424 0.302365 0.439930
Si Si7 0.260077 0.933391 0.783168
O O1 0.189820 0.820111 0.436711
O O2 0.229803 0.945330 0.517385
O O3 0.174436 0.167503 0.448425
O O4 0.000000 0.000000 0.500000
O O5 0.216621 0.052514 0.228802
O O6 0.000000 0.901977 0.250000
O O7 0.104201 0.985903 0.152220
O O8 0.205996 0.748924 0.201821
O O9 0.869534 0.482752 0.078233
O O10 0.961575 0.662045 0.994164
O O11 0.514155 0.269753 0.799164
O O12 0.379850 0.046832 0.773568
O O13 0.492783 0.715421 0.100545
O O14 0.360433 0.509521 0.169617
#
# Coordination Sequence:
#
# PCOD9266072 Si02
#       7
#     8   8   8   4   8   8   8
#     4   9  18  37  61  88 117 159 196 237 298 363
#     4  10  19  37  60  79 111 152 200 243 297 350
#     4   9  19  39  64  86 121 159 196 245 309 361
#     4  12  22  38  60  84 120 162 198 248 302 358
#     4  11  23  40  58  89 123 155 206 253 297 362
#     4  10  21  38  61  89 122 156 197 252 302 360
#     4  11  20  38  61  82 112 162 201 245 304 352
#
# _framework density 23.31109
#
# number of rings (size 3 to 8) (size 9 to 14) (size 15 to 20)
#    0.000    1.846    4.615    0.462    0.000    1.231 
#   11.077    0.000    0.000    0.000    0.000    0.000 
#    0.000    0.000    0.000    0.000    0.000    0.000 
#
# Total GULP energy -145052.558179 kJ/mol
# GULP energy per Si atom -5578.944545 kJ/mol
# Density = 2.325803 g / cm^3
# Si number density = 23.311090 Si / 1000 Ang^3
#
#
#
# Elastic Constant Matrix: (Units=GPa)
#
#
# Indices 1 2 3 4 5 6 
#
# 1 104.3345 47.7260 8.2710 0.0000 6.4872 0.0000
# 2 47.7260 129.2434 27.5310 0.0000 17.8461 0.0000
# 3 8.2710 27.5310 51.8997 0.0000 11.7112 0.0000
# 4 0.0000 0.0000 0.0000 20.5157 0.0000 12.8663
# 5 6.4872 17.8461 11.7112 0.0000 29.6690 0.0000
# 6 0.0000 0.0000 0.0000 12.8663 0.0000 43.9204
#
#
#
# Elastic Compliance Matrix: (Units=1/GPa)
#
#
# Indices 1 2 3 4 5 6 
#
# 1 0.011543 -0.004354 0.000492 0.000000 -0.000100 0.000000
# 2 -0.004354 0.010764 -0.004138 0.000000 -0.003889 0.000000
# 3 0.000492 -0.004138 0.022886 0.000000 -0.006652 0.000000
# 4 0.000000 0.000000 0.000000 0.059713 0.000000 -0.017493
# 5 -0.000100 -0.003889 -0.006652 0.000000 0.038692 0.000000
# 6 0.000000 0.000000 0.000000 -0.017493 0.000000 0.027893
#
#
# Mechanical properties :
#
#
# Convention : Reuss Voigt Hill
#
# Bulk Modulus (GPa) = 34.25462 50.28151 42.26807
# Shear Modulus (GPa) = 25.35224 32.28435 28.81830
#
# Velocity S-wave (km/s) = 3.30140 3.72551 3.51985
# Velocity P-wave (km/s) = 5.40914 6.33423 5.88988
#
# Compressibility (1/GPa) = 0.02919314
#
# Stress axis : x y z
#
# Youngs Moduli (GPa) = 86.63072 92.90598 43.69533
#
# Poissons Ratio (x) = 0.40449 -0.02151
# Poissons Ratio (y) = 0.37717 0.18083
# Poissons Ratio (z) = -0.04265 0.38448
#
# Static dielectric constant tensor:
#      x y z
#    x 1.935450 0.000000 -0.018010 
#    y 0.000000 1.945450 0.000000 
#    z -0.018010 0.000000 1.909070 
# 
# From -- ./inp_files/309680.got.cif
#   From: 2010.05.17/outbox.cif.g08.bks.cpg/sg15_155_cif.got.tgz:309680.got - 2010.06.03 18:47:42.
