data_PCOD9266480
_publ_section_title
;
Structure prediction by ZEFSAII (Michael W. Deem and Ramdas Pophale) SiO2 
 PCOD9266480
Probable space group: C 2/C
;
_chemical_formula_sum "Si O2"
_cell_formula_units_Z 64
_cell_length_a 9.141915
_cell_length_b 26.175626
_cell_length_c 21.858226
_cell_angle_alpha 90.000000
_cell_angle_beta 145.723737
_cell_angle_gamma 90.000000
_cell_volume 2945.773077
_symmetry_space_group_name_H-M "C 2/C"
_symmetry_group_IT_number 15
_symmetry_cell_setting 'monoclinic'
loop_
_space_group_symop_operation_xyz
x,y,z
-x,y,1/2-z
-x,-y,-z
x,-y,1/2+z
1/2+x,1/2+y,z
1/2-x,1/2+y,1/2-z
1/2-x,1/2-y,-z
1/2+x,1/2-y,1/2+z
loop_
_atom_site_type_symbol
_atom_site_label
_atom_site_fract_x
_atom_site_fract_y
_atom_site_fract_z
Si Si1 0.769841 0.847932 0.378014
Si Si2 0.218167 0.003715 0.154751
Si Si3 0.252907 0.565721 0.958530
Si Si4 0.365757 0.749640 0.106929
Si Si5 0.332136 0.347189 0.088009
Si Si6 0.720566 0.840297 0.644759
Si Si7 0.834840 0.063026 0.742934
Si Si8 0.949602 0.738120 0.303583
O O1 0.500000 0.862428 0.250000
O O2 0.795706 0.877465 0.449983
O O3 0.761626 0.789321 0.391448
O O4 0.018752 0.856074 0.423679
O O5 0.500000 0.030013 0.250000
O O6 0.224188 0.968823 0.095608
O O7 0.187455 0.965586 0.200521
O O8 0.983574 0.043209 0.077629
O O9 0.961071 0.566169 0.882004
O O10 0.322967 0.697649 0.127450
O O11 0.666468 0.764270 0.205643
O O12 0.250000 0.750000 0.000000
O O13 0.505288 0.384367 0.190421
O O14 0.358571 0.286246 0.114061
O O15 0.036127 0.364462 0.974684
O O16 0.598263 0.807148 0.661383
O O17 0.000000 0.869633 0.750000
O O18 0.000000 0.033111 0.750000
O O19 0.000000 0.720759 0.250000
#
# Coordination Sequence:
#
# PCOD9266480 Si02
#       8
#     8   8   8   8   8   8   8   8
#     4  12  19  37  63  93 116 152 205 258 293 343
#     4   9  19  38  65  94 122 157 189 232 296 365
#     4  10  19  37  65  91 123 153 197 245 288 352
#     4  11  22  36  56  85 123 158 204 251 301 351
#     4  12  21  36  63  86 119 157 205 251 299 347
#     4  10  23  40  55  78 120 167 203 253 304 351
#     4  11  22  36  62  97 125 151 192 245 296 352
#     4  11  21  34  56  85 114 156 210 251 298 355
#
# _framework density 21.726044999999999
#
# number of rings (size 3 to 8) (size 9 to 14) (size 15 to 20)
#    0.000    1.250    5.000    2.250    1.750    1.500 
#    0.000    0.000    8.250    0.750    0.000    0.000 
#    0.000    0.000    0.000    0.000    0.000    0.000 
#
# Total GULP energy -178269.544524 kJ/mol
# GULP energy per Si atom -5570.923266 kJ/mol
# Density = 2.167660 g / cm^3
# Si number density = 21.726045 Si / 1000 Ang^3
#
#
#
# Elastic Constant Matrix: (Units=GPa)
#
#
# Indices 1 2 3 4 5 6 
#
# 1 101.0352 -7.0508 33.4002 -0.0002 15.3271 0.0002
# 2 -7.0508 16.9532 26.3487 -0.0002 10.0083 0.0000
# 3 33.4002 26.3487 116.2555 0.0016 33.7032 0.0011
# 4 -0.0002 -0.0002 0.0016 36.0919 -0.0002 -0.0383
# 5 15.3271 10.0083 33.7032 -0.0002 34.3367 0.0005
# 6 0.0002 0.0000 0.0011 -0.0383 0.0005 1.1102
#
#
#
# Elastic Compliance Matrix: (Units=1/GPa)
#
#
# Indices 1 2 3 4 5 6 
#
# 1 0.014545 0.020513 -0.007285 0.000001 -0.005320 0.000008
# 2 0.020513 0.121928 -0.028752 0.000002 -0.016474 0.000038
# 3 -0.007285 -0.028752 0.019343 -0.000001 -0.007354 -0.000015
# 4 0.000001 0.000002 -0.000001 0.027708 0.000000 0.000956
# 5 -0.005320 -0.016474 -0.007354 0.000000 0.043518 -0.000014
# 6 0.000008 0.000038 -0.000015 0.000956 -0.000014 0.900766
#
#
# Mechanical properties :
#
#
# Convention : Reuss Voigt Hill
#
# Bulk Modulus (GPa) = 8.01494 37.73780 22.87637
# Shear Modulus (GPa) = 4.16512 26.41081 15.28797
#
# Velocity S-wave (km/s) = 1.38610 3.49037 2.65556
# Velocity P-wave (km/s) = 2.50176 5.80096 4.46710
#
# Compressibility (1/GPa) = 0.12476695
#
# Stress axis : x y z
#
# Youngs Moduli (GPa) = 68.75449 8.20156 51.69777
#
# Poissons Ratio (x) = -0.16824 0.37663
# Poissons Ratio (y) = -1.41034 1.48640
# Poissons Ratio (z) = 0.50090 0.23581
#
# Static dielectric constant tensor:
#      x y z
#    x 1.834320 0.000000 -0.067890 
#    y 0.000000 2.070910 0.000010 
#    z -0.067890 0.000010 1.916980 
# 
# From -- ./inp_files/266750.got.cif
#   From: 2010.05.17/outbox.cif.g08.bks.cpg/sg15_134_cif.got.tgz:266750.got - 2010.06.03 18:47:42.
