data_PCOD9266374
_publ_section_title
;
Structure prediction by ZEFSAII (Michael W. Deem and Ramdas Pophale) SiO2 
 PCOD9266374
Probable space group: C 2/C
;
_chemical_formula_sum "Si O2"
_cell_formula_units_Z 40
_cell_length_a 8.510456
_cell_length_b 25.074825
_cell_length_c 9.853157
_cell_angle_alpha 90.000000
_cell_angle_beta 130.521720
_cell_angle_gamma 90.000000
_cell_volume 1598.346721
_symmetry_space_group_name_H-M "C 2/C"
_symmetry_group_IT_number 15
_symmetry_cell_setting 'monoclinic'
loop_
_space_group_symop_operation_xyz
x,y,z
-x,y,1/2-z
-x,-y,-z
x,-y,1/2+z
1/2+x,1/2+y,z
1/2-x,1/2+y,1/2-z
1/2-x,1/2-y,-z
1/2+x,1/2-y,1/2+z
loop_
_atom_site_type_symbol
_atom_site_label
_atom_site_fract_x
_atom_site_fract_y
_atom_site_fract_z
Si Si1 0.421258 0.368898 0.986373
Si Si2 0.640823 0.927959 0.198639
Si Si3 0.133875 0.969884 0.692122
Si Si4 0.379995 0.172793 0.950548
Si Si5 0.640816 0.268365 0.075094
O O1 0.637309 0.398829 0.147210
O O2 0.293434 0.345749 0.040932
O O3 0.485970 0.315871 0.944013
O O4 0.298263 0.414866 0.839080
O O5 0.500000 0.937177 0.250000
O O6 0.525055 0.882982 0.046538
O O7 0.701153 0.985249 0.173285
O O8 0.000000 0.957511 0.750000
O O9 0.000000 0.000000 0.500000
O O10 0.287052 0.203214 0.766963
O O11 0.533459 0.218149 0.088392
O O12 0.750000 0.250000 0.000000
#
# Coordination Sequence:
#
# PCOD9266374 Si02
#       5
#     8   8   8   8   8
#     4  10  22  40  61  91 131 178 222 275 340 416
#     4  10  19  37  63  93 127 170 221 284 348 408
#     4  10  21  41  66  92 126 175 226 278 342 412
#     4  11  22  41  67  96 136 182 226 282 349 418
#     4  11  22  39  65 100 136 179 228 285 347 414
#
# _framework density 25.025859000000001
#
# number of rings (size 3 to 8) (size 9 to 14) (size 15 to 20)
#    0.000    1.600    0.000    8.400    0.000    1.600 
#    0.000   13.000    0.000    2.400    0.000    0.000 
#    0.000    0.000    0.000    0.000    0.000    0.000 
#
# Total GULP energy -111814.161640 kJ/mol
# GULP energy per Si atom -5590.708082 kJ/mol
# Density = 2.496890 g / cm^3
# Si number density = 25.025859 Si / 1000 Ang^3
#
#
#
# Elastic Constant Matrix: (Units=GPa)
#
#
# Indices 1 2 3 4 5 6 
#
# 1 143.9492 59.7711 6.9897 0.0000 -36.3791 0.0000
# 2 59.7711 201.9645 32.4932 0.0000 -11.5374 0.0000
# 3 6.9897 32.4932 92.8716 0.0000 3.7141 0.0000
# 4 0.0000 0.0000 0.0000 -0.9725 0.0000 -17.5505
# 5 -36.3791 -11.5374 3.7141 0.0000 37.8080 0.0000
# 6 0.0000 0.0000 0.0000 -17.5505 0.0000 13.0211
#
#
#
# Elastic Compliance Matrix: (Units=1/GPa)
#
#
# Indices 1 2 3 4 5 6 
#
# 1 0.010315 -0.002483 -0.000275 0.000000 0.009194 0.000000
# 2 -0.002483 0.005968 -0.001886 0.000000 -0.000383 0.000000
# 3 -0.000275 -0.001886 0.011527 0.000000 -0.001973 0.000000
# 4 0.000000 0.000000 0.000000 -0.040604 0.000000 -0.054728
# 5 0.009194 -0.000383 -0.001973 0.000000 0.035373 0.000000
# 6 0.000000 0.000000 0.000000 -0.054728 0.000000 0.003033
#
#
# Mechanical properties :
#
#
# Convention : Reuss Voigt Hill
#
# Bulk Modulus (GPa) = 53.99175 70.81035 62.40105
# Shear Modulus (GPa) = 121.73263 32.60674 77.16969
#
# Velocity S-wave (km/s) = 6.98200 3.61352 5.55904
# Velocity P-wave (km/s) = 9.30693 6.76508 8.13589
#
# Compressibility (1/GPa) = 0.01852135
#
# Stress axis : x y z
#
# Youngs Moduli (GPa) = 96.94654 167.56683 86.75338
#
# Poissons Ratio (x) = 0.41610 0.02388
# Poissons Ratio (y) = 0.24074 0.16360
# Poissons Ratio (z) = 0.02668 0.31599
#
# Static dielectric constant tensor:
#      x y z
#    x 1.940110 0.000000 0.138470 
#    y 0.000000 2.006750 0.000000 
#    z 0.138470 0.000000 2.170930 
# 
# From -- ./inp_files/79546.got.cif
#   From: 2010.05.17/outbox.cif.g08.bks.cpg/sg15_40_cif.got.tgz:79546.got - 2010.06.03 18:47:42.
