data_PCOD9266546
_publ_section_title
;
Structure prediction by ZEFSAII (Michael W. Deem and Ramdas Pophale) SiO2 
 PCOD9266546
Probable space group: C 2/C
;
_chemical_formula_sum "Si O2"
_cell_formula_units_Z 56
_cell_length_a 19.242222
_cell_length_b 17.932570
_cell_length_c 15.593350
_cell_angle_alpha 90.000000
_cell_angle_beta 152.389043
_cell_angle_gamma 90.000000
_cell_volume 2493.759653
_symmetry_space_group_name_H-M "C 2/C"
_symmetry_group_IT_number 15
_symmetry_cell_setting 'monoclinic'
loop_
_space_group_symop_operation_xyz
x,y,z
-x,y,1/2-z
-x,-y,-z
x,-y,1/2+z
1/2+x,1/2+y,z
1/2-x,1/2+y,1/2-z
1/2-x,1/2-y,-z
1/2+x,1/2-y,1/2+z
loop_
_atom_site_type_symbol
_atom_site_label
_atom_site_fract_x
_atom_site_fract_y
_atom_site_fract_z
Si Si1 0.233964 0.059703 0.652932
Si Si2 0.818172 0.601509 0.169644
Si Si3 0.207500 0.287992 0.699762
Si Si4 0.881057 0.525228 0.995182
Si Si5 0.468120 0.647082 0.960618
Si Si6 0.114025 0.074991 0.806547
Si Si7 0.519041 0.863875 0.169906
O O1 0.328147 0.050576 0.843956
O O2 0.071098 0.084855 0.510374
O O3 0.311015 0.122941 0.677552
O O4 0.251366 0.978560 0.628943
O O5 0.821568 0.659269 0.250441
O O6 0.988446 0.580782 0.332574
O O7 0.714737 0.628451 0.978018
O O8 0.172584 0.203751 0.688731
O O9 0.082546 0.305631 0.491828
O O10 0.375222 0.310275 0.854533
O O11 0.739694 0.522828 0.903227
O O12 0.947690 0.443399 0.066599
O O13 0.465373 0.612986 0.861622
O O14 0.000000 0.040436 0.750000
O O15 0.500000 0.852966 0.250000
#
# Coordination Sequence:
#
# PCOD9266546 Si02
#       7
#     8   8   8   8   8   8   8
#     4  10  20  41  67  99 130 174 214 271 329 393
#     4  11  20  39  67  94 131 168 222 262 326 385
#     4  12  24  44  65  93 129 179 215 269 326 396
#     4  10  19  37  66  99 135 171 214 267 334 386
#     4  11  27  44  66  91 138 174 220 263 337 385
#     4  11  23  39  59 101 134 169 218 272 311 382
#     4  11  21  40  69 101 125 166 221 274 325 392
#
# _framework density 22.456053000000001
#
# number of rings (size 3 to 8) (size 9 to 14) (size 15 to 20)
#    0.000    1.143    4.286    3.857    2.000    2.286 
#    0.000    3.571    0.000    0.000    0.000    0.000 
#    0.000    0.000    0.000    0.000    0.000    0.000 
#
# Total GULP energy -156398.872455 kJ/mol
# GULP energy per Si atom -5585.674016 kJ/mol
# Density = 2.240494 g / cm^3
# Si number density = 22.456053 Si / 1000 Ang^3
#
#
#
# Elastic Constant Matrix: (Units=GPa)
#
#
# Indices 1 2 3 4 5 6 
#
# 1 149.1235 23.7707 22.2398 0.0000 6.3431 0.0000
# 2 23.7707 43.2435 11.7888 0.0000 11.7793 0.0000
# 3 22.2398 11.7888 40.8885 0.0000 1.5350 0.0000
# 4 0.0000 0.0000 0.0000 21.3033 0.0000 15.5556
# 5 6.3431 11.7793 1.5350 0.0000 33.3695 0.0000
# 6 0.0000 0.0000 0.0000 15.5556 0.0000 7.2258
#
#
#
# Elastic Compliance Matrix: (Units=1/GPa)
#
#
# Indices 1 2 3 4 5 6 
#
# 1 0.007725 -0.003324 -0.003238 0.000000 -0.000146 0.000000
# 2 -0.003324 0.029218 -0.006264 0.000000 -0.009394 0.000000
# 3 -0.003238 -0.006264 0.027966 0.000000 0.001540 0.000000
# 4 0.000000 0.000000 0.000000 -0.082069 0.000000 0.176678
# 5 -0.000146 -0.009394 0.001540 0.000000 0.033240 0.000000
# 6 0.000000 0.000000 0.000000 0.176678 0.000000 -0.241959
#
#
# Mechanical properties :
#
#
# Convention : Reuss Voigt Hill
#
# Bulk Modulus (GPa) = 25.47208 38.76156 32.11682
# Shear Modulus (GPa) = -26.71758 24.07680 -1.32039
#
# Velocity S-wave (km/s) = -3.45305 3.27796 -0.76764
# Velocity P-wave (km/s) = 2.12846 5.62363 3.68068
#
# Compressibility (1/GPa) = 0.03925867
#
# Stress axis : x y z
#
# Youngs Moduli (GPa) = 129.45372 34.22506 35.75780
#
# Poissons Ratio (x) = 0.11376 0.11578
# Poissons Ratio (y) = 0.43027 0.22397
# Poissons Ratio (z) = 0.41915 0.21437
#
# Static dielectric constant tensor:
#      x y z
#    x 1.881160 0.000000 0.037570 
#    y 0.000000 1.805000 0.000000 
#    z 0.037570 0.000000 1.892930 
# 
# From -- ./inp_files/50349.got.cif
#   From: 2010.05.17/outbox.cif.g08.bks.cpg/sg15_26_cif.got.tgz:50349.got - 2010.06.03 18:47:42.
