data_PCOD9266934
_publ_section_title
;
Structure prediction by ZEFSAII (Michael W. Deem and Ramdas Pophale) SiO2 
 PCOD9266934
Probable space group: C 2/C
;
_chemical_formula_sum "Si O2"
_cell_formula_units_Z 40
_cell_length_a 11.612702
_cell_length_b 9.863972
_cell_length_c 16.893365
_cell_angle_alpha 90.000000
_cell_angle_beta 116.981955
_cell_angle_gamma 90.000000
_cell_volume 1724.454846
_symmetry_space_group_name_H-M "C 2/C"
_symmetry_group_IT_number 15
_symmetry_cell_setting 'monoclinic'
loop_
_space_group_symop_operation_xyz
x,y,z
-x,y,1/2-z
-x,-y,-z
x,-y,1/2+z
1/2+x,1/2+y,z
1/2-x,1/2+y,1/2-z
1/2-x,1/2-y,-z
1/2+x,1/2-y,1/2+z
loop_
_atom_site_type_symbol
_atom_site_label
_atom_site_fract_x
_atom_site_fract_y
_atom_site_fract_z
Si Si1 0.674860 0.317522 0.608417
Si Si2 0.515080 0.508447 0.342618
Si Si3 0.923038 0.695726 0.466851
Si Si4 0.747826 0.554198 0.524183
Si Si5 0.589862 0.208719 0.211623
O O1 0.580149 0.413783 0.629132
O O2 0.574376 0.228227 0.526913
O O3 0.752376 0.417252 0.574741
O O4 0.775952 0.256746 0.702191
O O5 0.500000 0.563430 0.250000
O O6 0.656951 0.527706 0.420337
O O7 0.479609 0.350659 0.330201
O O8 0.880056 0.605308 0.528029
O O9 0.829522 0.829022 0.450392
O O10 0.895830 0.641336 0.369971
O O11 0.500000 0.137887 0.250000
#
# Coordination Sequence:
#
# PCOD9266934 Si02
#       5
#     8   8   8   8   8
#     4  11  21  40  62  95 133 166 218 280 317 392
#     4  10  19  38  63  88 124 171 216 265 333 389
#     4  10  20  40  66  96 124 172 219 269 333 395
#     4  10  19  38  67  93 128 164 221 277 327 390
#     4  11  23  39  60  89 129 172 210 265 333 395
#
# _framework density 23.195737000000001
#
# number of rings (size 3 to 8) (size 9 to 14) (size 15 to 20)
#    0.000    1.600    4.000    2.400    0.000    0.800 
#    3.600    1.000    0.000    0.000    0.000    0.000 
#    0.000    0.000    0.000    0.000    0.000    0.000 
#
# Total GULP energy -111801.275714 kJ/mol
# GULP energy per Si atom -5590.063786 kJ/mol
# Density = 2.314294 g / cm^3
# Si number density = 23.195737 Si / 1000 Ang^3
#
#
#
# Elastic Constant Matrix: (Units=GPa)
#
#
# Indices 1 2 3 4 5 6 
#
# 1 93.8418 18.1296 40.1061 0.0000 -10.0718 0.0000
# 2 18.1296 32.7560 5.2747 0.0000 0.7163 0.0000
# 3 40.1061 5.2747 136.4811 0.0000 -9.5517 0.0000
# 4 0.0000 0.0000 0.0000 25.6542 0.0000 -4.6087
# 5 -10.0718 0.7163 -9.5517 0.0000 41.9441 0.0000
# 6 0.0000 0.0000 0.0000 -4.6087 0.0000 9.8035
#
#
#
# Elastic Compliance Matrix: (Units=1/GPa)
#
#
# Indices 1 2 3 4 5 6 
#
# 1 0.013864 -0.007149 -0.003614 0.000000 0.002628 0.000000
# 2 -0.007149 0.034433 0.000619 0.000000 -0.002164 0.000000
# 3 -0.003614 0.000619 0.008438 0.000000 0.001043 0.000000
# 4 0.000000 0.000000 0.000000 0.042576 0.000000 0.020015
# 5 0.002628 -0.002164 0.001043 0.000000 0.024747 0.000000
# 6 0.000000 0.000000 0.000000 0.020015 0.000000 0.111413
#
#
# Mechanical properties :
#
#
# Convention : Reuss Voigt Hill
#
# Bulk Modulus (GPa) = 27.43717 43.34442 35.39079
# Shear Modulus (GPa) = 18.66313 28.78493 23.72403
#
# Velocity S-wave (km/s) = 2.83961 3.52654 3.20156
# Velocity P-wave (km/s) = 4.75452 5.94213 5.38119
#
# Compressibility (1/GPa) = 0.03644691
#
# Stress axis : x y z
#
# Youngs Moduli (GPa) = 72.12996 29.04182 118.51053
#
# Poissons Ratio (x) = 0.20761 0.42827
# Poissons Ratio (y) = 0.51564 -0.07330
# Poissons Ratio (z) = 0.26066 -0.01796
#
# Static dielectric constant tensor:
#      x y z
#    x 1.911380 0.000000 -0.043810 
#    y 0.000000 1.920170 0.000000 
#    z -0.043810 0.000000 1.868780 
# 
# From -- ./inp_files/141711.got.cif
#   From: 2010.05.17/outbox.cif.g08.bks.cpg/sg15_71_cif.got.tgz:141711.got - 2010.06.03 18:47:42.
