data_PCOD9266996
_publ_section_title
;
Structure prediction by ZEFSAII (Michael W. Deem and Ramdas Pophale) SiO2 
 PCOD9266996
Probable space group: C 2/C
;
_chemical_formula_sum "Si O2"
_cell_formula_units_Z 56
_cell_length_a 28.058759
_cell_length_b 18.435911
_cell_length_c 9.662003
_cell_angle_alpha 90.000000
_cell_angle_beta 144.515366
_cell_angle_gamma 90.000000
_cell_volume 2901.288602
_symmetry_space_group_name_H-M "C 2/C"
_symmetry_group_IT_number 15
_symmetry_cell_setting 'monoclinic'
loop_
_space_group_symop_operation_xyz
x,y,z
-x,y,1/2-z
-x,-y,-z
x,-y,1/2+z
1/2+x,1/2+y,z
1/2-x,1/2+y,1/2-z
1/2-x,1/2-y,-z
1/2+x,1/2-y,1/2+z
loop_
_atom_site_type_symbol
_atom_site_label
_atom_site_fract_x
_atom_site_fract_y
_atom_site_fract_z
Si Si1 0.683393 0.425030 0.707798
Si Si2 0.644173 0.194046 0.260497
Si Si3 0.997805 0.787693 0.909687
Si Si4 0.174327 0.839250 0.963176
Si Si5 0.221926 0.075586 0.847283
Si Si6 0.246304 0.779864 0.722212
Si Si7 0.931493 0.937843 0.306373
O O1 0.673418 0.397901 0.840771
O O2 0.740831 0.495355 0.837375
O O3 0.721605 0.356024 0.723021
O O4 0.600031 0.443018 0.426671
O O5 0.696904 0.121024 0.417154
O O6 0.669072 0.213272 0.162783
O O7 0.684452 0.253467 0.457509
O O8 0.548484 0.213085 0.051980
O O9 0.000000 0.802851 0.750000
O O10 0.905013 0.789239 0.741418
O O11 0.034258 0.858345 0.074240
O O12 0.178407 0.880089 0.120536
O O13 0.249298 0.782955 0.153089
O O14 0.152628 0.060179 0.800211
O O15 0.000000 0.000000 0.500000
#
# Coordination Sequence:
#
# PCOD9266996 Si02
#       7
#     8   8   8   8   8   8   8
#     4  12  23  38  58  92 127 158 193 254 316 358
#     4  10  19  38  64  80 111 165 215 243 281 370
#     4  12  20  37  59  86 111 155 207 246 285 356
#     4  11  24  36  61  90 121 158 205 254 303 361
#     4  11  22  40  58  85 122 166 203 241 303 371
#     4  10  19  39  59  84 115 160 207 248 296 366
#     4  12  24  37  57  86 128 166 192 235 304 378
#
# _framework density 19.301766000000001
#
# number of rings (size 3 to 8) (size 9 to 14) (size 15 to 20)
#    0.000    0.857    5.714    3.857    0.000    1.714 
#    0.000    0.714    0.000    0.857    0.000    0.000 
#    0.000    0.000    0.000    0.571    0.000    0.000 
#
# Total GULP energy -156063.801670 kJ/mol
# GULP energy per Si atom -5573.707202 kJ/mol
# Density = 1.925783 g / cm^3
# Si number density = 19.301766 Si / 1000 Ang^3
#
#
#
# Elastic Constant Matrix: (Units=GPa)
#
#
# Indices 1 2 3 4 5 6 
#
# 1 34.9958 25.2773 24.3413 0.0000 -3.8806 0.0000
# 2 25.2773 136.0686 61.8148 0.0000 4.0631 0.0000
# 3 24.3413 61.8148 88.0692 0.0000 -10.0754 0.0000
# 4 0.0000 0.0000 0.0000 23.9943 0.0000 15.2238
# 5 -3.8806 4.0631 -10.0754 0.0000 26.4190 0.0000
# 6 0.0000 0.0000 0.0000 15.2238 0.0000 25.5070
#
#
#
# Elastic Compliance Matrix: (Units=1/GPa)
#
#
# Indices 1 2 3 4 5 6 
#
# 1 0.036545 -0.003612 -0.007202 0.000000 0.003177 0.000000
# 2 -0.003612 0.011750 -0.007859 0.000000 -0.005335 0.000000
# 3 -0.007202 -0.007859 0.019740 0.000000 0.007679 0.000000
# 4 0.000000 0.000000 0.000000 0.067078 0.000000 -0.040035
# 5 0.003177 -0.005335 0.007679 0.000000 0.042067 0.000000
# 6 0.000000 0.000000 0.000000 -0.040035 0.000000 0.063100
#
#
# Mechanical properties :
#
#
# Convention : Reuss Voigt Hill
#
# Bulk Modulus (GPa) = 32.58502 53.55558 43.07030
# Shear Modulus (GPa) = 17.36977 25.03076 21.20026
#
# Velocity S-wave (km/s) = 3.00310 3.60503 3.31775
# Velocity P-wave (km/s) = 5.37990 6.71826 6.08598
#
# Compressibility (1/GPa) = 0.03068895
#
# Stress axis : x y z
#
# Youngs Moduli (GPa) = 27.36320 85.10740 50.65865
#
# Poissons Ratio (x) = 0.30741 0.36484
# Poissons Ratio (y) = 0.09884 0.39813
# Poissons Ratio (z) = 0.19707 0.66887
#
# Static dielectric constant tensor:
#      x y z
#    x 1.736120 0.000000 -0.011630 
#    y 0.000000 1.712430 0.000000 
#    z -0.011630 0.000000 1.716640 
# 
# From -- ./inp_files/67127.got.cif
#   From: 2010.05.17/outbox.cif.g08.bks.cpg/sg15_34_cif.got.tgz:67127.got - 2010.06.03 18:47:42.
