data_PCOD9266440
_publ_section_title
;
Structure prediction by ZEFSAII (Michael W. Deem and Ramdas Pophale) SiO2 
 PCOD9266440
Probable space group: C 2/C
;
_chemical_formula_sum "Si O2"
_cell_formula_units_Z 56
_cell_length_a 15.455878
_cell_length_b 23.071785
_cell_length_c 8.796137
_cell_angle_alpha 90.000000
_cell_angle_beta 52.624138
_cell_angle_gamma 90.000000
_cell_volume 2492.607600
_symmetry_space_group_name_H-M "C 2/C"
_symmetry_group_IT_number 15
_symmetry_cell_setting 'monoclinic'
loop_
_space_group_symop_operation_xyz
x,y,z
-x,y,1/2-z
-x,-y,-z
x,-y,1/2+z
1/2+x,1/2+y,z
1/2-x,1/2+y,1/2-z
1/2-x,1/2-y,-z
1/2+x,1/2-y,1/2+z
loop_
_atom_site_type_symbol
_atom_site_label
_atom_site_fract_x
_atom_site_fract_y
_atom_site_fract_z
Si Si1 0.178879 0.539678 0.893594
Si Si2 0.034085 0.195141 0.034223
Si Si3 0.869343 0.422836 0.721925
Si Si4 0.492543 0.822714 0.076655
Si Si5 0.737129 0.148769 0.648627
Si Si6 0.832132 0.124712 0.237138
Si Si7 0.083371 0.002825 0.277192
O O1 0.124503 0.482037 0.883239
O O2 0.194047 0.585261 0.740867
O O3 0.301850 0.525841 0.815915
O O4 0.124654 0.563441 0.105500
O O5 0.000000 0.195106 0.250000
O O6 0.048705 0.262084 0.976947
O O7 0.930962 0.163184 0.070599
O O8 0.147976 0.162308 0.896209
O O9 0.749140 0.398629 0.804390
O O10 0.955236 0.375564 0.571188
O O11 0.500000 0.835080 0.250000
O O12 0.363542 0.812699 0.188933
O O13 0.759039 0.155440 0.445205
O O14 0.885644 0.070707 0.273799
O O15 0.000000 0.974737 0.250000
O O16 0.000000 0.000000 0.500000
#
# Coordination Sequence:
#
# PCOD9266440 Si02
#       7
#     8   8   8   8   8   8   8
#     4  11  24  41  63  95 131 172 213 267 320 388
#     4   9  21  37  68 100 126 166 215 272 321 376
#     4  11  24  42  65  95 131 172 219 261 326 380
#     4  11  24  41  66  96 126 170 221 270 314 384
#     4  11  22  41  65  92 130 165 216 262 324 385
#     4  10  19  37  64  95 128 163 209 267 319 383
#     4  11  19  32  57  89 127 161 203 254 315 377
#
# _framework density 22.466431
#
# number of rings (size 3 to 8) (size 9 to 14) (size 15 to 20)
#    0.000    1.429    1.429    6.429    2.000    2.857 
#    0.000    0.714    3.143    0.000    0.000    0.000 
#    0.000    0.000    0.000    0.000    0.000    0.000 
#
# Total GULP energy -156356.694682 kJ/mol
# GULP energy per Si atom -5584.167667 kJ/mol
# Density = 2.241530 g / cm^3
# Si number density = 22.466431 Si / 1000 Ang^3
#
#
#
# Elastic Constant Matrix: (Units=GPa)
#
#
# Indices 1 2 3 4 5 6 
#
# 1 59.3306 7.4806 30.7656 0.0000 -14.9849 0.0000
# 2 7.4806 89.9444 33.5736 0.0000 -10.6612 0.0000
# 3 30.7656 33.5736 105.1966 0.0000 -21.2370 0.0000
# 4 0.0000 0.0000 0.0000 36.0565 0.0000 -8.3858
# 5 -14.9849 -10.6612 -21.2370 0.0000 40.5987 0.0000
# 6 0.0000 0.0000 0.0000 -8.3858 0.0000 15.1633
#
#
#
# Elastic Compliance Matrix: (Units=1/GPa)
#
#
# Indices 1 2 3 4 5 6 
#
# 1 0.020800 0.000865 -0.005326 0.000000 0.005118 0.000000
# 2 0.000865 0.012724 -0.003997 0.000000 0.001570 0.000000
# 3 -0.005326 -0.003997 0.013115 0.000000 0.003845 0.000000
# 4 0.000000 0.000000 0.000000 0.031828 0.000000 0.017602
# 5 0.005118 0.001570 0.003845 0.000000 0.028944 0.000000
# 6 0.000000 0.000000 0.000000 0.017602 0.000000 0.075683
#
#
# Mechanical properties :
#
#
# Convention : Reuss Voigt Hill
#
# Bulk Modulus (GPa) = 33.64321 44.23459 38.93890
# Shear Modulus (GPa) = 23.81872 30.54048 27.17960
#
# Velocity S-wave (km/s) = 3.25959 3.69098 3.48197
# Velocity P-wave (km/s) = 5.40129 6.15600 5.79096
#
# Compressibility (1/GPa) = 0.02972368
#
# Stress axis : x y z
#
# Youngs Moduli (GPa) = 48.07666 78.59134 76.24571
#
# Poissons Ratio (x) = -0.06796 0.40607
# Poissons Ratio (y) = -0.04157 0.30475
# Poissons Ratio (z) = 0.25605 0.31412
#
# Static dielectric constant tensor:
#      x y z
#    x 1.842400 0.000000 -0.033540 
#    y 0.000000 2.013530 0.000000 
#    z -0.033540 0.000000 1.794120 
# 
# From -- ./inp_files/107928.got.cif
#   From: 2010.05.17/outbox.cif.g08.bks.cpg/sg15_54_cif.got.tgz:107928.got - 2010.06.03 18:47:42.
