data_PCOD9266150
_publ_section_title
;
Structure prediction by ZEFSAII (Michael W. Deem and Ramdas Pophale) SiO2 
 PCOD9266150
Probable space group: C 2/C
;
_chemical_formula_sum "Si O2"
_cell_formula_units_Z 64
_cell_length_a 26.114257
_cell_length_b 18.789218
_cell_length_c 19.977365
_cell_angle_alpha 90.000000
_cell_angle_beta 161.793706
_cell_angle_gamma 90.000000
_cell_volume 3062.599455
_symmetry_space_group_name_H-M "C 2/C"
_symmetry_group_IT_number 15
_symmetry_cell_setting 'monoclinic'
loop_
_space_group_symop_operation_xyz
x,y,z
-x,y,1/2-z
-x,-y,-z
x,-y,1/2+z
1/2+x,1/2+y,z
1/2-x,1/2+y,1/2-z
1/2-x,1/2-y,-z
1/2+x,1/2-y,1/2+z
loop_
_atom_site_type_symbol
_atom_site_label
_atom_site_fract_x
_atom_site_fract_y
_atom_site_fract_z
Si Si1 0.808573 0.344969 0.374693
Si Si2 0.777165 0.726822 0.342338
Si Si3 0.695327 0.306682 0.988355
Si Si4 0.000282 0.139615 0.562104
Si Si5 0.131978 0.279246 0.797208
Si Si6 0.478220 0.107420 0.803580
Si Si7 0.649773 0.404170 0.487884
Si Si8 0.981073 0.477724 0.900708
O O1 0.734177 0.281368 0.235383
O O2 0.660641 0.388543 0.224606
O O3 0.957308 0.312093 0.604426
O O4 0.915059 0.405057 0.470923
O O5 0.747912 0.776470 0.369740
O O6 0.933305 0.677690 0.554985
O O7 0.639247 0.666841 0.160579
O O8 0.500000 0.313689 0.750000
O O9 0.750000 0.250000 0.000000
O O10 0.787877 0.378570 0.083777
O O11 0.075350 0.212563 0.684281
O O12 0.922903 0.096864 0.527486
O O13 0.250000 0.250000 0.000000
O O14 0.243733 0.332581 0.892743
O O15 0.500000 0.104706 0.750000
O O16 0.535477 0.037036 0.914284
O O17 0.500000 0.406854 0.250000
O O18 0.788940 0.462551 0.649169
O O19 0.000000 0.500000 0.000000
#
# Coordination Sequence:
#
# PCOD9266150 Si02
#       8
#     8   8   8   8   8   8   8   8
#     4  10  24  40  66 101 130 184 228 277 343 412
#     4  11  21  41  70 101 143 171 235 293 352 412
#     4  12  22  41  69 105 139 168 225 289 354 407
#     4  11  22  35  65  97 131 176 235 292 342 400
#     4  10  19  37  60  93 135 168 218 277 344 396
#     4  12  25  45  72 104 140 185 233 297 354 419
#     4  11  23  41  62  92 132 181 230 286 344 416
#     4  11  26  50  66  91 142 196 230 274 358 430
#
# _framework density 20.897279999999999
#
# number of rings (size 3 to 8) (size 9 to 14) (size 15 to 20)
#    0.000    1.000    3.750    3.750    0.000    3.500 
#    0.000    3.750    0.000    0.000    0.000    0.000 
#    0.000    0.000    0.000    0.000    0.000    0.000 
#
# Total GULP energy -178440.480844 kJ/mol
# GULP energy per Si atom -5576.265026 kJ/mol
# Density = 2.084972 g / cm^3
# Si number density = 20.897280 Si / 1000 Ang^3
#
#
#
# Elastic Constant Matrix: (Units=GPa)
#
#
# Indices 1 2 3 4 5 6 
#
# 1 98.7938 21.0200 52.6634 0.0000 9.9101 -0.0001
# 2 21.0200 69.4735 22.4012 0.0011 -1.7811 0.0006
# 3 52.6634 22.4012 96.1124 -0.0014 11.0185 -0.0003
# 4 0.0000 0.0011 -0.0014 26.3093 0.0017 1.0823
# 5 9.9101 -1.7811 11.0185 0.0017 33.9881 0.0005
# 6 -0.0001 0.0006 -0.0003 1.0823 0.0005 20.7439
#
#
#
# Elastic Compliance Matrix: (Units=1/GPa)
#
#
# Indices 1 2 3 4 5 6 
#
# 1 0.014677 -0.002135 -0.007313 0.000000 -0.002021 0.000000
# 2 -0.002135 0.016015 -0.002836 -0.000001 0.002381 -0.000001
# 3 -0.007313 -0.002836 0.015418 0.000001 -0.003015 0.000000
# 4 0.000000 -0.000001 0.000001 0.038091 -0.000002 -0.001987
# 5 -0.002021 0.002381 -0.003015 -0.000002 0.031113 -0.000001
# 6 0.000000 -0.000001 0.000000 -0.001987 -0.000001 0.048311
#
#
# Mechanical properties :
#
#
# Convention : Reuss Voigt Hill
#
# Bulk Modulus (GPa) = 46.41795 50.72764 48.57279
# Shear Modulus (GPa) = 25.59187 27.42791 26.50989
#
# Velocity S-wave (km/s) = 3.50330 3.62679 3.56558
# Velocity P-wave (km/s) = 6.21488 6.47036 6.34391
#
# Compressibility (1/GPa) = 0.02154339
#
# Stress axis : x y z
#
# Youngs Moduli (GPa) = 68.13265 62.44012 64.85845
#
# Poissons Ratio (x) = 0.13328 0.47431
# Poissons Ratio (y) = 0.14543 0.18395
# Poissons Ratio (z) = 0.49826 0.17709
#
# Static dielectric constant tensor:
#      x y z
#    x 1.775330 0.000000 0.053550 
#    y 0.000000 1.770010 0.000000 
#    z 0.053550 0.000000 1.782490 
# 
# From -- ./inp_files/220289.got.cif
#   From: 2010.05.17/outbox.cif.g08.bks.cpg/sg15_111_cif.got.tgz:220289.got - 2010.06.03 18:47:42.
