data_PCOD9266138
_publ_section_title
;
Structure prediction by ZEFSAII (Michael W. Deem and Ramdas Pophale) SiO2 
 PCOD9266138
Probable space group: C 2/C
;
_chemical_formula_sum "Si O2"
_cell_formula_units_Z 64
_cell_length_a 29.934273
_cell_length_b 11.121340
_cell_length_c 19.702820
_cell_angle_alpha 90.000000
_cell_angle_beta 30.151594
_cell_angle_gamma 90.000000
_cell_volume 3294.643288
_symmetry_space_group_name_H-M "C 2/C"
_symmetry_group_IT_number 15
_symmetry_cell_setting 'monoclinic'
loop_
_space_group_symop_operation_xyz
x,y,z
-x,y,1/2-z
-x,-y,-z
x,-y,1/2+z
1/2+x,1/2+y,z
1/2-x,1/2+y,1/2-z
1/2-x,1/2-y,-z
1/2+x,1/2-y,1/2+z
loop_
_atom_site_type_symbol
_atom_site_label
_atom_site_fract_x
_atom_site_fract_y
_atom_site_fract_z
Si Si1 0.036833 0.518857 0.375714
Si Si2 0.201429 0.413860 0.212812
Si Si3 0.550262 0.142372 0.615181
Si Si4 0.382115 0.822293 0.037558
Si Si5 0.000703 0.095708 0.323743
Si Si6 0.811341 0.816794 0.865769
Si Si7 0.142587 0.038229 0.417904
Si Si8 0.730905 0.997188 0.876669
O O1 0.142243 0.509619 0.248183
O O2 0.000000 0.500000 0.500000
O O3 0.009873 0.402906 0.367318
O O4 0.984232 0.628550 0.407983
O O5 0.160269 0.387500 0.341003
O O6 0.190874 0.283523 0.191088
O O7 0.295639 0.475159 0.105613
O O8 0.500000 0.100551 0.750000
O O9 0.557487 0.284294 0.610105
O O10 0.647325 0.090934 0.472858
O O11 0.368780 0.680878 0.059534
O O12 0.321211 0.876183 0.056998
O O13 0.000000 0.034935 0.250000
O O14 0.095074 0.147531 0.224007
O O15 0.954253 0.018523 0.443101
O O16 0.770948 0.942112 0.892163
O O17 0.750000 0.750000 0.000000
O O18 0.192262 0.011093 0.281429
#
# Coordination Sequence:
#
# PCOD9266138 Si02
#       8
#     8   8   8   8   8   8   8   8
#     4   9  18  35  58  87 121 157 210 261 312 384
#     4  10  19  37  60  91 118 163 211 260 320 374
#     4  10  19  37  62  93 124 155 213 273 328 370
#     4   9  20  39  57  85 127 166 209 255 315 390
#     4  11  24  40  63  95 128 167 211 271 339 382
#     4  12  22  39  66  96 127 153 218 277 319 385
#     4  11  22  40  61  88 135 171 206 266 325 393
#     4  10  22  37  60  94 123 168 215 257 327 384
#
# _framework density 19.425470000000001
#
# number of rings (size 3 to 8) (size 9 to 14) (size 15 to 20)
#    0.000    1.750    2.500    3.750    1.750    0.500 
#    2.250    2.500    0.000    1.500    0.000    0.000 
#    0.000    0.000    0.000    0.000    0.000    0.000 
#
# Total GULP energy -178135.480108 kJ/mol
# GULP energy per Si atom -5566.733753 kJ/mol
# Density = 1.938126 g / cm^3
# Si number density = 19.425470 Si / 1000 Ang^3
#
#
#
# Elastic Constant Matrix: (Units=GPa)
#
#
# Indices 1 2 3 4 5 6 
#
# 1 76.6037 21.1515 28.5778 0.0000 -6.8433 0.0000
# 2 21.1515 65.3344 24.4796 0.0000 -10.5418 0.0000
# 3 28.5778 24.4796 81.1221 0.0000 -5.2910 0.0000
# 4 0.0000 0.0000 0.0000 28.6733 0.0000 0.7630
# 5 -6.8433 -10.5418 -5.2910 0.0000 33.4265 0.0000
# 6 0.0000 0.0000 0.0000 0.7630 0.0000 24.3754
#
#
#
# Elastic Compliance Matrix: (Units=1/GPa)
#
#
# Indices 1 2 3 4 5 6 
#
# 1 0.015739 -0.003169 -0.004490 0.000000 0.001512 0.000000
# 2 -0.003169 0.018647 -0.004213 0.000000 0.004565 0.000000
# 3 -0.004490 -0.004213 0.015190 0.000000 0.000157 0.000000
# 4 0.000000 0.000000 0.000000 0.034905 0.000000 -0.001093
# 5 0.001512 0.004565 0.000157 0.000000 0.031690 0.000000
# 6 0.000000 0.000000 0.000000 -0.001093 0.000000 0.041059
#
#
# Mechanical properties :
#
#
# Convention : Reuss Voigt Hill
#
# Bulk Modulus (GPa) = 38.71012 41.27533 39.99273
# Shear Modulus (GPa) = 26.37338 27.21846 26.79592
#
# Velocity S-wave (km/s) = 3.68866 3.74729 3.71809
# Velocity P-wave (km/s) = 6.17352 6.32590 6.25018
#
# Compressibility (1/GPa) = 0.02583304
#
# Stress axis : x y z
#
# Youngs Moduli (GPa) = 63.53525 53.62814 65.83200
#
# Poissons Ratio (x) = 0.16996 0.29556
# Poissons Ratio (y) = 0.20136 0.27733
# Poissons Ratio (z) = 0.28525 0.22592
#
# Static dielectric constant tensor:
#      x y z
#    x 1.794760 0.000000 -0.003040 
#    y 0.000000 1.735580 0.000000 
#    z -0.003040 0.000000 1.746470 
# 
# From -- ./inp_files/225172.got.cif
#   From: 2010.05.17/outbox.cif.g08.bks.cpg/sg15_113_cif.got.tgz:225172.got - 2010.06.03 18:47:42.
