data_PCOD9266282
_publ_section_title
;
Structure prediction by ZEFSAII (Michael W. Deem and Ramdas Pophale) SiO2 
 PCOD9266282
Probable space group: C 2/C
;
_chemical_formula_sum "Si O2"
_cell_formula_units_Z 48
_cell_length_a 12.134914
_cell_length_b 13.646543
_cell_length_c 12.635090
_cell_angle_alpha 90.000000
_cell_angle_beta 108.450103
_cell_angle_gamma 90.000000
_cell_volume 1984.817770
_symmetry_space_group_name_H-M "C 2/C"
_symmetry_group_IT_number 15
_symmetry_cell_setting 'monoclinic'
loop_
_space_group_symop_operation_xyz
x,y,z
-x,y,1/2-z
-x,-y,-z
x,-y,1/2+z
1/2+x,1/2+y,z
1/2-x,1/2+y,1/2-z
1/2-x,1/2-y,-z
1/2+x,1/2-y,1/2+z
loop_
_atom_site_type_symbol
_atom_site_label
_atom_site_fract_x
_atom_site_fract_y
_atom_site_fract_z
Si Si1 0.929466 0.422233 0.104224
Si Si2 0.891445 0.213690 0.168356
Si Si3 0.624911 0.448875 0.342459
Si Si4 0.859498 0.556528 0.339220
Si Si5 0.672570 0.726782 0.729630
Si Si6 0.672229 0.419969 0.042327
O O1 0.945645 0.309270 0.133634
O O2 0.802966 0.453113 0.111656
O O3 0.045900 0.478198 0.168637
O O4 0.903791 0.427552 0.972196
O O5 0.802290 0.249571 0.229360
O O6 0.000000 0.156612 0.250000
O O7 0.827447 0.157337 0.055031
O O8 0.500000 0.458237 0.250000
O O9 0.728483 0.511605 0.314050
O O10 0.660576 0.335168 0.333309
O O11 0.618388 0.486985 0.462628
O O12 0.874330 0.661875 0.286403
O O13 0.627423 0.648102 0.625744
#
# Coordination Sequence:
#
# PCOD9266282 Si02
#       6
#     8   8   8   8   8   8
#     4   9  17  33  59  92 123 147 200 269 301 358
#     4  11  18  32  60  98 118 154 206 261 305 360
#     4  11  24  40  57  90 128 166 203 260 308 372
#     4  10  19  37  62  91 116 162 211 253 309 361
#     4  11  21  39  64  88 124 168 206 255 317 359
#     4  10  20  39  62  94 122 159 210 262 301 362
#
# _framework density 24.183579000000002
#
# number of rings (size 3 to 8) (size 9 to 14) (size 15 to 20)
#    0.000    1.667    5.000    2.500    0.000    0.667 
#    0.000    4.167    0.000   10.000    0.000    0.000 
#    0.000    0.000    0.000    0.000    0.000    0.000 
#
# Total GULP energy -133780.708889 kJ/mol
# GULP energy per Si atom -5574.196204 kJ/mol
# Density = 2.412854 g / cm^3
# Si number density = 24.183579 Si / 1000 Ang^3
#
#
#
# Elastic Constant Matrix: (Units=GPa)
#
#
# Indices 1 2 3 4 5 6 
#
# 1 99.6729 60.4744 43.1787 0.0000 21.3304 0.0000
# 2 60.4744 161.4227 9.5694 0.0000 10.6606 0.0000
# 3 43.1787 9.5694 67.5917 0.0000 33.4454 0.0000
# 4 0.0000 0.0000 0.0000 29.3418 0.0000 -4.1037
# 5 21.3304 10.6606 33.4454 0.0000 41.4815 0.0000
# 6 0.0000 0.0000 0.0000 -4.1037 0.0000 31.3529
#
#
#
# Elastic Compliance Matrix: (Units=1/GPa)
#
#
# Indices 1 2 3 4 5 6 
#
# 1 0.018706 -0.006410 -0.011809 0.000000 0.001550 0.000000
# 2 -0.006410 0.008499 0.003896 0.000000 -0.002029 0.000000
# 3 -0.011809 0.003896 0.032074 0.000000 -0.020789 0.000000
# 4 0.000000 0.000000 0.000000 0.034717 0.000000 0.004544
# 5 0.001550 -0.002029 -0.020789 0.000000 0.040593 0.000000
# 6 0.000000 0.000000 0.000000 0.004544 0.000000 0.032490
#
#
# Mechanical properties :
#
#
# Convention : Reuss Voigt Hill
#
# Bulk Modulus (GPa) = 32.64573 61.68137 47.16355
# Shear Modulus (GPa) = 24.27927 34.79956 29.53941
#
# Velocity S-wave (km/s) = 3.17197 3.79750 3.49874
# Velocity P-wave (km/s) = 5.19072 6.69245 5.98884
#
# Compressibility (1/GPa) = 0.03063188
#
# Stress axis : x y z
#
# Youngs Moduli (GPa) = 53.45819 117.65432 31.17819
#
# Poissons Ratio (x) = 0.75419 0.36819
# Poissons Ratio (y) = 0.34268 -0.12146
# Poissons Ratio (z) = 0.63129 -0.45834
#
# Static dielectric constant tensor:
#      x y z
#    x 2.030750 0.000000 -0.031980 
#    y 0.000000 1.967740 0.000000 
#    z -0.031980 0.000000 1.998190 
# 
# From -- ./inp_files/143809.got.cif
#   From: 2010.05.17/outbox.cif.g08.bks.cpg/sg15_72_cif.got.tgz:143809.got - 2010.06.03 18:47:42.
