data_PCOD9266205
_publ_section_title
;
Structure prediction by ZEFSAII (Michael W. Deem and Ramdas Pophale) SiO2 
 PCOD9266205
Probable space group: C 2/C
;
_chemical_formula_sum "Si O2"
_cell_formula_units_Z 56
_cell_length_a 9.562619
_cell_length_b 31.965258
_cell_length_c 10.788703
_cell_angle_alpha 90.000000
_cell_angle_beta 125.885082
_cell_angle_gamma 90.000000
_cell_volume 2671.858659
_symmetry_space_group_name_H-M "C 2/C"
_symmetry_group_IT_number 15
_symmetry_cell_setting 'monoclinic'
loop_
_space_group_symop_operation_xyz
x,y,z
-x,y,1/2-z
-x,-y,-z
x,-y,1/2+z
1/2+x,1/2+y,z
1/2-x,1/2+y,1/2-z
1/2-x,1/2-y,-z
1/2+x,1/2-y,1/2+z
loop_
_atom_site_type_symbol
_atom_site_label
_atom_site_fract_x
_atom_site_fract_y
_atom_site_fract_z
Si Si1 0.790694 0.531209 0.649349
Si Si2 0.800294 0.792800 0.098120
Si Si3 0.980634 0.721355 0.594002
Si Si4 0.374783 0.313040 0.570064
Si Si5 0.743148 0.614455 0.952742
Si Si6 0.102626 0.110549 0.600778
Si Si7 0.668800 0.026136 0.551102
O O1 0.702603 0.575306 0.576636
O O2 0.735566 0.524640 0.765379
O O3 0.746504 0.496890 0.522718
O O4 0.000000 0.535272 0.750000
O O5 0.663181 0.791293 0.137159
O O6 0.745728 0.836568 0.001885
O O7 0.000000 0.793537 0.250000
O O8 0.750000 0.750000 0.000000
O O9 0.819085 0.692151 0.478141
O O10 0.927477 0.768806 0.535058
O O11 0.000000 0.720388 0.750000
O O12 0.500000 0.320788 0.750000
O O13 0.391621 0.348150 0.476978
O O14 0.687534 0.618402 0.779567
O O15 0.590177 0.597895 0.961066
O O16 0.870808 0.574419 0.009362
O O17 0.500000 0.000000 0.500000
#
# Coordination Sequence:
#
# PCOD9266205 Si02
#       7
#     8   8   8   8   8   8   8
#     4   9  19  36  62  90 124 162 219 268 333 408
#     4  12  26  43  67  98 136 181 235 286 344 418
#     4  10  23  39  67  90 125 185 228 281 352 406
#     4  10  22  39  62  93 136 164 227 293 342 402
#     4  10  21  39  64  89 127 174 221 273 334 413
#     4  10  19  37  61  89 125 172 214 267 335 410
#     4   9  19  38  62  91 124 169 213 279 336 413
#
# _framework density 20.95919
#
# number of rings (size 3 to 8) (size 9 to 14) (size 15 to 20)
#    0.000    2.000    1.429    1.714    6.000    4.571 
#    2.571    2.143    0.000    0.000    0.000    0.000 
#    0.000    0.000    0.000    0.000    0.000    0.000 
#
# Total GULP energy -155939.057810 kJ/mol
# GULP energy per Si atom -5569.252065 kJ/mol
# Density = 2.091149 g / cm^3
# Si number density = 20.959190 Si / 1000 Ang^3
#
#
#
# Elastic Constant Matrix: (Units=GPa)
#
#
# Indices 1 2 3 4 5 6 
#
# 1 105.0351 59.4910 32.5420 0.0000 5.9442 0.0000
# 2 59.4910 144.5987 44.8409 0.0000 -4.5786 0.0000
# 3 32.5420 44.8409 57.1902 0.0000 -1.0274 0.0000
# 4 0.0000 0.0000 0.0000 25.3869 0.0000 -12.6593
# 5 5.9442 -4.5786 -1.0274 0.0000 27.8988 0.0000
# 6 0.0000 0.0000 0.0000 -12.6593 0.0000 16.2213
#
#
#
# Elastic Compliance Matrix: (Units=1/GPa)
#
#
# Indices 1 2 3 4 5 6 
#
# 1 0.013544 -0.004334 -0.004376 0.000000 -0.003758 0.000000
# 2 -0.004334 0.010567 -0.005775 0.000000 0.002445 0.000000
# 3 -0.004376 -0.005775 0.024520 0.000000 0.000887 0.000000
# 4 0.000000 0.000000 0.000000 0.064485 0.000000 0.050325
# 5 -0.003758 0.002445 0.000887 0.000000 0.037078 0.000000
# 6 0.000000 0.000000 0.000000 0.050325 0.000000 0.100921
#
#
# Mechanical properties :
#
#
# Convention : Reuss Voigt Hill
#
# Bulk Modulus (GPa) = 50.86465 64.50797 57.68631
# Shear Modulus (GPa) = 17.44352 25.23142 21.33747
#
# Velocity S-wave (km/s) = 2.88802 3.47340 3.19415
# Velocity P-wave (km/s) = 5.95332 6.85060 6.41766
#
# Compressibility (1/GPa) = 0.01966002
#
# Stress axis : x y z
#
# Youngs Moduli (GPa) = 73.83379 94.63182 40.78381
#
# Poissons Ratio (x) = 0.41016 0.17846
# Poissons Ratio (y) = 0.32002 0.23554
# Poissons Ratio (z) = 0.32308 0.54652
#
# Static dielectric constant tensor:
#      x y z
#    x 1.768750 0.000000 -0.008390 
#    y 0.000000 1.868640 0.000000 
#    z -0.008390 0.000000 1.750350 
# 
# From -- ./inp_files/82682.got.cif
#   From: 2010.05.17/outbox.cif.g08.bks.cpg/sg15_42_cif.got.tgz:82682.got - 2010.06.03 18:47:42.
