data_PCOD9266745
_publ_section_title
;
Structure prediction by ZEFSAII (Michael W. Deem and Ramdas Pophale) SiO2 
 PCOD9266745
Probable space group: C 2/C
;
_chemical_formula_sum "Si O2"
_cell_formula_units_Z 40
_cell_length_a 12.763901
_cell_length_b 20.077956
_cell_length_c 9.695965
_cell_angle_alpha 90.000000
_cell_angle_beta 52.364659
_cell_angle_gamma 90.000000
_cell_volume 1967.757227
_symmetry_space_group_name_H-M "C 2/C"
_symmetry_group_IT_number 15
_symmetry_cell_setting 'monoclinic'
loop_
_space_group_symop_operation_xyz
x,y,z
-x,y,1/2-z
-x,-y,-z
x,-y,1/2+z
1/2+x,1/2+y,z
1/2-x,1/2+y,1/2-z
1/2-x,1/2-y,-z
1/2+x,1/2-y,1/2+z
loop_
_atom_site_type_symbol
_atom_site_label
_atom_site_fract_x
_atom_site_fract_y
_atom_site_fract_z
Si Si1 0.500000 0.373812 0.750000
Si Si2 0.143207 0.710483 0.993227
Si Si3 0.865318 0.252475 0.296802
Si Si4 0.000000 0.186637 0.750000
Si Si5 0.643456 0.475445 0.439381
Si Si6 0.259940 0.417578 0.420418
O O1 0.587876 0.323442 0.770819
O O2 0.599432 0.416499 0.577854
O O3 0.180248 0.712298 0.803962
O O4 0.136941 0.632992 0.037799
O O5 0.250000 0.750000 0.000000
O O6 0.017725 0.759380 0.112695
O O7 0.750000 0.250000 0.500000
O O8 0.000000 0.284202 0.250000
O O9 0.880189 0.135796 0.826217
O O10 0.500000 0.500000 0.500000
O O11 0.727535 0.453587 0.238085
O O12 0.714632 0.531001 0.476196
#
# Coordination Sequence:
#
# PCOD9266745 Si02
#       6
#     4   8   8   4   8   8
#     4  10  21  32  64  84 125 154 210 246 330 352
#     4  10  23  36  60  90 125 164 202 263 317 388
#     4  10  23  39  61  92 132 166 207 261 325 389
#     4  10  19  38  60  86 125 152 206 256 314 386
#     4  12  19  34  53  87 122 155 193 262 301 374
#     4  11  22  34  59  88 120 155 205 245 332 361
#
# _framework density 20.327711000000001
#
# number of rings (size 3 to 8) (size 9 to 14) (size 15 to 20)
#    0.600    0.800    4.000    2.400    8.400    0.000 
#    0.000    0.000    0.000    1.200    2.600    0.000 
#    0.000    0.000    0.000    0.000    0.000    0.000 
#
# Total GULP energy -111392.086944 kJ/mol
# GULP energy per Si atom -5569.604347 kJ/mol
# Density = 2.028144 g / cm^3
# Si number density = 20.327711 Si / 1000 Ang^3
#
#
#
# Elastic Constant Matrix: (Units=GPa)
#
#
# Indices 1 2 3 4 5 6 
#
# 1 56.2480 27.1905 30.1702 0.0000 14.0074 0.0000
# 2 27.1905 137.8525 45.7504 0.0000 19.2575 0.0000
# 3 30.1702 45.7504 103.7412 0.0000 17.8812 0.0000
# 4 0.0000 0.0000 0.0000 39.8001 0.0000 1.9778
# 5 14.0074 19.2575 17.8812 0.0000 32.7473 0.0000
# 6 0.0000 0.0000 0.0000 1.9778 0.0000 37.4048
#
#
#
# Elastic Compliance Matrix: (Units=1/GPa)
#
#
# Indices 1 2 3 4 5 6 
#
# 1 0.022787 -0.002113 -0.004669 0.000000 -0.005955 0.000000
# 2 -0.002113 0.009021 -0.002876 0.000000 -0.002831 0.000000
# 3 -0.004669 -0.002876 0.012838 0.000000 -0.003322 0.000000
# 4 0.000000 0.000000 0.000000 0.025192 0.000000 -0.001332
# 5 -0.005955 -0.002831 -0.003322 0.000000 0.036562 0.000000
# 6 0.000000 0.000000 0.000000 -0.001332 0.000000 0.026805
#
#
# Mechanical properties :
#
#
# Convention : Reuss Voigt Hill
#
# Bulk Modulus (GPa) = 39.47807 56.00711 47.74259
# Shear Modulus (GPa) = 31.06292 34.97249 33.01770
#
# Velocity S-wave (km/s) = 3.91334 4.15231 4.03460
# Velocity P-wave (km/s) = 6.31522 7.11343 6.72617
#
# Compressibility (1/GPa) = 0.02533052
#
# Stress axis : x y z
#
# Youngs Moduli (GPa) = 43.88455 110.85515 77.89451
#
# Poissons Ratio (x) = 0.23427 0.36366
# Poissons Ratio (y) = 0.09274 0.22400
# Poissons Ratio (z) = 0.20488 0.31879
#
# Static dielectric constant tensor:
#      x y z
#    x 1.857060 0.000000 -0.042290 
#    y 0.000000 1.774740 0.000000 
#    z -0.042290 0.000000 1.882760 
# 
# From -- ./inp_files/40173.got.cif
#   From: 2010.05.17/outbox.cif.g08.bks.cpg/sg15_21_cif.got.tgz:40173.got - 2010.06.03 18:47:42.
