data_PCOD9266149
_publ_section_title
;
Structure prediction by ZEFSAII (Michael W. Deem and Ramdas Pophale) SiO2 
 PCOD9266149
Probable space group: C 2/C
;
_chemical_formula_sum "Si O2"
_cell_formula_units_Z 48
_cell_length_a 17.047642
_cell_length_b 14.810627
_cell_length_c 14.065520
_cell_angle_alpha 90.000000
_cell_angle_beta 144.511792
_cell_angle_gamma 90.000000
_cell_volume 2061.684730
_symmetry_space_group_name_H-M "C 2/C"
_symmetry_group_IT_number 15
_symmetry_cell_setting 'monoclinic'
loop_
_space_group_symop_operation_xyz
x,y,z
-x,y,1/2-z
-x,-y,-z
x,-y,1/2+z
1/2+x,1/2+y,z
1/2-x,1/2+y,1/2-z
1/2-x,1/2-y,-z
1/2+x,1/2-y,1/2+z
loop_
_atom_site_type_symbol
_atom_site_label
_atom_site_fract_x
_atom_site_fract_y
_atom_site_fract_z
Si Si1 0.352514 0.626418 0.151244
Si Si2 0.555189 0.284480 0.097042
Si Si3 0.782867 0.933718 0.119778
Si Si4 0.962168 0.597629 0.001750
Si Si5 0.862826 0.190930 0.558971
Si Si6 0.265139 0.813701 0.151959
O O1 0.500000 0.626512 0.250000
O O2 0.326768 0.535131 0.183665
O O3 0.321669 0.715478 0.180898
O O4 0.249882 0.631610 0.960467
O O5 0.635370 0.360343 0.236901
O O6 0.402443 0.297491 0.988084
O O7 0.617464 0.302834 0.055090
O O8 0.572726 0.176079 0.129510
O O9 0.627904 0.917284 0.993127
O O10 0.823766 0.909998 0.052001
O O11 0.866128 0.639692 0.825051
O O12 0.000000 0.500000 0.000000
O O13 0.750000 0.250000 0.500000
O O14 0.000000 0.216784 0.750000
#
# Coordination Sequence:
#
# PCOD9266149 Si02
#       6
#     8   8   8   8   8   8
#     4  11  22  44  67  90 131 173 225 272 335 402
#     4  10  20  40  65  91 131 167 216 271 337 391
#     4  10  22  40  63  96 130 173 220 271 340 403
#     4  11  22  42  65  96 133 170 221 277 336 398
#     4  10  19  37  60  93 131 173 211 268 335 394
#     4  10  24  42  66  97 125 176 224 279 332 402
#
# _framework density 23.281929999999999
#
# number of rings (size 3 to 8) (size 9 to 14) (size 15 to 20)
#    0.000    1.667    1.667    3.500    0.000    1.333 
#    6.000   16.667    0.000    0.000    0.000    0.000 
#    0.000    0.000    0.000    0.000    0.000    0.000 
#
# Total GULP energy -133889.423269 kJ/mol
# GULP energy per Si atom -5578.725970 kJ/mol
# Density = 2.322894 g / cm^3
# Si number density = 23.281930 Si / 1000 Ang^3
#
#
#
# Elastic Constant Matrix: (Units=GPa)
#
#
# Indices 1 2 3 4 5 6 
#
# 1 104.5513 46.5527 20.2337 0.0000 10.0631 0.0000
# 2 46.5527 165.7166 34.3910 0.0000 -1.2818 0.0000
# 3 20.2337 34.3910 51.5707 0.0000 0.7581 0.0000
# 4 0.0000 0.0000 0.0000 22.3058 0.0000 0.7354
# 5 10.0631 -1.2818 0.7581 0.0000 27.6737 0.0000
# 6 0.0000 0.0000 0.0000 0.7354 0.0000 43.5333
#
#
#
# Elastic Compliance Matrix: (Units=1/GPa)
#
#
# Indices 1 2 3 4 5 6 
#
# 1 0.011736 -0.002771 -0.002693 0.000000 -0.004322 0.000000
# 2 -0.002771 0.007664 -0.004045 0.000000 0.001474 0.000000
# 3 -0.002693 -0.004045 0.023143 0.000000 0.000158 0.000000
# 4 0.000000 0.000000 0.000000 0.044856 0.000000 -0.000758
# 5 -0.004322 0.001474 0.000158 0.000000 0.037771 0.000000
# 6 0.000000 0.000000 0.000000 -0.000758 0.000000 0.022984
#
#
# Mechanical properties :
#
#
# Convention : Reuss Voigt Hill
#
# Bulk Modulus (GPa) = 42.51048 58.24373 50.37711
# Shear Modulus (GPa) = 28.56930 33.41331 30.99131
#
# Velocity S-wave (km/s) = 3.50680 3.79246 3.65243
# Velocity P-wave (km/s) = 5.89029 6.65192 6.28266
#
# Compressibility (1/GPa) = 0.02352361
#
# Stress axis : x y z
#
# Youngs Moduli (GPa) = 85.20920 130.48357 43.21035
#
# Poissons Ratio (x) = 0.36162 0.11636
# Poissons Ratio (y) = 0.23615 0.17479
# Poissons Ratio (z) = 0.22945 0.52782
#
# Static dielectric constant tensor:
#      x y z
#    x 1.928410 0.000000 -0.031830 
#    y 0.000000 1.886680 0.000000 
#    z -0.031830 0.000000 2.008800 
# 
# From -- ./inp_files/162365.got.cif
#   From: 2010.05.17/outbox.cif.g08.bks.cpg/sg15_82_cif.got.tgz:162365.got - 2010.06.03 18:47:42.
