data_PCOD9266068
_publ_section_title
;
Structure prediction by ZEFSAII (Michael W. Deem and Ramdas Pophale) SiO2 
 PCOD9266068
Probable space group: C 2/C
;
_chemical_formula_sum "Si O2"
_cell_formula_units_Z 40
_cell_length_a 23.570685
_cell_length_b 15.481900
_cell_length_c 9.480772
_cell_angle_alpha 90.000000
_cell_angle_beta 41.181533
_cell_angle_gamma 90.000000
_cell_volume 2278.037829
_symmetry_space_group_name_H-M "C 2/C"
_symmetry_group_IT_number 15
_symmetry_cell_setting 'monoclinic'
loop_
_space_group_symop_operation_xyz
x,y,z
-x,y,1/2-z
-x,-y,-z
x,-y,1/2+z
1/2+x,1/2+y,z
1/2-x,1/2+y,1/2-z
1/2-x,1/2-y,-z
1/2+x,1/2-y,1/2+z
loop_
_atom_site_type_symbol
_atom_site_label
_atom_site_fract_x
_atom_site_fract_y
_atom_site_fract_z
Si Si1 0.630072 0.413318 0.653669
Si Si2 0.699438 0.172117 0.678208
Si Si3 0.592630 0.217288 0.636832
Si Si4 0.905678 0.916699 0.449204
Si Si5 0.236366 0.219753 0.366376
O O1 0.734118 0.406385 0.448846
O O2 0.594982 0.320390 0.666899
O O3 0.595931 0.490946 0.623939
O O4 0.607774 0.425202 0.858705
O O5 0.750000 0.250000 0.500000
O O6 0.615464 0.166797 0.739154
O O7 0.692853 0.206260 0.848999
O O8 0.500000 0.194439 0.750000
O O9 0.670741 0.201355 0.380158
O O10 0.828694 0.860066 0.528066
O O11 0.000000 0.876123 0.250000
O O12 0.250000 0.250000 0.500000
#
# Coordination Sequence:
#
# PCOD9266068 Si02
#       5
#     8   8   8   8   8
#     4  10  21  36  51  82 113 145 172 222 280 328
#     4   8  16  38  53  69 108 140 180 220 261 318
#     4  10  19  37  60  75 106 148 185 220 276 320
#     4  12  23  34  53  82 119 140 176 222 277 332
#     4  10  21  34  53  82 108 144 185 223 263 323
#
# _framework density 17.558972000000001
#
# number of rings (size 3 to 8) (size 9 to 14) (size 15 to 20)
#    0.000    2.400    6.000    1.200    8.400    0.000 
#    0.000    0.000    0.000    1.200    0.000    1.400 
#    0.000    0.000    0.000    0.000    0.000    0.000 
#
# Total GULP energy -111404.690325 kJ/mol
# GULP energy per Si atom -5570.234516 kJ/mol
# Density = 1.751901 g / cm^3
# Si number density = 17.558972 Si / 1000 Ang^3
#
#
#
# Elastic Constant Matrix: (Units=GPa)
#
#
# Indices 1 2 3 4 5 6 
#
# 1 152.9177 25.5177 58.7010 0.0000 -10.0740 0.0000
# 2 25.5177 33.6304 33.1487 0.0000 0.5483 0.0000
# 3 58.7010 33.1487 62.3970 0.0000 4.9646 0.0000
# 4 0.0000 0.0000 0.0000 13.1352 0.0000 -2.7365
# 5 -10.0740 0.5483 4.9646 0.0000 38.3775 0.0000
# 6 0.0000 0.0000 0.0000 -2.7365 0.0000 11.1748
#
#
#
# Elastic Compliance Matrix: (Units=1/GPa)
#
#
# Indices 1 2 3 4 5 6 
#
# 1 0.011194 0.004560 -0.013319 0.000000 0.004596 0.000000
# 2 0.004560 0.064730 -0.039102 0.000000 0.005330 0.000000
# 3 -0.013319 -0.039102 0.050079 0.000000 -0.009416 0.000000
# 4 0.000000 0.000000 0.000000 0.080224 0.000000 0.019645
# 5 0.004596 0.005330 -0.009416 0.000000 0.028405 0.000000
# 6 0.000000 0.000000 0.000000 0.019645 0.000000 0.094298
#
#
# Mechanical properties :
#
#
# Convention : Reuss Voigt Hill
#
# Bulk Modulus (GPa) = 33.02462 53.74221 43.38342
# Shear Modulus (GPa) = 11.50093 21.30934 16.40513
#
# Velocity S-wave (km/s) = 2.56205 3.48744 3.05993
# Velocity P-wave (km/s) = 5.25365 6.84759 6.10288
#
# Compressibility (1/GPa) = 0.03028044
#
# Stress axis : x y z
#
# Youngs Moduli (GPa) = 89.33111 15.44874 19.96842
#
# Poissons Ratio (x) = -0.07044 0.26597
# Poissons Ratio (y) = -0.40732 0.78080
# Poissons Ratio (z) = 1.18983 0.60408
#
# Static dielectric constant tensor:
#      x y z
#    x 1.663550 0.000000 -0.024370 
#    y 0.000000 1.595990 0.000000 
#    z -0.024370 0.000000 1.618540 
# 
# From -- ./inp_files/61362.got.cif
#   From: 2010.05.17/outbox.cif.g08.bks.cpg/sg15_31_cif.got.tgz:61362.got - 2010.06.03 18:47:42.
