data_PCOD9266388
_publ_section_title
;
Structure prediction by ZEFSAII (Michael W. Deem and Ramdas Pophale) SiO2 
 PCOD9266388
Probable space group: C 2/C
;
_chemical_formula_sum "Si O2"
_cell_formula_units_Z 44
_cell_length_a 11.440484
_cell_length_b 21.250572
_cell_length_c 7.545686
_cell_angle_alpha 90.000000
_cell_angle_beta 87.323654
_cell_angle_gamma 90.000000
_cell_volume 1832.482267
_symmetry_space_group_name_H-M "C 2/C"
_symmetry_group_IT_number 15
_symmetry_cell_setting 'monoclinic'
loop_
_space_group_symop_operation_xyz
x,y,z
-x,y,1/2-z
-x,-y,-z
x,-y,1/2+z
1/2+x,1/2+y,z
1/2-x,1/2+y,1/2-z
1/2-x,1/2-y,-z
1/2+x,1/2-y,1/2+z
loop_
_atom_site_type_symbol
_atom_site_label
_atom_site_fract_x
_atom_site_fract_y
_atom_site_fract_z
Si Si1 0.200108 0.338077 0.357717
Si Si2 0.500000 0.256301 0.750000
Si Si3 0.555942 0.341354 0.053841
Si Si4 0.492992 0.073600 0.538835
Si Si5 0.617583 0.460910 0.829179
Si Si6 0.250806 0.579527 0.516648
O O1 0.313169 0.313076 0.449648
O O2 0.123038 0.385937 0.487021
O O3 0.256786 0.375764 0.186955
O O4 0.109446 0.288234 0.286092
O O5 0.518343 0.300803 0.579549
O O6 0.500000 0.339571 0.250000
O O7 0.575554 0.411789 0.980037
O O8 0.500000 0.079122 0.750000
O O9 0.618686 0.094016 0.458734
O O10 0.500000 0.000000 0.500000
O O11 0.500000 0.490130 0.750000
O O12 0.710196 0.511469 0.900069
O O13 0.673337 0.420507 0.665573
#
# Coordination Sequence:
#
# PCOD9266388 Si02
#       6
#     8   4   8   8   8   8
#     4  11  24  48  76 111 153 195 260 315 378 455
#     4  12  26  56  76 110 154 200 270 310 370 448
#     4  12  28  51  78 111 151 205 262 315 377 451
#     4  10  19  37  64 104 146 189 235 302 374 447
#     4  12  24  43  69 114 157 199 252 308 385 461
#     4  11  22  40  71 105 156 194 235 323 379 453
#
# _framework density 24.011146
#
# number of rings (size 3 to 8) (size 9 to 14) (size 15 to 20)
#    0.000    0.727    3.636    6.545    0.000    2.182 
#    3.273    0.909    0.000    0.000    0.000    0.000 
#    0.000    0.000    0.000    0.000    0.000    0.000 
#
# Total GULP energy -122896.700961 kJ/mol
# GULP energy per Si atom -5586.213680 kJ/mol
# Density = 2.395650 g / cm^3
# Si number density = 24.011146 Si / 1000 Ang^3
#
#
#
# Elastic Constant Matrix: (Units=GPa)
#
#
# Indices 1 2 3 4 5 6 
#
# 1 145.4296 33.6151 36.6768 0.0000 -8.4611 0.0000
# 2 33.6151 113.6546 62.4764 0.0000 1.1455 0.0000
# 3 36.6768 62.4764 135.5750 0.0000 -20.8703 0.0000
# 4 0.0000 0.0000 0.0000 32.0225 0.0000 20.0670
# 5 -8.4611 1.1455 -20.8703 0.0000 34.0828 0.0000
# 6 0.0000 0.0000 0.0000 20.0670 0.0000 18.8896
#
#
#
# Elastic Compliance Matrix: (Units=1/GPa)
#
#
# Indices 1 2 3 4 5 6 
#
# 1 0.007611 -0.001660 -0.001098 0.000000 0.001273 0.000000
# 2 -0.001660 0.012691 -0.006104 0.000000 -0.004576 0.000000
# 3 -0.001098 -0.006104 0.011566 0.000000 0.007015 0.000000
# 4 0.000000 0.000000 0.000000 0.093416 0.000000 -0.099239
# 5 0.001273 -0.004576 0.007015 0.000000 0.034105 0.000000
# 6 0.000000 0.000000 0.000000 -0.099239 0.000000 0.158363
#
#
# Mechanical properties :
#
#
# Convention : Reuss Voigt Hill
#
# Bulk Modulus (GPa) = 70.70280 73.35508 72.02894
# Shear Modulus (GPa) = 14.69766 34.45839 24.57803
#
# Velocity S-wave (km/s) = 2.47679 3.79238 3.20286
# Velocity P-wave (km/s) = 6.13914 7.05641 6.61370
#
# Compressibility (1/GPa) = 0.01414371
#
# Stress axis : x y z
#
# Youngs Moduli (GPa) = 131.39054 78.79616 86.46396
#
# Poissons Ratio (x) = 0.13083 0.09493
# Poissons Ratio (y) = 0.21816 0.52774
# Poissons Ratio (z) = 0.14425 0.48094
#
# Static dielectric constant tensor:
#      x y z
#    x 1.955520 0.000000 0.023710 
#    y 0.000000 2.036160 0.000000 
#    z 0.023710 0.000000 1.875240 
# 
# From -- ./inp_files/30869.got.cif
#   From: 2010.05.17/outbox.cif.g08.bks.cpg/sg15_16_cif.got.tgz:30869.got - 2010.06.03 18:47:42.
