data_PCOD9266478
_publ_section_title
;
Structure prediction by ZEFSAII (Michael W. Deem and Ramdas Pophale) SiO2 
 PCOD9266478
Probable space group: C 2/C
;
_chemical_formula_sum "Si O2"
_cell_formula_units_Z 60
_cell_length_a 19.743005
_cell_length_b 11.374539
_cell_length_c 17.641824
_cell_angle_alpha 90.000000
_cell_angle_beta 53.249931
_cell_angle_gamma 90.000000
_cell_volume 3174.389860
_symmetry_space_group_name_H-M "C 2/C"
_symmetry_group_IT_number 15
_symmetry_cell_setting 'monoclinic'
loop_
_space_group_symop_operation_xyz
x,y,z
-x,y,1/2-z
-x,-y,-z
x,-y,1/2+z
1/2+x,1/2+y,z
1/2-x,1/2+y,1/2-z
1/2-x,1/2-y,-z
1/2+x,1/2-y,1/2+z
loop_
_atom_site_type_symbol
_atom_site_label
_atom_site_fract_x
_atom_site_fract_y
_atom_site_fract_z
Si Si1 0.603384 0.453444 0.595248
Si Si2 0.045550 0.377651 0.453908
Si Si3 0.306573 0.984634 0.702505
Si Si4 0.789683 0.169251 0.353507
Si Si5 0.178548 0.114014 0.894288
Si Si6 0.972824 0.739655 0.690352
Si Si7 0.931093 0.733923 0.146805
Si Si8 0.500000 0.650995 0.750000
O O1 0.681204 0.399068 0.590994
O O2 0.629476 0.460845 0.490193
O O3 0.528550 0.357256 0.649818
O O4 0.567022 0.567982 0.660831
O O5 0.142455 0.411237 0.374066
O O6 0.011498 0.328451 0.397214
O O7 0.000000 0.500000 0.500000
O O8 0.016042 0.294369 0.541694
O O9 0.245749 0.922163 0.683426
O O10 0.372698 0.883660 0.684863
O O11 0.252415 0.038676 0.806451
O O12 0.720108 0.271677 0.407371
O O13 0.874967 0.227562 0.263703
O O14 0.119205 0.166743 0.867557
O O15 0.000000 0.675713 0.750000
O O16 0.953637 0.774633 0.215828
#
# Coordination Sequence:
#
# PCOD9266478 Si02
#       8
#     8   8   8   8   8   8   8   4
#     4  11  22  38  62  89 118 160 207 253 302 358
#     4  10  20  42  62  89 121 165 206 245 307 373
#     4  10  22  40  60  90 123 159 196 248 320 363
#     4  10  20  38  58  90 124 148 197 260 298 349
#     4  11  21  37  64  89 120 155 203 257 309 359
#     4  10  19  37  65  91 118 154 210 255 294 358
#     4  10  24  42  63  85 125 164 207 251 300 374
#     4  12  24  44  58  86 126 162 212 254 294 364
#
# _framework density 18.90127
#
# number of rings (size 3 to 8) (size 9 to 14) (size 15 to 20)
#    0.000    1.600    4.667    1.200    0.000    1.600 
#    7.200    0.667    0.000    0.000    0.000    0.000 
#    0.000    0.000    0.000    0.000    0.000    0.000 
#
# Total GULP energy -167399.088773 kJ/mol
# GULP energy per Si atom -5579.969626 kJ/mol
# Density = 1.885825 g / cm^3
# Si number density = 18.901270 Si / 1000 Ang^3
#
#
#
# Elastic Constant Matrix: (Units=GPa)
#
#
# Indices 1 2 3 4 5 6 
#
# 1 98.2305 35.7141 40.9780 0.0000 17.9108 0.0000
# 2 35.7141 62.4952 46.5743 0.0000 14.7384 0.0000
# 3 40.9780 46.5743 129.6961 0.0000 0.4370 0.0000
# 4 0.0000 0.0000 0.0000 34.1745 0.0000 8.4478
# 5 17.9108 14.7384 0.4370 0.0000 25.5265 0.0000
# 6 0.0000 0.0000 0.0000 8.4478 0.0000 36.3648
#
#
#
# Elastic Compliance Matrix: (Units=1/GPa)
#
#
# Indices 1 2 3 4 5 6 
#
# 1 0.014334 -0.004152 -0.003012 0.000000 -0.007608 0.000000
# 2 -0.004152 0.027912 -0.008667 0.000000 -0.013054 0.000000
# 3 -0.003012 -0.008667 0.011751 0.000000 0.006917 0.000000
# 4 0.000000 0.000000 0.000000 0.031044 0.000000 -0.007212
# 5 -0.007608 -0.013054 0.006917 0.000000 0.051932 0.000000
# 6 0.000000 0.000000 0.000000 -0.007212 0.000000 0.029174
#
#
# Mechanical properties :
#
#
# Convention : Reuss Voigt Hill
#
# Bulk Modulus (GPa) = 44.77595 59.66162 52.21878
# Shear Modulus (GPa) = 24.35995 30.35687 27.35841
#
# Velocity S-wave (km/s) = 3.59388 4.01194 3.80865
# Velocity P-wave (km/s) = 6.40016 7.28658 6.85771
#
# Compressibility (1/GPa) = 0.02233342
#
# Stress axis : x y z
#
# Youngs Moduli (GPa) = 69.76650 35.82701 85.09791
#
# Poissons Ratio (x) = 0.14876 0.25632
# Poissons Ratio (y) = 0.28968 0.73757
# Poissons Ratio (z) = 0.21014 0.31053
#
# Static dielectric constant tensor:
#      x y z
#    x 1.657600 0.000000 -0.013610 
#    y 0.000000 1.660730 0.000000 
#    z -0.013610 0.000000 1.668090 
# 
# From -- ./inp_files/161325.got.cif
#   From: 2010.05.17/outbox.cif.g08.bks.cpg/sg15_81_cif.got.tgz:161325.got - 2010.06.03 18:47:42.
