data_PCOD9266320
_publ_section_title
;
Structure prediction by ZEFSAII (Michael W. Deem and Ramdas Pophale) SiO2 
 PCOD9266320
Probable space group: C 2/C
;
_chemical_formula_sum "Si O2"
_cell_formula_units_Z 52
_cell_length_a 10.173658
_cell_length_b 14.826329
_cell_length_c 19.612944
_cell_angle_alpha 90.000000
_cell_angle_beta 136.676393
_cell_angle_gamma 90.000000
_cell_volume 2029.796337
_symmetry_space_group_name_H-M "C 2/C"
_symmetry_group_IT_number 15
_symmetry_cell_setting 'monoclinic'
loop_
_space_group_symop_operation_xyz
x,y,z
-x,y,1/2-z
-x,-y,-z
x,-y,1/2+z
1/2+x,1/2+y,z
1/2-x,1/2+y,1/2-z
1/2-x,1/2-y,-z
1/2+x,1/2-y,1/2+z
loop_
_atom_site_type_symbol
_atom_site_label
_atom_site_fract_x
_atom_site_fract_y
_atom_site_fract_z
Si Si1 0.773032 0.494940 0.491364
Si Si2 0.500000 0.179491 0.250000
Si Si3 0.722390 0.125581 0.897332
Si Si4 0.733895 0.104677 0.749502
Si Si5 0.823723 0.680558 0.425573
Si Si6 0.821994 0.584507 0.298511
Si Si7 0.237842 0.176259 0.891108
O O1 0.681214 0.546298 0.521494
O O2 0.809034 0.583665 0.457899
O O3 0.685962 0.413603 0.413575
O O4 0.973306 0.449172 0.592867
O O5 0.349444 0.119157 0.232804
O O6 0.400267 0.239002 0.153825
O O7 0.805305 0.126796 0.851981
O O8 0.495941 0.104165 0.821461
O O9 0.732050 0.230371 0.922165
O O10 0.764549 0.160180 0.691893
O O11 0.799788 0.005137 0.752510
O O12 0.745085 0.660019 0.320244
O O13 0.048534 0.702067 0.508769
#
# Coordination Sequence:
#
# PCOD9266320 Si02
#       7
#     8   4   8   8   8   8   8
#     4  10  19  37  63  85 114 160 189 235 293 369
#     4  12  26  38  58  90 116 154 206 256 274 344
#     4  10  20  31  62  98 116 140 204 248 282 344
#     4  10  19  39  61  88 118 159 192 243 295 350
#     4  11  19  36  63  92 115 154 197 242 294 358
#     4  10  19  38  61  81 114 164 200 226 293 363
#     4  11  22  40  59  82 122 159 198 236 300 346
#
# _framework density 25.618334999999998
#
# number of rings (size 3 to 8) (size 9 to 14) (size 15 to 20)
#    0.000    1.538    4.615    4.154    0.000    2.462 
#    0.000    3.077    0.000    8.308    0.000    0.000 
#    0.000    0.000    0.000    0.000    0.000    0.000 
#
# Total GULP energy -145182.959573 kJ/mol
# GULP energy per Si atom -5583.959984 kJ/mol
# Density = 2.556003 g / cm^3
# Si number density = 25.618335 Si / 1000 Ang^3
#
#
#
# Elastic Constant Matrix: (Units=GPa)
#
#
# Indices 1 2 3 4 5 6 
#
# 1 60.4636 9.4211 24.3474 0.0000 -20.6557 0.0000
# 2 9.4211 46.2987 21.4176 0.0000 -18.2605 0.0000
# 3 24.3474 21.4176 57.2041 0.0000 -27.6503 0.0000
# 4 0.0000 0.0000 0.0000 14.3900 0.0000 -27.9991
# 5 -20.6557 -18.2605 -27.6503 0.0000 41.0299 0.0000
# 6 0.0000 0.0000 0.0000 -27.9991 0.0000 7.2354
#
#
#
# Elastic Compliance Matrix: (Units=1/GPa)
#
#
# Indices 1 2 3 4 5 6 
#
# 1 0.021228 0.001317 -0.006050 0.000000 0.007196 0.000000
# 2 0.001317 0.027845 -0.006934 0.000000 0.008383 0.000000
# 3 -0.006050 -0.006934 0.029200 0.000000 0.013546 0.000000
# 4 0.000000 0.000000 0.000000 -0.010643 0.000000 -0.041185
# 5 0.007196 0.008383 0.013546 0.000000 0.040855 0.000000
# 6 0.000000 0.000000 0.000000 -0.041185 0.000000 -0.021167
#
#
# Mechanical properties :
#
#
# Convention : Reuss Voigt Hill
#
# Bulk Modulus (GPa) = 18.20192 30.48207 24.34199
# Shear Modulus (GPa) = 38.77021 19.78308 29.27665
#
# Velocity S-wave (km/s) = 3.89444 2.78191 3.38420
# Velocity P-wave (km/s) = 5.22902 4.71625 4.97924
#
# Compressibility (1/GPa) = 0.05493927
#
# Stress axis : x y z
#
# Youngs Moduli (GPa) = 47.10718 35.91351 34.24618
#
# Poissons Ratio (x) = -0.04731 0.20720
# Poissons Ratio (y) = -0.06205 0.23747
# Poissons Ratio (z) = 0.28501 0.24903
#
# Static dielectric constant tensor:
#      x y z
#    x 2.023710 0.000000 -0.009050 
#    y 0.000000 1.996770 0.000000 
#    z -0.009050 0.000000 2.111070 
# 
# From -- ./inp_files/238843.got.cif
#   From: 2010.05.17/outbox.cif.g08.bks.cpg/sg15_120_cif.got.tgz:238843.got - 2010.06.03 18:47:42.
