data_PCOD9266281
_publ_section_title
;
Structure prediction by ZEFSAII (Michael W. Deem and Ramdas Pophale) SiO2 
 PCOD9266281
Probable space group: C 2/C
;
_chemical_formula_sum "Si O2"
_cell_formula_units_Z 52
_cell_length_a 12.704009
_cell_length_b 9.216340
_cell_length_c 23.770197
_cell_angle_alpha 90.000000
_cell_angle_beta 134.743216
_cell_angle_gamma 90.000000
_cell_volume 1976.763692
_symmetry_space_group_name_H-M "C 2/C"
_symmetry_group_IT_number 15
_symmetry_cell_setting 'monoclinic'
loop_
_space_group_symop_operation_xyz
x,y,z
-x,y,1/2-z
-x,-y,-z
x,-y,1/2+z
1/2+x,1/2+y,z
1/2-x,1/2+y,1/2-z
1/2-x,1/2-y,-z
1/2+x,1/2-y,1/2+z
loop_
_atom_site_type_symbol
_atom_site_label
_atom_site_fract_x
_atom_site_fract_y
_atom_site_fract_z
Si Si1 0.896704 0.959066 0.294155
Si Si2 0.378075 0.647425 0.074262
Si Si3 0.165255 0.386910 0.990686
Si Si4 0.083151 0.221792 0.060161
Si Si5 0.606593 0.872986 0.694622
Si Si6 0.810654 0.917957 0.391036
Si Si7 0.500000 0.908134 0.250000
O O1 0.892898 0.788084 0.275373
O O2 0.760622 0.064532 0.228026
O O3 0.878211 0.926695 0.354255
O O4 0.041444 0.061091 0.342734
O O5 0.524893 0.725078 0.102017
O O6 0.250000 0.750000 0.000000
O O7 0.282669 0.507657 0.020241
O O8 0.012729 0.388412 0.899637
O O9 0.250000 0.250000 0.000000
O O10 0.134439 0.361847 0.045650
O O11 0.198914 0.089006 0.097207
O O12 0.933852 0.161749 0.973817
O O13 0.562876 0.990368 0.724865
O O14 0.651092 0.840459 0.332328
#
# Coordination Sequence:
#
# PCOD9266281 Si02
#       7
#     8   8   8   8   8   8   4
#     4  10  22  40  60  86 127 159 205 259 313 384
#     4  11  25  41  60  96 130 166 215 271 324 388
#     4  12  21  39  71  93 119 163 221 269 318 390
#     4  10  19  37  62  90 124 160 208 270 318 376
#     4  11  22  39  61  90 121 166 208 254 326 382
#     4   9  17  35  58  90 116 150 208 263 309 367
#     4  10  20  32  60  86 120 166 202 256 318 388
#
# _framework density 26.305622
#
# number of rings (size 3 to 8) (size 9 to 14) (size 15 to 20)
#    0.000    1.538    3.077    3.692    2.154    0.615 
#    0.000    1.538    0.000    0.000    0.000    0.000 
#    0.000    0.000    0.000    0.000    0.000    0.000 
#
# Total GULP energy -144761.123146 kJ/mol
# GULP energy per Si atom -5567.735506 kJ/mol
# Density = 2.624575 g / cm^3
# Si number density = 26.305622 Si / 1000 Ang^3
#
#
#
# Elastic Constant Matrix: (Units=GPa)
#
#
# Indices 1 2 3 4 5 6 
#
# 1 51.4458 25.3424 -6.6724 0.0000 16.0172 0.0000
# 2 25.3424 82.9346 8.3277 0.0000 18.5471 0.0000
# 3 -6.6724 8.3277 118.5152 0.0000 49.4680 0.0000
# 4 0.0000 0.0000 0.0000 26.5685 0.0000 18.4195
# 5 16.0172 18.5471 49.4680 0.0000 38.4546 0.0000
# 6 0.0000 0.0000 0.0000 18.4195 0.0000 -6.1977
#
#
#
# Elastic Compliance Matrix: (Units=1/GPa)
#
#
# Indices 1 2 3 4 5 6 
#
# 1 0.033547 -0.004771 0.015324 0.000000 -0.031384 0.000000
# 2 -0.004771 0.015048 0.001887 0.000000 -0.007698 0.000000
# 3 0.015324 0.001887 0.026372 0.000000 -0.041218 0.000000
# 4 0.000000 0.000000 0.000000 0.012298 0.000000 0.036551
# 5 -0.031384 -0.007698 -0.041218 0.000000 0.095813 0.000000
# 6 0.000000 0.000000 0.000000 0.036551 0.000000 -0.052721
#
#
# Mechanical properties :
#
#
# Convention : Reuss Voigt Hill
#
# Bulk Modulus (GPa) = 10.01539 34.09900 22.05719
# Shear Modulus (GPa) = 36.03373 26.82494 31.42934
#
# Velocity S-wave (km/s) = 3.70511 3.19680 3.46030
# Velocity P-wave (km/s) = 4.70312 5.15915 4.93641
#
# Compressibility (1/GPa) = 0.09984633
#
# Stress axis : x y z
#
# Youngs Moduli (GPa) = 29.80908 66.45558 37.91875
#
# Poissons Ratio (x) = 0.31706 -0.58105
# Poissons Ratio (y) = 0.14222 -0.07156
# Poissons Ratio (z) = -0.45678 -0.12542
#
# Static dielectric constant tensor:
#      x y z
#    x 2.312800 0.000000 -0.129500 
#    y 0.000000 2.015890 0.000000 
#    z -0.129500 0.000000 2.289640 
# 
# From -- ./inp_files/313194.got.cif
#   From: 2010.05.17/outbox.cif.g08.bks.cpg/sg15_157_cif.got.tgz:313194.got - 2010.06.03 18:47:42.
