data_PCOD9266644
_publ_section_title
;
Structure prediction by ZEFSAII (Michael W. Deem and Ramdas Pophale) SiO2 
 PCOD9266644
Probable space group: C 2/C
;
_chemical_formula_sum "Si O2"
_cell_formula_units_Z 52
_cell_length_a 20.732714
_cell_length_b 13.502418
_cell_length_c 12.464643
_cell_angle_alpha 90.000000
_cell_angle_beta 144.444471
_cell_angle_gamma 90.000000
_cell_volume 2029.042134
_symmetry_space_group_name_H-M "C 2/C"
_symmetry_group_IT_number 15
_symmetry_cell_setting 'monoclinic'
loop_
_space_group_symop_operation_xyz
x,y,z
-x,y,1/2-z
-x,-y,-z
x,-y,1/2+z
1/2+x,1/2+y,z
1/2-x,1/2+y,1/2-z
1/2-x,1/2-y,-z
1/2+x,1/2-y,1/2+z
loop_
_atom_site_type_symbol
_atom_site_label
_atom_site_fract_x
_atom_site_fract_y
_atom_site_fract_z
Si Si1 0.362547 0.913191 0.417892
Si Si2 0.979049 0.878370 0.336956
Si Si3 0.616040 0.122345 0.958722
Si Si4 0.756151 0.883635 0.452236
Si Si5 0.441539 0.201801 0.406534
Si Si6 0.500000 0.435239 0.750000
Si Si7 0.218347 0.609298 0.463386
O O1 0.283397 0.864046 0.222062
O O2 0.482968 0.889453 0.532222
O O3 0.348604 0.871156 0.518369
O O4 0.338535 0.029184 0.410477
O O5 0.008698 0.800773 0.466934
O O6 0.031370 0.986624 0.389451
O O7 0.847612 0.890471 0.167524
O O8 0.000000 0.828531 0.250000
O O9 0.500000 0.087423 0.750000
O O10 0.697151 0.162971 0.976727
O O11 0.582165 0.201614 0.001050
O O12 0.709040 0.997047 0.406638
O O13 0.888753 0.882173 0.634281
O O14 0.327180 0.184503 0.187011
#
# Coordination Sequence:
#
# PCOD9266644 Si02
#       7
#     8   8   8   8   8   4   8
#     4  11  20  33  57  86 122 153 197 254 310 366
#     4   9  20  37  56  85 117 156 207 249 290 359
#     4  11  21  33  54  90 127 153 195 250 315 373
#     4  10  19  38  57  88 122 159 204 251 311 357
#     4  12  20  33  56  89 124 158 188 255 312 365
#     4   8  20  40  62  84 122 158 218 252 284 360
#     4  10  20  34  55  88 118 152 202 250 307 353
#
# _framework density 25.627856000000001
#
# number of rings (size 3 to 8) (size 9 to 14) (size 15 to 20)
#    0.462    1.231    3.077    4.154    0.000    0.000 
#    0.000    8.462    0.000    0.923   10.000    0.000 
#    0.000    0.000    0.000    0.000    0.000    0.000 
#
# Total GULP energy -145294.533628 kJ/mol
# GULP energy per Si atom -5588.251293 kJ/mol
# Density = 2.556953 g / cm^3
# Si number density = 25.627856 Si / 1000 Ang^3
#
#
#
# Elastic Constant Matrix: (Units=GPa)
#
#
# Indices 1 2 3 4 5 6 
#
# 1 167.3589 28.2363 54.8649 0.0000 5.0458 0.0000
# 2 28.2363 53.6373 -2.4513 0.0000 -3.2159 0.0000
# 3 54.8649 -2.4513 67.9974 0.0000 -11.1035 0.0000
# 4 0.0000 0.0000 0.0000 9.0828 0.0000 7.7416
# 5 5.0458 -3.2159 -11.1035 0.0000 42.3328 0.0000
# 6 0.0000 0.0000 0.0000 7.7416 0.0000 27.9554
#
#
#
# Elastic Compliance Matrix: (Units=1/GPa)
#
#
# Indices 1 2 3 4 5 6 
#
# 1 0.010035 -0.005932 -0.008964 0.000000 -0.003998 0.000000
# 2 -0.005932 0.022294 0.006250 0.000000 0.004040 0.000000
# 3 -0.008964 0.006250 0.023419 0.000000 0.007686 0.000000
# 4 0.000000 0.000000 0.000000 0.144114 0.000000 -0.039909
# 5 -0.003998 0.004040 0.007686 0.000000 0.026422 0.000000
# 6 0.000000 0.000000 0.000000 -0.039909 0.000000 0.046823
#
#
# Mechanical properties :
#
#
# Convention : Reuss Voigt Hill
#
# Bulk Modulus (GPa) = 26.00311 50.03258 38.01785
# Shear Modulus (GPa) = 16.48975 29.76379 23.12677
#
# Velocity S-wave (km/s) = 2.53935 3.41161 3.00727
# Velocity P-wave (km/s) = 4.33199 5.92316 5.18893
#
# Compressibility (1/GPa) = 0.03845693
#
# Stress axis : x y z
#
# Youngs Moduli (GPa) = 99.65018 44.85424 42.69988
#
# Poissons Ratio (x) = 0.26608 0.38275
# Poissons Ratio (y) = 0.59114 -0.26687
# Poissons Ratio (z) = 0.89323 -0.28033
#
# Static dielectric constant tensor:
#      x y z
#    x 2.059750 0.000000 0.078640 
#    y 0.000000 2.174590 0.000000 
#    z 0.078640 0.000000 2.150410 
# 
# From -- ./inp_files/113719.got.cif
#   From: 2010.05.17/outbox.cif.g08.bks.cpg/sg15_57_cif.got.tgz:113719.got - 2010.06.03 18:47:42.
