data_PCOD9266901
_publ_section_title
;
Structure prediction by ZEFSAII (Michael W. Deem and Ramdas Pophale) SiO2 
 PCOD9266901
Probable space group: C 2/C
;
_chemical_formula_sum "Si O2"
_cell_formula_units_Z 56
_cell_length_a 11.984377
_cell_length_b 15.986492
_cell_length_c 14.718364
_cell_angle_alpha 90.000000
_cell_angle_beta 91.830659
_cell_angle_gamma 90.000000
_cell_volume 2818.424854
_symmetry_space_group_name_H-M "C 2/C"
_symmetry_group_IT_number 15
_symmetry_cell_setting 'monoclinic'
loop_
_space_group_symop_operation_xyz
x,y,z
-x,y,1/2-z
-x,-y,-z
x,-y,1/2+z
1/2+x,1/2+y,z
1/2-x,1/2+y,1/2-z
1/2-x,1/2-y,-z
1/2+x,1/2-y,1/2+z
loop_
_atom_site_type_symbol
_atom_site_label
_atom_site_fract_x
_atom_site_fract_y
_atom_site_fract_z
Si Si1 0.435931 0.218489 0.158022
Si Si2 0.284142 0.821521 0.360661
Si Si3 0.332273 0.004141 0.428351
Si Si4 0.193845 0.156787 0.497529
Si Si5 0.004690 0.734828 0.961300
Si Si6 0.330098 0.866850 0.164589
Si Si7 0.577435 0.035172 0.367212
O O1 0.500000 0.246000 0.250000
O O2 0.335128 0.279407 0.131956
O O3 0.392782 0.124473 0.172692
O O4 0.508192 0.211006 0.067744
O O5 0.280248 0.919612 0.386176
O O6 0.379115 0.775464 0.422469
O O7 0.317582 0.815256 0.255576
O O8 0.370986 0.976948 0.530905
O O9 0.254541 0.085936 0.439048
O O10 0.444974 0.026627 0.377499
O O11 0.250000 0.250000 0.500000
O O12 0.216733 0.129590 0.602320
O O13 0.068692 0.176407 0.461247
O O14 0.075760 0.671664 0.899927
O O15 0.372719 0.958995 0.187871
#
# Coordination Sequence:
#
# PCOD9266901 Si02
#       7
#     8   8   8   8   8   8   8
#     4  12  26  40  64  95 131 169 217 274 326 377
#     4  12  24  40  65  95 133 166 214 271 327 377
#     4  10  20  37  67  92 124 163 209 264 319 376
#     4   9  19  37  63  93 125 165 210 258 317 378
#     4  11  21  41  65  90 128 169 212 259 321 389
#     4  10  21  39  64  94 129 168 208 265 330 382
#     4  10  19  38  62  95 118 159 214 268 312 375
#
# _framework density 19.869254000000002
#
# number of rings (size 3 to 8) (size 9 to 14) (size 15 to 20)
#    0.000    1.429    2.857    4.286    2.000    1.143 
#    0.000    0.714    3.143    0.000    0.000    0.000 
#    0.000    0.000    0.000    0.000    0.000    0.000 
#
# Total GULP energy -156268.403400 kJ/mol
# GULP energy per Si atom -5581.014407 kJ/mol
# Density = 1.982403 g / cm^3
# Si number density = 19.869254 Si / 1000 Ang^3
#
#
#
# Elastic Constant Matrix: (Units=GPa)
#
#
# Indices 1 2 3 4 5 6 
#
# 1 59.1503 67.5793 18.2593 0.0000 12.4472 0.0000
# 2 67.5793 119.3159 22.7372 0.0000 12.1584 0.0000
# 3 18.2593 22.7372 91.1615 0.0000 -2.4213 0.0000
# 4 0.0000 0.0000 0.0000 23.1213 0.0000 0.8611
# 5 12.4472 12.1584 -2.4213 0.0000 21.4302 0.0000
# 6 0.0000 0.0000 0.0000 0.8611 0.0000 39.8075
#
#
#
# Elastic Compliance Matrix: (Units=1/GPa)
#
#
# Indices 1 2 3 4 5 6 
#
# 1 0.053132 -0.027713 -0.004144 0.000000 -0.015605 0.000000
# 2 -0.027713 0.023887 -0.000340 0.000000 0.002506 0.000000
# 3 -0.004144 -0.000340 0.011990 0.000000 0.003955 0.000000
# 4 0.000000 0.000000 0.000000 0.043285 0.000000 -0.000936
# 5 -0.015605 0.002506 0.003955 0.000000 0.054752 0.000000
# 6 0.000000 0.000000 0.000000 -0.000936 0.000000 0.025141
#
#
# Mechanical properties :
#
#
# Convention : Reuss Voigt Hill
#
# Bulk Modulus (GPa) = 40.63020 54.08658 47.35839
# Shear Modulus (GPa) = 17.55695 27.60860 22.58277
#
# Velocity S-wave (km/s) = 2.97581 3.73166 3.37496
# Velocity P-wave (km/s) = 5.68334 6.77107 6.25091
#
# Compressibility (1/GPa) = 0.02461224
#
# Stress axis : x y z
#
# Youngs Moduli (GPa) = 18.82113 41.86345 83.40547
#
# Poissons Ratio (x) = 1.16017 0.34567
# Poissons Ratio (y) = 0.52160 0.02839
# Poissons Ratio (z) = 0.07800 0.01425
#
# Static dielectric constant tensor:
#      x y z
#    x 1.738820 0.000000 0.010400 
#    y 0.000000 1.720740 0.000000 
#    z 0.010400 0.000000 1.754570 
# 
# From -- ./inp_files/144270.got.cif
#   From: 2010.05.17/outbox.cif.g08.bks.cpg/sg15_73_cif.got.tgz:144270.got - 2010.06.03 18:47:42.
