data_PCOD9266714
_publ_section_title
;
Structure prediction by ZEFSAII (Michael W. Deem and Ramdas Pophale) SiO2 
 PCOD9266714
Probable space group: C 2/C
;
_chemical_formula_sum "Si O2"
_cell_formula_units_Z 60
_cell_length_a 19.332880
_cell_length_b 19.126257
_cell_length_c 8.761988
_cell_angle_alpha 90.000000
_cell_angle_beta 67.422830
_cell_angle_gamma 90.000000
_cell_volume 2991.588060
_symmetry_space_group_name_H-M "C 2/C"
_symmetry_group_IT_number 15
_symmetry_cell_setting 'monoclinic'
loop_
_space_group_symop_operation_xyz
x,y,z
-x,y,1/2-z
-x,-y,-z
x,-y,1/2+z
1/2+x,1/2+y,z
1/2-x,1/2+y,1/2-z
1/2-x,1/2-y,-z
1/2+x,1/2-y,1/2+z
loop_
_atom_site_type_symbol
_atom_site_label
_atom_site_fract_x
_atom_site_fract_y
_atom_site_fract_z
Si Si1 0.333633 0.545777 0.450081
Si Si2 0.203771 0.348054 0.503653
Si Si3 0.897996 0.449460 0.085542
Si Si4 0.457509 0.342118 0.933053
Si Si5 0.761841 0.464672 0.771034
Si Si6 0.638123 0.288876 0.206055
Si Si7 0.435669 0.589699 0.921603
Si Si8 0.000000 0.485763 0.250000
O O1 0.390166 0.608093 0.433841
O O2 0.265000 0.536274 0.624465
O O3 0.297023 0.550033 0.314142
O O4 0.377765 0.473650 0.452607
O O5 0.150436 0.385488 0.429782
O O6 0.229909 0.404138 0.609961
O O7 0.277582 0.320116 0.353988
O O8 0.156134 0.287913 0.628455
O O9 0.843301 0.516782 0.137804
O O10 0.938459 0.441518 0.212247
O O11 0.959859 0.465469 0.906613
O O12 0.500000 0.309533 0.750000
O O13 0.416353 0.295732 0.099798
O O14 0.520573 0.391604 0.960576
O O15 0.599905 0.338577 0.111209
O O16 0.500000 0.568458 0.750000
#
# Coordination Sequence:
#
# PCOD9266714 Si02
#       8
#     8   8   8   8   8   8   8   4
#     4  12  21  34  63  99 128 164 202 269 316 368
#     4  11  22  42  70  87 122 169 224 256 314 374
#     4  11  20  40  61  96 122 162 200 274 319 378
#     4  11  23  38  63  95 135 166 210 261 316 377
#     4  12  21  36  65  94 128 156 217 263 319 366
#     4  10  23  43  66  86 124 178 217 252 302 390
#     4  10  19  38  59  90 131 170 211 246 307 383
#     4  10  22  36  62  90 134 144 202 268 334 376
#
# _framework density 20.056238
#
# number of rings (size 3 to 8) (size 9 to 14) (size 15 to 20)
#    0.000    1.067    4.000    4.000    0.000    0.000 
#    3.600    0.667    8.800    0.000    0.000    0.000 
#    0.000    0.000    0.000    0.000    0.000    0.000 
#
# Total GULP energy -167355.702228 kJ/mol
# GULP energy per Si atom -5578.523408 kJ/mol
# Density = 2.001059 g / cm^3
# Si number density = 20.056238 Si / 1000 Ang^3
#
#
#
# Elastic Constant Matrix: (Units=GPa)
#
#
# Indices 1 2 3 4 5 6 
#
# 1 119.5222 29.0620 22.2207 0.0000 24.8884 0.0000
# 2 29.0620 61.8152 17.5329 0.0000 -2.2038 0.0000
# 3 22.2207 17.5329 71.2064 0.0000 -6.4395 0.0000
# 4 0.0000 0.0000 0.0000 15.8908 0.0000 -2.0596
# 5 24.8884 -2.2038 -6.4395 0.0000 44.5594 0.0000
# 6 0.0000 0.0000 0.0000 -2.0596 0.0000 14.7282
#
#
#
# Elastic Compliance Matrix: (Units=1/GPa)
#
#
# Indices 1 2 3 4 5 6 
#
# 1 0.011609 -0.004840 -0.003079 0.000000 -0.007168 0.000000
# 2 -0.004840 0.019412 -0.002977 0.000000 0.003233 0.000000
# 3 -0.003079 -0.002977 0.016090 0.000000 0.003898 0.000000
# 4 0.000000 0.000000 0.000000 0.064091 0.000000 0.008962
# 5 -0.007168 0.003233 0.003898 0.000000 0.027169 0.000000
# 6 0.000000 0.000000 0.000000 0.008962 0.000000 0.069150
#
#
# Mechanical properties :
#
#
# Convention : Reuss Voigt Hill
#
# Bulk Modulus (GPa) = 39.49640 43.35278 41.42459
# Shear Modulus (GPa) = 21.03020 27.28423 24.15721
#
# Velocity S-wave (km/s) = 3.24166 3.69234 3.47432
# Velocity P-wave (km/s) = 5.80919 6.31192 6.06577
#
# Compressibility (1/GPa) = 0.02531876
#
# Stress axis : x y z
#
# Youngs Moduli (GPa) = 86.14306 51.51353 62.15001
#
# Poissons Ratio (x) = 0.24932 0.19137
# Poissons Ratio (y) = 0.41693 0.18503
# Poissons Ratio (z) = 0.26524 0.15336
#
# Static dielectric constant tensor:
#      x y z
#    x 1.786310 0.000000 -0.040700 
#    y 0.000000 1.682410 0.000000 
#    z -0.040700 0.000000 1.762470 
# 
# From -- ./inp_files/50186.got.cif
#   From: 2010.05.17/outbox.cif.g08.bks.cpg/sg15_26_cif.got.tgz:50186.got - 2010.06.03 18:47:42.
