data_PCOD9266121
_publ_section_title
;
Structure prediction by ZEFSAII (Michael W. Deem and Ramdas Pophale) SiO2 
 PCOD9266121
Probable space group: C 2/C
;
_chemical_formula_sum "Si O2"
_cell_formula_units_Z 52
_cell_length_a 10.936468
_cell_length_b 15.560066
_cell_length_c 17.438773
_cell_angle_alpha 90.000000
_cell_angle_beta 120.839710
_cell_angle_gamma 90.000000
_cell_volume 2547.990254
_symmetry_space_group_name_H-M "C 2/C"
_symmetry_group_IT_number 15
_symmetry_cell_setting 'monoclinic'
loop_
_space_group_symop_operation_xyz
x,y,z
-x,y,1/2-z
-x,-y,-z
x,-y,1/2+z
1/2+x,1/2+y,z
1/2-x,1/2+y,1/2-z
1/2-x,1/2-y,-z
1/2+x,1/2-y,1/2+z
loop_
_atom_site_type_symbol
_atom_site_label
_atom_site_fract_x
_atom_site_fract_y
_atom_site_fract_z
Si Si1 0.763389 0.040998 0.951195
Si Si2 0.851269 0.871834 0.057861
Si Si3 0.561654 0.014202 0.130409
Si Si4 0.500000 0.574006 0.750000
Si Si5 0.325132 0.542281 0.310234
Si Si6 0.013182 0.177545 0.455094
Si Si7 0.938087 0.640517 0.970384
O O1 0.595181 0.020366 0.896052
O O2 0.821884 0.013722 0.886828
O O3 0.832042 0.132425 0.994461
O O4 0.826032 0.973017 0.032051
O O5 0.693910 0.833351 0.017954
O O6 0.928807 0.865769 0.163425
O O7 0.941564 0.839805 0.015252
O O8 0.622950 0.929225 0.109044
O O9 0.662428 0.050809 0.228897
O O10 0.543446 0.086964 0.059214
O O11 0.599380 0.510415 0.732768
O O12 0.411789 0.628141 0.361360
O O13 0.007582 0.280108 0.448754
#
# Coordination Sequence:
#
# PCOD9266121 Si02
#       7
#     8   8   8   4   8   8   8
#     4  10  20  38  62  86 121 167 200 241 319 380
#     4  10  19  37  60  87 119 159 198 253 308 371
#     4  10  22  40  60  86 125 172 202 249 312 388
#     4  12  18  34  66  88 112 156 212 254 300 378
#     4  11  21  38  64  88 119 157 211 255 307 368
#     4  11  21  39  62  94 122 157 208 266 306 364
#     4  10  22  38  62  88 125 161 208 249 318 367
#
# _framework density 20.408241
#
# number of rings (size 3 to 8) (size 9 to 14) (size 15 to 20)
#    0.000    1.538    4.615    1.846    0.000    0.615 
#    5.538    0.000    0.000    0.000    0.000    0.000 
#    0.000    0.000    0.000    0.000    0.000    0.000 
#
# Total GULP energy -144992.734496 kJ/mol
# GULP energy per Si atom -5576.643634 kJ/mol
# Density = 2.036179 g / cm^3
# Si number density = 20.408241 Si / 1000 Ang^3
#
#
#
# Elastic Constant Matrix: (Units=GPa)
#
#
# Indices 1 2 3 4 5 6 
#
# 1 66.4664 9.9474 2.8551 0.0000 9.0111 0.0000
# 2 9.9474 102.9632 31.0261 0.0000 18.2838 0.0000
# 3 2.8551 31.0261 105.5058 0.0000 18.5752 0.0000
# 4 0.0000 0.0000 0.0000 11.2620 0.0000 -4.6577
# 5 9.0111 18.2838 18.5752 0.0000 32.0091 0.0000
# 6 0.0000 0.0000 0.0000 -4.6577 0.0000 27.4007
#
#
#
# Elastic Compliance Matrix: (Units=1/GPa)
#
#
# Indices 1 2 3 4 5 6 
#
# 1 0.015736 -0.000949 0.000599 0.000000 -0.004236 0.000000
# 2 -0.000949 0.011405 -0.002482 0.000000 -0.004808 0.000000
# 3 0.000599 -0.002482 0.011107 0.000000 -0.005196 0.000000
# 4 0.000000 0.000000 0.000000 0.095509 0.000000 0.016235
# 5 -0.004236 -0.004808 -0.005196 0.000000 0.038195 0.000000
# 6 0.000000 0.000000 0.000000 0.016235 0.000000 0.039255
#
#
# Mechanical properties :
#
#
# Convention : Reuss Voigt Hill
#
# Bulk Modulus (GPa) = 30.68947 40.28804 35.48876
# Shear Modulus (GPa) = 21.95567 29.54148 25.74857
#
# Velocity S-wave (km/s) = 3.28353 3.80877 3.55586
# Velocity P-wave (km/s) = 5.42641 6.25509 5.85543
#
# Compressibility (1/GPa) = 0.03258446
#
# Stress axis : x y z
#
# Youngs Moduli (GPa) = 63.54988 87.67754 90.03624
#
# Poissons Ratio (x) = 0.08317 -0.05392
# Poissons Ratio (y) = 0.06028 0.22346
# Poissons Ratio (z) = -0.03806 0.21761
#
# Static dielectric constant tensor:
#      x y z
#    x 1.823550 0.000000 0.033780 
#    y 0.000000 1.740650 0.000000 
#    z 0.033780 0.000000 1.725110 
# 
# From -- ./inp_files/198032.got.cif
#   From: 2010.05.17/outbox.cif.g08.bks.cpg/sg15_100_cif.got.tgz:198032.got - 2010.06.03 18:47:42.
