data_PCOD9266308
_publ_section_title
;
Structure prediction by ZEFSAII (Michael W. Deem and Ramdas Pophale) SiO2 
 PCOD9266308
Probable space group: C 2/C
;
_chemical_formula_sum "Si O2"
_cell_formula_units_Z 48
_cell_length_a 18.674264
_cell_length_b 9.035386
_cell_length_c 14.794870
_cell_angle_alpha 90.000000
_cell_angle_beta 97.157551
_cell_angle_gamma 90.000000
_cell_volume 2476.873176
_symmetry_space_group_name_H-M "C 2/C"
_symmetry_group_IT_number 15
_symmetry_cell_setting 'monoclinic'
loop_
_space_group_symop_operation_xyz
x,y,z
-x,y,1/2-z
-x,-y,-z
x,-y,1/2+z
1/2+x,1/2+y,z
1/2-x,1/2+y,1/2-z
1/2-x,1/2-y,-z
1/2+x,1/2-y,1/2+z
loop_
_atom_site_type_symbol
_atom_site_label
_atom_site_fract_x
_atom_site_fract_y
_atom_site_fract_z
Si Si1 0.309702 0.865460 0.203372
Si Si2 0.615402 0.025707 0.964904
Si Si3 0.559622 0.683804 0.685184
Si Si4 0.483492 0.759985 0.495891
Si Si5 0.928971 0.145545 0.300416
Si Si6 0.308142 0.882631 0.842676
O O1 0.370233 0.763882 0.260475
O O2 0.248257 0.751487 0.161917
O O3 0.283857 0.987164 0.271686
O O4 0.345137 0.947136 0.123212
O O5 0.549057 0.141138 0.966007
O O6 0.670712 0.054641 0.055867
O O7 0.577176 0.867733 0.971550
O O8 0.500000 0.721814 0.750000
O O9 0.518452 0.669113 0.583011
O O10 0.593908 0.525300 0.714540
O O11 0.618072 0.812091 0.685004
O O12 0.449439 0.673202 0.407507
O O13 0.000000 0.165167 0.250000
#
# Coordination Sequence:
#
# PCOD9266308 Si02
#       6
#     8   8   8   8   8   8
#     4  12  23  41  63  84 126 163 203 250 301 362
#     4  10  21  37  64  92 120 156 206 247 300 358
#     4  10  22  38  62  92 124 155 200 250 303 355
#     4  10  19  37  62  96 120 154 198 253 298 356
#     4  11  21  37  62  93 121 161 199 248 302 356
#     4  11  24  41  61  88 121 163 204 249 304 361
#
# _framework density 19.379272
#
# number of rings (size 3 to 8) (size 9 to 14) (size 15 to 20)
#    0.000    1.333    3.333    3.000    0.000    0.667 
#    0.000    0.833    0.000    0.000    0.000    0.000 
#    0.000    0.000    0.000    0.000    0.000    0.000 
#
# Total GULP energy -134095.366724 kJ/mol
# GULP energy per Si atom -5587.306947 kJ/mol
# Density = 1.933516 g / cm^3
# Si number density = 19.379272 Si / 1000 Ang^3
#
#
#
# Elastic Constant Matrix: (Units=GPa)
#
#
# Indices 1 2 3 4 5 6 
#
# 1 44.5679 15.7007 29.3665 0.0000 6.8935 0.0000
# 2 15.7007 60.5343 20.6598 0.0000 2.5341 0.0000
# 3 29.3665 20.6598 76.8369 0.0000 -2.0016 0.0000
# 4 0.0000 0.0000 0.0000 30.4340 0.0000 9.6464
# 5 6.8935 2.5341 -2.0016 0.0000 20.4254 0.0000
# 6 0.0000 0.0000 0.0000 9.6464 0.0000 9.8277
#
#
#
# Elastic Compliance Matrix: (Units=1/GPa)
#
#
# Indices 1 2 3 4 5 6 
#
# 1 0.033722 -0.004113 -0.012096 0.000000 -0.012056 0.000000
# 2 -0.004113 0.018845 -0.003529 0.000000 -0.001296 0.000000
# 3 -0.012096 -0.003529 0.018752 0.000000 0.006358 0.000000
# 4 0.000000 0.000000 0.000000 0.047697 0.000000 -0.046817
# 5 -0.012056 -0.001296 0.006358 0.000000 0.053811 0.000000
# 6 0.000000 0.000000 0.000000 -0.046817 0.000000 0.147707
#
#
# Mechanical properties :
#
#
# Convention : Reuss Voigt Hill
#
# Bulk Modulus (GPa) = 31.40472 34.82145 33.11309
# Shear Modulus (GPa) = 13.49068 19.88489 16.68779
#
# Velocity S-wave (km/s) = 2.64131 3.20674 2.93766
# Velocity P-wave (km/s) = 5.05396 5.63190 5.35074
#
# Compressibility (1/GPa) = 0.03184234
#
# Stress axis : x y z
#
# Youngs Moduli (GPa) = 29.65417 53.06455 53.32728
#
# Poissons Ratio (x) = 0.21827 0.64507
# Poissons Ratio (y) = 0.12198 0.18817
# Poissons Ratio (z) = 0.35871 0.18725
#
# Static dielectric constant tensor:
#      x y z
#    x 1.650010 0.000000 0.012410 
#    y 0.000000 1.652380 0.000000 
#    z 0.012410 0.000000 1.653290 
# 
# From -- ./inp_files/159740.got.cif
#   From: 2010.05.17/outbox.cif.g08.bks.cpg/sg15_80_cif.got.tgz:159740.got - 2010.06.03 18:47:42.
