data_PCOD9266814
_publ_section_title
;
Structure prediction by ZEFSAII (Michael W. Deem and Ramdas Pophale) SiO2 
 PCOD9266814
Probable space group: C 2/C
;
_chemical_formula_sum "Si O2"
_cell_formula_units_Z 52
_cell_length_a 10.246535
_cell_length_b 29.993367
_cell_length_c 8.346895
_cell_angle_alpha 90.000000
_cell_angle_beta 94.685287
_cell_angle_gamma 90.000000
_cell_volume 2556.663251
_symmetry_space_group_name_H-M "C 2/C"
_symmetry_group_IT_number 15
_symmetry_cell_setting 'monoclinic'
loop_
_space_group_symop_operation_xyz
x,y,z
-x,y,1/2-z
-x,-y,-z
x,-y,1/2+z
1/2+x,1/2+y,z
1/2-x,1/2+y,1/2-z
1/2-x,1/2-y,-z
1/2+x,1/2-y,1/2+z
loop_
_atom_site_type_symbol
_atom_site_label
_atom_site_fract_x
_atom_site_fract_y
_atom_site_fract_z
Si Si1 0.856793 0.295667 0.323301
Si Si2 0.152169 0.623451 0.239119
Si Si3 0.206000 0.540716 0.030403
Si Si4 0.266977 0.110018 0.892053
Si Si5 0.857989 0.027837 0.743864
Si Si6 0.357054 0.776423 0.705921
Si Si7 0.500000 0.055140 0.750000
O O1 0.776663 0.342166 0.306462
O O2 0.762629 0.255413 0.259986
O O3 0.865580 0.287796 0.516704
O O4 0.000000 0.297370 0.250000
O O5 0.197564 0.589051 0.109755
O O6 0.221903 0.615723 0.416252
O O7 0.157682 0.676206 0.204544
O O8 0.000000 0.612733 0.250000
O O9 0.242685 0.503699 0.164227
O O10 0.326939 0.538152 0.922996
O O11 0.080628 0.532111 0.903039
O O12 0.150978 0.075423 0.845602
O O13 0.394342 0.085331 0.832222
O O14 0.000000 0.006562 0.750000
O O15 0.500000 0.755913 0.750000
#
# Coordination Sequence:
#
# PCOD9266814 Si02
#       7
#     8   8   8   8   8   8   4
#     4  10  20  38  61  89 126 160 206 258 305 363
#     4  10  19  38  61  89 124 153 198 256 310 365
#     4  11  23  40  64  88 122 158 202 256 310 362
#     4  10  20  36  61  86 120 154 203 255 306 356
#     4  11  25  43  59  85 122 166 207 246 303 370
#     4   9  21  37  60  91 125 163 203 250 309 371
#     4  10  20  36  60  94 112 152 200 256 314 352
#
# _framework density 20.339010999999999
#
# number of rings (size 3 to 8) (size 9 to 14) (size 15 to 20)
#    0.000    1.846    2.308    1.385    0.000    3.692 
#    6.923    5.385    0.000    0.000    0.000    0.000 
#    0.000    0.000    0.000    0.000    0.000    0.000 
#
# Total GULP energy -144910.559236 kJ/mol
# GULP energy per Si atom -5573.483048 kJ/mol
# Density = 2.029272 g / cm^3
# Si number density = 20.339011 Si / 1000 Ang^3
#
#
#
# Elastic Constant Matrix: (Units=GPa)
#
#
# Indices 1 2 3 4 5 6 
#
# 1 59.4337 38.5431 23.2042 0.0000 5.8825 0.0000
# 2 38.5431 88.9920 35.8324 0.0000 1.7297 0.0000
# 3 23.2042 35.8324 60.1016 0.0000 -0.2848 0.0000
# 4 0.0000 0.0000 0.0000 28.5989 0.0000 11.6289
# 5 5.8825 1.7297 -0.2848 0.0000 17.3032 0.0000
# 6 0.0000 0.0000 0.0000 11.6289 0.0000 39.3165
#
#
#
# Elastic Compliance Matrix: (Units=1/GPa)
#
#
# Indices 1 2 3 4 5 6 
#
# 1 0.025113 -0.008959 -0.004391 0.000000 -0.007714 0.000000
# 2 -0.008959 0.018028 -0.007284 0.000000 0.001124 0.000000
# 3 -0.004391 -0.007284 0.022689 0.000000 0.002594 0.000000
# 4 0.000000 0.000000 0.000000 0.039747 0.000000 -0.011756
# 5 -0.007714 0.001124 0.002594 0.000000 0.060346 0.000000
# 6 0.000000 0.000000 0.000000 -0.011756 0.000000 0.028912
#
#
# Mechanical properties :
#
#
# Convention : Reuss Voigt Hill
#
# Bulk Modulus (GPa) = 40.71305 44.85409 42.78357
# Shear Modulus (GPa) = 20.46746 24.44022 22.45384
#
# Velocity S-wave (km/s) = 3.17569 3.47023 3.32622
# Velocity P-wave (km/s) = 5.78855 6.17720 5.98603
#
# Compressibility (1/GPa) = 0.02456215
#
# Stress axis : x y z
#
# Youngs Moduli (GPa) = 39.81975 55.46873 44.07425
#
# Poissons Ratio (x) = 0.49693 0.19354
# Poissons Ratio (y) = 0.35673 0.32105
# Poissons Ratio (z) = 0.17486 0.40405
#
# Static dielectric constant tensor:
#      x y z
#    x 1.724380 0.000000 0.036090 
#    y 0.000000 1.766990 0.000000 
#    z 0.036090 0.000000 1.766940 
# 
# From -- ./inp_files/33630.got.cif
#   From: 2010.05.17/outbox.cif.g08.bks.cpg/sg15_17_cif.got.tgz:33630.got - 2010.06.03 18:47:42.
