data_PCOD9266857
_publ_section_title
;
Structure prediction by ZEFSAII (Michael W. Deem and Ramdas Pophale) SiO2 
 PCOD9266857
Probable space group: C 2/C
;
_chemical_formula_sum "Si O2"
_cell_formula_units_Z 40
_cell_length_a 12.050390
_cell_length_b 7.261014
_cell_length_c 19.104778
_cell_angle_alpha 90.000000
_cell_angle_beta 91.991204
_cell_angle_gamma 90.000000
_cell_volume 1670.621454
_symmetry_space_group_name_H-M "C 2/C"
_symmetry_group_IT_number 15
_symmetry_cell_setting 'monoclinic'
loop_
_space_group_symop_operation_xyz
x,y,z
-x,y,1/2-z
-x,-y,-z
x,-y,1/2+z
1/2+x,1/2+y,z
1/2-x,1/2+y,1/2-z
1/2-x,1/2-y,-z
1/2+x,1/2-y,1/2+z
loop_
_atom_site_type_symbol
_atom_site_label
_atom_site_fract_x
_atom_site_fract_y
_atom_site_fract_z
Si Si1 0.687227 0.151682 0.178460
Si Si2 0.233447 0.948926 0.964879
Si Si3 0.746810 0.461244 0.671122
Si Si4 0.513165 0.139532 0.828211
Si Si5 0.117894 0.226741 0.051861
O O1 0.662489 0.366792 0.166975
O O2 0.866897 0.450049 0.162930
O O3 0.578950 0.023985 0.175398
O O4 0.766083 0.084649 0.117818
O O5 0.132081 0.064925 0.995697
O O6 0.250000 0.750000 0.000000
O O7 0.343002 0.078728 0.979559
O O8 0.751805 0.366401 0.746249
O O9 0.714134 0.322499 0.610355
O O10 0.500000 0.229330 0.750000
O O11 0.485685 0.252860 0.898190
#
# Coordination Sequence:
#
# PCOD9266857 Si02
#       5
#     8   8   8   8   8
#     4  10  20  36  62  86 122 158 197 255 301 352
#     4  10  19  38  62  87 126 164 197 250 311 359
#     4  11  20  39  64  89 120 160 208 253 300 362
#     4   9  20  38  59  91 125 152 204 263 298 357
#     4  10  21  38  66  86 123 168 195 255 312 349
#
# _framework density 23.943186000000001
#
# number of rings (size 3 to 8) (size 9 to 14) (size 15 to 20)
#    0.000    2.000    2.000    3.600    0.000    0.000 
#    0.000   23.000    0.000    0.000    0.000    0.000 
#    0.000    0.000    0.000    0.000    0.000    0.000 
#
# Total GULP energy -111784.908567 kJ/mol
# GULP energy per Si atom -5589.245428 kJ/mol
# Density = 2.388869 g / cm^3
# Si number density = 23.943186 Si / 1000 Ang^3
#
#
#
# Elastic Constant Matrix: (Units=GPa)
#
#
# Indices 1 2 3 4 5 6 
#
# 1 76.4733 6.5165 17.9782 0.0000 -19.7318 0.0000
# 2 6.5165 126.8992 27.6581 0.0000 -15.6906 0.0000
# 3 17.9782 27.6581 130.7763 0.0000 -31.1471 0.0000
# 4 0.0000 0.0000 0.0000 29.5462 0.0000 2.9277
# 5 -19.7318 -15.6906 -31.1471 0.0000 37.4756 0.0000
# 6 0.0000 0.0000 0.0000 2.9277 0.0000 22.6285
#
#
#
# Elastic Compliance Matrix: (Units=1/GPa)
#
#
# Indices 1 2 3 4 5 6 
#
# 1 0.015145 0.000252 -0.000263 0.000000 0.007861 0.000000
# 2 0.000252 0.008458 -0.001182 0.000000 0.002691 0.000000
# 3 -0.000263 -0.001182 0.009703 0.000000 0.007431 0.000000
# 4 0.000000 0.000000 0.000000 0.034285 0.000000 -0.004436
# 5 0.007861 0.002691 0.007431 0.000000 0.038125 0.000000
# 6 0.000000 0.000000 0.000000 -0.004436 0.000000 0.044766
#
#
# Mechanical properties :
#
#
# Convention : Reuss Voigt Hill
#
# Bulk Modulus (GPa) = 32.34379 48.71717 40.53048
# Shear Modulus (GPa) = 30.64186 36.72980 33.68583
#
# Velocity S-wave (km/s) = 3.58127 3.92093 3.75494
# Velocity P-wave (km/s) = 5.53521 6.39448 5.98030
#
# Compressibility (1/GPa) = 0.03091784
#
# Stress axis : x y z
#
# Youngs Moduli (GPa) = 66.02770 118.23425 103.06496
#
# Poissons Ratio (x) = -0.02975 0.02711
# Poissons Ratio (y) = -0.01661 0.12187
# Poissons Ratio (z) = 0.01736 0.13981
#
# Static dielectric constant tensor:
#      x y z
#    x 1.930850 0.000000 -0.060390 
#    y 0.000000 1.962090 0.000000 
#    z -0.060390 0.000000 1.961570 
# 
# From -- ./inp_files/235877.got.cif
#   From: 2010.05.17/outbox.cif.g08.bks.cpg/sg15_118_cif.got.tgz:235877.got - 2010.06.03 18:47:42.
