data_PCOD9266333
_publ_section_title
;
Structure prediction by ZEFSAII (Michael W. Deem and Ramdas Pophale) SiO2 
 PCOD9266333
Probable space group: C 2/C
;
_chemical_formula_sum "Si O2"
_cell_formula_units_Z 64
_cell_length_a 19.067463
_cell_length_b 8.325971
_cell_length_c 21.278295
_cell_angle_alpha 90.000000
_cell_angle_beta 53.524665
_cell_angle_gamma 90.000000
_cell_volume 2716.324392
_symmetry_space_group_name_H-M "C 2/C"
_symmetry_group_IT_number 15
_symmetry_cell_setting 'monoclinic'
loop_
_space_group_symop_operation_xyz
x,y,z
-x,y,1/2-z
-x,-y,-z
x,-y,1/2+z
1/2+x,1/2+y,z
1/2-x,1/2+y,1/2-z
1/2-x,1/2-y,-z
1/2+x,1/2-y,1/2+z
loop_
_atom_site_type_symbol
_atom_site_label
_atom_site_fract_x
_atom_site_fract_y
_atom_site_fract_z
Si Si1 0.493029 0.684164 0.563798
Si Si2 0.354652 0.164242 0.694046
Si Si3 0.787045 0.173144 0.916241
Si Si4 0.620704 0.049681 0.952412
Si Si5 0.244457 0.924760 0.837817
Si Si6 0.541286 0.801144 0.661215
Si Si7 0.946899 0.366121 0.401554
Si Si8 0.387069 0.604360 0.507409
O O1 0.577247 0.776484 0.490325
O O2 0.474947 0.762699 0.640398
O O3 0.412971 0.690352 0.559565
O O4 0.527144 0.503118 0.551211
O O5 0.364063 0.045092 0.629095
O O6 0.311909 0.325850 0.685461
O O7 0.454241 0.188395 0.665185
O O8 0.298289 0.066349 0.775166
O O9 0.715897 0.041396 0.934519
O O10 0.794006 0.284748 0.849916
O O11 0.887907 0.158378 0.880163
O O12 0.750000 0.250000 0.000000
O O13 0.554834 0.942097 0.027195
O O14 0.193257 0.002899 0.924715
O O15 0.500000 0.803875 0.750000
O O16 0.578240 0.980645 0.627165
O O17 0.881204 0.219356 0.450019
#
# Coordination Sequence:
#
# PCOD9266333 Si02
#       8
#     8   8   8   8   8   8   8   8
#     4  10  19  37  63  88 120 162 204 261 304 376
#     4  11  22  39  55  95 131 155 210 259 331 368
#     4  11  19  42  63  83 126 164 223 250 290 383
#     4  10  20  36  63  88 116 170 206 255 301 368
#     4  11  25  38  64  93 130 171 194 277 324 377
#     4  11  24  40  65  90 120 173 219 255 309 372
#     4  11  22  36  65  91 123 163 208 265 302 384
#     4  11  20  38  62  95 125 153 211 258 332 366
#
# _framework density 23.561250999999999
#
# number of rings (size 3 to 8) (size 9 to 14) (size 15 to 20)
#    0.000    1.250    6.250    1.875    3.500    2.000 
#    0.000    1.250    0.000    1.500    0.000    0.000 
#    0.000    0.000    0.000    0.000    0.000    0.000 
#
# Total GULP energy -178220.159921 kJ/mol
# GULP energy per Si atom -5569.379998 kJ/mol
# Density = 2.350762 g / cm^3
# Si number density = 23.561251 Si / 1000 Ang^3
#
#
#
# Elastic Constant Matrix: (Units=GPa)
#
#
# Indices 1 2 3 4 5 6 
#
# 1 66.3943 -3.5429 4.3948 0.0001 -1.8305 0.0001
# 2 -3.5429 41.6538 16.8178 0.0002 -9.1608 0.0001
# 3 4.3948 16.8178 112.5675 0.0000 6.8716 -0.0001
# 4 0.0001 0.0002 0.0000 37.1610 0.0000 2.0860
# 5 -1.8305 -9.1608 6.8716 0.0000 32.8930 0.0000
# 6 0.0001 0.0001 -0.0001 2.0860 0.0000 22.6970
#
#
#
# Elastic Compliance Matrix: (Units=1/GPa)
#
#
# Indices 1 2 3 4 5 6 
#
# 1 0.015283 0.002065 -0.001005 0.000000 0.001636 0.000000
# 2 0.002065 0.028099 -0.004825 0.000000 0.008949 0.000000
# 3 -0.001005 -0.004825 0.009855 0.000000 -0.003458 0.000000
# 4 0.000000 0.000000 0.000000 0.027049 0.000000 -0.002486
# 5 0.001636 0.008949 -0.003458 0.000000 0.033707 0.000000
# 6 0.000000 0.000000 0.000000 -0.002486 0.000000 0.044287
#
#
# Mechanical properties :
#
#
# Convention : Reuss Voigt Hill
#
# Bulk Modulus (GPa) = 21.87791 28.43943 25.15867
# Shear Modulus (GPa) = 27.61720 32.07995 29.84857
#
# Velocity S-wave (km/s) = 3.42737 3.69393 3.56315
# Velocity P-wave (km/s) = 4.99682 5.50365 5.25635
#
# Compressibility (1/GPa) = 0.04570820
#
# Stress axis : x y z
#
# Youngs Moduli (GPa) = 65.43051 35.58814 101.47367
#
# Poissons Ratio (x) = -0.07351 0.10199
# Poissons Ratio (y) = -0.13515 0.48961
# Poissons Ratio (z) = 0.06577 0.17171
#
# Static dielectric constant tensor:
#      x y z
#    x 1.982610 0.000000 -0.032720 
#    y 0.000000 2.095470 0.000000 
#    z -0.032720 0.000000 1.881510 
# 
# From -- ./inp_files/279561.got.cif
#   From: 2010.05.17/outbox.cif.g08.bks.cpg/sg15_140_cif.got.tgz:279561.got - 2010.06.03 18:47:42.
