data_PCOD9266141
_publ_section_title
;
Structure prediction by ZEFSAII (Michael W. Deem and Ramdas Pophale) SiO2 
 PCOD9266141
Probable space group: C 2/C
;
_chemical_formula_sum "Si O2"
_cell_formula_units_Z 48
_cell_length_a 13.269284
_cell_length_b 20.139804
_cell_length_c 8.212968
_cell_angle_alpha 90.000000
_cell_angle_beta 87.156825
_cell_angle_gamma 90.000000
_cell_volume 2192.138213
_symmetry_space_group_name_H-M "C 2/C"
_symmetry_group_IT_number 15
_symmetry_cell_setting 'monoclinic'
loop_
_space_group_symop_operation_xyz
x,y,z
-x,y,1/2-z
-x,-y,-z
x,-y,1/2+z
1/2+x,1/2+y,z
1/2-x,1/2+y,1/2-z
1/2-x,1/2-y,-z
1/2+x,1/2-y,1/2+z
loop_
_atom_site_type_symbol
_atom_site_label
_atom_site_fract_x
_atom_site_fract_y
_atom_site_fract_z
Si Si1 0.252112 0.444854 0.893460
Si Si2 0.608433 0.703351 0.605888
Si Si3 0.595452 0.904055 0.136026
Si Si4 0.739840 0.694134 0.265756
Si Si5 0.805973 0.082571 0.729420
Si Si6 0.066638 0.744407 0.579771
O O1 0.239156 0.382674 0.775628
O O2 0.293974 0.509843 0.805631
O O3 0.145963 0.453984 0.001246
O O4 0.325763 0.424093 0.035639
O O5 0.673708 0.698523 0.434301
O O6 0.663023 0.760515 0.707736
O O7 0.620778 0.632259 0.688155
O O8 0.496666 0.721151 0.556749
O O9 0.500000 0.925433 0.250000
O O10 0.691111 0.888166 0.245927
O O11 0.573863 0.834435 0.049566
O O12 0.672523 0.723551 0.123350
O O13 0.000000 0.749577 0.750000
#
# Coordination Sequence:
#
# PCOD9266141 Si02
#       6
#     8   8   8   8   8   8
#     4  10  22  38  62  84 129 167 208 257 314 375
#     4  10  20  35  67  88 122 163 207 252 321 369
#     4   9  20  37  59  84 126 155 207 264 309 364
#     4  10  19  37  60  92 120 162 209 258 307 374
#     4  10  21  39  58  87 120 170 201 256 314 370
#     4   9  18  36  59  93 122 156 202 262 309 368
#
# _framework density 21.896429999999999
#
# number of rings (size 3 to 8) (size 9 to 14) (size 15 to 20)
#    1.000    1.333    1.667    1.000    2.333    3.333 
#    0.000    4.167    0.000    0.000    0.000    0.000 
#    0.000    0.000    0.000    0.000    0.000    0.000 
#
# Total GULP energy -133966.708764 kJ/mol
# GULP energy per Si atom -5581.946199 kJ/mol
# Density = 2.184659 g / cm^3
# Si number density = 21.896430 Si / 1000 Ang^3
#
#
#
# Elastic Constant Matrix: (Units=GPa)
#
#
# Indices 1 2 3 4 5 6 
#
# 1 66.7830 27.2172 50.6124 0.0000 3.5049 0.0000
# 2 27.2172 140.2498 72.0385 0.0000 6.6835 0.0000
# 3 50.6124 72.0385 103.4524 0.0000 22.2889 0.0000
# 4 0.0000 0.0000 0.0000 37.4271 0.0000 -0.4293
# 5 3.5049 6.6835 22.2889 0.0000 33.1776 0.0000
# 6 0.0000 0.0000 0.0000 -0.4293 0.0000 21.8098
#
#
#
# Elastic Compliance Matrix: (Units=1/GPa)
#
#
# Indices 1 2 3 4 5 6 
#
# 1 0.025727 0.003043 -0.016355 0.000000 0.007657 0.000000
# 2 0.003043 0.011810 -0.010676 0.000000 0.004472 0.000000
# 3 -0.016355 -0.010676 0.028373 0.000000 -0.015183 0.000000
# 4 0.000000 0.000000 0.000000 0.026725 0.000000 0.000526
# 5 0.007657 0.004472 -0.015183 0.000000 0.038631 0.000000
# 6 0.000000 0.000000 0.000000 0.000526 0.000000 0.045861
#
#
# Mechanical properties :
#
#
# Convention : Reuss Voigt Hill
#
# Bulk Modulus (GPa) = 55.76038 67.80238 61.78138
# Shear Modulus (GPa) = 21.63735 29.19071 25.41403
#
# Velocity S-wave (km/s) = 3.14692 3.65516 3.41052
# Velocity P-wave (km/s) = 6.22294 6.98898 6.61705
#
# Compressibility (1/GPa) = 0.01793388
#
# Stress axis : x y z
#
# Youngs Moduli (GPa) = 38.87001 84.67189 35.24431
#
# Poissons Ratio (x) = -0.25768 0.57643
# Poissons Ratio (y) = -0.11829 0.37628
# Poissons Ratio (z) = 0.63573 0.90399
#
# Static dielectric constant tensor:
#      x y z
#    x 1.838430 0.000000 -0.011730 
#    y 0.000000 1.773990 0.000000 
#    z -0.011730 0.000000 1.835880 
# 
# From -- ./inp_files/40937.got.cif
#   From: 2010.05.17/outbox.cif.g08.bks.cpg/sg15_21_cif.got.tgz:40937.got - 2010.06.03 18:47:42.
