data_PCOD9266351
_publ_section_title
;
Structure prediction by ZEFSAII (Michael W. Deem and Ramdas Pophale) SiO2 
 PCOD9266351
Probable space group: C 2/C
;
_chemical_formula_sum "Si O2"
_cell_formula_units_Z 48
_cell_length_a 16.233644
_cell_length_b 7.211242
_cell_length_c 28.919287
_cell_angle_alpha 90.000000
_cell_angle_beta 36.309645
_cell_angle_gamma 90.000000
_cell_volume 2004.677660
_symmetry_space_group_name_H-M "C 2/C"
_symmetry_group_IT_number 15
_symmetry_cell_setting 'monoclinic'
loop_
_space_group_symop_operation_xyz
x,y,z
-x,y,1/2-z
-x,-y,-z
x,-y,1/2+z
1/2+x,1/2+y,z
1/2-x,1/2+y,1/2-z
1/2-x,1/2-y,-z
1/2+x,1/2-y,1/2+z
loop_
_atom_site_type_symbol
_atom_site_label
_atom_site_fract_x
_atom_site_fract_y
_atom_site_fract_z
Si Si1 0.354057 0.666739 0.340081
Si Si2 0.658203 0.888071 0.671107
Si Si3 0.365782 0.142715 0.137954
Si Si4 0.190801 0.062487 0.303376
Si Si5 0.659908 0.724662 0.494795
Si Si6 0.386536 0.627402 0.430074
O O1 0.500000 0.620547 0.250000
O O2 0.224297 0.609573 0.367061
O O3 0.359202 0.578939 0.388603
O O4 0.347462 0.894262 0.342699
O O5 0.500000 0.827497 0.750000
O O6 0.731010 0.861127 0.687384
O O7 0.747875 0.783859 0.592260
O O8 0.293120 0.041713 0.213615
O O9 0.347497 0.354909 0.163493
O O10 0.530776 0.132899 0.053908
O O11 0.050951 0.177345 0.354405
O O12 0.750000 0.750000 0.500000
O O13 0.610930 0.514333 0.527886
O O14 0.250000 0.750000 0.500000
#
# Coordination Sequence:
#
# PCOD9266351 Si02
#       6
#     8   8   8   8   8   8
#     4  10  19  37  63  90 115 158 209 252 295 360
#     4  10  21  38  63  86 119 164 204 245 308 373
#     4  10  22  39  64  88 127 157 206 255 304 368
#     4  10  22  38  61  92 117 163 200 256 307 361
#     4  11  24  41  58  89 127 161 199 255 314 363
#     4  11  22  37  63  88 120 155 207 254 297 364
#
# _framework density 23.943999999999999
#
# number of rings (size 3 to 8) (size 9 to 14) (size 15 to 20)
#    0.000    1.667    3.333    1.000    2.333    3.333 
#    3.000    1.667    0.000    0.000    0.000    0.000 
#    0.000    0.000    0.000    0.000    0.000    0.000 
#
# Total GULP energy -133994.524789 kJ/mol
# GULP energy per Si atom -5583.105200 kJ/mol
# Density = 2.388950 g / cm^3
# Si number density = 23.944000 Si / 1000 Ang^3
#
#
#
# Elastic Constant Matrix: (Units=GPa)
#
#
# Indices 1 2 3 4 5 6 
#
# 1 154.5976 13.3516 69.2424 0.0039 -10.1089 -0.0230
# 2 13.3516 54.7772 24.4710 0.0368 -9.4112 0.0631
# 3 69.2424 24.4710 172.7801 0.0003 9.6369 -0.0030
# 4 0.0039 0.0368 0.0003 15.3266 -0.0074 -11.5602
# 5 -10.1089 -9.4112 9.6369 -0.0074 43.3533 -0.0121
# 6 -0.0230 0.0631 -0.0030 -11.5602 -0.0121 54.8488
#
#
#
# Elastic Compliance Matrix: (Units=1/GPa)
#
#
# Indices 1 2 3 4 5 6 
#
# 1 0.008177 -0.000005 -0.003425 0.000003 0.002667 0.000004
# 2 -0.000005 0.020577 -0.003201 -0.000076 0.005177 -0.000039
# 3 -0.003425 -0.003201 0.007794 0.000010 -0.003226 0.000004
# 4 0.000003 -0.000076 0.000010 0.077579 0.000000 0.016351
# 5 0.002667 0.005177 -0.003226 0.000000 0.025529 0.000001
# 6 0.000004 -0.000039 0.000004 0.016351 0.000001 0.021678
#
#
# Mechanical properties :
#
#
# Convention : Reuss Voigt Hill
#
# Bulk Modulus (GPa) = 42.94537 66.25387 54.59962
# Shear Modulus (GPa) = 27.41856 41.04507 34.23182
#
# Velocity S-wave (km/s) = 3.38762 4.14479 3.78519
# Velocity P-wave (km/s) = 5.76854 7.11591 6.47735
#
# Compressibility (1/GPa) = 0.02328540
#
# Stress axis : x y z
#
# Youngs Moduli (GPa) = 122.28960 48.59891 128.30937
#
# Poissons Ratio (x) = 0.00023 0.43948
# Poissons Ratio (y) = 0.00059 0.41073
# Poissons Ratio (z) = 0.41886 0.15557
#
# Static dielectric constant tensor:
#      x y z
#    x 1.857300 0.000010 -0.066390 
#    y 0.000010 1.701500 0.000570 
#    z -0.066390 0.000570 2.007410 
# 
# From -- ./inp_files/151964.got.cif
#   From: 2010.05.17/outbox.cif.g08.bks.cpg/sg15_76_cif.got.tgz:151964.got - 2010.06.03 18:47:42.
