data_PCOD9266826
_publ_section_title
;
Structure prediction by ZEFSAII (Michael W. Deem and Ramdas Pophale) SiO2 
 PCOD9266826
Probable space group: C 2/C
;
_chemical_formula_sum "Si O2"
_cell_formula_units_Z 64
_cell_length_a 24.746757
_cell_length_b 12.915254
_cell_length_c 14.460143
_cell_angle_alpha 90.000000
_cell_angle_beta 42.254914
_cell_angle_gamma 90.000000
_cell_volume 3107.714411
_symmetry_space_group_name_H-M "C 2/C"
_symmetry_group_IT_number 15
_symmetry_cell_setting 'monoclinic'
loop_
_space_group_symop_operation_xyz
x,y,z
-x,y,1/2-z
-x,-y,-z
x,-y,1/2+z
1/2+x,1/2+y,z
1/2-x,1/2+y,1/2-z
1/2-x,1/2-y,-z
1/2+x,1/2-y,1/2+z
loop_
_atom_site_type_symbol
_atom_site_label
_atom_site_fract_x
_atom_site_fract_y
_atom_site_fract_z
Si Si1 0.267628 0.806291 0.114435
Si Si2 0.262278 0.595075 0.027726
Si Si3 0.575973 0.480833 0.091259
Si Si4 0.952013 0.236138 0.906303
Si Si5 0.316424 0.890761 0.332001
Si Si6 0.333016 0.687803 0.571853
Si Si7 0.910398 0.395418 0.406385
Si Si8 0.058292 0.427342 0.483853
O O1 0.236112 0.703549 0.103521
O O2 0.217851 0.818162 0.269983
O O3 0.254552 0.899385 0.059645
O O4 0.361672 0.781462 0.009691
O O5 0.214415 0.507384 0.140594
O O6 0.355047 0.569859 0.931013
O O7 0.500000 0.507723 0.250000
O O8 0.554069 0.383041 0.052618
O O9 0.611857 0.585346 0.003988
O O10 0.000000 0.230294 0.750000
O O11 0.990767 0.328485 0.915451
O O12 0.237115 0.821046 0.417718
O O13 0.354946 0.890718 0.384715
O O14 0.379246 0.878332 0.169087
O O15 0.384113 0.792520 0.495889
O O16 0.907575 0.497220 0.477060
O O17 0.000000 0.390459 0.250000
O O18 0.000000 0.500000 0.500000
#
# Coordination Sequence:
#
# PCOD9266826 Si02
#       8
#     8   8   8   8   8   8   8   8
#     4  10  19  38  61  92 124 164 221 265 318 377
#     4   9  20  36  61  88 123 167 215 269 318 378
#     4   9  20  42  63  86 123 169 217 264 318 375
#     4  10  21  39  64  92 125 168 209 271 319 372
#     4  11  23  42  63  96 131 173 213 265 330 389
#     4  11  23  42  66  94 129 174 216 264 321 400
#     4  12  25  43  64  96 136 175 213 269 333 391
#     4  12  24  40  65  97 132 165 221 264 325 394
#
# _framework density 20.593913000000001
#
# number of rings (size 3 to 8) (size 9 to 14) (size 15 to 20)
#    0.000    1.500    2.500    2.625    1.750    0.000 
#    4.500    1.875    0.000    0.000    0.000    0.000 
#    0.000    0.000    0.000    0.000    0.000    0.000 
#
# Total GULP energy -178397.053200 kJ/mol
# GULP energy per Si atom -5574.907912 kJ/mol
# Density = 2.054704 g / cm^3
# Si number density = 20.593913 Si / 1000 Ang^3
#
#
#
# Elastic Constant Matrix: (Units=GPa)
#
#
# Indices 1 2 3 4 5 6 
#
# 1 46.2234 15.4206 7.3037 0.0000 15.4852 0.0000
# 2 15.4206 104.4358 43.8641 0.0000 1.4182 0.0000
# 3 7.3037 43.8641 89.5285 0.0000 5.9989 0.0000
# 4 0.0000 0.0000 0.0000 24.4334 0.0000 -1.0612
# 5 15.4852 1.4182 5.9989 0.0000 23.6040 0.0000
# 6 0.0000 0.0000 0.0000 -1.0612 0.0000 19.5863
#
#
#
# Elastic Compliance Matrix: (Units=1/GPa)
#
#
# Indices 1 2 3 4 5 6 
#
# 1 0.029455 -0.004560 0.001127 0.000000 -0.019336 0.000000
# 2 -0.004560 0.012777 -0.006141 0.000000 0.003785 0.000000
# 3 0.001127 -0.006141 0.014356 0.000000 -0.004019 0.000000
# 4 0.000000 0.000000 0.000000 0.041024 0.000000 0.002223
# 5 -0.019336 0.003785 -0.004019 0.000000 0.055845 0.000000
# 6 0.000000 0.000000 0.000000 0.002223 0.000000 0.051177
#
#
# Mechanical properties :
#
#
# Convention : Reuss Voigt Hill
#
# Bulk Modulus (GPa) = 26.71046 41.48492 34.09769
# Shear Modulus (GPa) = 21.16297 25.09803 23.13050
#
# Velocity S-wave (km/s) = 3.20915 3.49479 3.35501
# Velocity P-wave (km/s) = 5.17008 6.03927 5.62150
#
# Compressibility (1/GPa) = 0.03743851
#
# Stress axis : x y z
#
# Youngs Moduli (GPa) = 33.95008 78.26786 69.65744
#
# Poissons Ratio (x) = 0.35689 -0.07849
# Poissons Ratio (y) = 0.15481 0.42780
# Poissons Ratio (z) = -0.03825 0.48068
#
# Static dielectric constant tensor:
#      x y z
#    x 1.846040 0.000000 -0.007470 
#    y 0.000000 1.787780 0.000000 
#    z -0.007470 0.000000 1.722370 
# 
# From -- ./inp_files/177796.got.cif
#   From: 2010.05.17/outbox.cif.g08.bks.cpg/sg15_89_cif.got.tgz:177796.got - 2010.06.03 18:47:42.
