data_PCOD9266958
_publ_section_title
;
Structure prediction by ZEFSAII (Michael W. Deem and Ramdas Pophale) SiO2 
 PCOD9266958
Probable space group: C 2/C
;
_chemical_formula_sum "Si O2"
_cell_formula_units_Z 48
_cell_length_a 24.334007
_cell_length_b 14.345195
_cell_length_c 14.120576
_cell_angle_alpha 90.000000
_cell_angle_beta 28.147703
_cell_angle_gamma 90.000000
_cell_volume 2325.310035
_symmetry_space_group_name_H-M "C 2/C"
_symmetry_group_IT_number 15
_symmetry_cell_setting 'monoclinic'
loop_
_space_group_symop_operation_xyz
x,y,z
-x,y,1/2-z
-x,-y,-z
x,-y,1/2+z
1/2+x,1/2+y,z
1/2-x,1/2+y,1/2-z
1/2-x,1/2-y,-z
1/2+x,1/2-y,1/2+z
loop_
_atom_site_type_symbol
_atom_site_label
_atom_site_fract_x
_atom_site_fract_y
_atom_site_fract_z
Si Si1 0.294133 0.843736 0.028939
Si Si2 0.680613 0.273797 0.827441
Si Si3 0.024982 0.934708 0.818962
Si Si4 0.931782 0.732186 0.936698
Si Si5 0.425034 0.220886 0.154626
Si Si6 0.316212 0.521557 0.256514
O O1 0.332106 0.763855 0.045725
O O2 0.161105 0.811186 0.207064
O O3 0.285971 0.945541 0.086715
O O4 0.374348 0.842567 0.814956
O O5 0.802860 0.230505 0.605402
O O6 0.702572 0.381789 0.769330
O O7 0.558883 0.246167 0.966263
O O8 0.009862 0.823251 0.838537
O O9 0.000000 0.969117 0.750000
O O10 0.141946 0.959758 0.698588
O O11 0.921899 0.974059 0.039900
O O12 0.000000 0.679905 0.750000
O O13 0.914300 0.683019 0.064158
#
# Coordination Sequence:
#
# PCOD9266958 Si02
#       6
#     8   8   8   8   8   8
#     4  10  22  38  62  98 135 158 223 277 319 397
#     4  11  21  37  65  91 125 178 211 261 339 385
#     4  10  20  37  62  92 125 157 222 280 318 376
#     4  10  21  40  59  91 125 164 219 273 314 395
#     4  10  19  38  63  91 128 170 206 278 333 381
#     4  11  20  39  62  97 128 169 215 271 332 388
#
# _framework density 20.642409000000001
#
# number of rings (size 3 to 8) (size 9 to 14) (size 15 to 20)
#    0.000    1.667    5.000    1.500    0.000    6.000 
#    0.000    1.667    0.000    5.000    0.000    0.000 
#    0.000    0.000    0.000    0.000    0.000    0.000 
#
# Total GULP energy -133666.303105 kJ/mol
# GULP energy per Si atom -5569.429296 kJ/mol
# Density = 2.059543 g / cm^3
# Si number density = 20.642409 Si / 1000 Ang^3
#
#
#
# Elastic Constant Matrix: (Units=GPa)
#
#
# Indices 1 2 3 4 5 6 
#
# 1 125.5634 36.8526 56.1293 0.0000 19.2583 0.0000
# 2 36.8526 72.1577 7.1996 0.0000 14.0241 0.0000
# 3 56.1293 7.1996 115.7421 0.0000 18.9794 0.0000
# 4 0.0000 0.0000 0.0000 5.2706 0.0000 4.7969
# 5 19.2583 14.0241 18.9794 0.0000 42.3185 0.0000
# 6 0.0000 0.0000 0.0000 4.7969 0.0000 22.0284
#
#
#
# Elastic Compliance Matrix: (Units=1/GPa)
#
#
# Indices 1 2 3 4 5 6 
#
# 1 0.012140 -0.005408 -0.005331 0.000000 -0.001342 0.000000
# 2 -0.005408 0.017223 0.002249 0.000000 -0.004255 0.000000
# 3 -0.005331 0.002249 0.011668 0.000000 -0.003552 0.000000
# 4 0.000000 0.000000 0.000000 0.236630 0.000000 -0.051529
# 5 -0.001342 -0.004255 -0.003552 0.000000 0.027244 0.000000
# 6 0.000000 0.000000 0.000000 -0.051529 0.000000 0.056617
#
#
# Mechanical properties :
#
#
# Convention : Reuss Voigt Hill
#
# Bulk Modulus (GPa) = 41.57750 57.09179 49.33465
# Shear Modulus (GPa) = 12.93599 28.14228 20.53913
#
# Velocity S-wave (km/s) = 2.50606 3.69633 3.15778
# Velocity P-wave (km/s) = 5.34409 6.77751 6.10303
#
# Compressibility (1/GPa) = 0.02405147
#
# Stress axis : x y z
#
# Youngs Moduli (GPa) = 82.37215 58.06213 85.70644
#
# Poissons Ratio (x) = 0.31397 0.45689
# Poissons Ratio (y) = 0.44543 -0.19274
# Poissons Ratio (z) = 0.43912 -0.13057
#
# Static dielectric constant tensor:
#      x y z
#    x 1.844410 0.000000 -0.001910 
#    y 0.000000 1.758400 0.000000 
#    z -0.001910 0.000000 1.756640 
# 
# From -- ./inp_files/173611.got.cif
#   From: 2010.05.17/outbox.cif.g08.bks.cpg/sg15_87_cif.got.tgz:173611.got - 2010.06.03 18:47:42.
