data_PCOD9266413
_publ_section_title
;
Structure prediction by ZEFSAII (Michael W. Deem and Ramdas Pophale) SiO2 
 PCOD9266413
Probable space group: C 2/C
;
_chemical_formula_sum "Si O2"
_cell_formula_units_Z 44
_cell_length_a 11.754714
_cell_length_b 14.802094
_cell_length_c 21.411547
_cell_angle_alpha 90.000000
_cell_angle_beta 39.276530
_cell_angle_gamma 90.000000
_cell_volume 2358.472267
_symmetry_space_group_name_H-M "C 2/C"
_symmetry_group_IT_number 15
_symmetry_cell_setting 'monoclinic'
loop_
_space_group_symop_operation_xyz
x,y,z
-x,y,1/2-z
-x,-y,-z
x,-y,1/2+z
1/2+x,1/2+y,z
1/2-x,1/2+y,1/2-z
1/2-x,1/2-y,-z
1/2+x,1/2-y,1/2+z
loop_
_atom_site_type_symbol
_atom_site_label
_atom_site_fract_x
_atom_site_fract_y
_atom_site_fract_z
Si Si1 0.353696 0.810646 0.405286
Si Si2 0.731524 0.242624 0.700138
Si Si3 0.000000 0.095869 0.750000
Si Si4 0.225193 0.550041 0.347392
Si Si5 0.617308 0.672459 0.579044
Si Si6 0.179331 0.492613 0.011615
O O1 0.250000 0.750000 0.500000
O O2 0.292290 0.789526 0.361153
O O3 0.566742 0.790488 0.312746
O O4 0.318887 0.913234 0.439435
O O5 0.725751 0.351628 0.698894
O O6 0.919051 0.202774 0.643898
O O7 0.113844 0.157239 0.655088
O O8 0.134649 0.028898 0.729948
O O9 0.230098 0.546892 0.421308
O O10 0.023955 0.528194 0.411095
O O11 0.750000 0.750000 0.500000
O O12 0.691693 0.575460 0.524915
#
# Coordination Sequence:
#
# PCOD9266413 Si02
#       6
#     8   8   4   8   8   8
#     4  11  23  40  62  93 124 157 201 255 307 355
#     4  11  23  39  64  92 124 159 205 251 306 366
#     4  10  22  36  64  90 120 160 212 254 296 352
#     4  10  19  37  64  91 113 161 214 250 289 355
#     4  11  23  41  63  93 124 161 206 251 304 364
#     4  10  21  38  63  87 124 160 200 253 303 356
#
# _framework density 18.656144000000001
#
# number of rings (size 3 to 8) (size 9 to 14) (size 15 to 20)
#    0.000    1.455    3.636    2.182    2.545    2.182 
#    0.000    1.818    0.000    0.000    0.000    0.000 
#    0.000    0.000    0.000    0.000    0.000    0.000 
#
# Total GULP energy -122820.541490 kJ/mol
# GULP energy per Si atom -5582.751886 kJ/mol
# Density = 1.861368 g / cm^3
# Si number density = 18.656144 Si / 1000 Ang^3
#
#
#
# Elastic Constant Matrix: (Units=GPa)
#
#
# Indices 1 2 3 4 5 6 
#
# 1 60.6336 34.7019 30.5194 0.0000 -22.0535 0.0000
# 2 34.7019 151.1382 71.7761 0.0000 -1.0918 0.0000
# 3 30.5194 71.7761 128.2064 0.0001 -14.2589 -0.0001
# 4 0.0000 0.0000 0.0001 35.9424 0.0000 -2.5771
# 5 -22.0535 -1.0918 -14.2589 0.0000 30.5021 0.0000
# 6 0.0000 0.0000 -0.0001 -2.5771 0.0000 25.0118
#
#
#
# Elastic Compliance Matrix: (Units=1/GPa)
#
#
# Indices 1 2 3 4 5 6 
#
# 1 0.027118 -0.005473 -0.001300 0.000000 0.018803 0.000000
# 2 -0.005473 0.010253 -0.005102 0.000000 -0.005975 0.000000
# 3 -0.001300 -0.005102 0.011435 0.000000 0.004223 0.000000
# 4 0.000000 0.000000 0.000000 0.028029 0.000000 0.002888
# 5 0.018803 -0.005975 0.004223 0.000000 0.048140 0.000000
# 6 0.000000 0.000000 0.000000 0.002888 0.000000 0.040279
#
#
# Mechanical properties :
#
#
# Convention : Reuss Voigt Hill
#
# Bulk Modulus (GPa) = 39.90973 68.21922 54.06448
# Shear Modulus (GPa) = 25.33485 31.82332 28.57909
#
# Velocity S-wave (km/s) = 3.68909 4.13459 3.91818
# Velocity P-wave (km/s) = 6.29163 7.70968 7.03647
#
# Compressibility (1/GPa) = 0.02505655
#
# Stress axis : x y z
#
# Youngs Moduli (GPa) = 36.87523 97.53469 87.44917
#
# Poissons Ratio (x) = 0.53383 0.11369
# Poissons Ratio (y) = 0.20183 0.44613
# Poissons Ratio (z) = 0.04794 0.49758
#
# Static dielectric constant tensor:
#      x y z
#    x 1.622480 0.000000 -0.014880 
#    y 0.000000 1.633590 0.000000 
#    z -0.014880 0.000000 1.658070 
# 
# From -- ./inp_files/143335.got.cif
#   From: 2010.05.17/outbox.cif.g08.bks.cpg/sg15_72_cif.got.tgz:143335.got - 2010.06.03 18:47:42.
