data_PCOD9266040
_publ_section_title
;
Structure prediction by ZEFSAII (Michael W. Deem and Ramdas Pophale) SiO2 
 PCOD9266040
Probable space group: C 2/C
;
_chemical_formula_sum "Si O2"
_cell_formula_units_Z 48
_cell_length_a 8.722613
_cell_length_b 18.869806
_cell_length_c 12.458232
_cell_angle_alpha 90.000000
_cell_angle_beta 68.925847
_cell_angle_gamma 90.000000
_cell_volume 1913.401083
_symmetry_space_group_name_H-M "C 2/C"
_symmetry_group_IT_number 15
_symmetry_cell_setting 'monoclinic'
loop_
_space_group_symop_operation_xyz
x,y,z
-x,y,1/2-z
-x,-y,-z
x,-y,1/2+z
1/2+x,1/2+y,z
1/2-x,1/2+y,1/2-z
1/2-x,1/2-y,-z
1/2+x,1/2-y,1/2+z
loop_
_atom_site_type_symbol
_atom_site_label
_atom_site_fract_x
_atom_site_fract_y
_atom_site_fract_z
Si Si1 0.556068 0.426840 0.431666
Si Si2 0.341197 0.396091 0.857156
Si Si3 0.007338 0.258991 0.973261
Si Si4 0.252001 0.643035 0.059348
Si Si5 0.180498 0.485014 0.741906
Si Si6 0.165182 0.729771 0.654415
O O1 0.500000 0.500000 0.500000
O O2 0.628724 0.393360 0.523677
O O3 0.381714 0.391642 0.442458
O O4 0.694260 0.450714 0.313149
O O5 0.500000 0.423301 0.750000
O O6 0.201011 0.450858 0.854875
O O7 0.326075 0.314563 0.824747
O O8 0.142080 0.212905 0.871263
O O9 0.917780 0.322946 0.936159
O O10 0.114823 0.285744 0.044631
O O11 0.862304 0.211688 0.061501
O O12 0.222876 0.583831 0.156033
O O13 0.000000 0.506959 0.750000
O O14 0.000000 0.700635 0.750000
#
# Coordination Sequence:
#
# PCOD9266040 Si02
#       6
#     8   8   8   8   8   8
#     4  10  20  37  62  87 126 162 208 268 325 360
#     4  11  18  36  65  89 116 165 211 261 312 380
#     4  10  20  35  63  88 123 159 204 262 319 371
#     4  10  19  37  59  88 123 161 206 260 310 375
#     4  11  23  38  64  97 121 167 225 266 315 387
#     4  10  20  36  61  92 119 159 207 254 317 382
#
# _framework density 25.086220000000001
#
# number of rings (size 3 to 8) (size 9 to 14) (size 15 to 20)
#    0.000    1.667    5.000    2.000    0.000    0.667 
#    0.000    3.333   14.667    0.000    0.000    0.000 
#    0.000    0.000    0.000    0.000    0.000    0.000 
#
# Total GULP energy -133712.644407 kJ/mol
# GULP energy per Si atom -5571.360184 kJ/mol
# Density = 2.502912 g / cm^3
# Si number density = 25.086220 Si / 1000 Ang^3
#
#
#
# Elastic Constant Matrix: (Units=GPa)
#
#
# Indices 1 2 3 4 5 6 
#
# 1 151.8281 24.8131 34.7696 0.0000 -22.6710 0.0000
# 2 24.8131 50.2392 17.8125 0.0000 1.8171 0.0000
# 3 34.7696 17.8125 58.4435 0.0000 -11.4609 0.0000
# 4 0.0000 0.0000 0.0000 28.8841 0.0000 -16.2609
# 5 -22.6710 1.8171 -11.4609 0.0000 33.3267 0.0000
# 6 0.0000 0.0000 0.0000 -16.2609 0.0000 45.8787
#
#
#
# Elastic Compliance Matrix: (Units=1/GPa)
#
#
# Indices 1 2 3 4 5 6 
#
# 1 0.008581 -0.003308 -0.003128 0.000000 0.004942 0.000000
# 2 -0.003308 0.024053 -0.006500 0.000000 -0.005797 0.000000
# 3 -0.003128 -0.006500 0.022095 0.000000 0.005825 0.000000
# 4 0.000000 0.000000 0.000000 0.043251 0.000000 0.015330
# 5 0.004942 -0.005797 0.005825 0.000000 0.035687 0.000000
# 6 0.000000 0.000000 0.000000 0.015330 0.000000 0.027230
#
#
# Mechanical properties :
#
#
# Convention : Reuss Voigt Hill
#
# Bulk Modulus (GPa) = 34.65276 46.14457 40.39866
# Shear Modulus (GPa) = 25.45990 33.82560 29.64275
#
# Velocity S-wave (km/s) = 3.18920 3.67600 3.44122
# Velocity P-wave (km/s) = 5.23496 6.03752 5.65051
#
# Compressibility (1/GPa) = 0.02885773
#
# Stress axis : x y z
#
# Youngs Moduli (GPa) = 116.53232 41.57530 45.26003
#
# Poissons Ratio (x) = 0.13753 0.14157
# Poissons Ratio (y) = 0.38550 0.29417
# Poissons Ratio (z) = 0.36449 0.27022
#
# Static dielectric constant tensor:
#      x y z
#    x 2.125620 0.000000 -0.113170 
#    y 0.000000 2.182170 0.000000 
#    z -0.113170 0.000000 2.110880 
# 
# From -- ./inp_files/135890.got.cif
#   From: 2010.05.17/outbox.cif.g08.bks.cpg/sg15_68_cif.got.tgz:135890.got - 2010.06.03 18:47:42.
