data_PCOD9266043
_publ_section_title
;
Structure prediction by ZEFSAII (Michael W. Deem and Ramdas Pophale) SiO2 
 PCOD9266043
Probable space group: C 2/C
;
_chemical_formula_sum "Si O2"
_cell_formula_units_Z 56
_cell_length_a 16.787262
_cell_length_b 7.154058
_cell_length_c 24.103852
_cell_angle_alpha 90.000000
_cell_angle_beta 52.907212
_cell_angle_gamma 90.000000
_cell_volume 2309.066869
_symmetry_space_group_name_H-M "C 2/C"
_symmetry_group_IT_number 15
_symmetry_cell_setting 'monoclinic'
loop_
_space_group_symop_operation_xyz
x,y,z
-x,y,1/2-z
-x,-y,-z
x,-y,1/2+z
1/2+x,1/2+y,z
1/2-x,1/2+y,1/2-z
1/2-x,1/2-y,-z
1/2+x,1/2-y,1/2+z
loop_
_atom_site_type_symbol
_atom_site_label
_atom_site_fract_x
_atom_site_fract_y
_atom_site_fract_z
Si Si1 0.184053 0.035650 0.043250
Si Si2 0.046949 0.728353 0.517484
Si Si3 0.188061 0.620854 0.172096
Si Si4 0.389796 0.843566 0.672251
Si Si5 0.608628 0.119697 0.091898
Si Si6 0.711951 0.019908 0.393688
Si Si7 0.895956 0.990178 0.105362
O O1 0.125279 0.839226 0.072172
O O2 0.210638 0.109030 0.093953
O O3 0.290427 0.978178 0.971690
O O4 0.121523 0.172776 0.030645
O O5 0.104509 0.541786 0.471207
O O6 0.940563 0.801110 0.586109
O O7 0.048007 0.849477 0.459811
O O8 0.146269 0.613874 0.251276
O O9 0.108308 0.586581 0.157921
O O10 0.283733 0.488327 0.130173
O O11 0.238810 0.818835 0.135136
O O12 0.499245 0.934566 0.615824
O O13 0.312011 0.904507 0.657445
O O14 0.399308 0.618299 0.661926
#
# Coordination Sequence:
#
# PCOD9266043 Si02
#       7
#     8   8   8   8   8   8   8
#     4  10  19  37  59  93 123 142 192 256 304 351
#     4  10  19  37  59  89 121 148 192 250 308 357
#     4  11  22  40  58  85 118 161 205 245 285 365
#     4  11  22  40  58  85 118 163 204 239 290 371
#     4  10  21  35  63  88 115 154 199 244 298 348
#     4  10  24  35  61  89 120 153 195 251 306 342
#     4  10  21  35  62  85 115 157 197 242 306 347
#
# _framework density 24.252220999999999
#
# number of rings (size 3 to 8) (size 9 to 14) (size 15 to 20)
#    0.000    1.714    2.857    1.714    0.000    2.286 
#    0.000    0.000    0.000    0.000    3.714    0.000 
#    0.000    0.000    0.000    0.000    0.000    0.000 
#
# Total GULP energy -156215.582463 kJ/mol
# GULP energy per Si atom -5579.127945 kJ/mol
# Density = 2.419702 g / cm^3
# Si number density = 24.252221 Si / 1000 Ang^3
#
#
#
# Elastic Constant Matrix: (Units=GPa)
#
#
# Indices 1 2 3 4 5 6 
#
# 1 130.0679 11.8998 14.5658 0.0000 22.5836 0.0001
# 2 11.8998 22.1576 -10.3978 -0.0001 0.6992 -0.0007
# 3 14.5658 -10.3978 53.1397 0.0001 24.2075 0.0000
# 4 0.0000 -0.0001 0.0001 17.0413 -0.0001 13.0359
# 5 22.5836 0.6992 24.2075 -0.0001 41.1261 -0.0001
# 6 0.0001 -0.0007 0.0000 13.0359 -0.0001 27.4026
#
#
#
# Elastic Compliance Matrix: (Units=1/GPa)
#
#
# Indices 1 2 3 4 5 6 
#
# 1 0.009069 -0.005624 -0.001860 0.000000 -0.003790 0.000000
# 2 -0.005624 0.055730 0.015674 -0.000001 -0.007085 0.000002
# 3 -0.001860 0.015674 0.030130 -0.000001 -0.016980 0.000001
# 4 0.000000 -0.000001 -0.000001 0.092251 0.000000 -0.043885
# 5 -0.003790 -0.007085 -0.016980 0.000000 0.036512 0.000000
# 6 0.000000 0.000002 0.000001 -0.043885 0.000000 0.057370
#
#
# Mechanical properties :
#
#
# Convention : Reuss Voigt Hill
#
# Bulk Modulus (GPa) = 8.98390 26.38896 17.68643
# Shear Modulus (GPa) = 16.56804 29.73383 23.15094
#
# Velocity S-wave (km/s) = 2.61656 3.50526 3.09300
# Velocity P-wave (km/s) = 3.58342 5.22371 4.47929
#
# Compressibility (1/GPa) = 0.11131029
#
# Stress axis : x y z
#
# Youngs Moduli (GPa) = 110.26452 17.94352 33.18914
#
# Poissons Ratio (x) = 0.10091 0.06173
# Poissons Ratio (y) = 0.62010 -0.52020
# Poissons Ratio (z) = 0.20508 -0.28125
#
# Static dielectric constant tensor:
#      x y z
#    x 1.971420 0.000000 -0.014350 
#    y 0.000000 2.050810 0.000000 
#    z -0.014350 0.000000 1.955700 
# 
# From -- ./inp_files/273051.got.cif
#   From: 2010.05.17/outbox.cif.g08.bks.cpg/sg15_137_cif.got.tgz:273051.got - 2010.06.03 18:47:42.
