data_PCOD9266881
_publ_section_title
;
Structure prediction by ZEFSAII (Michael W. Deem and Ramdas Pophale) SiO2 
 PCOD9266881
Probable space group: C 2/C
;
_chemical_formula_sum "Si O2"
_cell_formula_units_Z 52
_cell_length_a 7.197786
_cell_length_b 12.057082
_cell_length_c 26.423692
_cell_angle_alpha 90.000000
_cell_angle_beta 89.485092
_cell_angle_gamma 90.000000
_cell_volume 2293.068907
_symmetry_space_group_name_H-M "C 2/C"
_symmetry_group_IT_number 15
_symmetry_cell_setting 'monoclinic'
loop_
_space_group_symop_operation_xyz
x,y,z
-x,y,1/2-z
-x,-y,-z
x,-y,1/2+z
1/2+x,1/2+y,z
1/2-x,1/2+y,1/2-z
1/2-x,1/2-y,-z
1/2+x,1/2-y,1/2+z
loop_
_atom_site_type_symbol
_atom_site_label
_atom_site_fract_x
_atom_site_fract_y
_atom_site_fract_z
Si Si1 0.094976 0.389271 0.955338
Si Si2 0.643395 0.181600 0.565238
Si Si3 0.571947 0.127357 0.670176
Si Si4 0.500000 0.957068 0.750000
Si Si5 0.200126 0.052538 0.620592
Si Si6 0.869196 0.880234 0.797485
Si Si7 0.736258 0.239015 0.060705
O O1 0.202565 0.272853 0.946102
O O2 0.201339 0.481672 0.923944
O O3 0.889887 0.369067 0.933299
O O4 0.106532 0.396042 0.016432
O O5 0.679351 0.116846 0.616871
O O6 0.451166 0.250276 0.575503
O O7 0.357180 0.101436 0.657700
O O8 0.595600 0.252874 0.688048
O O9 0.616669 0.037975 0.712704
O O10 0.652237 0.889543 0.781403
O O11 0.132517 0.160427 0.590220
O O12 0.093501 0.964952 0.656090
O O13 0.000000 0.908070 0.750000
O O14 0.750000 0.250000 0.000000
#
# Coordination Sequence:
#
# PCOD9266881 Si02
#       7
#     8   8   8   4   8   8   8
#     4  10  19  38  62  90 129 169 207 250 306 379
#     4   9  19  36  61  89 129 163 203 261 304 362
#     4  10  20  42  64  89 130 155 207 273 303 374
#     4  10  24  44  66  94 114 164 216 252 328 390
#     4  10  22  41  68  95 126 171 216 252 322 387
#     4  11  23  46  67  91 129 163 209 276 320 371
#     4   9  20  37  59  93 131 165 208 256 304 372
#
# _framework density 22.677035
#
# number of rings (size 3 to 8) (size 9 to 14) (size 15 to 20)
#    0.000    2.154    2.308    0.000    0.000    6.769 
#   12.462   10.000    0.000    0.000    0.000    0.000 
#    0.000    0.000    0.000    0.000    0.000    0.000 
#
# Total GULP energy -145057.152705 kJ/mol
# GULP energy per Si atom -5579.121258 kJ/mol
# Density = 2.262542 g / cm^3
# Si number density = 22.677035 Si / 1000 Ang^3
#
#
#
# Elastic Constant Matrix: (Units=GPa)
#
#
# Indices 1 2 3 4 5 6 
#
# 1 52.3366 25.9178 17.9108 0.0000 1.0984 0.0000
# 2 25.9178 111.6971 48.0637 0.0000 9.0698 0.0000
# 3 17.9108 48.0637 128.3416 0.0000 -11.1058 0.0000
# 4 0.0000 0.0000 0.0000 35.1606 0.0000 8.5086
# 5 1.0984 9.0698 -11.1058 0.0000 29.3858 0.0000
# 6 0.0000 0.0000 0.0000 8.5086 0.0000 32.7554
#
#
#
# Elastic Compliance Matrix: (Units=1/GPa)
#
#
# Indices 1 2 3 4 5 6 
#
# 1 0.021787 -0.004474 -0.001360 0.000000 0.000052 0.000000
# 2 -0.004474 0.012342 -0.004459 0.000000 -0.005327 0.000000
# 3 -0.001360 -0.004459 0.010105 0.000000 0.005246 0.000000
# 4 0.000000 0.000000 0.000000 0.030349 0.000000 -0.007883
# 5 0.000052 -0.005327 0.005246 0.000000 0.037655 0.000000
# 6 0.000000 0.000000 0.000000 -0.007883 0.000000 0.032577
#
#
# Mechanical properties :
#
#
# Convention : Reuss Voigt Hill
#
# Bulk Modulus (GPa) = 42.28695 52.90666 47.59681
# Shear Modulus (GPa) = 28.85425 32.82591 30.84008
#
# Velocity S-wave (km/s) = 3.57094 3.80878 3.69178
# Velocity P-wave (km/s) = 5.97412 6.53633 6.26154
#
# Compressibility (1/GPa) = 0.02364796
#
# Stress axis : x y z
#
# Youngs Moduli (GPa) = 45.89836 81.02321 98.95820
#
# Poissons Ratio (x) = 0.36252 0.13462
# Poissons Ratio (y) = 0.20536 0.44122
# Poissons Ratio (z) = 0.06244 0.36126
#
# Static dielectric constant tensor:
#      x y z
#    x 1.902400 0.000000 -0.005510 
#    y 0.000000 1.838790 0.000000 
#    z -0.005510 0.000000 1.911310 
# 
# From -- ./inp_files/287637.got.cif
#   From: 2010.05.17/outbox.cif.g08.bks.cpg/sg15_144_cif.got.tgz:287637.got - 2010.06.03 18:47:42.
