data_PCOD9266525
_publ_section_title
;
Structure prediction by ZEFSAII (Michael W. Deem and Ramdas Pophale) SiO2 
 PCOD9266525
Probable space group: C 2/C
;
_chemical_formula_sum "Si O2"
_cell_formula_units_Z 64
_cell_length_a 21.117453
_cell_length_b 8.269958
_cell_length_c 26.923917
_cell_angle_alpha 90.000000
_cell_angle_beta 35.493111
_cell_angle_gamma 90.000000
_cell_volume 2730.007901
_symmetry_space_group_name_H-M "C 2/C"
_symmetry_group_IT_number 15
_symmetry_cell_setting 'monoclinic'
loop_
_space_group_symop_operation_xyz
x,y,z
-x,y,1/2-z
-x,-y,-z
x,-y,1/2+z
1/2+x,1/2+y,z
1/2-x,1/2+y,1/2-z
1/2-x,1/2-y,-z
1/2+x,1/2-y,1/2+z
loop_
_atom_site_type_symbol
_atom_site_label
_atom_site_fract_x
_atom_site_fract_y
_atom_site_fract_z
Si Si1 0.984244 0.095516 0.085036
Si Si2 0.161767 0.186561 0.834462
Si Si3 0.116673 0.615605 0.457812
Si Si4 0.195675 0.851415 0.578981
Si Si5 0.968524 0.375712 0.919505
Si Si6 0.607263 0.156225 0.791183
Si Si7 0.322952 0.402474 0.489834
Si Si8 0.617612 0.950191 0.174713
O O1 0.935908 0.165558 0.167813
O O2 0.897200 0.981559 0.113550
O O3 0.090893 0.993401 0.029521
O O4 0.025094 0.250339 0.028978
O O5 0.164100 0.325181 0.875275
O O6 0.285639 0.144376 0.741956
O O7 0.075741 0.262274 0.850643
O O8 0.215099 0.627444 0.434960
O O9 0.064615 0.441060 0.504328
O O10 0.250000 0.750000 0.500000
O O11 0.106443 0.724693 0.654935
O O12 0.163590 0.016683 0.572836
O O13 0.866226 0.280346 0.962726
O O14 0.007678 0.535709 0.866533
O O15 0.648417 0.100216 0.711094
O O16 0.207772 0.444588 0.588802
O O17 0.500000 0.032316 0.250000
#
# Coordination Sequence:
#
# PCOD9266525 Si02
#       8
#     8   8   8   8   8   8   8   8
#     4  10  20  36  64  89 124 170 215 269 325 396
#     4  11  21  40  60  94 132 168 221 276 326 388
#     4  11  20  38  62  95 120 174 221 264 326 404
#     4  10  19  37  66  92 123 165 221 269 320 399
#     4  10  25  39  63  96 137 180 212 276 344 405
#     4  11  22  40  63  98 127 175 224 273 345 394
#     4  10  21  42  63  96 130 173 221 271 335 406
#     4  11  22  37  67  96 124 166 227 287 325 396
#
# _framework density 23.443155000000001
#
# number of rings (size 3 to 8) (size 9 to 14) (size 15 to 20)
#    0.000    1.500    3.750    2.250    5.250    1.500 
#    0.000    3.750    0.000    0.000    0.000    0.000 
#    0.000    0.000    0.000    0.000    0.000    0.000 
#
# Total GULP energy -178628.843870 kJ/mol
# GULP energy per Si atom -5582.151371 kJ/mol
# Density = 2.338980 g / cm^3
# Si number density = 23.443155 Si / 1000 Ang^3
#
#
#
# Elastic Constant Matrix: (Units=GPa)
#
#
# Indices 1 2 3 4 5 6 
#
# 1 66.5075 27.9845 26.7652 0.0004 -6.3010 0.0019
# 2 27.9845 104.0265 37.6535 0.0003 -9.4545 0.0056
# 3 26.7652 37.6535 108.4044 -0.0010 -23.2289 0.0008
# 4 0.0004 0.0003 -0.0010 27.9003 -0.0014 -12.8347
# 5 -6.3010 -9.4545 -23.2289 -0.0014 41.3687 0.0014
# 6 0.0019 0.0056 0.0008 -12.8347 0.0014 46.0936
#
#
#
# Elastic Compliance Matrix: (Units=1/GPa)
#
#
# Indices 1 2 3 4 5 6 
#
# 1 0.017839 -0.003663 -0.003102 -0.000001 0.000138 0.000000
# 2 -0.003663 0.011754 -0.003094 -0.000001 0.000391 -0.000001
# 3 -0.003102 -0.003094 0.012292 0.000001 0.005722 0.000000
# 4 -0.000001 -0.000001 0.000001 0.041107 0.000001 0.011446
# 5 0.000138 0.000391 0.005722 0.000001 0.027496 -0.000001
# 6 0.000000 -0.000001 0.000000 0.011446 -0.000001 0.024882
#
#
# Mechanical properties :
#
#
# Convention : Reuss Voigt Hill
#
# Bulk Modulus (GPa) = 45.11819 51.52721 48.32270
# Shear Modulus (GPa) = 30.77315 35.50818 33.14067
#
# Velocity S-wave (km/s) = 3.62701 3.89607 3.76395
# Velocity P-wave (km/s) = 6.06860 6.50127 6.28866
#
# Compressibility (1/GPa) = 0.02216401
#
# Stress axis : x y z
#
# Youngs Moduli (GPa) = 56.05702 85.07717 81.35563
#
# Poissons Ratio (x) = 0.31167 0.25240
# Poissons Ratio (y) = 0.20536 0.25175
# Poissons Ratio (z) = 0.17392 0.26327
#
# Static dielectric constant tensor:
#      x y z
#    x 1.983550 0.000000 0.022750 
#    y 0.000000 1.956320 0.000000 
#    z 0.022750 0.000000 1.938850 
# 
# From -- ./inp_files/318614.got.cif
#   From: 2010.05.17/outbox.cif.g08.bks.cpg/sg15_160_cif.got.tgz:318614.got - 2010.06.03 18:47:42.
