data_PCOD9266268
_publ_section_title
;
Structure prediction by ZEFSAII (Michael W. Deem and Ramdas Pophale) SiO2 
 PCOD9266268
Probable space group: C 2/C
;
_chemical_formula_sum "Si O2"
_cell_formula_units_Z 56
_cell_length_a 8.470586
_cell_length_b 15.685042
_cell_length_c 23.206105
_cell_angle_alpha 90.000000
_cell_angle_beta 55.713110
_cell_angle_gamma 90.000000
_cell_volume 2547.421975
_symmetry_space_group_name_H-M "C 2/C"
_symmetry_group_IT_number 15
_symmetry_cell_setting 'monoclinic'
loop_
_space_group_symop_operation_xyz
x,y,z
-x,y,1/2-z
-x,-y,-z
x,-y,1/2+z
1/2+x,1/2+y,z
1/2-x,1/2+y,1/2-z
1/2-x,1/2-y,-z
1/2+x,1/2-y,1/2+z
loop_
_atom_site_type_symbol
_atom_site_label
_atom_site_fract_x
_atom_site_fract_y
_atom_site_fract_z
Si Si1 0.545776 0.297317 0.039062
Si Si2 0.059727 0.823039 0.911540
Si Si3 0.379566 0.269832 0.720900
Si Si4 0.995482 0.311108 0.846550
Si Si5 0.169104 0.902078 0.255307
Si Si6 0.925797 0.028084 0.603509
Si Si7 0.488478 0.994134 0.823497
O O1 0.443766 0.250960 0.113816
O O2 0.555936 0.399171 0.048110
O O3 0.750000 0.250000 0.000000
O O4 0.469612 0.289800 0.989534
O O5 0.004085 0.786969 0.861052
O O6 0.282032 0.789340 0.869381
O O7 0.043280 0.926870 0.912290
O O8 0.500000 0.300897 0.750000
O O9 0.170679 0.313805 0.765793
O O10 0.316311 0.172219 0.741740
O O11 0.964439 0.409644 0.866093
O O12 0.075332 0.948980 0.328768
O O13 0.312968 0.967547 0.196736
O O14 0.000000 0.869006 0.250000
O O15 0.706981 0.046014 0.628442
O O16 0.500000 0.981267 0.750000
#
# Coordination Sequence:
#
# PCOD9266268 Si02
#       7
#     8   8   8   8   8   8   8
#     4  10  21  36  62  93 125 166 211 252 300 371
#     4  10  22  38  62  92 123 166 209 248 310 371
#     4  12  23  37  62  90 125 159 203 261 311 367
#     4  10  19  37  62  88 123 160 202 253 305 367
#     4  11  22  35  62  92 122 153 207 264 312 366
#     4  10  19  38  61  88 127 165 204 252 306 373
#     4   9  19  35  59  89 124 162 205 253 319 365
#
# _framework density 21.983008999999999
#
# number of rings (size 3 to 8) (size 9 to 14) (size 15 to 20)
#    0.000    1.714    1.429    5.571    2.000    2.286 
#    0.000    0.714    0.000    0.857    0.000    0.000 
#    0.000    0.000    0.000    0.000    0.000    0.000 
#
# Total GULP energy -155917.145811 kJ/mol
# GULP energy per Si atom -5568.469493 kJ/mol
# Density = 2.193297 g / cm^3
# Si number density = 21.983009 Si / 1000 Ang^3
#
#
#
# Elastic Constant Matrix: (Units=GPa)
#
#
# Indices 1 2 3 4 5 6 
#
# 1 46.3261 20.2630 8.6654 0.0000 14.5728 0.0000
# 2 20.2630 76.1679 31.3904 0.0000 9.6038 0.0000
# 3 8.6654 31.3904 82.1865 0.0000 17.0569 0.0001
# 4 0.0000 0.0000 0.0000 28.4276 0.0000 -3.8548
# 5 14.5728 9.6038 17.0569 0.0000 20.4762 0.0000
# 6 0.0000 0.0000 0.0001 -3.8548 0.0000 25.8982
#
#
#
# Elastic Compliance Matrix: (Units=1/GPa)
#
#
# Indices 1 2 3 4 5 6 
#
# 1 0.030849 -0.007091 0.004017 0.000000 -0.021975 0.000000
# 2 -0.007091 0.017350 -0.006332 0.000000 0.002184 0.000000
# 3 0.004017 -0.006332 0.017095 0.000000 -0.014129 0.000000
# 4 0.000000 0.000000 0.000000 0.035902 0.000000 0.005344
# 5 -0.021975 0.002184 -0.014129 0.000000 0.075221 0.000000
# 6 0.000000 0.000000 0.000000 0.005344 0.000000 0.039408
#
#
# Mechanical properties :
#
#
# Convention : Reuss Voigt Hill
#
# Bulk Modulus (GPa) = 21.51482 36.14643 28.83062
# Shear Modulus (GPa) = 19.98946 24.58454 22.28700
#
# Velocity S-wave (km/s) = 3.01875 3.34779 3.18752
# Velocity P-wave (km/s) = 4.68602 5.60555 5.16628
#
# Compressibility (1/GPa) = 0.04647960
#
# Stress axis : x y z
#
# Youngs Moduli (GPa) = 32.41574 57.63820 58.49752
#
# Poissons Ratio (x) = 0.40873 -0.23496
# Poissons Ratio (y) = 0.22987 0.37042
# Poissons Ratio (z) = -0.13020 0.36497
#
# Static dielectric constant tensor:
#      x y z
#    x 1.838440 0.000000 0.006860 
#    y 0.000000 1.898050 0.000000 
#    z 0.006860 0.000000 1.909310 
# 
# From -- ./inp_files/232585.got.cif
#   From: 2010.05.17/outbox.cif.g08.bks.cpg/sg15_117_cif.got.tgz:232585.got - 2010.06.03 18:47:42.
