data_PCOD9267645
_publ_section_title
;
Structure prediction by ZEFSAII (Michael W. Deem and Ramdas Pophale) SiO2 
 PCOD9267645
Probable space group: C 2/C
;
_chemical_formula_sum "Si O2"
_cell_formula_units_Z 48
_cell_length_a 17.325958
_cell_length_b 16.646038
_cell_length_c 7.362330
_cell_angle_alpha 90.000000
_cell_angle_beta 96.167534
_cell_angle_gamma 90.000000
_cell_volume 2111.068959
_symmetry_space_group_name_H-M "C 2/C"
_symmetry_group_IT_number 15
_symmetry_cell_setting 'monoclinic'
loop_
_space_group_symop_operation_xyz
x,y,z
-x,y,1/2-z
-x,-y,-z
x,-y,1/2+z
1/2+x,1/2+y,z
1/2-x,1/2+y,1/2-z
1/2-x,1/2-y,-z
1/2+x,1/2-y,1/2+z
loop_
_atom_site_type_symbol
_atom_site_label
_atom_site_fract_x
_atom_site_fract_y
_atom_site_fract_z
Si Si1 0.642655 0.887344 0.994574
Si Si2 0.685660 0.382096 0.514168
Si Si3 0.351533 0.073079 0.580764
Si Si4 0.484998 0.809798 0.029577
Si Si5 0.423047 0.347676 0.315846
Si Si6 0.179444 0.067465 0.409700
O O1 0.725298 0.854164 0.949943
O O2 0.651875 0.898075 0.213511
O O3 0.564170 0.838000 0.953970
O O4 0.635241 0.977502 0.914823
O O5 0.633450 0.329904 0.368090
O O6 0.683677 0.470772 0.419831
O O7 0.844630 0.102976 0.290592
O O8 0.421700 0.119098 0.503070
O O9 0.268502 0.091973 0.471442
O O10 0.500000 0.796392 0.250000
O O11 0.451366 0.731025 0.928071
O O12 0.500000 0.388095 0.250000
O O13 0.377105 0.400921 0.449358
#
# Coordination Sequence:
#
# PCOD9267645 Si02
#       6
#     8   8   8   8   8   8
#     4  10  19  40  71 103 136 176 229 278 342 406
#     4  11  22  45  73 103 128 177 228 288 337 401
#     4  10  19  39  71 104 136 176 226 286 335 405
#     4  10  25  44  63 100 144 184 223 275 347 413
#     4  12  28  45  66  98 141 179 228 282 346 404
#     4  11  22  44  73 102 133 171 236 283 337 402
#
# _framework density 22.737297000000002
#
# number of rings (size 3 to 8) (size 9 to 14) (size 15 to 20)
#    0.000    1.333    3.333    3.500    2.333    4.000 
#    0.000    1.667    0.000    0.000    0.000    0.000 
#    0.000    0.000    0.000    0.000    0.000    0.000 
#
# Total GULP energy -134372.504479 kJ/mol
# GULP energy per Si atom -5598.854353 kJ/mol
# Density = 2.268555 g / cm^3
# Si number density = 22.737297 Si / 1000 Ang^3
#
#
#
# Elastic Constant Matrix: (Units=GPa)
#
#
# Indices 1 2 3 4 5 6 
#
# 1 169.7039 64.3866 54.0786 0.0000 -10.5925 0.0000
# 2 64.3866 60.5832 21.0447 0.0000 8.2104 0.0000
# 3 54.0786 21.0447 108.9383 0.0000 -5.3352 0.0000
# 4 0.0000 0.0000 0.0000 -108.2643 0.0000 -154.4958
# 5 -10.5925 8.2104 -5.3352 0.0000 34.1513 0.0000
# 6 0.0000 0.0000 0.0000 -154.4958 0.0000 -86.3181
#
#
#
# Elastic Compliance Matrix: (Units=1/GPa)
#
#
# Indices 1 2 3 4 5 6 
#
# 1 0.012092 -0.012564 -0.003269 0.000000 0.006260 0.000000
# 2 -0.012564 0.031574 -0.000428 0.000000 -0.011554 0.000000
# 3 -0.003269 -0.000428 0.010924 0.000000 0.000796 0.000000
# 4 0.000000 0.000000 0.000000 0.005943 0.000000 -0.010637
# 5 0.006260 -0.011554 0.000796 0.000000 0.034125 0.000000
# 6 0.000000 0.000000 0.000000 -0.010637 0.000000 0.007454
#
#
# Mechanical properties :
#
#
# Convention : Reuss Voigt Hill
#
# Bulk Modulus (GPa) = 45.31631 68.69391 57.00511
# Shear Modulus (GPa) = 35.21373 -18.77185 8.22094
#
# Velocity S-wave (km/s) = 3.93965 -2.87644 1.90354
# Velocity P-wave (km/s) = 6.37715 4.38699 5.47329
#
# Compressibility (1/GPa) = 0.02206711
#
# Stress axis : x y z
#
# Youngs Moduli (GPa) = 82.70027 31.67208 91.54201
#
# Poissons Ratio (x) = 0.39792 0.29924
# Poissons Ratio (y) = 1.03904 0.03921
# Poissons Ratio (z) = 0.27034 0.01357
#
# Static dielectric constant tensor:
#      x y z
#    x 1.847270 0.000000 0.007170 
#    y 0.000000 1.833250 0.000000 
#    z 0.007170 0.000000 1.857340 
# 
# From -- ./inp_files/48038.got.cif
#   From: 2010.05.17/outbox.cif.g08.bks.cpg/sg15_25_cif.got.tgz:48038.got - 2010.06.03 18:47:42.
