data_PCOD9267106
_publ_section_title
;
Structure prediction by ZEFSAII (Michael W. Deem and Ramdas Pophale) SiO2 
 PCOD9267106
Probable space group: C 2/C
;
_chemical_formula_sum "Si O2"
_cell_formula_units_Z 60
_cell_length_a 24.959584
_cell_length_b 12.915847
_cell_length_c 15.987924
_cell_angle_alpha 90.000000
_cell_angle_beta 148.217922
_cell_angle_gamma 90.000000
_cell_volume 2714.609224
_symmetry_space_group_name_H-M "C 2/C"
_symmetry_group_IT_number 15
_symmetry_cell_setting 'monoclinic'
loop_
_space_group_symop_operation_xyz
x,y,z
-x,y,1/2-z
-x,-y,-z
x,-y,1/2+z
1/2+x,1/2+y,z
1/2-x,1/2+y,1/2-z
1/2-x,1/2-y,-z
1/2+x,1/2-y,1/2+z
loop_
_atom_site_type_symbol
_atom_site_label
_atom_site_fract_x
_atom_site_fract_y
_atom_site_fract_z
Si Si1 0.711160 0.637920 0.475717
Si Si2 0.337524 0.759419 0.686695
Si Si3 0.000000 0.920239 0.750000
Si Si4 0.683879 0.392641 0.751443
Si Si5 0.106594 0.507129 0.280176
Si Si6 0.318770 0.763235 0.380054
Si Si7 0.615728 0.990937 0.995889
Si Si8 0.020625 0.099678 0.908246
O O1 0.750000 0.750000 0.500000
O O2 0.605988 0.641738 0.386916
O O3 0.683608 0.589702 0.348628
O O4 0.802365 0.566149 0.631113
O O5 0.250000 0.750000 0.500000
O O6 0.380304 0.875835 0.734985
O O7 0.284374 0.740291 0.705094
O O8 0.422299 0.671355 0.787325
O O9 0.995235 0.998722 0.666337
O O10 0.692844 0.274073 0.731000
O O11 0.579309 0.427928 0.571350
O O12 0.783224 0.447493 0.845432
O O13 0.113006 0.509207 0.390586
O O14 0.991568 0.468471 0.111299
O O15 0.393871 0.676240 0.519410
O O16 0.369755 0.873585 0.456134
#
# Coordination Sequence:
#
# PCOD9267106 Si02
#       8
#     8   8   4   8   8   8   8   8
#     4  11  26  49  67  96 129 188 239 274 325 411
#     4  12  20  35  67 101 138 164 216 284 352 419
#     4  12  26  44  74  96 132 174 230 288 344 408
#     4   9  24  45  61  96 137 173 230 271 334 409
#     4  10  20  37  67  98 125 167 224 285 332 397
#     4  10  21  39  61  97 134 175 212 273 346 404
#     4  10  19  38  65  92 129 174 214 274 338 395
#     4  10  23  42  65 106 136 170 217 283 355 408
#
# _framework density 22.102629
#
# number of rings (size 3 to 8) (size 9 to 14) (size 15 to 20)
#    0.800    0.800    2.667    2.400    1.867    3.733 
#    4.800    0.667    0.000    0.000    0.000    0.000 
#    0.000    0.000    0.000    0.000    0.000    0.000 
#
# Total GULP energy -167486.130147 kJ/mol
# GULP energy per Si atom -5582.871005 kJ/mol
# Density = 2.205232 g / cm^3
# Si number density = 22.102629 Si / 1000 Ang^3
#
#
#
# Elastic Constant Matrix: (Units=GPa)
#
#
# Indices 1 2 3 4 5 6 
#
# 1 72.8278 16.6216 34.5565 0.0000 40.7225 0.0000
# 2 16.6216 80.2197 44.7796 0.0000 34.0845 0.0000
# 3 34.5565 44.7796 115.2025 0.0000 40.5316 0.0000
# 4 0.0000 0.0000 0.0000 32.8394 0.0000 15.5332
# 5 40.7225 34.0845 40.5316 0.0000 45.2079 0.0000
# 6 0.0000 0.0000 0.0000 15.5332 0.0000 20.9819
#
#
#
# Elastic Compliance Matrix: (Units=1/GPa)
#
#
# Indices 1 2 3 4 5 6 
#
# 1 0.030798 0.008138 -0.000704 0.000000 -0.033246 0.000000
# 2 0.008138 0.021397 -0.003657 0.000000 -0.020184 0.000000
# 3 -0.000704 -0.003657 0.013322 0.000000 -0.008552 0.000000
# 4 0.000000 0.000000 0.000000 0.046861 0.000000 -0.034692
# 5 -0.033246 -0.020184 -0.008552 0.000000 0.074953 0.000000
# 6 0.000000 0.000000 0.000000 -0.034692 0.000000 0.073343
#
#
# Mechanical properties :
#
#
# Convention : Reuss Voigt Hill
#
# Bulk Modulus (GPa) = 13.68547 51.12949 32.40748
# Shear Modulus (GPa) = 18.01949 31.29199 24.65574
#
# Velocity S-wave (km/s) = 2.85838 3.76674 3.34355
# Velocity P-wave (km/s) = 4.13510 6.48851 5.44058
#
# Compressibility (1/GPa) = 0.07307021
#
# Stress axis : x y z
#
# Youngs Moduli (GPa) = 32.46964 46.73590 75.06340
#
# Poissons Ratio (x) = -0.38033 0.05288
# Poissons Ratio (y) = -0.26423 0.27449
# Poissons Ratio (z) = 0.02287 0.17090
#
# Static dielectric constant tensor:
#      x y z
#    x 1.958480 0.000000 -0.155920 
#    y 0.000000 1.810730 0.000000 
#    z -0.155920 0.000000 2.059470 
# 
# From -- ./inp_files/222572.got.cif
#   From: 2010.05.17/outbox.cif.g08.bks.cpg/sg15_112_cif.got.tgz:222572.got - 2010.06.03 18:47:42.
