data_PCOD9267522
_publ_section_title
;
Structure prediction by ZEFSAII (Michael W. Deem and Ramdas Pophale) SiO2 
 PCOD9267522
Probable space group: C 2/C
;
_chemical_formula_sum "Si O2"
_cell_formula_units_Z 56
_cell_length_a 26.567100
_cell_length_b 18.287641
_cell_length_c 18.295428
_cell_angle_alpha 90.000000
_cell_angle_beta 163.815270
_cell_angle_gamma 90.000000
_cell_volume 2477.628435
_symmetry_space_group_name_H-M "C 2/C"
_symmetry_group_IT_number 15
_symmetry_cell_setting 'monoclinic'
loop_
_space_group_symop_operation_xyz
x,y,z
-x,y,1/2-z
-x,-y,-z
x,-y,1/2+z
1/2+x,1/2+y,z
1/2-x,1/2+y,1/2-z
1/2-x,1/2-y,-z
1/2+x,1/2-y,1/2+z
loop_
_atom_site_type_symbol
_atom_site_label
_atom_site_fract_x
_atom_site_fract_y
_atom_site_fract_z
Si Si1 0.167160 0.786532 0.312667
Si Si2 0.262528 0.132795 0.627029
Si Si3 0.795820 0.611326 0.500034
Si Si4 0.304771 0.022865 0.195170
Si Si5 0.310634 0.947997 0.529565
Si Si6 0.228559 0.224052 0.294060
Si Si7 0.670637 0.833540 0.707493
O O1 0.250000 0.750000 0.500000
O O2 0.208122 0.872671 0.369112
O O3 0.238911 0.737657 0.345141
O O4 0.954328 0.772988 0.008445
O O5 0.277723 0.129271 0.560611
O O6 0.174106 0.203329 0.540599
O O7 0.195245 0.052261 0.553940
O O8 0.464303 0.146986 0.940800
O O9 0.732000 0.527637 0.398040
O O10 0.686749 0.672735 0.304397
O O11 0.000000 0.614421 0.750000
O O12 0.329455 0.044069 0.144252
O O13 0.225062 0.092822 0.125738
O O14 0.500000 0.000000 0.500000
O O15 0.500000 0.942285 0.750000
O O16 0.349809 0.181750 0.405794
#
# Coordination Sequence:
#
# PCOD9267522 Si02
#       7
#     8   8   8   8   8   8   8
#     4  11  24  39  55  85 123 161 200 241 298 351
#     4   9  19  36  61  90 116 152 193 246 295 361
#     4  10  19  39  65  88 117 153 198 247 301 354
#     4   9  18  35  60  86 116 147 200 246 287 349
#     4  10  22  37  62  88 114 158 203 245 293 354
#     4  11  23  37  60  92 120 158 195 247 303 350
#     4  10  20  36  59  86 119 152 201 241 297 351
#
# _framework density 22.602260000000001
#
# number of rings (size 3 to 8) (size 9 to 14) (size 15 to 20)
#    0.000    2.000    2.857    0.429    4.000    0.571 
#    0.000    0.000    0.000    0.000    0.000    0.000 
#    0.000    0.000    0.000    0.000    0.000    0.000 
#
# Total GULP energy -155974.545626 kJ/mol
# GULP energy per Si atom -5570.519487 kJ/mol
# Density = 2.255082 g / cm^3
# Si number density = 22.602260 Si / 1000 Ang^3
#
#
#
# Elastic Constant Matrix: (Units=GPa)
#
#
# Indices 1 2 3 4 5 6 
#
# 1 64.5030 75.3807 -9.4446 0.0000 -18.0683 0.0000
# 2 75.3807 135.0571 20.3197 0.0000 -22.7574 0.0000
# 3 -9.4446 20.3197 56.7577 0.0000 -11.3734 0.0000
# 4 0.0000 0.0000 0.0000 12.5526 0.0000 -12.9455
# 5 -18.0683 -22.7574 -11.3734 0.0000 24.9411 0.0000
# 6 0.0000 0.0000 0.0000 -12.9455 0.0000 25.5685
#
#
#
# Elastic Compliance Matrix: (Units=1/GPa)
#
#
# Indices 1 2 3 4 5 6 
#
# 1 0.092531 -0.051301 0.041619 -0.000001 0.039202 -0.000001
# 2 -0.051301 0.037341 -0.024790 0.000000 -0.014397 0.000000
# 3 0.041619 -0.024790 0.038441 -0.000001 0.025060 0.000000
# 4 -0.000001 0.000000 -0.000001 0.166719 -0.000001 0.084411
# 5 0.039202 -0.014397 0.025060 -0.000001 0.066785 0.000000
# 6 -0.000001 0.000000 0.000000 0.084411 0.000000 0.081849
#
#
# Mechanical properties :
#
#
# Convention : Reuss Voigt Hill
#
# Bulk Modulus (GPa) = 10.06354 47.64770 28.85562
# Shear Modulus (GPa) = 8.53631 23.94989 16.24310
#
# Velocity S-wave (km/s) = 1.94549 3.25872 2.68367
# Velocity P-wave (km/s) = 3.08362 5.94018 4.73257
#
# Compressibility (1/GPa) = 0.09936864
#
# Stress axis : x y z
#
# Youngs Moduli (GPa) = 10.80721 26.78003 26.01390
#
# Poissons Ratio (x) = 1.37385 -1.08267
# Poissons Ratio (y) = 0.55442 0.64489
# Poissons Ratio (z) = -0.44979 0.66388
#
# Static dielectric constant tensor:
#      x y z
#    x 1.957470 0.000000 -0.071510 
#    y 0.000000 2.051930 0.000000 
#    z -0.071510 0.000000 0.034910 
# 
# From -- ./inp_files/222961.got.cif
#   From: 2010.05.17/outbox.cif.g08.bks.cpg/sg15_112_cif.got.tgz:222961.got - 2010.06.03 18:47:42.
