data_PCOD9267597
_publ_section_title
;
Structure prediction by ZEFSAII (Michael W. Deem and Ramdas Pophale) SiO2 
 PCOD9267597
Probable space group: C 2/C
;
_chemical_formula_sum "Si O2"
_cell_formula_units_Z 56
_cell_length_a 25.554426
_cell_length_b 9.119358
_cell_length_c 14.252759
_cell_angle_alpha 90.000000
_cell_angle_beta 39.427935
_cell_angle_gamma 90.000000
_cell_volume 2109.484636
_symmetry_space_group_name_H-M "C 2/C"
_symmetry_group_IT_number 15
_symmetry_cell_setting 'monoclinic'
loop_
_space_group_symop_operation_xyz
x,y,z
-x,y,1/2-z
-x,-y,-z
x,-y,1/2+z
1/2+x,1/2+y,z
1/2-x,1/2+y,1/2-z
1/2-x,1/2-y,-z
1/2+x,1/2-y,1/2+z
loop_
_atom_site_type_symbol
_atom_site_label
_atom_site_fract_x
_atom_site_fract_y
_atom_site_fract_z
Si Si1 0.680636 0.975293 0.538829
Si Si2 0.141414 0.000065 0.200902
Si Si3 0.569516 0.692093 0.456035
Si Si4 0.441724 0.189792 0.986490
Si Si5 0.165249 0.193102 0.002362
Si Si6 0.500000 0.605392 0.750000
Si Si7 0.319015 0.969346 0.242399
Si Si8 0.000000 0.524482 0.250000
O O1 0.685261 0.133407 0.480311
O O2 0.671302 0.001915 0.661450
O O3 0.592046 0.908031 0.631964
O O4 0.773480 0.910820 0.399288
O O5 0.077224 0.945037 0.211435
O O6 0.102246 0.052054 0.352446
O O7 0.165575 0.148077 0.110467
O O8 0.490377 0.747865 0.506693
O O9 0.549977 0.666657 0.590572
O O10 0.632279 0.826381 0.358581
O O11 0.360008 0.109395 0.137314
O O12 0.419663 0.309708 0.938118
O O13 0.493327 0.072485 0.854139
O O14 0.224940 0.082444 0.864903
#
# Coordination Sequence:
#
# PCOD9267597 Si02
#       8
#     8   8   8   8   8   4   8   4
#     4  10  19  39  68 100 130 167 237 288 321 403
#     4  11  21  45  72  93 133 187 237 287 336 408
#     4  12  23  46  66  95 143 176 237 287 341 422
#     4  11  23  39  68 101 138 180 228 286 349 405
#     4  10  20  41  70 103 127 175 241 286 327 423
#     4  12  30  42  66 104 138 192 224 284 362 416
#     4  11  21  39  68  98 139 182 222 286 352 400
#     4  10  20  38  66 106 126 176 232 266 340 418
#
# _framework density 26.546771
#
# number of rings (size 3 to 8) (size 9 to 14) (size 15 to 20)
#    0.000    1.143    4.286    3.429    0.000    3.429 
#    7.714    0.000    0.000    4.286    0.000    0.000 
#    0.000    0.000    0.000    0.000    0.000    0.000 
#
# Total GULP energy -156307.811611 kJ/mol
# GULP energy per Si atom -5582.421843 kJ/mol
# Density = 2.648635 g / cm^3
# Si number density = 26.546771 Si / 1000 Ang^3
#
#
#
# Elastic Constant Matrix: (Units=GPa)
#
#
# Indices 1 2 3 4 5 6 
#
# 1 189.1708 34.6821 87.1533 0.0000 1.3185 0.0000
# 2 34.6821 27.5923 47.0194 -0.0005 4.1505 0.0002
# 3 87.1533 47.0194 167.3119 -0.0002 20.1445 0.0001
# 4 0.0000 -0.0005 -0.0002 13.8045 0.0002 18.7632
# 5 1.3185 4.1505 20.1445 0.0002 60.4254 0.0000
# 6 0.0000 0.0002 0.0001 18.7632 0.0000 16.8440
#
#
#
# Elastic Compliance Matrix: (Units=1/GPa)
#
#
# Indices 1 2 3 4 5 6 
#
# 1 0.007385 -0.005125 -0.002531 0.000001 0.001035 -0.000001
# 2 -0.005125 0.073295 -0.018061 -0.000007 0.001098 0.000007
# 3 -0.002531 -0.018061 0.012726 0.000001 -0.002947 -0.000001
# 4 0.000001 -0.000007 0.000001 -0.140914 0.000000 0.156969
# 5 0.001035 0.001098 -0.002947 0.000000 0.017434 0.000000
# 6 -0.000001 0.000007 -0.000001 0.156969 0.000000 -0.115486
#
#
# Mechanical properties :
#
#
# Convention : Reuss Voigt Hill
#
# Bulk Modulus (GPa) = 23.82514 80.19829 52.01172
# Shear Modulus (GPa) = -62.39325 32.56280 -14.91522
#
# Velocity S-wave (km/s) = -4.85326 3.50611 -2.37290
# Velocity P-wave (km/s) = 4.73406 6.83127 3.48245
#
# Compressibility (1/GPa) = 0.04197247
#
# Stress axis : x y z
#
# Youngs Moduli (GPa) = 135.41591 13.64347 78.58093
#
# Poissons Ratio (x) = 0.06992 0.19890
# Poissons Ratio (y) = 0.69394 1.41924
# Poissons Ratio (z) = 0.34276 0.24641
#
# Static dielectric constant tensor:
#      x y z
#    x 2.091800 0.000000 -0.102240 
#    y 0.000000 2.225080 0.000000 
#    z -0.102240 0.000000 2.134560 
# 
# From -- ./inp_files/177586.got.cif
#   From: 2010.05.17/outbox.cif.g08.bks.cpg/sg15_89_cif.got.tgz:177586.got - 2010.06.03 18:47:42.
