data_PCOD9267040
_publ_section_title
;
Structure prediction by ZEFSAII (Michael W. Deem and Ramdas Pophale) SiO2 
 PCOD9267040
Probable space group: C 2/C
;
_chemical_formula_sum "Si O2"
_cell_formula_units_Z 56
_cell_length_a 17.689952
_cell_length_b 28.965578
_cell_length_c 8.540421
_cell_angle_alpha 90.000000
_cell_angle_beta 42.140532
_cell_angle_gamma 90.000000
_cell_volume 2936.156203
_symmetry_space_group_name_H-M "C 2/C"
_symmetry_group_IT_number 15
_symmetry_cell_setting 'monoclinic'
loop_
_space_group_symop_operation_xyz
x,y,z
-x,y,1/2-z
-x,-y,-z
x,-y,1/2+z
1/2+x,1/2+y,z
1/2-x,1/2+y,1/2-z
1/2-x,1/2-y,-z
1/2+x,1/2-y,1/2+z
loop_
_atom_site_type_symbol
_atom_site_label
_atom_site_fract_x
_atom_site_fract_y
_atom_site_fract_z
Si Si1 0.000000 0.635364 0.750000
Si Si2 0.184343 0.437904 0.859827
Si Si3 0.135025 0.796718 0.797647
Si Si4 0.367538 0.966116 0.916313
Si Si5 0.276353 0.382964 0.252604
Si Si6 0.854501 0.691353 0.743522
Si Si7 0.000000 0.852889 0.750000
Si Si8 0.370131 0.376302 0.457278
O O1 0.957590 0.666747 0.672407
O O2 0.100871 0.601997 0.544825
O O3 0.149887 0.453794 0.738408
O O4 0.305266 0.413998 0.660937
O O5 0.174101 0.482248 0.984992
O O6 0.114749 0.742782 0.857363
O O7 0.254095 0.802499 0.525074
O O8 0.041907 0.820028 0.827153
O O9 0.139049 0.826776 0.947102
O O10 0.500000 0.963041 0.750000
O O11 0.295656 0.930066 0.131281
O O12 0.197277 0.342073 0.308631
O O13 0.314987 0.374810 0.371328
O O14 0.391083 0.381896 0.973441
O O15 0.500000 0.389149 0.250000
#
# Coordination Sequence:
#
# PCOD9267040 Si02
#       8
#     4   8   8   8   8   8   4   8
#     4  12  21  40  66  94 130 162 206 261 312 372
#     4  11  25  39  65  90 124 165 208 260 317 376
#     4  10  20  38  63  88 126 163 211 252 312 371
#     4  11  23  41  62  93 122 163 208 259 319 376
#     4  10  23  39  63  92 127 161 216 258 313 377
#     4  10  22  37  62  95 120 165 208 258 302 380
#     4  10  19  38  64  90 120 172 208 261 312 370
#     4  11  22  44  61  91 127 170 203 264 318 369
#
# _framework density 19.072555000000001
#
# number of rings (size 3 to 8) (size 9 to 14) (size 15 to 20)
#    0.000    1.429    3.571    1.714    2.000    0.571 
#    1.286    5.000    0.000    0.000    0.000    0.000 
#    0.000    0.000    0.000    0.000    0.000    0.000 
#
# Total GULP energy -156448.301223 kJ/mol
# GULP energy per Si atom -5587.439329 kJ/mol
# Density = 1.902915 g / cm^3
# Si number density = 19.072555 Si / 1000 Ang^3
#
#
#
# Elastic Constant Matrix: (Units=GPa)
#
#
# Indices 1 2 3 4 5 6 
#
# 1 74.8825 49.5771 24.2911 0.0000 -7.2320 0.0000
# 2 49.5771 145.6484 50.4392 0.0000 -13.4215 0.0000
# 3 24.2911 50.4392 70.7989 0.0000 -20.6652 0.0000
# 4 0.0000 0.0000 0.0000 64.4363 0.0000 18.8437
# 5 -7.2320 -13.4215 -20.6652 0.0000 24.2907 0.0000
# 6 0.0000 0.0000 0.0000 18.8437 0.0000 34.5740
#
#
#
# Elastic Compliance Matrix: (Units=1/GPa)
#
#
# Indices 1 2 3 4 5 6 
#
# 1 0.017531 -0.005163 -0.002190 0.000000 0.000504 0.000000
# 2 -0.005163 0.010643 -0.006044 0.000000 -0.000798 0.000000
# 3 -0.002190 -0.006044 0.023968 0.000000 0.016400 0.000000
# 4 0.000000 0.000000 0.000000 0.018462 0.000000 -0.010062
# 5 0.000504 -0.000798 0.016400 0.000000 0.054829 0.000000
# 6 0.000000 0.000000 0.000000 -0.010062 0.000000 0.034408
#
#
# Mechanical properties :
#
#
# Convention : Reuss Voigt Hill
#
# Bulk Modulus (GPa) = 39.44817 59.99382 49.72100
# Shear Modulus (GPa) = 25.63009 35.79503 30.71256
#
# Velocity S-wave (km/s) = 3.66979 4.33688 4.01721
# Velocity P-wave (km/s) = 6.21970 7.52343 6.90241
#
# Compressibility (1/GPa) = 0.02534972
#
# Stress axis : x y z
#
# Youngs Moduli (GPa) = 57.04082 93.96180 41.72144
#
# Poissons Ratio (x) = 0.48509 0.09136
# Poissons Ratio (y) = 0.29448 0.25216
# Poissons Ratio (z) = 0.12491 0.56789
#
# Static dielectric constant tensor:
#      x y z
#    x 1.681260 0.000000 -0.011430 
#    y 0.000000 1.637650 0.000000 
#    z -0.011430 0.000000 1.676320 
# 
# From -- ./inp_files/34231.got.cif
#   From: 2010.05.17/outbox.cif.g08.bks.cpg/sg15_18_cif.got.tgz:34231.got - 2010.06.03 18:47:42.
