data_PCOD9267791
_publ_section_title
;
Structure prediction by ZEFSAII (Michael W. Deem and Ramdas Pophale) SiO2 
 PCOD9267791
Probable space group: C 2/C
;
_chemical_formula_sum "Si O2"
_cell_formula_units_Z 40
_cell_length_a 16.685520
_cell_length_b 11.411717
_cell_length_c 19.874311
_cell_angle_alpha 90.000000
_cell_angle_beta 149.388084
_cell_angle_gamma 90.000000
_cell_volume 1927.030675
_symmetry_space_group_name_H-M "C 2/C"
_symmetry_group_IT_number 15
_symmetry_cell_setting 'monoclinic'
loop_
_space_group_symop_operation_xyz
x,y,z
-x,y,1/2-z
-x,-y,-z
x,-y,1/2+z
1/2+x,1/2+y,z
1/2-x,1/2+y,1/2-z
1/2-x,1/2-y,-z
1/2+x,1/2-y,1/2+z
loop_
_atom_site_type_symbol
_atom_site_label
_atom_site_fract_x
_atom_site_fract_y
_atom_site_fract_z
Si Si1 0.031788 0.481779 0.638785
Si Si2 0.606627 0.459393 0.233554
Si Si3 0.725219 0.384146 0.462994
Si Si4 0.849590 0.083245 0.883650
Si Si5 0.640976 0.151352 0.088005
O O1 0.894011 0.444689 0.588797
O O2 0.964374 0.587562 0.544290
O O3 0.191588 0.517264 0.790525
O O4 0.072113 0.382460 0.611894
O O5 0.675281 0.394804 0.348430
O O6 0.418300 0.447803 0.102209
O O7 0.665079 0.400084 0.207621
O O8 0.687015 0.588384 0.291568
O O9 0.750000 0.250000 0.500000
O O10 0.861478 0.210578 0.924044
O O11 0.000000 0.000000 0.000000
#
# Coordination Sequence:
#
# PCOD9267791 Si02
#       5
#     8   8   8   8   8
#     4   9  20  37  61  90 117 165 206 249 325 361
#     4   9  21  39  60  92 123 163 208 257 333 360
#     4  10  19  40  65  88 122 162 206 262 311 378
#     4  11  23  38  63  93 126 160 216 260 307 377
#     4   9  19  38  61  84 125 163 204 261 308 372
#
# _framework density 20.757325000000002
#
# number of rings (size 3 to 8) (size 9 to 14) (size 15 to 20)
#    0.000    2.400    0.000    2.400    5.600    0.000 
#   18.000    1.000    8.800    0.000    0.000    0.000 
#    0.000    0.000    0.000    0.000    0.000    0.000 
#
# Total GULP energy -111660.293602 kJ/mol
# GULP energy per Si atom -5583.014680 kJ/mol
# Density = 2.071008 g / cm^3
# Si number density = 20.757325 Si / 1000 Ang^3
#
#
#
# Elastic Constant Matrix: (Units=GPa)
#
#
# Indices 1 2 3 4 5 6 
#
# 1 62.2654 15.3854 29.8093 0.0000 30.5895 0.0000
# 2 15.3854 133.8817 70.3068 0.0002 28.1457 0.0000
# 3 29.8093 70.3068 131.5762 0.0006 60.2747 0.0001
# 4 0.0000 0.0002 0.0006 19.5946 0.0001 1.2765
# 5 30.5895 28.1457 60.2747 0.0001 49.0232 0.0000
# 6 0.0000 0.0000 0.0001 1.2765 0.0000 10.9802
#
#
#
# Elastic Compliance Matrix: (Units=1/GPa)
#
#
# Indices 1 2 3 4 5 6 
#
# 1 0.023784 -0.000664 0.003641 0.000000 -0.018937 0.000000
# 2 -0.000664 0.010485 -0.006604 0.000000 0.002515 0.000000
# 3 0.003641 -0.006604 0.021998 -0.000001 -0.025528 0.000000
# 4 0.000000 0.000000 -0.000001 0.051424 0.000001 -0.005978
# 5 -0.018937 0.002515 -0.025528 0.000001 0.062157 0.000000
# 6 0.000000 0.000000 0.000000 -0.005978 0.000000 0.091768
#
#
# Mechanical properties :
#
#
# Convention : Reuss Voigt Hill
#
# Bulk Modulus (GPa) = 20.40263 62.08070 41.24166
# Shear Modulus (GPa) = 17.53103 30.06772 23.79938
#
# Velocity S-wave (km/s) = 2.90930 3.81009 3.38975
# Velocity P-wave (km/s) = 4.59737 7.02343 5.93567
#
# Compressibility (1/GPa) = 0.04901330
#
# Stress axis : x y z
#
# Youngs Moduli (GPa) = 42.04459 95.37410 45.45858
#
# Poissons Ratio (x) = 0.06338 -0.16553
# Poissons Ratio (y) = 0.02794 0.30021
# Poissons Ratio (z) = -0.15310 0.62985
#
# Static dielectric constant tensor:
#      x y z
#    x 1.754550 0.000000 0.004730 
#    y 0.000000 1.738010 0.000000 
#    z 0.004730 0.000000 1.806490 
# 
# From -- ./inp_files/276769.got.cif
#   From: 2010.05.17/outbox.cif.g08.bks.cpg/sg15_139_cif.got.tgz:276769.got - 2010.06.03 18:47:42.
