data_PCOD9267129
_publ_section_title
;
Structure prediction by ZEFSAII (Michael W. Deem and Ramdas Pophale) SiO2 
 PCOD9267129
Probable space group: C 2/C
;
_chemical_formula_sum "Si O2"
_cell_formula_units_Z 48
_cell_length_a 11.850408
_cell_length_b 8.384534
_cell_length_c 19.991929
_cell_angle_alpha 90.000000
_cell_angle_beta 85.265344
_cell_angle_gamma 90.000000
_cell_volume 1979.622731
_symmetry_space_group_name_H-M "C 2/C"
_symmetry_group_IT_number 15
_symmetry_cell_setting 'monoclinic'
loop_
_space_group_symop_operation_xyz
x,y,z
-x,y,1/2-z
-x,-y,-z
x,-y,1/2+z
1/2+x,1/2+y,z
1/2-x,1/2+y,1/2-z
1/2-x,1/2-y,-z
1/2+x,1/2-y,1/2+z
loop_
_atom_site_type_symbol
_atom_site_label
_atom_site_fract_x
_atom_site_fract_y
_atom_site_fract_z
Si Si1 0.492647 0.651175 0.553374
Si Si2 0.737610 0.092432 0.587722
Si Si3 0.158994 0.614368 0.982520
Si Si4 0.811583 0.234798 0.149336
Si Si5 0.555009 0.267121 0.684948
Si Si6 0.100161 0.883002 0.196696
O O1 0.500000 0.500000 0.500000
O O2 0.361764 0.666619 0.579284
O O3 0.543019 0.807357 0.514325
O O4 0.564150 0.633580 0.619634
O O5 0.695147 0.047162 0.515887
O O6 0.752373 0.920138 0.621683
O O7 0.642038 0.183739 0.632615
O O8 0.250000 0.750000 0.000000
O O9 0.169811 0.618150 0.902842
O O10 0.719963 0.300078 0.205873
O O11 0.939740 0.181659 0.154410
O O12 0.500000 0.170486 0.750000
O O13 0.611559 0.428394 0.709027
O O14 0.000000 0.824072 0.250000
#
# Coordination Sequence:
#
# PCOD9267129 Si02
#       6
#     8   8   8   8   8   8
#     4  12  19  39  71  93 128 171 212 261 326 381
#     4  11  23  40  67  94 124 171 214 260 319 380
#     4  10  19  38  65  97 122 165 213 259 322 382
#     4  11  22  44  68  88 132 166 208 273 316 381
#     4  11  27  43  60  95 131 168 216 264 319 381
#     4  11  24  42  64  96 129 172 215 265 327 379
#
# _framework density 24.247046000000001
#
# number of rings (size 3 to 8) (size 9 to 14) (size 15 to 20)
#    0.000    1.000    8.333    0.000    2.333    2.667 
#    0.000    5.833    0.000    0.000    0.000    0.000 
#    0.000    0.000    0.000    0.000    0.000    0.000 
#
# Total GULP energy -134107.259030 kJ/mol
# GULP energy per Si atom -5587.802460 kJ/mol
# Density = 2.419186 g / cm^3
# Si number density = 24.247046 Si / 1000 Ang^3
#
#
#
# Elastic Constant Matrix: (Units=GPa)
#
#
# Indices 1 2 3 4 5 6 
#
# 1 122.2549 42.6349 16.4648 0.0000 -46.6482 0.0000
# 2 42.6349 39.1104 5.7862 0.0000 -17.2741 0.0000
# 3 16.4648 5.7862 70.6178 0.0000 -34.3120 0.0000
# 4 0.0000 0.0000 0.0000 35.6158 0.0000 -1.7637
# 5 -46.6482 -17.2741 -34.3120 0.0000 51.4053 0.0000
# 6 0.0000 0.0000 0.0000 -1.7637 0.0000 46.1881
#
#
#
# Elastic Compliance Matrix: (Units=1/GPa)
#
#
# Indices 1 2 3 4 5 6 
#
# 1 0.017873 -0.013806 0.003834 0.000000 0.014138 0.000000
# 2 -0.013806 0.041326 0.000730 0.000000 0.001846 0.000000
# 3 0.003834 0.000730 0.022224 0.000000 0.018558 0.000000
# 4 0.000000 0.000000 0.000000 0.028131 0.000000 0.001074
# 5 0.014138 0.001846 0.018558 0.000000 0.045291 0.000000
# 6 0.000000 0.000000 0.000000 0.001074 0.000000 0.021692
#
#
# Mechanical properties :
#
#
# Convention : Reuss Voigt Hill
#
# Bulk Modulus (GPa) = 15.88872 40.19499 28.04185
# Shear Modulus (GPa) = 23.14814 37.78166 30.46490
#
# Velocity S-wave (km/s) = 3.09314 3.95168 3.54847
# Velocity P-wave (km/s) = 4.39588 6.11836 5.32720
#
# Compressibility (1/GPa) = 0.06293774
#
# Stress axis : x y z
#
# Youngs Moduli (GPa) = 55.95154 24.19789 44.99582
#
# Poissons Ratio (x) = 0.33407 -0.17250
# Poissons Ratio (y) = 0.77246 -0.03283
# Poissons Ratio (z) = -0.21450 -0.01766
#
# Static dielectric constant tensor:
#      x y z
#    x 1.995150 0.000000 0.121200 
#    y 0.000000 1.907430 0.000000 
#    z 0.121200 0.000000 2.106450 
# 
# From -- ./inp_files/267998.got.cif
#   From: 2010.05.17/outbox.cif.g08.bks.cpg/sg15_134_cif.got.tgz:267998.got - 2010.06.03 18:47:42.
