data_PCOD9267018
_publ_section_title
;
Structure prediction by ZEFSAII (Michael W. Deem and Ramdas Pophale) SiO2 
 PCOD9267018
Probable space group: C 2/C
;
_chemical_formula_sum "Si O2"
_cell_formula_units_Z 60
_cell_length_a 22.394500
_cell_length_b 12.550135
_cell_length_c 15.430557
_cell_angle_alpha 90.000000
_cell_angle_beta 137.963114
_cell_angle_gamma 90.000000
_cell_volume 2903.973057
_symmetry_space_group_name_H-M "C 2/C"
_symmetry_group_IT_number 15
_symmetry_cell_setting 'monoclinic'
loop_
_space_group_symop_operation_xyz
x,y,z
-x,y,1/2-z
-x,-y,-z
x,-y,1/2+z
1/2+x,1/2+y,z
1/2-x,1/2+y,1/2-z
1/2-x,1/2-y,-z
1/2+x,1/2-y,1/2+z
loop_
_atom_site_type_symbol
_atom_site_label
_atom_site_fract_x
_atom_site_fract_y
_atom_site_fract_z
Si Si1 0.000000 0.515532 0.250000
Si Si2 0.660018 0.837102 0.945190
Si Si3 0.479539 0.411755 0.830404
Si Si4 0.749933 0.845474 0.871755
Si Si5 0.818781 0.931166 0.399781
Si Si6 0.798019 0.988652 0.179418
Si Si7 0.491536 0.818651 0.340760
Si Si8 0.805768 0.692653 0.386241
O O1 0.924811 0.590249 0.129079
O O2 0.040599 0.439002 0.216730
O O3 0.671100 0.820019 0.854502
O O4 0.668388 0.728633 0.008009
O O5 0.746685 0.905165 0.065303
O O6 0.500000 0.422197 0.750000
O O7 0.400201 0.491055 0.767130
O O8 0.449367 0.291385 0.830104
O O9 0.574086 0.434500 0.977428
O O10 0.722428 0.817308 0.744425
O O11 0.776287 0.969357 0.903314
O O12 0.789698 0.813859 0.399609
O O13 0.791675 0.946598 0.270788
O O14 0.746976 0.101854 0.119413
O O15 0.500000 0.784104 0.250000
O O16 0.588612 0.828443 0.488354
#
# Coordination Sequence:
#
# PCOD9267018 Si02
#       8
#     4   8   8   8   8   8   8   8
#     4  10  20  40  64  84 118 168 198 256 302 372
#     4  11  22  42  60  88 124 164 208 249 314 374
#     4  10  20  35  55  92 123 153 195 259 306 371
#     4  10  23  40  59  89 122 166 209 251 308 379
#     4  10  21  39  59  89 122 157 208 259 306 366
#     4  11  20  36  65  86 120 166 203 250 321 366
#     4   8  17  35  57  85 122 147 193 250 305 349
#     4  10  19  38  64  87 121 161 205 264 306 360
#
# _framework density 20.661349000000001
#
# number of rings (size 3 to 8) (size 9 to 14) (size 15 to 20)
#    0.400    1.600    2.667    1.200    0.000    1.067 
#    6.000    8.000    0.000    0.000    0.000    0.000 
#    0.000    0.000    0.000    0.000    0.000    0.000 
#
# Total GULP energy -167046.809689 kJ/mol
# GULP energy per Si atom -5568.226990 kJ/mol
# Density = 2.061432 g / cm^3
# Si number density = 20.661349 Si / 1000 Ang^3
#
#
#
# Elastic Constant Matrix: (Units=GPa)
#
#
# Indices 1 2 3 4 5 6 
#
# 1 13.9730 3.9529 -7.2204 0.0000 -8.0483 0.0000
# 2 3.9529 111.5517 17.4536 0.0000 -2.7138 0.0000
# 3 -7.2204 17.4536 50.8939 0.0000 -2.4582 0.0000
# 4 0.0000 0.0000 0.0000 16.5737 0.0000 -5.5178
# 5 -8.0483 -2.7138 -2.4582 0.0000 19.2234 0.0000
# 6 0.0000 0.0000 0.0000 -5.5178 0.0000 13.4749
#
#
#
# Elastic Compliance Matrix: (Units=1/GPa)
#
#
# Indices 1 2 3 4 5 6 
#
# 1 0.111612 -0.005938 0.020212 0.000000 0.048475 0.000000
# 2 -0.005938 0.009805 -0.004285 0.000000 -0.001650 0.000000
# 3 0.020212 -0.004285 0.024517 0.000000 0.010993 0.000000
# 4 0.000000 0.000000 0.000000 0.069860 0.000000 0.028607
# 5 0.048475 -0.001650 0.010993 0.000000 0.073488 0.000000
# 6 0.000000 0.000000 0.000000 0.028607 0.000000 0.085926
#
#
# Mechanical properties :
#
#
# Convention : Reuss Voigt Hill
#
# Bulk Modulus (GPa) = 6.02728 22.75456 14.39092
# Shear Modulus (GPa) = 12.17929 20.66991 16.42460
#
# Velocity S-wave (km/s) = 2.43054 3.16636 2.82253
# Velocity P-wave (km/s) = 3.28637 4.94012 4.19554
#
# Compressibility (1/GPa) = 0.16591237
#
# Stress axis : x y z
#
# Youngs Moduli (GPa) = 8.95962 101.98729 40.78863
#
# Poissons Ratio (x) = 0.60563 -0.82444
# Poissons Ratio (y) = 0.05320 0.17477
# Poissons Ratio (z) = -0.18110 0.43699
#
# Static dielectric constant tensor:
#      x y z
#    x 1.722710 0.000000 -0.013540 
#    y 0.000000 1.827250 0.000000 
#    z -0.013540 0.000000 1.716600 
# 
# From -- ./inp_files/222320.got.cif
#   From: 2010.05.17/outbox.cif.g08.bks.cpg/sg15_112_cif.got.tgz:222320.got - 2010.06.03 18:47:42.
