data_PCOD9267909
_publ_section_title
;
Structure prediction by ZEFSAII (Michael W. Deem and Ramdas Pophale) SiO2 
 PCOD9267909
Probable space group: C 2/C
;
_chemical_formula_sum "Si O2"
_cell_formula_units_Z 40
_cell_length_a 8.046540
_cell_length_b 24.795441
_cell_length_c 9.754011
_cell_angle_alpha 90.000000
_cell_angle_beta 61.614261
_cell_angle_gamma 90.000000
_cell_volume 1712.110872
_symmetry_space_group_name_H-M "C 2/C"
_symmetry_group_IT_number 15
_symmetry_cell_setting 'monoclinic'
loop_
_space_group_symop_operation_xyz
x,y,z
-x,y,1/2-z
-x,-y,-z
x,-y,1/2+z
1/2+x,1/2+y,z
1/2-x,1/2+y,1/2-z
1/2-x,1/2-y,-z
1/2+x,1/2-y,1/2+z
loop_
_atom_site_type_symbol
_atom_site_label
_atom_site_fract_x
_atom_site_fract_y
_atom_site_fract_z
Si Si1 0.721306 0.895374 0.684070
Si Si2 0.226116 0.513862 0.398591
Si Si3 0.418283 0.438861 0.094490
Si Si4 0.213525 0.327079 0.131513
Si Si5 0.720414 0.287710 0.695968
O O1 0.500000 0.903962 0.750000
O O2 0.753758 0.831739 0.696118
O O3 0.861896 0.920975 0.517086
O O4 0.758212 0.929688 0.806414
O O5 0.326250 0.469493 0.261214
O O6 0.335824 0.526639 0.497513
O O7 0.000000 0.500000 0.500000
O O8 0.327593 0.379876 0.120220
O O9 0.289831 0.273704 0.180479
O O10 0.000000 0.339128 0.250000
O O11 0.204473 0.312618 0.974374
O O12 0.500000 0.281666 0.750000
#
# Coordination Sequence:
#
# PCOD9267909 Si02
#       5
#     8   8   8   8   8
#     4  12  25  44  67  99 142 195 239 298 360 426
#     4  12  25  45  73 107 140 187 238 304 365 439
#     4  12  25  46  72 106 146 192 242 298 362 437
#     4  10  20  37  73 104 130 180 238 294 363 436
#     4  10  19  40  71 100 134 182 237 298 362 429
#
# _framework density 23.362971000000002
#
# number of rings (size 3 to 8) (size 9 to 14) (size 15 to 20)
#    0.000    0.800    4.000    4.200    0.000    1.600 
#    0.000    1.000    0.000    0.000    0.000    0.000 
#    0.000    0.000    0.000    0.000    0.000    0.000 
#
# Total GULP energy -111724.428880 kJ/mol
# GULP energy per Si atom -5586.221444 kJ/mol
# Density = 2.330980 g / cm^3
# Si number density = 23.362971 Si / 1000 Ang^3
#
#
#
# Elastic Constant Matrix: (Units=GPa)
#
#
# Indices 1 2 3 4 5 6 
#
# 1 102.3791 39.4095 67.0827 0.0000 -11.7595 0.0000
# 2 39.4095 207.1601 57.0341 0.0000 -7.4442 0.0000
# 3 67.0827 57.0341 172.7553 0.0000 -27.0003 0.0000
# 4 0.0000 0.0000 0.0000 39.9368 0.0000 2.5089
# 5 -11.7595 -7.4442 -27.0003 0.0000 45.9705 0.0000
# 6 0.0000 0.0000 0.0000 2.5089 0.0000 15.8920
#
#
#
# Elastic Compliance Matrix: (Units=1/GPa)
#
#
# Indices 1 2 3 4 5 6 
#
# 1 0.013387 -0.001231 -0.004721 0.000000 0.000452 0.000000
# 2 -0.001231 0.005424 -0.001349 0.000000 -0.000229 0.000000
# 3 -0.004721 -0.001349 0.008637 0.000000 0.003647 0.000000
# 4 0.000000 0.000000 0.000000 0.025290 0.000000 -0.003993
# 5 0.000452 -0.000229 0.003647 0.000000 0.023974 0.000000
# 6 0.000000 0.000000 0.000000 -0.003993 0.000000 0.063555
#
#
# Mechanical properties :
#
#
# Convention : Reuss Voigt Hill
#
# Bulk Modulus (GPa) = 77.83840 89.92746 83.88293
# Shear Modulus (GPa) = 31.41672 41.61109 36.51390
#
# Velocity S-wave (km/s) = 3.67102 4.22485 3.95764
# Velocity P-wave (km/s) = 7.16644 7.89773 7.54096
#
# Compressibility (1/GPa) = 0.01284713
#
# Stress axis : x y z
#
# Youngs Moduli (GPa) = 74.70034 184.35256 115.77964
#
# Poissons Ratio (x) = 0.22686 0.54663
# Poissons Ratio (y) = 0.09192 0.15615
# Poissons Ratio (z) = 0.35268 0.24864
#
# Static dielectric constant tensor:
#      x y z
#    x 1.924960 0.000000 -0.005570 
#    y 0.000000 2.033350 0.000000 
#    z -0.005570 0.000000 1.886720 
# 
# From -- ./inp_files/135776.got.cif
#   From: 2010.05.17/outbox.cif.g08.bks.cpg/sg15_68_cif.got.tgz:135776.got - 2010.06.03 18:47:42.
