data_PCOD9267983
_publ_section_title
;
Structure prediction by ZEFSAII (Michael W. Deem and Ramdas Pophale) SiO2 
 PCOD9267983
Probable space group: C 2/C
;
_chemical_formula_sum "Si O2"
_cell_formula_units_Z 48
_cell_length_a 20.521364
_cell_length_b 12.242205
_cell_length_c 19.889762
_cell_angle_alpha 90.000000
_cell_angle_beta 25.173725
_cell_angle_gamma 90.000000
_cell_volume 2125.477451
_symmetry_space_group_name_H-M "C 2/C"
_symmetry_group_IT_number 15
_symmetry_cell_setting 'monoclinic'
loop_
_space_group_symop_operation_xyz
x,y,z
-x,y,1/2-z
-x,-y,-z
x,-y,1/2+z
1/2+x,1/2+y,z
1/2-x,1/2+y,1/2-z
1/2-x,1/2-y,-z
1/2+x,1/2-y,1/2+z
loop_
_atom_site_type_symbol
_atom_site_label
_atom_site_fract_x
_atom_site_fract_y
_atom_site_fract_z
Si Si1 0.500000 0.161181 0.250000
Si Si2 0.177617 0.088837 0.755380
Si Si3 0.481548 0.565700 0.191645
Si Si4 0.877402 0.487324 0.673660
Si Si5 0.500000 0.778793 0.250000
Si Si6 0.469613 0.777395 0.927099
Si Si7 0.681204 0.962599 0.132413
O O1 0.535398 0.226627 0.149381
O O2 0.636877 0.076004 0.138918
O O3 0.227283 0.034902 0.778856
O O4 0.314843 0.167207 0.599628
O O5 0.024825 0.161586 0.902706
O O6 0.149066 0.992562 0.728190
O O7 0.500000 0.518645 0.250000
O O8 0.473256 0.695546 0.213327
O O9 0.645416 0.541731 0.006833
O O10 0.914820 0.547897 0.708861
O O11 0.000000 0.500000 0.500000
O O12 0.893943 0.361768 0.679842
O O13 0.641727 0.863248 0.119300
#
# Coordination Sequence:
#
# PCOD9267983 Si02
#       7
#     4   8   8   8   4   8   8
#     4   9  20  35  66  86 124 157 214 253 318 372
#     4  11  24  42  63  90 130 165 211 260 319 379
#     4  10  23  38  61  96 130 160 211 270 319 384
#     4   9  22  44  62  88 126 167 214 264 315 376
#     4   9  22  39  64  96 126 163 214 269 332 380
#     4  10  23  41  63  89 124 167 207 260 318 377
#     4  10  19  41  64  92 124 170 209 266 322 384
#
# _framework density 22.583161
#
# number of rings (size 3 to 8) (size 9 to 14) (size 15 to 20)
#    0.500    1.667    0.000    1.500    5.833    4.000 
#    6.000    0.000    0.000    0.000    0.000    0.000 
#    0.000    0.000    0.000    0.000    0.000    0.000 
#
# Total GULP energy -133824.546469 kJ/mol
# GULP energy per Si atom -5576.022770 kJ/mol
# Density = 2.253176 g / cm^3
# Si number density = 22.583161 Si / 1000 Ang^3
#
#
#
# Elastic Constant Matrix: (Units=GPa)
#
#
# Indices 1 2 3 4 5 6 
#
# 1 124.8706 41.4711 17.7358 -0.0001 5.4571 0.0001
# 2 41.4711 88.3672 13.9619 -0.0003 -14.6889 0.0002
# 3 17.7358 13.9619 57.8556 -0.0006 -3.6854 0.0004
# 4 -0.0001 -0.0003 -0.0006 21.4258 0.0002 -14.4020
# 5 5.4571 -14.6889 -3.6854 0.0002 30.3063 -0.0001
# 6 0.0001 0.0002 0.0004 -14.4020 -0.0001 36.2821
#
#
#
# Elastic Compliance Matrix: (Units=1/GPa)
#
#
# Indices 1 2 3 4 5 6 
#
# 1 0.010263 -0.005247 -0.002177 0.000000 -0.004656 0.000000
# 2 -0.005247 0.015394 -0.001583 0.000000 0.008213 0.000000
# 3 -0.002177 -0.001583 0.018453 0.000001 0.001868 0.000000
# 4 0.000000 0.000000 0.000001 0.063658 0.000000 0.025269
# 5 -0.004656 0.008213 0.001868 0.000000 0.038043 0.000000
# 6 0.000000 0.000000 0.000000 0.025269 0.000000 0.037592
#
#
# Mechanical properties :
#
#
# Convention : Reuss Voigt Hill
#
# Bulk Modulus (GPa) = 38.31874 46.38122 42.34998
# Shear Modulus (GPa) = 23.79647 30.79782 27.29714
#
# Velocity S-wave (km/s) = 3.24964 3.69691 3.48046
# Velocity P-wave (km/s) = 5.57538 6.22940 5.91144
#
# Compressibility (1/GPa) = 0.02609689
#
# Stress axis : x y z
#
# Youngs Moduli (GPa) = 97.43370 64.95976 54.19224
#
# Poissons Ratio (x) = 0.34082 0.11796
# Poissons Ratio (y) = 0.51120 0.08581
# Poissons Ratio (z) = 0.21209 0.10286
#
# Static dielectric constant tensor:
#      x y z
#    x 1.574060 0.000000 -0.546800 
#    y 0.000000 1.832960 0.000000 
#    z -0.546800 0.000000 0.855740 
# 
# From -- ./inp_files/252534.got.cif
#   From: 2010.05.17/outbox.cif.g08.bks.cpg/sg15_127_cif.got.tgz:252534.got - 2010.06.03 18:47:42.
