data_PCOD9267438
_publ_section_title
;
Structure prediction by ZEFSAII (Michael W. Deem and Ramdas Pophale) SiO2 
 PCOD9267438
Probable space group: C 2/C
;
_chemical_formula_sum "Si O2"
_cell_formula_units_Z 56
_cell_length_a 7.984482
_cell_length_b 12.798675
_cell_length_c 21.981162
_cell_angle_alpha 90.000000
_cell_angle_beta 102.173467
_cell_angle_gamma 90.000000
_cell_volume 2195.761851
_symmetry_space_group_name_H-M "C 2/C"
_symmetry_group_IT_number 15
_symmetry_cell_setting 'monoclinic'
loop_
_space_group_symop_operation_xyz
x,y,z
-x,y,1/2-z
-x,-y,-z
x,-y,1/2+z
1/2+x,1/2+y,z
1/2-x,1/2+y,1/2-z
1/2-x,1/2-y,-z
1/2+x,1/2-y,1/2+z
loop_
_atom_site_type_symbol
_atom_site_label
_atom_site_fract_x
_atom_site_fract_y
_atom_site_fract_z
Si Si1 0.052123 0.288494 0.998506
Si Si2 0.492947 0.875537 0.116427
Si Si3 0.443599 0.578054 0.442814
Si Si4 0.317868 0.242062 0.698909
Si Si5 0.672757 0.706385 0.811706
Si Si6 0.404233 0.467544 0.677648
Si Si7 0.451339 0.106248 0.120708
O O1 0.016230 0.377688 0.045840
O O2 0.979927 0.186905 0.026307
O O3 0.250000 0.250000 0.000000
O O4 0.974113 0.327361 0.929770
O O5 0.329715 0.832695 0.141185
O O6 0.634205 0.789489 0.146551
O O7 0.527650 0.993072 0.142528
O O8 0.500000 0.500000 0.500000
O O9 0.507666 0.557239 0.379799
O O10 0.237490 0.575434 0.420906
O O11 0.500000 0.234395 0.750000
O O12 0.185325 0.203252 0.739776
O O13 0.287623 0.362745 0.679161
O O14 0.629827 0.591210 0.832081
O O15 0.586860 0.811461 0.829237
O O16 0.500000 0.465364 0.750000
#
# Coordination Sequence:
#
# PCOD9267438 Si02
#       7
#     8   8   8   8   8   8   8
#     4  10  19  39  63  89 127 168 215 263 328 397
#     4  11  21  41  67  94 123 174 221 268 337 403
#     4  11  22  40  68  95 132 177 219 270 340 402
#     4   9  20  39  63  88 123 167 219 265 329 401
#     4  11  23  42  67  94 134 175 218 282 339 396
#     4  11  23  42  67  92 131 176 219 272 339 399
#     4  11  23  40  69  93 133 169 222 276 333 403
#
# _framework density 25.503675999999999
#
# number of rings (size 3 to 8) (size 9 to 14) (size 15 to 20)
#    0.000    1.429    4.286    3.000    6.000    0.000 
#    2.571    2.143    0.000    0.000    0.000    0.000 
#    0.000    0.000    0.000    0.000    0.000    0.000 
#
# Total GULP energy -156261.214792 kJ/mol
# GULP energy per Si atom -5580.757671 kJ/mol
# Density = 2.544563 g / cm^3
# Si number density = 25.503676 Si / 1000 Ang^3
#
#
#
# Elastic Constant Matrix: (Units=GPa)
#
#
# Indices 1 2 3 4 5 6 
#
# 1 28.8067 36.2757 35.8966 0.0000 -1.8760 0.0000
# 2 36.2757 184.4012 46.2604 0.0000 -27.9847 0.0000
# 3 35.8966 46.2604 154.4819 0.0000 -38.1937 0.0000
# 4 0.0000 0.0000 0.0000 53.0184 0.0000 1.2740
# 5 -1.8760 -27.9847 -38.1937 0.0000 43.2728 0.0000
# 6 0.0000 0.0000 0.0000 1.2740 0.0000 45.6823
#
#
#
# Elastic Compliance Matrix: (Units=1/GPa)
#
#
# Indices 1 2 3 4 5 6 
#
# 1 0.072158 -0.012859 -0.018162 0.000000 -0.021218 0.000000
# 2 -0.012859 0.008447 0.002138 0.000000 0.006792 0.000000
# 3 -0.018162 0.002138 0.013048 0.000000 0.012111 0.000000
# 4 0.000000 0.000000 0.000000 0.018874 0.000000 -0.000526
# 5 -0.021218 0.006792 0.012111 0.000000 0.037272 0.000000
# 6 0.000000 0.000000 0.000000 -0.000526 0.000000 0.021905
#
#
# Mechanical properties :
#
#
# Convention : Reuss Voigt Hill
#
# Bulk Modulus (GPa) = 27.86625 67.17279 47.51952
# Shear Modulus (GPa) = 20.70977 45.01184 32.86081
#
# Velocity S-wave (km/s) = 2.85271 4.20565 3.59343
# Velocity P-wave (km/s) = 4.66912 7.06958 5.99081
#
# Compressibility (1/GPa) = 0.03588570
#
# Stress axis : x y z
#
# Youngs Moduli (GPa) = 13.85855 118.38491 76.64085
#
# Poissons Ratio (x) = 1.52227 1.39198
# Poissons Ratio (y) = 0.17820 -0.16383
# Poissons Ratio (z) = 0.25170 -0.25307
#
# Static dielectric constant tensor:
#      x y z
#    x 2.196570 0.000000 0.090110 
#    y 0.000000 1.993070 0.000000 
#    z 0.090110 0.000000 1.845500 
# 
# From -- ./inp_files/236949.got.cif
#   From: 2010.05.17/outbox.cif.g08.bks.cpg/sg15_119_cif.got.tgz:236949.got - 2010.06.03 18:47:42.
