data_PCOD9267655
_publ_section_title
;
Structure prediction by ZEFSAII (Michael W. Deem and Ramdas Pophale) SiO2 
 PCOD9267655
Probable space group: C 2/C
;
_chemical_formula_sum "Si O2"
_cell_formula_units_Z 48
_cell_length_a 12.726650
_cell_length_b 11.121312
_cell_length_c 27.768484
_cell_angle_alpha 90.000000
_cell_angle_beta 28.616268
_cell_angle_gamma 90.000000
_cell_volume 1882.367540
_symmetry_space_group_name_H-M "C 2/C"
_symmetry_group_IT_number 15
_symmetry_cell_setting 'monoclinic'
loop_
_space_group_symop_operation_xyz
x,y,z
-x,y,1/2-z
-x,-y,-z
x,-y,1/2+z
1/2+x,1/2+y,z
1/2-x,1/2+y,1/2-z
1/2-x,1/2-y,-z
1/2+x,1/2-y,1/2+z
loop_
_atom_site_type_symbol
_atom_site_label
_atom_site_fract_x
_atom_site_fract_y
_atom_site_fract_z
Si Si1 0.135151 0.691873 0.000017
Si Si2 0.448627 0.670849 0.086923
Si Si3 0.356450 0.085851 0.734265
Si Si4 0.455378 0.701811 0.718587
Si Si5 0.140080 0.565224 0.530878
Si Si6 0.220083 0.148761 0.886409
O O1 0.300839 0.739518 0.893034
O O2 0.250000 0.750000 0.000000
O O3 0.141273 0.548985 0.996562
O O4 0.888217 0.736341 0.095021
O O5 0.201384 0.686256 0.205389
O O6 0.522914 0.813960 0.059298
O O7 0.611295 0.604974 0.058833
O O8 0.542127 0.620478 0.999070
O O9 0.163005 0.137355 0.778529
O O10 0.508420 0.020593 0.632477
O O11 0.252025 0.055759 0.829074
O O12 0.552833 0.170516 0.676801
O O13 0.500000 0.628669 0.750000
#
# Coordination Sequence:
#
# PCOD9267655 Si02
#       6
#     8   8   8   8   8   8
#     4  12  24  42  68 102 141 177 236 294 342 400
#     4   9  19  42  67  94 136 185 224 277 352 416
#     4   9  20  41  67  96 136 182 226 269 349 425
#     4  11  21  40  67  99 143 176 223 287 344 410
#     4   9  21  42  69  95 140 183 224 284 344 417
#     4  10  19  39  73  95 136 176 228 287 338 417
#
# _framework density 25.499801000000001
#
# number of rings (size 3 to 8) (size 9 to 14) (size 15 to 20)
#    0.000    2.000    3.333    1.000    0.000    0.667 
#    6.000    3.333    7.333    0.000    0.000    0.000 
#    0.000    0.000    0.000    0.000    0.000    0.000 
#
# Total GULP energy -133727.842576 kJ/mol
# GULP energy per Si atom -5571.993441 kJ/mol
# Density = 2.544176 g / cm^3
# Si number density = 25.499801 Si / 1000 Ang^3
#
#
#
# Elastic Constant Matrix: (Units=GPa)
#
#
# Indices 1 2 3 4 5 6 
#
# 1 143.5472 11.1280 20.8027 -0.0001 -17.3050 -0.0004
# 2 11.1280 96.2132 4.3907 -0.0013 -17.7560 -0.0006
# 3 20.8027 4.3907 157.4653 -0.0004 3.7139 -0.0045
# 4 -0.0001 -0.0013 -0.0004 17.7509 -0.0024 -0.0117
# 5 -17.3050 -17.7560 3.7139 -0.0024 64.6753 0.0008
# 6 -0.0004 -0.0006 -0.0045 -0.0117 0.0008 15.6437
#
#
#
# Elastic Compliance Matrix: (Units=1/GPa)
#
#
# Indices 1 2 3 4 5 6 
#
# 1 0.007377 -0.000455 -0.001007 0.000000 0.001907 0.000000
# 2 -0.000455 0.010999 -0.000315 0.000001 0.002916 0.000000
# 3 -0.001007 -0.000315 0.006510 0.000000 -0.000730 0.000002
# 4 0.000000 0.000001 0.000000 0.056335 0.000002 0.000042
# 5 0.001907 0.002916 -0.000730 0.000002 0.016814 -0.000001
# 6 0.000000 0.000000 0.000002 0.000042 -0.000001 0.063923
#
#
# Mechanical properties :
#
#
# Convention : Reuss Voigt Hill
#
# Bulk Modulus (GPa) = 46.88105 52.20762 49.54434
# Shear Modulus (GPa) = 28.96459 43.67425 36.31942
#
# Velocity S-wave (km/s) = 3.37393 4.14300 3.77809
# Velocity P-wave (km/s) = 5.79678 6.58818 6.20511
#
# Compressibility (1/GPa) = 0.02133058
#
# Stress axis : x y z
#
# Youngs Moduli (GPa) = 135.54844 90.91925 153.61852
#
# Poissons Ratio (x) = 0.04141 0.15468
# Poissons Ratio (y) = 0.06173 0.04843
# Poissons Ratio (z) = 0.13648 0.02867
#
# Static dielectric constant tensor:
#      x y z
#    x 2.098850 0.000000 0.129410 
#    y 0.000000 2.016550 0.000000 
#    z 0.129410 0.000000 2.152940 
# 
# From -- ./inp_files/313536.got.cif
#   From: 2010.05.17/outbox.cif.g08.bks.cpg/sg15_157_cif.got.tgz:313536.got - 2010.06.03 18:47:42.
