data_PCOD9267313
_publ_section_title
;
Structure prediction by ZEFSAII (Michael W. Deem and Ramdas Pophale) SiO2 
 PCOD9267313
Probable space group: C 2/C
;
_chemical_formula_sum "Si O2"
_cell_formula_units_Z 60
_cell_length_a 12.260159
_cell_length_b 25.711102
_cell_length_c 11.116871
_cell_angle_alpha 90.000000
_cell_angle_beta 58.604409
_cell_angle_gamma 90.000000
_cell_volume 2991.225331
_symmetry_space_group_name_H-M "C 2/C"
_symmetry_group_IT_number 15
_symmetry_cell_setting 'monoclinic'
loop_
_space_group_symop_operation_xyz
x,y,z
-x,y,1/2-z
-x,-y,-z
x,-y,1/2+z
1/2+x,1/2+y,z
1/2-x,1/2+y,1/2-z
1/2-x,1/2-y,-z
1/2+x,1/2-y,1/2+z
loop_
_atom_site_type_symbol
_atom_site_label
_atom_site_fract_x
_atom_site_fract_y
_atom_site_fract_z
Si Si1 0.380372 0.536941 0.114977
Si Si2 0.951072 0.157026 0.041182
Si Si3 0.360234 0.740505 0.269691
Si Si4 0.877463 0.462019 0.897564
Si Si5 0.771298 0.054583 0.797898
Si Si6 0.367826 0.077623 0.869983
Si Si7 0.763386 0.825714 0.030565
Si Si8 0.000000 0.128356 0.750000
O O1 0.418106 0.597728 0.103516
O O2 0.257648 0.539822 0.095972
O O3 0.326366 0.504638 0.260672
O O4 0.500000 0.500000 0.000000
O O5 0.870650 0.204590 0.145548
O O6 0.094296 0.166021 0.004923
O O7 0.950476 0.158126 0.896501
O O8 0.500000 0.739523 0.250000
O O9 0.312339 0.799730 0.313423
O O10 0.264252 0.710602 0.413802
O O11 0.901587 0.522980 0.909626
O O12 0.000000 0.443606 0.750000
O O13 0.844610 0.436953 0.043419
O O14 0.720775 0.066265 0.694398
O O15 0.886516 0.091730 0.767629
O O16 0.500000 0.101281 0.750000
O O17 0.293018 0.120451 0.984611
#
# Coordination Sequence:
#
# PCOD9267313 Si02
#       8
#     8   8   8   8   8   8   8   4
#     4  11  20  35  57  92 121 158 212 244 301 365
#     4  11  21  37  61  92 116 159 200 253 308 374
#     4   9  21  37  60  86 116 148 193 260 314 360
#     4  10  22  37  54  81 125 167 202 241 301 372
#     4  11  21  37  57  84 129 167 197 255 303 365
#     4  10  21  34  55  85 111 157 202 240 301 359
#     4  10  19  39  59  86 115 144 198 256 313 355
#     4  12  20  38  62  88 128 164 198 250 310 366
#
# _framework density 20.058669999999999
#
# number of rings (size 3 to 8) (size 9 to 14) (size 15 to 20)
#    0.000    1.600    4.000    1.200    1.867    4.800 
#    3.600    0.667    0.000    0.000    0.000    0.000 
#    0.000    0.000    0.000    0.000    0.000    0.000 
#
# Total GULP energy -167058.928472 kJ/mol
# GULP energy per Si atom -5568.630949 kJ/mol
# Density = 2.001302 g / cm^3
# Si number density = 20.058670 Si / 1000 Ang^3
#
#
#
# Elastic Constant Matrix: (Units=GPa)
#
#
# Indices 1 2 3 4 5 6 
#
# 1 42.3153 4.0762 -3.9188 0.0000 -9.4040 0.0000
# 2 4.0762 61.8712 22.5646 0.0000 -5.8861 0.0000
# 3 -3.9188 22.5646 88.6927 0.0000 -10.1122 0.0000
# 4 0.0000 0.0000 0.0000 -2.3617 0.0000 14.0461
# 5 -9.4040 -5.8861 -10.1122 0.0000 22.1157 0.0000
# 6 0.0000 0.0000 0.0000 14.0461 0.0000 10.0056
#
#
#
# Elastic Compliance Matrix: (Units=1/GPa)
#
#
# Indices 1 2 3 4 5 6 
#
# 1 0.026816 -0.001696 0.003022 0.000000 0.012334 0.000000
# 2 -0.001696 0.018091 -0.004442 0.000000 0.002063 0.000000
# 3 0.003022 -0.004442 0.013241 0.000000 0.006157 0.000000
# 4 0.000000 0.000000 0.000000 -0.045290 0.000000 0.063579
# 5 0.012334 0.002063 0.006157 0.000000 0.053825 0.000000
# 6 0.000000 0.000000 0.000000 0.063579 0.000000 0.010690
#
#
# Mechanical properties :
#
#
# Convention : Reuss Voigt Hill
#
# Bulk Modulus (GPa) = 19.26165 26.48035 22.87100
# Shear Modulus (GPa) = 49.54935 17.29574 33.42255
#
# Velocity S-wave (km/s) = 4.97552 2.93961 4.08639
# Velocity P-wave (km/s) = 6.52926 4.97512 5.80444
#
# Compressibility (1/GPa) = 0.05191663
#
# Stress axis : x y z
#
# Youngs Moduli (GPa) = 37.29076 55.27721 75.52549
#
# Poissons Ratio (x) = 0.09373 -0.22827
# Poissons Ratio (y) = 0.06323 0.33550
# Poissons Ratio (z) = -0.11271 0.24555
#
# Static dielectric constant tensor:
#      x y z
#    x 1.703920 0.000000 -0.032960 
#    y 0.000000 1.767660 0.000000 
#    z -0.032960 0.000000 1.737780 
# 
# From -- ./inp_files/92041.got.cif
#   From: 2010.05.17/outbox.cif.g08.bks.cpg/sg15_47_cif.got.tgz:92041.got - 2010.06.03 18:47:42.
