data_PCOD9267848
_publ_section_title
;
Structure prediction by ZEFSAII (Michael W. Deem and Ramdas Pophale) SiO2 
 PCOD9267848
Probable space group: C 2/C
;
_chemical_formula_sum "Si O2"
_cell_formula_units_Z 40
_cell_length_a 11.288927
_cell_length_b 10.413798
_cell_length_c 24.302415
_cell_angle_alpha 90.000000
_cell_angle_beta 147.334702
_cell_angle_gamma 90.000000
_cell_volume 1542.013750
_symmetry_space_group_name_H-M "C 2/C"
_symmetry_group_IT_number 15
_symmetry_cell_setting 'monoclinic'
loop_
_space_group_symop_operation_xyz
x,y,z
-x,y,1/2-z
-x,-y,-z
x,-y,1/2+z
1/2+x,1/2+y,z
1/2-x,1/2+y,1/2-z
1/2-x,1/2-y,-z
1/2+x,1/2-y,1/2+z
loop_
_atom_site_type_symbol
_atom_site_label
_atom_site_fract_x
_atom_site_fract_y
_atom_site_fract_z
Si Si1 0.786991 0.500160 0.586583
Si Si2 0.260936 0.877536 0.278083
Si Si3 0.036803 0.158267 0.579487
Si Si4 0.295690 0.064500 0.389277
Si Si5 0.564909 0.347970 0.906849
O O1 0.714061 0.577508 0.611756
O O2 0.699185 0.354569 0.545826
O O3 0.614904 0.544487 0.471253
O O4 0.029237 0.544108 0.665887
O O5 0.077083 0.869655 0.159877
O O6 0.343135 0.732830 0.322793
O O7 0.218819 0.957911 0.316094
O O8 0.114656 0.306608 0.604023
O O9 0.123978 0.110496 0.368517
O O10 0.500000 0.000000 0.500000
O O11 0.750000 0.250000 0.000000
#
# Coordination Sequence:
#
# PCOD9267848 Si02
#       5
#     8   8   8   8   8
#     4  10  21  42  65  94 137 178 223 282 356 400
#     4  11  23  41  67  99 139 179 229 292 333 420
#     4  11  24  39  67 102 132 183 234 281 347 425
#     4  12  22  42  70  99 132 181 235 283 348 420
#     4  10  19  40  67  95 125 181 224 273 347 410
#
# _framework density 25.940107000000001
#
# number of rings (size 3 to 8) (size 9 to 14) (size 15 to 20)
#    0.000    1.200    8.000    0.600    2.800    0.800 
#    0.000    0.000    0.000    0.000    0.000    0.000 
#    0.000    0.000    0.000    0.000    0.000    0.000 
#
# Total GULP energy -111783.151086 kJ/mol
# GULP energy per Si atom -5589.157554 kJ/mol
# Density = 2.588107 g / cm^3
# Si number density = 25.940107 Si / 1000 Ang^3
#
#
#
# Elastic Constant Matrix: (Units=GPa)
#
#
# Indices 1 2 3 4 5 6 
#
# 1 94.7832 24.8706 10.2973 0.0001 -16.4582 0.0000
# 2 24.8706 54.8827 53.3511 0.0000 -15.3317 0.0000
# 3 10.2973 53.3511 120.4805 0.0003 -29.8630 0.0001
# 4 0.0001 0.0000 0.0003 42.4356 0.0000 -8.0937
# 5 -16.4582 -15.3317 -29.8630 0.0000 47.4912 0.0000
# 6 0.0000 0.0000 0.0001 -8.0937 0.0000 38.1472
#
#
#
# Elastic Compliance Matrix: (Units=1/GPa)
#
#
# Indices 1 2 3 4 5 6 
#
# 1 0.013026 -0.008188 0.003526 0.000000 0.004088 0.000000
# 2 -0.008188 0.037253 -0.016015 0.000000 -0.000882 0.000000
# 3 0.003526 -0.016015 0.016718 0.000000 0.006564 0.000000
# 4 0.000000 0.000000 0.000000 0.024559 0.000000 0.005211
# 5 0.004088 -0.000882 0.006564 0.000000 0.026316 0.000000
# 6 0.000000 0.000000 0.000000 0.005211 0.000000 0.027320
#
#
# Mechanical properties :
#
#
# Convention : Reuss Voigt Hill
#
# Bulk Modulus (GPa) = 38.99952 49.68714 44.34333
# Shear Modulus (GPa) = 25.62879 37.72329 31.67604
#
# Velocity S-wave (km/s) = 3.14665 3.81759 3.49825
# Velocity P-wave (km/s) = 5.31686 6.21516 5.78348
#
# Compressibility (1/GPa) = 0.02564134
#
# Stress axis : x y z
#
# Youngs Moduli (GPa) = 76.77140 26.84339 59.81753
#
# Poissons Ratio (x) = 0.21980 -0.21091
# Poissons Ratio (y) = 0.62862 0.95798
# Poissons Ratio (z) = -0.27068 0.42990
#
# Static dielectric constant tensor:
#      x y z
#    x 1.988630 0.000000 -0.065810 
#    y 0.000000 1.464540 0.000000 
#    z -0.065810 0.000000 1.898580 
# 
# From -- ./inp_files/237810.got.cif
#   From: 2010.05.17/outbox.cif.g08.bks.cpg/sg15_119_cif.got.tgz:237810.got - 2010.06.03 18:47:42.
