data_PCOD9267849
_publ_section_title
;
Structure prediction by ZEFSAII (Michael W. Deem and Ramdas Pophale) SiO2 
 PCOD9267849
Probable space group: C 2/C
;
_chemical_formula_sum "Si O2"
_cell_formula_units_Z 48
_cell_length_a 25.877645
_cell_length_b 9.730704
_cell_length_c 13.755246
_cell_angle_alpha 90.000000
_cell_angle_beta 137.921280
_cell_angle_gamma 90.000000
_cell_volume 2321.186539
_symmetry_space_group_name_H-M "C 2/C"
_symmetry_group_IT_number 15
_symmetry_cell_setting 'monoclinic'
loop_
_space_group_symop_operation_xyz
x,y,z
-x,y,1/2-z
-x,-y,-z
x,-y,1/2+z
1/2+x,1/2+y,z
1/2-x,1/2+y,1/2-z
1/2-x,1/2-y,-z
1/2+x,1/2-y,1/2+z
loop_
_atom_site_type_symbol
_atom_site_label
_atom_site_fract_x
_atom_site_fract_y
_atom_site_fract_z
Si Si1 0.556080 0.327077 0.636761
Si Si2 0.988542 0.468763 0.372282
Si Si3 0.724915 0.599764 0.431973
Si Si4 0.869319 0.436617 0.554867
Si Si5 0.018142 0.886708 0.161449
Si Si6 0.319285 0.667653 0.548407
O O1 0.538919 0.189055 0.671871
O O2 0.645025 0.371858 0.764900
O O3 0.528997 0.310073 0.487654
O O4 0.509986 0.452735 0.622377
O O5 0.921006 0.555327 0.225776
O O6 0.000000 0.500000 0.500000
O O7 0.070196 0.499779 0.435748
O O8 0.750000 0.750000 0.500000
O O9 0.792469 0.526580 0.464134
O O10 0.707649 0.491167 0.496792
O O11 0.846571 0.276886 0.504867
O O12 0.107803 0.847875 0.278610
O O13 0.000000 0.865426 0.250000
O O14 0.250000 0.750000 0.500000
#
# Coordination Sequence:
#
# PCOD9267849 Si02
#       6
#     8   8   8   8   8   8
#     4  10  22  40  62  97 127 167 219 274 328 409
#     4  11  23  37  65  92 131 171 226 275 325 401
#     4  10  19  40  67  95 134 172 215 276 332 396
#     4  10  22  39  64  93 129 177 214 267 345 387
#     4  10  22  38  66  91 128 168 216 272 339 392
#     4   9  20  37  61  92 127 169 215 261 327 401
#
# _framework density 20.679079000000002
#
# number of rings (size 3 to 8) (size 9 to 14) (size 15 to 20)
#    0.000    2.000    1.667    1.000    7.000    0.000 
#    0.000    6.667    7.333    0.000    0.000    0.000 
#    0.000    0.000    0.000    0.000    0.000    0.000 
#
# Total GULP energy -133708.865537 kJ/mol
# GULP energy per Si atom -5571.202731 kJ/mol
# Density = 2.063201 g / cm^3
# Si number density = 20.679079 Si / 1000 Ang^3
#
#
#
# Elastic Constant Matrix: (Units=GPa)
#
#
# Indices 1 2 3 4 5 6 
#
# 1 96.4277 42.4051 48.9961 0.0000 13.5863 0.0000
# 2 42.4051 167.3260 14.4242 0.0000 12.6678 0.0000
# 3 48.9961 14.4242 68.1560 0.0000 9.5969 0.0000
# 4 0.0000 0.0000 0.0000 29.2723 0.0000 11.2984
# 5 13.5863 12.6678 9.5969 0.0000 34.8287 0.0000
# 6 0.0000 0.0000 0.0000 11.2984 0.0000 23.4275
#
#
#
# Elastic Compliance Matrix: (Units=1/GPa)
#
#
# Indices 1 2 3 4 5 6 
#
# 1 0.018413 -0.003423 -0.012148 0.000000 -0.002590 0.000000
# 2 -0.003423 0.006852 0.001221 0.000000 -0.001493 0.000000
# 3 -0.012148 0.001221 0.023452 0.000000 -0.002167 0.000000
# 4 0.000000 0.000000 0.000000 0.041976 0.000000 -0.020244
# 5 -0.002590 -0.001493 -0.002167 0.000000 0.030863 0.000000
# 6 0.000000 0.000000 0.000000 -0.020244 0.000000 0.052448
#
#
# Mechanical properties :
#
#
# Convention : Reuss Voigt Hill
#
# Bulk Modulus (GPa) = 49.95748 60.39563 55.17656
# Shear Modulus (GPa) = 23.88061 32.57796 28.22928
#
# Velocity S-wave (km/s) = 3.40195 3.97345 3.69875
# Velocity P-wave (km/s) = 6.29618 7.09370 6.70681
#
# Compressibility (1/GPa) = 0.02001702
#
# Stress axis : x y z
#
# Youngs Moduli (GPa) = 54.30886 145.94998 42.64072
#
# Poissons Ratio (x) = 0.49960 0.51799
# Poissons Ratio (y) = 0.18591 -0.05207
# Poissons Ratio (z) = 0.65973 -0.17821
#
# Static dielectric constant tensor:
#      x y z
#    x 1.774810 0.000000 0.018160 
#    y 0.000000 1.777060 0.000000 
#    z 0.018160 0.000000 1.727170 
# 
# From -- ./inp_files/176981.got.cif
#   From: 2010.05.17/outbox.cif.g08.bks.cpg/sg15_89_cif.got.tgz:176981.got - 2010.06.03 18:47:42.
