data_PCOD9267388
_publ_section_title
;
Structure prediction by ZEFSAII (Michael W. Deem and Ramdas Pophale) SiO2 
 PCOD9267388
Probable space group: C 2/C
;
_chemical_formula_sum "Si O2"
_cell_formula_units_Z 24
_cell_length_a 17.896201
_cell_length_b 6.858712
_cell_length_c 11.157167
_cell_angle_alpha 90.000000
_cell_angle_beta 36.325861
_cell_angle_gamma 90.000000
_cell_volume 811.251384
_symmetry_space_group_name_H-M "C 2/C"
_symmetry_group_IT_number 15
_symmetry_cell_setting 'monoclinic'
loop_
_space_group_symop_operation_xyz
x,y,z
-x,y,1/2-z
-x,-y,-z
x,-y,1/2+z
1/2+x,1/2+y,z
1/2-x,1/2+y,1/2-z
1/2-x,1/2-y,-z
1/2+x,1/2-y,1/2+z
loop_
_atom_site_type_symbol
_atom_site_label
_atom_site_fract_x
_atom_site_fract_y
_atom_site_fract_z
Si Si1 0.813721 0.965902 0.919437
Si Si2 0.374489 0.382248 0.594164
Si Si3 0.610490 0.014260 0.526956
O O1 0.905414 0.970141 0.685755
O O2 0.750000 0.750000 0.000000
O O3 0.873470 0.013248 0.967772
O O4 0.693487 0.086051 0.026118
O O5 0.429365 0.164945 0.506327
O O6 0.217133 0.367359 0.816142
O O7 0.500000 0.107742 0.750000
#
# Coordination Sequence:
#
# PCOD9267388 Si02
#       3
#     8   8   8
#     4  10  19  39  62  84 122 158 191 246 297 341
#     4  10  20  39  61  86 122 154 194 246 291 348
#     4  10  22  38  63  88 119 155 198 241 297 345
#
# _framework density 29.583922000000001
#
# number of rings (size 3 to 8) (size 9 to 14) (size 15 to 20)
#    2.000    0.000    3.333    1.000    0.000    1.333 
#    0.000    8.333    0.000    0.000    0.000    0.000 
#    0.000    0.000    0.000    0.000    0.000    0.000 
#
# Total GULP energy -66898.550627 kJ/mol
# GULP energy per Si atom -5574.879219 kJ/mol
# Density = 2.951659 g / cm^3
# Si number density = 29.583922 Si / 1000 Ang^3
#
#
#
# Elastic Constant Matrix: (Units=GPa)
#
#
# Indices 1 2 3 4 5 6 
#
# 1 160.8052 5.5290 49.5578 -0.0008 54.5595 0.0007
# 2 5.5290 67.2393 9.5977 -0.0034 26.3015 0.0031
# 3 49.5578 9.5977 273.4703 -0.0004 42.4788 0.0005
# 4 -0.0008 -0.0034 -0.0004 48.6335 0.0002 3.9021
# 5 54.5595 26.3015 42.4788 0.0002 41.9622 0.0006
# 6 0.0007 0.0031 0.0005 3.9021 0.0006 81.8163
#
#
#
# Elastic Compliance Matrix: (Units=1/GPa)
#
#
# Indices 1 2 3 4 5 6 
#
# 1 0.013768 0.008091 0.000937 0.000001 -0.023921 0.000000
# 2 0.008091 0.024959 0.002043 0.000002 -0.028232 -0.000001
# 3 0.000937 0.002043 0.004513 0.000000 -0.007067 0.000000
# 4 0.000001 0.000002 0.000000 0.020641 -0.000003 -0.000984
# 5 -0.023921 -0.028232 -0.007067 -0.000003 0.079782 0.000001
# 6 0.000000 -0.000001 0.000000 -0.000984 0.000001 0.012269
#
#
# Mechanical properties :
#
#
# Convention : Reuss Voigt Hill
#
# Bulk Modulus (GPa) = 15.29490 70.09820 42.69655
# Shear Modulus (GPa) = 32.13695 63.60443 47.87069
#
# Velocity S-wave (km/s) = 3.29948 4.64180 4.02697
# Velocity P-wave (km/s) = 4.43809 7.24393 6.00713
#
# Compressibility (1/GPa) = 0.06538125
#
# Stress axis : x y z
#
# Youngs Moduli (GPa) = 72.63308 40.06630 221.58208
#
# Poissons Ratio (x) = -0.32418 -0.20756
# Poissons Ratio (y) = -0.58768 -0.45273
# Poissons Ratio (z) = -0.06804 -0.08186
#
# Static dielectric constant tensor:
#      x y z
#    x 2.619850 0.000000 -0.259470 
#    y 0.000000 2.498980 0.000000 
#    z -0.259470 0.000000 2.518140 
# 
# From -- ./inp_files/59580.got.cif
#   From: 2010.05.17/outbox.cif.g08.bks.cpg/sg15_30_cif.got.tgz:59580.got - 2010.06.03 18:47:42.
