data_PCOD9267576
_publ_section_title
;
Structure prediction by ZEFSAII (Michael W. Deem and Ramdas Pophale) SiO2 
 PCOD9267576
Probable space group: C 2/C
;
_chemical_formula_sum "Si O2"
_cell_formula_units_Z 56
_cell_length_a 23.563312
_cell_length_b 7.355846
_cell_length_c 18.136924
_cell_angle_alpha 90.000000
_cell_angle_beta 46.489618
_cell_angle_gamma 90.000000
_cell_volume 2279.922637
_symmetry_space_group_name_H-M "C 2/C"
_symmetry_group_IT_number 15
_symmetry_cell_setting 'monoclinic'
loop_
_space_group_symop_operation_xyz
x,y,z
-x,y,1/2-z
-x,-y,-z
x,-y,1/2+z
1/2+x,1/2+y,z
1/2-x,1/2+y,1/2-z
1/2-x,1/2-y,-z
1/2+x,1/2-y,1/2+z
loop_
_atom_site_type_symbol
_atom_site_label
_atom_site_fract_x
_atom_site_fract_y
_atom_site_fract_z
Si Si1 0.745340 0.126775 0.372577
Si Si2 0.398499 0.530793 0.163674
Si Si3 0.867925 0.095676 0.023698
Si Si4 0.894355 0.354298 0.614294
Si Si5 0.311713 0.989929 0.824894
Si Si6 0.880666 0.433302 0.913347
Si Si7 0.964874 0.736717 0.907037
O O1 0.813825 0.010628 0.275118
O O2 0.687068 0.182881 0.357921
O O3 0.788216 0.304002 0.365377
O O4 0.694838 0.020899 0.477576
O O5 0.392846 0.614696 0.086626
O O6 0.426710 0.326102 0.124745
O O7 0.454936 0.654184 0.161780
O O8 0.773451 0.100625 0.108876
O O9 0.898940 0.252652 0.942705
O O10 0.901015 0.901056 0.966384
O O11 0.865227 0.488119 0.703891
O O12 0.952414 0.381029 0.493621
O O13 0.357811 0.897775 0.850134
O O14 0.945328 0.590301 0.863166
#
# Coordination Sequence:
#
# PCOD9267576 Si02
#       7
#     8   8   8   8   8   8   8
#     4  11  21  38  68 101 131 171 229 289 330 399
#     4  11  22  41  69  98 130 176 225 285 344 395
#     4  11  21  39  69  98 128 168 229 279 342 394
#     4  10  19  39  67 100 127 167 231 285 326 395
#     4  12  22  40  68 103 133 173 225 283 344 402
#     4  11  25  42  69  99 139 177 225 279 346 411
#     4  10  24  45  67  97 138 178 225 281 344 409
#
# _framework density 24.562235999999999
#
# number of rings (size 3 to 8) (size 9 to 14) (size 15 to 20)
#    0.000    1.143    5.714    3.429    4.000    0.571 
#    2.571    0.714    0.000    0.000    0.000    0.000 
#    0.000    0.000    0.000    0.000    0.000    0.000 
#
# Total GULP energy -156674.726584 kJ/mol
# GULP energy per Si atom -5595.525949 kJ/mol
# Density = 2.450633 g / cm^3
# Si number density = 24.562236 Si / 1000 Ang^3
#
#
#
# Elastic Constant Matrix: (Units=GPa)
#
#
# Indices 1 2 3 4 5 6 
#
# 1 54.9894 20.4869 17.8274 -0.0010 -13.1248 -0.0012
# 2 20.4869 66.0249 25.3976 -0.0045 6.1141 0.0039
# 3 17.8274 25.3976 94.2116 -0.0021 -7.0606 0.0032
# 4 -0.0010 -0.0045 -0.0021 11.8816 0.0016 -3.4434
# 5 -13.1248 6.1141 -7.0606 0.0016 25.4239 -0.0020
# 6 -0.0012 0.0039 0.0032 -3.4434 -0.0020 26.9409
#
#
#
# Elastic Compliance Matrix: (Units=1/GPa)
#
#
# Indices 1 2 3 4 5 6 
#
# 1 0.025426 -0.008750 -0.001339 -0.000002 0.014858 0.000003
# 2 -0.008750 0.020680 -0.004729 0.000007 -0.010804 -0.000003
# 3 -0.001339 -0.004729 0.012435 0.000000 0.003899 -0.000001
# 4 -0.000002 0.000007 0.000000 0.087401 -0.000008 0.011171
# 5 0.014858 -0.010804 0.003899 -0.000008 0.050685 0.000005
# 6 0.000003 -0.000003 -0.000001 0.011171 0.000005 0.038546
#
#
# Mechanical properties :
#
#
# Convention : Reuss Voigt Hill
#
# Bulk Modulus (GPa) = 34.59614 38.07217 36.33416
# Shear Modulus (GPa) = 18.21867 22.95021 20.58444
#
# Velocity S-wave (km/s) = 2.72644 3.06006 2.89805
# Velocity P-wave (km/s) = 4.90173 5.29332 5.10128
#
# Compressibility (1/GPa) = 0.02890496
#
# Stress axis : x y z
#
# Youngs Moduli (GPa) = 39.33030 48.35484 80.41938
#
# Poissons Ratio (x) = 0.42312 0.10766
# Poissons Ratio (y) = 0.34415 0.38030
# Poissons Ratio (z) = 0.05266 0.22867
#
# Static dielectric constant tensor:
#      x y z
#    x 1.961530 0.000000 -0.026840 
#    y 0.000000 1.965490 0.000000 
#    z -0.026840 0.000000 1.956570 
# 
# From -- ./inp_files/218529.got.cif
#   From: 2010.05.17/outbox.cif.g08.bks.cpg/sg15_110_cif.got.tgz:218529.got - 2010.06.03 18:47:42.
