data_PCOD9267722
_publ_section_title
;
Structure prediction by ZEFSAII (Michael W. Deem and Ramdas Pophale) SiO2 
 PCOD9267722
Probable space group: C 2/C
;
_chemical_formula_sum "Si O2"
_cell_formula_units_Z 56
_cell_length_a 19.964403
_cell_length_b 15.553193
_cell_length_c 15.845549
_cell_angle_alpha 90.000000
_cell_angle_beta 29.990454
_cell_angle_gamma 90.000000
_cell_volume 2459.392438
_symmetry_space_group_name_H-M "C 2/C"
_symmetry_group_IT_number 15
_symmetry_cell_setting 'monoclinic'
loop_
_space_group_symop_operation_xyz
x,y,z
-x,y,1/2-z
-x,-y,-z
x,-y,1/2+z
1/2+x,1/2+y,z
1/2-x,1/2+y,1/2-z
1/2-x,1/2-y,-z
1/2+x,1/2-y,1/2+z
loop_
_atom_site_type_symbol
_atom_site_label
_atom_site_fract_x
_atom_site_fract_y
_atom_site_fract_z
Si Si1 0.143633 0.545532 0.622065
Si Si2 0.808509 0.653790 0.771589
Si Si3 0.239592 0.145764 0.165285
Si Si4 0.071325 0.683518 0.390529
Si Si5 0.462596 0.605637 0.703008
Si Si6 0.236358 0.866991 0.957050
Si Si7 0.441718 0.383877 0.047634
O O1 0.126342 0.611511 0.717727
O O2 0.208364 0.595068 0.472631
O O3 0.229191 0.466224 0.562160
O O4 0.000000 0.511590 0.750000
O O5 0.765245 0.750757 0.842725
O O6 0.679449 0.599199 0.883367
O O7 0.918486 0.658012 0.577102
O O8 0.335702 0.134636 0.141844
O O9 0.088202 0.118231 0.349367
O O10 0.131548 0.665785 0.233157
O O11 0.083318 0.784872 0.395733
O O12 0.500000 0.555364 0.750000
O O13 0.608234 0.651473 0.535214
O O14 0.435020 0.565132 0.643238
O O15 0.333095 0.658803 0.877720
#
# Coordination Sequence:
#
# PCOD9267722 Si02
#       7
#     8   8   8   8   8   8   8
#     4  12  24  41  60  88 128 170 202 254 313 369
#     4  10  23  37  62  98 119 153 213 257 306 364
#     4  10  20  41  65  86 124 164 204 255 309 365
#     4  10  19  40  62  91 124 159 204 259 306 367
#     4   8  19  41  60  85 125 160 205 251 299 365
#     4   9  22  39  59  87 127 163 209 241 307 378
#     4  10  20  37  68  92 117 160 206 259 310 350
#
# _framework density 22.769850999999999
#
# number of rings (size 3 to 8) (size 9 to 14) (size 15 to 20)
#    0.857    1.143    2.857    0.429    0.000    5.143 
#    2.571    2.143    0.000    0.000    0.000    0.000 
#    0.000    0.000    0.000    0.000    0.000    0.000 
#
# Total GULP energy -156003.691600 kJ/mol
# GULP energy per Si atom -5571.560414 kJ/mol
# Density = 2.271803 g / cm^3
# Si number density = 22.769851 Si / 1000 Ang^3
#
#
#
# Elastic Constant Matrix: (Units=GPa)
#
#
# Indices 1 2 3 4 5 6 
#
# 1 46.3400 19.4497 12.2246 0.0000 -3.6051 0.0000
# 2 19.4497 56.5175 30.1466 0.0000 8.0085 0.0000
# 3 12.2246 30.1466 148.4281 0.0000 -1.0447 0.0000
# 4 0.0000 0.0000 0.0000 -1.5722 0.0000 -7.6063
# 5 -3.6051 8.0085 -1.0447 0.0000 34.2576 0.0000
# 6 0.0000 0.0000 0.0000 -7.6063 0.0000 8.8885
#
#
#
# Elastic Compliance Matrix: (Units=1/GPa)
#
#
# Indices 1 2 3 4 5 6 
#
# 1 0.026028 -0.009574 -0.000164 0.000000 0.004972 0.000000
# 2 -0.009574 0.024174 -0.004169 0.000000 -0.006786 0.000000
# 3 -0.000164 -0.004169 0.007606 0.000000 0.001189 0.000000
# 4 0.000000 0.000000 0.000000 -0.123744 0.000000 -0.105893
# 5 0.004972 -0.006786 0.001189 0.000000 0.031336 0.000000
# 6 0.000000 0.000000 0.000000 -0.105893 0.000000 0.021887
#
#
# Mechanical properties :
#
#
# Convention : Reuss Voigt Hill
#
# Bulk Modulus (GPa) = 33.34100 41.65858 37.49979
# Shear Modulus (GPa) = 199.19750 20.94578 110.07164
#
# Velocity S-wave (km/s) = 9.36338 3.03626 6.96031
# Velocity P-wave (km/s) = 11.47047 5.53417 9.00552
#
# Compressibility (1/GPa) = 0.02999310
#
# Stress axis : x y z
#
# Youngs Moduli (GPa) = 38.41982 41.36700 131.47662
#
# Poissons Ratio (x) = 0.39606 0.02158
# Poissons Ratio (y) = 0.36784 0.54814
# Poissons Ratio (z) = 0.00630 0.17246
#
# Static dielectric constant tensor:
#      x y z
#    x 1.849740 0.000000 -0.002060 
#    y 0.000000 1.874640 0.000000 
#    z -0.002060 0.000000 1.875850 
# 
# From -- ./inp_files/169104.got.cif
#   From: 2010.05.17/outbox.cif.g08.bks.cpg/sg15_85_cif.got.tgz:169104.got - 2010.06.03 18:47:42.
