data_PCOD9267748
_publ_section_title
;
Structure prediction by ZEFSAII (Michael W. Deem and Ramdas Pophale) SiO2 
 PCOD9267748
Probable space group: C 2/C
;
_chemical_formula_sum "Si O2"
_cell_formula_units_Z 56
_cell_length_a 10.928524
_cell_length_b 11.066564
_cell_length_c 23.088254
_cell_angle_alpha 90.000000
_cell_angle_beta 71.401441
_cell_angle_gamma 90.000000
_cell_volume 2646.496395
_symmetry_space_group_name_H-M "C 2/C"
_symmetry_group_IT_number 15
_symmetry_cell_setting 'monoclinic'
loop_
_space_group_symop_operation_xyz
x,y,z
-x,y,1/2-z
-x,-y,-z
x,-y,1/2+z
1/2+x,1/2+y,z
1/2-x,1/2+y,1/2-z
1/2-x,1/2-y,-z
1/2+x,1/2-y,1/2+z
loop_
_atom_site_type_symbol
_atom_site_label
_atom_site_fract_x
_atom_site_fract_y
_atom_site_fract_z
Si Si1 0.927365 0.981480 0.397549
Si Si2 0.214714 0.171765 0.665730
Si Si3 0.323332 0.612764 0.698669
Si Si4 0.515478 0.835744 0.842318
Si Si5 0.406378 0.749216 0.974690
Si Si6 0.489928 0.254832 0.590207
Si Si7 0.060270 0.589958 0.683171
O O1 0.804151 0.932246 0.380198
O O2 0.943157 0.885873 0.447398
O O3 0.047956 0.960058 0.336130
O O4 0.937537 0.117667 0.416220
O O5 0.211487 0.112421 0.728885
O O6 0.091762 0.259466 0.677126
O O7 0.342026 0.250246 0.635805
O O8 0.357117 0.753337 0.678838
O O9 0.207123 0.564237 0.677851
O O10 0.459060 0.835445 0.915943
O O11 0.520115 0.968236 0.816017
O O12 0.250000 0.750000 0.000000
O O13 0.471727 0.778302 0.025796
O O14 0.557781 0.164918 0.624656
O O15 0.000000 0.652037 0.750000
#
# Coordination Sequence:
#
# PCOD9267748 Si02
#       7
#     8   8   8   8   8   8   8
#     4  10  22  38  68  92 119 166 215 266 314 376
#     4  10  19  40  63  90 122 164 213 262 313 382
#     4  10  21  41  61  91 127 163 215 254 321 385
#     4  10  22  41  66  88 120 171 213 261 312 380
#     4  10  20  43  68  89 118 165 223 260 315 376
#     4  12  23  39  61  97 128 157 209 269 317 376
#     4  12  25  40  60  96 133 166 201 256 330 387
#
# _framework density 21.160052
#
# number of rings (size 3 to 8) (size 9 to 14) (size 15 to 20)
#    0.000    1.714    4.286    3.857    0.000    2.857 
#    2.571    2.857    0.000    0.000    0.000    0.000 
#    0.000    0.000    0.000    0.000    0.000    0.000 
#
# Total GULP energy -156318.920384 kJ/mol
# GULP energy per Si atom -5582.818585 kJ/mol
# Density = 2.111189 g / cm^3
# Si number density = 21.160052 Si / 1000 Ang^3
#
#
#
# Elastic Constant Matrix: (Units=GPa)
#
#
# Indices 1 2 3 4 5 6 
#
# 1 33.7119 14.5117 17.7201 0.0000 9.1769 0.0000
# 2 14.5117 54.5596 18.5302 0.0000 18.3917 0.0000
# 3 17.7201 18.5302 120.9555 0.0000 32.7410 0.0000
# 4 0.0000 0.0000 0.0000 12.0394 0.0000 -3.1293
# 5 9.1769 18.3917 32.7410 0.0000 34.4174 0.0000
# 6 0.0000 0.0000 0.0000 -3.1293 0.0000 18.7713
#
#
#
# Elastic Compliance Matrix: (Units=1/GPa)
#
#
# Indices 1 2 3 4 5 6 
#
# 1 0.035279 -0.007498 -0.003445 0.000000 -0.002123 0.000000
# 2 -0.007498 0.023955 0.000475 0.000000 -0.011253 0.000000
# 3 -0.003445 0.000475 0.011474 0.000000 -0.010250 0.000000
# 4 0.000000 0.000000 0.000000 0.086823 0.000000 0.014474
# 5 -0.002123 -0.011253 -0.010250 0.000000 0.045385 0.000000
# 6 0.000000 0.000000 0.000000 0.014474 0.000000 0.055686
#
#
# Mechanical properties :
#
#
# Convention : Reuss Voigt Hill
#
# Bulk Modulus (GPa) = 20.09176 34.52787 27.30982
# Shear Modulus (GPa) = 16.88448 23.60997 20.24722
#
# Velocity S-wave (km/s) = 2.82785 3.34395 3.09667
# Velocity P-wave (km/s) = 4.49200 5.59127 5.07151
#
# Compressibility (1/GPa) = 0.04977164
#
# Stress axis : x y z
#
# Youngs Moduli (GPa) = 28.34512 41.74479 87.15269
#
# Poissons Ratio (x) = 0.31300 0.30026
# Poissons Ratio (y) = 0.21253 -0.04137
# Poissons Ratio (z) = 0.09766 -0.01982
#
# Static dielectric constant tensor:
#      x y z
#    x 1.790270 0.000000 0.001680 
#    y 0.000000 1.770530 0.000000 
#    z 0.001680 0.000000 1.780120 
# 
# From -- ./inp_files/236983.got.cif
#   From: 2010.05.17/outbox.cif.g08.bks.cpg/sg15_119_cif.got.tgz:236983.got - 2010.06.03 18:47:42.
