data_PCOD9267946
_publ_section_title
;
Structure prediction by ZEFSAII (Michael W. Deem and Ramdas Pophale) SiO2 
 PCOD9267946
Probable space group: C 2/C
;
_chemical_formula_sum "Si O2"
_cell_formula_units_Z 60
_cell_length_a 24.745996
_cell_length_b 8.615011
_cell_length_c 14.220167
_cell_angle_alpha 90.000000
_cell_angle_beta 60.544125
_cell_angle_gamma 90.000000
_cell_volume 2639.680150
_symmetry_space_group_name_H-M "C 2/C"
_symmetry_group_IT_number 15
_symmetry_cell_setting 'monoclinic'
loop_
_space_group_symop_operation_xyz
x,y,z
-x,y,1/2-z
-x,-y,-z
x,-y,1/2+z
1/2+x,1/2+y,z
1/2-x,1/2+y,1/2-z
1/2-x,1/2-y,-z
1/2+x,1/2-y,1/2+z
loop_
_atom_site_type_symbol
_atom_site_label
_atom_site_fract_x
_atom_site_fract_y
_atom_site_fract_z
Si Si1 0.370652 0.758571 0.569807
Si Si2 0.861374 0.893247 0.885499
Si Si3 0.672990 0.232254 0.775769
Si Si4 0.271519 0.101541 0.298390
Si Si5 0.146306 0.738147 0.120416
Si Si6 0.038603 0.786614 0.358776
Si Si7 0.417570 0.100442 0.506199
Si Si8 0.500000 0.456830 0.750000
O O1 0.344298 0.679697 0.499689
O O2 0.315978 0.809877 0.685929
O O3 0.420007 0.659795 0.588196
O O4 0.408001 0.916456 0.514475
O O5 0.832017 0.814418 0.819882
O O6 0.935753 0.868241 0.813393
O O7 0.847795 0.076563 0.894246
O O8 0.703563 0.348400 0.824993
O O9 0.714157 0.078124 0.728313
O O10 0.608403 0.171558 0.874353
O O11 0.294604 0.159956 0.380164
O O12 0.087808 0.716300 0.241966
O O13 0.126614 0.662959 0.039574
O O14 0.986380 0.662273 0.429115
O O15 0.006268 0.930048 0.334597
#
# Coordination Sequence:
#
# PCOD9267946 Si02
#       8
#     8   8   8   8   8   8   8   4
#     4  10  24  38  65  91 127 163 212 252 314 365
#     4  11  23  41  59  98 123 172 199 261 301 375
#     4  11  25  41  67  89 128 159 219 258 315 364
#     4  10  23  46  63  94 120 168 207 269 306 372
#     4  10  21  40  67  87 132 162 209 247 322 363
#     4  10  19  41  61  91 126 167 200 255 301 377
#     4  11  21  40  62  96 122 167 207 257 312 376
#     4  10  22  40  60  94 136 160 206 250 312 372
#
# _framework density 22.730028000000001
#
# number of rings (size 3 to 8) (size 9 to 14) (size 15 to 20)
#    0.000    1.600    2.667    2.000    1.867    5.867 
#    2.400    0.000    0.000    0.000    0.000    0.000 
#    0.000    0.000    0.000    0.000    0.000    0.000 
#
# Total GULP energy -167940.519842 kJ/mol
# GULP energy per Si atom -5598.017328 kJ/mol
# Density = 2.267829 g / cm^3
# Si number density = 22.730028 Si / 1000 Ang^3
#
#
#
# Elastic Constant Matrix: (Units=GPa)
#
#
# Indices 1 2 3 4 5 6 
#
# 1 88.7995 25.6335 22.8748 0.0000 26.2850 0.0000
# 2 25.6335 58.8125 26.7719 0.0000 7.0910 0.0000
# 3 22.8748 26.7719 77.0051 0.0000 16.8431 0.0000
# 4 0.0000 0.0000 0.0000 20.8226 0.0000 -13.7501
# 5 26.2850 7.0910 16.8431 0.0000 42.2257 0.0000
# 6 0.0000 0.0000 0.0000 -13.7501 0.0000 4.3304
#
#
#
# Elastic Compliance Matrix: (Units=1/GPa)
#
#
# Indices 1 2 3 4 5 6 
#
# 1 0.015525 -0.005335 -0.000919 0.000000 -0.008402 0.000000
# 2 -0.005335 0.022050 -0.006571 0.000000 0.002239 0.000000
# 3 -0.000919 -0.006571 0.016628 0.000000 -0.004957 0.000000
# 4 0.000000 0.000000 0.000000 -0.043786 0.000000 -0.139035
# 5 -0.008402 0.002239 -0.004957 0.000000 0.030513 0.000000
# 6 0.000000 0.000000 0.000000 -0.139035 0.000000 -0.210548
#
#
# Mechanical properties :
#
#
# Convention : Reuss Voigt Hill
#
# Bulk Modulus (GPa) = 35.02379 41.68638 38.35508
# Shear Modulus (GPa) = -37.18835 23.43152 -6.87841
#
# Velocity S-wave (km/s) = -4.04925 3.21419 -1.74147
# Velocity P-wave (km/s) = 2.53374 5.67047 3.58709
#
# Compressibility (1/GPa) = 0.02855202
#
# Stress axis : x y z
#
# Youngs Moduli (GPa) = 64.41167 45.35222 60.13999
#
# Poissons Ratio (x) = 0.24196 0.05529
# Poissons Ratio (y) = 0.34365 0.39517
# Poissons Ratio (z) = 0.05922 0.29800
#
# Static dielectric constant tensor:
#      x y z
#    x 1.866680 0.000000 -0.028790 
#    y 0.000000 1.801890 0.000000 
#    z -0.028790 0.000000 1.853710 
# 
# From -- ./inp_files/172359.got.cif
#   From: 2010.05.17/outbox.cif.g08.bks.cpg/sg15_87_cif.got.tgz:172359.got - 2010.06.03 18:47:42.
