data_PCOD9267515
_publ_section_title
;
Structure prediction by ZEFSAII (Michael W. Deem and Ramdas Pophale) SiO2 
 PCOD9267515
Probable space group: C 2/C
;
_chemical_formula_sum "Si O2"
_cell_formula_units_Z 64
_cell_length_a 12.618881
_cell_length_b 9.569263
_cell_length_c 24.141049
_cell_angle_alpha 90.000000
_cell_angle_beta 117.490121
_cell_angle_gamma 90.000000
_cell_volume 2585.969330
_symmetry_space_group_name_H-M "C 2/C"
_symmetry_group_IT_number 15
_symmetry_cell_setting 'monoclinic'
loop_
_space_group_symop_operation_xyz
x,y,z
-x,y,1/2-z
-x,-y,-z
x,-y,1/2+z
1/2+x,1/2+y,z
1/2-x,1/2+y,1/2-z
1/2-x,1/2-y,-z
1/2+x,1/2-y,1/2+z
loop_
_atom_site_type_symbol
_atom_site_label
_atom_site_fract_x
_atom_site_fract_y
_atom_site_fract_z
Si Si1 0.093793 0.229181 0.207762
Si Si2 0.955912 0.376067 0.528654
Si Si3 0.060732 0.964376 0.134773
Si Si4 0.552436 0.035318 0.168516
Si Si5 0.688814 0.454382 0.826427
Si Si6 0.390553 0.605432 0.964594
Si Si7 0.796943 0.977949 0.048639
Si Si8 0.138448 0.784410 0.255246
O O1 0.034216 0.380570 0.188362
O O2 0.119908 0.165311 0.275343
O O3 0.225178 0.235807 0.211217
O O4 0.032266 0.116604 0.152634
O O5 0.972619 0.418511 0.597106
O O6 0.044089 0.252170 0.530067
O O7 0.000000 0.500000 0.500000
O O8 0.813393 0.370957 0.482531
O O9 0.151807 0.948234 0.105616
O O10 0.123977 0.884776 0.199101
O O11 0.928736 0.907834 0.086604
O O12 0.684967 0.033364 0.173755
O O13 0.559575 0.153121 0.217225
O O14 0.716755 0.436237 0.897518
O O15 0.622901 0.605392 0.801877
O O16 0.500000 0.500000 0.000000
O O17 0.305981 0.577735 0.996590
#
# Coordination Sequence:
#
# PCOD9267515 Si02
#       8
#     8   8   8   8   8   8   8   8
#     4   9  20  36  69  99 133 182 231 294 371 434
#     4  12  25  44  69 102 147 187 238 302 372 444
#     4  10  21  42  67  98 137 181 244 291 354 451
#     4  10  19  39  65 101 136 181 229 298 365 420
#     4   9  19  39  67  99 129 179 238 286 361 448
#     4  10  25  45  68  99 139 187 240 287 362 443
#     4  11  25  43  73 103 141 193 239 302 373 447
#     4   9  18  37  67  97 130 185 232 296 360 423
#
# _framework density 24.748939
#
# number of rings (size 3 to 8) (size 9 to 14) (size 15 to 20)
#    0.000    2.000    2.500    0.750    3.500    4.500 
#    0.000    0.000    5.500    6.000    0.000    0.000 
#    0.000    0.000    0.000    0.000    0.000    0.000 
#
# Total GULP energy -178623.902422 kJ/mol
# GULP energy per Si atom -5581.996951 kJ/mol
# Density = 2.469261 g / cm^3
# Si number density = 24.748939 Si / 1000 Ang^3
#
#
#
# Elastic Constant Matrix: (Units=GPa)
#
#
# Indices 1 2 3 4 5 6 
#
# 1 61.9836 -6.7847 41.2640 0.0000 1.1657 0.0000
# 2 -6.7847 154.7277 51.8516 0.0000 -10.3337 0.0000
# 3 41.2640 51.8516 144.6864 0.0000 -27.6863 0.0000
# 4 0.0000 0.0000 0.0000 21.4901 0.0000 -3.2941
# 5 1.1657 -10.3337 -27.6863 0.0000 53.0350 0.0000
# 6 0.0000 0.0000 0.0000 -3.2941 0.0000 22.3748
#
#
#
# Elastic Compliance Matrix: (Units=1/GPa)
#
#
# Indices 1 2 3 4 5 6 
#
# 1 0.022172 0.003501 -0.008378 0.000000 -0.004179 0.000000
# 2 0.003501 0.007898 -0.003943 0.000000 -0.000596 0.000000
# 3 -0.008378 -0.003943 0.011779 0.000000 0.005565 0.000000
# 4 0.000000 0.000000 0.000000 0.047607 0.000000 0.007009
# 5 -0.004179 -0.000596 0.005565 0.000000 0.021736 0.000000
# 6 0.000000 0.000000 0.000000 0.007009 0.000000 0.045725
#
#
# Mechanical properties :
#
#
# Convention : Reuss Voigt Hill
#
# Bulk Modulus (GPa) = 41.30684 59.33997 50.32340
# Shear Modulus (GPa) = 27.37827 37.71777 32.54802
#
# Velocity S-wave (km/s) = 3.32963 3.90810 3.63040
# Velocity P-wave (km/s) = 5.61324 6.66282 6.16042
#
# Compressibility (1/GPa) = 0.02420907
#
# Stress axis : x y z
#
# Youngs Moduli (GPa) = 45.10158 126.61507 84.89975
#
# Poissons Ratio (x) = -0.44323 0.71125
# Poissons Ratio (y) = -0.15788 0.33475
# Poissons Ratio (z) = 0.37784 0.49923
#
# Static dielectric constant tensor:
#      x y z
#    x 2.032420 0.000000 -0.078350 
#    y 0.000000 2.044980 0.000000 
#    z -0.078350 0.000000 1.895600 
# 
# From -- ./inp_files/279242.got.cif
#   From: 2010.05.17/outbox.cif.g08.bks.cpg/sg15_140_cif.got.tgz:279242.got - 2010.06.03 18:47:42.
