data_PCOD9267145
_publ_section_title
;
Structure prediction by ZEFSAII (Michael W. Deem and Ramdas Pophale) SiO2 
 PCOD9267145
Probable space group: C 2/C
;
_chemical_formula_sum "Si O2"
_cell_formula_units_Z 40
_cell_length_a 11.465641
_cell_length_b 11.313364
_cell_length_c 19.993177
_cell_angle_alpha 90.000000
_cell_angle_beta 42.196141
_cell_angle_gamma 90.000000
_cell_volume 1741.920418
_symmetry_space_group_name_H-M "C 2/C"
_symmetry_group_IT_number 15
_symmetry_cell_setting 'monoclinic'
loop_
_space_group_symop_operation_xyz
x,y,z
-x,y,1/2-z
-x,-y,-z
x,-y,1/2+z
1/2+x,1/2+y,z
1/2-x,1/2+y,1/2-z
1/2-x,1/2-y,-z
1/2+x,1/2-y,1/2+z
loop_
_atom_site_type_symbol
_atom_site_label
_atom_site_fract_x
_atom_site_fract_y
_atom_site_fract_z
Si Si1 0.672246 0.461404 0.822975
Si Si2 0.788651 0.110449 0.483653
Si Si3 0.164977 0.397311 0.610222
Si Si4 0.520513 0.708650 0.899419
Si Si5 0.806198 0.146506 0.331733
O O1 0.484310 0.410979 0.926001
O O2 0.807425 0.424383 0.823030
O O3 0.643422 0.600773 0.826139
O O4 0.707298 0.413980 0.734303
O O5 0.750000 0.250000 0.500000
O O6 0.796622 0.068571 0.402523
O O7 0.654764 0.026700 0.579530
O O8 0.347606 0.345058 0.504692
O O9 0.034446 0.298775 0.636214
O O10 0.637423 0.772761 0.904929
O O11 0.000000 0.203333 0.250000
#
# Coordination Sequence:
#
# PCOD9267145 Si02
#       5
#     8   8   8   8   8
#     4  10  21  41  60  90 131 161 203 267 321 366
#     4  10  19  38  66  88 124 163 211 256 310 388
#     4  10  21  39  67  92 118 173 209 259 322 370
#     4  10  21  42  62  90 127 159 219 258 309 393
#     4  10  22  40  57  92 123 164 200 259 326 365
#
# _framework density 22.963162000000001
#
# number of rings (size 3 to 8) (size 9 to 14) (size 15 to 20)
#    0.000    2.000    0.000    4.800    0.000    1.600 
#   32.400    0.000    0.000    0.000    0.000    0.000 
#    0.000    0.000    0.000    0.000    0.000    0.000 
#
# Total GULP energy -111602.241283 kJ/mol
# GULP energy per Si atom -5580.112064 kJ/mol
# Density = 2.291090 g / cm^3
# Si number density = 22.963162 Si / 1000 Ang^3
#
#
#
# Elastic Constant Matrix: (Units=GPa)
#
#
# Indices 1 2 3 4 5 6 
#
# 1 155.3229 60.7909 26.1360 0.0000 30.6993 0.0000
# 2 60.7909 104.6766 31.8196 0.0000 28.9261 0.0000
# 3 26.1360 31.8196 72.1042 0.0000 35.3496 0.0000
# 4 0.0000 0.0000 0.0000 1.8630 0.0000 -9.2912
# 5 30.6993 28.9261 35.3496 0.0000 34.2090 0.0000
# 6 0.0000 0.0000 0.0000 -9.2912 0.0000 29.1192
#
#
#
# Elastic Compliance Matrix: (Units=1/GPa)
#
#
# Indices 1 2 3 4 5 6 
#
# 1 0.008970 -0.003934 0.001622 0.000000 -0.006399 0.000000
# 2 -0.003934 0.014208 -0.001388 0.000000 -0.007049 0.000000
# 3 0.001622 -0.001388 0.028439 0.000000 -0.029669 0.000000
# 4 0.000000 0.000000 0.000000 -0.907775 0.000000 -0.289647
# 5 -0.006399 -0.007049 -0.029669 0.000000 0.071593 0.000000
# 6 0.000000 0.000000 0.000000 -0.289647 0.000000 -0.058077
#
#
# Mechanical properties :
#
#
# Convention : Reuss Voigt Hill
#
# Bulk Modulus (GPa) = 22.61626 63.28852 42.95239
# Shear Modulus (GPa) = -6.09382 27.26205 10.58412
#
# Velocity S-wave (km/s) = -1.63080 3.44933 2.14923
# Velocity P-wave (km/s) = 2.51482 6.59428 4.99043
#
# Compressibility (1/GPa) = 0.04421597
#
# Stress axis : x y z
#
# Youngs Moduli (GPa) = 111.48642 70.38452 35.16313
#
# Poissons Ratio (x) = 0.27688 -0.05703
# Poissons Ratio (y) = 0.43857 0.04881
# Poissons Ratio (z) = -0.18082 0.09771
#
# Static dielectric constant tensor:
#      x y z
#    x 1.866640 0.000000 -0.025940 
#    y 0.000000 1.949750 0.000000 
#    z -0.025940 0.000000 1.906510 
# 
# From -- ./inp_files/195910.got.cif
#   From: 2010.05.17/outbox.cif.g08.bks.cpg/sg15_98_cif.got.tgz:195910.got - 2010.06.03 18:47:42.
