data_PCOD9267987
_publ_section_title
;
Structure prediction by ZEFSAII (Michael W. Deem and Ramdas Pophale) SiO2 
 PCOD9267987
Probable space group: C 2/C
;
_chemical_formula_sum "Si O2"
_cell_formula_units_Z 60
_cell_length_a 17.227230
_cell_length_b 9.047525
_cell_length_c 20.260560
_cell_angle_alpha 90.000000
_cell_angle_beta 105.027037
_cell_angle_gamma 90.000000
_cell_volume 3049.899315
_symmetry_space_group_name_H-M "C 2/C"
_symmetry_group_IT_number 15
_symmetry_cell_setting 'monoclinic'
loop_
_space_group_symop_operation_xyz
x,y,z
-x,y,1/2-z
-x,-y,-z
x,-y,1/2+z
1/2+x,1/2+y,z
1/2-x,1/2+y,1/2-z
1/2-x,1/2-y,-z
1/2+x,1/2-y,1/2+z
loop_
_atom_site_type_symbol
_atom_site_label
_atom_site_fract_x
_atom_site_fract_y
_atom_site_fract_z
Si Si1 0.592024 0.115271 0.973768
Si Si2 0.000000 0.394358 0.250000
Si Si3 0.656706 0.251549 0.720494
Si Si4 0.881779 0.424032 0.640373
Si Si5 0.766961 0.968051 0.321790
Si Si6 0.403713 0.867169 0.428568
Si Si7 0.811026 0.129606 0.980328
Si Si8 0.160885 0.813727 0.468835
O O1 0.497755 0.102706 0.938551
O O2 0.636946 0.044663 0.921027
O O3 0.606496 0.281785 0.995284
O O4 0.622960 0.016204 0.041012
O O5 0.926042 0.291623 0.258873
O O6 0.962049 0.508972 0.189113
O O7 0.730274 0.172524 0.775012
O O8 0.674735 0.423662 0.707239
O O9 0.643748 0.172548 0.647126
O O10 0.811145 0.431448 0.677972
O O11 0.879316 0.267653 0.602566
O O12 0.798382 0.917110 0.401066
O O13 0.390301 0.737415 0.478918
O O14 0.750000 0.250000 0.000000
O O15 0.823382 0.986455 0.028049
O O16 0.250000 0.750000 0.500000
#
# Coordination Sequence:
#
# PCOD9267987 Si02
#       8
#     8   4   8   8   8   8   8   8
#     4  10  21  35  64  98 121 161 211 256 325 388
#     4  10  22  40  72  88 134 178 218 260 322 408
#     4  11  23  43  66  91 130 177 217 263 320 387
#     4  10  19  41  64  94 125 170 214 254 325 387
#     4  11  24  41  63  95 128 168 220 263 316 388
#     4  10  20  39  63  87 127 167 206 257 324 384
#     4  12  22  38  64  96 127 161 213 272 325 378
#     4  11  20  38  62  92 128 164 207 272 316 376
#
# _framework density 19.672781000000001
#
# number of rings (size 3 to 8) (size 9 to 14) (size 15 to 20)
#    0.000    1.333    5.333    0.800    1.867    0.533 
#    0.000    0.000    0.000    1.600    0.000    0.000 
#    0.000    0.000    0.000    0.000    0.000    0.000 
#
# Total GULP energy -167091.061687 kJ/mol
# GULP energy per Si atom -5569.702056 kJ/mol
# Density = 1.962800 g / cm^3
# Si number density = 19.672781 Si / 1000 Ang^3
#
#
#
# Elastic Constant Matrix: (Units=GPa)
#
#
# Indices 1 2 3 4 5 6 
#
# 1 57.7386 30.8751 18.7598 0.0000 -9.3776 0.0000
# 2 30.8751 133.1327 38.3323 0.0000 3.7540 0.0000
# 3 18.7598 38.3323 71.5974 0.0000 0.1861 0.0000
# 4 0.0000 0.0000 0.0000 16.2584 0.0000 1.5539
# 5 -9.3776 3.7540 0.1861 0.0000 17.3090 0.0000
# 6 0.0000 0.0000 0.0000 1.5539 0.0000 23.2358
#
#
#
# Elastic Compliance Matrix: (Units=1/GPa)
#
#
# Indices 1 2 3 4 5 6 
#
# 1 0.023238 -0.004742 -0.003586 0.000000 0.013657 0.000000
# 2 -0.004742 0.009909 -0.004051 0.000000 -0.004675 0.000000
# 3 -0.003586 -0.004051 0.017078 0.000000 -0.001248 0.000000
# 4 0.000000 0.000000 0.000000 0.061902 0.000000 -0.004140
# 5 0.013657 -0.004675 -0.001248 0.000000 0.066200 0.000000
# 6 0.000000 0.000000 0.000000 -0.004140 0.000000 0.043314
#
#
# Mechanical properties :
#
#
# Convention : Reuss Voigt Hill
#
# Bulk Modulus (GPa) = 39.26266 48.71145 43.98706
# Shear Modulus (GPa) = 19.61649 22.99406 21.30528
#
# Velocity S-wave (km/s) = 3.16118 3.42252 3.29444
# Velocity P-wave (km/s) = 5.77280 6.35868 6.07281
#
# Compressibility (1/GPa) = 0.02546949
#
# Stress axis : x y z
#
# Youngs Moduli (GPa) = 43.03258 100.91744 58.55363
#
# Poissons Ratio (x) = 0.47854 0.20995
# Poissons Ratio (y) = 0.20406 0.23718
# Poissons Ratio (z) = 0.15430 0.40877
#
# Static dielectric constant tensor:
#      x y z
#    x 1.781770 0.000000 -0.012390 
#    y 0.000000 1.730830 0.000000 
#    z -0.012390 0.000000 1.717280 
# 
# From -- ./inp_files/247493.got.cif
#   From: 2010.05.17/outbox.cif.g08.bks.cpg/sg15_124_cif.got.tgz:247493.got - 2010.06.03 18:47:42.
