data_PCOD9267925
_publ_section_title
;
Structure prediction by ZEFSAII (Michael W. Deem and Ramdas Pophale) SiO2 
 PCOD9267925
Probable space group: C 2/C
;
_chemical_formula_sum "Si O2"
_cell_formula_units_Z 48
_cell_length_a 17.700252
_cell_length_b 27.268685
_cell_length_c 8.794561
_cell_angle_alpha 90.000000
_cell_angle_beta 150.717664
_cell_angle_gamma 90.000000
_cell_volume 2076.192060
_symmetry_space_group_name_H-M "C 2/C"
_symmetry_group_IT_number 15
_symmetry_cell_setting 'monoclinic'
loop_
_space_group_symop_operation_xyz
x,y,z
-x,y,1/2-z
-x,-y,-z
x,-y,1/2+z
1/2+x,1/2+y,z
1/2-x,1/2+y,1/2-z
1/2-x,1/2-y,-z
1/2+x,1/2-y,1/2+z
loop_
_atom_site_type_symbol
_atom_site_label
_atom_site_fract_x
_atom_site_fract_y
_atom_site_fract_z
Si Si1 0.804031 0.789983 0.313233
Si Si2 0.274193 0.959087 0.612311
Si Si3 0.076608 0.109390 0.616556
Si Si4 0.500000 0.260237 0.250000
Si Si5 0.500000 0.472286 0.750000
Si Si6 0.000000 0.704233 0.750000
Si Si7 0.000000 0.501082 0.750000
Si Si8 0.687372 0.673555 0.322568
O O1 0.865095 0.839917 0.350447
O O2 0.802779 0.801597 0.492680
O O3 0.913299 0.742687 0.486514
O O4 0.640972 0.775396 0.957070
O O5 0.188806 0.906941 0.447617
O O6 0.387502 0.970623 0.667236
O O7 0.129175 0.996064 0.388219
O O8 0.386419 0.966109 0.950598
O O9 0.084483 0.064163 0.514904
O O10 0.896823 0.121149 0.326073
O O11 0.582643 0.294186 0.522192
O O12 0.862991 0.672956 0.578193
#
# Coordination Sequence:
#
# PCOD9267925 Si02
#       8
#     8   8   8   4   4   4   4   8
#     4  11  22  44  71  99 142 191 240 293 347 446
#     4  11  25  47  84 105 146 191 243 299 380 440
#     4  12  24  44  75 107 141 189 244 292 358 435
#     4  10  24  40  70 100 140 196 228 289 371 414
#     4  12  23  49  80 104 141 207 238 295 373 452
#     4  10  19  40  75  98 134 194 228 296 358 406
#     4  10  24  49  77 112 137 191 236 310 364 452
#     4  11  23  45  70 102 144 183 250 288 351 440
#
# _framework density 23.119247999999999
#
# number of rings (size 3 to 8) (size 9 to 14) (size 15 to 20)
#    0.000    1.000    5.000    2.500    0.000    2.000 
#    3.000    0.833    7.333    0.000    0.000    0.000 
#    0.000    0.000    0.000    0.000    0.000    0.000 
#
# Total GULP energy -134096.283785 kJ/mol
# GULP energy per Si atom -5587.345158 kJ/mol
# Density = 2.306663 g / cm^3
# Si number density = 23.119248 Si / 1000 Ang^3
#
#
#
# Elastic Constant Matrix: (Units=GPa)
#
#
# Indices 1 2 3 4 5 6 
#
# 1 118.5926 40.2879 50.4859 0.0000 18.5741 0.0000
# 2 40.2879 64.7389 30.9154 0.0000 13.0154 0.0000
# 3 50.4859 30.9154 159.3329 0.0000 18.4151 0.0000
# 4 0.0000 0.0000 0.0000 542.3696 0.0000 150.3141
# 5 18.5741 13.0154 18.4151 0.0000 46.7689 0.0000
# 6 0.0000 0.0000 0.0000 150.3141 0.0000 63.1382
#
#
#
# Elastic Compliance Matrix: (Units=1/GPa)
#
#
# Indices 1 2 3 4 5 6 
#
# 1 0.011717 -0.005740 -0.002353 0.000000 -0.002130 0.000000
# 2 -0.005740 0.020435 -0.001836 0.000000 -0.002684 0.000000
# 3 -0.002353 -0.001836 0.007555 0.000000 -0.001529 0.000000
# 4 0.000000 0.000000 0.000000 0.005420 0.000000 -0.012903
# 5 -0.002130 -0.002684 -0.001529 0.000000 0.023577 0.000000
# 6 0.000000 0.000000 0.000000 -0.012903 0.000000 0.046556
#
#
# Mechanical properties :
#
#
# Convention : Reuss Voigt Hill
#
# Bulk Modulus (GPa) = 50.37949 65.11587 57.74768
# Shear Modulus (GPa) = 35.27737 145.18702 90.23220
#
# Velocity S-wave (km/s) = 3.91050 7.93319 6.25410
# Velocity P-wave (km/s) = 6.49829 10.58964 8.78545
#
# Compressibility (1/GPa) = 0.01984935
#
# Stress axis : x y z
#
# Youngs Moduli (GPa) = 85.34284 48.93491 132.36841
#
# Poissons Ratio (x) = 0.28090 0.31144
# Poissons Ratio (y) = 0.48988 0.24303
# Poissons Ratio (z) = 0.20080 0.08984
#
# Static dielectric constant tensor:
#      x y z
#    x 1.986740 0.000000 -0.009450 
#    y 0.000000 1.839630 0.000000 
#    z -0.009450 0.000000 1.905220 
# 
# From -- ./inp_files/52920.got.cif
#   From: 2010.05.17/outbox.cif.g08.bks.cpg/sg15_27_cif.got.tgz:52920.got - 2010.06.03 18:47:42.
