data_PCOD9267543
_publ_section_title
;
Structure prediction by ZEFSAII (Michael W. Deem and Ramdas Pophale) SiO2 
 PCOD9267543
Probable space group: C 2/C
;
_chemical_formula_sum "Si O2"
_cell_formula_units_Z 44
_cell_length_a 8.697584
_cell_length_b 19.249703
_cell_length_c 13.375926
_cell_angle_alpha 90.000000
_cell_angle_beta 57.846473
_cell_angle_gamma 90.000000
_cell_volume 1895.997089
_symmetry_space_group_name_H-M "C 2/C"
_symmetry_group_IT_number 15
_symmetry_cell_setting 'monoclinic'
loop_
_space_group_symop_operation_xyz
x,y,z
-x,y,1/2-z
-x,-y,-z
x,-y,1/2+z
1/2+x,1/2+y,z
1/2-x,1/2+y,1/2-z
1/2-x,1/2-y,-z
1/2+x,1/2-y,1/2+z
loop_
_atom_site_type_symbol
_atom_site_label
_atom_site_fract_x
_atom_site_fract_y
_atom_site_fract_z
Si Si1 0.411852 0.280287 0.172490
Si Si2 0.500000 0.601427 0.250000
Si Si3 0.285364 0.817801 0.551122
Si Si4 0.635328 0.408768 0.035149
Si Si5 0.785506 0.990217 0.683872
Si Si6 0.626556 0.890147 0.347855
O O1 0.500000 0.266021 0.250000
O O2 0.366248 0.211249 0.127328
O O3 0.548623 0.331145 0.063301
O O4 0.231776 0.326249 0.257451
O O5 0.406734 0.646249 0.367057
O O6 0.659966 0.557427 0.242011
O O7 0.250000 0.750000 0.500000
O O8 0.427064 0.867439 0.447866
O O9 0.463058 0.460218 0.107600
O O10 0.758783 0.407951 0.091531
O O11 0.737899 0.440590 0.903818
O O12 0.636164 0.043220 0.774376
#
# Coordination Sequence:
#
# PCOD9267543 Si02
#       6
#     8   4   8   8   8   8
#     4   9  20  40  66  97 132 174 222 277 338 403
#     4  12  24  40  64  86 136 176 220 278 336 396
#     4  12  26  41  64  98 137 176 223 275 342 406
#     4   9  18  37  69  94 129 174 220 280 330 389
#     4  10  19  39  65  94 132 176 221 269 338 390
#     4  10  21  41  67  96 131 173 227 276 327 411
#
# _framework density 23.206786999999998
#
# number of rings (size 3 to 8) (size 9 to 14) (size 15 to 20)
#    0.000    1.818    1.818    3.273    0.000    5.091 
#    0.000    0.000    8.000    0.000    0.000    0.000 
#    0.000    0.000    0.000    0.000    0.000    0.000 
#
# Total GULP energy -123115.042286 kJ/mol
# GULP energy per Si atom -5596.138286 kJ/mol
# Density = 2.315397 g / cm^3
# Si number density = 23.206787 Si / 1000 Ang^3
#
#
#
# Elastic Constant Matrix: (Units=GPa)
#
#
# Indices 1 2 3 4 5 6 
#
# 1 69.7910 19.3752 31.2608 0.0000 -1.4921 0.0000
# 2 19.3752 69.6315 46.1974 0.0000 -10.3254 0.0000
# 3 31.2608 46.1974 113.8041 0.0000 -10.7004 0.0000
# 4 0.0000 0.0000 0.0000 76.3761 0.0000 9.4158
# 5 -1.4921 -10.3254 -10.7004 0.0000 33.5033 0.0000
# 6 0.0000 0.0000 0.0000 9.4158 0.0000 5.6743
#
#
#
# Elastic Compliance Matrix: (Units=1/GPa)
#
#
# Indices 1 2 3 4 5 6 
#
# 1 0.016620 -0.002321 -0.003733 0.000000 -0.001167 0.000000
# 2 -0.002321 0.020414 -0.007286 0.000000 0.003861 0.000000
# 3 -0.003733 -0.007286 0.012932 0.000000 0.001718 0.000000
# 4 0.000000 0.000000 0.000000 0.016460 0.000000 -0.027314
# 5 -0.001167 0.003861 0.001718 0.000000 0.031534 0.000000
# 6 0.000000 0.000000 0.000000 -0.027314 0.000000 0.221556
#
#
# Mechanical properties :
#
#
# Convention : Reuss Voigt Hill
#
# Bulk Modulus (GPa) = 42.94566 49.65481 46.30023
# Shear Modulus (GPa) = 14.12597 33.53697 23.83147
#
# Velocity S-wave (km/s) = 2.46986 3.80562 3.20803
# Velocity P-wave (km/s) = 5.16521 6.38384 5.80659
#
# Compressibility (1/GPa) = 0.02328524
#
# Stress axis : x y z
#
# Youngs Moduli (GPa) = 60.16870 48.98681 77.32942
#
# Poissons Ratio (x) = 0.11370 0.28866
# Poissons Ratio (y) = 0.13965 0.56343
# Poissons Ratio (z) = 0.22460 0.35692
#
# Static dielectric constant tensor:
#      x y z
#    x 2.079360 0.000000 -0.048810 
#    y 0.000000 1.845850 0.000000 
#    z -0.048810 0.000000 1.905680 
# 
# From -- ./inp_files/134731.got.cif
#   From: 2010.05.17/outbox.cif.g08.bks.cpg/sg15_68_cif.got.tgz:134731.got - 2010.06.03 18:47:42.
