data_PCOD9267303
_publ_section_title
;
Structure prediction by ZEFSAII (Michael W. Deem and Ramdas Pophale) SiO2 
 PCOD9267303
Probable space group: C 2/C
;
_chemical_formula_sum "Si O2"
_cell_formula_units_Z 60
_cell_length_a 8.095193
_cell_length_b 11.423768
_cell_length_c 27.029080
_cell_angle_alpha 90.000000
_cell_angle_beta 96.616356
_cell_angle_gamma 90.000000
_cell_volume 2482.937184
_symmetry_space_group_name_H-M "C 2/C"
_symmetry_group_IT_number 15
_symmetry_cell_setting 'monoclinic'
loop_
_space_group_symop_operation_xyz
x,y,z
-x,y,1/2-z
-x,-y,-z
x,-y,1/2+z
1/2+x,1/2+y,z
1/2-x,1/2+y,1/2-z
1/2-x,1/2-y,-z
1/2+x,1/2-y,1/2+z
loop_
_atom_site_type_symbol
_atom_site_label
_atom_site_fract_x
_atom_site_fract_y
_atom_site_fract_z
Si Si1 0.332754 0.473715 0.426461
Si Si2 0.489864 0.219407 0.408881
Si Si3 0.587773 0.772084 0.170745
Si Si4 0.887076 0.223587 0.436181
Si Si5 0.500000 0.952669 0.250000
Si Si6 0.521399 0.717739 0.805755
Si Si7 0.179259 0.019201 0.187924
Si Si8 0.129917 0.361224 0.502553
O O1 0.428355 0.350937 0.421485
O O2 0.440020 0.588064 0.445565
O O3 0.268962 0.508467 0.368741
O O4 0.200755 0.454081 0.466149
O O5 0.688256 0.218977 0.424191
O O6 0.456307 0.205086 0.349278
O O7 0.393581 0.125440 0.439550
O O8 0.531895 0.769631 0.112094
O O9 0.508116 0.866144 0.203239
O O10 0.784142 0.798981 0.177943
O O11 0.576049 0.638687 0.188887
O O12 0.951239 0.312520 0.478979
O O13 0.331780 0.020628 0.231282
O O14 0.500000 0.762908 0.750000
O O15 0.428230 0.594546 0.804909
O O16 0.250000 0.250000 0.500000
#
# Coordination Sequence:
#
# PCOD9267303 Si02
#       8
#     8   8   8   8   4   8   8   8
#     4   9  20  39  58  81 115 152 185 234 287 337
#     4   9  20  35  58  87 109 148 197 227 278 341
#     4  10  23  37  57  85 110 151 192 232 286 341
#     4  10  20  39  59  80 117 151 187 232 287 344
#     4  12  22  32  56  84 108 144 192 236 282 334
#     4  10  19  39  59  77 117 156 181 235 286 328
#     4  10  22  37  57  83 114 148 192 232 283 343
#     4  10  20  36  60  87 116 148 188 240 285 335
#
# _framework density 24.164928
#
# number of rings (size 3 to 8) (size 9 to 14) (size 15 to 20)
#    0.000    2.133    1.333    1.200    1.867    2.667 
#    0.000    2.667    0.000   19.200    0.000    0.000 
#    0.000    0.000    0.000    0.000    0.000    0.000 
#
# Total GULP energy -167646.009514 kJ/mol
# GULP energy per Si atom -5588.200317 kJ/mol
# Density = 2.410993 g / cm^3
# Si number density = 24.164928 Si / 1000 Ang^3
#
#
#
# Elastic Constant Matrix: (Units=GPa)
#
#
# Indices 1 2 3 4 5 6 
#
# 1 28.5815 13.6291 8.9242 0.0000 -4.7761 0.0000
# 2 13.6291 67.9923 26.9739 0.0000 -2.8666 0.0000
# 3 8.9242 26.9739 137.4653 0.0000 -26.8866 0.0000
# 4 0.0000 0.0000 0.0000 12.0979 0.0000 7.0060
# 5 -4.7761 -2.8666 -26.8866 0.0000 31.6284 0.0000
# 6 0.0000 0.0000 0.0000 7.0060 0.0000 29.6611
#
#
#
# Elastic Compliance Matrix: (Units=1/GPa)
#
#
# Indices 1 2 3 4 5 6 
#
# 1 0.039542 -0.007693 -0.000031 0.000000 0.005247 0.000000
# 2 -0.007693 0.017502 -0.003421 0.000000 -0.002483 0.000000
# 3 -0.000031 -0.003421 0.009459 0.000000 0.007726 0.000000
# 4 0.000000 0.000000 0.000000 0.095757 0.000000 -0.022618
# 5 0.005247 -0.002483 0.007726 0.000000 0.038752 0.000000
# 6 0.000000 0.000000 0.000000 -0.022618 0.000000 0.039057
#
#
# Mechanical properties :
#
#
# Convention : Reuss Voigt Hill
#
# Bulk Modulus (GPa) = 22.61712 37.01039 29.81376
# Shear Modulus (GPa) = 18.04428 26.97828 22.51128
#
# Velocity S-wave (km/s) = 2.73557 3.34492 3.05547
# Velocity P-wave (km/s) = 4.39973 5.50154 4.98119
#
# Compressibility (1/GPa) = 0.04421429
#
# Stress axis : x y z
#
# Youngs Moduli (GPa) = 25.28926 57.13679 105.72040
#
# Poissons Ratio (x) = 0.43953 0.00331
# Poissons Ratio (y) = 0.19454 0.36162
# Poissons Ratio (z) = 0.00079 0.19544
#
# Static dielectric constant tensor:
#      x y z
#    x 1.908800 0.000000 -0.020400 
#    y 0.000000 1.944940 0.000000 
#    z -0.020400 0.000000 2.005300 
# 
# From -- ./inp_files/288025.got.cif
#   From: 2010.05.17/outbox.cif.g08.bks.cpg/sg15_145_cif.got.tgz:288025.got - 2010.06.03 18:47:42.
