data_PCOD9267215
_publ_section_title
;
Structure prediction by ZEFSAII (Michael W. Deem and Ramdas Pophale) SiO2 
 PCOD9267215
Probable space group: C 2/C
;
_chemical_formula_sum "Si O2"
_cell_formula_units_Z 64
_cell_length_a 8.772104
_cell_length_b 15.723003
_cell_length_c 28.406421
_cell_angle_alpha 90.000000
_cell_angle_beta 129.959653
_cell_angle_gamma 90.000000
_cell_volume 3003.075074
_symmetry_space_group_name_H-M "C 2/C"
_symmetry_group_IT_number 15
_symmetry_cell_setting 'monoclinic'
loop_
_space_group_symop_operation_xyz
x,y,z
-x,y,1/2-z
-x,-y,-z
x,-y,1/2+z
1/2+x,1/2+y,z
1/2-x,1/2+y,1/2-z
1/2-x,1/2-y,-z
1/2+x,1/2-y,1/2+z
loop_
_atom_site_type_symbol
_atom_site_label
_atom_site_fract_x
_atom_site_fract_y
_atom_site_fract_z
Si Si1 0.304448 0.175549 0.235737
Si Si2 0.219448 0.729928 0.573853
Si Si3 0.389839 0.946216 0.412023
Si Si4 0.505466 0.688287 0.552894
Si Si5 0.276882 0.588861 0.186646
Si Si6 0.695088 0.485847 0.475765
Si Si7 0.609092 0.731898 0.364666
Si Si8 0.900253 0.877966 0.890492
O O1 0.500000 0.212386 0.250000
O O2 0.335447 0.129454 0.291108
O O3 0.219438 0.105942 0.181315
O O4 0.116708 0.240782 0.199856
O O5 0.152113 0.654665 0.595324
O O6 0.425874 0.711287 0.588979
O O7 0.064564 0.742420 0.499661
O O8 0.227449 0.818629 0.601774
O O9 0.622158 0.969676 0.461890
O O10 0.304798 0.003289 0.353036
O O11 0.279144 0.973166 0.439079
O O12 0.381895 0.602821 0.518482
O O13 0.743463 0.689292 0.601220
O O14 0.500000 0.574231 0.250000
O O15 0.290127 0.661560 0.149204
O O16 0.500239 0.543056 0.433968
O O17 0.578338 0.684490 0.408256
#
# Coordination Sequence:
#
# PCOD9267215 Si02
#       8
#     8   8   8   8   8   8   8   8
#     4   9  21  38  63  91 117 162 216 270 319 381
#     4  10  23  37  60  93 136 167 207 258 319 384
#     4  10  20  36  63  94 124 175 211 259 308 395
#     4  10  22  37  58  96 135 169 207 257 312 396
#     4  10  19  38  68  89 117 167 224 261 314 385
#     4  10  20  36  61  95 133 165 216 251 322 383
#     4   9  20  35  64  87 119 166 208 258 322 373
#     4  10  21  40  62  90 126 171 205 271 320 386
#
# _framework density 21.311489000000002
#
# number of rings (size 3 to 8) (size 9 to 14) (size 15 to 20)
#    0.750    1.500    1.250    0.750    7.000    2.500 
#    0.000    1.875    2.750    0.750    0.000    0.000 
#    0.000    0.000    0.000    0.000    0.000    0.000 
#
# Total GULP energy -178377.449861 kJ/mol
# GULP energy per Si atom -5574.295308 kJ/mol
# Density = 2.126298 g / cm^3
# Si number density = 21.311489 Si / 1000 Ang^3
#
#
#
# Elastic Constant Matrix: (Units=GPa)
#
#
# Indices 1 2 3 4 5 6 
#
# 1 81.4112 25.7740 24.8612 0.0000 7.1866 0.0000
# 2 25.7740 53.7231 18.4185 0.0000 9.7227 0.0000
# 3 24.8612 18.4185 60.2404 0.0000 9.6660 0.0000
# 4 0.0000 0.0000 0.0000 19.0054 0.0000 2.2609
# 5 7.1866 9.7227 9.6660 0.0000 34.5165 0.0000
# 6 0.0000 0.0000 0.0000 2.2609 0.0000 21.2887
#
#
#
# Elastic Compliance Matrix: (Units=1/GPa)
#
#
# Indices 1 2 3 4 5 6 
#
# 1 0.015559 -0.005836 -0.004587 0.000000 -0.000311 0.000000
# 2 -0.005836 0.023601 -0.004121 0.000000 -0.004279 0.000000
# 3 -0.004587 -0.004121 0.020327 0.000000 -0.003577 0.000000
# 4 0.000000 0.000000 0.000000 0.053290 0.000000 -0.005660
# 5 -0.000311 -0.004279 -0.003577 0.000000 0.031243 0.000000
# 6 0.000000 0.000000 0.000000 -0.005660 0.000000 0.047574
#
#
# Mechanical properties :
#
#
# Convention : Reuss Voigt Hill
#
# Bulk Modulus (GPa) = 32.89510 37.05357 34.97434
# Shear Modulus (GPa) = 21.66235 23.38353 22.52294
#
# Velocity S-wave (km/s) = 3.19166 3.31603 3.25444
# Velocity P-wave (km/s) = 5.38991 5.66444 5.52888
#
# Compressibility (1/GPa) = 0.03039966
#
# Stress axis : x y z
#
# Youngs Moduli (GPa) = 64.27117 42.37133 49.19535
#
# Poissons Ratio (x) = 0.24726 0.22566
# Poissons Ratio (y) = 0.37506 0.20274
# Poissons Ratio (z) = 0.29482 0.17461
#
# Static dielectric constant tensor:
#      x y z
#    x 1.832940 0.000000 -0.000200 
#    y 0.000000 1.779510 0.000000 
#    z -0.000200 0.000000 1.788250 
# 
# From -- ./inp_files/308279.got.cif
#   From: 2010.05.17/outbox.cif.g08.bks.cpg/sg15_155_cif.got.tgz:308279.got - 2010.06.03 18:47:42.
