data_PCOD9267039
_publ_section_title
;
Structure prediction by ZEFSAII (Michael W. Deem and Ramdas Pophale) SiO2 
 PCOD9267039
Probable space group: C 2/C
;
_chemical_formula_sum "Si O2"
_cell_formula_units_Z 48
_cell_length_a 25.638330
_cell_length_b 14.528176
_cell_length_c 11.345414
_cell_angle_alpha 90.000000
_cell_angle_beta 150.072285
_cell_angle_gamma 90.000000
_cell_volume 2108.340659
_symmetry_space_group_name_H-M "C 2/C"
_symmetry_group_IT_number 15
_symmetry_cell_setting 'monoclinic'
loop_
_space_group_symop_operation_xyz
x,y,z
-x,y,1/2-z
-x,-y,-z
x,-y,1/2+z
1/2+x,1/2+y,z
1/2-x,1/2+y,1/2-z
1/2-x,1/2-y,-z
1/2+x,1/2-y,1/2+z
loop_
_atom_site_type_symbol
_atom_site_label
_atom_site_fract_x
_atom_site_fract_y
_atom_site_fract_z
Si Si1 0.384499 0.420783 0.023556
Si Si2 0.589850 0.777711 0.177586
Si Si3 0.068549 0.401331 0.768895
Si Si4 0.781021 0.434152 0.999074
Si Si5 0.365660 0.384736 0.587846
Si Si6 0.282882 0.242527 0.818545
O O1 0.500000 0.374746 0.250000
O O2 0.407353 0.516565 0.133901
O O3 0.321220 0.449984 0.781423
O O4 0.301220 0.344680 0.907784
O O5 0.659528 0.837354 0.405981
O O6 0.566168 0.680151 0.192552
O O7 0.655820 0.753546 0.188664
O O8 0.502127 0.848415 0.964481
O O9 0.000000 0.428907 0.750000
O O10 0.135055 0.486192 0.850925
O O11 0.148787 0.325379 0.969889
O O12 0.738646 0.417446 0.046885
O O13 0.324915 0.314119 0.408443
#
# Coordination Sequence:
#
# PCOD9267039 Si02
#       6
#     8   8   8   8   8   8
#     4  12  24  40  62  92 125 165 210 253 305 367
#     4  10  19  38  64  90 119 164 211 244 301 377
#     4  10  21  37  66  96 122 159 208 256 307 363
#     4  11  21  40  63  94 125 158 210 259 302 366
#     4  11  22  40  66  88 125 167 203 256 309 359
#     4  10  19  40  64  87 119 166 208 246 298 378
#
# _framework density 22.766718999999998
#
# number of rings (size 3 to 8) (size 9 to 14) (size 15 to 20)
#    0.000    1.333    5.000    3.000    0.000    0.667 
#    0.000    3.333    0.000    0.000    0.000    0.000 
#    0.000    0.000    0.000    0.000    0.000    0.000 
#
# Total GULP energy -133674.575684 kJ/mol
# GULP energy per Si atom -5569.773987 kJ/mol
# Density = 2.271490 g / cm^3
# Si number density = 22.766719 Si / 1000 Ang^3
#
#
#
# Elastic Constant Matrix: (Units=GPa)
#
#
# Indices 1 2 3 4 5 6 
#
# 1 21.6329 32.0472 7.6832 0.0000 6.7530 0.0000
# 2 32.0472 157.4916 20.0292 0.0000 -3.2372 0.0000
# 3 7.6832 20.0292 78.5302 0.0000 -7.5800 0.0000
# 4 0.0000 0.0000 0.0000 32.2935 0.0000 4.5464
# 5 6.7530 -3.2372 -7.5800 0.0000 12.9429 0.0000
# 6 0.0000 0.0000 0.0000 4.5464 0.0000 32.9374
#
#
#
# Elastic Compliance Matrix: (Units=1/GPa)
#
#
# Indices 1 2 3 4 5 6 
#
# 1 0.099853 -0.020259 -0.010727 0.000000 -0.063447 0.000000
# 2 -0.020259 0.010679 0.000569 0.000000 0.013574 0.000000
# 3 -0.010727 0.000569 0.015043 0.000000 0.014549 0.000000
# 4 0.000000 0.000000 0.000000 0.031580 0.000000 -0.004359
# 5 -0.063447 0.013574 0.014549 0.000000 0.122281 0.000000
# 6 0.000000 0.000000 0.000000 -0.004359 0.000000 0.030962
#
#
# Mechanical properties :
#
#
# Convention : Reuss Voigt Hill
#
# Bulk Modulus (GPa) = 15.44615 41.90821 28.67718
# Shear Modulus (GPa) = 12.72879 28.82776 20.77828
#
# Velocity S-wave (km/s) = 2.36709 3.56226 3.02430
# Velocity P-wave (km/s) = 3.77757 5.94704 4.98183
#
# Compressibility (1/GPa) = 0.06474105
#
# Stress axis : x y z
#
# Youngs Moduli (GPa) = 10.01476 93.64569 66.47764
#
# Poissons Ratio (x) = 1.89712 0.71307
# Poissons Ratio (y) = 0.20288 -0.03780
# Poissons Ratio (z) = 0.10742 -0.05325
#
# Static dielectric constant tensor:
#      x y z
#    x 1.887360 0.000000 -0.005910 
#    y 0.000000 1.900150 0.000000 
#    z -0.005910 0.000000 1.937320 
# 
# From -- ./inp_files/123446.got.cif
#   From: 2010.05.17/outbox.cif.g08.bks.cpg/sg15_62_cif.got.tgz:123446.got - 2010.06.03 18:47:42.
