data_PCOD9267430
_publ_section_title
;
Structure prediction by ZEFSAII (Michael W. Deem and Ramdas Pophale) SiO2 
 PCOD9267430
Probable space group: C 2/C
;
_chemical_formula_sum "Si O2"
_cell_formula_units_Z 56
_cell_length_a 9.759462
_cell_length_b 21.063955
_cell_length_c 14.496586
_cell_angle_alpha 90.000000
_cell_angle_beta 91.301403
_cell_angle_gamma 90.000000
_cell_volume 2979.336058
_symmetry_space_group_name_H-M "C 2/C"
_symmetry_group_IT_number 15
_symmetry_cell_setting 'monoclinic'
loop_
_space_group_symop_operation_xyz
x,y,z
-x,y,1/2-z
-x,-y,-z
x,-y,1/2+z
1/2+x,1/2+y,z
1/2-x,1/2+y,1/2-z
1/2-x,1/2-y,-z
1/2+x,1/2-y,1/2+z
loop_
_atom_site_type_symbol
_atom_site_label
_atom_site_fract_x
_atom_site_fract_y
_atom_site_fract_z
Si Si1 0.159706 0.186161 0.078413
Si Si2 0.779855 0.688428 0.439241
Si Si3 0.583444 0.540774 0.849758
Si Si4 0.056758 0.088677 0.465124
Si Si5 0.132862 0.610412 0.699741
Si Si6 0.070559 0.320081 0.011526
Si Si7 0.835081 0.746389 0.741268
O O1 0.086570 0.243777 0.022967
O O2 0.220041 0.222871 0.166366
O O3 0.051218 0.131599 0.093142
O O4 0.286949 0.157102 0.027518
O O5 0.750000 0.750000 0.500000
O O6 0.692712 0.629886 0.474662
O O7 0.727637 0.712422 0.340317
O O8 0.937943 0.669733 0.448649
O O9 0.500000 0.539615 0.750000
O O10 0.587031 0.472862 0.902862
O O11 0.736496 0.567841 0.828176
O O12 0.506834 0.579271 0.932486
O O13 0.065412 0.645669 0.609968
O O14 0.189826 0.670769 0.760119
O O15 0.000000 0.580797 0.750000
O O16 0.000000 0.754172 0.750000
#
# Coordination Sequence:
#
# PCOD9267430 Si02
#       7
#     8   8   8   8   8   8   8
#     4  10  19  39  63  87 136 167 200 261 331 388
#     4  12  22  36  65 100 131 165 214 272 330 393
#     4  11  27  44  68  94 121 185 231 261 311 393
#     4  11  24  45  66  93 133 172 222 272 315 387
#     4  10  21  41  63  93 128 164 214 269 327 381
#     4  10  21  36  60  98 128 163 199 266 336 378
#     4  10  20  34  62  97 129 170 206 267 339 387
#
# _framework density 18.796135
#
# number of rings (size 3 to 8) (size 9 to 14) (size 15 to 20)
#    0.000    1.429    4.286    1.714    6.000    0.571 
#    0.000    2.143    0.000    0.000    0.000    0.000 
#    0.000    0.000    0.000    0.000    0.000    0.000 
#
# Total GULP energy -155959.339664 kJ/mol
# GULP energy per Si atom -5569.976417 kJ/mol
# Density = 1.875335 g / cm^3
# Si number density = 18.796135 Si / 1000 Ang^3
#
#
#
# Elastic Constant Matrix: (Units=GPa)
#
#
# Indices 1 2 3 4 5 6 
#
# 1 135.8999 58.7574 48.3866 0.0000 -4.5991 0.0000
# 2 58.7574 74.2392 20.7413 0.0000 -6.0587 0.0000
# 3 48.3866 20.7413 80.3615 0.0000 -6.9334 0.0000
# 4 0.0000 0.0000 0.0000 20.6235 0.0000 -7.4360
# 5 -4.5991 -6.0587 -6.9334 0.0000 29.4274 0.0000
# 6 0.0000 0.0000 0.0000 -7.4360 0.0000 30.2510
#
#
#
# Elastic Compliance Matrix: (Units=1/GPa)
#
#
# Indices 1 2 3 4 5 6 
#
# 1 0.013249 -0.008969 -0.005760 0.000000 -0.001133 0.000000
# 2 -0.008969 0.020723 0.000305 0.000000 0.002937 0.000000
# 3 -0.005760 0.000305 0.016088 0.000000 0.002953 0.000000
# 4 0.000000 0.000000 0.000000 0.053204 0.000000 0.013078
# 5 -0.001133 0.002937 0.002953 0.000000 0.035105 0.000000
# 6 0.000000 0.000000 0.000000 0.013078 0.000000 0.036271
#
#
# Mechanical properties :
#
#
# Convention : Reuss Voigt Hill
#
# Bulk Modulus (GPa) = 47.14355 60.69678 53.92017
# Shear Modulus (GPa) = 23.74637 26.90142 25.32389
#
# Velocity S-wave (km/s) = 3.55824 3.78725 3.67453
# Velocity P-wave (km/s) = 6.48208 7.17542 6.83754
#
# Compressibility (1/GPa) = 0.02121181
#
# Stress axis : x y z
#
# Youngs Moduli (GPa) = 75.47936 48.25555 62.15816
#
# Poissons Ratio (x) = 0.43280 0.35803
# Poissons Ratio (y) = 0.67697 -0.01897
# Poissons Ratio (z) = 0.43476 -0.01472
#
# Static dielectric constant tensor:
#      x y z
#    x 1.730730 0.000000 0.188640 
#    y 0.000000 1.559990 0.000000 
#    z 0.188640 0.000000 2.632460 
# 
# From -- ./inp_files/136432.got.cif
#   From: 2010.05.17/outbox.cif.g08.bks.cpg/sg15_69_cif.got.tgz:136432.got - 2010.06.03 18:47:42.
