data_PCOD9267415
_publ_section_title
;
Structure prediction by ZEFSAII (Michael W. Deem and Ramdas Pophale) SiO2 
 PCOD9267415
Probable space group: C 2/C
;
_chemical_formula_sum "Si O2"
_cell_formula_units_Z 64
_cell_length_a 11.563137
_cell_length_b 10.035474
_cell_length_c 22.752136
_cell_angle_alpha 90.000000
_cell_angle_beta 93.550440
_cell_angle_gamma 90.000000
_cell_volume 2635.125963
_symmetry_space_group_name_H-M "C 2/C"
_symmetry_group_IT_number 15
_symmetry_cell_setting 'monoclinic'
loop_
_space_group_symop_operation_xyz
x,y,z
-x,y,1/2-z
-x,-y,-z
x,-y,1/2+z
1/2+x,1/2+y,z
1/2-x,1/2+y,1/2-z
1/2-x,1/2-y,-z
1/2+x,1/2-y,1/2+z
loop_
_atom_site_type_symbol
_atom_site_label
_atom_site_fract_x
_atom_site_fract_y
_atom_site_fract_z
Si Si1 0.732864 0.606780 0.349724
Si Si2 0.627238 0.565207 0.572808
Si Si3 0.711681 0.113470 0.570370
Si Si4 0.146917 0.399213 0.374513
Si Si5 0.096482 0.712783 0.671948
Si Si6 0.567853 0.312750 0.499614
Si Si7 0.870587 0.529105 0.243897
Si Si8 0.488544 0.509413 0.814955
O O1 0.803634 0.534249 0.403850
O O2 0.700313 0.754965 0.363477
O O3 0.792057 0.603362 0.288027
O O4 0.617451 0.517722 0.341769
O O5 0.766264 0.556704 0.570738
O O6 0.574509 0.422040 0.552052
O O7 0.559564 0.672993 0.531400
O O8 0.586083 0.586042 0.638822
O O9 0.699988 0.204106 0.628794
O O10 0.613591 0.171649 0.523860
O O11 0.834764 0.135899 0.543087
O O12 0.166556 0.507681 0.323817
O O13 0.010770 0.362454 0.365372
O O14 0.122422 0.620877 0.728675
O O15 0.065658 0.860455 0.690473
O O16 0.000000 0.585068 0.250000
O O17 0.500000 0.567237 0.750000
#
# Coordination Sequence:
#
# PCOD9267415 Si02
#       8
#     8   8   8   8   8   8   8   8
#     4  10  20  36  58  87 116 152 200 242 291 356
#     4  11  22  39  59  87 119 153 200 258 295 346
#     4  10  19  39  63  81 113 156 201 241 293 357
#     4  10  21  36  58  89 124 152 193 249 299 346
#     4   9  18  35  61  87 112 154 197 233 286 364
#     4  10  22  40  62  85 113 160 206 253 298 347
#     4   9  18  36  56  82 121 162 187 228 296 364
#     4  11  19  33  60  89 114 151 198 241 288 355
#
# _framework density 24.287264
#
# number of rings (size 3 to 8) (size 9 to 14) (size 15 to 20)
#    0.000    2.000    2.500    2.625    0.000    0.000 
#    0.000   13.125    0.000    0.000    0.000    0.000 
#    0.000    0.000    0.000    0.000    0.000    0.000 
#
# Total GULP energy -178756.667274 kJ/mol
# GULP energy per Si atom -5586.145852 kJ/mol
# Density = 2.423199 g / cm^3
# Si number density = 24.287264 Si / 1000 Ang^3
#
#
#
# Elastic Constant Matrix: (Units=GPa)
#
#
# Indices 1 2 3 4 5 6 
#
# 1 78.5665 8.1868 22.9502 0.0000 14.7418 0.0000
# 2 8.1868 37.8282 8.1398 0.0000 7.0875 0.0000
# 3 22.9502 8.1398 72.0165 0.0000 -8.5925 0.0000
# 4 0.0000 0.0000 0.0000 9.3864 0.0000 6.2743
# 5 14.7418 7.0875 -8.5925 0.0000 48.1345 0.0000
# 6 0.0000 0.0000 0.0000 6.2743 0.0000 27.3242
#
#
#
# Elastic Compliance Matrix: (Units=1/GPa)
#
#
# Indices 1 2 3 4 5 6 
#
# 1 0.015486 -0.001134 -0.005469 0.000000 -0.005552 0.000000
# 2 -0.001134 0.028229 -0.003355 0.000000 -0.004408 0.000000
# 3 -0.005469 -0.003355 0.016621 0.000000 0.005136 0.000000
# 4 0.000000 0.000000 0.000000 0.125854 0.000000 -0.028899
# 5 -0.005552 -0.004408 0.005136 0.000000 0.024041 0.000000
# 6 0.000000 0.000000 0.000000 -0.028899 0.000000 0.043233
#
#
# Mechanical properties :
#
#
# Convention : Reuss Voigt Hill
#
# Bulk Modulus (GPa) = 24.74159 29.66276 27.20218
# Shear Modulus (GPa) = 17.43052 26.91133 22.17093
#
# Velocity S-wave (km/s) = 2.68186 3.33234 3.02464
# Velocity P-wave (km/s) = 4.44961 5.20056 4.83967
#
# Compressibility (1/GPa) = 0.04041777
#
# Stress axis : x y z
#
# Youngs Moduli (GPa) = 64.57606 35.42504 60.16625
#
# Poissons Ratio (x) = 0.04018 0.32906
# Poissons Ratio (y) = 0.07325 0.20186
# Poissons Ratio (z) = 0.35318 0.11885
#
# Static dielectric constant tensor:
#      x y z
#    x 2.044350 0.000000 0.056290 
#    y 0.000000 1.895040 0.000000 
#    z 0.056290 0.000000 1.983300 
# 
# From -- ./inp_files/268876.got.cif
#   From: 2010.05.17/outbox.cif.g08.bks.cpg/sg15_135_cif.got.tgz:268876.got - 2010.06.03 18:47:42.
