data_PCOD9267621
_publ_section_title
;
Structure prediction by ZEFSAII (Michael W. Deem and Ramdas Pophale) SiO2 
 PCOD9267621
Probable space group: C 2/C
;
_chemical_formula_sum "Si O2"
_cell_formula_units_Z 52
_cell_length_a 18.035074
_cell_length_b 8.611050
_cell_length_c 20.040791
_cell_angle_alpha 90.000000
_cell_angle_beta 65.810758
_cell_angle_gamma 90.000000
_cell_volume 2839.079610
_symmetry_space_group_name_H-M "C 2/C"
_symmetry_group_IT_number 15
_symmetry_cell_setting 'monoclinic'
loop_
_space_group_symop_operation_xyz
x,y,z
-x,y,1/2-z
-x,-y,-z
x,-y,1/2+z
1/2+x,1/2+y,z
1/2-x,1/2+y,1/2-z
1/2-x,1/2-y,-z
1/2+x,1/2-y,1/2+z
loop_
_atom_site_type_symbol
_atom_site_label
_atom_site_fract_x
_atom_site_fract_y
_atom_site_fract_z
Si Si1 0.500000 0.491578 0.750000
Si Si2 0.304541 0.835893 0.669119
Si Si3 0.502330 0.611456 0.398483
Si Si4 0.630062 0.571080 0.939252
Si Si5 0.427924 0.074580 0.569480
Si Si6 0.216350 0.245112 0.438932
Si Si7 0.323509 0.391441 0.287120
O O1 0.513459 0.403969 0.674361
O O2 0.581807 0.585614 0.734740
O O3 0.319331 0.722176 0.600623
O O4 0.307137 0.719479 0.730329
O O5 0.380611 0.954216 0.634491
O O6 0.224139 0.943394 0.702036
O O7 0.422976 0.595091 0.474442
O O8 0.566028 0.482181 0.404454
O O9 0.540295 0.778700 0.400765
O O10 0.688675 0.426269 0.928766
O O11 0.361338 0.143878 0.543104
O O12 0.500000 0.000000 0.500000
O O13 0.250000 0.250000 0.500000
O O14 0.283916 0.307886 0.364490
#
# Coordination Sequence:
#
# PCOD9267621 Si02
#       7
#     4   8   8   8   8   8   8
#     4  12  24  42  62  96 130 162 214 276 322 368
#     4  11  22  41  66  91 121 172 215 258 312 392
#     4  10  21  38  64  94 125 167 207 262 315 385
#     4  10  19  39  69  88 122 173 215 249 319 385
#     4  10  21  40  65  92 123 164 217 256 313 386
#     4  10  22  40  61  93 126 166 211 261 312 382
#     4  11  25  40  65  91 130 166 213 262 323 379
#
# _framework density 18.315795999999999
#
# number of rings (size 3 to 8) (size 9 to 14) (size 15 to 20)
#    0.000    1.538    3.077    1.846    4.308    1.231 
#    2.769    3.077    0.000    0.000    0.000    0.000 
#    0.000    0.000    0.000    0.000    0.000    0.000 
#
# Total GULP energy -145101.496632 kJ/mol
# GULP energy per Si atom -5580.826794 kJ/mol
# Density = 1.827411 g / cm^3
# Si number density = 18.315796 Si / 1000 Ang^3
#
#
#
# Elastic Constant Matrix: (Units=GPa)
#
#
# Indices 1 2 3 4 5 6 
#
# 1 99.6662 52.8832 66.0374 0.0000 -11.5537 0.0000
# 2 52.8832 114.6170 56.8029 0.0000 -11.7255 0.0000
# 3 66.0374 56.8029 128.3105 0.0000 14.0129 0.0000
# 4 0.0000 0.0000 0.0000 39.0079 0.0000 -10.0043
# 5 -11.5537 -11.7255 14.0129 0.0000 35.4536 0.0000
# 6 0.0000 0.0000 0.0000 -10.0043 0.0000 4.7854
#
#
#
# Elastic Compliance Matrix: (Units=1/GPa)
#
#
# Indices 1 2 3 4 5 6 
#
# 1 0.018889 -0.003242 -0.009240 0.000000 0.008735 0.000000
# 2 -0.003242 0.013057 -0.004670 0.000000 0.005108 0.000000
# 3 -0.009240 -0.004670 0.015796 0.000000 -0.010799 0.000000
# 4 0.000000 0.000000 0.000000 0.055270 0.000000 0.115548
# 5 0.008735 0.005108 -0.010799 0.000000 0.037010 0.000000
# 6 0.000000 0.000000 0.000000 0.115548 0.000000 0.450535
#
#
# Mechanical properties :
#
#
# Convention : Reuss Voigt Hill
#
# Bulk Modulus (GPa) = 74.41560 77.11564 75.76562
# Shear Modulus (GPa) = 7.94482 26.97404 17.45943
#
# Velocity S-wave (km/s) = 2.08497 3.84177 3.09081
# Velocity P-wave (km/s) = 6.82008 7.86598 7.36163
#
# Compressibility (1/GPa) = 0.01343804
#
# Stress axis : x y z
#
# Youngs Moduli (GPa) = 52.94113 76.58534 63.30769
#
# Poissons Ratio (x) = 0.24830 0.58498
# Poissons Ratio (y) = 0.17164 0.29562
# Poissons Ratio (z) = 0.48919 0.35763
#
# Static dielectric constant tensor:
#      x y z
#    x 1.625150 0.000000 -0.019850 
#    y 0.000000 1.630430 0.000000 
#    z -0.019850 0.000000 1.636280 
# 
# From -- ./inp_files/246891.got.cif
#   From: 2010.05.17/outbox.cif.g08.bks.cpg/sg15_124_cif.got.tgz:246891.got - 2010.06.03 18:47:42.
