data_PCOD9267620
_publ_section_title
;
Structure prediction by ZEFSAII (Michael W. Deem and Ramdas Pophale) SiO2 
 PCOD9267620
Probable space group: C 2/C
;
_chemical_formula_sum "Si O2"
_cell_formula_units_Z 40
_cell_length_a 10.927460
_cell_length_b 15.444864
_cell_length_c 11.123363
_cell_angle_alpha 90.000000
_cell_angle_beta 78.492679
_cell_angle_gamma 90.000000
_cell_volume 1839.589140
_symmetry_space_group_name_H-M "C 2/C"
_symmetry_group_IT_number 15
_symmetry_cell_setting 'monoclinic'
loop_
_space_group_symop_operation_xyz
x,y,z
-x,y,1/2-z
-x,-y,-z
x,-y,1/2+z
1/2+x,1/2+y,z
1/2-x,1/2+y,1/2-z
1/2-x,1/2-y,-z
1/2+x,1/2-y,1/2+z
loop_
_atom_site_type_symbol
_atom_site_label
_atom_site_fract_x
_atom_site_fract_y
_atom_site_fract_z
Si Si1 0.108045 0.024841 0.071489
Si Si2 0.627784 0.990632 0.113948
Si Si3 0.226117 0.098273 0.723577
Si Si4 0.371664 0.700520 0.523673
Si Si5 0.945888 0.644070 0.519192
O O1 0.122663 0.960339 0.179433
O O2 0.244716 0.013591 0.986443
O O3 0.094601 0.128098 0.083195
O O4 0.000000 0.000000 0.000000
O O5 0.675010 0.969601 0.237130
O O6 0.539278 0.913945 0.083544
O O7 0.571765 0.083988 0.094881
O O8 0.167225 0.154544 0.842880
O O9 0.312889 0.152005 0.613948
O O10 0.250000 0.750000 0.500000
O O11 0.485721 0.766141 0.518090
#
# Coordination Sequence:
#
# PCOD9267620 Si02
#       5
#     8   8   8   8   8
#     4  10  22  42  64  88 136 179 219 274 336 406
#     4   9  19  36  67  95 130 170 223 270 345 396
#     4  10  21  40  67  97 133 186 222 270 352 394
#     4  11  22  41  66 102 133 173 235 274 328 411
#     4  10  19  39  68  99 136 168 223 290 319 408
#
# _framework density 21.743987000000001
#
# number of rings (size 3 to 8) (size 9 to 14) (size 15 to 20)
#    0.000    2.000    4.000    0.600    0.000    3.200 
#    0.000   16.000    0.000    0.000    0.000    0.000 
#    0.000    0.000    0.000    0.000    0.000    0.000 
#
# Total GULP energy -111594.852533 kJ/mol
# GULP energy per Si atom -5579.742627 kJ/mol
# Density = 2.169450 g / cm^3
# Si number density = 21.743987 Si / 1000 Ang^3
#
#
#
# Elastic Constant Matrix: (Units=GPa)
#
#
# Indices 1 2 3 4 5 6 
#
# 1 110.9795 65.6624 51.5035 0.0000 2.3608 0.0000
# 2 65.6624 156.8599 57.9800 0.0000 5.1598 0.0000
# 3 51.5035 57.9800 100.7824 0.0000 0.2015 0.0000
# 4 0.0000 0.0000 0.0000 37.1998 0.0000 0.6715
# 5 2.3608 5.1598 0.2015 0.0000 43.2811 0.0000
# 6 0.0000 0.0000 0.0000 0.6715 0.0000 47.9091
#
#
#
# Elastic Compliance Matrix: (Units=1/GPa)
#
#
# Indices 1 2 3 4 5 6 
#
# 1 0.013489 -0.003925 -0.004635 0.000000 -0.000246 0.000000
# 2 -0.003925 0.009278 -0.003330 0.000000 -0.000876 0.000000
# 3 -0.004635 -0.003330 0.014205 0.000000 0.000584 0.000000
# 4 0.000000 0.000000 0.000000 0.026889 0.000000 -0.000377
# 5 -0.000246 -0.000876 0.000584 0.000000 0.023220 0.000000
# 6 0.000000 0.000000 0.000000 -0.000377 0.000000 0.020878
#
#
# Mechanical properties :
#
#
# Convention : Reuss Voigt Hill
#
# Bulk Modulus (GPa) = 75.79974 79.87928 77.83951
# Shear Modulus (GPa) = 36.72771 38.57640 37.65206
#
# Velocity S-wave (km/s) = 4.11432 4.21660 4.16577
# Velocity P-wave (km/s) = 7.58327 7.77961 7.68206
#
# Compressibility (1/GPa) = 0.01319266
#
# Stress axis : x y z
#
# Youngs Moduli (GPa) = 74.13238 107.78236 70.39605
#
# Poissons Ratio (x) = 0.42310 0.32627
# Poissons Ratio (y) = 0.29101 0.23440
# Poissons Ratio (z) = 0.34358 0.35889
#
# Static dielectric constant tensor:
#      x y z
#    x 1.754890 0.000000 -0.015370 
#    y 0.000000 1.760680 0.000000 
#    z -0.015370 0.000000 1.896620 
# 
# From -- ./inp_files/85527.got.cif
#   From: 2010.05.17/outbox.cif.g08.bks.cpg/sg15_43_cif.got.tgz:85527.got - 2010.06.03 18:47:42.
