data_PCOD9267427
_publ_section_title
;
Structure prediction by ZEFSAII (Michael W. Deem and Ramdas Pophale) SiO2 
 PCOD9267427
Probable space group: C 2/C
;
_chemical_formula_sum "Si O2"
_cell_formula_units_Z 52
_cell_length_a 12.134377
_cell_length_b 10.528611
_cell_length_c 18.619660
_cell_angle_alpha 90.000000
_cell_angle_beta 123.055212
_cell_angle_gamma 90.000000
_cell_volume 1993.791081
_symmetry_space_group_name_H-M "C 2/C"
_symmetry_group_IT_number 15
_symmetry_cell_setting 'monoclinic'
loop_
_space_group_symop_operation_xyz
x,y,z
-x,y,1/2-z
-x,-y,-z
x,-y,1/2+z
1/2+x,1/2+y,z
1/2-x,1/2+y,1/2-z
1/2-x,1/2-y,-z
1/2+x,1/2-y,1/2+z
loop_
_atom_site_type_symbol
_atom_site_label
_atom_site_fract_x
_atom_site_fract_y
_atom_site_fract_z
Si Si1 0.170561 0.692649 0.080255
Si Si2 0.285993 0.604418 0.334132
Si Si3 0.379353 0.482837 0.170711
Si Si4 0.187383 0.115030 0.998819
Si Si5 0.186381 0.176748 0.722412
Si Si6 0.113510 0.381966 0.412855
Si Si7 0.500000 0.979055 0.750000
O O1 0.245859 0.562553 0.124430
O O2 0.111110 0.746293 0.132415
O O3 0.287936 0.786018 0.093867
O O4 0.079083 0.673820 0.978439
O O5 0.362212 0.617955 0.436586
O O6 0.301318 0.721073 0.284426
O O7 0.297604 0.462932 0.306739
O O8 0.130052 0.603736 0.296374
O O9 0.500000 0.557762 0.250000
O O10 0.363738 0.364260 0.217572
O O11 0.403606 0.437309 0.098052
O O12 0.299983 0.006986 0.040587
O O13 0.250000 0.250000 0.000000
O O14 0.002448 0.430517 0.320422
#
# Coordination Sequence:
#
# PCOD9267427 Si02
#       7
#     8   8   8   8   8   8   4
#     4  10  20  40  62  88 131 167 202 254 327 375
#     4  11  24  40  67  91 127 166 209 258 318 375
#     4  11  25  38  64  93 124 168 218 260 308 380
#     4  10  19  39  63  87 122 168 206 248 321 377
#     4  12  22  41  62  95 128 166 208 262 321 371
#     4   9  20  36  65  92 121 166 209 251 312 381
#     4  10  20  40  66  94 116 164 226 252 292 380
#
# _framework density 26.080966
#
# number of rings (size 3 to 8) (size 9 to 14) (size 15 to 20)
#    0.000    1.538    6.154    0.000    2.154    0.000 
#    0.000    3.077    0.000    0.000    0.000    0.000 
#    0.000    0.000    0.000    0.000    0.000    0.000 
#
# Total GULP energy -145223.898813 kJ/mol
# GULP energy per Si atom -5585.534570 kJ/mol
# Density = 2.602160 g / cm^3
# Si number density = 26.080966 Si / 1000 Ang^3
#
#
#
# Elastic Constant Matrix: (Units=GPa)
#
#
# Indices 1 2 3 4 5 6 
#
# 1 41.7274 31.8468 27.9559 0.0000 -4.2956 0.0000
# 2 31.8468 142.1758 62.7351 0.0000 -25.0505 0.0000
# 3 27.9559 62.7351 225.4827 0.0000 -34.5590 0.0000
# 4 0.0000 0.0000 0.0000 157.5809 0.0000 -65.8304
# 5 -4.2956 -25.0505 -34.5590 0.0000 29.4022 0.0000
# 6 0.0000 0.0000 0.0000 -65.8304 0.0000 65.2157
#
#
#
# Elastic Compliance Matrix: (Units=1/GPa)
#
#
# Indices 1 2 3 4 5 6 
#
# 1 0.030103 -0.006307 -0.002594 0.000000 -0.004025 0.000000
# 2 -0.006307 0.010030 -0.001025 0.000000 0.006419 0.000000
# 3 -0.002594 -0.001025 0.005915 0.000000 0.005701 0.000000
# 4 0.000000 0.000000 0.000000 0.010973 0.000000 0.011077
# 5 -0.004025 0.006419 0.005701 0.000000 0.045593 0.000000
# 6 0.000000 0.000000 0.000000 0.011077 0.000000 0.026515
#
#
# Mechanical properties :
#
#
# Convention : Reuss Voigt Hill
#
# Bulk Modulus (GPa) = 38.17504 72.71795 55.44649
# Shear Modulus (GPa) = 31.70315 69.56296 50.63306
#
# Velocity S-wave (km/s) = 3.49028 5.17009 4.41089
# Velocity P-wave (km/s) = 5.55982 7.97383 6.87363
#
# Compressibility (1/GPa) = 0.02619513
#
# Stress axis : x y z
#
# Youngs Moduli (GPa) = 33.21970 99.70570 169.05006
#
# Poissons Ratio (x) = 0.62888 0.43856
# Poissons Ratio (y) = 0.20953 0.17321
# Poissons Ratio (z) = 0.08618 0.10216
#
# Static dielectric constant tensor:
#      x y z
#    x 2.158600 0.000000 -0.014020 
#    y 0.000000 2.034250 0.000000 
#    z -0.014020 0.000000 2.113070 
# 
# From -- ./inp_files/204184.got.cif
#   From: 2010.05.17/outbox.cif.g08.bks.cpg/sg15_103_cif.got.tgz:204184.got - 2010.06.03 18:47:42.
