data_PCOD9267890
_publ_section_title
;
Structure prediction by ZEFSAII (Michael W. Deem and Ramdas Pophale) SiO2 
 PCOD9267890
Probable space group: C 2/C
;
_chemical_formula_sum "Si O2"
_cell_formula_units_Z 52
_cell_length_a 30.132444
_cell_length_b 16.026071
_cell_length_c 17.171644
_cell_angle_alpha 90.000000
_cell_angle_beta 164.209649
_cell_angle_gamma 90.000000
_cell_volume 2256.476863
_symmetry_space_group_name_H-M "C 2/C"
_symmetry_group_IT_number 15
_symmetry_cell_setting 'monoclinic'
loop_
_space_group_symop_operation_xyz
x,y,z
-x,y,1/2-z
-x,-y,-z
x,-y,1/2+z
1/2+x,1/2+y,z
1/2-x,1/2+y,1/2-z
1/2-x,1/2-y,-z
1/2+x,1/2-y,1/2+z
loop_
_atom_site_type_symbol
_atom_site_label
_atom_site_fract_x
_atom_site_fract_y
_atom_site_fract_z
Si Si1 0.759655 0.985207 0.420042
Si Si2 0.500000 0.598701 0.750000
Si Si3 0.439488 0.121890 0.343926
Si Si4 0.934000 0.918103 0.847708
Si Si5 0.118956 0.755702 0.119257
Si Si6 0.091218 0.248339 0.003151
Si Si7 0.307851 0.206956 0.516821
O O1 0.841456 0.040967 0.491602
O O2 0.691302 0.048419 0.370655
O O3 0.901035 0.934073 0.700887
O O4 0.612437 0.925821 0.146650
O O5 0.482992 0.658753 0.646088
O O6 0.396512 0.182162 0.343798
O O7 0.459482 0.182392 0.304363
O O8 0.760931 0.886773 0.590831
O O9 0.054594 0.839101 0.052642
O O10 0.000000 0.000000 0.000000
O O11 0.998730 0.724753 0.845902
O O12 0.293217 0.768904 0.374406
O O13 0.209199 0.242523 0.277507
O O14 0.250000 0.250000 0.500000
#
# Coordination Sequence:
#
# PCOD9267890 Si02
#       7
#     8   4   8   8   8   8   8
#     4  11  25  43  67  99 139 177 225 282 341 402
#     4  12  28  42  66 108 138 182 230 266 352 420
#     4  11  23  47  70  93 141 182 225 280 345 407
#     4  11  22  39  66  97 135 176 223 282 339 402
#     4  11  22  43  69 101 127 177 239 275 345 402
#     4  12  24  43  70  99 133 180 227 281 332 420
#     4  10  19  40  69  95 123 170 228 278 336 385
#
# _framework density 23.044775000000001
#
# number of rings (size 3 to 8) (size 9 to 14) (size 15 to 20)
#    0.000    0.923    6.154    2.308    2.154    1.846 
#    0.000    0.000    0.000    0.000    0.000    0.000 
#    0.000    0.000    0.000    0.000    0.000    0.000 
#
# Total GULP energy -145302.392840 kJ/mol
# GULP energy per Si atom -5588.553571 kJ/mol
# Density = 2.299232 g / cm^3
# Si number density = 23.044775 Si / 1000 Ang^3
#
#
#
# Elastic Constant Matrix: (Units=GPa)
#
#
# Indices 1 2 3 4 5 6 
#
# 1 91.7718 34.4678 32.7894 0.0000 5.4398 0.0000
# 2 34.4678 128.5690 21.2714 0.0000 9.8703 0.0000
# 3 32.7894 21.2714 40.6469 0.0000 -1.9960 0.0000
# 4 0.0000 0.0000 0.0000 38.6557 0.0000 -1.7114
# 5 5.4398 9.8703 -1.9960 0.0000 39.5962 0.0000
# 6 0.0000 0.0000 0.0000 -1.7114 0.0000 42.2883
#
#
#
# Elastic Compliance Matrix: (Units=1/GPa)
#
#
# Indices 1 2 3 4 5 6 
#
# 1 0.016129 -0.002165 -0.011990 0.000000 -0.002280 0.000000
# 2 -0.002165 0.009030 -0.003083 0.000000 -0.002109 0.000000
# 3 -0.011990 -0.003083 0.036095 0.000000 0.004235 0.000000
# 4 0.000000 0.000000 0.000000 0.025916 0.000000 0.001049
# 5 -0.002280 -0.002109 0.004235 0.000000 0.026307 0.000000
# 6 0.000000 0.000000 0.000000 0.001049 0.000000 0.023690
#
#
# Mechanical properties :
#
#
# Convention : Reuss Voigt Hill
#
# Bulk Modulus (GPa) = 37.34252 48.67167 43.00710
# Shear Modulus (GPa) = 27.69018 35.60531 31.64775
#
# Velocity S-wave (km/s) = 3.47014 3.93498 3.70985
# Velocity P-wave (km/s) = 5.68290 6.46620 6.08716
#
# Compressibility (1/GPa) = 0.02677912
#
# Stress axis : x y z
#
# Youngs Moduli (GPa) = 62.00062 110.73820 27.70432
#
# Poissons Ratio (x) = 0.23977 0.33217
# Poissons Ratio (y) = 0.13424 0.08540
# Poissons Ratio (z) = 0.74338 0.34137
#
# Static dielectric constant tensor:
#      x y z
#    x 1.861200 0.000000 0.018650 
#    y 0.000000 1.862830 0.000000 
#    z 0.018650 0.000000 1.954200 
# 
# From -- ./inp_files/225525.got.cif
#   From: 2010.05.17/outbox.cif.g08.bks.cpg/sg15_113_cif.got.tgz:225525.got - 2010.06.03 18:47:42.
