data_PCOD9267187
_publ_section_title
;
Structure prediction by ZEFSAII (Michael W. Deem and Ramdas Pophale) SiO2 
 PCOD9267187
Probable space group: C 2/C
;
_chemical_formula_sum "Si O2"
_cell_formula_units_Z 60
_cell_length_a 9.470680
_cell_length_b 22.129907
_cell_length_c 19.920953
_cell_angle_alpha 90.000000
_cell_angle_beta 41.190563
_cell_angle_gamma 90.000000
_cell_volume 2749.602117
_symmetry_space_group_name_H-M "C 2/C"
_symmetry_group_IT_number 15
_symmetry_cell_setting 'monoclinic'
loop_
_space_group_symop_operation_xyz
x,y,z
-x,y,1/2-z
-x,-y,-z
x,-y,1/2+z
1/2+x,1/2+y,z
1/2-x,1/2+y,1/2-z
1/2-x,1/2-y,-z
1/2+x,1/2-y,1/2+z
loop_
_atom_site_type_symbol
_atom_site_label
_atom_site_fract_x
_atom_site_fract_y
_atom_site_fract_z
Si Si1 0.676162 0.883112 0.542613
Si Si2 0.394718 0.856246 0.418363
Si Si3 0.829958 0.490292 0.501387
Si Si4 0.777093 0.187838 0.873409
Si Si5 0.608516 0.493569 0.886107
Si Si6 0.000000 0.584093 0.750000
Si Si7 0.184608 0.632011 0.238871
Si Si8 0.061986 0.190598 0.448702
O O1 0.763372 0.859299 0.440293
O O2 0.440361 0.858052 0.647180
O O3 0.855550 0.863779 0.532508
O O4 0.621161 0.954637 0.566910
O O5 0.330782 0.921608 0.474259
O O6 0.569839 0.826686 0.402592
O O7 0.513893 0.874568 0.308927
O O8 0.192239 0.815744 0.468412
O O9 0.579375 0.505063 0.601310
O O10 0.000000 0.500000 0.500000
O O11 0.702467 0.253787 0.926404
O O12 0.000000 0.187627 0.750000
O O13 0.714230 0.432157 0.818944
O O14 0.792797 0.542406 0.823518
O O15 0.500000 0.500000 0.000000
O O16 0.360193 0.680809 0.155934
O O17 0.000000 0.642112 0.250000
#
# Coordination Sequence:
#
# PCOD9267187 Si02
#       8
#     8   8   8   8   8   4   8   8
#     4  11  24  44  73 103 142 189 235 290 359 435
#     4  12  26  45  70 103 145 182 235 300 359 427
#     4  12  24  43  65 103 152 184 219 286 369 426
#     4  12  28  49  70 101 144 189 235 295 368 428
#     4  12  21  39  70 101 145 187 237 292 342 427
#     4  12  24  40  72 112 134 186 246 290 360 432
#     4  10  19  38  67 104 129 176 237 292 343 406
#     4  11  24  47  76 100 134 184 251 298 344 422
#
# _framework density 21.821338000000001
#
# number of rings (size 3 to 8) (size 9 to 14) (size 15 to 20)
#    0.000    0.533    4.667    5.200    3.733    0.000 
#    0.000    4.000    0.000    0.000    0.000    0.000 
#    0.000    0.000    0.000    0.000    0.000    0.000 
#
# Total GULP energy -167047.337442 kJ/mol
# GULP energy per Si atom -5568.244581 kJ/mol
# Density = 2.177167 g / cm^3
# Si number density = 21.821338 Si / 1000 Ang^3
#
#
#
# Elastic Constant Matrix: (Units=GPa)
#
#
# Indices 1 2 3 4 5 6 
#
# 1 96.8763 1.8028 30.8013 -0.0001 -15.3160 0.0001
# 2 1.8028 65.1537 15.9144 0.0000 -2.6079 0.0000
# 3 30.8013 15.9144 126.2481 0.0001 -8.1428 -0.0001
# 4 -0.0001 0.0000 0.0001 25.5976 0.0001 -5.3752
# 5 -15.3160 -2.6079 -8.1428 0.0001 25.2139 -0.0001
# 6 0.0001 0.0000 -0.0001 -5.3752 -0.0001 15.0131
#
#
#
# Elastic Compliance Matrix: (Units=1/GPa)
#
#
# Indices 1 2 3 4 5 6 
#
# 1 0.012191 0.000567 -0.002619 0.000000 0.006618 0.000000
# 2 0.000567 0.015888 -0.002056 0.000000 0.001324 0.000000
# 3 -0.002619 -0.002056 0.008888 0.000000 0.001067 0.000000
# 4 0.000000 0.000000 0.000000 0.042242 0.000000 0.015124
# 5 0.006618 0.001324 0.001067 0.000000 0.044162 0.000000
# 6 0.000000 0.000000 0.000000 0.015124 0.000000 0.072023
#
#
# Mechanical properties :
#
#
# Convention : Reuss Voigt Hill
#
# Bulk Modulus (GPa) = 34.78062 42.81281 38.79672
# Shear Modulus (GPa) = 23.45294 29.14888 26.30091
#
# Velocity S-wave (km/s) = 3.28193 3.65882 3.47549
# Velocity P-wave (km/s) = 5.50770 6.12467 5.82436
#
# Compressibility (1/GPa) = 0.02875164
#
# Stress axis : x y z
#
# Youngs Moduli (GPa) = 82.02854 62.94154 112.51370
#
# Poissons Ratio (x) = -0.03571 0.29466
# Poissons Ratio (y) = -0.04653 0.23130
# Poissons Ratio (z) = 0.21483 0.12939
#
# Static dielectric constant tensor:
#      x y z
#    x 1.797050 0.000000 0.003190 
#    y 0.000000 2.175350 0.000000 
#    z 0.003190 0.000000 1.881810 
# 
# From -- ./inp_files/234541.got.cif
#   From: 2010.05.17/outbox.cif.g08.bks.cpg/sg15_118_cif.got.tgz:234541.got - 2010.06.03 18:47:42.
