data_PCOD9267116
_publ_section_title
;
Structure prediction by ZEFSAII (Michael W. Deem and Ramdas Pophale) SiO2 
 PCOD9267116
Probable space group: C 2/C
;
_chemical_formula_sum "Si O2"
_cell_formula_units_Z 48
_cell_length_a 26.235660
_cell_length_b 5.578808
_cell_length_c 24.099903
_cell_angle_alpha 90.000000
_cell_angle_beta 142.775592
_cell_angle_gamma 90.000000
_cell_volume 2133.830133
_symmetry_space_group_name_H-M "C 2/C"
_symmetry_group_IT_number 15
_symmetry_cell_setting 'monoclinic'
loop_
_space_group_symop_operation_xyz
x,y,z
-x,y,1/2-z
-x,-y,-z
x,-y,1/2+z
1/2+x,1/2+y,z
1/2-x,1/2+y,1/2-z
1/2-x,1/2-y,-z
1/2+x,1/2-y,1/2+z
loop_
_atom_site_type_symbol
_atom_site_label
_atom_site_fract_x
_atom_site_fract_y
_atom_site_fract_z
Si Si1 0.103715 0.019466 0.525584
Si Si2 0.020466 0.120347 0.340430
Si Si3 0.683677 0.553568 0.425561
Si Si4 0.054127 0.304717 0.579770
Si Si5 0.578330 0.108066 0.225464
Si Si6 0.257194 0.285812 0.917384
O O1 0.117961 0.189726 0.590622
O O2 0.081617 0.146145 0.448367
O O3 0.179458 0.838707 0.577325
O O4 0.016991 0.885064 0.463902
O O5 0.972730 0.372536 0.302101
O O6 0.085917 0.114551 0.345880
O O7 0.970207 0.862699 0.302454
O O8 0.750000 0.750000 0.500000
O O9 0.693706 0.353093 0.483312
O O10 0.718293 0.473450 0.395847
O O11 0.091622 0.393129 0.670275
O O12 0.000000 0.500000 0.500000
O O13 0.669125 0.078563 0.332967
#
# Coordination Sequence:
#
# PCOD9267116 Si02
#       6
#     8   8   8   8   8   8
#     4   9  20  40  64  91 129 179 220 270 329 409
#     4  10  23  42  68  93 134 176 220 273 339 405
#     4  10  24  43  68  93 127 183 226 273 348 413
#     4  10  19  38  65  93 127 180 226 264 338 407
#     4  11  24  43  65 101 137 172 222 285 336 397
#     4  10  24  43  62  99 133 172 225 288 337 406
#
# _framework density 22.494762000000001
#
# number of rings (size 3 to 8) (size 9 to 14) (size 15 to 20)
#    0.000    2.000    1.667    0.000   11.667    0.667 
#    3.000    0.000    0.000    0.000    0.000    0.000 
#    0.000    0.000    0.000    0.000    0.000    0.000 
#
# Total GULP energy -133742.903562 kJ/mol
# GULP energy per Si atom -5572.620982 kJ/mol
# Density = 2.244356 g / cm^3
# Si number density = 22.494762 Si / 1000 Ang^3
#
#
#
# Elastic Constant Matrix: (Units=GPa)
#
#
# Indices 1 2 3 4 5 6 
#
# 1 142.7019 52.2431 26.1300 0.0024 13.5429 0.0004
# 2 52.2431 78.7040 17.3969 0.0110 -0.2560 0.0070
# 3 26.1300 17.3969 78.9932 0.0012 10.8919 -0.0003
# 4 0.0024 0.0110 0.0012 37.1116 0.0016 -1.8149
# 5 13.5429 -0.2560 10.8919 0.0016 36.3112 0.0011
# 6 0.0004 0.0070 -0.0003 -1.8149 0.0011 42.2238
#
#
#
# Elastic Compliance Matrix: (Units=1/GPa)
#
#
# Indices 1 2 3 4 5 6 
#
# 1 0.009869 -0.006245 -0.001435 0.000001 -0.003294 0.000001
# 2 -0.006245 0.017343 -0.002182 -0.000005 0.003106 -0.000003
# 3 -0.001435 -0.002182 0.014127 0.000000 -0.003718 0.000001
# 4 0.000001 -0.000005 0.000000 0.027003 -0.000002 0.001161
# 5 -0.003294 0.003106 -0.003718 -0.000002 0.029905 -0.000001
# 6 0.000001 -0.000003 0.000001 0.001161 -0.000001 0.023733
#
#
# Mechanical properties :
#
#
# Convention : Reuss Voigt Hill
#
# Bulk Modulus (GPa) = 46.26190 54.65988 50.46089
# Shear Modulus (GPa) = 33.57728 36.77125 35.17426
#
# Velocity S-wave (km/s) = 3.86770 4.04748 3.95861
# Velocity P-wave (km/s) = 6.36834 6.79665 6.58598
#
# Compressibility (1/GPa) = 0.02161606
#
# Stress axis : x y z
#
# Youngs Moduli (GPa) = 101.32544 57.65876 70.78520
#
# Poissons Ratio (x) = 0.36006 0.10158
# Poissons Ratio (y) = 0.63274 0.15447
# Poissons Ratio (z) = 0.14541 0.12582
#
# Static dielectric constant tensor:
#      x y z
#    x 1.970670 -0.000030 -0.029790 
#    y -0.000030 2.120280 0.000020 
#    z -0.029790 0.000020 1.915740 
# 
# From -- ./inp_files/319345.got.cif
#   From: 2010.05.17/outbox.cif.g08.bks.cpg/sg15_160_cif.got.tgz:319345.got - 2010.06.03 18:47:42.
