data_PCOD9267395
_publ_section_title
;
Structure prediction by ZEFSAII (Michael W. Deem and Ramdas Pophale) SiO2 
 PCOD9267395
Probable space group: C 2/C
;
_chemical_formula_sum "Si O2"
_cell_formula_units_Z 44
_cell_length_a 12.470038
_cell_length_b 6.519624
_cell_length_c 28.609547
_cell_angle_alpha 90.000000
_cell_angle_beta 49.474527
_cell_angle_gamma 90.000000
_cell_volume 1767.998294
_symmetry_space_group_name_H-M "C 2/C"
_symmetry_group_IT_number 15
_symmetry_cell_setting 'monoclinic'
loop_
_space_group_symop_operation_xyz
x,y,z
-x,y,1/2-z
-x,-y,-z
x,-y,1/2+z
1/2+x,1/2+y,z
1/2-x,1/2+y,1/2-z
1/2-x,1/2-y,-z
1/2+x,1/2-y,1/2+z
loop_
_atom_site_type_symbol
_atom_site_label
_atom_site_fract_x
_atom_site_fract_y
_atom_site_fract_z
Si Si1 0.295697 0.766366 0.160439
Si Si2 0.062077 0.844686 0.642644
Si Si3 0.356383 0.775827 0.523416
Si Si4 0.500000 0.617806 0.750000
Si Si5 0.516594 0.100598 0.417726
Si Si6 0.696386 0.918598 0.593574
O O1 0.418347 0.648770 0.153383
O O2 0.138062 0.753281 0.224996
O O3 0.345941 0.004213 0.145451
O O4 0.275736 0.692921 0.112624
O O5 0.209226 0.894782 0.574759
O O6 0.099733 0.603774 0.642541
O O7 0.042550 0.978377 0.694056
O O8 0.438989 0.895606 0.460324
O O9 0.309558 0.542243 0.530094
O O10 0.440507 0.780094 0.548359
O O11 0.411641 0.196387 0.409934
#
# Coordination Sequence:
#
# PCOD9267395 Si02
#       6
#     8   8   8   4   8   8
#     4  11  23  38  61  88 115 150 202 240 286 347
#     4   9  23  41  59  83 118 154 191 240 293 338
#     4   9  19  40  61  86 123 154 184 236 294 348
#     4  12  24  42  58  82 114 160 198 244 288 338
#     4  10  19  39  62  88 122 152 187 235 288 355
#     4   9  21  37  58  91 116 150 190 237 291 344
#
# _framework density 24.886901000000002
#
# number of rings (size 3 to 8) (size 9 to 14) (size 15 to 20)
#    1.091    1.091    1.818    0.545    0.000    7.273 
#    0.000    1.818    0.000    0.000    0.000    0.000 
#    0.000    0.000    0.000    0.000    0.000    0.000 
#
# Total GULP energy -122865.568604 kJ/mol
# GULP energy per Si atom -5584.798573 kJ/mol
# Density = 2.483026 g / cm^3
# Si number density = 24.886901 Si / 1000 Ang^3
#
#
#
# Elastic Constant Matrix: (Units=GPa)
#
#
# Indices 1 2 3 4 5 6 
#
# 1 217.4634 44.0101 26.1398 0.0023 -16.1870 0.0010
# 2 44.0101 34.5579 7.0448 0.0056 -9.7976 0.0030
# 3 26.1398 7.0448 88.0520 0.0016 -26.4911 0.0013
# 4 0.0023 0.0056 0.0016 27.0245 0.0010 -0.8590
# 5 -16.1870 -9.7976 -26.4911 0.0010 40.9186 0.0006
# 6 0.0010 0.0030 0.0013 -0.8590 0.0006 37.4780
#
#
#
# Elastic Compliance Matrix: (Units=1/GPa)
#
#
# Indices 1 2 3 4 5 6 
#
# 1 0.006330 -0.007858 -0.001320 0.000001 -0.000232 0.000001
# 2 -0.007858 0.040806 0.001332 -0.000008 0.007524 -0.000003
# 3 -0.001320 0.001332 0.014383 -0.000001 0.009108 -0.000001
# 4 0.000001 -0.000008 -0.000001 0.037030 -0.000003 0.000849
# 5 -0.000232 0.007524 0.009108 -0.000003 0.032045 -0.000001
# 6 0.000001 -0.000003 -0.000001 0.000849 -0.000001 0.026702
#
#
# Mechanical properties :
#
#
# Convention : Reuss Voigt Hill
#
# Bulk Modulus (GPa) = 21.82201 54.94031 38.38116
# Shear Modulus (GPa) = 26.55822 38.60946 32.58384
#
# Velocity S-wave (km/s) = 3.27028 3.94305 3.62232
# Velocity P-wave (km/s) = 4.80075 6.54631 5.74026
#
# Compressibility (1/GPa) = 0.04582528
#
# Stress axis : x y z
#
# Youngs Moduli (GPa) = 157.97086 24.50592 69.52873
#
# Poissons Ratio (x) = 0.19258 0.09181
# Poissons Ratio (y) = 1.24140 -0.09260
# Poissons Ratio (z) = 0.20859 -0.03264
#
# Static dielectric constant tensor:
#      x y z
#    x 1.973950 0.000000 -0.049390 
#    y 0.000000 2.025520 0.000000 
#    z -0.049390 0.000000 1.967130 
# 
# From -- ./inp_files/267845.got.cif
#   From: 2010.05.17/outbox.cif.g08.bks.cpg/sg15_134_cif.got.tgz:267845.got - 2010.06.03 18:47:42.
