data_PCOD9267305
_publ_section_title
;
Structure prediction by ZEFSAII (Michael W. Deem and Ramdas Pophale) SiO2 
 PCOD9267305
Probable space group: C 2/C
;
_chemical_formula_sum "Si O2"
_cell_formula_units_Z 40
_cell_length_a 15.695713
_cell_length_b 9.681383
_cell_length_c 14.821267
_cell_angle_alpha 90.000000
_cell_angle_beta 71.384358
_cell_angle_gamma 90.000000
_cell_volume 2134.352225
_symmetry_space_group_name_H-M "C 2/C"
_symmetry_group_IT_number 15
_symmetry_cell_setting 'monoclinic'
loop_
_space_group_symop_operation_xyz
x,y,z
-x,y,1/2-z
-x,-y,-z
x,-y,1/2+z
1/2+x,1/2+y,z
1/2-x,1/2+y,1/2-z
1/2-x,1/2-y,-z
1/2+x,1/2-y,1/2+z
loop_
_atom_site_type_symbol
_atom_site_label
_atom_site_fract_x
_atom_site_fract_y
_atom_site_fract_z
Si Si1 0.590958 0.194293 0.660492
Si Si2 0.835108 0.891169 0.401773
Si Si3 0.810572 0.915116 0.755110
Si Si4 0.202805 0.577772 0.109028
Si Si5 0.004344 0.941293 0.598166
O O1 0.405895 0.435599 0.673054
O O2 0.667080 0.280751 0.690609
O O3 0.555664 0.294497 0.592320
O O4 0.634543 0.048812 0.621117
O O5 0.837723 0.727061 0.400157
O O6 0.784164 0.939367 0.509864
O O7 0.933856 0.954259 0.367045
O O8 0.788019 0.959507 0.330698
O O9 0.000000 0.675035 0.750000
O O10 0.238725 0.590268 0.199332
O O11 0.000000 0.000000 0.500000
#
# Coordination Sequence:
#
# PCOD9267305 Si02
#       5
#     8   8   8   8   8
#     4   9  21  37  59  83 114 150 191 232 284 336
#     4  10  22  36  59  85 115 148 187 230 289 333
#     4  10  20  38  61  81 111 153 189 228 282 341
#     4  11  21  38  58  85 119 142 186 245 278 331
#     4  10  19  39  59  79 113 154 188 227 280 342
#
# _framework density 18.741050000000001
#
# number of rings (size 3 to 8) (size 9 to 14) (size 15 to 20)
#    0.000    2.000    2.000    3.000    0.000    4.800 
#    3.600    1.000    0.000    0.000    0.000    0.000 
#    0.000    0.000    0.000    0.000    0.000    0.000 
#
# Total GULP energy -111510.640763 kJ/mol
# GULP energy per Si atom -5575.532038 kJ/mol
# Density = 1.869839 g / cm^3
# Si number density = 18.741050 Si / 1000 Ang^3
#
#
#
# Elastic Constant Matrix: (Units=GPa)
#
#
# Indices 1 2 3 4 5 6 
#
# 1 52.7607 28.3601 3.7785 0.0000 9.1433 0.0000
# 2 28.3601 123.7070 40.5646 0.0000 -7.7123 0.0000
# 3 3.7785 40.5646 54.5667 0.0000 23.6979 0.0000
# 4 0.0000 0.0000 0.0000 22.8307 0.0000 -6.9425
# 5 9.1433 -7.7123 23.6979 0.0000 27.5107 0.0000
# 6 0.0000 0.0000 0.0000 -6.9425 0.0000 9.6942
#
#
#
# Elastic Compliance Matrix: (Units=1/GPa)
#
#
# Indices 1 2 3 4 5 6 
#
# 1 0.039292 -0.025538 0.040014 0.000000 -0.054687 0.000000
# 2 -0.025538 0.034363 -0.050562 0.000000 0.061676 0.000000
# 3 0.040014 -0.050562 0.103970 0.000000 -0.117034 0.000000
# 4 0.000000 0.000000 0.000000 0.055995 0.000000 0.040101
# 5 -0.054687 0.061676 -0.117034 0.000000 0.172629 0.000000
# 6 0.000000 0.000000 0.000000 0.040101 0.000000 0.131872
#
#
# Mechanical properties :
#
#
# Convention : Reuss Voigt Hill
#
# Bulk Modulus (GPa) = 9.48289 41.82676 25.65483
# Shear Modulus (GPa) = 7.74658 22.56254 15.15456
#
# Velocity S-wave (km/s) = 2.03530 3.47351 2.84673
# Velocity P-wave (km/s) = 3.25488 6.20110 4.95217
#
# Compressibility (1/GPa) = 0.10545305
#
# Stress axis : x y z
#
# Youngs Moduli (GPa) = 25.45028 29.10082 9.61812
#
# Poissons Ratio (x) = 0.74318 -0.38486
# Poissons Ratio (y) = 0.64996 0.48632
# Poissons Ratio (z) = -1.01837 1.47141
#
# Static dielectric constant tensor:
#      x y z
#    x 1.688380 0.000000 0.058750 
#    y 0.000000 1.654730 0.000000 
#    z 0.058750 0.000000 1.679420 
# 
# From -- ./inp_files/235729.got.cif
#   From: 2010.05.17/outbox.cif.g08.bks.cpg/sg15_118_cif.got.tgz:235729.got - 2010.06.03 18:47:42.
