data_PCOD9267550
_publ_section_title
;
Structure prediction by ZEFSAII (Michael W. Deem and Ramdas Pophale) SiO2 
 PCOD9267550
Probable space group: C 2/C
;
_chemical_formula_sum "Si O2"
_cell_formula_units_Z 60
_cell_length_a 21.447217
_cell_length_b 23.918108
_cell_length_c 11.153969
_cell_angle_alpha 90.000000
_cell_angle_beta 146.850558
_cell_angle_gamma 90.000000
_cell_volume 3128.781843
_symmetry_space_group_name_H-M "C 2/C"
_symmetry_group_IT_number 15
_symmetry_cell_setting 'monoclinic'
loop_
_space_group_symop_operation_xyz
x,y,z
-x,y,1/2-z
-x,-y,-z
x,-y,1/2+z
1/2+x,1/2+y,z
1/2-x,1/2+y,1/2-z
1/2-x,1/2-y,-z
1/2+x,1/2-y,1/2+z
loop_
_atom_site_type_symbol
_atom_site_label
_atom_site_fract_x
_atom_site_fract_y
_atom_site_fract_z
Si Si1 0.215930 0.957927 0.174215
Si Si2 0.213760 0.575770 0.123510
Si Si3 0.370693 0.866928 0.546496
Si Si4 0.166783 0.168451 0.335197
Si Si5 0.379481 0.786328 0.333991
Si Si6 0.580258 0.145459 0.109983
Si Si7 0.913527 0.454003 0.308567
Si Si8 0.000000 0.111648 0.250000
O O1 0.285473 0.915878 0.372508
O O2 0.292109 0.959510 0.176691
O O3 0.219040 0.021839 0.221264
O O4 0.095478 0.928948 0.959651
O O5 0.295236 0.614791 0.177681
O O6 0.156808 0.616769 0.131019
O O7 0.115144 0.550752 0.877710
O O8 0.500000 0.889694 0.750000
O O9 0.370358 0.815359 0.450874
O O10 0.353930 0.850510 0.658201
O O11 0.276524 0.187115 0.590731
O O12 0.138123 0.220056 0.202025
O O13 0.064413 0.150689 0.257647
O O14 0.504132 0.798717 0.475182
O O15 0.474101 0.102544 0.946518
O O16 0.000000 0.500000 0.500000
#
# Coordination Sequence:
#
# PCOD9267550 Si02
#       8
#     8   8   8   8   8   8   8   4
#     4  12  24  39  68  95 135 184 220 273 335 413
#     4  12  25  39  63 102 138 167 230 283 334 406
#     4  10  19  39  65  98 134 168 209 278 351 397
#     4  11  24  43  65  94 128 180 233 275 320 393
#     4  10  21  41  69  97 128 164 225 287 331 391
#     4  11  21  35  66  99 131 164 206 281 356 392
#     4  12  21  37  61 104 139 169 210 286 346 393
#     4  12  24  48  66  92 134 188 238 256 336 420
#
# _framework density 19.176793
#
# number of rings (size 3 to 8) (size 9 to 14) (size 15 to 20)
#    0.000    0.800    8.000    1.200    0.000    2.667 
#    0.000    0.667   10.267    0.000    0.000    0.000 
#    0.000    0.000    0.000    0.000    0.000    0.000 
#
# Total GULP energy -167301.843993 kJ/mol
# GULP energy per Si atom -5576.728133 kJ/mol
# Density = 1.913315 g / cm^3
# Si number density = 19.176793 Si / 1000 Ang^3
#
#
#
# Elastic Constant Matrix: (Units=GPa)
#
#
# Indices 1 2 3 4 5 6 
#
# 1 103.1265 35.7332 30.4566 0.0000 4.8109 0.0000
# 2 35.7332 108.3313 35.5744 0.0000 6.7217 0.0000
# 3 30.4566 35.5744 91.5908 0.0000 3.7805 0.0000
# 4 0.0000 0.0000 0.0000 33.4201 0.0000 -3.7029
# 5 4.8109 6.7217 3.7805 0.0000 27.7906 0.0000
# 6 0.0000 0.0000 0.0000 -3.7029 0.0000 19.2052
#
#
#
# Elastic Compliance Matrix: (Units=1/GPa)
#
#
# Indices 1 2 3 4 5 6 
#
# 1 0.011524 -0.002863 -0.002682 0.000000 -0.000938 0.000000
# 2 -0.002863 0.011404 -0.003403 0.000000 -0.001800 0.000000
# 3 -0.002682 -0.003403 0.013152 0.000000 -0.000502 0.000000
# 4 0.000000 0.000000 0.000000 0.030575 0.000000 0.005895
# 5 -0.000938 -0.001800 -0.000502 0.000000 0.036649 0.000000
# 6 0.000000 0.000000 0.000000 0.005895 0.000000 0.053206
#
#
# Mechanical properties :
#
#
# Convention : Reuss Voigt Hill
#
# Bulk Modulus (GPa) = 54.98685 56.28632 55.63659
# Shear Modulus (GPa) = 27.70556 29.50212 28.60384
#
# Velocity S-wave (km/s) = 3.80510 3.92654 3.86630
# Velocity P-wave (km/s) = 6.93116 7.06908 7.00046
#
# Compressibility (1/GPa) = 0.01818616
#
# Stress axis : x y z
#
# Youngs Moduli (GPa) = 86.77221 87.68508 76.03132
#
# Poissons Ratio (x) = 0.25100 0.20389
# Poissons Ratio (y) = 0.24839 0.25876
# Poissons Ratio (z) = 0.23270 0.29843
#
# Static dielectric constant tensor:
#      x y z
#    x 1.890420 0.000000 -0.046430 
#    y 0.000000 1.720680 0.000000 
#    z -0.046430 0.000000 1.686580 
# 
# From -- ./inp_files/114853.got.cif
#   From: 2010.05.17/outbox.cif.g08.bks.cpg/sg15_58_cif.got.tgz:114853.got - 2010.06.03 18:47:42.
