data_PCOD9267638
_publ_section_title
;
Structure prediction by ZEFSAII (Michael W. Deem and Ramdas Pophale) SiO2 
 PCOD9267638
Probable space group: C 2/C
;
_chemical_formula_sum "Si O2"
_cell_formula_units_Z 64
_cell_length_a 9.220739
_cell_length_b 21.231572
_cell_length_c 13.970231
_cell_angle_alpha 90.000000
_cell_angle_beta 91.446013
_cell_angle_gamma 90.000000
_cell_volume 2734.092116
_symmetry_space_group_name_H-M "C 2/C"
_symmetry_group_IT_number 15
_symmetry_cell_setting 'monoclinic'
loop_
_space_group_symop_operation_xyz
x,y,z
-x,y,1/2-z
-x,-y,-z
x,-y,1/2+z
1/2+x,1/2+y,z
1/2-x,1/2+y,1/2-z
1/2-x,1/2-y,-z
1/2+x,1/2-y,1/2+z
loop_
_atom_site_type_symbol
_atom_site_label
_atom_site_fract_x
_atom_site_fract_y
_atom_site_fract_z
Si Si1 0.384803 0.799712 0.172421
Si Si2 0.457320 0.410520 0.969898
Si Si3 0.627722 0.474787 0.820127
Si Si4 0.615697 0.915348 0.949987
Si Si5 0.058766 0.471584 0.149324
Si Si6 0.658846 0.337976 0.845746
Si Si7 0.569806 0.338917 0.147638
Si Si8 0.552518 0.797083 0.548145
O O1 0.500000 0.822448 0.250000
O O2 0.343171 0.728631 0.206462
O O3 0.243025 0.842725 0.162120
O O4 0.443176 0.790243 0.065997
O O5 0.441149 0.536551 0.076521
O O6 0.288276 0.423397 0.954278
O O7 0.502239 0.391031 0.076941
O O8 0.513615 0.351511 0.904870
O O9 0.500000 0.498235 0.750000
O O10 0.772783 0.513038 0.831090
O O11 0.671295 0.403112 0.787444
O O12 0.554102 0.926563 0.056912
O O13 0.532825 0.966356 0.883604
O O14 0.572701 0.844600 0.921886
O O15 0.000000 0.451010 0.250000
O O16 0.795831 0.330639 0.918984
O O17 0.500000 0.340793 0.250000
O O18 0.544032 0.270342 0.098689
#
# Coordination Sequence:
#
# PCOD9267638 Si02
#       8
#     8   8   8   8   8   8   8   8
#     4  11  21  36  63  89 129 178 212 261 313 381
#     4  10  21  41  64  96 132 166 213 257 323 390
#     4  10  19  39  70  96 124 164 210 272 329 381
#     4  11  25  42  69  93 126 174 212 274 330 380
#     4  11  25  47  66  97 129 160 224 278 328 395
#     4   9  18  38  62  90 126 165 214 255 311 378
#     4  11  24  41  59  98 137 173 217 265 310 385
#     4  11  20  43  63  88 131 178 212 259 321 379
#
# _framework density 23.408137
#
# number of rings (size 3 to 8) (size 9 to 14) (size 15 to 20)
#    0.750    0.750    3.750    1.875    1.750    3.000 
#    2.250    1.875    0.000    0.000    0.000    0.000 
#    0.000    0.000    0.000    0.000    0.000    0.000 
#
# Total GULP energy -178985.158768 kJ/mol
# GULP energy per Si atom -5593.286212 kJ/mol
# Density = 2.335486 g / cm^3
# Si number density = 23.408137 Si / 1000 Ang^3
#
#
#
# Elastic Constant Matrix: (Units=GPa)
#
#
# Indices 1 2 3 4 5 6 
#
# 1 128.7906 40.5795 51.4089 0.0000 18.1011 0.0000
# 2 40.5795 79.6400 28.9264 0.0000 11.0100 0.0000
# 3 51.4089 28.9264 129.2885 0.0000 9.7941 0.0000
# 4 0.0000 0.0000 0.0000 -1.8431 0.0000 8.3073
# 5 18.1011 11.0100 9.7941 0.0000 45.2002 0.0000
# 6 0.0000 0.0000 0.0000 8.3073 0.0000 4.5099
#
#
#
# Elastic Compliance Matrix: (Units=1/GPa)
#
#
# Indices 1 2 3 4 5 6 
#
# 1 0.010621 -0.003905 -0.003151 0.000000 -0.002619 0.000000
# 2 -0.003905 0.015438 -0.001764 0.000000 -0.001814 0.000000
# 3 -0.003151 -0.001764 0.009408 0.000000 -0.000347 0.000000
# 4 0.000000 0.000000 0.000000 -0.058325 0.000000 0.107435
# 5 -0.002619 -0.001814 -0.000347 0.000000 0.023690 0.000000
# 6 0.000000 0.000000 0.000000 0.107435 0.000000 0.023836
#
#
# Mechanical properties :
#
#
# Convention : Reuss Voigt Hill
#
# Bulk Modulus (GPa) = 56.09360 64.39429 60.24395
# Shear Modulus (GPa) = 103.62531 24.02701 63.82616
#
# Velocity S-wave (km/s) = 6.66071 3.20728 5.22741
# Velocity P-wave (km/s) = 9.11969 6.42531 7.88839
#
# Compressibility (1/GPa) = 0.01782734
#
# Stress axis : x y z
#
# Youngs Moduli (GPa) = 94.15398 64.77625 106.28688
#
# Poissons Ratio (x) = 0.25296 0.33491
# Poissons Ratio (y) = 0.36768 0.18746
# Poissons Ratio (z) = 0.29668 0.11425
#
# Static dielectric constant tensor:
#      x y z
#    x 1.843150 0.000000 -0.004690 
#    y 0.000000 1.930250 0.000000 
#    z -0.004690 0.000000 1.890760 
# 
# From -- ./inp_files/137833.got.cif
#   From: 2010.05.17/outbox.cif.g08.bks.cpg/sg15_69_cif.got.tgz:137833.got - 2010.06.03 18:47:42.
