data_PCOD9267480
_publ_section_title
;
Structure prediction by ZEFSAII (Michael W. Deem and Ramdas Pophale) SiO2 
 PCOD9267480
Probable space group: C 2/C
;
_chemical_formula_sum "Si O2"
_cell_formula_units_Z 44
_cell_length_a 28.302859
_cell_length_b 14.068206
_cell_length_c 17.133133
_cell_angle_alpha 90.000000
_cell_angle_beta 160.260564
_cell_angle_gamma 90.000000
_cell_volume 2304.052672
_symmetry_space_group_name_H-M "C 2/C"
_symmetry_group_IT_number 15
_symmetry_cell_setting 'monoclinic'
loop_
_space_group_symop_operation_xyz
x,y,z
-x,y,1/2-z
-x,-y,-z
x,-y,1/2+z
1/2+x,1/2+y,z
1/2-x,1/2+y,1/2-z
1/2-x,1/2-y,-z
1/2+x,1/2-y,1/2+z
loop_
_atom_site_type_symbol
_atom_site_label
_atom_site_fract_x
_atom_site_fract_y
_atom_site_fract_z
Si Si1 0.233490 0.500152 0.325889
Si Si2 0.547432 0.807923 0.680191
Si Si3 0.802401 0.795853 0.956633
Si Si4 0.763104 0.198025 0.806567
Si Si5 0.066842 0.474552 0.218603
Si Si6 0.500000 0.831348 0.250000
O O1 0.324099 0.595104 0.465943
O O2 0.295508 0.412490 0.373794
O O3 0.189601 0.466152 0.344961
O O4 0.084477 0.533951 0.058225
O O5 0.664681 0.795999 0.797422
O O6 0.395242 0.792722 0.406430
O O7 0.564565 0.914879 0.740048
O O8 0.577061 0.738861 0.797936
O O9 0.764100 0.727657 0.825207
O O10 0.879644 0.265668 0.024831
O O11 0.068351 0.399739 0.290673
#
# Coordination Sequence:
#
# PCOD9267480 Si02
#       6
#     8   8   8   8   8   4
#     4   9  19  39  59  81 118 151 194 237 293 332
#     4   9  21  38  65  87 110 150 198 248 289 331
#     4  10  19  39  64  88 114 144 202 247 284 342
#     4  11  23  36  58  88 115 161 186 239 286 354
#     4   9  19  37  61  84 110 156 197 236 273 358
#     4  12  24  36  56  90 122 152 196 234 286 360
#
# _framework density 19.096785000000001
#
# number of rings (size 3 to 8) (size 9 to 14) (size 15 to 20)
#    0.000    2.182    1.818    1.636    5.091    0.727 
#    3.273    0.000    0.000    4.364    0.000    0.000 
#    0.000    0.000    0.000    0.000    0.000    0.000 
#
# Total GULP energy -122674.992010 kJ/mol
# GULP energy per Si atom -5576.136000 kJ/mol
# Density = 1.905332 g / cm^3
# Si number density = 19.096785 Si / 1000 Ang^3
#
#
#
# Elastic Constant Matrix: (Units=GPa)
#
#
# Indices 1 2 3 4 5 6 
#
# 1 60.7715 50.0256 4.5189 0.0000 -10.8911 0.0000
# 2 50.0256 137.3284 33.6259 0.0000 -15.3310 0.0000
# 3 4.5189 33.6259 62.4395 0.0000 -7.2212 0.0000
# 4 0.0000 0.0000 0.0000 26.6748 0.0000 0.8591
# 5 -10.8911 -15.3310 -7.2212 0.0000 23.0035 0.0000
# 6 0.0000 0.0000 0.0000 0.8591 0.0000 28.7149
#
#
#
# Elastic Compliance Matrix: (Units=1/GPa)
#
#
# Indices 1 2 3 4 5 6 
#
# 1 0.025095 -0.009355 0.004021 0.000000 0.006909 0.000000
# 2 -0.009355 0.012312 -0.005725 0.000000 0.001980 0.000000
# 3 0.004021 -0.005725 0.019287 0.000000 0.004143 0.000000
# 4 0.000000 0.000000 0.000000 0.037525 0.000000 -0.001123
# 5 0.006909 0.001980 0.004143 0.000000 0.049363 0.000000
# 6 0.000000 0.000000 0.000000 -0.001123 0.000000 0.034859
#
#
# Mechanical properties :
#
#
# Convention : Reuss Voigt Hill
#
# Bulk Modulus (GPa) = 28.92148 48.54224 38.73186
# Shear Modulus (GPa) = 23.57577 27.16992 25.37284
#
# Velocity S-wave (km/s) = 3.51742 3.77603 3.64901
# Velocity P-wave (km/s) = 5.62795 6.66974 6.17087
#
# Compressibility (1/GPa) = 0.03457638
#
# Stress axis : x y z
#
# Youngs Moduli (GPa) = 39.84884 81.22008 51.84966
#
# Poissons Ratio (x) = 0.75979 -0.20847
# Poissons Ratio (y) = 0.37277 0.29682
# Poissons Ratio (z) = -0.16022 0.46495
#
# Static dielectric constant tensor:
#      x y z
#    x 1.692340 0.000000 0.016760 
#    y 0.000000 1.689060 0.000000 
#    z 0.016760 0.000000 1.676450 
# 
# From -- ./inp_files/151439.got.cif
#   From: 2010.05.17/outbox.cif.g08.bks.cpg/sg15_76_cif.got.tgz:151439.got - 2010.06.03 18:47:42.
