data_PCOD9267810
_publ_section_title
;
Structure prediction by ZEFSAII (Michael W. Deem and Ramdas Pophale) SiO2 
 PCOD9267810
Probable space group: C 2/C
;
_chemical_formula_sum "Si O2"
_cell_formula_units_Z 56
_cell_length_a 25.874151
_cell_length_b 17.262190
_cell_length_c 16.844106
_cell_angle_alpha 90.000000
_cell_angle_beta 21.344178
_cell_angle_gamma 90.000000
_cell_volume 2738.261775
_symmetry_space_group_name_H-M "C 2/C"
_symmetry_group_IT_number 15
_symmetry_cell_setting 'monoclinic'
loop_
_space_group_symop_operation_xyz
x,y,z
-x,y,1/2-z
-x,-y,-z
x,-y,1/2+z
1/2+x,1/2+y,z
1/2-x,1/2+y,1/2-z
1/2-x,1/2-y,-z
1/2+x,1/2-y,1/2+z
loop_
_atom_site_type_symbol
_atom_site_label
_atom_site_fract_x
_atom_site_fract_y
_atom_site_fract_z
Si Si1 0.634339 0.288052 0.308101
Si Si2 0.518658 0.745450 0.818615
Si Si3 0.307214 0.318246 0.818376
Si Si4 0.269817 0.642461 0.201701
Si Si5 0.840454 0.512274 0.698092
Si Si6 0.384032 0.101741 0.483531
Si Si7 0.332401 0.648334 0.464361
O O1 0.642036 0.260027 0.206388
O O2 0.474107 0.304218 0.563317
O O3 0.688834 0.218773 0.285960
O O4 0.736130 0.362347 0.165600
O O5 0.500000 0.751905 0.750000
O O6 0.446781 0.826863 0.945706
O O7 0.432547 0.667400 0.959130
O O8 0.246368 0.365311 0.829892
O O9 0.303517 0.357084 0.910578
O O10 0.228416 0.234545 0.929590
O O11 0.235910 0.570492 0.194707
O O12 0.853454 0.534154 0.587288
O O13 0.000000 0.500000 0.500000
O O14 0.754639 0.580233 0.866256
O O15 0.500000 0.083245 0.250000
O O16 0.500000 0.644553 0.250000
#
# Coordination Sequence:
#
# PCOD9267810 Si02
#       7
#     8   8   8   8   8   8   8
#     4  10  19  40  66  87 120 158 206 260 303 362
#     4   9  19  35  58  86 111 150 203 249 295 353
#     4  10  21  40  67  94 117 158 210 260 312 368
#     4  10  21  36  58  87 120 156 199 249 308 369
#     4  12  25  40  58  87 127 165 199 249 315 374
#     4  10  22  38  59  86 118 160 207 247 296 360
#     4  11  23  41  67  95 124 160 208 261 312 368
#
# _framework density 20.45093
#
# number of rings (size 3 to 8) (size 9 to 14) (size 15 to 20)
#    0.000    1.714    0.000    6.000    0.000    9.143 
#    0.000    7.857    0.000    0.000    0.000    0.000 
#    0.000    0.000    0.000    0.000    0.000    0.000 
#
# Total GULP energy -155915.059760 kJ/mol
# GULP energy per Si atom -5568.394991 kJ/mol
# Density = 2.040438 g / cm^3
# Si number density = 20.450930 Si / 1000 Ang^3
#
#
#
# Elastic Constant Matrix: (Units=GPa)
#
#
# Indices 1 2 3 4 5 6 
#
# 1 133.9280 19.5772 29.2668 -0.0001 3.1336 0.0000
# 2 19.5772 55.6763 22.8255 -0.0003 7.5242 0.0001
# 3 29.2668 22.8255 94.3537 -0.0004 8.7230 0.0001
# 4 -0.0001 -0.0003 -0.0004 -13.5622 0.0000 14.3808
# 5 3.1336 7.5242 8.7230 0.0000 29.0772 0.0000
# 6 0.0000 0.0001 0.0001 14.3808 0.0000 16.4497
#
#
#
# Elastic Compliance Matrix: (Units=1/GPa)
#
#
# Indices 1 2 3 4 5 6 
#
# 1 0.008217 -0.002077 -0.002071 0.000000 0.000273 0.000000
# 2 -0.002077 0.020884 -0.004041 0.000000 -0.003968 0.000000
# 3 -0.002071 -0.004041 0.012446 0.000000 -0.002465 0.000000
# 4 0.000000 0.000000 0.000000 -0.038264 0.000000 0.033451
# 5 0.000273 -0.003968 -0.002465 0.000000 0.036128 0.000000
# 6 0.000000 0.000000 0.000000 0.033451 0.000000 0.031547
#
#
# Mechanical properties :
#
#
# Convention : Reuss Voigt Hill
#
# Bulk Modulus (GPa) = 39.73256 47.47745 43.60501
# Shear Modulus (GPa) = 52.23185 20.54551 36.38868
#
# Velocity S-wave (km/s) = 5.05920 3.17302 4.22277
# Velocity P-wave (km/s) = 7.32105 6.05721 6.71891
#
# Compressibility (1/GPa) = 0.02516827
#
# Stress axis : x y z
#
# Youngs Moduli (GPa) = 121.70541 47.88307 80.34428
#
# Poissons Ratio (x) = 0.09945 0.16643
# Poissons Ratio (y) = 0.25276 0.32468
# Poissons Ratio (z) = 0.25211 0.19350
#
# Static dielectric constant tensor:
#      x y z
#    x 1.802170 0.000000 0.027100 
#    y 0.000000 1.691490 0.000000 
#    z 0.027100 0.000000 1.807790 
# 
# From -- ./inp_files/222931.got.cif
#   From: 2010.05.17/outbox.cif.g08.bks.cpg/sg15_112_cif.got.tgz:222931.got - 2010.06.03 18:47:42.
