data_PCOD9267979
_publ_section_title
;
Structure prediction by ZEFSAII (Michael W. Deem and Ramdas Pophale) SiO2 
 PCOD9267979
Probable space group: C 2/C
;
_chemical_formula_sum "Si O2"
_cell_formula_units_Z 60
_cell_length_a 16.134004
_cell_length_b 12.190194
_cell_length_c 14.516576
_cell_angle_alpha 90.000000
_cell_angle_beta 104.377716
_cell_angle_gamma 90.000000
_cell_volume 2765.649998
_symmetry_space_group_name_H-M "C 2/C"
_symmetry_group_IT_number 15
_symmetry_cell_setting 'monoclinic'
loop_
_space_group_symop_operation_xyz
x,y,z
-x,y,1/2-z
-x,-y,-z
x,-y,1/2+z
1/2+x,1/2+y,z
1/2-x,1/2+y,1/2-z
1/2-x,1/2-y,-z
1/2+x,1/2-y,1/2+z
loop_
_atom_site_type_symbol
_atom_site_label
_atom_site_fract_x
_atom_site_fract_y
_atom_site_fract_z
Si Si1 0.131737 0.892789 0.392274
Si Si2 0.276632 0.754474 0.879466
Si Si3 0.723858 0.204446 0.663758
Si Si4 0.500000 0.720805 0.750000
Si Si5 0.361202 0.991599 0.918807
Si Si6 0.631547 0.637750 0.437609
Si Si7 0.552144 0.309024 0.555726
Si Si8 0.531426 0.888665 0.925226
O O1 0.209903 0.807087 0.403088
O O2 0.076344 0.874450 0.469390
O O3 0.077397 0.864541 0.286106
O O4 0.158223 0.018971 0.406786
O O5 0.271929 0.734650 0.770184
O O6 0.320903 0.871580 0.911523
O O7 0.179990 0.769524 0.891030
O O8 0.329595 0.662863 0.950085
O O9 0.643004 0.284824 0.628858
O O10 0.688402 0.080004 0.655824
O O11 0.520699 0.805640 0.837949
O O12 0.454078 0.972549 0.899559
O O13 0.381662 0.046764 0.024602
O O14 0.528506 0.642894 0.412299
O O15 0.520181 0.191343 0.509831
#
# Coordination Sequence:
#
# PCOD9267979 Si02
#       8
#     8   8   8   4   8   8   8   8
#     4  11  23  41  68  98 137 177 220 280 344 405
#     4  11  24  43  68  93 138 181 222 284 333 411
#     4  11  24  41  66 100 131 173 235 280 330 401
#     4  10  22  40  64  96 126 164 214 282 322 400
#     4  10  19  41  64  89 127 175 211 284 331 393
#     4  11  24  45  65  96 136 186 220 270 352 404
#     4  10  22  41  68  97 136 179 221 281 339 408
#     4   9  19  38  66  91 123 166 226 269 344 389
#
# _framework density 21.69472
#
# number of rings (size 3 to 8) (size 9 to 14) (size 15 to 20)
#    0.000    1.600    2.667    1.600    1.867    2.667 
#    4.800    0.000    0.000    0.000    0.000    0.000 
#    0.000    0.000    0.000    0.000    0.000    0.000 
#
# Total GULP energy -167090.050291 kJ/mol
# GULP energy per Si atom -5569.668343 kJ/mol
# Density = 2.164534 g / cm^3
# Si number density = 21.694720 Si / 1000 Ang^3
#
#
#
# Elastic Constant Matrix: (Units=GPa)
#
#
# Indices 1 2 3 4 5 6 
#
# 1 102.5101 17.8510 21.8784 0.0000 8.1418 0.0000
# 2 17.8510 87.1468 51.0322 0.0000 17.9053 0.0000
# 3 21.8784 51.0322 88.1313 0.0000 19.2909 0.0000
# 4 0.0000 0.0000 0.0000 27.9237 0.0000 11.3224
# 5 8.1418 17.9053 19.2909 0.0000 24.1888 0.0000
# 6 0.0000 0.0000 0.0000 11.3224 0.0000 35.6760
#
#
#
# Elastic Compliance Matrix: (Units=1/GPa)
#
#
# Indices 1 2 3 4 5 6 
#
# 1 0.010393 -0.000761 -0.001814 0.000000 -0.001489 0.000000
# 2 -0.000761 0.018131 -0.008999 0.000000 -0.005988 0.000000
# 3 -0.001814 -0.008999 0.018676 0.000000 -0.007623 0.000000
# 4 0.000000 0.000000 0.000000 0.041101 0.000000 -0.013044
# 5 -0.001489 -0.005988 -0.007623 0.000000 0.052354 0.000000
# 6 0.000000 0.000000 0.000000 -0.013044 0.000000 0.032170
#
#
# Mechanical properties :
#
#
# Convention : Reuss Voigt Hill
#
# Bulk Modulus (GPa) = 41.57490 51.03459 46.30474
# Shear Modulus (GPa) = 24.51103 30.02614 27.26859
#
# Velocity S-wave (km/s) = 3.36492 3.72429 3.54916
# Velocity P-wave (km/s) = 5.85680 6.48605 6.17944
#
# Compressibility (1/GPa) = 0.02405297
#
# Stress axis : x y z
#
# Youngs Moduli (GPa) = 96.21917 55.15482 53.54392
#
# Poissons Ratio (x) = 0.04198 0.09710
# Poissons Ratio (y) = 0.07323 0.48184
# Poissons Ratio (z) = 0.17449 0.49633
#
# Static dielectric constant tensor:
#      x y z
#    x 1.919260 0.000000 0.011520 
#    y 0.000000 1.807420 0.000000 
#    z 0.011520 0.000000 1.800840 
# 
# From -- ./inp_files/161388.got.cif
#   From: 2010.05.17/outbox.cif.g08.bks.cpg/sg15_81_cif.got.tgz:161388.got - 2010.06.03 18:47:42.
