data_PCOD9267006
_publ_section_title
;
Structure prediction by ZEFSAII (Michael W. Deem and Ramdas Pophale) SiO2 
 PCOD9267006
Probable space group: C 2/C
;
_chemical_formula_sum "Si O2"
_cell_formula_units_Z 64
_cell_length_a 14.919135
_cell_length_b 12.040731
_cell_length_c 14.124344
_cell_angle_alpha 90.000000
_cell_angle_beta 88.020823
_cell_angle_gamma 90.000000
_cell_volume 2535.745282
_symmetry_space_group_name_H-M "C 2/C"
_symmetry_group_IT_number 15
_symmetry_cell_setting 'monoclinic'
loop_
_space_group_symop_operation_xyz
x,y,z
-x,y,1/2-z
-x,-y,-z
x,-y,1/2+z
1/2+x,1/2+y,z
1/2-x,1/2+y,1/2-z
1/2-x,1/2-y,-z
1/2+x,1/2-y,1/2+z
loop_
_atom_site_type_symbol
_atom_site_label
_atom_site_fract_x
_atom_site_fract_y
_atom_site_fract_z
Si Si1 0.292883 0.422382 0.881472
Si Si2 0.760499 0.997656 0.661399
Si Si3 0.290758 0.749304 0.115227
Si Si4 0.396745 0.626634 0.879508
Si Si5 0.590361 0.326511 0.345504
Si Si6 0.899487 0.584662 0.088434
Si Si7 0.470257 0.856559 0.088536
Si Si8 0.859596 0.304979 0.324665
O O1 0.273078 0.462303 0.772521
O O2 0.375581 0.499722 0.905643
O O3 0.201001 0.445765 0.939420
O O4 0.315083 0.292836 0.887920
O O5 0.772308 0.881220 0.609092
O O6 0.834334 0.087045 0.624001
O O7 0.669690 0.068304 0.655591
O O8 0.197447 0.810780 0.097131
O O9 0.380962 0.791782 0.061136
O O10 0.321253 0.778388 0.222010
O O11 0.409568 0.644449 0.765889
O O12 0.497354 0.658106 0.905722
O O13 0.611663 0.195660 0.349822
O O14 0.938607 0.473976 0.133853
O O15 0.966598 0.615579 0.002329
O O16 0.535720 0.793519 0.157247
#
# Coordination Sequence:
#
# PCOD9267006 Si02
#       8
#     8   8   8   8   8   8   8   8
#     4  10  19  38  64  85 124 156 191 254 305 354
#     4  10  20  36  63  91 124 144 200 255 302 354
#     4  11  21  39  58  93 125 150 198 260 296 357
#     4  10  20  36  63  92 116 154 199 249 316 351
#     4  10  20  38  61  90 117 157 197 250 309 362
#     4  11  22  45  60  83 128 164 207 251 291 368
#     4  11  26  39  61  88 123 170 205 243 304 358
#     4  11  21  39  62  93 118 159 200 254 305 358
#
# _framework density 25.239127
#
# number of rings (size 3 to 8) (size 9 to 14) (size 15 to 20)
#    0.000    1.500    5.000    1.125    3.500    0.500 
#    2.250    2.500    0.000    0.000    0.000    0.000 
#    0.000    0.000    0.000    0.000    0.000    0.000 
#
# Total GULP energy -178857.017882 kJ/mol
# GULP energy per Si atom -5589.281809 kJ/mol
# Density = 2.518168 g / cm^3
# Si number density = 25.239127 Si / 1000 Ang^3
#
#
#
# Elastic Constant Matrix: (Units=GPa)
#
#
# Indices 1 2 3 4 5 6 
#
# 1 154.3508 44.2024 30.5709 0.0000 -35.3031 0.0000
# 2 44.2024 156.9670 23.6257 0.0000 -18.5370 0.0000
# 3 30.5709 23.6257 69.8905 0.0000 -16.2115 0.0000
# 4 0.0000 0.0000 0.0000 18.3291 0.0000 -15.3156
# 5 -35.3031 -18.5370 -16.2115 0.0000 40.7302 0.0000
# 6 0.0000 0.0000 0.0000 -15.3156 0.0000 40.7545
#
#
#
# Elastic Compliance Matrix: (Units=1/GPa)
#
#
# Indices 1 2 3 4 5 6 
#
# 1 0.008659 -0.001434 -0.001888 0.000000 0.006101 0.000000
# 2 -0.001434 0.007164 -0.001462 0.000000 0.001436 0.000000
# 3 -0.001888 -0.001462 0.016629 0.000000 0.004318 0.000000
# 4 0.000000 0.000000 0.000000 0.079533 0.000000 0.029889
# 5 0.006101 0.001436 0.004318 0.000000 0.032212 0.000000
# 6 0.000000 0.000000 0.000000 0.029889 0.000000 0.035769
#
#
# Mechanical properties :
#
#
# Convention : Reuss Voigt Hill
#
# Bulk Modulus (GPa) = 43.69391 64.22290 53.95841
# Shear Modulus (GPa) = 25.36007 38.81671 32.08839
#
# Velocity S-wave (km/s) = 3.17328 3.92594 3.56950
# Velocity P-wave (km/s) = 5.54760 6.78614 6.19788
#
# Compressibility (1/GPa) = 0.02288648
#
# Stress axis : x y z
#
# Youngs Moduli (GPa) = 115.49186 139.58545 60.13491
#
# Poissons Ratio (x) = 0.20012 0.11351
# Poissons Ratio (y) = 0.16558 0.08789
# Poissons Ratio (z) = 0.21800 0.20401
#
# Static dielectric constant tensor:
#      x y z
#    x 2.002380 0.000000 0.012840 
#    y 0.000000 1.925200 0.000000 
#    z 0.012840 0.000000 2.099020 
# 
# From -- ./inp_files/243716.got.cif
#   From: 2010.05.17/outbox.cif.g08.bks.cpg/sg15_122_cif.got.tgz:243716.got - 2010.06.03 18:47:42.
