data_PCOD9267008
_publ_section_title
;
Structure prediction by ZEFSAII (Michael W. Deem and Ramdas Pophale) SiO2 
 PCOD9267008
Probable space group: C 2/C
;
_chemical_formula_sum "Si O2"
_cell_formula_units_Z 44
_cell_length_a 21.952211
_cell_length_b 7.346451
_cell_length_c 14.908118
_cell_angle_alpha 90.000000
_cell_angle_beta 46.882719
_cell_angle_gamma 90.000000
_cell_volume 1754.993267
_symmetry_space_group_name_H-M "C 2/C"
_symmetry_group_IT_number 15
_symmetry_cell_setting 'monoclinic'
loop_
_space_group_symop_operation_xyz
x,y,z
-x,y,1/2-z
-x,-y,-z
x,-y,1/2+z
1/2+x,1/2+y,z
1/2-x,1/2+y,1/2-z
1/2-x,1/2-y,-z
1/2+x,1/2-y,1/2+z
loop_
_atom_site_type_symbol
_atom_site_label
_atom_site_fract_x
_atom_site_fract_y
_atom_site_fract_z
Si Si1 0.193224 0.452402 0.672151
Si Si2 0.939591 0.936203 0.638541
Si Si3 0.984166 0.486748 0.119825
Si Si4 0.641640 0.117055 0.544539
Si Si5 0.766987 0.193537 0.257058
Si Si6 0.000000 0.094240 0.250000
O O1 0.200841 0.540454 0.565169
O O2 0.204171 0.610276 0.735988
O O3 0.249024 0.305201 0.668020
O O4 0.096619 0.401036 0.773037
O O5 0.845167 0.937529 0.700452
O O6 0.959662 0.727865 0.649656
O O7 0.967621 0.029383 0.701462
O O8 0.000000 0.000000 0.500000
O O9 0.066703 0.519610 0.093787
O O10 0.000000 0.500000 0.000000
O O11 0.691155 0.155118 0.402877
O O12 0.585663 0.291355 0.634025
#
# Coordination Sequence:
#
# PCOD9267008 Si02
#       6
#     8   8   8   8   8   4
#     4  11  22  38  58  91 120 156 204 246 307 353
#     4  10  23  38  60  89 120 156 201 248 305 354
#     4  10  19  38  64  86 115 155 202 246 295 357
#     4  11  19  38  64  89 115 160 210 245 288 365
#     4  11  24  35  62  91 123 158 201 254 298 363
#     4  10  20  38  66  86 114 164 210 242 292 366
#
# _framework density 25.071318999999999
#
# number of rings (size 3 to 8) (size 9 to 14) (size 15 to 20)
#    0.000    1.455    7.273    0.545    5.091    0.000 
#    0.000    0.909    8.000    0.000    0.000    0.000 
#    0.000    0.000    0.000    0.000    0.000    0.000 
#
# Total GULP energy -122626.246143 kJ/mol
# GULP energy per Si atom -5573.920279 kJ/mol
# Density = 2.501426 g / cm^3
# Si number density = 25.071319 Si / 1000 Ang^3
#
#
#
# Elastic Constant Matrix: (Units=GPa)
#
#
# Indices 1 2 3 4 5 6 
#
# 1 169.3330 29.7719 38.2115 -0.0030 17.2812 0.0028
# 2 29.7719 45.1280 -3.2312 -0.0014 1.5229 0.0021
# 3 38.2115 -3.2312 111.0906 -0.0015 -7.8270 0.0017
# 4 -0.0030 -0.0014 -0.0015 22.0464 0.0012 5.6679
# 5 17.2812 1.5229 -7.8270 0.0012 47.3813 -0.0013
# 6 0.0028 0.0021 0.0017 5.6679 -0.0013 31.7228
#
#
#
# Elastic Compliance Matrix: (Units=1/GPa)
#
#
# Indices 1 2 3 4 5 6 
#
# 1 0.007860 -0.005298 -0.003084 0.000001 -0.003206 0.000000
# 2 -0.005298 0.025794 0.002682 0.000001 0.001546 -0.000002
# 3 -0.003084 0.002682 0.010334 0.000000 0.002746 0.000000
# 4 0.000001 0.000001 0.000000 0.047543 -0.000002 -0.008495
# 5 -0.003206 0.001546 0.002746 -0.000002 0.022678 0.000001
# 6 0.000000 -0.000002 0.000000 -0.008495 0.000001 0.033041
#
#
# Mechanical properties :
#
#
# Convention : Reuss Voigt Hill
#
# Bulk Modulus (GPa) = 30.68622 50.56178 40.62400
# Shear Modulus (GPa) = 29.49629 37.61671 33.55650
#
# Velocity S-wave (km/s) = 3.43373 3.87769 3.66244
# Velocity P-wave (km/s) = 5.29026 6.34504 5.84151
#
# Compressibility (1/GPa) = 0.03258792
#
# Stress axis : x y z
#
# Youngs Moduli (GPa) = 127.22612 38.76836 96.77039
#
# Poissons Ratio (x) = 0.20540 0.29840
# Poissons Ratio (y) = 0.67405 -0.25949
# Poissons Ratio (z) = 0.39231 -0.10396
#
# Static dielectric constant tensor:
#      x y z
#    x 2.199530 0.000000 0.090980 
#    y 0.000000 2.211430 0.000000 
#    z 0.090980 0.000000 1.933680 
# 
# From -- ./inp_files/110838.got.cif
#   From: 2010.05.17/outbox.cif.g08.bks.cpg/sg15_56_cif.got.tgz:110838.got - 2010.06.03 18:47:42.
