data_PCOD9267243
_publ_section_title
;
Structure prediction by ZEFSAII (Michael W. Deem and Ramdas Pophale) SiO2 
 PCOD9267243
Probable space group: C 2/C
;
_chemical_formula_sum "Si O2"
_cell_formula_units_Z 40
_cell_length_a 11.361524
_cell_length_b 27.076495
_cell_length_c 5.948893
_cell_angle_alpha 90.000000
_cell_angle_beta 77.596358
_cell_angle_gamma 90.000000
_cell_volume 1787.343327
_symmetry_space_group_name_H-M "C 2/C"
_symmetry_group_IT_number 15
_symmetry_cell_setting 'monoclinic'
loop_
_space_group_symop_operation_xyz
x,y,z
-x,y,1/2-z
-x,-y,-z
x,-y,1/2+z
1/2+x,1/2+y,z
1/2-x,1/2+y,1/2-z
1/2-x,1/2-y,-z
1/2+x,1/2-y,1/2+z
loop_
_atom_site_type_symbol
_atom_site_label
_atom_site_fract_x
_atom_site_fract_y
_atom_site_fract_z
Si Si1 0.704044 0.107050 0.698098
Si Si2 0.338509 0.793755 0.533804
Si Si3 0.500000 0.973468 0.250000
Si Si4 0.177228 0.842651 0.975159
Si Si5 0.000000 0.765949 0.250000
Si Si6 0.025741 0.920775 0.503189
O O1 0.652645 0.159171 0.631465
O O2 0.615579 0.062204 0.699010
O O3 0.738780 0.117127 0.939966
O O4 0.834855 0.094743 0.542021
O O5 0.250000 0.750000 0.500000
O O6 0.463769 0.769000 0.557604
O O7 0.265827 0.815886 0.772873
O O8 0.500000 0.000000 0.500000
O O9 0.114446 0.800921 0.155663
O O10 0.061474 0.873151 0.940740
O O11 0.000000 0.949748 0.750000
O O12 0.000000 0.937592 0.250000
#
# Coordination Sequence:
#
# PCOD9267243 Si02
#       6
#     8   8   4   8   4   8
#     4  11  25  46  76 101 146 204 245 323 395 454
#     4  12  25  38  64 105 156 206 252 306 372 467
#     4  12  34  57  84 114 148 194 267 338 408 478
#     4  11  22  42  61 101 146 199 254 303 375 441
#     4  12  24  37  56 102 158 200 259 300 344 474
#     4  10  19  38  70 102 133 186 248 294 371 443
#
# _framework density 22.379584999999999
#
# number of rings (size 3 to 8) (size 9 to 14) (size 15 to 20)
#    0.000    0.800    7.000    0.600    5.600    0.000 
#    0.000    0.000    0.000   15.600    0.000    0.000 
#    0.000    0.000    0.000    0.000    0.000    0.000 
#
# Total GULP energy -111496.123520 kJ/mol
# GULP energy per Si atom -5574.806176 kJ/mol
# Density = 2.232865 g / cm^3
# Si number density = 22.379585 Si / 1000 Ang^3
#
#
#
# Elastic Constant Matrix: (Units=GPa)
#
#
# Indices 1 2 3 4 5 6 
#
# 1 121.8294 61.3781 25.3857 0.0000 28.4538 0.0000
# 2 61.3781 114.7954 34.7075 0.0000 18.3983 0.0000
# 3 25.3857 34.7075 107.6118 0.0000 14.8301 0.0000
# 4 0.0000 0.0000 0.0000 6.5480 0.0000 -3.6133
# 5 28.4538 18.3983 14.8301 0.0000 28.0934 0.0000
# 6 0.0000 0.0000 0.0000 -3.6133 0.0000 2.8548
#
#
#
# Elastic Compliance Matrix: (Units=1/GPa)
#
#
# Indices 1 2 3 4 5 6 
#
# 1 0.013293 -0.005531 0.000005 0.000000 -0.009844 0.000000
# 2 -0.005531 0.012666 -0.002598 0.000000 -0.001321 0.000000
# 3 0.000005 -0.002598 0.010672 0.000000 -0.003937 0.000000
# 4 0.000000 0.000000 0.000000 0.506403 0.000000 0.640948
# 5 -0.009844 -0.001321 -0.003937 0.000000 0.048509 0.000000
# 6 0.000000 0.000000 0.000000 0.640948 0.000000 1.161523
#
#
# Mechanical properties :
#
#
# Convention : Reuss Voigt Hill
#
# Bulk Modulus (GPa) = 49.06412 65.24211 57.15312
# Shear Modulus (GPa) = 2.81514 22.35027 12.58271
#
# Velocity S-wave (km/s) = 1.12278 3.16363 2.37373
# Velocity P-wave (km/s) = 4.86334 6.52385 5.75381
#
# Compressibility (1/GPa) = 0.02038149
#
# Stress axis : x y z
#
# Youngs Moduli (GPa) = 75.22863 78.95300 93.70247
#
# Poissons Ratio (x) = 0.43670 -0.00044
# Poissons Ratio (y) = 0.41610 0.24345
# Poissons Ratio (z) = -0.00035 0.20513
#
# Static dielectric constant tensor:
#      x y z
#    x 1.683510 0.000000 0.173440 
#    y 0.000000 1.826300 0.000000 
#    z 0.173440 0.000000 1.863370 
# 
# From -- ./inp_files/5721.got.cif
#   From: 2010.05.17/outbox.cif.g08.bks.cpg/sg15_3_cif.got.tgz:5721.got - 2010.06.03 18:47:42.
