data_PCOD9267719
_publ_section_title
;
Structure prediction by ZEFSAII (Michael W. Deem and Ramdas Pophale) SiO2 
 PCOD9267719
Probable space group: C 2/C
;
_chemical_formula_sum "Si O2"
_cell_formula_units_Z 64
_cell_length_a 10.274154
_cell_length_b 15.781010
_cell_length_c 16.263711
_cell_angle_alpha 90.000000
_cell_angle_beta 91.834448
_cell_angle_gamma 90.000000
_cell_volume 2635.590171
_symmetry_space_group_name_H-M "C 2/C"
_symmetry_group_IT_number 15
_symmetry_cell_setting 'monoclinic'
loop_
_space_group_symop_operation_xyz
x,y,z
-x,y,1/2-z
-x,-y,-z
x,-y,1/2+z
1/2+x,1/2+y,z
1/2-x,1/2+y,1/2-z
1/2-x,1/2-y,-z
1/2+x,1/2-y,1/2+z
loop_
_atom_site_type_symbol
_atom_site_label
_atom_site_fract_x
_atom_site_fract_y
_atom_site_fract_z
Si Si1 0.347852 0.356334 0.141964
Si Si2 0.973234 0.132326 0.004472
Si Si3 0.968204 0.423511 0.590715
Si Si4 0.528101 0.735102 0.156502
Si Si5 0.650624 0.531044 0.260130
Si Si6 0.694384 0.816441 0.792067
Si Si7 0.432247 0.102000 0.917141
Si Si8 0.809995 0.999461 0.426692
O O1 0.354947 0.451843 0.177707
O O2 0.342621 0.283832 0.213439
O O3 0.214332 0.362184 0.087286
O O4 0.459080 0.334489 0.077927
O O5 0.950816 0.192813 0.080815
O O6 0.076753 0.062908 0.041134
O O7 0.842760 0.086307 0.973634
O O8 0.924398 0.361885 0.662475
O O9 0.003819 0.381111 0.505296
O O10 0.831984 0.466184 0.558335
O O11 0.056913 0.504599 0.610592
O O12 0.500000 0.719658 0.250000
O O13 0.675522 0.697281 0.149172
O O14 0.505987 0.835155 0.147073
O O15 0.500000 0.557546 0.250000
O O16 0.748527 0.612791 0.271313
O O17 0.686138 0.493096 0.171647
#
# Coordination Sequence:
#
# PCOD9267719 Si02
#       8
#     8   8   8   8   8   8   8   8
#     4  11  22  40  68  99 124 172 224 262 322 393
#     4  11  20  37  65  95 124 159 221 270 322 384
#     4  10  19  40  62  90 127 163 213 260 328 380
#     4  11  22  37  61  93 126 163 219 274 317 374
#     4  11  21  40  63  95 132 165 208 279 327 375
#     4  10  22  38  63  93 123 167 215 264 316 380
#     4  10  22  38  63  88 123 169 208 264 315 395
#     4  10  21  35  62  95 123 164 207 271 328 380
#
# _framework density 24.282986000000001
#
# number of rings (size 3 to 8) (size 9 to 14) (size 15 to 20)
#    0.000    1.500    5.000    1.125    0.000    6.000 
#    0.000    1.875    2.750    0.000    0.000    0.000 
#    0.000    0.000    0.000    0.000    0.000    0.000 
#
# Total GULP energy -178306.934473 kJ/mol
# GULP energy per Si atom -5572.091702 kJ/mol
# Density = 2.422772 g / cm^3
# Si number density = 24.282986 Si / 1000 Ang^3
#
#
#
# Elastic Constant Matrix: (Units=GPa)
#
#
# Indices 1 2 3 4 5 6 
#
# 1 27.7870 11.3878 2.8131 0.0000 -3.6125 0.0000
# 2 11.3878 131.0398 48.8715 0.0000 -11.5386 0.0000
# 3 2.8131 48.8715 90.8305 0.0000 -18.3488 0.0000
# 4 0.0000 0.0000 0.0000 12.9284 0.0000 22.0267
# 5 -3.6125 -11.5386 -18.3488 0.0000 20.0739 0.0000
# 6 0.0000 0.0000 0.0000 22.0267 0.0000 -4.2113
#
#
#
# Elastic Compliance Matrix: (Units=1/GPa)
#
#
# Indices 1 2 3 4 5 6 
#
# 1 0.038082 -0.003483 0.002054 0.000000 0.006729 0.000000
# 2 -0.003483 0.009881 -0.005136 0.000000 0.000358 0.000000
# 3 0.002054 -0.005136 0.016174 0.000000 0.012202 0.000000
# 4 0.000000 0.000000 0.000000 0.007804 0.000000 0.040819
# 5 0.006729 0.000358 0.012202 0.000000 0.062386 0.000000
# 6 0.000000 0.000000 0.000000 0.040819 0.000000 -0.023958
#
#
# Mechanical properties :
#
#
# Convention : Reuss Voigt Hill
#
# Bulk Modulus (GPa) = 19.60525 41.75580 30.68053
# Shear Modulus (GPa) = 35.58655 18.19719 26.89187
#
# Velocity S-wave (km/s) = 3.83233 2.74045 3.33143
# Velocity P-wave (km/s) = 5.26056 5.21979 5.24022
#
# Compressibility (1/GPa) = 0.05100675
#
# Stress axis : x y z
#
# Youngs Moduli (GPa) = 26.25892 101.20348 61.82613
#
# Poissons Ratio (x) = 0.35249 -0.12698
# Poissons Ratio (y) = 0.09146 0.31756
# Poissons Ratio (z) = -0.05393 0.51982
#
# Static dielectric constant tensor:
#      x y z
#    x 1.457510 0.000000 0.490610 
#    y 0.000000 2.035900 0.000000 
#    z 0.490610 0.000000 1.510440 
# 
# From -- ./inp_files/198319.got.cif
#   From: 2010.05.17/outbox.cif.g08.bks.cpg/sg15_100_cif.got.tgz:198319.got - 2010.06.03 18:47:42.
