data_PCOD9267498
_publ_section_title
;
Structure prediction by ZEFSAII (Michael W. Deem and Ramdas Pophale) SiO2 
 PCOD9267498
Probable space group: C 2/C
;
_chemical_formula_sum "Si O2"
_cell_formula_units_Z 40
_cell_length_a 24.731884
_cell_length_b 8.002787
_cell_length_c 14.767775
_cell_angle_alpha 90.000000
_cell_angle_beta 146.494445
_cell_angle_gamma 90.000000
_cell_volume 1613.491313
_symmetry_space_group_name_H-M "C 2/C"
_symmetry_group_IT_number 15
_symmetry_cell_setting 'monoclinic'
loop_
_space_group_symop_operation_xyz
x,y,z
-x,y,1/2-z
-x,-y,-z
x,-y,1/2+z
1/2+x,1/2+y,z
1/2-x,1/2+y,1/2-z
1/2-x,1/2-y,-z
1/2+x,1/2-y,1/2+z
loop_
_atom_site_type_symbol
_atom_site_label
_atom_site_fract_x
_atom_site_fract_y
_atom_site_fract_z
Si Si1 0.904007 0.093812 0.325508
Si Si2 0.107312 0.593331 0.435255
Si Si3 0.749811 0.947422 0.981915
Si Si4 0.043364 0.276552 0.411497
Si Si5 0.683829 0.451161 0.612863
O O1 0.819846 0.084255 0.284294
O O2 0.956582 0.259508 0.363132
O O3 0.852958 0.014443 0.165595
O O4 0.000000 0.000000 0.500000
O O5 0.164241 0.505603 0.431454
O O6 0.099464 0.451121 0.500581
O O7 0.148929 0.767799 0.529257
O O8 0.000000 0.636940 0.250000
O O9 0.740212 0.989744 0.862860
O O10 0.750000 0.750000 0.000000
O O11 0.000000 0.278303 0.250000
O O12 0.113637 0.114809 0.512180
#
# Coordination Sequence:
#
# PCOD9267498 Si02
#       5
#     8   8   8   8   8
#     4  10  22  39  69 101 132 184 235 283 357 421
#     4  10  23  40  66 101 129 183 233 277 353 424
#     4  10  22  43  68  99 141 184 233 291 356 425
#     4  10  19  39  64  92 134 172 224 281 344 414
#     4  10  21  41  69  89 138 184 221 290 349 413
#
# _framework density 24.790959999999998
#
# number of rings (size 3 to 8) (size 9 to 14) (size 15 to 20)
#    0.000    2.000    2.000    0.600    8.400    1.600 
#   14.400    0.000    0.000    0.000    0.000    0.000 
#    0.000    0.000    0.000    0.000    0.000    0.000 
#
# Total GULP energy -111402.993935 kJ/mol
# GULP energy per Si atom -5570.149697 kJ/mol
# Density = 2.473453 g / cm^3
# Si number density = 24.790960 Si / 1000 Ang^3
#
#
#
# Elastic Constant Matrix: (Units=GPa)
#
#
# Indices 1 2 3 4 5 6 
#
# 1 129.4561 14.0718 50.9288 0.0000 -17.8508 0.0000
# 2 14.0718 118.3853 1.4399 0.0000 0.8148 0.0000
# 3 50.9288 1.4399 48.6315 0.0000 -6.4787 0.0000
# 4 0.0000 0.0000 0.0000 248.1866 0.0000 -69.0445
# 5 -17.8508 0.8148 -6.4787 0.0000 34.9524 0.0000
# 6 0.0000 0.0000 0.0000 -69.0445 0.0000 66.2636
#
#
#
# Elastic Compliance Matrix: (Units=1/GPa)
#
#
# Indices 1 2 3 4 5 6 
#
# 1 0.014060 -0.001532 -0.014065 0.000000 0.004609 0.000000
# 2 -0.001532 0.008619 0.001249 0.000000 -0.000752 0.000000
# 3 -0.014065 0.001249 0.035162 0.000000 -0.000695 0.000000
# 4 0.000000 0.000000 0.000000 0.005674 0.000000 0.005912
# 5 0.004609 -0.000752 -0.000695 0.000000 0.030853 0.000000
# 6 0.000000 0.000000 0.000000 0.005912 0.000000 0.021251
#
#
# Mechanical properties :
#
#
# Convention : Reuss Voigt Hill
#
# Bulk Modulus (GPa) = 34.31002 47.70599 41.00800
# Shear Modulus (GPa) = 32.46120 85.21603 58.83862
#
# Velocity S-wave (km/s) = 3.62248 5.86928 4.87703
# Velocity P-wave (km/s) = 5.60056 8.07566 6.94920
#
# Compressibility (1/GPa) = 0.02914601
#
# Stress axis : x y z
#
# Youngs Moduli (GPa) = 71.12478 116.02192 28.43960
#
# Poissons Ratio (x) = 0.17773 0.39999
# Poissons Ratio (y) = 0.10895 -0.03552
# Poissons Ratio (z) = 1.00034 -0.14490
#
# Static dielectric constant tensor:
#      x y z
#    x 2.053000 0.000000 0.020750 
#    y 0.000000 1.986030 0.000000 
#    z 0.020750 0.000000 2.011170 
# 
# From -- ./inp_files/172142.got.cif
#   From: 2010.05.17/outbox.cif.g08.bks.cpg/sg15_87_cif.got.tgz:172142.got - 2010.06.03 18:47:42.
