data_PCOD9267296
_publ_section_title
;
Structure prediction by ZEFSAII (Michael W. Deem and Ramdas Pophale) SiO2 
 PCOD9267296
Probable space group: C 2/C
;
_chemical_formula_sum "Si O2"
_cell_formula_units_Z 40
_cell_length_a 11.598548
_cell_length_b 19.763575
_cell_length_c 11.558840
_cell_angle_alpha 90.000000
_cell_angle_beta 38.273969
_cell_angle_gamma 90.000000
_cell_volume 1641.233244
_symmetry_space_group_name_H-M "C 2/C"
_symmetry_group_IT_number 15
_symmetry_cell_setting 'monoclinic'
loop_
_space_group_symop_operation_xyz
x,y,z
-x,y,1/2-z
-x,-y,-z
x,-y,1/2+z
1/2+x,1/2+y,z
1/2-x,1/2+y,1/2-z
1/2-x,1/2-y,-z
1/2+x,1/2-y,1/2+z
loop_
_atom_site_type_symbol
_atom_site_label
_atom_site_fract_x
_atom_site_fract_y
_atom_site_fract_z
Si Si1 0.500000 0.844665 0.250000
Si Si2 0.000000 0.799012 0.250000
Si Si3 0.902960 0.828472 0.948172
Si Si4 0.745512 0.681166 0.351400
Si Si5 0.414317 0.075585 0.052566
Si Si6 0.502300 0.472807 0.869605
O O1 0.308221 0.803074 0.382308
O O2 0.484634 0.885878 0.383253
O O3 0.863715 0.748773 0.284445
O O4 0.859417 0.838596 0.445916
O O5 0.000000 0.820420 0.750000
O O6 0.063607 0.808357 0.912779
O O7 0.864418 0.909648 0.987519
O O8 0.891157 0.626795 0.181277
O O9 0.200515 0.061125 0.200270
O O10 0.500000 0.000000 0.000000
O O11 0.500000 0.513604 0.750000
O O12 0.500000 0.500000 0.000000
#
# Coordination Sequence:
#
# PCOD9267296 Si02
#       6
#     4   4   8   8   8   8
#     4  12  20  39  72  98 152 201 234 316 390 466
#     4  10  24  49  82 102 150 207 258 342 378 460
#     4  10  20  42  66  98 141 190 244 312 382 461
#     4  10  23  48  74 108 150 195 265 324 394 462
#     4  11  24  40  68 107 147 200 255 314 390 477
#     4  10  19  39  58  89 142 187 246 312 368 461
#
# _framework density 24.371915999999999
#
# number of rings (size 3 to 8) (size 9 to 14) (size 15 to 20)
#    0.000    1.600    6.000    1.200    0.000    4.000 
#   10.800    1.000    2.200    0.000    0.000    0.000 
#    0.000    0.000    0.000    0.000    0.000    0.000 
#
# Total GULP energy -111338.957135 kJ/mol
# GULP energy per Si atom -5566.947857 kJ/mol
# Density = 2.431644 g / cm^3
# Si number density = 24.371916 Si / 1000 Ang^3
#
#
#
# Elastic Constant Matrix: (Units=GPa)
#
#
# Indices 1 2 3 4 5 6 
#
# 1 128.1681 42.5793 52.5533 0.0000 12.4764 -0.0001
# 2 42.5793 97.8970 68.8126 0.0000 29.7142 0.0000
# 3 52.5533 68.8126 208.0104 0.0000 30.9369 -0.0002
# 4 0.0000 0.0000 0.0000 42.2619 0.0001 17.0633
# 5 12.4764 29.7142 30.9369 0.0001 68.9392 0.0001
# 6 -0.0001 0.0000 -0.0002 17.0633 0.0001 0.5434
#
#
#
# Elastic Compliance Matrix: (Units=1/GPa)
#
#
# Indices 1 2 3 4 5 6 
#
# 1 0.009400 -0.003229 -0.001351 0.000000 0.000297 0.000000
# 2 -0.003229 0.015553 -0.003664 0.000000 -0.004475 0.000000
# 3 -0.001351 -0.003664 0.006525 0.000000 -0.001105 0.000000
# 4 0.000000 0.000000 0.000000 -0.002026 0.000000 0.063624
# 5 0.000297 -0.004475 -0.001105 0.000000 0.016876 0.000000
# 6 0.000000 0.000000 0.000000 0.063624 0.000000 -0.157582
#
#
# Mechanical properties :
#
#
# Convention : Reuss Voigt Hill
#
# Bulk Modulus (GPa) = 66.70792 84.66289 75.68541
# Shear Modulus (GPa) = -55.69774 40.35757 -7.67008
#
# Velocity S-wave (km/s) = -4.78569 4.07370 -1.77593
# Velocity P-wave (km/s) = 1.76264 7.54586 5.18811
#
# Compressibility (1/GPa) = 0.01499072
#
# Stress axis : x y z
#
# Youngs Moduli (GPa) = 106.38340 64.29718 153.25638
#
# Poissons Ratio (x) = 0.20762 0.20702
# Poissons Ratio (y) = 0.34351 0.56149
# Poissons Ratio (z) = 0.14371 0.23557
#
# Static dielectric constant tensor:
#      x y z
#    x 1.573410 0.000000 0.073130 
#    y 0.000000 1.868310 0.000000 
#    z 0.073130 0.000000 2.041450 
# 
# From -- ./inp_files/89367.got.cif
#   From: 2010.05.17/outbox.cif.g08.bks.cpg/sg15_45_cif.got.tgz:89367.got - 2010.06.03 18:47:42.
