data_PCOD9267551
_publ_section_title
;
Structure prediction by ZEFSAII (Michael W. Deem and Ramdas Pophale) SiO2 
 PCOD9267551
Probable space group: C 2/C
;
_chemical_formula_sum "Si O2"
_cell_formula_units_Z 48
_cell_length_a 13.775756
_cell_length_b 14.146643
_cell_length_c 12.757459
_cell_angle_alpha 90.000000
_cell_angle_beta 59.160870
_cell_angle_gamma 90.000000
_cell_volume 2134.661211
_symmetry_space_group_name_H-M "C 2/C"
_symmetry_group_IT_number 15
_symmetry_cell_setting 'monoclinic'
loop_
_space_group_symop_operation_xyz
x,y,z
-x,y,1/2-z
-x,-y,-z
x,-y,1/2+z
1/2+x,1/2+y,z
1/2-x,1/2+y,1/2-z
1/2-x,1/2-y,-z
1/2+x,1/2-y,1/2+z
loop_
_atom_site_type_symbol
_atom_site_label
_atom_site_fract_x
_atom_site_fract_y
_atom_site_fract_z
Si Si1 0.643601 0.578342 0.307450
Si Si2 0.000000 0.353329 0.250000
Si Si3 0.067441 0.219339 0.591607
Si Si4 0.063964 0.212327 0.027626
Si Si5 0.225431 0.260449 0.685296
Si Si6 0.245535 0.600799 0.665367
Si Si7 0.000000 0.039355 0.750000
O O1 0.526800 0.628069 0.405762
O O2 0.739564 0.658584 0.250964
O O3 0.690943 0.497960 0.357749
O O4 0.605907 0.524859 0.223208
O O5 0.963195 0.286173 0.366807
O O6 0.886811 0.409693 0.283900
O O7 0.113336 0.263195 0.675726
O O8 0.174614 0.226967 0.455365
O O9 0.035337 0.111455 0.638579
O O10 0.966824 0.254280 0.570790
O O11 0.187138 0.166148 0.954515
O O12 0.240475 0.159985 0.733984
#
# Coordination Sequence:
#
# PCOD9267551 Si02
#       7
#     8   4   8   8   8   8   4
#     4  11  23  39  68 107 134 171 234 286 330 408
#     4  12  25  46  63  98 144 190 217 290 359 422
#     4  10  19  39  65  99 136 172 220 288 336 398
#     4  11  23  43  72 100 133 180 245 284 341 400
#     4  10  22  39  64 102 139 175 220 281 348 406
#     4  12  23  43  68 101 140 182 225 296 347 404
#     4  12  21  36  71 106 132 172 237 290 331 386
#
# _framework density 22.486004000000001
#
# number of rings (size 3 to 8) (size 9 to 14) (size 15 to 20)
#    0.000    1.000    6.667    1.500    2.333    0.000 
#    0.000    2.500    0.000    2.000    0.000    0.000 
#    0.000    0.000    0.000    0.000    0.000    0.000 
#
# Total GULP energy -133949.086804 kJ/mol
# GULP energy per Si atom -5581.211950 kJ/mol
# Density = 2.243482 g / cm^3
# Si number density = 22.486004 Si / 1000 Ang^3
#
#
#
# Elastic Constant Matrix: (Units=GPa)
#
#
# Indices 1 2 3 4 5 6 
#
# 1 138.0456 16.5355 12.7421 0.0000 -19.9394 0.0000
# 2 16.5355 66.6326 9.1987 0.0000 -1.5003 0.0000
# 3 12.7421 9.1987 52.0075 0.0000 7.6135 0.0000
# 4 0.0000 0.0000 0.0000 19.9793 0.0000 2.8812
# 5 -19.9394 -1.5003 7.6135 0.0000 46.4787 0.0000
# 6 0.0000 0.0000 0.0000 2.8812 0.0000 35.3265
#
#
#
# Elastic Compliance Matrix: (Units=1/GPa)
#
#
# Indices 1 2 3 4 5 6 
#
# 1 0.008205 -0.001634 -0.002284 0.000000 0.003841 0.000000
# 2 -0.001634 0.015751 -0.002415 0.000000 0.000203 0.000000
# 3 -0.002284 -0.002415 0.020870 0.000000 -0.004476 0.000000
# 4 0.000000 0.000000 0.000000 0.050648 0.000000 -0.004131
# 5 0.003841 0.000203 -0.004476 0.000000 0.023903 0.000000
# 6 0.000000 0.000000 0.000000 -0.004131 0.000000 0.028644
#
#
# Mechanical properties :
#
#
# Convention : Reuss Voigt Hill
#
# Bulk Modulus (GPa) = 31.09453 37.07092 34.08272
# Shear Modulus (GPa) = 29.17014 34.90418 32.03716
#
# Velocity S-wave (km/s) = 3.60565 3.94415 3.77869
# Velocity P-wave (km/s) = 5.58505 6.10441 5.85049
#
# Compressibility (1/GPa) = 0.03216000
#
# Stress axis : x y z
#
# Youngs Moduli (GPa) = 121.87069 63.48698 47.91573
#
# Poissons Ratio (x) = 0.10377 0.10942
# Poissons Ratio (y) = 0.19920 0.11573
# Poissons Ratio (z) = 0.27831 0.15333
#
# Static dielectric constant tensor:
#      x y z
#    x 1.914980 0.000000 0.016990 
#    y 0.000000 1.821020 0.000000 
#    z 0.016990 0.000000 1.915240 
# 
# From -- ./inp_files/153317.got.cif
#   From: 2010.05.17/outbox.cif.g08.bks.cpg/sg15_77_cif.got.tgz:153317.got - 2010.06.03 18:47:42.
