data_PCOD9267254
_publ_section_title
;
Structure prediction by ZEFSAII (Michael W. Deem and Ramdas Pophale) SiO2 
 PCOD9267254
Probable space group: C 2/C
;
_chemical_formula_sum "Si O2"
_cell_formula_units_Z 40
_cell_length_a 7.814463
_cell_length_b 17.820423
_cell_length_c 14.384389
_cell_angle_alpha 90.000000
_cell_angle_beta 61.887474
_cell_angle_gamma 90.000000
_cell_volume 1766.806168
_symmetry_space_group_name_H-M "C 2/C"
_symmetry_group_IT_number 15
_symmetry_cell_setting 'monoclinic'
loop_
_space_group_symop_operation_xyz
x,y,z
-x,y,1/2-z
-x,-y,-z
x,-y,1/2+z
1/2+x,1/2+y,z
1/2-x,1/2+y,1/2-z
1/2-x,1/2-y,-z
1/2+x,1/2-y,1/2+z
loop_
_atom_site_type_symbol
_atom_site_label
_atom_site_fract_x
_atom_site_fract_y
_atom_site_fract_z
Si Si1 0.874827 0.844088 0.517597
Si Si2 0.214213 0.206609 0.811919
Si Si3 0.810343 0.871727 0.735367
Si Si4 0.977851 0.578420 0.055657
Si Si5 0.001593 0.694419 0.590645
O O1 0.884215 0.888404 0.613084
O O2 0.676809 0.878119 0.528477
O O3 0.906875 0.759590 0.551426
O O4 0.030857 0.839603 0.394897
O O5 0.197097 0.290793 0.773540
O O6 0.331497 0.163523 0.701209
O O7 0.343816 0.220393 0.871490
O O8 0.656501 0.927694 0.819837
O O9 0.000000 0.867876 0.750000
O O10 0.890719 0.635016 0.001191
O O11 0.000000 0.500000 0.000000
#
# Coordination Sequence:
#
# PCOD9267254 Si02
#       5
#     8   8   8   8   8
#     4  11  21  40  70  98 127 177 226 284 338 397
#     4  10  19  38  72 103 124 164 228 292 343 393
#     4  11  21  42  71  96 130 173 224 289 351 408
#     4  12  27  44  58  94 143 183 230 281 343 422
#     4  10  20  39  67 100 131 167 223 289 337 402
#
# _framework density 22.639721000000002
#
# number of rings (size 3 to 8) (size 9 to 14) (size 15 to 20)
#    0.000    1.200    6.000    3.000    0.000    0.800 
#   10.800    2.000    0.000    0.000    0.000    0.000 
#    0.000    0.000    0.000    0.000    0.000    0.000 
#
# Total GULP energy -111458.365071 kJ/mol
# GULP energy per Si atom -5572.918254 kJ/mol
# Density = 2.258819 g / cm^3
# Si number density = 22.639721 Si / 1000 Ang^3
#
#
#
# Elastic Constant Matrix: (Units=GPa)
#
#
# Indices 1 2 3 4 5 6 
#
# 1 78.9855 10.5608 18.9019 0.0000 -16.1750 0.0000
# 2 10.5608 36.4500 2.5281 0.0000 -4.9324 0.0000
# 3 18.9019 2.5281 117.7318 0.0000 -34.4005 0.0000
# 4 0.0000 0.0000 0.0000 25.2736 0.0000 3.1705
# 5 -16.1750 -4.9324 -34.4005 0.0000 45.3236 0.0000
# 6 0.0000 0.0000 0.0000 3.1705 0.0000 3.0971
#
#
#
# Elastic Compliance Matrix: (Units=1/GPa)
#
#
# Indices 1 2 3 4 5 6 
#
# 1 0.014178 -0.003511 -0.001072 0.000000 0.003864 0.000000
# 2 -0.003511 0.028727 0.000635 0.000000 0.002355 0.000000
# 3 -0.001072 0.000635 0.011000 0.000000 0.008036 0.000000
# 4 0.000000 0.000000 0.000000 0.045397 0.000000 -0.046472
# 5 0.003864 0.002355 0.008036 0.000000 0.029798 0.000000
# 6 0.000000 0.000000 0.000000 -0.046472 0.000000 0.370454
#
#
# Mechanical properties :
#
#
# Convention : Reuss Voigt Hill
#
# Bulk Modulus (GPa) = 21.73438 33.01655 27.37546
# Shear Modulus (GPa) = 9.56416 28.15064 18.85740
#
# Velocity S-wave (km/s) = 2.05759 3.53004 2.88919
# Velocity P-wave (km/s) = 3.90715 5.58838 4.82161
#
# Compressibility (1/GPa) = 0.04601006
#
# Stress axis : x y z
#
# Youngs Moduli (GPa) = 70.53311 34.81095 90.90627
#
# Poissons Ratio (x) = 0.12220 0.09743
# Poissons Ratio (y) = 0.24761 -0.05772
# Poissons Ratio (z) = 0.07559 -0.02210
#
# Static dielectric constant tensor:
#      x y z
#    x 1.926220 0.000000 -0.007460 
#    y 0.000000 1.829840 0.000000 
#    z -0.007460 0.000000 1.934710 
# 
# From -- ./inp_files/135349.got.cif
#   From: 2010.05.17/outbox.cif.g08.bks.cpg/sg15_68_cif.got.tgz:135349.got - 2010.06.03 18:47:42.
