data_PCOD9267370
_publ_section_title
;
Structure prediction by ZEFSAII (Michael W. Deem and Ramdas Pophale) SiO2 
 PCOD9267370
Probable space group: C 2/C
;
_chemical_formula_sum "Si O2"
_cell_formula_units_Z 44
_cell_length_a 12.867339
_cell_length_b 7.592225
_cell_length_c 18.997199
_cell_angle_alpha 90.000000
_cell_angle_beta 104.856248
_cell_angle_gamma 90.000000
_cell_volume 1793.831566
_symmetry_space_group_name_H-M "C 2/C"
_symmetry_group_IT_number 15
_symmetry_cell_setting 'monoclinic'
loop_
_space_group_symop_operation_xyz
x,y,z
-x,y,1/2-z
-x,-y,-z
x,-y,1/2+z
1/2+x,1/2+y,z
1/2-x,1/2+y,1/2-z
1/2-x,1/2-y,-z
1/2+x,1/2-y,1/2+z
loop_
_atom_site_type_symbol
_atom_site_label
_atom_site_fract_x
_atom_site_fract_y
_atom_site_fract_z
Si Si1 0.397811 0.712480 0.779761
Si Si2 0.345079 0.169605 0.459568
Si Si3 0.000000 0.687696 0.750000
Si Si4 0.707753 0.578744 0.322322
Si Si5 0.916146 0.985098 0.921140
Si Si6 0.515013 0.897398 0.096617
O O1 0.500000 0.762953 0.750000
O O2 0.321176 0.608867 0.712513
O O3 0.311798 0.844093 0.800157
O O4 0.438298 0.575819 0.848626
O O5 0.240511 0.074688 0.410231
O O6 0.329387 0.374451 0.435796
O O7 0.396633 0.144329 0.544932
O O8 0.441549 0.074440 0.431961
O O9 0.105297 0.803243 0.785323
O O10 0.014557 0.586146 0.679771
O O11 0.911158 0.775069 0.908186
O O12 0.000000 0.000000 0.000000
#
# Coordination Sequence:
#
# PCOD9267370 Si02
#       6
#     8   8   4   8   8   8
#     4  11  22  42  64  94 129 171 219 273 335 391
#     4   9  21  37  62  90 125 173 218 263 335 394
#     4  12  22  38  66  96 132 168 222 274 332 394
#     4  11  22  39  63  97 126 172 219 272 331 398
#     4   9  18  36  62  89 124 164 208 266 326 390
#     4  10  19  39  61  90 130 168 214 279 323 391
#
# _framework density 24.528500000000001
#
# number of rings (size 3 to 8) (size 9 to 14) (size 15 to 20)
#    0.000    1.818    2.727    1.091    0.000    0.727 
#   14.727    1.818    0.000    1.091    0.000    0.000 
#    0.000    0.000    0.000    0.000    0.000    0.000 
#
# Total GULP energy -122622.556264 kJ/mol
# GULP energy per Si atom -5573.752557 kJ/mol
# Density = 2.447267 g / cm^3
# Si number density = 24.528500 Si / 1000 Ang^3
#
#
#
# Elastic Constant Matrix: (Units=GPa)
#
#
# Indices 1 2 3 4 5 6 
#
# 1 132.8245 39.6919 41.6887 0.0000 8.0115 0.0000
# 2 39.6919 92.7287 15.2990 0.0000 0.2146 0.0000
# 3 41.6887 15.2990 148.4359 0.0000 43.1609 0.0000
# 4 0.0000 0.0000 0.0000 46.7225 0.0000 7.8615
# 5 8.0115 0.2146 43.1609 0.0000 30.1145 0.0000
# 6 0.0000 0.0000 0.0000 7.8615 0.0000 -24.0222
#
#
#
# Elastic Compliance Matrix: (Units=1/GPa)
#
#
# Indices 1 2 3 4 5 6 
#
# 1 0.009344 -0.003567 -0.002642 0.000000 0.001327 0.000000
# 2 -0.003567 0.012456 -0.000913 0.000000 0.002168 0.000000
# 3 -0.002642 -0.000913 0.012630 0.000000 -0.017393 0.000000
# 4 0.000000 0.000000 0.000000 0.020286 0.000000 0.006639
# 5 0.001327 0.002168 -0.017393 0.000000 0.057766 0.000000
# 6 0.000000 0.000000 0.000000 0.006639 0.000000 -0.039456
#
#
# Mechanical properties :
#
#
# Convention : Reuss Voigt Hill
#
# Bulk Modulus (GPa) = 49.53588 63.03867 56.28728
# Shear Modulus (GPa) = 53.19163 29.05025 41.12094
#
# Velocity S-wave (km/s) = 4.66184 3.44517 4.09890
# Velocity P-wave (km/s) = 7.01541 6.44838 6.73786
#
# Compressibility (1/GPa) = 0.02018739
#
# Stress axis : x y z
#
# Youngs Moduli (GPa) = 107.02160 80.28015 79.17371
#
# Poissons Ratio (x) = 0.28633 0.20921
# Poissons Ratio (y) = 0.38171 0.07225
# Poissons Ratio (z) = 0.28280 0.07326
#
# Static dielectric constant tensor:
#      x y z
#    x 2.013490 0.000000 -0.015500 
#    y 0.000000 2.046650 0.000000 
#    z -0.015500 0.000000 2.055670 
# 
# From -- ./inp_files/236171.got.cif
#   From: 2010.05.17/outbox.cif.g08.bks.cpg/sg15_119_cif.got.tgz:236171.got - 2010.06.03 18:47:42.
