data_PCOD9267351
_publ_section_title
;
Structure prediction by ZEFSAII (Michael W. Deem and Ramdas Pophale) SiO2 
 PCOD9267351
Probable space group: C 2/C
;
_chemical_formula_sum "Si O2"
_cell_formula_units_Z 48
_cell_length_a 22.660970
_cell_length_b 8.625104
_cell_length_c 22.718951
_cell_angle_alpha 90.000000
_cell_angle_beta 147.134441
_cell_angle_gamma 90.000000
_cell_volume 2409.720341
_symmetry_space_group_name_H-M "C 2/C"
_symmetry_group_IT_number 15
_symmetry_cell_setting 'monoclinic'
loop_
_space_group_symop_operation_xyz
x,y,z
-x,y,1/2-z
-x,-y,-z
x,-y,1/2+z
1/2+x,1/2+y,z
1/2-x,1/2+y,1/2-z
1/2-x,1/2-y,-z
1/2+x,1/2-y,1/2+z
loop_
_atom_site_type_symbol
_atom_site_label
_atom_site_fract_x
_atom_site_fract_y
_atom_site_fract_z
Si Si1 0.468734 0.126593 0.861766
Si Si2 0.126237 0.659251 0.837938
Si Si3 0.348541 0.884298 0.833344
Si Si4 0.210309 0.552708 0.024187
Si Si5 0.779937 0.656732 0.856920
Si Si6 0.981802 0.177436 0.473238
O O1 0.388042 0.100849 0.740102
O O2 0.443048 0.284558 0.874719
O O3 0.442440 0.992734 0.885677
O O4 0.594049 0.119152 0.948724
O O5 0.196182 0.816925 0.895103
O O6 0.000000 0.690239 0.750000
O O7 0.182832 0.539674 0.931053
O O8 0.298449 0.784653 0.738182
O O9 0.277283 0.005962 0.811236
O O10 0.403461 0.763137 0.923050
O O11 0.235446 0.409865 0.089656
O O12 0.895816 0.743404 0.945371
O O13 0.000000 0.000000 0.500000
#
# Coordination Sequence:
#
# PCOD9267351 Si02
#       6
#     8   8   8   8   8   8
#     4  10  20  39  61  86 123 158 199 256 307 373
#     4   9  21  36  63  91 113 162 212 251 303 367
#     4  11  22  36  56  91 124 160 199 246 317 369
#     4  10  19  39  61  85 119 155 209 255 304 357
#     4  11  22  37  60  89 126 165 202 256 308 381
#     4  11  22  36  56  92 127 160 199 250 315 377
#
# _framework density 19.919324
#
# number of rings (size 3 to 8) (size 9 to 14) (size 15 to 20)
#    0.000    1.667    3.333    2.000    7.000    1.333 
#    0.000    0.833    0.000    3.000    0.000    0.000 
#    0.000    0.000    0.000    0.000    0.000    0.000 
#
# Total GULP energy -133659.590305 kJ/mol
# GULP energy per Si atom -5569.149596 kJ/mol
# Density = 1.987399 g / cm^3
# Si number density = 19.919324 Si / 1000 Ang^3
#
#
#
# Elastic Constant Matrix: (Units=GPa)
#
#
# Indices 1 2 3 4 5 6 
#
# 1 48.9052 30.8802 25.0862 0.0000 -28.4144 0.0000
# 2 30.8802 114.0467 37.6936 0.0000 -15.0299 0.0000
# 3 25.0862 37.6936 88.3400 0.0000 -21.8338 0.0000
# 4 0.0000 0.0000 0.0000 41.5764 0.0000 -4.1505
# 5 -28.4144 -15.0299 -21.8338 0.0000 38.9454 0.0000
# 6 0.0000 0.0000 0.0000 -4.1505 0.0000 24.9705
#
#
#
# Elastic Compliance Matrix: (Units=1/GPa)
#
#
# Indices 1 2 3 4 5 6 
#
# 1 0.041149 -0.006955 -0.002276 0.000000 0.026062 0.000000
# 2 -0.006955 0.011486 -0.003581 0.000000 -0.002649 0.000000
# 3 -0.002276 -0.003581 0.014792 0.000000 0.005250 0.000000
# 4 0.000000 0.000000 0.000000 0.024458 0.000000 0.004065
# 5 0.026062 -0.002649 0.005250 0.000000 0.046613 0.000000
# 6 0.000000 0.000000 0.000000 0.004065 0.000000 0.040723
#
#
# Mechanical properties :
#
#
# Convention : Reuss Voigt Hill
#
# Bulk Modulus (GPa) = 23.92163 48.73466 36.32814
# Shear Modulus (GPa) = 22.85418 31.60724 27.23071
#
# Velocity S-wave (km/s) = 3.39091 3.98774 3.70137
# Velocity P-wave (km/s) = 5.23129 6.76180 6.04517
#
# Compressibility (1/GPa) = 0.04180317
#
# Stress axis : x y z
#
# Youngs Moduli (GPa) = 24.30179 87.06387 67.60564
#
# Poissons Ratio (x) = 0.60552 0.15389
# Poissons Ratio (y) = 0.16902 0.24207
# Poissons Ratio (z) = 0.05532 0.31174
#
# Static dielectric constant tensor:
#      x y z
#    x 1.776470 0.000000 -0.044960 
#    y 0.000000 1.673870 0.000000 
#    z -0.044960 0.000000 1.786140 
# 
# From -- ./inp_files/281614.got.cif
#   From: 2010.05.17/outbox.cif.g08.bks.cpg/sg15_141_cif.got.tgz:281614.got - 2010.06.03 18:47:42.
