data_PCOD9267138
_publ_section_title
;
Structure prediction by ZEFSAII (Michael W. Deem and Ramdas Pophale) SiO2 
 PCOD9267138
Probable space group: C 2/C
;
_chemical_formula_sum "Si O2"
_cell_formula_units_Z 44
_cell_length_a 9.720842
_cell_length_b 9.368887
_cell_length_c 20.357835
_cell_angle_alpha 90.000000
_cell_angle_beta 106.159144
_cell_angle_gamma 90.000000
_cell_volume 1780.809238
_symmetry_space_group_name_H-M "C 2/C"
_symmetry_group_IT_number 15
_symmetry_cell_setting 'monoclinic'
loop_
_space_group_symop_operation_xyz
x,y,z
-x,y,1/2-z
-x,-y,-z
x,-y,1/2+z
1/2+x,1/2+y,z
1/2-x,1/2+y,1/2-z
1/2-x,1/2-y,-z
1/2+x,1/2-y,1/2+z
loop_
_atom_site_type_symbol
_atom_site_label
_atom_site_fract_x
_atom_site_fract_y
_atom_site_fract_z
Si Si1 0.000000 0.320695 0.250000
Si Si2 0.946227 0.425228 0.656339
Si Si3 0.835497 0.471888 0.011658
Si Si4 0.732187 0.628937 0.305761
Si Si5 0.155236 0.131578 0.882478
Si Si6 0.118726 0.197876 0.562382
O O1 0.924354 0.425927 0.189000
O O2 0.125206 0.213877 0.244508
O O3 0.108356 0.390526 0.700516
O O4 0.942236 0.459071 0.578253
O O5 0.842237 0.290238 0.647764
O O6 0.694561 0.431702 0.035212
O O7 0.780682 0.580052 0.948315
O O8 0.900220 0.321581 0.995215
O O9 0.661811 0.483969 0.324570
O O10 0.768160 0.722443 0.375065
O O11 0.011726 0.143318 0.909177
#
# Coordination Sequence:
#
# PCOD9267138 Si02
#       6
#     4   8   8   8   8   8
#     4  12  26  48  66  84 128 182 218 276 322 368
#     4  11  25  43  68  96 127 170 222 265 323 386
#     4  10  19  38  66 101 138 167 203 265 329 392
#     4  10  24  44  63  93 127 170 219 268 318 385
#     4  10  22  39  65 103 133 164 211 268 326 392
#     4   9  19  38  66 100 135 169 208 251 329 397
#
# _framework density 24.707868000000001
#
# number of rings (size 3 to 8) (size 9 to 14) (size 15 to 20)
#    0.000    1.818    1.818    1.091    0.000   13.091 
#    3.273    0.000    0.000    0.000    0.000    0.000 
#    0.000    0.000    0.000    0.000    0.000    0.000 
#
# Total GULP energy -122748.706086 kJ/mol
# GULP energy per Si atom -5579.486640 kJ/mol
# Density = 2.465163 g / cm^3
# Si number density = 24.707868 Si / 1000 Ang^3
#
#
#
# Elastic Constant Matrix: (Units=GPa)
#
#
# Indices 1 2 3 4 5 6 
#
# 1 77.7610 40.9347 2.9409 0.0000 4.7941 0.0000
# 2 40.9347 117.6810 35.0293 0.0000 24.3844 0.0000
# 3 2.9409 35.0293 45.9817 0.0000 6.9048 0.0000
# 4 0.0000 0.0000 0.0000 21.3307 0.0000 22.2840
# 5 4.7941 24.3844 6.9048 0.0000 25.0602 0.0000
# 6 0.0000 0.0000 0.0000 22.2840 0.0000 22.4176
#
#
#
# Elastic Compliance Matrix: (Units=1/GPa)
#
#
# Indices 1 2 3 4 5 6 
#
# 1 0.016555 -0.007697 0.004335 0.000000 0.003128 0.000000
# 2 -0.007697 0.016776 -0.010492 0.000000 -0.011961 0.000000
# 3 0.004335 -0.010492 0.029266 0.000000 0.001316 0.000000
# 4 0.000000 0.000000 0.000000 -1.218779 0.000000 1.211516
# 5 0.003128 -0.011961 0.001316 0.000000 0.050581 0.000000
# 6 0.000000 0.000000 0.000000 1.211516 0.000000 -1.159688
#
#
# Mechanical properties :
#
#
# Convention : Reuss Voigt Hill
#
# Bulk Modulus (GPa) = 28.66213 44.35926 36.51070
# Shear Modulus (GPa) = -2.24623 24.59629 11.17503
#
# Velocity S-wave (km/s) = -0.95451 3.15855 2.12901
# Velocity P-wave (km/s) = 3.22658 5.59414 4.56647
#
# Compressibility (1/GPa) = 0.03488924
#
# Stress axis : x y z
#
# Youngs Moduli (GPa) = 60.40456 59.60757 34.16953
#
# Poissons Ratio (x) = 0.45881 -0.14813
# Poissons Ratio (y) = 0.46494 0.35851
# Poissons Ratio (z) = -0.26187 0.62541
#
# Static dielectric constant tensor:
#      x y z
#    x 2.175740 0.000000 -0.099280 
#    y 0.000000 1.965450 0.000000 
#    z -0.099280 0.000000 2.012130 
# 
# From -- ./inp_files/268141.got.cif
#   From: 2010.05.17/outbox.cif.g08.bks.cpg/sg15_135_cif.got.tgz:268141.got - 2010.06.03 18:47:42.
