data_PCOD9267295
_publ_section_title
;
Structure prediction by ZEFSAII (Michael W. Deem and Ramdas Pophale) SiO2 
 PCOD9267295
Probable space group: C 2/C
;
_chemical_formula_sum "Si O2"
_cell_formula_units_Z 56
_cell_length_a 20.936599
_cell_length_b 9.193289
_cell_length_c 19.993812
_cell_angle_alpha 90.000000
_cell_angle_beta 129.280362
_cell_angle_gamma 90.000000
_cell_volume 2978.830124
_symmetry_space_group_name_H-M "C 2/C"
_symmetry_group_IT_number 15
_symmetry_cell_setting 'monoclinic'
loop_
_space_group_symop_operation_xyz
x,y,z
-x,y,1/2-z
-x,-y,-z
x,-y,1/2+z
1/2+x,1/2+y,z
1/2-x,1/2+y,1/2-z
1/2-x,1/2-y,-z
1/2+x,1/2-y,1/2+z
loop_
_atom_site_type_symbol
_atom_site_label
_atom_site_fract_x
_atom_site_fract_y
_atom_site_fract_z
Si Si1 0.519811 0.036391 0.841227
Si Si2 0.016195 0.219801 0.436018
Si Si3 0.622859 0.512340 0.659876
Si Si4 0.240041 0.398396 0.652473
Si Si5 0.569292 0.156832 0.106462
Si Si6 0.215179 0.417722 0.486236
Si Si7 0.304433 0.410833 0.422195
O O1 0.500000 0.015611 0.750000
O O2 0.490147 0.188224 0.854268
O O3 0.618491 0.053737 0.913416
O O4 0.479033 0.919408 0.864988
O O5 0.014483 0.316749 0.502802
O O6 0.110946 0.165829 0.496513
O O7 0.959089 0.080933 0.400900
O O8 0.682536 0.461122 0.757719
O O9 0.598645 0.681640 0.647592
O O10 0.672011 0.488451 0.623422
O O11 0.154015 0.419700 0.636266
O O12 0.235449 0.462686 0.574866
O O13 0.246968 0.223826 0.643778
O O14 0.250000 0.250000 0.500000
O O15 0.260954 0.490443 0.454201
#
# Coordination Sequence:
#
# PCOD9267295 Si02
#       7
#     8   8   8   8   8   8   8
#     4  12  25  37  64  90 118 163 204 248 298 358
#     4  10  20  39  66  90 114 162 207 245 293 365
#     4  10  21  37  67  92 116 160 204 248 300 359
#     4   9  19  35  60  87 118 157 196 242 299 350
#     4  10  22  43  56  89 132 152 198 253 306 355
#     4  10  19  39  58  89 124 151 201 256 298 342
#     4   9  19  37  58  88 125 149 194 263 290 345
#
# _framework density 18.799326000000001
#
# number of rings (size 3 to 8) (size 9 to 14) (size 15 to 20)
#    0.000    2.286    4.286    2.143    6.000    1.143 
#    0.000    3.571    0.000    4.286    0.000    0.000 
#    0.000    0.000    0.000    0.000    0.000    0.000 
#
# Total GULP energy -155955.382087 kJ/mol
# GULP energy per Si atom -5569.835075 kJ/mol
# Density = 1.875654 g / cm^3
# Si number density = 18.799326 Si / 1000 Ang^3
#
#
#
# Elastic Constant Matrix: (Units=GPa)
#
#
# Indices 1 2 3 4 5 6 
#
# 1 120.0338 37.3493 66.8850 0.0000 -28.1644 0.0000
# 2 37.3493 31.4960 32.6449 0.0000 -5.0784 0.0000
# 3 66.8850 32.6449 109.2637 0.0000 -13.9689 0.0000
# 4 0.0000 0.0000 0.0000 18.7023 0.0000 0.6345
# 5 -28.1644 -5.0784 -13.9689 0.0000 25.1046 0.0000
# 6 0.0000 0.0000 0.0000 0.6345 0.0000 17.2807
#
#
#
# Elastic Compliance Matrix: (Units=1/GPa)
#
#
# Indices 1 2 3 4 5 6 
#
# 1 0.020043 -0.015332 -0.005609 0.000000 0.016264 0.000000
# 2 -0.015332 0.057795 -0.009244 0.000000 -0.010653 0.000000
# 3 -0.005609 -0.009244 0.015400 0.000000 0.000406 0.000000
# 4 0.000000 0.000000 0.000000 0.053536 0.000000 -0.001966
# 5 0.016264 -0.010653 0.000406 0.000000 0.056150 0.000000
# 6 0.000000 0.000000 0.000000 -0.001966 0.000000 0.057940
#
#
# Mechanical properties :
#
#
# Convention : Reuss Voigt Hill
#
# Bulk Modulus (GPa) = 30.42553 59.39464 44.91009
# Shear Modulus (GPa) = 15.05161 20.47849 17.76505
#
# Velocity S-wave (km/s) = 2.83264 3.30407 3.07739
# Velocity P-wave (km/s) = 5.18825 6.79841 6.04716
#
# Compressibility (1/GPa) = 0.03286714
#
# Stress axis : x y z
#
# Youngs Moduli (GPa) = 49.89198 17.30253 64.93639
#
# Poissons Ratio (x) = 0.26528 0.36426
# Poissons Ratio (y) = 0.76494 0.60028
# Poissons Ratio (z) = 0.27986 0.15995
#
# Static dielectric constant tensor:
#      x y z
#    x 1.718990 0.000000 -0.013230 
#    y 0.000000 1.670220 0.000000 
#    z -0.013230 0.000000 1.660260 
# 
# From -- ./inp_files/251963.got.cif
#   From: 2010.05.17/outbox.cif.g08.bks.cpg/sg15_126_cif.got.tgz:251963.got - 2010.06.03 18:47:42.
