data_PCOD9267675
_publ_section_title
;
Structure prediction by ZEFSAII (Michael W. Deem and Ramdas Pophale) SiO2 
 PCOD9267675
Probable space group: C 2/C
;
_chemical_formula_sum "Si O2"
_cell_formula_units_Z 56
_cell_length_a 13.955052
_cell_length_b 15.978352
_cell_length_c 16.625652
_cell_angle_alpha 90.000000
_cell_angle_beta 144.028623
_cell_angle_gamma 90.000000
_cell_volume 2177.519434
_symmetry_space_group_name_H-M "C 2/C"
_symmetry_group_IT_number 15
_symmetry_cell_setting 'monoclinic'
loop_
_space_group_symop_operation_xyz
x,y,z
-x,y,1/2-z
-x,-y,-z
x,-y,1/2+z
1/2+x,1/2+y,z
1/2-x,1/2+y,1/2-z
1/2-x,1/2-y,-z
1/2+x,1/2-y,1/2+z
loop_
_atom_site_type_symbol
_atom_site_label
_atom_site_fract_x
_atom_site_fract_y
_atom_site_fract_z
Si Si1 0.516064 0.749243 0.595672
Si Si2 0.568862 0.982991 0.179501
Si Si3 0.000000 0.216866 0.250000
Si Si4 0.331934 0.090193 0.918884
Si Si5 0.737299 0.862933 0.847197
Si Si6 0.774506 0.660466 0.659205
Si Si7 0.500000 0.558366 0.750000
Si Si8 0.492293 0.582368 0.382010
O O1 0.445298 0.827536 0.494881
O O2 0.597727 0.796340 0.726663
O O3 0.366657 0.681980 0.494897
O O4 0.669284 0.704122 0.657452
O O5 0.673417 0.959911 0.168900
O O6 0.561356 0.889395 0.206614
O O7 0.641387 0.049832 0.291796
O O8 0.408933 0.024256 0.033927
O O9 0.834631 0.269289 0.140764
O O10 0.005012 0.159754 0.176020
O O11 0.157935 0.112428 0.837374
O O12 0.847614 0.893013 0.845308
O O13 0.654783 0.589803 0.544775
O O14 0.496441 0.497987 0.668587
#
# Coordination Sequence:
#
# PCOD9267675 Si02
#       8
#     8   8   4   8   8   8   4   8
#     4  10  21  37  62  87 122 161 215 255 303 375
#     4  10  22  39  63  93 124 166 210 264 313 381
#     4  11  22  36  58  91 136 168 196 247 328 390
#     4  10  22  39  66  88 127 167 214 256 319 379
#     4  10  19  40  59  94 119 162 210 262 310 371
#     4  11  23  37  61  94 127 166 207 257 320 382
#     4  11  22  42  60  91 130 166 210 261 312 388
#     4  10  22  36  57  91 129 163 199 259 312 395
#
# _framework density 25.717337000000001
#
# number of rings (size 3 to 8) (size 9 to 14) (size 15 to 20)
#    0.000    1.714    2.857    1.286    4.000    2.286 
#    2.571    0.000    0.000    8.571    0.000    0.000 
#    0.000    0.000    0.000    0.000    0.000    0.000 
#
# Total GULP energy -156312.326413 kJ/mol
# GULP energy per Si atom -5582.583086 kJ/mol
# Density = 2.565880 g / cm^3
# Si number density = 25.717337 Si / 1000 Ang^3
#
#
#
# Elastic Constant Matrix: (Units=GPa)
#
#
# Indices 1 2 3 4 5 6 
#
# 1 70.4109 13.3334 14.4371 -0.0003 8.8640 0.0002
# 2 13.3334 112.9141 53.0233 0.0008 1.4519 0.0004
# 3 14.4371 53.0233 54.5922 0.0019 7.9803 0.0014
# 4 -0.0003 0.0008 0.0019 44.3439 0.0004 -4.7297
# 5 8.8640 1.4519 7.9803 0.0004 22.8728 0.0005
# 6 0.0002 0.0004 0.0014 -4.7297 0.0005 -0.7249
#
#
#
# Elastic Compliance Matrix: (Units=1/GPa)
#
#
# Indices 1 2 3 4 5 6 
#
# 1 0.015512 -0.000331 -0.003061 0.000000 -0.004922 -0.000004
# 2 -0.000331 0.016789 -0.016947 -0.000001 0.004975 -0.000013
# 3 -0.003061 -0.016947 0.037151 0.000003 -0.010700 0.000036
# 4 0.000000 -0.000001 0.000003 0.013297 0.000001 -0.086759
# 5 -0.004922 0.004975 -0.010700 0.000001 0.049045 0.000010
# 6 -0.000004 -0.000013 0.000036 -0.086759 0.000010 -0.813411
#
#
# Mechanical properties :
#
#
# Convention : Reuss Voigt Hill
#
# Bulk Modulus (GPa) = 34.75245 44.38942 39.57093
# Shear Modulus (GPa) = -7.91958 23.77325 7.92683
#
# Velocity S-wave (km/s) = -1.75675 3.04370 1.75755
# Velocity P-wave (km/s) = 3.07046 5.44519 4.42028
#
# Compressibility (1/GPa) = 0.02877495
#
# Stress axis : x y z
#
# Youngs Moduli (GPa) = 64.46457 59.56162 26.91728
#
# Poissons Ratio (x) = 0.01971 0.08240
# Poissons Ratio (y) = 0.02133 0.45616
# Poissons Ratio (z) = 0.19735 1.00937
#
# Static dielectric constant tensor:
#      x y z
#    x 2.082200 0.000000 -0.007800 
#    y 0.000000 1.980650 0.000000 
#    z -0.007800 0.000000 2.161260 
# 
# From -- ./inp_files/206273.got.cif
#   From: 2010.05.17/outbox.cif.g08.bks.cpg/sg15_104_cif.got.tgz:206273.got - 2010.06.03 18:47:42.
