data_PCOD9267982
_publ_section_title
;
Structure prediction by ZEFSAII (Michael W. Deem and Ramdas Pophale) SiO2 
 PCOD9267982
Probable space group: C 2/C
;
_chemical_formula_sum "Si O2"
_cell_formula_units_Z 56
_cell_length_a 6.488465
_cell_length_b 17.557574
_cell_length_c 30.157393
_cell_angle_alpha 90.000000
_cell_angle_beta 51.676813
_cell_angle_gamma 90.000000
_cell_volume 2695.301340
_symmetry_space_group_name_H-M "C 2/C"
_symmetry_group_IT_number 15
_symmetry_cell_setting 'monoclinic'
loop_
_space_group_symop_operation_xyz
x,y,z
-x,y,1/2-z
-x,-y,-z
x,-y,1/2+z
1/2+x,1/2+y,z
1/2-x,1/2+y,1/2-z
1/2-x,1/2-y,-z
1/2+x,1/2-y,1/2+z
loop_
_atom_site_type_symbol
_atom_site_label
_atom_site_fract_x
_atom_site_fract_y
_atom_site_fract_z
Si Si1 0.725470 0.344145 0.086642
Si Si2 0.689403 0.408447 0.685648
Si Si3 0.595113 0.844488 0.532063
Si Si4 0.272251 0.387353 0.604215
Si Si5 0.710005 0.524126 0.087377
Si Si6 0.330938 0.776247 0.314807
Si Si7 0.553193 0.249640 0.605925
O O1 0.733320 0.434739 0.088818
O O2 0.460152 0.311347 0.143967
O O3 0.978880 0.307840 0.076705
O O4 0.733382 0.324933 0.033363
O O5 0.500000 0.434215 0.750000
O O6 0.618106 0.442788 0.647521
O O7 0.683319 0.316118 0.684697
O O8 0.995536 0.425552 0.652702
O O9 0.739944 0.849306 0.559928
O O10 0.477262 0.929984 0.542032
O O11 0.336554 0.790842 0.565984
O O12 0.501570 0.448829 0.578427
O O13 0.347323 0.318804 0.627238
O O14 0.500000 0.801587 0.250000
O O15 0.465832 0.791587 0.344277
#
# Coordination Sequence:
#
# PCOD9267982 Si02
#       7
#     8   8   8   8   8   8   8
#     4  12  25  41  64  97 133 165 204 272 325 367
#     4  10  20  42  65  89 118 167 224 258 304 385
#     4  10  22  41  66  95 128 166 214 254 318 400
#     4  10  19  41  64  91 125 164 216 257 308 383
#     4  10  23  42  61  97 126 168 211 256 329 379
#     4  11  24  43  63  94 123 164 219 260 314 381
#     4  11  21  42  65  94 126 162 211 264 316 381
#
# _framework density 20.776897000000002
#
# number of rings (size 3 to 8) (size 9 to 14) (size 15 to 20)
#    0.000    1.429    5.714    0.857    0.000    8.571 
#    5.143    0.000    0.000    0.000    0.000    0.000 
#    0.000    0.000    0.000    0.000    0.000    0.000 
#
# Total GULP energy -156410.151868 kJ/mol
# GULP energy per Si atom -5586.076852 kJ/mol
# Density = 2.072961 g / cm^3
# Si number density = 20.776897 Si / 1000 Ang^3
#
#
#
# Elastic Constant Matrix: (Units=GPa)
#
#
# Indices 1 2 3 4 5 6 
#
# 1 102.4254 45.7931 17.0941 0.0005 8.7755 -0.0023
# 2 45.7931 93.8222 26.1948 0.0009 5.4174 -0.0004
# 3 17.0941 26.1948 123.4666 -0.0004 1.9926 0.0004
# 4 0.0005 0.0009 -0.0004 14.1241 -0.0011 0.8110
# 5 8.7755 5.4174 1.9926 -0.0011 16.7866 0.0000
# 6 -0.0023 -0.0004 0.0004 0.8110 0.0000 15.4064
#
#
#
# Elastic Compliance Matrix: (Units=1/GPa)
#
#
# Indices 1 2 3 4 5 6 
#
# 1 0.012879 -0.005882 -0.000458 -0.000001 -0.004780 0.000002
# 2 -0.005882 0.014210 -0.002180 -0.000001 -0.001252 0.000000
# 3 -0.000458 -0.002180 0.008627 0.000000 -0.000081 0.000000
# 4 -0.000001 -0.000001 0.000000 0.071016 0.000005 -0.003738
# 5 -0.004780 -0.001252 -0.000081 0.000005 0.062484 -0.000001
# 6 0.000002 0.000000 0.000000 -0.003738 -0.000001 0.065105
#
#
# Mechanical properties :
#
#
# Convention : Reuss Voigt Hill
#
# Bulk Modulus (GPa) = 53.54691 55.31978 54.43335
# Shear Modulus (GPa) = 19.41092 24.63889 22.02491
#
# Velocity S-wave (km/s) = 3.05987 3.44740 3.25940
# Velocity P-wave (km/s) = 6.18967 6.52146 6.35773
#
# Compressibility (1/GPa) = 0.01867521
#
# Stress axis : x y z
#
# Youngs Moduli (GPa) = 77.64562 70.37057 115.91980
#
# Poissons Ratio (x) = 0.41393 0.05309
# Poissons Ratio (y) = 0.45672 0.25274
# Poissons Ratio (z) = 0.03556 0.15343
#
# Static dielectric constant tensor:
#      x y z
#    x 1.754640 0.000000 0.008940 
#    y 0.000000 1.772210 0.000000 
#    z 0.008940 0.000000 1.769970 
# 
# From -- ./inp_files/286037.got.cif
#   From: 2010.05.17/outbox.cif.g08.bks.cpg/sg15_144_cif.got.tgz:286037.got - 2010.06.03 18:47:42.
