data_PCOD9267212
_publ_section_title
;
Structure prediction by ZEFSAII (Michael W. Deem and Ramdas Pophale) SiO2 
 PCOD9267212
Probable space group: C 2/C
;
_chemical_formula_sum "Si O2"
_cell_formula_units_Z 52
_cell_length_a 13.018851
_cell_length_b 16.548013
_cell_length_c 11.541060
_cell_angle_alpha 90.000000
_cell_angle_beta 76.616200
_cell_angle_gamma 90.000000
_cell_volume 2418.834960
_symmetry_space_group_name_H-M "C 2/C"
_symmetry_group_IT_number 15
_symmetry_cell_setting 'monoclinic'
loop_
_space_group_symop_operation_xyz
x,y,z
-x,y,1/2-z
-x,-y,-z
x,-y,1/2+z
1/2+x,1/2+y,z
1/2-x,1/2+y,1/2-z
1/2-x,1/2-y,-z
1/2+x,1/2-y,1/2+z
loop_
_atom_site_type_symbol
_atom_site_label
_atom_site_fract_x
_atom_site_fract_y
_atom_site_fract_z
Si Si1 0.730587 0.234950 0.642755
Si Si2 0.583427 0.465652 0.821952
Si Si3 0.049470 0.878688 0.056710
Si Si4 0.051653 0.719550 0.358004
Si Si5 0.500000 0.803600 0.250000
Si Si6 0.041952 0.411547 0.461342
Si Si7 0.226910 0.908504 0.195294
O O1 0.750000 0.250000 0.500000
O O2 0.822396 0.288804 0.676596
O O3 0.608767 0.246965 0.711446
O O4 0.755184 0.146400 0.694415
O O5 0.500000 0.433261 0.750000
O O6 0.526745 0.547679 0.885335
O O7 0.688103 0.501708 0.737508
O O8 0.600813 0.405775 0.922939
O O9 0.136699 0.871773 0.134963
O O10 0.981524 0.798059 0.058140
O O11 0.000000 0.737442 0.250000
O O12 0.993673 0.642780 0.423164
O O13 0.496560 0.863768 0.361380
O O14 0.166045 0.412010 0.404518
O O15 0.000000 0.500000 0.500000
#
# Coordination Sequence:
#
# PCOD9267212 Si02
#       7
#     8   8   8   8   4   8   8
#     4  11  21  43  71 101 138 182 226 288 354 406
#     4   9  18  37  64 101 139 180 218 276 349 420
#     4  10  19  38  68 102 136 175 223 282 352 406
#     4  12  23  46  75 101 137 181 232 293 353 414
#     4  10  24  46  70 102 138 180 228 290 352 402
#     4  11  27  46  66  97 134 186 235 278 341 418
#     4  10  21  42  68  95 143 181 222 290 347 412
#
# _framework density 21.497952999999999
#
# number of rings (size 3 to 8) (size 9 to 14) (size 15 to 20)
#    0.000    1.538    4.615    0.462    1.077    3.077 
#    4.154    0.000    0.000    0.000    0.000    0.000 
#    0.000    0.000    0.000    0.000    0.000    0.000 
#
# Total GULP energy -145158.471777 kJ/mol
# GULP energy per Si atom -5583.018145 kJ/mol
# Density = 2.144902 g / cm^3
# Si number density = 21.497953 Si / 1000 Ang^3
#
#
#
# Elastic Constant Matrix: (Units=GPa)
#
#
# Indices 1 2 3 4 5 6 
#
# 1 140.9718 38.8944 56.6804 0.0000 -24.5042 0.0000
# 2 38.8944 88.1681 44.5081 0.0000 -14.6494 0.0000
# 3 56.6804 44.5081 81.9952 0.0000 -9.9954 0.0000
# 4 0.0000 0.0000 0.0000 34.6421 0.0000 -9.3776
# 5 -24.5042 -14.6494 -9.9954 0.0000 39.4060 0.0000
# 6 0.0000 0.0000 0.0000 -9.3776 0.0000 11.7864
#
#
#
# Elastic Compliance Matrix: (Units=1/GPa)
#
#
# Indices 1 2 3 4 5 6 
#
# 1 0.010702 -0.000672 -0.006452 0.000000 0.004769 0.000000
# 2 -0.000672 0.016228 -0.007905 0.000000 0.003610 0.000000
# 3 -0.006452 -0.007905 0.020741 0.000000 -0.001690 0.000000
# 4 0.000000 0.000000 0.000000 0.036790 0.000000 0.029272
# 5 0.004769 0.003610 -0.001690 0.000000 0.029256 0.000000
# 6 0.000000 0.000000 0.000000 0.029272 0.000000 0.108133
#
#
# Mechanical properties :
#
#
# Convention : Reuss Voigt Hill
#
# Bulk Modulus (GPa) = 56.77151 65.70010 61.23581
# Shear Modulus (GPa) = 19.39648 28.57038 23.98343
#
# Velocity S-wave (km/s) = 3.00700 3.64947 3.34371
# Velocity P-wave (km/s) = 6.20655 6.95598 6.59192
#
# Compressibility (1/GPa) = 0.01761447
#
# Stress axis : x y z
#
# Youngs Moduli (GPa) = 93.44063 61.62006 48.21461
#
# Poissons Ratio (x) = 0.04139 0.31108
# Poissons Ratio (y) = 0.06277 0.38112
# Poissons Ratio (z) = 0.60288 0.48708
#
# Static dielectric constant tensor:
#      x y z
#    x 1.802660 0.000000 -0.014110 
#    y 0.000000 1.759300 0.000000 
#    z -0.014110 0.000000 1.850040 
# 
# From -- ./inp_files/96978.got.cif
#   From: 2010.05.17/outbox.cif.g08.bks.cpg/sg15_49_cif.got.tgz:96978.got - 2010.06.03 18:47:42.
