data_PCOD9267953
_publ_section_title
;
Structure prediction by ZEFSAII (Michael W. Deem and Ramdas Pophale) SiO2 
 PCOD9267953
Probable space group: C 2/C
;
_chemical_formula_sum "Si O2"
_cell_formula_units_Z 56
_cell_length_a 29.531171
_cell_length_b 12.775233
_cell_length_c 15.142913
_cell_angle_alpha 90.000000
_cell_angle_beta 29.130925
_cell_angle_gamma 90.000000
_cell_volume 2781.094014
_symmetry_space_group_name_H-M "C 2/C"
_symmetry_group_IT_number 15
_symmetry_cell_setting 'monoclinic'
loop_
_space_group_symop_operation_xyz
x,y,z
-x,y,1/2-z
-x,-y,-z
x,-y,1/2+z
1/2+x,1/2+y,z
1/2-x,1/2+y,1/2-z
1/2-x,1/2-y,-z
1/2+x,1/2-y,1/2+z
loop_
_atom_site_type_symbol
_atom_site_label
_atom_site_fract_x
_atom_site_fract_y
_atom_site_fract_z
Si Si1 0.419015 0.896841 0.009498
Si Si2 0.794234 0.945600 0.121704
Si Si3 0.598503 0.500845 0.897234
Si Si4 0.622031 0.726803 0.291499
Si Si5 0.500000 0.731257 0.750000
Si Si6 0.340648 0.231023 0.973336
Si Si7 0.000000 0.566885 0.750000
Si Si8 0.914010 0.056878 0.772731
O O1 0.315819 0.939781 0.195795
O O2 0.431556 0.826681 0.076104
O O3 0.425981 0.806745 0.922901
O O4 0.483932 0.989863 0.862125
O O5 0.821233 0.995773 0.168434
O O6 0.839781 0.830133 0.039971
O O7 0.835472 0.006846 0.967872
O O8 0.581756 0.382632 0.892436
O O9 0.616711 0.566379 0.777357
O O10 0.503804 0.520150 0.113127
O O11 0.622258 0.736961 0.186405
O O12 0.729621 0.717194 0.142736
O O13 0.449553 0.658731 0.764135
O O14 0.407658 0.138315 0.893327
#
# Coordination Sequence:
#
# PCOD9267953 Si02
#       8
#     8   8   8   8   4   8   4   8
#     4  10  23  40  61  82 118 167 201 241 303 359
#     4  11  21  39  61  89 123 155 197 249 304 359
#     4  11  21  34  64  97 119 150 201 258 298 364
#     4  10  19  41  62  88 115 164 205 237 302 369
#     4  11  20  41  60  84 122 157 198 249 298 370
#     4  10  23  36  63  87 124 159 200 249 297 361
#     4  11  24  39  58  90 122 155 208 253 300 340
#     4  11  21  34  63  95 118 152 201 247 310 355
#
# _framework density 20.135961000000002
#
# number of rings (size 3 to 8) (size 9 to 14) (size 15 to 20)
#    0.000    1.429    4.286    0.857    2.000    1.714 
#    0.000    0.714    0.000    0.000    0.000    0.000 
#    0.000    0.000    0.000    0.000    0.000    0.000 
#
# Total GULP energy -156002.679656 kJ/mol
# GULP energy per Si atom -5571.524273 kJ/mol
# Density = 2.009013 g / cm^3
# Si number density = 20.135961 Si / 1000 Ang^3
#
#
#
# Elastic Constant Matrix: (Units=GPa)
#
#
# Indices 1 2 3 4 5 6 
#
# 1 34.9894 3.7024 2.2848 0.0000 16.9395 0.0000
# 2 3.7024 74.9173 28.2975 0.0000 3.2906 0.0000
# 3 2.2848 28.2975 86.6102 0.0000 11.7932 0.0000
# 4 0.0000 0.0000 0.0000 33.7179 0.0000 0.1055
# 5 16.9395 3.2906 11.7932 0.0000 24.3701 0.0000
# 6 0.0000 0.0000 0.0000 0.1055 0.0000 19.3461
#
#
#
# Elastic Compliance Matrix: (Units=1/GPa)
#
#
# Indices 1 2 3 4 5 6 
#
# 1 0.044228 -0.002268 0.003981 0.000000 -0.032363 0.000000
# 2 -0.002268 0.015347 -0.005231 0.000000 0.002036 0.000000
# 3 0.003981 -0.005231 0.014378 0.000000 -0.009019 0.000000
# 4 0.000000 0.000000 0.000000 0.029658 0.000000 -0.000162
# 5 -0.032363 0.002036 -0.009019 0.000000 0.067618 0.000000
# 6 0.000000 0.000000 0.000000 -0.000162 0.000000 0.051691
#
#
# Mechanical properties :
#
#
# Convention : Reuss Voigt Hill
#
# Bulk Modulus (GPa) = 14.94417 29.45402 22.19910
# Shear Modulus (GPa) = 19.82060 26.30229 23.06145
#
# Velocity S-wave (km/s) = 3.14082 3.61811 3.38788
# Velocity P-wave (km/s) = 4.53770 5.66689 5.13344
#
# Compressibility (1/GPa) = 0.06691571
#
# Stress axis : x y z
#
# Youngs Moduli (GPa) = 22.61020 65.16047 69.54965
#
# Poissons Ratio (x) = 0.14778 -0.27687
# Poissons Ratio (y) = 0.05128 0.36385
# Poissons Ratio (z) = -0.09001 0.34089
#
# Static dielectric constant tensor:
#      x y z
#    x 1.716250 0.000000 0.001750 
#    y 0.000000 1.752200 0.000000 
#    z 0.001750 0.000000 1.744350 
# 
# From -- ./inp_files/182139.got.cif
#   From: 2010.05.17/outbox.cif.g08.bks.cpg/sg15_92_cif.got.tgz:182139.got - 2010.06.03 18:47:42.
