data_PCOD9267916
_publ_section_title
;
Structure prediction by ZEFSAII (Michael W. Deem and Ramdas Pophale) SiO2 
 PCOD9267916
Probable space group: C 2/C
;
_chemical_formula_sum "Si O2"
_cell_formula_units_Z 40
_cell_length_a 11.700441
_cell_length_b 12.105038
_cell_length_c 27.355345
_cell_angle_alpha 90.000000
_cell_angle_beta 28.674239
_cell_angle_gamma 90.000000
_cell_volume 1859.075988
_symmetry_space_group_name_H-M "C 2/C"
_symmetry_group_IT_number 15
_symmetry_cell_setting 'monoclinic'
loop_
_space_group_symop_operation_xyz
x,y,z
-x,y,1/2-z
-x,-y,-z
x,-y,1/2+z
1/2+x,1/2+y,z
1/2-x,1/2+y,1/2-z
1/2-x,1/2-y,-z
1/2+x,1/2-y,1/2+z
loop_
_atom_site_type_symbol
_atom_site_label
_atom_site_fract_x
_atom_site_fract_y
_atom_site_fract_z
Si Si1 0.244848 0.486925 0.436037
Si Si2 0.732437 0.395881 0.966146
Si Si3 0.021035 0.182004 0.104360
Si Si4 0.269509 0.512170 0.632998
Si Si5 0.466595 0.282680 0.205311
O O1 0.185604 0.439221 0.512390
O O2 0.376932 0.602789 0.392417
O O3 0.427643 0.403072 0.342427
O O4 0.000000 0.500000 0.500000
O O5 0.748591 0.487907 0.917729
O O6 0.877901 0.295074 0.888941
O O7 0.445052 0.385286 0.078062
O O8 0.811601 0.263474 0.199602
O O9 0.250000 0.250000 0.000000
O O10 0.894041 0.093600 0.114147
O O11 0.000000 0.527101 0.750000
O O12 0.500000 0.253455 0.250000
#
# Coordination Sequence:
#
# PCOD9267916 Si02
#       5
#     8   8   8   8   8
#     4  11  27  44  67 105 144 183 232 297 363 422
#     4  10  21  41  71  98 138 179 240 285 349 421
#     4  11  23  43  70  99 133 188 240 280 354 416
#     4  10  19  40  72 103 129 177 242 295 339 413
#     4  12  23  46  72  99 142 187 232 296 357 418
#
# _framework density 21.516064
#
# number of rings (size 3 to 8) (size 9 to 14) (size 15 to 20)
#    0.000    1.200    4.000    1.800    0.000    4.800 
#    3.600    0.000    0.000    0.000    0.000    0.000 
#    0.000    0.000    0.000    0.000    0.000    0.000 
#
# Total GULP energy -111670.936584 kJ/mol
# GULP energy per Si atom -5583.546829 kJ/mol
# Density = 2.146709 g / cm^3
# Si number density = 21.516064 Si / 1000 Ang^3
#
#
#
# Elastic Constant Matrix: (Units=GPa)
#
#
# Indices 1 2 3 4 5 6 
#
# 1 142.2904 35.5742 68.3616 -0.0008 -20.2227 -0.0002
# 2 35.5742 83.6431 72.6304 -0.0007 -36.7033 0.0001
# 3 68.3616 72.6304 185.7138 -0.0026 -51.1879 -0.0002
# 4 -0.0008 -0.0007 -0.0026 47.3357 0.0016 -8.3583
# 5 -20.2227 -36.7033 -51.1879 0.0016 40.3781 0.0000
# 6 -0.0002 0.0001 -0.0002 -8.3583 0.0000 14.0560
#
#
#
# Elastic Compliance Matrix: (Units=1/GPa)
#
#
# Indices 1 2 3 4 5 6 
#
# 1 0.008648 -0.001542 -0.002725 0.000000 -0.000525 0.000000
# 2 -0.001542 0.022676 -0.004353 -0.000001 0.014321 -0.000001
# 3 -0.002725 -0.004353 0.010181 0.000000 0.007584 0.000000
# 4 0.000000 -0.000001 0.000000 0.023604 -0.000001 0.014036
# 5 -0.000525 0.014321 0.007584 -0.000001 0.047135 -0.000001
# 6 0.000000 -0.000001 0.000000 0.014036 -0.000001 0.079490
#
#
# Mechanical properties :
#
#
# Convention : Reuss Voigt Hill
#
# Bulk Modulus (GPa) = 41.21449 84.97554 63.09501
# Shear Modulus (GPa) = 23.03481 36.02604 29.53042
#
# Velocity S-wave (km/s) = 3.27553 4.09636 3.70872
# Velocity P-wave (km/s) = 5.78812 7.87104 6.90853
#
# Compressibility (1/GPa) = 0.02426331
#
# Stress axis : x y z
#
# Youngs Moduli (GPa) = 115.63378 44.09999 98.22597
#
# Poissons Ratio (x) = 0.06802 0.26765
# Poissons Ratio (y) = 0.17836 0.42760
# Poissons Ratio (z) = 0.31509 0.19198
#
# Static dielectric constant tensor:
#      x y z
#    x 1.803390 0.000000 -0.009790 
#    y 0.000000 1.900280 0.000000 
#    z -0.009790 0.000000 1.858650 
# 
# From -- ./inp_files/292372.got.cif
#   From: 2010.05.17/outbox.cif.g08.bks.cpg/sg15_147_cif.got.tgz:292372.got - 2010.06.03 18:47:42.
