data_PCOD9267802
_publ_section_title
;
Structure prediction by ZEFSAII (Michael W. Deem and Ramdas Pophale) SiO2 
 PCOD9267802
Probable space group: C 2/C
;
_chemical_formula_sum "Si O2"
_cell_formula_units_Z 60
_cell_length_a 25.899000
_cell_length_b 20.437808
_cell_length_c 13.144655
_cell_angle_alpha 90.000000
_cell_angle_beta 154.424623
_cell_angle_gamma 90.000000
_cell_volume 3003.631735
_symmetry_space_group_name_H-M "C 2/C"
_symmetry_group_IT_number 15
_symmetry_cell_setting 'monoclinic'
loop_
_space_group_symop_operation_xyz
x,y,z
-x,y,1/2-z
-x,-y,-z
x,-y,1/2+z
1/2+x,1/2+y,z
1/2-x,1/2+y,1/2-z
1/2-x,1/2-y,-z
1/2+x,1/2-y,1/2+z
loop_
_atom_site_type_symbol
_atom_site_label
_atom_site_fract_x
_atom_site_fract_y
_atom_site_fract_z
Si Si1 0.018179 0.676848 0.000862
Si Si2 0.592583 0.299974 0.617666
Si Si3 0.989900 0.932251 0.114291
Si Si4 0.800239 0.983458 0.151826
Si Si5 0.734341 0.700042 0.689738
Si Si6 0.500000 0.785749 0.250000
Si Si7 0.377035 0.128393 0.102842
Si Si8 0.240270 0.614198 0.937373
O O1 0.001760 0.754865 0.990450
O O2 0.038475 0.671093 0.916158
O O3 0.892545 0.640360 0.788174
O O4 0.094180 0.649417 0.229785
O O5 0.541089 0.356068 0.455005
O O6 0.667546 0.247443 0.687089
O O7 0.676546 0.339010 0.845595
O O8 0.000000 0.948395 0.250000
O O9 0.108736 0.943455 0.258400
O O10 0.885420 0.978034 0.882402
O O11 0.697618 0.939166 0.019925
O O12 0.748012 0.040678 0.987946
O O13 0.613465 0.737760 0.448262
O O14 0.725086 0.630152 0.616339
O O15 0.786985 0.681622 0.892811
O O16 0.500000 0.125559 0.250000
#
# Coordination Sequence:
#
# PCOD9267802 Si02
#       8
#     8   8   8   8   8   4   8   8
#     4  11  23  41  65 101 134 175 221 278 353 404
#     4  10  19  40  65  96 129 171 223 279 346 400
#     4  10  24  42  71  95 136 181 229 294 343 403
#     4  10  26  45  63 104 131 186 243 272 337 418
#     4  11  23  39  70  97 134 181 222 280 353 405
#     4  12  24  40  68 106 130 174 236 282 336 430
#     4  12  26  45  66 102 146 184 223 287 351 410
#     4  10  19  44  66  87 134 177 230 276 325 410
#
# _framework density 19.975818
#
# number of rings (size 3 to 8) (size 9 to 14) (size 15 to 20)
#    0.000    1.333    5.333    0.800    5.600    3.200 
#    1.200    0.000    0.000    0.000    0.000    0.000 
#    0.000    0.000    0.000    0.000    0.000    0.000 
#
# Total GULP energy -167146.950509 kJ/mol
# GULP energy per Si atom -5571.565017 kJ/mol
# Density = 1.993035 g / cm^3
# Si number density = 19.975818 Si / 1000 Ang^3
#
#
#
# Elastic Constant Matrix: (Units=GPa)
#
#
# Indices 1 2 3 4 5 6 
#
# 1 69.2954 21.1424 63.4383 0.0000 -25.0566 0.0000
# 2 21.1424 81.5634 58.2772 0.0000 -4.2829 0.0000
# 3 63.4383 58.2772 -27.4550 0.0000 -7.3821 0.0000
# 4 0.0000 0.0000 0.0000 28.3149 0.0000 12.3046
# 5 -25.0566 -4.2829 -7.3821 0.0000 29.4053 0.0000
# 6 0.0000 0.0000 0.0000 12.3046 0.0000 12.3103
#
#
#
# Elastic Compliance Matrix: (Units=1/GPa)
#
#
# Indices 1 2 3 4 5 6 
#
# 1 0.013713 -0.009187 0.008807 0.000000 0.012557 0.000000
# 2 -0.009187 0.011348 0.004234 0.000000 -0.005113 0.000000
# 3 0.008807 0.004234 -0.008684 0.000000 0.005941 0.000000
# 4 0.000000 0.000000 0.000000 0.062437 0.000000 -0.062409
# 5 0.012557 -0.005113 0.005941 0.000000 0.045454 0.000000
# 6 0.000000 0.000000 0.000000 -0.062409 0.000000 0.143612
#
#
# Mechanical properties :
#
#
# Convention : Reuss Voigt Hill
#
# Bulk Modulus (GPa) = 41.52327 45.45775 43.49051
# Shear Modulus (GPa) = 18.64268 12.70915 15.67592
#
# Velocity S-wave (km/s) = 3.05825 2.52509 2.80437
# Velocity P-wave (km/s) = 5.77082 5.59529 5.68373
#
# Compressibility (1/GPa) = 0.02408288
#
# Stress axis : x y z
#
# Youngs Moduli (GPa) = 72.92615 88.12023 -115.14978
#
# Poissons Ratio (x) = 0.80960 1.01407
# Poissons Ratio (y) = 0.67000 0.48756
# Poissons Ratio (z) = -0.64223 -0.37311
#
# Static dielectric constant tensor:
#      x y z
#    x 1.749160 0.000000 -0.024180 
#    y 0.000000 1.693270 0.000000 
#    z -0.024180 0.000000 1.730220 
# 
# From -- ./inp_files/119980.got.cif
#   From: 2010.05.17/outbox.cif.g08.bks.cpg/sg15_60_cif.got.tgz:119980.got - 2010.06.03 18:47:42.
