data_PCOD9267823
_publ_section_title
;
Structure prediction by ZEFSAII (Michael W. Deem and Ramdas Pophale) SiO2 
 PCOD9267823
Probable space group: C 2/C
;
_chemical_formula_sum "Si O2"
_cell_formula_units_Z 48
_cell_length_a 8.946070
_cell_length_b 13.202250
_cell_length_c 16.979544
_cell_angle_alpha 90.000000
_cell_angle_beta 85.892593
_cell_angle_gamma 90.000000
_cell_volume 2000.273404
_symmetry_space_group_name_H-M "C 2/C"
_symmetry_group_IT_number 15
_symmetry_cell_setting 'monoclinic'
loop_
_space_group_symop_operation_xyz
x,y,z
-x,y,1/2-z
-x,-y,-z
x,-y,1/2+z
1/2+x,1/2+y,z
1/2-x,1/2+y,1/2-z
1/2-x,1/2-y,-z
1/2+x,1/2-y,1/2+z
loop_
_atom_site_type_symbol
_atom_site_label
_atom_site_fract_x
_atom_site_fract_y
_atom_site_fract_z
Si Si1 0.234168 0.205729 0.692458
Si Si2 0.459922 0.865273 0.892701
Si Si3 0.792893 0.816682 0.845484
Si Si4 0.805814 0.025961 0.046874
Si Si5 0.532354 0.745901 0.444475
Si Si6 0.422569 0.484328 0.369866
O O1 0.132190 0.299651 0.667024
O O2 0.284978 0.233896 0.777513
O O3 0.374384 0.200097 0.627910
O O4 0.139046 0.105236 0.680905
O O5 0.630545 0.867681 0.860143
O O6 0.362632 0.965016 0.915476
O O7 0.456801 0.803535 0.974498
O O8 0.863524 0.767806 0.921000
O O9 0.906597 0.909577 0.825872
O O10 0.883696 0.137789 0.048184
O O11 0.824743 0.000268 0.954431
O O12 0.912829 0.962193 0.100643
#
# Coordination Sequence:
#
# PCOD9267823 Si02
#       6
#     8   8   8   8   8   8
#     4  11  21  43  65  90 131 184 217 268 333 398
#     4  11  20  40  64  96 129 174 214 279 329 388
#     4  11  25  37  62 100 143 162 219 276 339 401
#     4   9  18  37  70  95 119 164 234 273 315 396
#     4  10  19  40  66  92 124 183 221 258 322 410
#     4  10  20  40  67  95 125 171 226 272 324 404
#
# _framework density 23.99672
#
# number of rings (size 3 to 8) (size 9 to 14) (size 15 to 20)
#    0.000    1.667    3.333    2.500    0.000    0.667 
#    0.000   13.333    0.000    0.000    0.000    0.000 
#    0.000    0.000    0.000    0.000    0.000    0.000 
#
# Total GULP energy -134285.233975 kJ/mol
# GULP energy per Si atom -5595.218082 kJ/mol
# Density = 2.394210 g / cm^3
# Si number density = 23.996720 Si / 1000 Ang^3
#
#
#
# Elastic Constant Matrix: (Units=GPa)
#
#
# Indices 1 2 3 4 5 6 
#
# 1 70.9223 -2.7305 39.2537 0.0000 9.8906 0.0000
# 2 -2.7305 47.1721 29.9188 0.0000 14.0927 0.0000
# 3 39.2537 29.9188 97.3967 0.0000 13.0477 0.0000
# 4 0.0000 0.0000 0.0000 28.9348 0.0000 14.2239
# 5 9.8906 14.0927 13.0477 0.0000 37.2599 0.0000
# 6 0.0000 0.0000 0.0000 14.2239 0.0000 30.1342
#
#
#
# Elastic Compliance Matrix: (Units=1/GPa)
#
#
# Indices 1 2 3 4 5 6 
#
# 1 0.021226 0.009733 -0.010803 0.000000 -0.005533 0.000000
# 2 0.009733 0.032939 -0.012618 0.000000 -0.010624 0.000000
# 3 -0.010803 -0.012618 0.018334 0.000000 0.001220 0.000000
# 4 0.000000 0.000000 0.000000 0.045003 0.000000 -0.021242
# 5 -0.005533 -0.010624 0.001220 0.000000 0.031898 0.000000
# 6 0.000000 0.000000 0.000000 -0.021242 0.000000 0.043212
#
#
# Mechanical properties :
#
#
# Convention : Reuss Voigt Hill
#
# Bulk Modulus (GPa) = 22.16170 38.70835 30.43503
# Shear Modulus (GPa) = 21.27403 29.20238 25.23821
#
# Velocity S-wave (km/s) = 2.98071 3.49224 3.24657
# Velocity P-wave (km/s) = 4.59364 5.69444 5.17340
#
# Compressibility (1/GPa) = 0.04512288
#
# Stress axis : x y z
#
# Youngs Moduli (GPa) = 47.11292 30.35896 54.54351
#
# Poissons Ratio (x) = -0.29550 0.58925
# Poissons Ratio (y) = -0.45857 0.68824
# Poissons Ratio (z) = 0.50898 0.38307
#
# Static dielectric constant tensor:
#      x y z
#    x 2.014950 0.000000 -0.011900 
#    y 0.000000 1.937580 0.000000 
#    z -0.011900 0.000000 1.895760 
# 
# From -- ./inp_files/189267.got.cif
#   From: 2010.05.17/outbox.cif.g08.bks.cpg/sg15_95_cif.got.tgz:189267.got - 2010.06.03 18:47:42.
