data_PCOD9267822
_publ_section_title
;
Structure prediction by ZEFSAII (Michael W. Deem and Ramdas Pophale) SiO2 
 PCOD9267822
Probable space group: C 2/C
;
_chemical_formula_sum "Si O2"
_cell_formula_units_Z 64
_cell_length_a 14.076921
_cell_length_b 28.545186
_cell_length_c 8.634440
_cell_angle_alpha 90.000000
_cell_angle_beta 118.063043
_cell_angle_gamma 90.000000
_cell_volume 3061.647835
_symmetry_space_group_name_H-M "C 2/C"
_symmetry_group_IT_number 15
_symmetry_cell_setting 'monoclinic'
loop_
_space_group_symop_operation_xyz
x,y,z
-x,y,1/2-z
-x,-y,-z
x,-y,1/2+z
1/2+x,1/2+y,z
1/2-x,1/2+y,1/2-z
1/2-x,1/2-y,-z
1/2+x,1/2-y,1/2+z
loop_
_atom_site_type_symbol
_atom_site_label
_atom_site_fract_x
_atom_site_fract_y
_atom_site_fract_z
Si Si1 0.122764 0.733236 0.805872
Si Si2 0.993873 0.386447 0.060245
Si Si3 0.480663 0.670790 0.396734
Si Si4 0.321249 0.942788 0.478053
Si Si5 0.684114 0.635508 0.016409
Si Si6 0.111309 0.474215 0.633987
Si Si7 0.147624 0.691884 0.156626
Si Si8 0.679869 0.290807 0.240789
O O1 0.096495 0.784887 0.711344
O O2 0.200704 0.709137 0.741313
O O3 0.000000 0.718686 0.750000
O O4 0.176166 0.716828 0.012290
O O5 0.000000 0.381860 0.250000
O O6 0.899182 0.424692 0.959286
O O7 0.959476 0.338426 0.950945
O O8 0.099016 0.408207 0.057319
O O9 0.500000 0.645495 0.250000
O O10 0.427518 0.636782 0.479017
O O11 0.590181 0.692212 0.548969
O O12 0.223625 0.911874 0.467050
O O13 0.377273 0.962820 0.676975
O O14 0.300987 0.988392 0.356782
O O15 0.770138 0.654989 0.207280
O O16 0.676033 0.674913 0.880266
O O17 0.000000 0.500000 0.500000
O O18 0.145881 0.737977 0.261288
#
# Coordination Sequence:
#
# PCOD9267822 Si02
#       8
#     8   8   8   8   8   8   8   8
#     4  11  23  41  62  91 130 185 239 279 330 402
#     4  11  23  38  62 101 140 191 227 276 341 421
#     4  11  23  46  68  87 129 188 238 292 342 391
#     4  11  24  44  64 101 143 175 229 284 348 435
#     4  12  27  42  63 100 134 180 236 289 342 405
#     4  10  19  40  66  91 137 181 212 271 356 418
#     4  12  23  39  61  94 142 187 243 273 335 396
#     4  12  25  44  64  93 140 190 235 292 336 390
#
# _framework density 20.903775
#
# number of rings (size 3 to 8) (size 9 to 14) (size 15 to 20)
#    0.000    0.750    5.000    5.250    3.500    0.000 
#    2.250    0.000    0.000    0.000    0.000    6.125 
#    0.000    0.000    0.000    0.000    0.000    0.000 
#
# Total GULP energy -178430.460073 kJ/mol
# GULP energy per Si atom -5575.951877 kJ/mol
# Density = 2.085620 g / cm^3
# Si number density = 20.903775 Si / 1000 Ang^3
#
#
#
# Elastic Constant Matrix: (Units=GPa)
#
#
# Indices 1 2 3 4 5 6 
#
# 1 119.1824 39.6292 24.1561 0.0000 -15.6894 0.0000
# 2 39.6292 102.4043 14.2691 0.0000 -9.6128 0.0000
# 3 24.1561 14.2691 72.9196 0.0000 -7.2251 0.0000
# 4 0.0000 0.0000 0.0000 30.6659 0.0000 -0.3604
# 5 -15.6894 -9.6128 -7.2251 0.0000 30.7194 0.0000
# 6 0.0000 0.0000 0.0000 -0.3604 0.0000 35.3106
#
#
#
# Elastic Compliance Matrix: (Units=1/GPa)
#
#
# Indices 1 2 3 4 5 6 
#
# 1 0.010499 -0.003372 -0.002449 0.000000 0.003731 0.000000
# 2 -0.003372 0.011353 -0.000945 0.000000 0.001608 0.000000
# 3 -0.002449 -0.000945 0.014904 0.000000 0.001959 0.000000
# 4 0.000000 0.000000 0.000000 0.032613 0.000000 0.000333
# 5 0.003731 0.001608 0.001959 0.000000 0.035422 0.000000
# 6 0.000000 0.000000 0.000000 0.000333 0.000000 0.028324
#
#
# Mechanical properties :
#
#
# Convention : Reuss Voigt Hill
#
# Bulk Modulus (GPa) = 43.05733 50.06835 46.56284
# Shear Modulus (GPa) = 32.38607 33.76931 33.07769
#
# Velocity S-wave (km/s) = 3.94038 4.02364 3.98223
# Velocity P-wave (km/s) = 6.42998 6.75204 6.59298
#
# Compressibility (1/GPa) = 0.02322485
#
# Stress axis : x y z
#
# Youngs Moduli (GPa) = 95.24680 88.08519 67.09632
#
# Poissons Ratio (x) = 0.29698 0.16429
# Poissons Ratio (y) = 0.32113 0.06342
# Poissons Ratio (z) = 0.23322 0.08327
#
# Static dielectric constant tensor:
#      x y z
#    x 1.810700 0.000000 0.023360 
#    y 0.000000 1.800500 0.000000 
#    z 0.023360 0.000000 1.841400 
# 
# From -- ./inp_files/44579.got.cif
#   From: 2010.05.17/outbox.cif.g08.bks.cpg/sg15_23_cif.got.tgz:44579.got - 2010.06.03 18:47:42.
