data_PCOD9267882
_publ_section_title
;
Structure prediction by ZEFSAII (Michael W. Deem and Ramdas Pophale) SiO2 
 PCOD9267882
Probable space group: C 2/C
;
_chemical_formula_sum "Si O2"
_cell_formula_units_Z 56
_cell_length_a 9.362230
_cell_length_b 17.605944
_cell_length_c 13.485541
_cell_angle_alpha 90.000000
_cell_angle_beta 75.148609
_cell_angle_gamma 90.000000
_cell_volume 2148.577567
_symmetry_space_group_name_H-M "C 2/C"
_symmetry_group_IT_number 15
_symmetry_cell_setting 'monoclinic'
loop_
_space_group_symop_operation_xyz
x,y,z
-x,y,1/2-z
-x,-y,-z
x,-y,1/2+z
1/2+x,1/2+y,z
1/2-x,1/2+y,1/2-z
1/2-x,1/2-y,-z
1/2+x,1/2-y,1/2+z
loop_
_atom_site_type_symbol
_atom_site_label
_atom_site_fract_x
_atom_site_fract_y
_atom_site_fract_z
Si Si1 0.546941 0.919390 0.445328
Si Si2 0.699963 0.271388 0.347357
Si Si3 0.344634 0.533057 0.946136
Si Si4 0.388452 0.212593 0.413964
Si Si5 0.845811 0.852251 0.936443
Si Si6 0.668181 0.381441 0.842449
Si Si7 0.500000 0.149404 0.750000
Si Si8 0.000000 0.003442 0.250000
O O1 0.720376 0.930825 0.400151
O O2 0.540602 0.850412 0.524568
O O3 0.169871 0.942304 0.546871
O O4 0.477539 0.900117 0.352877
O O5 0.523918 0.266084 0.356883
O O6 0.754272 0.186696 0.365869
O O7 0.698165 0.315406 0.452531
O O8 0.842666 0.305940 0.263993
O O9 0.485839 0.544925 0.851947
O O10 0.335206 0.568706 0.054972
O O11 0.000000 0.500000 0.000000
O O12 0.250000 0.250000 0.500000
O O13 0.311610 0.170155 0.334143
O O14 0.016736 0.834044 0.881000
O O15 0.633434 0.439275 0.758694
#
# Coordination Sequence:
#
# PCOD9267882 Si02
#       8
#     8   8   8   8   8   8   4   4
#     4  11  25  48  76 106 155 204 264 323 391 474
#     4  11  23  40  71 101 147 194 250 307 386 458
#     4  10  22  39  66 103 144 191 243 307 373 448
#     4  11  23  47  74 108 150 208 253 319 401 469
#     4  10  19  40  69 100 139 201 246 297 378 461
#     4  10  22  40  71 101 146 193 248 307 372 455
#     4  12  28  45  76 116 153 204 264 332 382 467
#     4  10  20  37  64 108 143 190 244 304 380 449
#
# _framework density 26.063752999999998
#
# number of rings (size 3 to 8) (size 9 to 14) (size 15 to 20)
#    0.000    1.429    1.429    5.143    0.000    6.857 
#    0.000    0.000    6.286    0.000    0.000    0.000 
#    0.000    0.000    0.000    0.000    0.000    0.000 
#
# Total GULP energy -156412.489417 kJ/mol
# GULP energy per Si atom -5586.160336 kJ/mol
# Density = 2.600443 g / cm^3
# Si number density = 26.063753 Si / 1000 Ang^3
#
#
#
# Elastic Constant Matrix: (Units=GPa)
#
#
# Indices 1 2 3 4 5 6 
#
# 1 144.3983 40.2158 50.4273 0.0000 3.3330 0.0000
# 2 40.2158 99.4665 47.2708 0.0000 2.9417 0.0000
# 3 50.4273 47.2708 99.3673 0.0000 7.1613 0.0000
# 4 0.0000 0.0000 0.0000 30.2659 0.0000 -7.0828
# 5 3.3330 2.9417 7.1613 0.0000 54.5969 0.0000
# 6 0.0000 0.0000 0.0000 -7.0828 0.0000 40.9981
#
#
#
# Elastic Compliance Matrix: (Units=1/GPa)
#
#
# Indices 1 2 3 4 5 6 
#
# 1 0.008667 -0.001827 -0.003532 0.000000 0.000033 0.000000
# 2 -0.001827 0.013376 -0.005444 0.000000 0.000105 0.000000
# 3 -0.003532 -0.005444 0.014546 0.000000 -0.001399 0.000000
# 4 0.000000 0.000000 0.000000 0.034433 0.000000 0.005948
# 5 0.000033 0.000105 -0.001399 0.000000 0.018492 0.000000
# 6 0.000000 0.000000 0.000000 0.005948 0.000000 0.025419
#
#
# Mechanical properties :
#
#
# Convention : Reuss Voigt Hill
#
# Bulk Modulus (GPa) = 66.73273 68.78446 67.75859
# Shear Modulus (GPa) = 35.32773 38.86007 37.09390
#
# Velocity S-wave (km/s) = 3.68562 3.86549 3.77662
# Velocity P-wave (km/s) = 6.61596 6.80961 6.71348
#
# Compressibility (1/GPa) = 0.01498515
#
# Stress axis : x y z
#
# Youngs Moduli (GPa) = 115.38598 74.75939 68.74528
#
# Poissons Ratio (x) = 0.13656 0.24278
# Poissons Ratio (y) = 0.21077 0.37424
# Poissons Ratio (z) = 0.40749 0.40698
#
# Static dielectric constant tensor:
#      x y z
#    x 2.143900 0.000000 -0.087690 
#    y 0.000000 2.079820 0.000000 
#    z -0.087690 0.000000 2.091960 
# 
# From -- ./inp_files/138216.got.cif
#   From: 2010.05.17/outbox.cif.g08.bks.cpg/sg15_70_cif.got.tgz:138216.got - 2010.06.03 18:47:42.
