data_PCOD9267330
_publ_section_title
;
Structure prediction by ZEFSAII (Michael W. Deem and Ramdas Pophale) SiO2 
 PCOD9267330
Probable space group: C 2/C
;
_chemical_formula_sum "Si O2"
_cell_formula_units_Z 56
_cell_length_a 22.051519
_cell_length_b 8.097542
_cell_length_c 23.069204
_cell_angle_alpha 90.000000
_cell_angle_beta 144.144149
_cell_angle_gamma 90.000000
_cell_volume 2412.876816
_symmetry_space_group_name_H-M "C 2/C"
_symmetry_group_IT_number 15
_symmetry_cell_setting 'monoclinic'
loop_
_space_group_symop_operation_xyz
x,y,z
-x,y,1/2-z
-x,-y,-z
x,-y,1/2+z
1/2+x,1/2+y,z
1/2-x,1/2+y,1/2-z
1/2-x,1/2-y,-z
1/2+x,1/2-y,1/2+z
loop_
_atom_site_type_symbol
_atom_site_label
_atom_site_fract_x
_atom_site_fract_y
_atom_site_fract_z
Si Si1 0.133776 0.849227 0.600295
Si Si2 0.159193 0.044260 0.499500
Si Si3 0.128744 0.770625 0.397113
Si Si4 0.105263 0.485578 0.302203
Si Si5 0.573928 0.189893 0.012827
Si Si6 0.516747 0.090341 0.127457
Si Si7 0.681245 0.687651 0.699322
O O1 0.145136 0.914036 0.542908
O O2 0.216493 0.712811 0.683866
O O3 0.020010 0.790152 0.529915
O O4 0.164231 0.004815 0.663604
O O5 0.111109 0.957209 0.405314
O O6 0.283078 0.074967 0.590124
O O7 0.104987 0.210011 0.479081
O O8 0.250000 0.750000 0.500000
O O9 0.106368 0.684857 0.318112
O O10 0.071463 0.649957 0.397505
O O11 0.092219 0.471270 0.223230
O O12 0.000000 0.417966 0.250000
O O13 0.534479 0.011077 0.963830
O O14 0.669616 0.202100 0.131420
O O15 0.585847 0.243491 0.162536
#
# Coordination Sequence:
#
# PCOD9267330 Si02
#       7
#     8   8   8   8   8   8   8
#     4  11  22  37  59  91 129 164 201 246 301 366
#     4  10  19  39  60  84 122 159 198 257 307 354
#     4   9  19  36  62  84 107 150 209 247 297 361
#     4   9  19  36  60  83 109 154 207 252 302 353
#     4  11  24  36  59  93 128 162 202 243 308 377
#     4  11  20  38  60  86 122 163 196 252 307 360
#     4  11  22  38  59  90 127 166 204 243 297 373
#
# _framework density 23.208811000000001
#
# number of rings (size 3 to 8) (size 9 to 14) (size 15 to 20)
#    0.000    1.714    1.429    4.714    2.000    1.143 
#    0.000    6.429    0.000   12.857    0.000    0.000 
#    0.000    0.000    0.000    0.000    0.000    0.000 
#
# Total GULP energy -156350.228152 kJ/mol
# GULP energy per Si atom -5583.936720 kJ/mol
# Density = 2.315599 g / cm^3
# Si number density = 23.208811 Si / 1000 Ang^3
#
#
#
# Elastic Constant Matrix: (Units=GPa)
#
#
# Indices 1 2 3 4 5 6 
#
# 1 71.1457 12.1001 0.6128 0.0000 13.4854 0.0000
# 2 12.1001 44.4672 12.9543 0.0000 2.3243 0.0001
# 3 0.6128 12.9543 74.3487 0.0000 5.7477 0.0000
# 4 0.0000 0.0000 0.0000 33.4521 0.0000 -5.3946
# 5 13.4854 2.3243 5.7477 0.0000 37.8491 0.0000
# 6 0.0000 0.0001 0.0000 -5.3946 0.0000 26.5890
#
#
#
# Elastic Compliance Matrix: (Units=1/GPa)
#
#
# Indices 1 2 3 4 5 6 
#
# 1 0.015831 -0.004325 0.001051 0.000000 -0.005535 0.000000
# 2 -0.004325 0.024899 -0.004355 0.000000 0.000673 0.000000
# 3 0.001051 -0.004355 0.014377 0.000000 -0.002290 0.000000
# 4 0.000000 0.000000 0.000000 0.030905 0.000000 0.006270
# 5 -0.005535 0.000673 -0.002290 0.000000 0.028699 0.000000
# 6 0.000000 0.000000 0.000000 0.006270 0.000000 0.038882
#
#
# Mechanical properties :
#
#
# Convention : Reuss Voigt Hill
#
# Bulk Modulus (GPa) = 25.09397 26.81067 25.95232
# Shear Modulus (GPa) = 27.45245 30.53099 28.99172
#
# Velocity S-wave (km/s) = 3.44298 3.63091 3.53819
# Velocity P-wave (km/s) = 5.16152 5.39953 5.28187
#
# Compressibility (1/GPa) = 0.03985020
#
# Stress axis : x y z
#
# Youngs Moduli (GPa) = 63.16637 40.16268 69.55420
#
# Poissons Ratio (x) = 0.17369 -0.07310
# Poissons Ratio (y) = 0.27318 0.30289
# Poissons Ratio (z) = -0.06638 0.17490
#
# Static dielectric constant tensor:
#      x y z
#    x 1.912270 0.000000 -0.036350 
#    y 0.000000 1.889240 0.000000 
#    z -0.036350 0.000000 1.920150 
# 
# From -- ./inp_files/281539.got.cif
#   From: 2010.05.17/outbox.cif.g08.bks.cpg/sg15_141_cif.got.tgz:281539.got - 2010.06.03 18:47:42.
