data_PCOD9267743
_publ_section_title
;
Structure prediction by ZEFSAII (Michael W. Deem and Ramdas Pophale) SiO2 
 PCOD9267743
Probable space group: C 2/C
;
_chemical_formula_sum "Si O2"
_cell_formula_units_Z 56
_cell_length_a 15.449201
_cell_length_b 11.461589
_cell_length_c 25.746792
_cell_angle_alpha 90.000000
_cell_angle_beta 31.062561
_cell_angle_gamma 90.000000
_cell_volume 2352.347882
_symmetry_space_group_name_H-M "C 2/C"
_symmetry_group_IT_number 15
_symmetry_cell_setting 'monoclinic'
loop_
_space_group_symop_operation_xyz
x,y,z
-x,y,1/2-z
-x,-y,-z
x,-y,1/2+z
1/2+x,1/2+y,z
1/2-x,1/2+y,1/2-z
1/2-x,1/2-y,-z
1/2+x,1/2-y,1/2+z
loop_
_atom_site_type_symbol
_atom_site_label
_atom_site_fract_x
_atom_site_fract_y
_atom_site_fract_z
Si Si1 0.632986 0.962009 0.880525
Si Si2 0.646781 0.130882 0.785620
Si Si3 0.515240 0.239816 0.380041
Si Si4 0.346147 0.449721 0.612747
Si Si5 0.297890 0.192691 0.405558
Si Si6 0.334596 0.469595 0.370405
Si Si7 0.019314 0.127646 0.348241
O O1 0.570498 0.060578 0.873010
O O2 0.674526 0.995385 0.917831
O O3 0.541870 0.840977 0.916377
O O4 0.815882 0.931605 0.761453
O O5 0.525858 0.235709 0.829748
O O6 0.815178 0.195141 0.720540
O O7 0.724680 0.047693 0.700985
O O8 0.451145 0.161756 0.365039
O O9 0.368284 0.325127 0.473995
O O10 0.500000 0.500000 0.500000
O O11 0.234540 0.370133 0.631709
O O12 0.440910 0.383602 0.611173
O O13 0.325179 0.331566 0.384952
O O14 0.500000 0.486290 0.250000
O O15 0.365795 0.553754 0.403587
#
# Coordination Sequence:
#
# PCOD9267743 Si02
#       7
#     8   8   8   8   8   8   8
#     4   9  19  36  59  83 114 156 209 253 303 374
#     4  10  19  40  63  87 129 164 207 270 318 383
#     4  10  21  37  56  89 120 160 202 255 318 368
#     4  11  21  36  61  95 128 163 207 267 325 373
#     4  11  22  35  61  86 124 158 203 261 313 375
#     4  10  20  37  62  88 115 164 215 253 309 382
#     4   9  20  36  61  89 122 165 212 257 318 380
#
# _framework density 23.806001999999999
#
# number of rings (size 3 to 8) (size 9 to 14) (size 15 to 20)
#    0.000    2.000    1.429    3.429    2.000    2.857 
#    0.000    7.143    0.000    1.714    0.000    0.000 
#    0.000    0.000    0.000    0.000    0.000    0.000 
#
# Total GULP energy -156413.091023 kJ/mol
# GULP energy per Si atom -5586.181822 kJ/mol
# Density = 2.375182 g / cm^3
# Si number density = 23.806002 Si / 1000 Ang^3
#
#
#
# Elastic Constant Matrix: (Units=GPa)
#
#
# Indices 1 2 3 4 5 6 
#
# 1 154.7562 64.8980 15.9663 0.0000 14.0754 0.0000
# 2 64.8980 126.1123 13.9707 -0.0002 11.7198 0.0000
# 3 15.9663 13.9707 65.7078 -0.0012 15.7549 0.0001
# 4 0.0000 -0.0002 -0.0012 26.2596 0.0001 6.5061
# 5 14.0754 11.7198 15.7549 0.0001 36.3999 0.0000
# 6 0.0000 0.0000 0.0001 6.5061 0.0000 40.1747
#
#
#
# Elastic Compliance Matrix: (Units=1/GPa)
#
#
# Indices 1 2 3 4 5 6 
#
# 1 0.008403 -0.004089 -0.000791 0.000000 -0.001590 0.000000
# 2 -0.004089 0.010254 -0.000864 0.000000 -0.001347 0.000000
# 3 -0.000791 -0.000864 0.017244 0.000001 -0.006880 0.000000
# 4 0.000000 0.000000 0.000001 0.039673 0.000000 -0.006425
# 5 -0.001590 -0.001347 -0.006880 0.000000 0.031499 0.000000
# 6 0.000000 0.000000 0.000000 -0.006425 0.000000 0.025932
#
#
# Mechanical properties :
#
#
# Convention : Reuss Voigt Hill
#
# Bulk Modulus (GPa) = 40.95990 59.58294 50.27142
# Shear Modulus (GPa) = 32.75890 37.34961 35.05425
#
# Velocity S-wave (km/s) = 3.71358 3.96525 3.84148
# Velocity P-wave (km/s) = 5.96914 6.78581 6.39053
#
# Compressibility (1/GPa) = 0.02441412
#
# Stress axis : x y z
#
# Youngs Moduli (GPa) = 119.01054 97.52002 57.98994
#
# Poissons Ratio (x) = 0.39872 0.04588
# Poissons Ratio (y) = 0.48659 0.05010
# Poissons Ratio (z) = 0.09415 0.08424
#
# Static dielectric constant tensor:
#      x y z
#    x 1.960640 0.000000 -0.018410 
#    y 0.000000 1.932590 0.000000 
#    z -0.018410 0.000000 1.982160 
# 
# From -- ./inp_files/295896.got.cif
#   From: 2010.05.17/outbox.cif.g08.bks.cpg/sg15_148_cif.got.tgz:295896.got - 2010.06.03 18:47:42.
