data_PCOD9267974
_publ_section_title
;
Structure prediction by ZEFSAII (Michael W. Deem and Ramdas Pophale) SiO2 
 PCOD9267974
Probable space group: C 2/C
;
_chemical_formula_sum "Si O2"
_cell_formula_units_Z 48
_cell_length_a 11.950434
_cell_length_b 10.397962
_cell_length_c 16.101921
_cell_angle_alpha 90.000000
_cell_angle_beta 77.905101
_cell_angle_gamma 90.000000
_cell_volume 1956.412684
_symmetry_space_group_name_H-M "C 2/C"
_symmetry_group_IT_number 15
_symmetry_cell_setting 'monoclinic'
loop_
_space_group_symop_operation_xyz
x,y,z
-x,y,1/2-z
-x,-y,-z
x,-y,1/2+z
1/2+x,1/2+y,z
1/2-x,1/2+y,1/2-z
1/2-x,1/2-y,-z
1/2+x,1/2-y,1/2+z
loop_
_atom_site_type_symbol
_atom_site_label
_atom_site_fract_x
_atom_site_fract_y
_atom_site_fract_z
Si Si1 0.945775 0.681244 0.456508
Si Si2 0.654027 0.443419 0.632000
Si Si3 0.818871 0.686349 0.789061
Si Si4 0.596786 0.957065 0.376028
Si Si5 0.167759 0.152471 0.960463
Si Si6 0.380445 0.280566 0.304155
O O1 0.988513 0.544104 0.413790
O O2 0.055716 0.775101 0.444479
O O3 0.903693 0.656494 0.555886
O O4 0.860512 0.732121 0.400378
O O5 0.619732 0.305727 0.675279
O O6 0.790725 0.459045 0.622535
O O7 0.631023 0.447571 0.537045
O O8 0.606960 0.565803 0.687140
O O9 0.892604 0.597286 0.717684
O O10 0.746374 0.611158 0.870956
O O11 0.722993 0.744738 0.741638
O O12 0.250000 0.250000 0.000000
O O13 0.500000 0.227862 0.250000
#
# Coordination Sequence:
#
# PCOD9267974 Si02
#       6
#     8   8   8   8   8   8
#     4  11  22  42  63  93 130 163 213 267 318 371
#     4  10  22  41  63  90 130 167 212 262 319 379
#     4  10  21  42  62  89 127 170 213 257 320 379
#     4  10  22  42  64  93 125 167 217 261 309 387
#     4  10  19  41  64  85 127 168 206 259 315 376
#     4  11  22  41  61  94 130 163 213 269 308 375
#
# _framework density 24.534700999999998
#
# number of rings (size 3 to 8) (size 9 to 14) (size 15 to 20)
#    0.000    1.667    5.000    0.000    0.000    4.667 
#   15.000    5.833    0.000    0.000    0.000    0.000 
#    0.000    0.000    0.000    0.000    0.000    0.000 
#
# Total GULP energy -134253.697148 kJ/mol
# GULP energy per Si atom -5593.904048 kJ/mol
# Density = 2.447886 g / cm^3
# Si number density = 24.534701 Si / 1000 Ang^3
#
#
#
# Elastic Constant Matrix: (Units=GPa)
#
#
# Indices 1 2 3 4 5 6 
#
# 1 60.8280 -2.5232 26.4388 0.0000 11.6981 0.0000
# 2 -2.5232 47.6205 36.3561 0.0000 -5.0061 0.0000
# 3 26.4388 36.3561 180.4338 0.0000 -0.1923 0.0000
# 4 0.0000 0.0000 0.0000 45.7169 0.0000 -2.4913
# 5 11.6981 -5.0061 -0.1923 0.0000 37.6745 0.0000
# 6 0.0000 0.0000 0.0000 -2.4913 0.0000 22.4499
#
#
#
# Elastic Compliance Matrix: (Units=1/GPa)
#
#
# Indices 1 2 3 4 5 6 
#
# 1 0.019120 0.003041 -0.003420 0.000000 -0.005550 0.000000
# 2 0.003041 0.025711 -0.005623 0.000000 0.002443 0.000000
# 3 -0.003420 -0.005623 0.007177 0.000000 0.000351 0.000000
# 4 0.000000 0.000000 0.000000 0.022007 0.000000 0.002442
# 5 -0.005550 0.002443 0.000351 0.000000 0.028593 0.000000
# 6 0.000000 0.000000 0.000000 0.002442 0.000000 0.044815
#
#
# Mechanical properties :
#
#
# Convention : Reuss Voigt Hill
#
# Bulk Modulus (GPa) = 24.99904 45.49175 35.24539
# Shear Modulus (GPa) = 28.94164 36.40895 32.67529
#
# Velocity S-wave (km/s) = 3.43829 3.85642 3.65334
# Velocity P-wave (km/s) = 5.09645 6.19769 5.67385
#
# Compressibility (1/GPa) = 0.04000153
#
# Stress axis : x y z
#
# Youngs Moduli (GPa) = 52.30152 38.89450 139.33740
#
# Poissons Ratio (x) = -0.11827 0.47657
# Poissons Ratio (y) = -0.15904 0.78356
# Poissons Ratio (z) = 0.17888 0.21872
#
# Static dielectric constant tensor:
#      x y z
#    x 1.953830 0.000000 -0.015600 
#    y 0.000000 1.979630 0.000000 
#    z -0.015600 0.000000 1.957210 
# 
# From -- ./inp_files/151944.got.cif
#   From: 2010.05.17/outbox.cif.g08.bks.cpg/sg15_76_cif.got.tgz:151944.got - 2010.06.03 18:47:42.
