data_PCOD9267342
_publ_section_title
;
Structure prediction by ZEFSAII (Michael W. Deem and Ramdas Pophale) SiO2 
 PCOD9267342
Probable space group: C 2/C
;
_chemical_formula_sum "Si O2"
_cell_formula_units_Z 56
_cell_length_a 23.895525
_cell_length_b 10.688071
_cell_length_c 14.953190
_cell_angle_alpha 90.000000
_cell_angle_beta 132.935799
_cell_angle_gamma 90.000000
_cell_volume 2795.957126
_symmetry_space_group_name_H-M "C 2/C"
_symmetry_group_IT_number 15
_symmetry_cell_setting 'monoclinic'
loop_
_space_group_symop_operation_xyz
x,y,z
-x,y,1/2-z
-x,-y,-z
x,-y,1/2+z
1/2+x,1/2+y,z
1/2-x,1/2+y,1/2-z
1/2-x,1/2-y,-z
1/2+x,1/2-y,1/2+z
loop_
_atom_site_type_symbol
_atom_site_label
_atom_site_fract_x
_atom_site_fract_y
_atom_site_fract_z
Si Si1 0.971018 0.003185 0.570770
Si Si2 0.500000 0.701229 0.250000
Si Si3 0.836298 0.213209 0.129187
Si Si4 0.151977 0.697337 0.469814
Si Si5 0.797961 0.754922 0.784812
Si Si6 0.289545 0.517577 0.844466
Si Si7 0.225192 0.044427 0.981039
Si Si8 0.000000 0.784852 0.250000
O O1 0.996893 0.884782 0.657739
O O2 0.879089 0.994905 0.463771
O O3 0.995925 0.123016 0.658572
O O4 0.000000 0.000000 0.500000
O O5 0.413591 0.759668 0.163359
O O6 0.839827 0.251075 0.236182
O O7 0.831772 0.061211 0.116869
O O8 0.750000 0.250000 0.000000
O O9 0.150100 0.723011 0.573331
O O10 0.185830 0.824102 0.461875
O O11 0.205925 0.580287 0.508385
O O12 0.071304 0.693361 0.335560
O O13 0.731031 0.652241 0.715823
O O14 0.768735 0.896863 0.763669
O O15 0.246435 0.503667 0.892000
#
# Coordination Sequence:
#
# PCOD9267342 Si02
#       8
#     8   4   8   8   8   8   8   4
#     4  11  21  36  61  92 132 167 221 287 337 380
#     4  11  22  36  61  96 126 167 228 273 338 395
#     4  12  22  40  65  91 133 173 215 283 334 408
#     4  10  22  37  63  90 128 170 215 276 331 406
#     4  11  22  38  65  95 133 167 226 272 346 405
#     4  11  21  40  61  99 127 170 219 279 336 410
#     4  10  19  39  60  91 122 168 213 264 340 385
#     4  11  20  40  55  96 134 165 230 273 334 411
#
# _framework density 20.028919999999999
#
# number of rings (size 3 to 8) (size 9 to 14) (size 15 to 20)
#    0.000    1.143    5.714    2.571    0.000    3.429 
#    0.000    0.714    0.000    0.857    0.000    0.000 
#    0.000    0.000    0.000    0.000    0.000    0.000 
#
# Total GULP energy -156026.817799 kJ/mol
# GULP energy per Si atom -5572.386350 kJ/mol
# Density = 1.998333 g / cm^3
# Si number density = 20.028920 Si / 1000 Ang^3
#
#
#
# Elastic Constant Matrix: (Units=GPa)
#
#
# Indices 1 2 3 4 5 6 
#
# 1 106.7461 22.0057 57.6932 0.0000 -12.6464 0.0000
# 2 22.0057 55.7795 23.5173 0.0000 11.6202 0.0000
# 3 57.6932 23.5173 101.9573 0.0000 5.4555 0.0000
# 4 0.0000 0.0000 0.0000 33.4911 0.0000 -0.4640
# 5 -12.6464 11.6202 5.4555 0.0000 34.7721 0.0000
# 6 0.0000 0.0000 0.0000 -0.4640 0.0000 20.4505
#
#
#
# Elastic Compliance Matrix: (Units=1/GPa)
#
#
# Indices 1 2 3 4 5 6 
#
# 1 0.015847 -0.004504 -0.008387 0.000000 0.008584 0.000000
# 2 -0.004504 0.022448 -0.002158 0.000000 -0.008801 0.000000
# 3 -0.008387 -0.002158 0.015305 0.000000 -0.004730 0.000000
# 4 0.000000 0.000000 0.000000 0.029868 0.000000 0.000678
# 5 0.008584 -0.008801 -0.004730 0.000000 0.035564 0.000000
# 6 0.000000 0.000000 0.000000 0.000678 0.000000 0.048914
#
#
# Mechanical properties :
#
#
# Convention : Reuss Voigt Hill
#
# Bulk Modulus (GPa) = 42.55225 52.32392 47.43808
# Shear Modulus (GPa) = 24.28619 28.49387 26.39003
#
# Velocity S-wave (km/s) = 3.48596 3.77588 3.63381
# Velocity P-wave (km/s) = 6.12324 6.72239 6.42980
#
# Compressibility (1/GPa) = 0.02350052
#
# Stress axis : x y z
#
# Youngs Moduli (GPa) = 63.10497 44.54738 65.33788
#
# Poissons Ratio (x) = 0.20063 0.54801
# Poissons Ratio (y) = 0.28421 0.14103
# Poissons Ratio (z) = 0.52929 0.09615
#
# Static dielectric constant tensor:
#      x y z
#    x 1.797890 0.000000 0.024340 
#    y 0.000000 1.759600 0.000000 
#    z 0.024340 0.000000 1.759440 
# 
# From -- ./inp_files/177649.got.cif
#   From: 2010.05.17/outbox.cif.g08.bks.cpg/sg15_89_cif.got.tgz:177649.got - 2010.06.03 18:47:42.
