data_PCOD9267056
_publ_section_title
;
Structure prediction by ZEFSAII (Michael W. Deem and Ramdas Pophale) SiO2 
 PCOD9267056
Probable space group: C 2/C
;
_chemical_formula_sum "Si O2"
_cell_formula_units_Z 56
_cell_length_a 9.027448
_cell_length_b 20.545631
_cell_length_c 18.514771
_cell_angle_alpha 90.000000
_cell_angle_beta 52.579299
_cell_angle_gamma 90.000000
_cell_volume 2727.281963
_symmetry_space_group_name_H-M "C 2/C"
_symmetry_group_IT_number 15
_symmetry_cell_setting 'monoclinic'
loop_
_space_group_symop_operation_xyz
x,y,z
-x,y,1/2-z
-x,-y,-z
x,-y,1/2+z
1/2+x,1/2+y,z
1/2-x,1/2+y,1/2-z
1/2-x,1/2-y,-z
1/2+x,1/2-y,1/2+z
loop_
_atom_site_type_symbol
_atom_site_label
_atom_site_fract_x
_atom_site_fract_y
_atom_site_fract_z
Si Si1 0.805128 0.398199 0.234889
Si Si2 0.222662 0.949415 0.573459
Si Si3 0.121214 0.665702 0.551396
Si Si4 0.289275 0.766445 0.330418
Si Si5 0.500000 0.477520 0.250000
Si Si6 0.582150 0.942028 0.571472
Si Si7 0.500000 0.992862 0.750000
Si Si8 0.415229 0.798926 0.970722
O O1 0.760110 0.331541 0.290370
O O2 0.665808 0.427857 0.218287
O O3 0.833955 0.456672 0.282260
O O4 0.996364 0.384063 0.135758
O O5 0.228714 0.877889 0.536329
O O6 0.391712 0.949492 0.581679
O O7 0.276972 0.003206 0.498267
O O8 0.046567 0.975464 0.669342
O O9 0.204065 0.713439 0.586901
O O10 0.976766 0.696676 0.536748
O O11 0.500000 0.742070 0.250000
O O12 0.111117 0.720249 0.373616
O O13 0.538742 0.951652 0.667812
O O14 0.650746 0.870169 0.533167
O O15 0.250000 0.750000 0.000000
#
# Coordination Sequence:
#
# PCOD9267056 Si02
#       8
#     8   8   8   8   4   8   4   8
#     4  11  21  37  68  91 122 159 217 264 315 386
#     4  10  19  38  64  93 122 163 207 256 331 380
#     4  10  20  44  69  85 122 175 211 263 318 388
#     4  10  22  44  65  92 122 172 221 260 307 392
#     4  12  22  32  59 103 126 154 202 268 328 390
#     4  10  21  40  64  86 131 166 201 265 322 378
#     4  12  18  44  65  93 122 160 214 260 330 378
#     4  11  25  42  62  95 128 173 217 261 322 381
#
# _framework density 20.533263000000002
#
# number of rings (size 3 to 8) (size 9 to 14) (size 15 to 20)
#    0.000    1.429    5.000    2.143    4.000    0.000 
#   12.857    1.429    0.000    0.000    0.000    0.000 
#    0.000    0.000    0.000    0.000    0.000    0.000 
#
# Total GULP energy -156262.762081 kJ/mol
# GULP energy per Si atom -5580.812931 kJ/mol
# Density = 2.048653 g / cm^3
# Si number density = 20.533263 Si / 1000 Ang^3
#
#
#
# Elastic Constant Matrix: (Units=GPa)
#
#
# Indices 1 2 3 4 5 6 
#
# 1 36.6881 28.0533 9.2246 0.0000 1.1622 0.0000
# 2 28.0533 68.2269 16.4715 0.0000 4.9164 0.0000
# 3 9.2246 16.4715 92.4410 0.0000 17.3036 0.0000
# 4 0.0000 0.0000 0.0000 -21.8309 0.0000 -14.5962
# 5 1.1622 4.9164 17.3036 0.0000 30.9828 0.0000
# 6 0.0000 0.0000 0.0000 -14.5962 0.0000 16.6978
#
#
#
# Elastic Compliance Matrix: (Units=1/GPa)
#
#
# Indices 1 2 3 4 5 6 
#
# 1 0.039962 -0.016217 -0.001451 0.000000 0.001885 0.000000
# 2 -0.016217 0.021925 -0.001956 0.000000 -0.001779 0.000000
# 3 -0.001451 -0.001956 0.012555 0.000000 -0.006647 0.000000
# 4 0.000000 0.000000 0.000000 -0.028910 0.000000 -0.025271
# 5 0.001885 -0.001779 -0.006647 0.000000 0.036200 0.000000
# 6 0.000000 0.000000 0.000000 -0.025271 0.000000 0.037797
#
#
# Mechanical properties :
#
#
# Convention : Reuss Voigt Hill
#
# Bulk Modulus (GPa) = 28.41256 33.87275 31.14266
# Shear Modulus (GPa) = 29.32400 14.74372 22.03386
#
# Velocity S-wave (km/s) = 3.78315 2.68253 3.27935
# Velocity P-wave (km/s) = 5.74024 5.11146 5.43495
#
# Compressibility (1/GPa) = 0.03519570
#
# Stress axis : x y z
#
# Youngs Moduli (GPa) = 25.02366 45.60934 79.64818
#
# Poissons Ratio (x) = 0.73965 0.11557
# Poissons Ratio (y) = 0.40581 0.15575
# Poissons Ratio (z) = 0.03631 0.08919
#
# Static dielectric constant tensor:
#      x y z
#    x 1.788930 0.000000 0.009970 
#    y 0.000000 1.794390 0.000000 
#    z 0.009970 0.000000 1.754130 
# 
# From -- ./inp_files/192070.got.cif
#   From: 2010.05.17/outbox.cif.g08.bks.cpg/sg15_97_cif.got.tgz:192070.got - 2010.06.03 18:47:42.
