data_PCOD9267400
_publ_section_title
;
Structure prediction by ZEFSAII (Michael W. Deem and Ramdas Pophale) SiO2 
 PCOD9267400
Probable space group: C 2/C
;
_chemical_formula_sum "Si O2"
_cell_formula_units_Z 60
_cell_length_a 9.556731
_cell_length_b 25.754754
_cell_length_c 12.207628
_cell_angle_alpha 90.000000
_cell_angle_beta 84.197578
_cell_angle_gamma 90.000000
_cell_volume 2989.284148
_symmetry_space_group_name_H-M "C 2/C"
_symmetry_group_IT_number 15
_symmetry_cell_setting 'monoclinic'
loop_
_space_group_symop_operation_xyz
x,y,z
-x,y,1/2-z
-x,-y,-z
x,-y,1/2+z
1/2+x,1/2+y,z
1/2-x,1/2+y,1/2-z
1/2-x,1/2-y,-z
1/2+x,1/2-y,1/2+z
loop_
_atom_site_type_symbol
_atom_site_label
_atom_site_fract_x
_atom_site_fract_y
_atom_site_fract_z
Si Si1 0.919931 0.648890 0.436095
Si Si2 0.500000 0.771936 0.750000
Si Si3 0.591525 0.134398 0.632559
Si Si4 0.839377 0.212089 0.571972
Si Si5 0.692375 0.577668 0.409073
Si Si6 0.689549 0.906543 0.838968
Si Si7 0.451482 0.651459 0.377182
Si Si8 0.846769 0.477749 0.478707
O O1 0.910251 0.692500 0.342813
O O2 0.775263 0.620133 0.475106
O O3 0.998003 0.661063 0.543403
O O4 0.029705 0.608033 0.373512
O O5 0.403625 0.739940 0.673502
O O6 0.500000 0.135106 0.750000
O O7 0.735923 0.166723 0.623600
O O8 0.626452 0.074418 0.595402
O O9 0.750000 0.250000 0.500000
O O10 0.959013 0.189956 0.479386
O O11 0.764902 0.585979 0.286566
O O12 0.535254 0.598746 0.403151
O O13 0.740748 0.520640 0.440003
O O14 0.786574 0.860984 0.878711
O O15 0.720656 0.957866 0.903722
O O16 0.500000 0.667659 0.250000
O O17 0.000000 0.500000 0.500000
#
# Coordination Sequence:
#
# PCOD9267400 Si02
#       8
#     8   4   8   8   8   8   8   8
#     4  11  20  41  68  96 128 172 226 283 319 403
#     4  12  24  42  74  96 128 184 228 278 356 402
#     4  11  25  44  68  99 139 173 227 282 344 401
#     4  12  25  48  70  96 138 184 227 290 352 406
#     4  11  22  35  68  99 131 168 226 276 322 408
#     4  10  19  39  62  89 136 171 221 262 335 396
#     4  10  23  43  67  99 134 177 221 276 337 410
#     4  11  22  36  65 100 131 179 221 275 339 408
#
# _framework density 20.071695999999999
#
# number of rings (size 3 to 8) (size 9 to 14) (size 15 to 20)
#    0.000    1.067    8.000    0.000    3.733    2.133 
#    0.000    1.333    1.467    0.000    0.000    0.000 
#    0.000    0.000    0.000    0.000    0.000    0.000 
#
# Total GULP energy -167156.062022 kJ/mol
# GULP energy per Si atom -5571.868734 kJ/mol
# Density = 2.002601 g / cm^3
# Si number density = 20.071696 Si / 1000 Ang^3
#
#
#
# Elastic Constant Matrix: (Units=GPa)
#
#
# Indices 1 2 3 4 5 6 
#
# 1 63.2840 37.2788 30.9526 0.0000 4.6935 0.0000
# 2 37.2788 111.1664 51.7047 0.0000 9.1980 0.0000
# 3 30.9526 51.7047 95.8579 0.0000 21.8449 0.0000
# 4 0.0000 0.0000 0.0000 34.5794 0.0000 14.8989
# 5 4.6935 9.1980 21.8449 0.0000 27.2221 0.0000
# 6 0.0000 0.0000 0.0000 14.8989 0.0000 38.3192
#
#
#
# Elastic Compliance Matrix: (Units=1/GPa)
#
#
# Indices 1 2 3 4 5 6 
#
# 1 0.020804 -0.005092 -0.004339 0.000000 0.001616 0.000000
# 2 -0.005092 0.013298 -0.005758 0.000000 0.001005 0.000000
# 3 -0.004339 -0.005758 0.017531 0.000000 -0.011374 0.000000
# 4 0.000000 0.000000 0.000000 0.034738 0.000000 -0.013507
# 5 0.001616 0.001005 -0.011374 0.000000 0.045244 0.000000
# 6 0.000000 0.000000 0.000000 -0.013507 0.000000 0.031348
#
#
# Mechanical properties :
#
#
# Convention : Reuss Voigt Hill
#
# Bulk Modulus (GPa) = 47.04741 56.68673 51.86707
# Shear Modulus (GPa) = 24.94690 30.04895 27.49792
#
# Velocity S-wave (km/s) = 3.52929 3.87341 3.70535
# Velocity P-wave (km/s) = 6.33233 6.95038 6.64854
#
# Compressibility (1/GPa) = 0.02125516
#
# Stress axis : x y z
#
# Youngs Moduli (GPa) = 48.06823 75.20058 57.04204
#
# Poissons Ratio (x) = 0.38291 0.24752
# Poissons Ratio (y) = 0.24475 0.32842
# Poissons Ratio (z) = 0.20858 0.43297
#
# Static dielectric constant tensor:
#      x y z
#    x 1.738800 0.000000 0.043770 
#    y 0.000000 1.787710 0.000000 
#    z 0.043770 0.000000 1.743810 
# 
# From -- ./inp_files/81357.got.cif
#   From: 2010.05.17/outbox.cif.g08.bks.cpg/sg15_41_cif.got.tgz:81357.got - 2010.06.03 18:47:42.
