data_PCOD9267559
_publ_section_title
;
Structure prediction by ZEFSAII (Michael W. Deem and Ramdas Pophale) SiO2 
 PCOD9267559
Probable space group: C 2/C
;
_chemical_formula_sum "Si O2"
_cell_formula_units_Z 56
_cell_length_a 10.814416
_cell_length_b 17.475305
_cell_length_c 12.150203
_cell_angle_alpha 90.000000
_cell_angle_beta 98.845063
_cell_angle_gamma 90.000000
_cell_volume 2268.901680
_symmetry_space_group_name_H-M "C 2/C"
_symmetry_group_IT_number 15
_symmetry_cell_setting 'monoclinic'
loop_
_space_group_symop_operation_xyz
x,y,z
-x,y,1/2-z
-x,-y,-z
x,-y,1/2+z
1/2+x,1/2+y,z
1/2-x,1/2+y,1/2-z
1/2-x,1/2-y,-z
1/2+x,1/2-y,1/2+z
loop_
_atom_site_type_symbol
_atom_site_label
_atom_site_fract_x
_atom_site_fract_y
_atom_site_fract_z
Si Si1 0.343784 0.037008 0.115390
Si Si2 0.000000 0.020449 0.250000
Si Si3 0.416662 0.873056 0.911658
Si Si4 0.199147 0.180987 0.911922
Si Si5 0.000000 0.251252 0.750000
Si Si6 0.734015 0.998638 0.651357
Si Si7 0.546441 0.180658 0.638673
Si Si8 0.117237 0.143463 0.108774
O O1 0.488187 0.058465 0.111714
O O2 0.323253 0.991180 0.228252
O O3 0.263002 0.115096 0.125356
O O4 0.298801 0.009455 0.986897
O O5 0.122798 0.977237 0.308585
O O6 0.044842 0.077169 0.159757
O O7 0.464574 0.803113 0.847671
O O8 0.282304 0.904688 0.860218
O O9 0.442613 0.847057 0.038603
O O10 0.125379 0.207803 0.796631
O O11 0.324526 0.140467 0.884527
O O12 0.250000 0.250000 0.000000
O O13 0.094709 0.144204 0.975226
O O14 0.500000 0.158026 0.750000
O O15 0.580203 0.271638 0.644953
#
# Coordination Sequence:
#
# PCOD9267559 Si02
#       8
#     8   4   8   8   4   8   8   8
#     4  11  23  44  71  95 132 177 236 284 344 407
#     4  10  24  44  67  92 127 178 232 274 334 410
#     4  12  22  40  69 100 131 178 218 277 351 413
#     4  10  20  37  61  92 133 171 215 263 333 409
#     4  12  20  36  67  96 127 176 226 258 340 426
#     4  11  26  42  69  98 129 182 230 292 335 403
#     4  11  22  39  66 101 139 172 216 277 338 412
#     4  10  19  39  66  88 130 179 215 265 339 405
#
# _framework density 24.681545
#
# number of rings (size 3 to 8) (size 9 to 14) (size 15 to 20)
#    0.000    1.143    6.429    1.286    4.000    3.429 
#    2.571    2.143    0.000    0.000    0.000    0.000 
#    0.000    0.000    0.000    0.000    0.000    0.000 
#
# Total GULP energy -155876.932941 kJ/mol
# GULP energy per Si atom -5567.033319 kJ/mol
# Density = 2.462537 g / cm^3
# Si number density = 24.681545 Si / 1000 Ang^3
#
#
#
# Elastic Constant Matrix: (Units=GPa)
#
#
# Indices 1 2 3 4 5 6 
#
# 1 45.9199 10.2400 24.0895 0.0000 -6.5952 0.0000
# 2 10.2400 34.0347 49.8427 0.0000 -11.3567 0.0000
# 3 24.0895 49.8427 210.9413 0.0000 -28.0304 0.0000
# 4 0.0000 0.0000 0.0000 116.3537 0.0000 -31.5986
# 5 -6.5952 -11.3567 -28.0304 0.0000 50.5979 0.0000
# 6 0.0000 0.0000 0.0000 -31.5986 0.0000 52.9263
#
#
#
# Elastic Compliance Matrix: (Units=1/GPa)
#
#
# Indices 1 2 3 4 5 6 
#
# 1 0.023747 -0.004585 -0.001462 0.000000 0.001256 0.000000
# 2 -0.004585 0.046800 -0.009951 0.000000 0.004394 0.000000
# 3 -0.001462 -0.009951 0.007488 0.000000 0.001724 0.000000
# 4 0.000000 0.000000 0.000000 0.010258 0.000000 0.006124
# 5 0.001256 0.004394 0.001724 0.000000 0.021869 0.000000
# 6 0.000000 0.000000 0.000000 0.006124 0.000000 0.022551
#
#
# Mechanical properties :
#
#
# Convention : Reuss Voigt Hill
#
# Bulk Modulus (GPa) = 21.72021 51.02670 36.37345
# Shear Modulus (GPa) = 27.76963 57.75717 42.76340
#
# Velocity S-wave (km/s) = 3.35792 4.84270 4.16697
# Velocity P-wave (km/s) = 4.88400 7.21026 6.15798
#
# Compressibility (1/GPa) = 0.04604007
#
# Stress axis : x y z
#
# Youngs Moduli (GPa) = 42.11123 21.36751 133.54855
#
# Poissons Ratio (x) = 0.09797 0.19518
# Poissons Ratio (y) = 0.19308 1.32891
# Poissons Ratio (z) = 0.06155 0.21262
#
# Static dielectric constant tensor:
#      x y z
#    x 2.501860 0.000000 0.542850 
#    y 0.000000 2.333270 0.000000 
#    z 0.542850 0.000000 2.583870 
# 
# From -- ./inp_files/89066.got.cif
#   From: 2010.05.17/outbox.cif.g08.bks.cpg/sg15_45_cif.got.tgz:89066.got - 2010.06.03 18:47:42.
