data_PCOD9267180
_publ_section_title
;
Structure prediction by ZEFSAII (Michael W. Deem and Ramdas Pophale) SiO2 
 PCOD9267180
Probable space group: C 2/C
;
_chemical_formula_sum "Si O2"
_cell_formula_units_Z 48
_cell_length_a 9.941668
_cell_length_b 19.849067
_cell_length_c 11.166500
_cell_angle_alpha 90.000000
_cell_angle_beta 113.664881
_cell_angle_gamma 90.000000
_cell_volume 2018.220679
_symmetry_space_group_name_H-M "C 2/C"
_symmetry_group_IT_number 15
_symmetry_cell_setting 'monoclinic'
loop_
_space_group_symop_operation_xyz
x,y,z
-x,y,1/2-z
-x,-y,-z
x,-y,1/2+z
1/2+x,1/2+y,z
1/2-x,1/2+y,1/2-z
1/2-x,1/2-y,-z
1/2+x,1/2-y,1/2+z
loop_
_atom_site_type_symbol
_atom_site_label
_atom_site_fract_x
_atom_site_fract_y
_atom_site_fract_z
Si Si1 0.899029 0.779258 0.867394
Si Si2 0.216040 0.184687 0.409579
Si Si3 0.499406 0.875959 0.108552
Si Si4 0.345663 0.470872 0.395357
Si Si5 0.970720 0.852559 0.116870
Si Si6 0.742511 0.029637 0.597777
O O1 0.776441 0.798312 0.727948
O O2 0.929670 0.699616 0.871457
O O3 0.044262 0.822384 0.878451
O O4 0.885398 0.805584 0.995321
O O5 0.250000 0.250000 0.500000
O O6 0.341059 0.133706 0.491770
O O7 0.500000 0.893070 0.250000
O O8 0.593387 0.931061 0.072555
O O9 0.500000 0.500000 0.500000
O O10 0.383812 0.391764 0.381867
O O11 0.242105 0.489848 0.470895
O O12 0.294880 0.500672 0.247154
O O13 0.864284 0.913024 0.116972
O O14 0.000000 0.813867 0.250000
#
# Coordination Sequence:
#
# PCOD9267180 Si02
#       6
#     8   8   8   8   8   8
#     4  10  19  38  66  99 131 175 234 274 330 421
#     4   9  18  36  59  95 131 175 224 266 319 423
#     4  11  22  38  63  95 143 185 214 272 364 423
#     4   9  19  42  67  97 128 171 240 291 341 404
#     4   9  20  36  66 102 130 170 222 293 348 392
#     4  10  22  41  65  95 133 177 225 293 350 401
#
# _framework density 23.783325000000001
#
# number of rings (size 3 to 8) (size 9 to 14) (size 15 to 20)
#    0.000    2.333    3.333    1.500    4.667    0.667 
#   12.000    1.667    0.000    0.000    0.000    1.167 
#    0.000    0.000    0.000    0.000    0.000    0.000 
#
# Total GULP energy -133842.405936 kJ/mol
# GULP energy per Si atom -5576.766914 kJ/mol
# Density = 2.372919 g / cm^3
# Si number density = 23.783325 Si / 1000 Ang^3
#
#
#
# Elastic Constant Matrix: (Units=GPa)
#
#
# Indices 1 2 3 4 5 6 
#
# 1 99.1030 42.5779 43.1764 0.0000 -11.8520 0.0000
# 2 42.5779 52.4094 60.6323 0.0000 -20.1350 0.0000
# 3 43.1764 60.6323 233.8624 0.0000 -24.4460 0.0000
# 4 0.0000 0.0000 0.0000 34.8558 0.0000 -7.9800
# 5 -11.8520 -20.1350 -24.4460 0.0000 39.2159 0.0000
# 6 0.0000 0.0000 0.0000 -7.9800 0.0000 35.0710
#
#
#
# Elastic Compliance Matrix: (Units=1/GPa)
#
#
# Indices 1 2 3 4 5 6 
#
# 1 0.015710 -0.014276 0.000568 0.000000 -0.002228 0.000000
# 2 -0.014276 0.044722 -0.007498 0.000000 0.013973 0.000000
# 3 0.000568 -0.007498 0.006130 0.000000 0.000143 0.000000
# 4 0.000000 0.000000 0.000000 0.030266 0.000000 0.006887
# 5 -0.002228 0.013973 0.000143 0.000000 0.032090 0.000000
# 6 0.000000 0.000000 0.000000 0.006887 0.000000 0.030081
#
#
# Mechanical properties :
#
#
# Convention : Reuss Voigt Hill
#
# Bulk Modulus (GPa) = 41.40957 75.34978 58.37968
# Shear Modulus (GPa) = 23.87070 37.76107 30.81589
#
# Velocity S-wave (km/s) = 3.17152 3.98893 3.60348
# Velocity P-wave (km/s) = 5.55521 7.27777 6.47404
#
# Compressibility (1/GPa) = 0.02414900
#
# Stress axis : x y z
#
# Youngs Moduli (GPa) = 63.65342 22.36046 163.12660
#
# Poissons Ratio (x) = 0.31922 -0.09265
# Poissons Ratio (y) = 0.90872 1.22320
# Poissons Ratio (z) = -0.03615 0.16767
#
# Static dielectric constant tensor:
#      x y z
#    x 2.166370 0.000000 -0.001130 
#    y 0.000000 1.943210 0.000000 
#    z -0.001130 0.000000 2.021480 
# 
# From -- ./inp_files/80278.got.cif
#   From: 2010.05.17/outbox.cif.g08.bks.cpg/sg15_41_cif.got.tgz:80278.got - 2010.06.03 18:47:42.
