data_PCOD9267725
_publ_section_title
;
Structure prediction by ZEFSAII (Michael W. Deem and Ramdas Pophale) SiO2 
 PCOD9267725
Probable space group: C 2/C
;
_chemical_formula_sum "Si O2"
_cell_formula_units_Z 48
_cell_length_a 11.415451
_cell_length_b 15.123082
_cell_length_c 25.533994
_cell_angle_alpha 90.000000
_cell_angle_beta 33.340020
_cell_angle_gamma 90.000000
_cell_volume 2422.724199
_symmetry_space_group_name_H-M "C 2/C"
_symmetry_group_IT_number 15
_symmetry_cell_setting 'monoclinic'
loop_
_space_group_symop_operation_xyz
x,y,z
-x,y,1/2-z
-x,-y,-z
x,-y,1/2+z
1/2+x,1/2+y,z
1/2-x,1/2+y,1/2-z
1/2-x,1/2-y,-z
1/2+x,1/2-y,1/2+z
loop_
_atom_site_type_symbol
_atom_site_label
_atom_site_fract_x
_atom_site_fract_y
_atom_site_fract_z
Si Si1 0.601543 0.679980 0.525457
Si Si2 0.210455 0.749312 0.145510
Si Si3 0.684813 0.260121 0.642612
Si Si4 0.991871 0.082855 0.842159
Si Si5 0.176938 0.437969 0.960876
Si Si6 0.040757 0.355217 0.362230
O O1 0.750000 0.750000 0.500000
O O2 0.688652 0.682863 0.434066
O O3 0.360296 0.712600 0.612299
O O4 0.587678 0.596903 0.568472
O O5 0.370662 0.779995 0.130908
O O6 0.000000 0.709386 0.250000
O O7 0.127003 0.840008 0.147637
O O8 0.500000 0.291751 0.750000
O O9 0.804765 0.341758 0.571351
O O10 0.587857 0.193275 0.635755
O O11 0.243050 0.096865 0.739087
O O12 0.898664 0.987068 0.865189
O O13 0.000000 0.500000 0.000000
O O14 0.104038 0.419549 0.047923
#
# Coordination Sequence:
#
# PCOD9267725 Si02
#       6
#     8   8   8   8   8   8
#     4  10  19  40  62  92 125 169 212 256 325 396
#     4   9  18  34  62  90 125 168 210 263 319 382
#     4  12  25  41  69  96 128 172 222 262 325 403
#     4  10  21  39  62  92 131 167 204 274 330 376
#     4  12  24  40  66 100 128 164 219 278 321 378
#     4  11  22  41  63  94 134 167 214 272 328 380
#
# _framework density 19.812407
#
# number of rings (size 3 to 8) (size 9 to 14) (size 15 to 20)
#    0.000    1.333    5.000    1.500    2.333    0.000 
#    0.000    0.833    0.000    0.000    0.000    0.000 
#    0.000    0.000    0.000    0.000    0.000    0.000 
#
# Total GULP energy -133850.861336 kJ/mol
# GULP energy per Si atom -5577.119222 kJ/mol
# Density = 1.976731 g / cm^3
# Si number density = 19.812407 Si / 1000 Ang^3
#
#
#
# Elastic Constant Matrix: (Units=GPa)
#
#
# Indices 1 2 3 4 5 6 
#
# 1 77.9775 14.4850 15.3064 0.0009 -15.5875 -0.0001
# 2 14.4850 40.7246 2.6949 0.0000 0.3169 0.0002
# 3 15.3064 2.6949 92.9700 -0.0001 14.0189 0.0013
# 4 0.0009 0.0000 -0.0001 16.1664 0.0003 0.7209
# 5 -15.5875 0.3169 14.0189 0.0003 32.6938 0.0002
# 6 -0.0001 0.0002 0.0013 0.7209 0.0002 14.3717
#
#
#
# Elastic Compliance Matrix: (Units=1/GPa)
#
#
# Indices 1 2 3 4 5 6 
#
# 1 0.016619 -0.005720 -0.004034 -0.000001 0.009709 0.000000
# 2 -0.005720 0.026571 0.000664 0.000000 -0.003269 0.000000
# 3 -0.004034 0.000664 0.012500 0.000000 -0.007290 -0.000001
# 4 -0.000001 0.000000 0.000000 0.061995 -0.000001 -0.003110
# 5 0.009709 -0.003269 -0.007290 -0.000001 0.038373 0.000000
# 6 0.000000 0.000000 -0.000001 -0.003110 0.000000 0.069737
#
#
# Mechanical properties :
#
#
# Convention : Reuss Voigt Hill
#
# Bulk Modulus (GPa) = 26.65854 30.73831 28.69843
# Shear Modulus (GPa) = 19.49470 24.59211 22.04341
#
# Velocity S-wave (km/s) = 3.14022 3.52696 3.33919
# Velocity P-wave (km/s) = 5.16069 5.66871 5.42065
#
# Compressibility (1/GPa) = 0.03751143
#
# Stress axis : x y z
#
# Youngs Moduli (GPa) = 60.17049 37.63487 79.99763
#
# Poissons Ratio (x) = 0.21526 0.32274
# Poissons Ratio (y) = 0.34416 -0.05316
# Poissons Ratio (z) = 0.24275 -0.02501
#
# Static dielectric constant tensor:
#      x y z
#    x 1.712890 0.000000 0.017600 
#    y 0.000000 1.654580 0.000000 
#    z 0.017600 0.000000 1.738300 
# 
# From -- ./inp_files/238246.got.cif
#   From: 2010.05.17/outbox.cif.g08.bks.cpg/sg15_120_cif.got.tgz:238246.got - 2010.06.03 18:47:42.
