data_PCOD9267637
_publ_section_title
;
Structure prediction by ZEFSAII (Michael W. Deem and Ramdas Pophale) SiO2 
 PCOD9267637
Probable space group: C 2/C
;
_chemical_formula_sum "Si O2"
_cell_formula_units_Z 40
_cell_length_a 7.956480
_cell_length_b 20.947099
_cell_length_c 14.486711
_cell_angle_alpha 90.000000
_cell_angle_beta 133.947163
_cell_angle_gamma 90.000000
_cell_volume 1738.341692
_symmetry_space_group_name_H-M "C 2/C"
_symmetry_group_IT_number 15
_symmetry_cell_setting 'monoclinic'
loop_
_space_group_symop_operation_xyz
x,y,z
-x,y,1/2-z
-x,-y,-z
x,-y,1/2+z
1/2+x,1/2+y,z
1/2-x,1/2+y,1/2-z
1/2-x,1/2-y,-z
1/2+x,1/2-y,1/2+z
loop_
_atom_site_type_symbol
_atom_site_label
_atom_site_fract_x
_atom_site_fract_y
_atom_site_fract_z
Si Si1 0.513323 0.720673 0.863205
Si Si2 0.252441 0.347615 0.708017
Si Si3 0.739307 0.595963 0.693673
Si Si4 0.472290 0.071273 0.527203
Si Si5 0.525037 0.537100 0.145533
O O1 0.500000 0.702746 0.750000
O O2 0.331442 0.779341 0.794697
O O3 0.415608 0.658807 0.880872
O O4 0.750000 0.750000 0.000000
O O5 0.500000 0.340112 0.750000
O O6 0.066007 0.377385 0.566546
O O7 0.293408 0.404732 0.796622
O O8 0.603125 0.528902 0.630936
O O9 0.000000 0.599293 0.750000
O O10 0.814422 0.591209 0.829896
O O11 0.500000 0.000000 0.500000
O O12 0.221998 0.064544 0.482366
O O13 0.500000 0.529376 0.250000
#
# Coordination Sequence:
#
# PCOD9267637 Si02
#       5
#     8   8   8   8   8
#     4  12  28  45  70  99 138 189 235 291 348 415
#     4   9  20  41  65  95 130 176 227 276 346 408
#     4  12  25  40  65 103 140 179 231 287 347 420
#     4  10  19  39  70  95 132 177 222 285 340 412
#     4   9  19  37  66  95 127 172 223 277 343 401
#
# _framework density 23.010434
#
# number of rings (size 3 to 8) (size 9 to 14) (size 15 to 20)
#    0.000    2.000    4.000    2.400    2.800    4.800 
#    0.000    7.000    0.000    0.000    0.000    0.000 
#    0.000    0.000    0.000    0.000    0.000    0.000 
#
# Total GULP energy -111572.590836 kJ/mol
# GULP energy per Si atom -5578.629542 kJ/mol
# Density = 2.295806 g / cm^3
# Si number density = 23.010434 Si / 1000 Ang^3
#
#
#
# Elastic Constant Matrix: (Units=GPa)
#
#
# Indices 1 2 3 4 5 6 
#
# 1 52.5148 53.7534 1.4857 0.0000 8.4909 0.0000
# 2 53.7534 203.2625 25.5165 0.0000 25.7956 0.0000
# 3 1.4857 25.5165 101.4263 0.0000 15.1400 0.0000
# 4 0.0000 0.0000 0.0000 42.5437 0.0000 13.9954
# 5 8.4909 25.7956 15.1400 0.0000 24.5653 0.0000
# 6 0.0000 0.0000 0.0000 13.9954 0.0000 43.3215
#
#
#
# Elastic Compliance Matrix: (Units=1/GPa)
#
#
# Indices 1 2 3 4 5 6 
#
# 1 0.026490 -0.006840 0.001792 0.000000 -0.003079 0.000000
# 2 -0.006840 0.007475 -0.001059 0.000000 -0.004832 0.000000
# 3 0.001792 -0.001059 0.011042 0.000000 -0.006313 0.000000
# 4 0.000000 0.000000 0.000000 0.026300 0.000000 -0.008497
# 5 -0.003079 -0.004832 -0.006313 0.000000 0.050737 0.000000
# 6 0.000000 0.000000 0.000000 -0.008497 0.000000 0.025828
#
#
# Mechanical properties :
#
#
# Convention : Reuss Voigt Hill
#
# Bulk Modulus (GPa) = 30.49338 57.63499 44.06419
# Shear Modulus (GPa) = 29.23695 40.51598 34.87646
#
# Velocity S-wave (km/s) = 3.56841 4.20070 3.89740
# Velocity P-wave (km/s) = 5.50080 6.97349 6.28046
#
# Compressibility (1/GPa) = 0.03279401
#
# Stress axis : x y z
#
# Youngs Moduli (GPa) = 37.74950 133.78398 90.56464
#
# Poissons Ratio (x) = 0.91505 -0.16231
# Poissons Ratio (y) = 0.25820 0.09590
# Poissons Ratio (z) = -0.06766 0.14167
#
# Static dielectric constant tensor:
#      x y z
#    x 2.070970 0.000000 0.023630 
#    y 0.000000 1.843540 0.000000 
#    z 0.023630 0.000000 1.534200 
# 
# From -- ./inp_files/192391.got.cif
#   From: 2010.05.17/outbox.cif.g08.bks.cpg/sg15_97_cif.got.tgz:192391.got - 2010.06.03 18:47:42.
