data_PCOD9267768
_publ_section_title
;
Structure prediction by ZEFSAII (Michael W. Deem and Ramdas Pophale) SiO2 
 PCOD9267768
Probable space group: C 2/C
;
_chemical_formula_sum "Si O2"
_cell_formula_units_Z 56
_cell_length_a 7.223700
_cell_length_b 13.199621
_cell_length_c 29.432407
_cell_angle_alpha 90.000000
_cell_angle_beta 50.948215
_cell_angle_gamma 90.000000
_cell_volume 2179.372090
_symmetry_space_group_name_H-M "C 2/C"
_symmetry_group_IT_number 15
_symmetry_cell_setting 'monoclinic'
loop_
_space_group_symop_operation_xyz
x,y,z
-x,y,1/2-z
-x,-y,-z
x,-y,1/2+z
1/2+x,1/2+y,z
1/2-x,1/2+y,1/2-z
1/2-x,1/2-y,-z
1/2+x,1/2-y,1/2+z
loop_
_atom_site_type_symbol
_atom_site_label
_atom_site_fract_x
_atom_site_fract_y
_atom_site_fract_z
Si Si1 0.178546 0.092135 0.657909
Si Si2 0.516574 0.758066 0.066665
Si Si3 0.382079 0.691914 0.585380
Si Si4 0.155503 0.601060 0.358752
Si Si5 0.674940 0.408436 0.963395
Si Si6 0.659904 0.781393 0.767423
Si Si7 0.500687 0.116491 0.801882
O O1 0.334982 0.147612 0.594373
O O2 0.975205 0.176607 0.696500
O O3 0.317419 0.082999 0.685954
O O4 0.131001 0.972601 0.657911
O O5 0.647213 0.774084 0.093690
O O6 0.382091 0.656432 0.073188
O O7 0.750000 0.750000 0.000000
O O8 0.428249 0.794017 0.605022
O O9 0.597536 0.659207 0.519381
O O10 0.268048 0.609588 0.636903
O O11 0.927364 0.540241 0.414158
O O12 0.169513 0.634214 0.304426
O O13 0.500000 0.500000 0.000000
O O14 0.500000 0.816774 0.750000
O O15 0.919286 0.735902 0.715725
O O16 0.500000 0.076017 0.750000
#
# Coordination Sequence:
#
# PCOD9267768 Si02
#       7
#     8   8   8   8   8   8   8
#     4  10  22  40  62  93 129 169 213 259 326 390
#     4   9  18  38  60  85 125 162 201 261 315 375
#     4  10  22  39  62  94 128 164 210 270 324 378
#     4  12  22  41  66  98 128 167 216 263 326 389
#     4  11  22  41  66  92 126 169 215 262 324 396
#     4  10  22  42  65  92 135 174 210 273 325 375
#     4  10  19  40  64  89 129 166 210 270 316 370
#
# _framework density 25.695477
#
# number of rings (size 3 to 8) (size 9 to 14) (size 15 to 20)
#    0.000    1.714    2.857    3.000    0.000    0.571 
#   10.286    3.571    0.000    0.000    0.000    0.000 
#    0.000    0.000    0.000    0.000    0.000    0.000 
#
# Total GULP energy -155931.261637 kJ/mol
# GULP energy per Si atom -5568.973630 kJ/mol
# Density = 2.563699 g / cm^3
# Si number density = 25.695477 Si / 1000 Ang^3
#
#
#
# Elastic Constant Matrix: (Units=GPa)
#
#
# Indices 1 2 3 4 5 6 
#
# 1 35.3444 5.3434 11.4054 -0.0001 2.6932 -0.0001
# 2 5.3434 124.2316 30.6367 0.0001 10.6958 -0.0001
# 3 11.4054 30.6367 148.2717 -0.0001 -2.3661 0.0000
# 4 -0.0001 0.0001 -0.0001 35.6743 0.0002 6.6289
# 5 2.6932 10.6958 -2.3661 0.0002 35.0269 0.0000
# 6 -0.0001 -0.0001 0.0000 6.6289 0.0000 34.1579
#
#
#
# Elastic Compliance Matrix: (Units=1/GPa)
#
#
# Indices 1 2 3 4 5 6 
#
# 1 0.029245 -0.000529 -0.002176 0.000000 -0.002234 0.000000
# 2 -0.000529 0.008756 -0.001813 0.000000 -0.002756 0.000000
# 3 -0.002176 -0.001813 0.007306 0.000000 0.001214 0.000000
# 4 0.000000 0.000000 0.000000 0.029080 0.000000 -0.005643
# 5 -0.002234 -0.002756 0.001214 0.000000 0.029645 0.000000
# 6 0.000000 0.000000 0.000000 -0.005643 0.000000 0.030371
#
#
# Mechanical properties :
#
#
# Convention : Reuss Voigt Hill
#
# Bulk Modulus (GPa) = 27.56905 44.73540 36.15222
# Shear Modulus (GPa) = 32.14830 38.33598 35.24214
#
# Velocity S-wave (km/s) = 3.54096 3.86675 3.70744
# Velocity P-wave (km/s) = 5.24122 6.11419 5.69445
#
# Compressibility (1/GPa) = 0.03627257
#
# Stress axis : x y z
#
# Youngs Moduli (GPa) = 34.19337 114.20114 136.88007
#
# Poissons Ratio (x) = 0.06040 0.29785
# Poissons Ratio (y) = 0.01809 0.24811
# Poissons Ratio (z) = 0.07440 0.20700
#
# Static dielectric constant tensor:
#      x y z
#    x 2.446260 0.000000 -0.116630 
#    y 0.000000 2.206340 0.000000 
#    z -0.116630 0.000000 2.217740 
# 
# From -- ./inp_files/288046.got.cif
#   From: 2010.05.17/outbox.cif.g08.bks.cpg/sg15_145_cif.got.tgz:288046.got - 2010.06.03 18:47:42.
