data_PCOD9267643
_publ_section_title
;
Structure prediction by ZEFSAII (Michael W. Deem and Ramdas Pophale) SiO2 
 PCOD9267643
Probable space group: C 2/C
;
_chemical_formula_sum "Si O2"
_cell_formula_units_Z 40
_cell_length_a 26.192634
_cell_length_b 14.370214
_cell_length_c 10.371577
_cell_angle_alpha 90.000000
_cell_angle_beta 154.040678
_cell_angle_gamma 90.000000
_cell_volume 1708.820397
_symmetry_space_group_name_H-M "C 2/C"
_symmetry_group_IT_number 15
_symmetry_cell_setting 'monoclinic'
loop_
_space_group_symop_operation_xyz
x,y,z
-x,y,1/2-z
-x,-y,-z
x,-y,1/2+z
1/2+x,1/2+y,z
1/2-x,1/2+y,1/2-z
1/2-x,1/2-y,-z
1/2+x,1/2-y,1/2+z
loop_
_atom_site_type_symbol
_atom_site_label
_atom_site_fract_x
_atom_site_fract_y
_atom_site_fract_z
Si Si1 0.623054 0.945407 0.268759
Si Si2 0.346256 0.754004 0.830023
Si Si3 0.719930 0.052555 0.256769
Si Si4 0.484360 0.579175 0.860019
Si Si5 0.591694 0.728888 0.259950
O O1 0.697688 0.978519 0.561191
O O2 0.608569 0.833924 0.247832
O O3 0.690848 0.973985 0.293759
O O4 0.500000 0.000000 0.000000
O O5 0.250000 0.750000 0.500000
O O6 0.366656 0.862764 0.907152
O O7 0.464457 0.716883 0.036104
O O8 0.325103 0.711674 0.925937
O O9 0.846513 0.099605 0.554663
O O10 0.500000 0.545992 0.750000
O O11 0.500000 0.500000 0.000000
O O12 0.578164 0.658886 0.109381
#
# Coordination Sequence:
#
# PCOD9267643 Si02
#       5
#     8   8   8   8   8
#     4  11  22  41  68 106 139 174 224 283 347 417
#     4  10  19  39  71 102 134 183 226 275 359 419
#     4  11  23  42  68  99 138 180 224 280 347 415
#     4  12  28  48  68  97 140 186 240 290 346 416
#     4  10  23  41  69 101 140 177 229 290 340 415
#
# _framework density 23.407959999999999
#
# number of rings (size 3 to 8) (size 9 to 14) (size 15 to 20)
#    0.000    1.200    4.000    1.800    2.800    3.200 
#    0.000    9.000    0.000    0.000    0.000    0.000 
#    0.000    0.000    0.000    0.000    0.000    0.000 
#
# Total GULP energy -111704.227110 kJ/mol
# GULP energy per Si atom -5585.211355 kJ/mol
# Density = 2.335468 g / cm^3
# Si number density = 23.407960 Si / 1000 Ang^3
#
#
#
# Elastic Constant Matrix: (Units=GPa)
#
#
# Indices 1 2 3 4 5 6 
#
# 1 104.4578 43.3750 40.1008 0.0000 -41.2801 0.0000
# 2 43.3750 78.1514 33.4275 0.0000 -29.0845 0.0000
# 3 40.1008 33.4275 154.5603 0.0000 -39.2337 0.0000
# 4 0.0000 0.0000 0.0000 32.8028 0.0000 -6.3536
# 5 -41.2801 -29.0845 -39.2337 0.0000 48.6006 0.0000
# 6 0.0000 0.0000 0.0000 -6.3536 0.0000 29.5733
#
#
#
# Elastic Compliance Matrix: (Units=1/GPa)
#
#
# Indices 1 2 3 4 5 6 
#
# 1 0.015738 -0.004758 -0.000483 0.000000 0.010130 0.000000
# 2 -0.004758 0.018122 -0.001205 0.000000 0.005831 0.000000
# 3 -0.000483 -0.001205 0.008262 0.000000 0.005538 0.000000
# 4 0.000000 0.000000 0.000000 0.031809 0.000000 0.006834
# 5 0.010130 0.005831 0.005538 0.000000 0.037140 0.000000
# 6 0.000000 0.000000 0.000000 0.006834 0.000000 0.035282
#
#
# Mechanical properties :
#
#
# Convention : Reuss Voigt Hill
#
# Bulk Modulus (GPa) = 34.21150 63.44178 48.82664
# Shear Modulus (GPa) = 29.58809 36.87976 33.23392
#
# Velocity S-wave (km/s) = 3.55916 3.97359 3.77207
# Velocity P-wave (km/s) = 5.61580 6.94363 6.31472
#
# Compressibility (1/GPa) = 0.02922994
#
# Stress axis : x y z
#
# Youngs Moduli (GPa) = 63.54242 55.18229 121.04169
#
# Poissons Ratio (x) = 0.26257 0.05842
# Poissons Ratio (y) = 0.30234 0.14582
# Poissons Ratio (z) = 0.03067 0.06648
#
# Static dielectric constant tensor:
#      x y z
#    x 1.970870 0.000000 0.011380 
#    y 0.000000 1.900120 0.000000 
#    z 0.011380 0.000000 2.139580 
# 
# From -- ./inp_files/62877.got.cif
#   From: 2010.05.17/outbox.cif.g08.bks.cpg/sg15_32_cif.got.tgz:62877.got - 2010.06.03 18:47:42.
