data_PCOD9267447
_publ_section_title
;
Structure prediction by ZEFSAII (Michael W. Deem and Ramdas Pophale) SiO2 
 PCOD9267447
Probable space group: C 2/C
;
_chemical_formula_sum "Si O2"
_cell_formula_units_Z 64
_cell_length_a 14.048231
_cell_length_b 24.647845
_cell_length_c 15.715137
_cell_angle_alpha 90.000000
_cell_angle_beta 152.971236
_cell_angle_gamma 90.000000
_cell_volume 2472.823776
_symmetry_space_group_name_H-M "C 2/C"
_symmetry_group_IT_number 15
_symmetry_cell_setting 'monoclinic'
loop_
_space_group_symop_operation_xyz
x,y,z
-x,y,1/2-z
-x,-y,-z
x,-y,1/2+z
1/2+x,1/2+y,z
1/2-x,1/2+y,1/2-z
1/2-x,1/2-y,-z
1/2+x,1/2-y,1/2+z
loop_
_atom_site_type_symbol
_atom_site_label
_atom_site_fract_x
_atom_site_fract_y
_atom_site_fract_z
Si Si1 0.672311 0.899338 0.814270
Si Si2 0.336151 0.388998 0.519049
Si Si3 0.115471 0.783278 0.765264
Si Si4 0.660202 0.529170 0.191131
Si Si5 0.244890 0.671084 0.665614
Si Si6 0.097674 0.064729 0.746865
Si Si7 0.533783 0.139325 0.907117
Si Si8 0.150518 0.787653 0.591336
O O1 0.500000 0.909155 0.750000
O O2 0.672675 0.936840 0.730063
O O3 0.687223 0.836102 0.798814
O O4 0.898024 0.916520 0.032504
O O5 0.467361 0.335035 0.637206
O O6 0.501594 0.432029 0.616881
O O7 0.207033 0.400661 0.503160
O O8 0.162015 0.371575 0.310896
O O9 0.151309 0.772337 0.693137
O O10 0.000000 0.750296 0.750000
O O11 0.334990 0.804280 0.979490
O O12 0.737376 0.478911 0.309154
O O13 0.500000 0.500000 0.000000
O O14 0.302789 0.622480 0.648352
O O15 0.187251 0.728753 0.578978
O O16 0.070802 0.641045 0.584344
O O17 0.435540 0.687294 0.882234
O O18 0.000000 0.035896 0.750000
#
# Coordination Sequence:
#
# PCOD9267447 Si02
#       8
#     8   8   8   8   8   8   8   8
#     4  10  22  43  71  98 133 176 229 286 358 417
#     4  10  19  39  63  91 139 183 226 278 342 405
#     4  10  20  36  61  96 136 182 227 280 338 409
#     4  10  20  43  70  91 138 186 217 284 366 404
#     4  11  23  43  66  98 140 186 233 293 352 415
#     4  10  24  45  69  97 140 179 232 293 352 418
#     4  10  20  35  62  98 132 181 230 277 333 424
#     4  11  22  42  67  95 143 184 230 297 357 409
#
# _framework density 25.881343000000001
#
# number of rings (size 3 to 8) (size 9 to 14) (size 15 to 20)
#    0.000    1.750    2.500    2.250    0.000    4.000 
#   15.750    5.000    0.000    0.000    0.000    0.000 
#    0.000    0.000    0.000    0.000    0.000    0.000 
#
# Total GULP energy -178485.832334 kJ/mol
# GULP energy per Si atom -5577.682260 kJ/mol
# Density = 2.582244 g / cm^3
# Si number density = 25.881343 Si / 1000 Ang^3
#
#
#
# Elastic Constant Matrix: (Units=GPa)
#
#
# Indices 1 2 3 4 5 6 
#
# 1 122.2710 87.1037 25.7483 0.0000 31.2990 -0.0001
# 2 87.1037 145.8290 27.2976 0.0000 19.4055 0.0000
# 3 25.7483 27.2976 90.5557 0.0002 -6.2827 -0.0001
# 4 0.0000 0.0000 0.0002 29.7750 0.0001 5.2354
# 5 31.2990 19.4055 -6.2827 0.0001 39.3576 0.0000
# 6 -0.0001 0.0000 -0.0001 5.2354 0.0000 34.6430
#
#
#
# Elastic Compliance Matrix: (Units=1/GPa)
#
#
# Indices 1 2 3 4 5 6 
#
# 1 0.017528 -0.008522 -0.003125 0.000000 -0.010236 0.000000
# 2 -0.008522 0.012084 -0.001176 0.000000 0.000632 0.000000
# 3 -0.003125 -0.001176 0.012638 0.000000 0.005082 0.000000
# 4 0.000000 0.000000 0.000000 0.034502 0.000000 -0.005214
# 5 -0.010236 0.000632 0.005082 0.000000 0.034048 0.000000
# 6 0.000000 0.000000 0.000000 -0.005214 0.000000 0.029654
#
#
# Mechanical properties :
#
#
# Convention : Reuss Voigt Hill
#
# Bulk Modulus (GPa) = 60.22511 70.99496 65.61004
# Shear Modulus (GPa) = 29.13165 35.32220 32.22692
#
# Velocity S-wave (km/s) = 3.35861 3.69829 3.53254
# Velocity P-wave (km/s) = 6.19359 6.76217 6.48412
#
# Compressibility (1/GPa) = 0.01660437
#
# Stress axis : x y z
#
# Youngs Moduli (GPa) = 57.05141 82.75558 79.12377
#
# Poissons Ratio (x) = 0.70528 0.24726
# Poissons Ratio (y) = 0.48622 0.09301
# Poissons Ratio (z) = 0.17828 0.09728
#
# Static dielectric constant tensor:
#      x y z
#    x 2.334730 0.000000 0.065250 
#    y 0.000000 2.019360 0.000000 
#    z 0.065250 0.000000 2.159680 
# 
# From -- ./inp_files/207366.got.cif
#   From: 2010.05.17/outbox.cif.g08.bks.cpg/sg15_104_cif.got.tgz:207366.got - 2010.06.03 18:47:42.
