data_PCOD9267000
_publ_section_title
;
Structure prediction by ZEFSAII (Michael W. Deem and Ramdas Pophale) SiO2 
 PCOD9267000
Probable space group: C 2/C
;
_chemical_formula_sum "Si O2"
_cell_formula_units_Z 52
_cell_length_a 8.453256
_cell_length_b 26.975104
_cell_length_c 16.381173
_cell_angle_alpha 90.000000
_cell_angle_beta 130.953289
_cell_angle_gamma 90.000000
_cell_volume 2821.106868
_symmetry_space_group_name_H-M "C 2/C"
_symmetry_group_IT_number 15
_symmetry_cell_setting 'monoclinic'
loop_
_space_group_symop_operation_xyz
x,y,z
-x,y,1/2-z
-x,-y,-z
x,-y,1/2+z
1/2+x,1/2+y,z
1/2-x,1/2+y,1/2-z
1/2-x,1/2-y,-z
1/2+x,1/2-y,1/2+z
loop_
_atom_site_type_symbol
_atom_site_label
_atom_site_fract_x
_atom_site_fract_y
_atom_site_fract_z
Si Si1 0.608902 0.929970 0.201417
Si Si2 0.318384 0.779861 0.749464
Si Si3 0.241010 0.858256 0.858521
Si Si4 0.000000 0.989890 0.250000
Si Si5 0.868610 0.801478 0.523540
Si Si6 0.771600 0.679936 0.700511
Si Si7 0.844766 0.545530 0.458673
O O1 0.500000 0.947367 0.250000
O O2 0.686589 0.873484 0.245290
O O3 0.812799 0.958868 0.232505
O O4 0.420442 0.934038 0.071856
O O5 0.500000 0.793147 0.750000
O O6 0.327811 0.813927 0.833012
O O7 0.323866 0.721978 0.774504
O O8 0.102704 0.792107 0.631905
O O9 0.232243 0.840240 0.948431
O O10 0.367263 0.909415 0.901825
O O11 0.000000 0.866648 0.750000
O O12 0.116469 0.023097 0.358927
O O13 0.750000 0.750000 0.500000
O O14 0.854822 0.820755 0.426806
O O15 0.000000 0.699835 0.750000
O O16 0.000000 0.500000 0.500000
#
# Coordination Sequence:
#
# PCOD9267000 Si02
#       7
#     8   8   8   4   8   8   8
#     4  10  23  39  64  98 124 160 211 264 319 371
#     4  11  24  37  54  92 130 159 202 252 311 373
#     4  10  19  38  64  82 118 163 203 246 307 379
#     4  10  22  44  64  94 124 164 216 258 322 382
#     4  11  20  38  62  86 115 166 209 244 300 380
#     4  11  20  38  62  88 124 161 206 249 302 380
#     4  10  21  41  67  89 120 162 212 266 315 366
#
# _framework density 18.432482
#
# number of rings (size 3 to 8) (size 9 to 14) (size 15 to 20)
#    0.000    1.538    3.846    2.308    1.077    1.231 
#    5.538    3.077    0.000    0.000    0.000    0.000 
#    0.000    0.000    0.000    0.000    0.000    0.000 
#
# Total GULP energy -144799.303718 kJ/mol
# GULP energy per Si atom -5569.203989 kJ/mol
# Density = 1.839053 g / cm^3
# Si number density = 18.432482 Si / 1000 Ang^3
#
#
#
# Elastic Constant Matrix: (Units=GPa)
#
#
# Indices 1 2 3 4 5 6 
#
# 1 87.7384 31.4712 36.3988 0.0000 -0.5229 0.0000
# 2 31.4712 101.9825 58.5011 0.0000 0.2303 0.0000
# 3 36.3988 58.5011 139.0601 0.0000 -8.1544 0.0000
# 4 0.0000 0.0000 0.0000 20.5602 0.0000 7.7776
# 5 -0.5229 0.2303 -8.1544 0.0000 19.4518 0.0000
# 6 0.0000 0.0000 0.0000 7.7776 0.0000 17.3063
#
#
#
# Elastic Compliance Matrix: (Units=1/GPa)
#
#
# Indices 1 2 3 4 5 6 
#
# 1 0.013369 -0.002764 -0.002372 0.000000 -0.000602 0.000000
# 2 -0.002764 0.013615 -0.005145 0.000000 -0.002392 0.000000
# 3 -0.002372 -0.005145 0.010228 0.000000 0.004285 0.000000
# 4 0.000000 0.000000 0.000000 0.058600 0.000000 -0.026335
# 5 -0.000602 -0.002392 0.004285 0.000000 0.053217 0.000000
# 6 0.000000 0.000000 0.000000 -0.026335 0.000000 0.069618
#
#
# Mechanical properties :
#
#
# Convention : Reuss Voigt Hill
#
# Bulk Modulus (GPa) = 60.05554 64.61370 62.33462
# Shear Modulus (GPa) = 20.42839 24.95766 22.69302
#
# Velocity S-wave (km/s) = 3.33270 3.68367 3.51257
# Velocity P-wave (km/s) = 6.88921 7.29541 7.09522
#
# Compressibility (1/GPa) = 0.01665125
#
# Stress axis : x y z
#
# Youngs Moduli (GPa) = 74.79830 73.44859 97.77519
#
# Poissons Ratio (x) = 0.20298 0.23193
# Poissons Ratio (y) = 0.20671 0.50301
# Poissons Ratio (z) = 0.17743 0.37786
#
# Static dielectric constant tensor:
#      x y z
#    x 1.628870 0.000000 -0.001840 
#    y 0.000000 1.672710 0.000000 
#    z -0.001840 0.000000 1.648320 
# 
# From -- ./inp_files/138311.got.cif
#   From: 2010.05.17/outbox.cif.g08.bks.cpg/sg15_70_cif.got.tgz:138311.got - 2010.06.03 18:47:42.
