data_PCOD9267830
_publ_section_title
;
Structure prediction by ZEFSAII (Michael W. Deem and Ramdas Pophale) SiO2 
 PCOD9267830
Probable space group: C 2/C
;
_chemical_formula_sum "Si O2"
_cell_formula_units_Z 56
_cell_length_a 14.628473
_cell_length_b 16.648864
_cell_length_c 18.907928
_cell_angle_alpha 90.000000
_cell_angle_beta 31.943129
_cell_angle_gamma 90.000000
_cell_volume 2436.388951
_symmetry_space_group_name_H-M "C 2/C"
_symmetry_group_IT_number 15
_symmetry_cell_setting 'monoclinic'
loop_
_space_group_symop_operation_xyz
x,y,z
-x,y,1/2-z
-x,-y,-z
x,-y,1/2+z
1/2+x,1/2+y,z
1/2-x,1/2+y,1/2-z
1/2-x,1/2-y,-z
1/2+x,1/2-y,1/2+z
loop_
_atom_site_type_symbol
_atom_site_label
_atom_site_fract_x
_atom_site_fract_y
_atom_site_fract_z
Si Si1 0.749667 0.849403 0.199831
Si Si2 0.822672 0.173501 0.908443
Si Si3 0.466315 0.422427 0.568335
Si Si4 0.586279 0.088983 0.942271
Si Si5 0.197826 0.994477 0.030226
Si Si6 0.500000 0.599164 0.250000
Si Si7 0.246469 0.169163 0.198662
Si Si8 0.500000 0.930783 0.250000
O O1 0.711061 0.905147 0.292422
O O2 0.733462 0.758657 0.235353
O O3 0.617558 0.876994 0.224693
O O4 0.935659 0.855287 0.040607
O O5 0.689657 0.127929 0.941395
O O6 0.000000 0.193304 0.750000
O O7 0.855926 0.097740 0.938604
O O8 0.750000 0.250000 0.000000
O O9 0.500000 0.500000 0.500000
O O10 0.572055 0.449071 0.567596
O O11 0.283657 0.392325 0.716258
O O12 0.422444 0.148499 0.043605
O O13 0.500000 0.000000 0.000000
O O14 0.156898 0.035641 0.132059
O O15 0.384137 0.012987 0.876468
O O16 0.588680 0.657893 0.248130
#
# Coordination Sequence:
#
# PCOD9267830 Si02
#       8
#     8   8   8   8   8   4   8   4
#     4  11  23  40  65 101 140 179 230 307 371 447
#     4  12  30  51  75 106 151 201 255 325 385 451
#     4  10  23  39  64  94 132 178 229 289 365 443
#     4  12  27  47  74 105 142 196 258 306 375 467
#     4  10  22  40  68  93 133 188 237 292 361 447
#     4  10  19  40  67 100 138 184 236 288 381 442
#     4  11  23  39  67 101 136 181 229 306 367 447
#     4  10  21  40  65 106 144 182 238 300 375 456
#
# _framework density 22.984836000000001
#
# number of rings (size 3 to 8) (size 9 to 14) (size 15 to 20)
#    0.000    1.143    0.714    4.714    7.000    2.286 
#    0.000    5.714    0.000    0.000    0.000    0.000 
#    0.000    0.000    0.000    0.000    0.000    0.000 
#
# Total GULP energy -156166.423608 kJ/mol
# GULP energy per Si atom -5577.372272 kJ/mol
# Density = 2.293252 g / cm^3
# Si number density = 22.984836 Si / 1000 Ang^3
#
#
#
# Elastic Constant Matrix: (Units=GPa)
#
#
# Indices 1 2 3 4 5 6 
#
# 1 61.5745 0.2638 -6.5695 -0.0010 -6.2305 0.0005
# 2 0.2638 135.8216 37.6898 0.0021 6.4803 -0.0009
# 3 -6.5695 37.6898 100.7902 0.0012 -1.1817 -0.0006
# 4 -0.0010 0.0021 0.0012 33.5318 0.0001 11.9479
# 5 -6.2305 6.4803 -1.1817 0.0001 19.5068 -0.0003
# 6 0.0005 -0.0009 -0.0006 11.9479 -0.0003 12.7423
#
#
#
# Elastic Compliance Matrix: (Units=1/GPa)
#
#
# Indices 1 2 3 4 5 6 
#
# 1 0.016978 -0.000706 0.001438 0.000001 0.005745 -0.000001
# 2 -0.000706 0.008414 -0.003230 -0.000001 -0.003216 0.000001
# 3 0.001438 -0.003230 0.011249 0.000000 0.002214 0.000001
# 4 0.000001 -0.000001 0.000000 0.044785 0.000000 -0.041993
# 5 0.005745 -0.003216 0.002214 0.000000 0.054302 0.000001
# 6 -0.000001 0.000001 0.000001 -0.041993 0.000001 0.117854
#
#
# Mechanical properties :
#
#
# Convention : Reuss Voigt Hill
#
# Bulk Modulus (GPa) = 31.60064 40.10604 35.85334
# Shear Modulus (GPa) = 18.57867 30.94299 24.76083
#
# Velocity S-wave (km/s) = 2.84615 3.67309 3.28574
# Velocity P-wave (km/s) = 4.95773 5.95614 5.47972
#
# Compressibility (1/GPa) = 0.03164493
#
# Stress axis : x y z
#
# Youngs Moduli (GPa) = 58.89907 118.85330 88.89583
#
# Poissons Ratio (x) = 0.08392 -0.12783
# Poissons Ratio (y) = 0.04159 0.28713
# Poissons Ratio (z) = -0.08470 0.38389
#
# Static dielectric constant tensor:
#      x y z
#    x 4.239420 -0.000050 2.214800 
#    y -0.000050 1.863740 -0.000040 
#    z 2.214800 -0.000040 3.946500 
# 
# From -- ./inp_files/249248.got.cif
#   From: 2010.05.17/outbox.cif.g08.bks.cpg/sg15_125_cif.got.tgz:249248.got - 2010.06.03 18:47:42.
