data_PCOD9267661
_publ_section_title
;
Structure prediction by ZEFSAII (Michael W. Deem and Ramdas Pophale) SiO2 
 PCOD9267661
Probable space group: C 2/C
;
_chemical_formula_sum "Si O2"
_cell_formula_units_Z 56
_cell_length_a 9.446050
_cell_length_b 10.103905
_cell_length_c 27.722604
_cell_angle_alpha 90.000000
_cell_angle_beta 105.256885
_cell_angle_gamma 90.000000
_cell_volume 2552.647657
_symmetry_space_group_name_H-M "C 2/C"
_symmetry_group_IT_number 15
_symmetry_cell_setting 'monoclinic'
loop_
_space_group_symop_operation_xyz
x,y,z
-x,y,1/2-z
-x,-y,-z
x,-y,1/2+z
1/2+x,1/2+y,z
1/2-x,1/2+y,1/2-z
1/2-x,1/2-y,-z
1/2+x,1/2-y,1/2+z
loop_
_atom_site_type_symbol
_atom_site_label
_atom_site_fract_x
_atom_site_fract_y
_atom_site_fract_z
Si Si1 0.919868 0.047378 0.794135
Si Si2 0.980584 0.657693 0.189728
Si Si3 0.799796 0.280656 0.360627
Si Si4 0.123100 0.411614 0.225083
Si Si5 0.096845 0.984943 0.396468
Si Si6 0.918732 0.124323 0.966618
Si Si7 0.392094 0.761175 0.058722
O O1 0.750453 0.027742 0.769233
O O2 0.000000 0.026938 0.750000
O O3 0.944476 0.200450 0.812283
O O4 0.991118 0.965898 0.843549
O O5 0.822774 0.664942 0.149574
O O6 0.000000 0.647202 0.250000
O O7 0.061763 0.523440 0.183446
O O8 0.807638 0.305603 0.304005
O O9 0.720746 0.401394 0.381076
O O10 0.959030 0.275627 0.398085
O O11 0.000000 0.358009 0.250000
O O12 0.001540 0.888918 0.423014
O O13 0.158929 0.112604 0.429909
O O14 0.740700 0.135202 0.944609
O O15 0.937558 0.245215 0.006389
O O16 0.000000 0.000000 0.000000
#
# Coordination Sequence:
#
# PCOD9267661 Si02
#       7
#     8   8   8   8   8   8   8
#     4  10  19  40  57  86 131 164 205 255 297 367
#     4   9  19  38  58  77 129 164 200 256 300 347
#     4  11  23  42  58  95 127 164 213 257 302 380
#     4  11  23  35  58  88 122 167 214 250 303 368
#     4  10  22  39  65  88 127 164 204 254 312 367
#     4   9  21  45  66  93 124 157 204 271 318 372
#     4  10  23  41  68  92 121 158 210 259 321 372
#
# _framework density 21.938006000000001
#
# number of rings (size 3 to 8) (size 9 to 14) (size 15 to 20)
#    0.000    2.000    4.286    0.000    6.000    4.000 
#    0.000    7.857    0.000    0.000    0.000    0.000 
#    0.000    0.000    0.000    0.000    0.000    0.000 
#
# Total GULP energy -155886.614115 kJ/mol
# GULP energy per Si atom -5567.379076 kJ/mol
# Density = 2.188807 g / cm^3
# Si number density = 21.938006 Si / 1000 Ang^3
#
#
#
# Elastic Constant Matrix: (Units=GPa)
#
#
# Indices 1 2 3 4 5 6 
#
# 1 128.6211 29.2063 42.3575 0.0000 2.2085 0.0000
# 2 29.2063 42.7930 9.0403 0.0000 1.3148 0.0000
# 3 42.3575 9.0403 100.6360 0.0000 -4.0421 0.0000
# 4 0.0000 0.0000 0.0000 19.2685 0.0000 7.2944
# 5 2.2085 1.3148 -4.0421 0.0000 47.8156 0.0000
# 6 0.0000 0.0000 0.0000 7.2944 0.0000 37.9350
#
#
#
# Elastic Compliance Matrix: (Units=1/GPa)
#
#
# Indices 1 2 3 4 5 6 
#
# 1 0.010499 -0.006327 -0.003876 0.000000 -0.000639 0.000000
# 2 -0.006327 0.027667 0.000159 0.000000 -0.000455 0.000000
# 3 -0.003876 0.000159 0.011600 0.000000 0.001155 0.000000
# 4 0.000000 0.000000 0.000000 0.055973 0.000000 -0.010763
# 5 -0.000639 -0.000455 0.001155 0.000000 0.021053 0.000000
# 6 0.000000 0.000000 0.000000 -0.010763 0.000000 0.028430
#
#
# Mechanical properties :
#
#
# Convention : Reuss Voigt Hill
#
# Bulk Modulus (GPa) = 33.69459 48.13980 40.91720
# Shear Modulus (GPa) = 26.99735 33.76687 30.38211
#
# Velocity S-wave (km/s) = 3.51183 3.92751 3.72547
# Velocity P-wave (km/s) = 5.64236 6.52368 6.09896
#
# Compressibility (1/GPa) = 0.02967836
#
# Stress axis : x y z
#
# Youngs Moduli (GPa) = 95.24743 36.14438 86.20385
#
# Poissons Ratio (x) = 0.22869 0.33415
# Poissons Ratio (y) = 0.60263 -0.01374
# Poissons Ratio (z) = 0.36921 -0.00576
#
# Static dielectric constant tensor:
#      x y z
#    x 1.933840 0.000000 -0.012260 
#    y 0.000000 1.885370 0.000000 
#    z -0.012260 0.000000 1.850040 
# 
# From -- ./inp_files/307229.got.cif
#   From: 2010.05.17/outbox.cif.g08.bks.cpg/sg15_154_cif.got.tgz:307229.got - 2010.06.03 18:47:42.
