data_PCOD9267350
_publ_section_title
;
Structure prediction by ZEFSAII (Michael W. Deem and Ramdas Pophale) SiO2 
 PCOD9267350
Probable space group: C 2/C
;
_chemical_formula_sum "Si O2"
_cell_formula_units_Z 48
_cell_length_a 11.882140
_cell_length_b 13.763408
_cell_length_c 22.023938
_cell_angle_alpha 90.000000
_cell_angle_beta 36.016729
_cell_angle_gamma 90.000000
_cell_volume 2117.916272
_symmetry_space_group_name_H-M "C 2/C"
_symmetry_group_IT_number 15
_symmetry_cell_setting 'monoclinic'
loop_
_space_group_symop_operation_xyz
x,y,z
-x,y,1/2-z
-x,-y,-z
x,-y,1/2+z
1/2+x,1/2+y,z
1/2-x,1/2+y,1/2-z
1/2-x,1/2-y,-z
1/2+x,1/2-y,1/2+z
loop_
_atom_site_type_symbol
_atom_site_label
_atom_site_fract_x
_atom_site_fract_y
_atom_site_fract_z
Si Si1 0.913406 0.772111 0.569025
Si Si2 0.788308 0.170988 0.647003
Si Si3 0.447989 0.809549 0.375230
Si Si4 0.816278 0.456626 0.790408
Si Si5 0.784005 0.929223 0.366238
Si Si6 0.479211 0.976060 0.916788
O O1 0.060850 0.759454 0.561813
O O2 0.801674 0.870755 0.628794
O O3 0.779987 0.677705 0.627252
O O4 0.016303 0.779304 0.458763
O O5 0.668644 0.186766 0.636669
O O6 0.663368 0.212069 0.756212
O O7 0.804829 0.056643 0.656903
O O8 0.433083 0.917711 0.409314
O O9 0.911124 0.423556 0.685722
O O10 0.000000 0.482780 0.750000
O O11 0.712381 0.937108 0.467390
O O12 0.000000 0.946285 0.250000
O O13 0.646949 0.007471 0.393002
#
# Coordination Sequence:
#
# PCOD9267350 Si02
#       6
#     8   8   8   8   8   8
#     4  11  23  34  61  92 125 155 209 259 312 370
#     4  10  19  39  61  84 122 165 205 259 306 371
#     4   9  19  39  61  86 119 158 211 257 306 362
#     4  11  21  41  61  88 124 164 208 252 316 374
#     4  10  22  42  61  92 125 159 205 258 315 371
#     4   9  20  41  66  82 122 164 206 253 305 379
#
# _framework density 22.663786000000002
#
# number of rings (size 3 to 8) (size 9 to 14) (size 15 to 20)
#    0.000    2.000    3.333    1.500    2.333    1.333 
#    9.000    3.333    0.000    0.000    0.000    0.000 
#    0.000    0.000    0.000    0.000    0.000    0.000 
#
# Total GULP energy -133778.309836 kJ/mol
# GULP energy per Si atom -5574.096243 kJ/mol
# Density = 2.261220 g / cm^3
# Si number density = 22.663786 Si / 1000 Ang^3
#
#
#
# Elastic Constant Matrix: (Units=GPa)
#
#
# Indices 1 2 3 4 5 6 
#
# 1 25.7747 -4.2543 28.1934 0.0000 4.4493 -0.0001
# 2 -4.2543 24.7277 25.4276 -0.0002 -0.5734 0.0000
# 3 28.1934 25.4276 174.7362 -0.0011 24.2729 0.0000
# 4 0.0000 -0.0002 -0.0011 18.3066 0.0001 1.6203
# 5 4.4493 -0.5734 24.2729 0.0001 35.4443 0.0001
# 6 -0.0001 0.0000 0.0000 1.6203 0.0001 14.8526
#
#
#
# Elastic Compliance Matrix: (Units=1/GPa)
#
#
# Indices 1 2 3 4 5 6 
#
# 1 0.055973 0.022630 -0.012597 0.000000 0.001967 0.000000
# 2 0.022630 0.057925 -0.013058 0.000000 0.007039 0.000000
# 3 -0.012597 -0.013058 0.010460 0.000000 -0.005793 0.000000
# 4 0.000000 0.000000 0.000000 0.055158 0.000000 -0.006017
# 5 0.001967 0.007039 -0.005793 0.000000 0.032048 0.000000
# 6 0.000000 0.000000 0.000000 -0.006017 0.000000 0.067985
#
#
# Mechanical properties :
#
#
# Convention : Reuss Voigt Hill
#
# Bulk Modulus (GPa) = 8.45264 35.99689 22.22477
# Shear Modulus (GPa) = 15.38291 25.44549 20.41420
#
# Velocity S-wave (km/s) = 2.60810 3.35436 3.00449
# Velocity P-wave (km/s) = 3.57872 5.56056 4.67585
#
# Compressibility (1/GPa) = 0.11830621
#
# Stress axis : x y z
#
# Youngs Moduli (GPa) = 17.86575 17.26375 95.59776
#
# Poissons Ratio (x) = -0.39067 1.20428
# Poissons Ratio (y) = -0.40429 1.24834
# Poissons Ratio (z) = 0.22506 0.22543
#
# Static dielectric constant tensor:
#      x y z
#    x 1.928290 0.000000 -0.026390 
#    y 0.000000 1.797230 0.000000 
#    z -0.026390 0.000000 1.909580 
# 
# From -- ./inp_files/274282.got.cif
#   From: 2010.05.17/outbox.cif.g08.bks.cpg/sg15_138_cif.got.tgz:274282.got - 2010.06.03 18:47:42.
