data_PCOD9267618
_publ_section_title
;
Structure prediction by ZEFSAII (Michael W. Deem and Ramdas Pophale) SiO2 
 PCOD9267618
Probable space group: C 2/C
;
_chemical_formula_sum "Si O2"
_cell_formula_units_Z 44
_cell_length_a 16.953370
_cell_length_b 8.157598
_cell_length_c 18.909293
_cell_angle_alpha 90.000000
_cell_angle_beta 124.205849
_cell_angle_gamma 90.000000
_cell_volume 2162.774892
_symmetry_space_group_name_H-M "C 2/C"
_symmetry_group_IT_number 15
_symmetry_cell_setting 'monoclinic'
loop_
_space_group_symop_operation_xyz
x,y,z
-x,y,1/2-z
-x,-y,-z
x,-y,1/2+z
1/2+x,1/2+y,z
1/2-x,1/2+y,1/2-z
1/2-x,1/2-y,-z
1/2+x,1/2-y,1/2+z
loop_
_atom_site_type_symbol
_atom_site_label
_atom_site_fract_x
_atom_site_fract_y
_atom_site_fract_z
Si Si1 0.309151 0.500723 0.192779
Si Si2 0.026675 0.253643 0.847296
Si Si3 0.143592 0.438461 0.360290
Si Si4 0.500000 0.337469 0.750000
Si Si5 0.294614 0.433699 0.028964
Si Si6 0.328518 0.147814 0.262633
O O1 0.420200 0.558367 0.252872
O O2 0.274435 0.513736 0.094855
O O3 0.296347 0.308633 0.203610
O O4 0.245666 0.600860 0.215181
O O5 0.087824 0.419580 0.874168
O O6 0.092649 0.109007 0.910340
O O7 0.000000 0.232607 0.750000
O O8 0.931633 0.293981 0.842059
O O9 0.248873 0.448677 0.447152
O O10 0.154397 0.500267 0.284559
O O11 0.073953 0.282848 0.328278
O O12 0.250000 0.250000 0.000000
#
# Coordination Sequence:
#
# PCOD9267618 Si02
#       6
#     8   8   8   4   8   8
#     4  12  24  38  65  96 128 173 218 265 314 388
#     4   9  15  34  65  89 123 168 208 249 323 381
#     4  10  20  40  67  93 127 166 212 271 315 386
#     4  12  24  40  64  94 128 178 220 248 324 400
#     4  10  19  39  68  98 121 169 215 269 322 377
#     4  11  21  39  62  96 128 167 218 260 322 377
#
# _framework density 20.344234
#
# number of rings (size 3 to 8) (size 9 to 14) (size 15 to 20)
#    0.000    1.455    8.182    2.182    0.000    0.727 
#    0.000    5.455    0.000    4.364    0.000    0.000 
#    0.000    0.000    0.000    0.000    0.000    0.000 
#
# Total GULP energy -122520.056240 kJ/mol
# GULP energy per Si atom -5569.093465 kJ/mol
# Density = 2.029793 g / cm^3
# Si number density = 20.344234 Si / 1000 Ang^3
#
#
#
# Elastic Constant Matrix: (Units=GPa)
#
#
# Indices 1 2 3 4 5 6 
#
# 1 143.4061 30.2986 32.3520 0.0000 12.9650 0.0000
# 2 30.2986 59.6994 10.3581 0.0000 -4.7556 0.0000
# 3 32.3520 10.3581 88.7154 0.0000 15.8696 0.0000
# 4 0.0000 0.0000 0.0000 28.7683 0.0000 4.6290
# 5 12.9650 -4.7556 15.8696 0.0000 20.4419 0.0000
# 6 0.0000 0.0000 0.0000 4.6290 0.0000 40.7033
#
#
#
# Elastic Compliance Matrix: (Units=1/GPa)
#
#
# Indices 1 2 3 4 5 6 
#
# 1 0.008815 -0.004598 -0.001726 0.000000 -0.005321 0.000000
# 2 -0.004598 0.020253 -0.002383 0.000000 0.009478 0.000000
# 3 -0.001726 -0.002383 0.014032 0.000000 -0.010353 0.000000
# 4 0.000000 0.000000 0.000000 0.035408 0.000000 -0.004027
# 5 -0.005321 0.009478 -0.010353 0.000000 0.062536 0.000000
# 6 0.000000 0.000000 0.000000 -0.004027 0.000000 0.025026
#
#
# Mechanical properties :
#
#
# Convention : Reuss Voigt Hill
#
# Bulk Modulus (GPa) = 38.93384 48.64870 43.79127
# Shear Modulus (GPa) = 26.03537 32.57019 29.30278
#
# Velocity S-wave (km/s) = 3.58123 4.00553 3.79931
# Velocity P-wave (km/s) = 6.02323 6.73477 6.38891
#
# Compressibility (1/GPa) = 0.02568460
#
# Stress axis : x y z
#
# Youngs Moduli (GPa) = 113.44155 49.37587 71.26746
#
# Poissons Ratio (x) = 0.22704 0.12301
# Poissons Ratio (y) = 0.52163 0.16985
# Poissons Ratio (z) = 0.19580 0.11768
#
# Static dielectric constant tensor:
#      x y z
#    x 1.727980 0.000000 0.046880 
#    y 0.000000 1.828550 0.000000 
#    z 0.046880 0.000000 1.802690 
# 
# From -- ./inp_files/247147.got.cif
#   From: 2010.05.17/outbox.cif.g08.bks.cpg/sg15_124_cif.got.tgz:247147.got - 2010.06.03 18:47:42.
