data_PCOD9267821
_publ_section_title
;
Structure prediction by ZEFSAII (Michael W. Deem and Ramdas Pophale) SiO2 
 PCOD9267821
Probable space group: C 2/C
;
_chemical_formula_sum "Si O2"
_cell_formula_units_Z 60
_cell_length_a 28.148265
_cell_length_b 11.254970
_cell_length_c 12.237127
_cell_angle_alpha 90.000000
_cell_angle_beta 127.951461
_cell_angle_gamma 90.000000
_cell_volume 3056.995387
_symmetry_space_group_name_H-M "C 2/C"
_symmetry_group_IT_number 15
_symmetry_cell_setting 'monoclinic'
loop_
_space_group_symop_operation_xyz
x,y,z
-x,y,1/2-z
-x,-y,-z
x,-y,1/2+z
1/2+x,1/2+y,z
1/2-x,1/2+y,1/2-z
1/2-x,1/2-y,-z
1/2+x,1/2-y,1/2+z
loop_
_atom_site_type_symbol
_atom_site_label
_atom_site_fract_x
_atom_site_fract_y
_atom_site_fract_z
Si Si1 0.484088 0.864343 0.451034
Si Si2 0.189570 0.701274 0.469753
Si Si3 0.179612 0.922008 0.606870
Si Si4 0.143268 0.246492 0.236809
Si Si5 0.381601 0.168535 0.350547
Si Si6 0.307486 0.960365 0.319162
Si Si7 0.128139 0.829321 0.964072
Si Si8 0.500000 0.765524 0.250000
O O1 0.422549 0.796848 0.396869
O O2 0.548010 0.801841 0.566797
O O3 0.478597 0.852551 0.313719
O O4 0.500000 0.000000 0.500000
O O5 0.250000 0.750000 0.500000
O O6 0.167089 0.810914 0.510681
O O7 0.147582 0.669150 0.309334
O O8 0.197109 0.593097 0.565552
O O9 0.157375 0.875909 0.693470
O O10 0.250120 0.956834 0.713859
O O11 0.148162 0.037366 0.513135
O O12 0.189011 0.348301 0.258698
O O13 0.147564 0.223639 0.373292
O O14 0.352831 0.256398 0.400296
O O15 0.366957 0.039826 0.382678
O O16 0.056066 0.815305 0.860414
#
# Coordination Sequence:
#
# PCOD9267821 Si02
#       8
#     8   8   8   8   8   8   8   4
#     4  10  19  40  66  91 127 161 203 267 315 374
#     4  11  24  42  60  93 131 163 218 266 315 384
#     4  11  25  42  63  90 129 171 211 266 314 382
#     4  10  24  44  63  98 125 167 223 256 320 387
#     4  11  23  39  66  97 124 166 211 263 334 369
#     4  11  24  40  64  93 128 165 212 272 316 379
#     4  10  23  41  67  88 127 173 210 262 318 378
#     4   8  20  40  60  94 122 160 218 252 304 384
#
# _framework density 19.627115
#
# number of rings (size 3 to 8) (size 9 to 14) (size 15 to 20)
#    0.000    1.600    2.667    0.800    7.467    1.600 
#    2.400    2.000    0.000    0.000    0.000    0.000 
#    0.000    0.000    0.000    0.000    0.000    0.000 
#
# Total GULP energy -167140.322610 kJ/mol
# GULP energy per Si atom -5571.344087 kJ/mol
# Density = 1.958244 g / cm^3
# Si number density = 19.627115 Si / 1000 Ang^3
#
#
#
# Elastic Constant Matrix: (Units=GPa)
#
#
# Indices 1 2 3 4 5 6 
#
# 1 80.4071 19.9791 30.4514 0.0000 -4.7504 0.0000
# 2 19.9791 70.0197 24.0338 0.0000 -2.4153 0.0000
# 3 30.4514 24.0338 68.5833 0.0000 -13.4417 0.0000
# 4 0.0000 0.0000 0.0000 32.7325 0.0000 -5.1395
# 5 -4.7504 -2.4153 -13.4417 0.0000 29.9110 0.0000
# 6 0.0000 0.0000 0.0000 -5.1395 0.0000 24.8221
#
#
#
# Elastic Compliance Matrix: (Units=1/GPa)
#
#
# Indices 1 2 3 4 5 6 
#
# 1 0.015278 -0.002290 -0.006077 0.000000 -0.000489 0.000000
# 2 -0.002290 0.016629 -0.005064 0.000000 -0.001297 0.000000
# 3 -0.006077 -0.005064 0.020599 0.000000 0.007883 0.000000
# 4 0.000000 0.000000 0.000000 0.031577 0.000000 0.006538
# 5 -0.000489 -0.001297 0.007883 0.000000 0.036792 0.000000
# 6 0.000000 0.000000 0.000000 0.006538 0.000000 0.041640
#
#
# Mechanical properties :
#
#
# Convention : Reuss Voigt Hill
#
# Bulk Modulus (GPa) = 38.99834 40.88210 39.94022
# Shear Modulus (GPa) = 25.26179 27.12950 26.19565
#
# Velocity S-wave (km/s) = 3.59149 3.72189 3.65727
# Velocity P-wave (km/s) = 6.09189 6.27253 6.18287
#
# Compressibility (1/GPa) = 0.02564212
#
# Stress axis : x y z
#
# Youngs Moduli (GPa) = 65.45209 60.13641 48.54670
#
# Poissons Ratio (x) = 0.13774 0.29502
# Poissons Ratio (y) = 0.14992 0.24586
# Poissons Ratio (z) = 0.39775 0.30456
#
# Static dielectric constant tensor:
#      x y z
#    x 1.774910 0.000000 0.006840 
#    y 0.000000 1.657610 0.000000 
#    z 0.006840 0.000000 1.722990 
# 
# From -- ./inp_files/126455.got.cif
#   From: 2010.05.17/outbox.cif.g08.bks.cpg/sg15_64_cif.got.tgz:126455.got - 2010.06.03 18:47:42.
