data_PCOD9267160
_publ_section_title
;
Structure prediction by ZEFSAII (Michael W. Deem and Ramdas Pophale) SiO2 
 PCOD9267160
Probable space group: C 2/C
;
_chemical_formula_sum "Si O2"
_cell_formula_units_Z 56
_cell_length_a 19.696477
_cell_length_b 12.202888
_cell_length_c 21.697110
_cell_angle_alpha 90.000000
_cell_angle_beta 150.482386
_cell_angle_gamma 90.000000
_cell_volume 2569.376749
_symmetry_space_group_name_H-M "C 2/C"
_symmetry_group_IT_number 15
_symmetry_cell_setting 'monoclinic'
loop_
_space_group_symop_operation_xyz
x,y,z
-x,y,1/2-z
-x,-y,-z
x,-y,1/2+z
1/2+x,1/2+y,z
1/2-x,1/2+y,1/2-z
1/2-x,1/2-y,-z
1/2+x,1/2-y,1/2+z
loop_
_atom_site_type_symbol
_atom_site_label
_atom_site_fract_x
_atom_site_fract_y
_atom_site_fract_z
Si Si1 0.914038 0.896201 0.779925
Si Si2 0.293523 0.993119 0.478102
Si Si3 0.202958 0.032511 0.185203
Si Si4 0.407391 0.206474 0.616204
Si Si5 0.492573 0.090044 0.441417
Si Si6 0.517016 0.334523 0.066724
Si Si7 0.570921 0.611677 0.872137
O O1 0.818677 0.928105 0.645677
O O2 0.825424 0.911973 0.770886
O O3 0.002369 0.786088 0.855456
O O4 0.025152 0.992322 0.860824
O O5 0.396611 0.081454 0.587355
O O6 0.366308 0.920220 0.484389
O O7 0.227487 0.911714 0.476168
O O8 0.361600 0.054504 0.296814
O O9 0.106125 0.093547 0.059678
O O10 0.151395 0.907700 0.156130
O O11 0.500000 0.214124 0.750000
O O12 0.250000 0.250000 0.500000
O O13 0.473847 0.212438 0.451838
O O14 0.500000 0.000000 0.500000
O O15 0.482979 0.318081 0.112870
O O16 0.500000 0.637863 0.750000
#
# Coordination Sequence:
#
# PCOD9267160 Si02
#       7
#     8   8   8   8   8   8   8
#     4  10  19  38  66  92 133 185 224 278 354 422
#     4  11  23  40  63  99 132 182 236 281 352 426
#     4  10  24  45  71 101 141 185 234 291 353 418
#     4  12  22  38  64  99 138 179 231 294 351 417
#     4  12  27  44  69 102 140 181 236 287 357 433
#     4  10  25  46  72 103 139 185 238 295 348 425
#     4   9  19  40  69  96 133 180 227 274 350 420
#
# _framework density 21.795168
#
# number of rings (size 3 to 8) (size 9 to 14) (size 15 to 20)
#    0.000    1.429    4.286    0.429    4.000    1.714 
#    2.571    0.714    0.000    0.000    0.000    0.000 
#    0.000    0.000    0.000    0.000    0.000    0.000 
#
# Total GULP energy -156127.200879 kJ/mol
# GULP energy per Si atom -5575.971460 kJ/mol
# Density = 2.174556 g / cm^3
# Si number density = 21.795168 Si / 1000 Ang^3
#
#
#
# Elastic Constant Matrix: (Units=GPa)
#
#
# Indices 1 2 3 4 5 6 
#
# 1 56.1332 10.3228 -3.7038 -0.0001 1.0387 0.0000
# 2 10.3228 113.0915 18.6289 -0.0001 5.7012 0.0001
# 3 -3.7038 18.6289 66.6564 -0.0002 5.5808 0.0000
# 4 -0.0001 -0.0001 -0.0002 19.4365 0.0000 -2.3574
# 5 1.0387 5.7012 5.5808 0.0000 33.7622 0.0001
# 6 0.0000 0.0001 0.0000 -2.3574 0.0001 16.4293
#
#
#
# Elastic Compliance Matrix: (Units=1/GPa)
#
#
# Indices 1 2 3 4 5 6 
#
# 1 0.018279 -0.001905 0.001590 0.000000 -0.000504 0.000000
# 2 -0.001905 0.009512 -0.002672 0.000000 -0.001106 0.000000
# 3 0.001590 -0.002672 0.016025 0.000000 -0.002247 0.000000
# 4 0.000000 0.000000 0.000000 0.052361 0.000000 0.007513
# 5 -0.000504 -0.001106 -0.002247 0.000000 0.030193 0.000000
# 6 0.000000 0.000000 0.000000 0.007513 0.000000 0.061945
#
#
# Mechanical properties :
#
#
# Convention : Reuss Voigt Hill
#
# Bulk Modulus (GPa) = 26.42426 31.81964 29.12195
# Shear Modulus (GPa) = 24.16592 27.96781 26.06687
#
# Velocity S-wave (km/s) = 3.33344 3.58608 3.46206
# Velocity P-wave (km/s) = 5.19288 5.63717 5.41958
#
# Compressibility (1/GPa) = 0.03784401
#
# Stress axis : x y z
#
# Youngs Moduli (GPa) = 54.70651 105.12885 62.40078
#
# Poissons Ratio (x) = 0.20028 -0.09923
# Poissons Ratio (y) = 0.10422 0.16671
# Poissons Ratio (z) = -0.08700 0.28087
#
# Static dielectric constant tensor:
#      x y z
#    x 1.941470 0.000000 -0.005210 
#    y 0.000000 1.863420 0.000000 
#    z -0.005210 0.000000 1.850510 
# 
# From -- ./inp_files/280019.got.cif
#   From: 2010.05.17/outbox.cif.g08.bks.cpg/sg15_141_cif.got.tgz:280019.got - 2010.06.03 18:47:42.
