data_PCOD9267321
_publ_section_title
;
Structure prediction by ZEFSAII (Michael W. Deem and Ramdas Pophale) SiO2 
 PCOD9267321
Probable space group: C 2/C
;
_chemical_formula_sum "Si O2"
_cell_formula_units_Z 52
_cell_length_a 11.733805
_cell_length_b 7.397918
_cell_length_c 25.970264
_cell_angle_alpha 90.000000
_cell_angle_beta 104.872946
_cell_angle_gamma 90.000000
_cell_volume 2178.840441
_symmetry_space_group_name_H-M "C 2/C"
_symmetry_group_IT_number 15
_symmetry_cell_setting 'monoclinic'
loop_
_space_group_symop_operation_xyz
x,y,z
-x,y,1/2-z
-x,-y,-z
x,-y,1/2+z
1/2+x,1/2+y,z
1/2-x,1/2+y,1/2-z
1/2-x,1/2-y,-z
1/2+x,1/2-y,1/2+z
loop_
_atom_site_type_symbol
_atom_site_label
_atom_site_fract_x
_atom_site_fract_y
_atom_site_fract_z
Si Si1 0.000000 0.865371 0.250000
Si Si2 0.339275 0.246199 0.928653
Si Si3 0.910253 0.863810 0.554328
Si Si4 0.375945 0.349614 0.663882
Si Si5 0.701228 0.634570 0.707032
Si Si6 0.688547 0.977793 0.973295
Si Si7 0.870560 0.717937 0.818250
O O1 0.915044 0.772523 0.281440
O O2 0.912102 0.996379 0.208333
O O3 0.451048 0.383201 0.937663
O O4 0.359739 0.122845 0.981619
O O5 0.338961 0.154844 0.872297
O O6 0.217700 0.347341 0.929066
O O7 0.872331 0.927791 0.606321
O O8 0.888646 0.648372 0.550022
O O9 0.818013 0.950035 0.504832
O O10 0.260250 0.244316 0.667798
O O11 0.489688 0.215796 0.675674
O O12 0.799791 0.631424 0.763252
O O13 0.665066 0.432087 0.687189
#
# Coordination Sequence:
#
# PCOD9267321 Si02
#       7
#     4   8   8   8   8   8   8
#     4  10  22  36  56  84 114 154 182 236 282 330
#     4  10  21  38  57  85 115 148 187 237 283 332
#     4  10  21  36  62  84 112 150 190 229 283 339
#     4  10  19  39  60  82 116 153 183 233 286 334
#     4  11  19  39  57  81 119 144 193 233 275 346
#     4  10  21  37  59  85 114 148 188 236 282 330
#     4  10  22  36  62  83 114 158 189 232 291 329
#
# _framework density 23.865905000000001
#
# number of rings (size 3 to 8) (size 9 to 14) (size 15 to 20)
#    0.000    1.846    3.077    1.846    2.154    0.000 
#    2.769    0.000    3.385    0.000    0.000    0.000 
#    0.000    0.000    0.000    0.000    0.000    0.000 
#
# Total GULP energy -145350.936067 kJ/mol
# GULP energy per Si atom -5590.420618 kJ/mol
# Density = 2.381159 g / cm^3
# Si number density = 23.865905 Si / 1000 Ang^3
#
#
#
# Elastic Constant Matrix: (Units=GPa)
#
#
# Indices 1 2 3 4 5 6 
#
# 1 117.5251 29.3657 26.5494 0.0000 -34.0691 0.0000
# 2 29.3657 46.0084 4.7506 0.0000 -14.4495 0.0000
# 3 26.5494 4.7506 77.8542 0.0000 -22.7151 0.0000
# 4 0.0000 0.0000 0.0000 24.1728 0.0000 -12.3719
# 5 -34.0691 -14.4495 -22.7151 0.0000 41.3379 0.0000
# 6 0.0000 0.0000 0.0000 -12.3719 0.0000 12.8416
#
#
#
# Elastic Compliance Matrix: (Units=1/GPa)
#
#
# Indices 1 2 3 4 5 6 
#
# 1 0.012390 -0.005417 -0.001748 0.000000 0.007357 0.000000
# 2 -0.005417 0.026877 0.001960 0.000000 0.006007 0.000000
# 3 -0.001748 0.001960 0.015602 0.000000 0.007818 0.000000
# 4 0.000000 0.000000 0.000000 0.081610 0.000000 0.078625
# 5 0.007357 0.006007 0.007818 0.000000 0.036650 0.000000
# 6 0.000000 0.000000 0.000000 0.078625 0.000000 0.153621
#
#
# Mechanical properties :
#
#
# Convention : Reuss Voigt Hill
#
# Bulk Modulus (GPa) = 22.49273 40.30211 31.39742
# Shear Modulus (GPa) = 14.20536 27.71861 20.96198
#
# Velocity S-wave (km/s) = 2.44235 3.41167 2.96687
# Velocity P-wave (km/s) = 4.17115 5.69587 4.99207
#
# Compressibility (1/GPa) = 0.04445882
#
# Stress axis : x y z
#
# Youngs Moduli (GPa) = 80.70987 37.20663 64.09450
#
# Poissons Ratio (x) = 0.20155 0.11204
# Poissons Ratio (y) = 0.43721 -0.12562
# Poissons Ratio (z) = 0.14108 -0.07292
#
# Static dielectric constant tensor:
#      x y z
#    x 1.912440 0.000000 -0.028010 
#    y 0.000000 1.934320 0.000000 
#    z -0.028010 0.000000 1.909080 
# 
# From -- ./inp_files/291153.got.cif
#   From: 2010.05.17/outbox.cif.g08.bks.cpg/sg15_146_cif.got.tgz:291153.got - 2010.06.03 18:47:42.
