data_PCOD9267785
_publ_section_title
;
Structure prediction by ZEFSAII (Michael W. Deem and Ramdas Pophale) SiO2 
 PCOD9267785
Probable space group: C 2/C
;
_chemical_formula_sum "Si O2"
_cell_formula_units_Z 60
_cell_length_a 21.697246
_cell_length_b 11.753461
_cell_length_c 8.935458
_cell_angle_alpha 90.000000
_cell_angle_beta 81.839133
_cell_angle_gamma 90.000000
_cell_volume 2255.624807
_symmetry_space_group_name_H-M "C 2/C"
_symmetry_group_IT_number 15
_symmetry_cell_setting 'monoclinic'
loop_
_space_group_symop_operation_xyz
x,y,z
-x,y,1/2-z
-x,-y,-z
x,-y,1/2+z
1/2+x,1/2+y,z
1/2-x,1/2+y,1/2-z
1/2-x,1/2-y,-z
1/2+x,1/2-y,1/2+z
loop_
_atom_site_type_symbol
_atom_site_label
_atom_site_fract_x
_atom_site_fract_y
_atom_site_fract_z
Si Si1 0.500000 0.934751 0.750000
Si Si2 0.467658 0.600376 0.101661
Si Si3 0.880967 0.734977 0.757116
Si Si4 0.439229 0.751879 0.565096
Si Si5 0.155136 0.202038 0.696681
Si Si6 0.747402 0.470747 0.993410
Si Si7 0.256974 0.663773 0.309298
Si Si8 0.111195 0.411423 0.509546
O O1 0.453656 0.861462 0.658642
O O2 0.553595 0.973421 0.611599
O O3 0.500000 0.595733 0.250000
O O4 0.399426 0.643024 0.172497
O O5 0.500000 0.500000 0.000000
O O6 0.493035 0.706413 0.998713
O O7 0.807085 0.737110 0.774333
O O8 0.904987 0.627891 0.653275
O O9 0.906188 0.734399 0.916643
O O10 0.403563 0.660751 0.685632
O O11 0.203035 0.115552 0.603376
O O12 0.190872 0.279033 0.806358
O O13 0.130386 0.291493 0.583074
O O14 0.727399 0.597009 0.045216
O O15 0.740545 0.428492 0.826487
O O16 0.821208 0.471858 0.009403
#
# Coordination Sequence:
#
# PCOD9267785 Si02
#       8
#     4   8   8   8   8   8   8   8
#     4  10  20  38  66  86 114 164 208 258 310 378
#     4  10  23  35  49  80 118 153 196 246 293 365
#     4  11  21  38  57  87 126 159 202 258 307 370
#     4  10  23  35  58  87 117 160 208 243 312 368
#     4  10  21  41  60  88 124 166 204 252 316 377
#     4  11  23  40  63  90 126 169 208 256 313 370
#     4  11  24  39  61  91 126 164 208 258 309 369
#     4  10  19  40  65  85 119 165 207 256 309 371
#
# _framework density 26.600169000000001
#
# number of rings (size 3 to 8) (size 9 to 14) (size 15 to 20)
#    0.000    1.600    4.000    0.800    4.667    2.667 
#    0.000    0.000    0.000    7.200    0.000    0.000 
#    0.000    0.000    0.000    0.000    0.000    0.000 
#
# Total GULP energy -167551.901948 kJ/mol
# GULP energy per Si atom -5585.063398 kJ/mol
# Density = 2.653963 g / cm^3
# Si number density = 26.600169 Si / 1000 Ang^3
#
#
#
# Elastic Constant Matrix: (Units=GPa)
#
#
# Indices 1 2 3 4 5 6 
#
# 1 107.4178 4.9868 29.0834 0.0000 -19.2642 0.0000
# 2 4.9868 45.8369 40.6054 0.0000 2.6109 0.0000
# 3 29.0834 40.6054 114.1718 0.0000 -24.7371 0.0000
# 4 0.0000 0.0000 0.0000 45.1837 0.0000 2.3714
# 5 -19.2642 2.6109 -24.7371 0.0000 41.6753 0.0000
# 6 0.0000 0.0000 0.0000 2.3714 0.0000 8.8697
#
#
#
# Elastic Compliance Matrix: (Units=1/GPa)
#
#
# Indices 1 2 3 4 5 6 
#
# 1 0.010491 0.000484 -0.002066 0.000000 0.003592 0.000000
# 2 0.000484 0.035979 -0.015331 0.000000 -0.011130 0.000000
# 3 -0.002066 -0.015331 0.016914 0.000000 0.010045 0.000000
# 4 0.000000 0.000000 0.000000 0.022447 0.000000 -0.006001
# 5 0.003592 -0.011130 0.010045 0.000000 0.032315 0.000000
# 6 0.000000 0.000000 0.000000 -0.006001 0.000000 0.114347
#
#
# Mechanical properties :
#
#
# Convention : Reuss Voigt Hill
#
# Bulk Modulus (GPa) = 33.83163 46.30863 40.07013
# Shear Modulus (GPa) = 18.10475 31.99581 25.05028
#
# Velocity S-wave (km/s) = 2.61171 3.47196 3.07210
# Velocity P-wave (km/s) = 4.67342 5.78962 5.26120
#
# Compressibility (1/GPa) = 0.02955814
#
# Stress axis : x y z
#
# Youngs Moduli (GPa) = 95.32292 27.79417 59.12303
#
# Poissons Ratio (x) = -0.01347 0.12216
# Poissons Ratio (y) = -0.04618 0.90640
# Poissons Ratio (z) = 0.19696 0.42611
#
# Static dielectric constant tensor:
#      x y z
#    x 2.001200 0.000000 -0.098470 
#    y 0.000000 2.052700 0.000000 
#    z -0.098470 0.000000 0.721660 
# 
# From -- ./inp_files/61537.got.cif
#   From: 2010.05.17/outbox.cif.g08.bks.cpg/sg15_31_cif.got.tgz:61537.got - 2010.06.03 18:47:42.
