data_PCOD9267659
_publ_section_title
;
Structure prediction by ZEFSAII (Michael W. Deem and Ramdas Pophale) SiO2 
 PCOD9267659
Probable space group: C 2/C
;
_chemical_formula_sum "Si O2"
_cell_formula_units_Z 60
_cell_length_a 19.960018
_cell_length_b 17.410752
_cell_length_c 9.438740
_cell_angle_alpha 90.000000
_cell_angle_beta 86.452542
_cell_angle_gamma 90.000000
_cell_volume 3273.855650
_symmetry_space_group_name_H-M "C 2/C"
_symmetry_group_IT_number 15
_symmetry_cell_setting 'monoclinic'
loop_
_space_group_symop_operation_xyz
x,y,z
-x,y,1/2-z
-x,-y,-z
x,-y,1/2+z
1/2+x,1/2+y,z
1/2-x,1/2+y,1/2-z
1/2-x,1/2-y,-z
1/2+x,1/2-y,1/2+z
loop_
_atom_site_type_symbol
_atom_site_label
_atom_site_fract_x
_atom_site_fract_y
_atom_site_fract_z
Si Si1 0.658394 0.292195 0.440468
Si Si2 0.810587 0.719189 0.334302
Si Si3 0.113246 0.171698 0.461933
Si Si4 0.000000 0.992088 0.750000
Si Si5 0.743220 0.573242 0.461339
Si Si6 0.259079 0.917268 0.291830
Si Si7 0.466133 0.603676 0.512908
Si Si8 0.329318 0.226103 0.756944
O O1 0.663215 0.221903 0.329839
O O2 0.704425 0.360075 0.369981
O O3 0.584600 0.326943 0.463222
O O4 0.681589 0.266329 0.591561
O O5 0.858870 0.776063 0.413614
O O6 0.797881 0.637003 0.405596
O O7 0.735725 0.755861 0.333208
O O8 0.170244 0.107229 0.426777
O O9 0.110790 0.230610 0.330029
O O10 0.042725 0.132879 0.502816
O O11 0.958733 0.045476 0.646374
O O12 0.043201 0.940050 0.636157
O O13 0.759532 0.494072 0.382286
O O14 0.741985 0.564795 0.630978
O O15 0.326660 0.865026 0.279122
#
# Coordination Sequence:
#
# PCOD9267659 Si02
#       8
#     8   8   8   4   8   8   8   8
#     4  11  23  36  57  82 117 150 197 228 276 336
#     4  10  19  40  56  78 108 152 186 243 284 328
#     4  11  20  38  60  75 119 154 193 230 274 338
#     4  10  24  38  50  74 132 148 194 232 258 314
#     4  11  23  34  56  84 112 145 188 228 297 334
#     4  11  23  35  54  86 112 145 185 233 290 340
#     4  11  24  37  56  85 114 162 196 221 279 331
#     4  10  20  38  57  79 111 149 191 245 281 330
#
# _framework density 18.327014999999999
#
# number of rings (size 3 to 8) (size 9 to 14) (size 15 to 20)
#    0.000    1.333    4.000    4.000    9.333    0.000 
#    0.000    0.000    0.000    0.000    0.000    5.600 
#    0.000    0.000    0.000    0.000    0.000    0.000 
#
# Total GULP energy -167421.560075 kJ/mol
# GULP energy per Si atom -5580.718669 kJ/mol
# Density = 1.828530 g / cm^3
# Si number density = 18.327015 Si / 1000 Ang^3
#
#
#
# Elastic Constant Matrix: (Units=GPa)
#
#
# Indices 1 2 3 4 5 6 
#
# 1 50.0806 27.7290 21.4522 0.0000 -4.6752 0.0000
# 2 27.7290 107.2899 51.0581 0.0000 3.7844 0.0000
# 3 21.4522 51.0581 130.6137 0.0000 7.4357 0.0000
# 4 0.0000 0.0000 0.0000 45.7482 0.0000 -4.2176
# 5 -4.6752 3.7844 7.4357 0.0000 10.6275 0.0000
# 6 0.0000 0.0000 0.0000 -4.2176 0.0000 16.3743
#
#
#
# Elastic Compliance Matrix: (Units=1/GPa)
#
#
# Indices 1 2 3 4 5 6 
#
# 1 0.025884 -0.005889 -0.002830 0.000000 0.015463 0.000000
# 2 -0.005889 0.012800 -0.003780 0.000000 -0.004504 0.000000
# 3 -0.002830 -0.003780 0.009991 0.000000 -0.006889 0.000000
# 4 0.000000 0.000000 0.000000 0.022390 0.000000 0.005767
# 5 0.015463 -0.004504 -0.006889 0.000000 0.107322 0.000000
# 6 0.000000 0.000000 0.000000 0.005767 0.000000 0.062557
#
#
# Mechanical properties :
#
#
# Convention : Reuss Voigt Hill
#
# Bulk Modulus (GPa) = 42.23294 54.27364 48.25329
# Shear Modulus (GPa) = 18.25926 27.06631 22.66279
#
# Velocity S-wave (km/s) = 3.15985 3.84715 3.52032
# Velocity P-wave (km/s) = 6.03382 7.02940 6.55055
#
# Compressibility (1/GPa) = 0.02367820
#
# Stress axis : x y z
#
# Youngs Moduli (GPa) = 38.63412 78.12353 100.09208
#
# Poissons Ratio (x) = 0.46003 0.28322
# Poissons Ratio (y) = 0.22750 0.37837
# Poissons Ratio (z) = 0.10932 0.29532
#
# Static dielectric constant tensor:
#      x y z
#    x 1.632060 0.000000 -0.006290 
#    y 0.000000 1.655740 0.000000 
#    z -0.006290 0.000000 1.685190 
# 
# From -- ./inp_files/56601.got.cif
#   From: 2010.05.17/outbox.cif.g08.bks.cpg/sg15_29_cif.got.tgz:56601.got - 2010.06.03 18:47:42.
