data_PCOD9267973
_publ_section_title
;
Structure prediction by ZEFSAII (Michael W. Deem and Ramdas Pophale) SiO2 
 PCOD9267973
Probable space group: C 2/C
;
_chemical_formula_sum "Si O2"
_cell_formula_units_Z 40
_cell_length_a 17.040591
_cell_length_b 7.304563
_cell_length_c 13.847548
_cell_angle_alpha 90.000000
_cell_angle_beta 111.927613
_cell_angle_gamma 90.000000
_cell_volume 1598.964830
_symmetry_space_group_name_H-M "C 2/C"
_symmetry_group_IT_number 15
_symmetry_cell_setting 'monoclinic'
loop_
_space_group_symop_operation_xyz
x,y,z
-x,y,1/2-z
-x,-y,-z
x,-y,1/2+z
1/2+x,1/2+y,z
1/2-x,1/2+y,1/2-z
1/2-x,1/2-y,-z
1/2+x,1/2-y,1/2+z
loop_
_atom_site_type_symbol
_atom_site_label
_atom_site_fract_x
_atom_site_fract_y
_atom_site_fract_z
Si Si1 0.970297 0.538578 0.333931
Si Si2 0.182574 0.268304 0.053827
Si Si3 0.116941 0.349023 0.530462
Si Si4 0.104484 0.852770 0.706127
Si Si5 0.084685 0.010753 0.406234
O O1 0.919376 0.672477 0.379334
O O2 0.913772 0.361737 0.276491
O O3 0.000000 0.630911 0.250000
O O4 0.044115 0.441146 0.429745
O O5 0.174923 0.163926 0.153936
O O6 0.250000 0.250000 0.000000
O O7 0.180982 0.484474 0.071199
O O8 0.100456 0.184231 0.961512
O O9 0.139168 0.158861 0.492590
O O10 0.115523 0.963455 0.810415
O O11 0.013063 0.928531 0.628120
#
# Coordination Sequence:
#
# PCOD9267973 Si02
#       5
#     8   8   8   8   8
#     4   9  14  31  58  87 115 138 190 250 295 332
#     4  11  24  40  55  89 125 155 199 242 295 371
#     4   9  19  34  58  82 112 156 187 241 293 348
#     4   9  18  38  63  88 117 153 200 259 289 349
#     4  10  19  41  64  85 116 155 201 251 298 341
#
# _framework density 25.016183000000002
#
# number of rings (size 3 to 8) (size 9 to 14) (size 15 to 20)
#    0.000    2.400    4.000    1.800    0.000    0.800 
#   10.800    0.000    0.000    0.000    0.000    0.000 
#    0.000    0.000    0.000    0.000    0.000    0.000 
#
# Total GULP energy -111621.843205 kJ/mol
# GULP energy per Si atom -5581.092160 kJ/mol
# Density = 2.495924 g / cm^3
# Si number density = 25.016183 Si / 1000 Ang^3
#
#
#
# Elastic Constant Matrix: (Units=GPa)
#
#
# Indices 1 2 3 4 5 6 
#
# 1 91.5306 12.8698 30.5851 0.0000 -50.4024 0.0000
# 2 12.8698 100.5992 14.6227 0.0000 -8.4990 0.0000
# 3 30.5851 14.6227 109.5453 0.0000 -55.7412 0.0000
# 4 0.0000 0.0000 0.0000 23.9905 0.0000 -8.2600
# 5 -50.4024 -8.4990 -55.7412 0.0000 50.9043 0.0000
# 6 0.0000 0.0000 0.0000 -8.2600 0.0000 11.9093
#
#
#
# Elastic Compliance Matrix: (Units=1/GPa)
#
#
# Indices 1 2 3 4 5 6 
#
# 1 0.034935 -0.002534 0.017999 0.000000 0.053877 0.000000
# 2 -0.002534 0.010326 -0.002417 0.000000 -0.003431 0.000000
# 3 0.017999 -0.002417 0.030011 0.000000 0.050280 0.000000
# 4 0.000000 0.000000 0.000000 0.054760 0.000000 0.037980
# 5 0.053877 -0.003431 0.050280 0.000000 0.127476 0.000000
# 6 0.000000 0.000000 0.000000 0.037980 0.000000 0.110310
#
#
# Mechanical properties :
#
#
# Convention : Reuss Voigt Hill
#
# Bulk Modulus (GPa) = 9.86497 46.42559 28.14528
# Shear Modulus (GPa) = 13.31521 33.60065 23.45793
#
# Velocity S-wave (km/s) = 2.30959 3.66889 3.06553
# Velocity P-wave (km/s) = 3.32630 6.04534 4.87906
#
# Compressibility (1/GPa) = 0.10136882
#
# Stress axis : x y z
#
# Youngs Moduli (GPa) = 28.62436 96.84275 33.32150
#
# Poissons Ratio (x) = 0.24538 -0.59976
# Poissons Ratio (y) = 0.07253 0.08054
# Poissons Ratio (z) = -0.51522 0.23407
#
# Static dielectric constant tensor:
#      x y z
#    x 2.075800 0.000000 0.038680 
#    y 0.000000 1.978010 0.000000 
#    z 0.038680 0.000000 1.994220 
# 
# From -- ./inp_files/158750.got.cif
#   From: 2010.05.17/outbox.cif.g08.bks.cpg/sg15_80_cif.got.tgz:158750.got - 2010.06.03 18:47:42.
