data_PCOD9267772
_publ_section_title
;
Structure prediction by ZEFSAII (Michael W. Deem and Ramdas Pophale) SiO2 
 PCOD9267772
Probable space group: C 2/C
;
_chemical_formula_sum "Si O2"
_cell_formula_units_Z 52
_cell_length_a 19.979281
_cell_length_b 8.740036
_cell_length_c 17.231578
_cell_angle_alpha 90.000000
_cell_angle_beta 131.536193
_cell_angle_gamma 90.000000
_cell_volume 2252.326781
_symmetry_space_group_name_H-M "C 2/C"
_symmetry_group_IT_number 15
_symmetry_cell_setting 'monoclinic'
loop_
_space_group_symop_operation_xyz
x,y,z
-x,y,1/2-z
-x,-y,-z
x,-y,1/2+z
1/2+x,1/2+y,z
1/2-x,1/2+y,1/2-z
1/2-x,1/2-y,-z
1/2+x,1/2-y,1/2+z
loop_
_atom_site_type_symbol
_atom_site_label
_atom_site_fract_x
_atom_site_fract_y
_atom_site_fract_z
Si Si1 0.830035 0.607833 0.716370
Si Si2 0.000000 0.569305 0.750000
Si Si3 0.772137 0.918994 0.753535
Si Si4 0.196965 0.122317 0.863108
Si Si5 0.193877 0.888502 0.988679
Si Si6 0.391994 0.814623 0.586762
Si Si7 0.078601 0.954090 0.504722
O O1 0.780392 0.762868 0.709626
O O2 0.820094 0.481211 0.777694
O O3 0.768841 0.536171 0.601165
O O4 0.923151 0.647057 0.744643
O O5 0.051060 0.464159 0.852677
O O6 0.842906 0.899766 0.876987
O O7 0.802716 0.061651 0.723205
O O8 0.132389 0.252400 0.845759
O O9 0.298392 0.154178 0.970203
O O10 0.166672 0.982044 0.893355
O O11 0.109690 0.894594 0.980683
O O12 0.250000 0.750000 0.000000
O O13 0.437430 0.681320 0.569908
O O14 0.000000 0.000000 0.500000
#
# Coordination Sequence:
#
# PCOD9267772 Si02
#       7
#     8   4   8   8   8   8   8
#     4  11  25  42  67 101 135 171 227 277 337 414
#     4  12  26  42  68 100 140 178 226 286 346 402
#     4  11  24  43  70  97 132 180 227 278 342 404
#     4  10  20  41  71  92 124 177 230 265 322 413
#     4  10  19  40  64  92 121 170 214 265 322 401
#     4  10  23  41  66  96 135 176 226 273 339 402
#     4  10  24  41  60  94 134 167 219 281 333 400
#
# _framework density 23.087236999999998
#
# number of rings (size 3 to 8) (size 9 to 14) (size 15 to 20)
#    0.000    1.538    3.077    0.923    6.462    2.462 
#    0.000    1.538    0.000    0.000    0.000    0.000 
#    0.000    0.000    0.000    0.000    0.000    0.000 
#
# Total GULP energy -144822.260186 kJ/mol
# GULP energy per Si atom -5570.086930 kJ/mol
# Density = 2.303469 g / cm^3
# Si number density = 23.087237 Si / 1000 Ang^3
#
#
#
# Elastic Constant Matrix: (Units=GPa)
#
#
# Indices 1 2 3 4 5 6 
#
# 1 196.7757 55.9603 9.3292 0.0000 -27.2161 0.0000
# 2 55.9603 73.6342 -1.7532 0.0000 -17.1999 0.0000
# 3 9.3292 -1.7532 39.3484 0.0000 -22.4733 0.0000
# 4 0.0000 0.0000 0.0000 32.4702 0.0000 -5.6725
# 5 -27.2161 -17.1999 -22.4733 0.0000 34.3797 0.0000
# 6 0.0000 0.0000 0.0000 -5.6725 0.0000 29.8371
#
#
#
# Elastic Compliance Matrix: (Units=1/GPa)
#
#
# Indices 1 2 3 4 5 6 
#
# 1 0.006772 -0.004410 0.000000 0.000000 0.003155 0.000000
# 2 -0.004410 0.020060 0.009060 0.000000 0.012467 0.000000
# 3 0.000000 0.009060 0.045329 0.000000 0.034163 0.000000
# 4 0.000000 0.000000 0.000000 0.031856 0.000000 0.006056
# 5 0.003155 0.012467 0.034163 0.000000 0.060153 0.000000
# 6 0.000000 0.000000 0.000000 0.006056 0.000000 0.034667
#
#
# Mechanical properties :
#
#
# Convention : Reuss Voigt Hill
#
# Bulk Modulus (GPa) = 12.27596 48.53677 30.40637
# Shear Modulus (GPa) = 23.07425 35.75220 29.41322
#
# Velocity S-wave (km/s) = 3.16482 3.93946 3.57319
# Velocity P-wave (km/s) = 4.32244 6.46230 5.49749
#
# Compressibility (1/GPa) = 0.08146000
#
# Stress axis : x y z
#
# Youngs Moduli (GPa) = 147.65766 49.85072 22.06073
#
# Poissons Ratio (x) = 0.21984 0.00001
# Poissons Ratio (y) = 0.65117 -0.19986
# Poissons Ratio (z) = 0.00006 -0.45163
#
# Static dielectric constant tensor:
#      x y z
#    x 2.276180 0.000000 0.057760 
#    y 0.000000 1.995980 0.000000 
#    z 0.057760 0.000000 1.865020 
# 
# From -- ./inp_files/209710.got.cif
#   From: 2010.05.17/outbox.cif.g08.bks.cpg/sg15_105_cif.got.tgz:209710.got - 2010.06.03 18:47:42.
