data_PCOD9267454
_publ_section_title
;
Structure prediction by ZEFSAII (Michael W. Deem and Ramdas Pophale) SiO2 
 PCOD9267454
Probable space group: C 2/C
;
_chemical_formula_sum "Si O2"
_cell_formula_units_Z 40
_cell_length_a 8.552402
_cell_length_b 11.183357
_cell_length_c 16.696629
_cell_angle_alpha 90.000000
_cell_angle_beta 86.956803
_cell_angle_gamma 90.000000
_cell_volume 1594.689796
_symmetry_space_group_name_H-M "C 2/C"
_symmetry_group_IT_number 15
_symmetry_cell_setting 'monoclinic'
loop_
_space_group_symop_operation_xyz
x,y,z
-x,y,1/2-z
-x,-y,-z
x,-y,1/2+z
1/2+x,1/2+y,z
1/2-x,1/2+y,1/2-z
1/2-x,1/2-y,-z
1/2+x,1/2-y,1/2+z
loop_
_atom_site_type_symbol
_atom_site_label
_atom_site_fract_x
_atom_site_fract_y
_atom_site_fract_z
Si Si1 0.996030 0.811029 0.998687
Si Si2 0.210077 0.405776 0.929619
Si Si3 0.718989 0.756716 0.623556
Si Si4 0.670406 0.759541 0.209764
Si Si5 0.049002 0.492882 0.155022
O O1 0.868908 0.910754 0.976979
O O2 0.115082 0.781250 0.923468
O O3 0.896735 0.692369 0.022897
O O4 0.107960 0.826079 0.072486
O O5 0.259966 0.346177 0.843881
O O6 0.096949 0.511989 0.903004
O O7 0.731503 0.711409 0.713740
O O8 0.641388 0.888166 0.630503
O O9 0.500000 0.728644 0.250000
O O10 0.653022 0.874249 0.153317
O O11 0.000000 0.501682 0.250000
#
# Coordination Sequence:
#
# PCOD9267454 Si02
#       5
#     8   8   8   8   8
#     4   9  20  35  65  88 127 169 201 258 333 367
#     4  10  19  39  63  93 122 170 207 264 314 381
#     4  10  19  39  64  93 127 166 208 268 314 374
#     4  11  21  36  67  94 124 165 217 260 314 375
#     4  10  21  36  65  93 121 163 215 261 312 370
#
# _framework density 25.08325
#
# number of rings (size 3 to 8) (size 9 to 14) (size 15 to 20)
#    0.000    2.000    4.000    0.000    0.000    0.000 
#    0.000   10.000   44.000    0.000    0.000    0.000 
#    0.000    0.000    0.000    0.000    0.000    0.000 
#
# Total GULP energy -111957.744873 kJ/mol
# GULP energy per Si atom -5597.887244 kJ/mol
# Density = 2.502616 g / cm^3
# Si number density = 25.083250 Si / 1000 Ang^3
#
#
#
# Elastic Constant Matrix: (Units=GPa)
#
#
# Indices 1 2 3 4 5 6 
#
# 1 112.6935 25.2317 48.6393 0.0000 31.3743 0.0000
# 2 25.2317 68.1375 14.1749 0.0000 9.1859 0.0000
# 3 48.6393 14.1749 149.3453 0.0000 33.5667 0.0000
# 4 0.0000 0.0000 0.0000 34.0537 0.0000 6.8798
# 5 31.3743 9.1859 33.5667 0.0000 63.5457 0.0000
# 6 0.0000 0.0000 0.0000 6.8798 0.0000 33.1245
#
#
#
# Elastic Compliance Matrix: (Units=1/GPa)
#
#
# Indices 1 2 3 4 5 6 
#
# 1 0.011868 -0.003306 -0.002657 0.000000 -0.003978 0.000000
# 2 -0.003306 0.016038 -0.000331 0.000000 -0.000512 0.000000
# 3 -0.002657 -0.000331 0.008269 0.000000 -0.003008 0.000000
# 4 0.000000 0.000000 0.000000 0.030652 0.000000 -0.006366
# 5 -0.003978 -0.000512 -0.003008 0.000000 0.019364 0.000000
# 6 0.000000 0.000000 0.000000 -0.006366 0.000000 0.031511
#
#
# Mechanical properties :
#
#
# Convention : Reuss Voigt Hill
#
# Bulk Modulus (GPa) = 42.39512 56.25201 49.32357
# Shear Modulus (GPa) = 36.19206 42.28680 39.23943
#
# Velocity S-wave (km/s) = 3.80264 4.11037 3.95950
# Velocity P-wave (km/s) = 6.01819 6.70833 6.37261
#
# Compressibility (1/GPa) = 0.02358762
#
# Stress axis : x y z
#
# Youngs Moduli (GPa) = 84.25844 62.35154 120.93620
#
# Poissons Ratio (x) = 0.20612 0.32138
# Poissons Ratio (y) = 0.27854 0.03998
# Poissons Ratio (z) = 0.22391 0.02061
#
# Static dielectric constant tensor:
#      x y z
#    x 2.002440 0.000000 0.064720 
#    y 0.000000 1.966010 0.000000 
#    z 0.064720 0.000000 1.983160 
# 
# From -- ./inp_files/188492.got.cif
#   From: 2010.05.17/outbox.cif.g08.bks.cpg/sg15_95_cif.got.tgz:188492.got - 2010.06.03 18:47:42.
