data_PCOD9267204
_publ_section_title
;
Structure prediction by ZEFSAII (Michael W. Deem and Ramdas Pophale) SiO2 
 PCOD9267204
Probable space group: C 2/C
;
_chemical_formula_sum "Si O2"
_cell_formula_units_Z 64
_cell_length_a 32.162582
_cell_length_b 10.574592
_cell_length_c 18.197670
_cell_angle_alpha 90.000000
_cell_angle_beta 30.431451
_cell_angle_gamma 90.000000
_cell_volume 3134.843648
_symmetry_space_group_name_H-M "C 2/C"
_symmetry_group_IT_number 15
_symmetry_cell_setting 'monoclinic'
loop_
_space_group_symop_operation_xyz
x,y,z
-x,y,1/2-z
-x,-y,-z
x,-y,1/2+z
1/2+x,1/2+y,z
1/2-x,1/2+y,1/2-z
1/2-x,1/2-y,-z
1/2+x,1/2-y,1/2+z
loop_
_atom_site_type_symbol
_atom_site_label
_atom_site_fract_x
_atom_site_fract_y
_atom_site_fract_z
Si Si1 0.586632 0.809768 0.091948
Si Si2 0.281080 0.663529 0.520330
Si Si3 0.582190 0.549047 0.668239
Si Si4 0.125161 0.663768 0.369593
Si Si5 0.917430 0.409348 0.836621
Si Si6 0.188420 0.760055 0.916775
Si Si7 0.459637 0.243898 0.141700
Si Si8 0.629853 0.129806 0.856487
O O1 0.500000 0.757768 0.250000
O O2 0.588227 0.952453 0.120995
O O3 0.666323 0.747902 0.004317
O O4 0.588452 0.793908 0.002510
O O5 0.250000 0.750000 0.500000
O O6 0.347866 0.548910 0.407339
O O7 0.197628 0.628144 0.689587
O O8 0.500000 0.504798 0.750000
O O9 0.628286 0.627325 0.533174
O O10 0.555557 0.642716 0.776618
O O11 0.222564 0.681200 0.224125
O O12 0.095830 0.745244 0.345502
O O13 0.102066 0.515808 0.401544
O O14 0.935557 0.383365 0.724316
O O15 0.000000 0.352353 0.750000
O O16 0.833397 0.339412 0.985614
O O17 0.169175 0.680927 0.872604
O O18 0.551271 0.221764 0.971382
#
# Coordination Sequence:
#
# PCOD9267204 Si02
#       8
#     8   8   8   8   8   8   8   8
#     4  11  24  42  64  95 138 186 229 289 364 428
#     4  12  29  44  67  97 142 189 235 298 360 427
#     4  11  23  49  75 102 142 192 241 292 367 434
#     4  12  25  39  68 109 139 178 234 305 361 423
#     4  10  19  38  67  98 131 177 228 283 350 419
#     4  11  20  40  70 100 135 184 233 292 355 427
#     4  11  24  41  75 104 134 181 238 306 351 435
#     4  12  22  45  66 101 139 182 236 291 356 430
#
# _framework density 20.415690999999999
#
# number of rings (size 3 to 8) (size 9 to 14) (size 15 to 20)
#    0.000    0.750    6.250    2.250    3.500    3.000 
#    0.000    1.875    0.000    0.000    0.000    0.000 
#    0.000    0.000    0.000    0.000    0.000    0.000 
#
# Total GULP energy -178287.027124 kJ/mol
# GULP energy per Si atom -5571.469598 kJ/mol
# Density = 2.036922 g / cm^3
# Si number density = 20.415691 Si / 1000 Ang^3
#
#
#
# Elastic Constant Matrix: (Units=GPa)
#
#
# Indices 1 2 3 4 5 6 
#
# 1 95.7321 27.6687 22.2994 0.0000 20.1909 0.0000
# 2 27.6687 73.4176 31.9082 0.0001 4.6165 -0.0001
# 3 22.2994 31.9082 122.3605 0.0000 7.6410 0.0000
# 4 0.0000 0.0001 0.0000 101.6984 0.0000 -79.6892
# 5 20.1909 4.6165 7.6410 0.0000 20.5328 -0.0001
# 6 0.0000 -0.0001 0.0000 -79.6892 -0.0001 95.6094
#
#
#
# Elastic Compliance Matrix: (Units=1/GPa)
#
#
# Indices 1 2 3 4 5 6 
#
# 1 0.014654 -0.004389 -0.000704 0.000000 -0.013161 0.000000
# 2 -0.004389 0.016758 -0.003690 0.000000 0.001921 0.000000
# 3 -0.000704 -0.003690 0.009386 0.000000 -0.001971 0.000000
# 4 0.000000 0.000000 0.000000 0.028346 0.000000 0.023626
# 5 -0.013161 0.001921 -0.001971 0.000000 0.061946 0.000000
# 6 0.000000 0.000000 0.000000 0.023626 0.000000 0.030151
#
#
# Mechanical properties :
#
#
# Convention : Reuss Voigt Hill
#
# Bulk Modulus (GPa) = 43.04491 50.58476 46.81484
# Shear Modulus (GPa) = 26.80219 57.54373 42.17296
#
# Velocity S-wave (km/s) = 3.62722 5.31481 4.54994
# Velocity P-wave (km/s) = 6.21871 7.90532 7.11219
#
# Compressibility (1/GPa) = 0.02323155
#
# Stress axis : x y z
#
# Youngs Moduli (GPa) = 68.23954 59.67394 106.53883
#
# Poissons Ratio (x) = 0.26191 0.07503
# Poissons Ratio (y) = 0.29951 0.39313
# Poissons Ratio (z) = 0.04806 0.22020
#
# Static dielectric constant tensor:
#      x y z
#    x 1.717400 0.000000 0.006660 
#    y 0.000000 1.886160 0.000000 
#    z 0.006660 0.000000 1.709480 
# 
# From -- ./inp_files/225156.got.cif
#   From: 2010.05.17/outbox.cif.g08.bks.cpg/sg15_113_cif.got.tgz:225156.got - 2010.06.03 18:47:42.
