data_PCOD9267474
_publ_section_title
;
Structure prediction by ZEFSAII (Michael W. Deem and Ramdas Pophale) SiO2 
 PCOD9267474
Probable space group: C 2/C
;
_chemical_formula_sum "Si O2"
_cell_formula_units_Z 56
_cell_length_a 14.905404
_cell_length_b 7.240068
_cell_length_c 21.911428
_cell_angle_alpha 90.000000
_cell_angle_beta 74.021963
_cell_angle_gamma 90.000000
_cell_volume 2273.245908
_symmetry_space_group_name_H-M "C 2/C"
_symmetry_group_IT_number 15
_symmetry_cell_setting 'monoclinic'
loop_
_space_group_symop_operation_xyz
x,y,z
-x,y,1/2-z
-x,-y,-z
x,-y,1/2+z
1/2+x,1/2+y,z
1/2-x,1/2+y,1/2-z
1/2-x,1/2-y,-z
1/2+x,1/2-y,1/2+z
loop_
_atom_site_type_symbol
_atom_site_label
_atom_site_fract_x
_atom_site_fract_y
_atom_site_fract_z
Si Si1 0.085201 0.374373 0.872172
Si Si2 0.219931 0.845758 0.856594
Si Si3 0.618028 0.116235 0.091184
Si Si4 0.653773 0.823508 0.989893
Si Si5 0.979419 0.200643 0.093273
Si Si6 0.076767 0.732911 0.687166
Si Si7 0.253013 0.719966 0.724983
O O1 0.148527 0.325439 0.918571
O O2 0.056031 0.587569 0.888067
O O3 0.147269 0.318120 0.803120
O O4 0.981755 0.284142 0.891048
O O5 0.118764 0.888605 0.903985
O O6 0.226509 0.698289 0.800564
O O7 0.292719 0.790077 0.895232
O O8 0.239896 0.026135 0.811497
O O9 0.608731 0.936991 0.138204
O O10 0.638184 0.027828 0.021434
O O11 0.750000 0.750000 0.000000
O O12 0.563554 0.708892 0.030126
O O13 0.023085 0.136565 0.149497
O O14 0.164326 0.812498 0.707276
O O15 0.000000 0.666516 0.750000
#
# Coordination Sequence:
#
# PCOD9267474 Si02
#       7
#     8   8   8   8   8   8   8
#     4  10  20  39  60  85 111 156 201 237 287 345
#     4  11  22  38  55  90 119 154 193 237 299 341
#     4   9  21  33  58  81 116 149 193 233 291 343
#     4  10  19  39  64  87 111 154 203 238 284 357
#     4  10  20  36  61  85 113 149 195 245 284 337
#     4   9  16  32  53  78 104 150 192 222 272 337
#     4  11  22  35  59  83 121 154 194 240 288 355
#
# _framework density 24.634378000000002
#
# number of rings (size 3 to 8) (size 9 to 14) (size 15 to 20)
#    0.000    2.286    1.429    5.143    6.000    0.000 
#    0.000   11.429    0.000    0.000    0.000    0.000 
#    0.000    0.000    0.000    0.000    0.000    0.000 
#
# Total GULP energy -156291.029133 kJ/mol
# GULP energy per Si atom -5581.822469 kJ/mol
# Density = 2.457831 g / cm^3
# Si number density = 24.634378 Si / 1000 Ang^3
#
#
#
# Elastic Constant Matrix: (Units=GPa)
#
#
# Indices 1 2 3 4 5 6 
#
# 1 189.8977 -6.4902 25.3943 0.0000 -6.3285 0.0000
# 2 -6.4902 32.6947 -13.4346 0.0000 -0.1444 0.0000
# 3 25.3943 -13.4346 76.4723 0.0000 -16.0049 0.0000
# 4 0.0000 0.0000 0.0000 21.8170 0.0000 -3.5082
# 5 -6.3285 -0.1444 -16.0049 0.0000 45.9191 0.0000
# 6 0.0000 0.0000 0.0000 -3.5082 0.0000 24.0015
#
#
#
# Elastic Compliance Matrix: (Units=1/GPa)
#
#
# Indices 1 2 3 4 5 6 
#
# 1 0.005516 0.000384 -0.001731 0.000000 0.000158 0.000000
# 2 0.000384 0.033217 0.006193 0.000000 0.002316 0.000000
# 3 -0.001731 0.006193 0.015850 0.000000 0.005305 0.000000
# 4 0.000000 0.000000 0.000000 0.046939 0.000000 0.006861
# 5 0.000158 0.002316 0.005305 0.000000 0.023656 0.000000
# 6 0.000000 0.000000 0.000000 0.006861 0.000000 0.042667
#
#
# Mechanical properties :
#
#
# Convention : Reuss Voigt Hill
#
# Bulk Modulus (GPa) = 15.55827 34.44487 25.00157
# Shear Modulus (GPa) = 27.84314 37.92053 32.88184
#
# Velocity S-wave (km/s) = 3.36557 3.92769 3.65745
# Velocity P-wave (km/s) = 4.62949 5.88063 5.29216
#
# Compressibility (1/GPa) = 0.06427449
#
# Stress axis : x y z
#
# Youngs Moduli (GPa) = 181.29456 30.10493 63.09260
#
# Poissons Ratio (x) = -0.01157 0.10922
# Poissons Ratio (y) = -0.06968 -0.39071
# Poissons Ratio (z) = 0.31383 -0.18643
#
# Static dielectric constant tensor:
#      x y z
#    x 2.061910 0.000000 0.016240 
#    y 0.000000 2.137710 0.000000 
#    z 0.016240 0.000000 1.952550 
# 
# From -- ./inp_files/272662.got.cif
#   From: 2010.05.17/outbox.cif.g08.bks.cpg/sg15_137_cif.got.tgz:272662.got - 2010.06.03 18:47:42.
