data_PCOD9267878
_publ_section_title
;
Structure prediction by ZEFSAII (Michael W. Deem and Ramdas Pophale) SiO2 
 PCOD9267878
Probable space group: C 2/C
;
_chemical_formula_sum "Si O2"
_cell_formula_units_Z 60
_cell_length_a 28.471354
_cell_length_b 13.311724
_cell_length_c 15.830114
_cell_angle_alpha 90.000000
_cell_angle_beta 152.006448
_cell_angle_gamma 90.000000
_cell_volume 2816.072465
_symmetry_space_group_name_H-M "C 2/C"
_symmetry_group_IT_number 15
_symmetry_cell_setting 'monoclinic'
loop_
_space_group_symop_operation_xyz
x,y,z
-x,y,1/2-z
-x,-y,-z
x,-y,1/2+z
1/2+x,1/2+y,z
1/2-x,1/2+y,1/2-z
1/2-x,1/2-y,-z
1/2+x,1/2-y,1/2+z
loop_
_atom_site_type_symbol
_atom_site_label
_atom_site_fract_x
_atom_site_fract_y
_atom_site_fract_z
Si Si1 0.489271 0.338433 0.634737
Si Si2 0.622853 0.016215 0.538220
Si Si3 0.109584 0.953437 0.695804
Si Si4 0.519678 0.817547 0.650777
Si Si5 0.500000 0.355515 0.250000
Si Si6 0.976668 0.634607 0.891372
Si Si7 0.154773 0.984722 0.591217
Si Si8 0.672210 0.005905 0.424305
O O1 0.500000 0.355925 0.750000
O O2 0.582233 0.377389 0.726633
O O3 0.486304 0.221373 0.612345
O O4 0.394306 0.408069 0.461318
O O5 0.549848 0.957201 0.484975
O O6 0.732038 0.006892 0.750526
O O7 0.574371 0.125917 0.455166
O O8 0.632943 0.980141 0.457237
O O9 0.146274 0.916242 0.662322
O O10 0.000000 0.000000 0.500000
O O11 0.207459 0.015087 0.881884
O O12 0.529661 0.713818 0.717039
O O13 0.491409 0.817980 0.507089
O O14 0.616628 0.889976 0.813143
O O15 0.591065 0.427762 0.420344
O O16 0.868843 0.585008 0.699592
#
# Coordination Sequence:
#
# PCOD9267878 Si02
#       8
#     8   8   8   8   4   8   8   8
#     4  11  22  40  61  89 127 174 214 267 316 389
#     4  10  20  41  65  97 134 168 211 274 328 394
#     4   9  21  41  64  91 130 167 213 265 328 386
#     4  11  22  40  67  97 136 167 221 273 331 391
#     4  12  22  44  66  98 126 178 228 272 328 392
#     4  11  23  38  63 100 131 167 222 267 325 398
#     4  10  23  41  66  89 132 174 214 271 332 381
#     4  10  19  40  68  97 130 173 209 274 331 386
#
# _framework density 21.306269
#
# number of rings (size 3 to 8) (size 9 to 14) (size 15 to 20)
#    0.000    1.600    2.000    4.400    0.000    3.733 
#    2.400    0.667    0.000    0.000    0.000    0.000 
#    0.000    0.000    0.000    0.000    0.000    0.000 
#
# Total GULP energy -167237.027933 kJ/mol
# GULP energy per Si atom -5574.567598 kJ/mol
# Density = 2.125777 g / cm^3
# Si number density = 21.306269 Si / 1000 Ang^3
#
#
#
# Elastic Constant Matrix: (Units=GPa)
#
#
# Indices 1 2 3 4 5 6 
#
# 1 52.6067 -2.0859 20.6708 0.0000 -1.8331 0.0000
# 2 -2.0859 71.2050 35.8536 0.0000 3.2842 0.0000
# 3 20.6708 35.8536 144.8717 0.0000 13.9292 0.0000
# 4 0.0000 0.0000 0.0000 13.1116 0.0000 -11.7077
# 5 -1.8331 3.2842 13.9292 0.0000 36.0405 0.0000
# 6 0.0000 0.0000 0.0000 -11.7077 0.0000 24.0347
#
#
#
# Elastic Compliance Matrix: (Units=1/GPa)
#
#
# Indices 1 2 3 4 5 6 
#
# 1 0.020661 0.002393 -0.003760 0.000000 0.002286 0.000000
# 2 0.002393 0.016321 -0.004413 0.000000 0.000340 0.000000
# 3 -0.003760 -0.004413 0.008840 0.000000 -0.003205 0.000000
# 4 0.000000 0.000000 0.000000 0.134980 0.000000 0.065751
# 5 0.002286 0.000340 -0.003205 0.000000 0.029071 0.000000
# 6 0.000000 0.000000 0.000000 0.065751 0.000000 0.073635
#
#
# Mechanical properties :
#
#
# Convention : Reuss Voigt Hill
#
# Bulk Modulus (GPa) = 29.18798 41.95115 35.56957
# Shear Modulus (GPa) = 16.31390 28.92035 22.61713
#
# Velocity S-wave (km/s) = 2.77010 3.68824 3.26164
# Velocity P-wave (km/s) = 4.89492 6.15384 5.56013
#
# Compressibility (1/GPa) = 0.03426068
#
# Stress axis : x y z
#
# Youngs Moduli (GPa) = 48.40049 61.27242 113.12769
#
# Poissons Ratio (x) = -0.14663 0.42536
# Poissons Ratio (y) = -0.11583 0.49926
# Poissons Ratio (z) = 0.18199 0.27041
#
# Static dielectric constant tensor:
#      x y z
#    x 1.806810 0.000000 -0.037460 
#    y 0.000000 1.822420 0.000000 
#    z -0.037460 0.000000 1.850710 
# 
# From -- ./inp_files/178548.got.cif
#   From: 2010.05.17/outbox.cif.g08.bks.cpg/sg15_90_cif.got.tgz:178548.got - 2010.06.03 18:47:42.
