data_PCOD9267198
_publ_section_title
;
Structure prediction by ZEFSAII (Michael W. Deem and Ramdas Pophale) SiO2 
 PCOD9267198
Probable space group: C 2/C
;
_chemical_formula_sum "Si O2"
_cell_formula_units_Z 64
_cell_length_a 29.548860
_cell_length_b 21.131641
_cell_length_c 14.752290
_cell_angle_alpha 90.000000
_cell_angle_beta 19.637340
_cell_angle_gamma 90.000000
_cell_volume 3095.688490
_symmetry_space_group_name_H-M "C 2/C"
_symmetry_group_IT_number 15
_symmetry_cell_setting 'monoclinic'
loop_
_space_group_symop_operation_xyz
x,y,z
-x,y,1/2-z
-x,-y,-z
x,-y,1/2+z
1/2+x,1/2+y,z
1/2-x,1/2+y,1/2-z
1/2-x,1/2-y,-z
1/2+x,1/2-y,1/2+z
loop_
_atom_site_type_symbol
_atom_site_label
_atom_site_fract_x
_atom_site_fract_y
_atom_site_fract_z
Si Si1 0.174586 0.184096 0.151680
Si Si2 0.435732 0.683474 0.469541
Si Si3 0.321742 0.778321 0.953193
Si Si4 0.332934 0.453444 0.147431
Si Si5 0.564745 0.084945 0.228316
Si Si6 0.507247 0.338488 0.131000
Si Si7 0.782374 0.436508 0.335376
Si Si8 0.439706 0.469244 0.203283
O O1 0.035226 0.199579 0.363081
O O2 0.143967 0.166309 0.314061
O O3 0.250000 0.250000 0.000000
O O4 0.242356 0.125018 0.970346
O O5 0.500000 0.695132 0.250000
O O6 0.412556 0.608762 0.527332
O O7 0.292508 0.716848 0.753558
O O8 0.381892 0.848761 0.832373
O O9 0.438311 0.729591 0.756674
O O10 0.250000 0.750000 0.000000
O O11 0.195344 0.459239 0.464732
O O12 0.283863 0.433378 0.140028
O O13 0.439727 0.509929 0.954474
O O14 0.500000 0.097202 0.250000
O O15 0.442218 0.059103 0.519657
O O16 0.500000 0.356300 0.250000
O O17 0.427936 0.394268 0.228717
O O18 0.705228 0.498560 0.514627
O O19 0.500000 0.500000 0.000000
#
# Coordination Sequence:
#
# PCOD9267198 Si02
#       8
#     8   8   8   8   8   8   8   8
#     4  12  24  38  62  97 132 161 217 268 328 388
#     4  11  20  37  63  94 120 170 213 266 314 384
#     4  11  23  39  61  90 133 168 210 258 333 400
#     4  10  19  38  67  94 123 164 222 264 319 381
#     4   9  21  37  64  95 125 161 213 272 328 380
#     4  12  26  43  63  94 132 176 211 272 333 392
#     4  11  20  39  64  95 123 166 215 274 313 382
#     4  12  23  41  67  95 127 170 230 273 321 387
#
# _framework density 20.673915000000001
#
# number of rings (size 3 to 8) (size 9 to 14) (size 15 to 20)
#    0.000    1.000    5.000    2.250    3.500    0.000 
#    0.000    0.625    2.750    0.750    0.000    0.000 
#    0.000    0.000    0.000    0.000    0.000    0.000 
#
# Total GULP energy -178568.823887 kJ/mol
# GULP energy per Si atom -5580.275746 kJ/mol
# Density = 2.062686 g / cm^3
# Si number density = 20.673915 Si / 1000 Ang^3
#
#
#
# Elastic Constant Matrix: (Units=GPa)
#
#
# Indices 1 2 3 4 5 6 
#
# 1 67.3151 -5.8224 21.3037 0.0000 16.4741 0.0002
# 2 -5.8224 49.1057 18.8387 0.0001 14.9265 0.0000
# 3 21.3037 18.8387 145.2435 0.0006 30.0822 -0.0003
# 4 0.0000 0.0001 0.0006 27.4780 -0.0002 4.4765
# 5 16.4741 14.9265 30.0822 -0.0002 34.5758 0.0000
# 6 0.0002 0.0000 -0.0003 4.4765 0.0000 16.5358
#
#
#
# Elastic Compliance Matrix: (Units=1/GPa)
#
#
# Indices 1 2 3 4 5 6 
#
# 1 0.018216 0.005707 -0.001347 0.000000 -0.009971 0.000000
# 2 0.005707 0.025387 -0.001582 0.000000 -0.012303 0.000000
# 3 -0.001347 -0.001582 0.008555 0.000000 -0.006118 0.000000
# 4 0.000000 0.000000 0.000000 0.038072 0.000000 -0.010307
# 5 -0.009971 -0.012303 -0.006118 0.000000 0.044307 0.000000
# 6 0.000000 0.000000 0.000000 -0.010307 0.000000 0.063265
#
#
# Mechanical properties :
#
#
# Convention : Reuss Voigt Hill
#
# Bulk Modulus (GPa) = 17.32638 36.70047 27.01343
# Shear Modulus (GPa) = 23.64249 30.87419 27.25834
#
# Velocity S-wave (km/s) = 3.38537 3.86863 3.63504
# Velocity P-wave (km/s) = 4.86621 6.14375 5.54192
#
# Compressibility (1/GPa) = 0.05771547
#
# Stress axis : x y z
#
# Youngs Moduli (GPa) = 54.89768 39.38949 116.89136
#
# Poissons Ratio (x) = -0.22481 0.15744
# Poissons Ratio (y) = -0.31332 0.18491
# Poissons Ratio (z) = 0.07394 0.06231
#
# Static dielectric constant tensor:
#      x y z
#    x 1.823590 0.000000 0.018290 
#    y 0.000000 1.703280 0.000000 
#    z 0.018290 0.000000 1.770540 
# 
# From -- ./inp_files/183100.got.cif
#   From: 2010.05.17/outbox.cif.g08.bks.cpg/sg15_92_cif.got.tgz:183100.got - 2010.06.03 18:47:42.
