data_PCOD9267048
_publ_section_title
;
Structure prediction by ZEFSAII (Michael W. Deem and Ramdas Pophale) SiO2 
 PCOD9267048
Probable space group: C 2/C
;
_chemical_formula_sum "Si O2"
_cell_formula_units_Z 48
_cell_length_a 16.579688
_cell_length_b 8.489824
_cell_length_c 20.464927
_cell_angle_alpha 90.000000
_cell_angle_beta 65.395465
_cell_angle_gamma 90.000000
_cell_volume 2619.064390
_symmetry_space_group_name_H-M "C 2/C"
_symmetry_group_IT_number 15
_symmetry_cell_setting 'monoclinic'
loop_
_space_group_symop_operation_xyz
x,y,z
-x,y,1/2-z
-x,-y,-z
x,-y,1/2+z
1/2+x,1/2+y,z
1/2-x,1/2+y,1/2-z
1/2-x,1/2-y,-z
1/2+x,1/2-y,1/2+z
loop_
_atom_site_type_symbol
_atom_site_label
_atom_site_fract_x
_atom_site_fract_y
_atom_site_fract_z
Si Si1 0.313284 0.649754 0.697197
Si Si2 0.566441 0.062671 0.922986
Si Si3 0.048588 0.069203 0.420100
Si Si4 0.059746 0.959591 0.163831
Si Si5 0.521830 0.862851 0.815543
Si Si6 0.258137 0.556340 0.337458
O O1 0.368526 0.539446 0.629335
O O2 0.385343 0.765428 0.708218
O O3 0.268591 0.544864 0.767579
O O4 0.245405 0.761574 0.682349
O O5 0.573957 0.250252 0.922109
O O6 0.663388 0.986861 0.899673
O O7 0.529015 0.998523 0.866449
O O8 0.500000 0.000000 0.000000
O O9 0.000000 0.000000 0.500000
O O10 0.983134 0.057482 0.380091
O O11 0.158475 0.011882 0.146728
O O12 0.000000 0.976619 0.250000
O O13 0.050120 0.775544 0.146974
O O14 0.500000 0.919445 0.750000
#
# Coordination Sequence:
#
# PCOD9267048 Si02
#       6
#     8   8   8   8   8   8
#     4  10  20  36  60  93 119 163 199 252 302 362
#     4  11  24  40  60  88 121 163 207 251 313 372
#     4  11  22  42  62  85 126 165 202 256 314 364
#     4  10  19  38  64  91 124 157 202 250 308 363
#     4   9  17  37  61  86 123 153 195 250 309 357
#     4  11  20  37  64  89 126 157 209 247 306 367
#
# _framework density 18.327155999999999
#
# number of rings (size 3 to 8) (size 9 to 14) (size 15 to 20)
#    0.000    1.667    5.000    4.000    0.000    0.667 
#    3.000    6.667    0.000    0.000    0.000    0.000 
#    0.000    0.000    0.000    0.000    0.000    0.000 
#
# Total GULP energy -133954.874361 kJ/mol
# GULP energy per Si atom -5581.453098 kJ/mol
# Density = 1.828544 g / cm^3
# Si number density = 18.327156 Si / 1000 Ang^3
#
#
#
# Elastic Constant Matrix: (Units=GPa)
#
#
# Indices 1 2 3 4 5 6 
#
# 1 80.6278 18.1684 8.9296 0.0000 -2.6486 0.0000
# 2 18.1684 75.0008 13.4757 0.0000 -2.1079 0.0000
# 3 8.9296 13.4757 75.9062 0.0000 -13.7532 0.0000
# 4 0.0000 0.0000 0.0000 32.5698 0.0000 3.7217
# 5 -2.6486 -2.1079 -13.7532 0.0000 27.3505 0.0000
# 6 0.0000 0.0000 0.0000 3.7217 0.0000 30.0653
#
#
#
# Elastic Compliance Matrix: (Units=1/GPa)
#
#
# Indices 1 2 3 4 5 6 
#
# 1 0.013203 -0.003018 -0.000911 0.000000 0.000588 0.000000
# 2 -0.003018 0.014463 -0.002270 0.000000 -0.000319 0.000000
# 3 -0.000911 -0.002270 0.015004 0.000000 0.007281 0.000000
# 4 0.000000 0.000000 0.000000 0.031144 0.000000 -0.003855
# 5 0.000588 -0.000319 0.007281 0.000000 0.040256 0.000000
# 6 0.000000 0.000000 0.000000 -0.003855 0.000000 0.033738
#
#
# Mechanical properties :
#
#
# Convention : Reuss Voigt Hill
#
# Bulk Modulus (GPa) = 33.03493 34.74245 33.88869
# Shear Modulus (GPa) = 29.36040 30.72786 30.04413
#
# Velocity S-wave (km/s) = 4.00686 4.09911 4.05325
# Velocity P-wave (km/s) = 6.28258 6.43441 6.35895
#
# Compressibility (1/GPa) = 0.03027099
#
# Stress axis : x y z
#
# Youngs Moduli (GPa) = 75.74060 69.14063 66.65025
#
# Poissons Ratio (x) = 0.20868 0.06071
# Poissons Ratio (y) = 0.22859 0.15133
# Poissons Ratio (z) = 0.06899 0.15698
#
# Static dielectric constant tensor:
#      x y z
#    x 1.642800 0.000000 0.000270 
#    y 0.000000 1.633600 0.000000 
#    z 0.000270 0.000000 1.619830 
# 
# From -- ./inp_files/242341.got.cif
#   From: 2010.05.17/outbox.cif.g08.bks.cpg/sg15_122_cif.got.tgz:242341.got - 2010.06.03 18:47:42.
