data_PCOD9267345
_publ_section_title
;
Structure prediction by ZEFSAII (Michael W. Deem and Ramdas Pophale) SiO2 
 PCOD9267345
Probable space group: C 2/C
;
_chemical_formula_sum "Si O2"
_cell_formula_units_Z 48
_cell_length_a 9.495665
_cell_length_b 25.518184
_cell_length_c 14.833821
_cell_angle_alpha 90.000000
_cell_angle_beta 42.205404
_cell_angle_gamma 90.000000
_cell_volume 2414.693504
_symmetry_space_group_name_H-M "C 2/C"
_symmetry_group_IT_number 15
_symmetry_cell_setting 'monoclinic'
loop_
_space_group_symop_operation_xyz
x,y,z
-x,y,1/2-z
-x,-y,-z
x,-y,1/2+z
1/2+x,1/2+y,z
1/2-x,1/2+y,1/2-z
1/2-x,1/2-y,-z
1/2+x,1/2-y,1/2+z
loop_
_atom_site_type_symbol
_atom_site_label
_atom_site_fract_x
_atom_site_fract_y
_atom_site_fract_z
Si Si1 0.259729 0.268659 0.891384
Si Si2 0.852112 0.089640 0.896760
Si Si3 0.028718 0.625987 0.537230
Si Si4 0.741030 0.032075 0.130730
Si Si5 0.164494 0.837045 0.343180
Si Si6 0.856196 0.924877 0.001508
O O1 0.500000 0.276105 0.750000
O O2 0.168869 0.223278 0.869540
O O3 0.250000 0.250000 0.000000
O O4 0.138185 0.323114 0.943993
O O5 0.629011 0.100890 0.959128
O O6 0.000000 0.065250 0.750000
O O7 0.973989 0.142407 0.871131
O O8 0.827204 0.053776 0.995084
O O9 0.202992 0.585602 0.490963
O O10 0.878519 0.646042 0.690685
O O11 0.500000 0.047821 0.250000
O O12 0.759402 0.969520 0.112901
O O13 0.903931 0.055902 0.125943
O O14 0.144081 0.870509 0.444199
#
# Coordination Sequence:
#
# PCOD9267345 Si02
#       6
#     8   8   8   8   8   8
#     4  12  22  36  60  89 113 148 195 247 285 343
#     4   9  22  40  59  82 117 158 190 235 295 348
#     4  11  21  37  60  86 114 152 197 239 285 347
#     4  10  21  38  60  87 118 152 195 239 286 342
#     4  10  19  39  61  81 114 155 196 230 290 359
#     4  10  20  36  62  85 115 160 192 230 293 353
#
# _framework density 19.878299999999999
#
# number of rings (size 3 to 8) (size 9 to 14) (size 15 to 20)
#    0.000    1.667    3.333    1.500    0.000    4.000 
#    0.000    0.833    0.000    0.000    0.000    0.000 
#    0.000    0.000    0.000    0.000    0.000    0.000 
#
# Total GULP energy -133977.852772 kJ/mol
# GULP energy per Si atom -5582.410532 kJ/mol
# Density = 1.983306 g / cm^3
# Si number density = 19.878300 Si / 1000 Ang^3
#
#
#
# Elastic Constant Matrix: (Units=GPa)
#
#
# Indices 1 2 3 4 5 6 
#
# 1 137.1758 30.7768 32.9022 0.0000 -38.3736 0.0000
# 2 30.7768 75.3574 17.0762 0.0000 -20.4568 0.0000
# 3 32.9022 17.0762 79.6242 0.0000 -24.3679 0.0000
# 4 0.0000 0.0000 0.0000 15.1090 0.0000 2.1558
# 5 -38.3736 -20.4568 -24.3679 0.0000 35.0500 0.0000
# 6 0.0000 0.0000 0.0000 2.1558 0.0000 24.1849
#
#
#
# Elastic Compliance Matrix: (Units=1/GPa)
#
#
# Indices 1 2 3 4 5 6 
#
# 1 0.010694 -0.001368 -0.001000 0.000000 0.010215 0.000000
# 2 -0.001368 0.015976 -0.000592 0.000000 0.007415 0.000000
# 3 -0.001000 -0.000592 0.016080 0.000000 0.009739 0.000000
# 4 0.000000 0.000000 0.000000 0.067038 0.000000 -0.005976
# 5 0.010215 0.007415 0.009739 0.000000 0.050813 0.000000
# 6 0.000000 0.000000 0.000000 -0.005976 0.000000 0.041881
#
#
# Mechanical properties :
#
#
# Convention : Reuss Voigt Hill
#
# Bulk Modulus (GPa) = 27.15102 50.40755 38.77928
# Shear Modulus (GPa) = 22.65755 28.96226 25.80991
#
# Velocity S-wave (km/s) = 3.37977 3.82118 3.60724
# Velocity P-wave (km/s) = 5.37762 6.69938 6.07456
#
# Compressibility (1/GPa) = 0.03683102
#
# Stress axis : x y z
#
# Youngs Moduli (GPa) = 93.50960 62.59450 62.19099
#
# Poissons Ratio (x) = 0.08564 0.06216
# Poissons Ratio (y) = 0.12794 0.03679
# Poissons Ratio (z) = 0.09346 0.03703
#
# Static dielectric constant tensor:
#      x y z
#    x 1.725300 0.000000 -0.006650 
#    y 0.000000 1.703500 0.000000 
#    z -0.006650 0.000000 1.708210 
# 
# From -- ./inp_files/138906.got.cif
#   From: 2010.05.17/outbox.cif.g08.bks.cpg/sg15_70_cif.got.tgz:138906.got - 2010.06.03 18:47:42.
