data_PCOD9267795
_publ_section_title
;
Structure prediction by ZEFSAII (Michael W. Deem and Ramdas Pophale) SiO2 
 PCOD9267795
Probable space group: C 2/C
;
_chemical_formula_sum "Si O2"
_cell_formula_units_Z 60
_cell_length_a 9.554563
_cell_length_b 18.417349
_cell_length_c 20.642777
_cell_angle_alpha 90.000000
_cell_angle_beta 56.694853
_cell_angle_gamma 90.000000
_cell_volume 3035.894179
_symmetry_space_group_name_H-M "C 2/C"
_symmetry_group_IT_number 15
_symmetry_cell_setting 'monoclinic'
loop_
_space_group_symop_operation_xyz
x,y,z
-x,y,1/2-z
-x,-y,-z
x,-y,1/2+z
1/2+x,1/2+y,z
1/2-x,1/2+y,1/2-z
1/2-x,1/2-y,-z
1/2+x,1/2-y,1/2+z
loop_
_atom_site_type_symbol
_atom_site_label
_atom_site_fract_x
_atom_site_fract_y
_atom_site_fract_z
Si Si1 0.367529 0.683171 0.449449
Si Si2 0.106372 0.693133 0.865549
Si Si3 0.838557 0.541567 0.463426
Si Si4 0.712213 0.902687 0.096525
Si Si5 0.645720 0.359245 0.304601
Si Si6 0.500000 0.482665 0.250000
Si Si7 0.713735 0.064332 0.399504
Si Si8 0.303055 0.319776 0.446823
O O1 0.250000 0.750000 0.500000
O O2 0.537199 0.724684 0.388064
O O3 0.359727 0.629706 0.513131
O O4 0.285178 0.638751 0.411482
O O5 0.246583 0.683663 0.775447
O O6 0.180836 0.670919 0.916062
O O7 0.956471 0.637640 0.885350
O O8 0.804302 0.487997 0.412602
O O9 0.809952 0.490480 0.533737
O O10 0.718094 0.609555 0.503276
O O11 0.029905 0.569498 0.415263
O O12 0.744328 0.882867 0.162168
O O13 0.570134 0.429755 0.288038
O O14 0.489428 0.314399 0.371782
O O15 0.349369 0.530178 0.316888
O O16 0.250000 0.250000 0.500000
#
# Coordination Sequence:
#
# PCOD9267795 Si02
#       8
#     8   8   8   8   8   4   8   8
#     4   9  19  38  61  94 126 157 214 260 308 379
#     4  11  21  42  65  92 133 169 213 267 324 387
#     4  10  19  40  65  90 125 164 215 256 321 377
#     4  10  22  38  69  96 121 168 219 267 316 389
#     4  12  23  41  65  93 129 169 216 269 334 388
#     4  12  22  42  62  96 132 160 216 268 334 396
#     4  10  20  38  68  94 122 170 208 268 318 382
#     4  12  24  41  65  92 127 178 220 262 322 392
#
# _framework density 19.763534
#
# number of rings (size 3 to 8) (size 9 to 14) (size 15 to 20)
#    0.000    1.333    2.667    5.200    0.000    1.600 
#    9.600    0.000    0.000    1.600    0.000    0.000 
#    0.000    0.000    0.000    0.000    0.000    0.000 
#
# Total GULP energy -167662.804365 kJ/mol
# GULP energy per Si atom -5588.760145 kJ/mol
# Density = 1.971855 g / cm^3
# Si number density = 19.763534 Si / 1000 Ang^3
#
#
#
# Elastic Constant Matrix: (Units=GPa)
#
#
# Indices 1 2 3 4 5 6 
#
# 1 83.2358 14.7559 36.7957 0.0000 2.4684 0.0000
# 2 14.7559 75.0313 30.0228 0.0000 -16.5317 0.0000
# 3 36.7957 30.0228 115.8222 0.0000 -25.0075 0.0000
# 4 0.0000 0.0000 0.0000 23.3970 0.0000 1.4406
# 5 2.4684 -16.5317 -25.0075 0.0000 37.6758 0.0000
# 6 0.0000 0.0000 0.0000 1.4406 0.0000 23.6208
#
#
#
# Elastic Compliance Matrix: (Units=1/GPa)
#
#
# Indices 1 2 3 4 5 6 
#
# 1 0.014910 -0.001967 -0.005398 0.000000 -0.005423 0.000000
# 2 -0.001967 0.015855 -0.002282 0.000000 0.005571 0.000000
# 3 -0.005398 -0.002282 0.012607 0.000000 0.007720 0.000000
# 4 0.000000 0.000000 0.000000 0.042902 0.000000 -0.002617
# 5 -0.005423 0.005571 0.007720 0.000000 0.034467 0.000000
# 6 0.000000 0.000000 0.000000 -0.002617 0.000000 0.042495
#
#
# Mechanical properties :
#
#
# Convention : Reuss Voigt Hill
#
# Bulk Modulus (GPa) = 41.53084 48.58200 45.05642
# Shear Modulus (GPa) = 26.23910 29.77305 28.00608
#
# Velocity S-wave (km/s) = 3.64765 3.88553 3.76847
# Velocity P-wave (km/s) = 6.22896 6.69065 6.46393
#
# Compressibility (1/GPa) = 0.02407849
#
# Stress axis : x y z
#
# Youngs Moduli (GPa) = 67.07049 63.07039 79.32011
#
# Poissons Ratio (x) = 0.12407 0.42814
# Poissons Ratio (y) = 0.13194 0.18101
# Poissons Ratio (z) = 0.36202 0.14393
#
# Static dielectric constant tensor:
#      x y z
#    x 1.722480 0.000000 -0.015340 
#    y 0.000000 1.683570 0.000000 
#    z -0.015340 0.000000 1.695550 
# 
# From -- ./inp_files/233061.got.cif
#   From: 2010.05.17/outbox.cif.g08.bks.cpg/sg15_117_cif.got.tgz:233061.got - 2010.06.03 18:47:42.
