data_PCOD9267859
_publ_section_title
;
Structure prediction by ZEFSAII (Michael W. Deem and Ramdas Pophale) SiO2 
 PCOD9267859
Probable space group: C 2/C
;
_chemical_formula_sum "Si O2"
_cell_formula_units_Z 60
_cell_length_a 21.378060
_cell_length_b 7.950212
_cell_length_c 15.456316
_cell_angle_alpha 90.000000
_cell_angle_beta 58.660410
_cell_angle_gamma 90.000000
_cell_volume 2243.683189
_symmetry_space_group_name_H-M "C 2/C"
_symmetry_group_IT_number 15
_symmetry_cell_setting 'monoclinic'
loop_
_space_group_symop_operation_xyz
x,y,z
-x,y,1/2-z
-x,-y,-z
x,-y,1/2+z
1/2+x,1/2+y,z
1/2-x,1/2+y,1/2-z
1/2-x,1/2-y,-z
1/2+x,1/2-y,1/2+z
loop_
_atom_site_type_symbol
_atom_site_label
_atom_site_fract_x
_atom_site_fract_y
_atom_site_fract_z
Si Si1 0.858284 0.562701 0.450665
Si Si2 0.000000 0.555247 0.250000
Si Si3 0.526502 0.852746 0.046495
Si Si4 0.924868 0.135508 0.214202
Si Si5 0.453467 0.292240 0.135678
Si Si6 0.802573 0.393016 0.712232
Si Si7 0.224299 0.880060 0.588771
Si Si8 0.333204 0.269123 0.620027
O O1 0.893792 0.409072 0.481616
O O2 0.770179 0.541674 0.521924
O O3 0.868139 0.730162 0.502122
O O4 0.907923 0.533906 0.330379
O O5 0.007031 0.648604 0.337213
O O6 0.479907 0.796166 0.165230
O O7 0.525466 0.699740 0.980181
O O8 0.500000 0.000000 0.000000
O O9 0.863006 0.125485 0.332509
O O10 0.883147 0.135227 0.152237
O O11 0.965974 0.959958 0.180830
O O12 0.369298 0.228462 0.187737
O O13 0.757391 0.338379 0.659324
O O14 0.742768 0.368121 0.830302
O O15 0.823669 0.585275 0.674549
O O16 0.250000 0.750000 0.500000
#
# Coordination Sequence:
#
# PCOD9267859 Si02
#       8
#     8   4   8   8   8   8   8   8
#     4  11  23  43  67 101 136 175 237 278 354 414
#     4  12  28  40  68  96 146 178 228 296 354 422
#     4  12  21  43  74 101 127 184 238 288 343 422
#     4  11  24  41  69  98 142 179 235 293 346 412
#     4  12  23  45  64 103 138 181 231 291 354 418
#     4  10  20  38  70  94 133 180 234 282 340 406
#     4  10  23  42  62 102 141 174 230 281 339 417
#     4  10  19  40  68 104 129 177 235 285 332 423
#
# _framework density 26.741743
#
# number of rings (size 3 to 8) (size 9 to 14) (size 15 to 20)
#    0.000    1.067    5.333    2.800    1.867    1.067 
#    2.400    6.667    0.000    0.000    0.000    0.000 
#    0.000    0.000    0.000    0.000    0.000    0.000 
#
# Total GULP energy -167180.374489 kJ/mol
# GULP energy per Si atom -5572.679150 kJ/mol
# Density = 2.668088 g / cm^3
# Si number density = 26.741743 Si / 1000 Ang^3
#
#
#
# Elastic Constant Matrix: (Units=GPa)
#
#
# Indices 1 2 3 4 5 6 
#
# 1 35.9667 -14.9184 -3.5884 0.0000 -12.6998 0.0000
# 2 -14.9184 62.1929 1.2966 0.0000 -1.8927 0.0003
# 3 -3.5884 1.2966 182.5913 0.0000 -27.1666 0.0000
# 4 0.0000 0.0000 0.0000 34.1053 0.0000 -14.5708
# 5 -12.6998 -1.8927 -27.1666 0.0000 52.7981 0.0000
# 6 0.0000 0.0003 0.0000 -14.5708 0.0000 -16.1565
#
#
#
# Elastic Compliance Matrix: (Units=1/GPa)
#
#
# Indices 1 2 3 4 5 6 
#
# 1 0.035076 0.008669 0.002089 0.000000 0.009823 0.000000
# 2 0.008669 0.018239 0.000486 0.000000 0.002989 0.000000
# 3 0.002089 0.000486 0.006055 0.000000 0.003636 0.000000
# 4 0.000000 0.000000 0.000000 0.021166 0.000000 -0.019089
# 5 0.009823 0.002989 0.003636 0.000000 0.023281 0.000000
# 6 0.000000 0.000000 0.000000 -0.019089 0.000000 -0.044680
#
#
# Mechanical properties :
#
#
# Convention : Reuss Voigt Hill
#
# Bulk Modulus (GPa) = 12.21616 27.37007 19.79311
# Shear Modulus (GPa) = 78.20340 34.01345 56.10843
#
# Velocity S-wave (km/s) = 5.41363 3.57027 4.58554
# Velocity P-wave (km/s) = 6.60717 5.22044 5.95431
#
# Compressibility (1/GPa) = 0.08185879
#
# Stress axis : x y z
#
# Youngs Moduli (GPa) = 28.50936 54.82649 165.14628
#
# Poissons Ratio (x) = -0.47530 -0.34503
# Poissons Ratio (y) = -0.24715 -0.08019
# Poissons Ratio (z) = -0.05956 -0.02662
#
# Static dielectric constant tensor:
#      x y z
#    x 2.168460 0.000000 -0.073050 
#    y 0.000000 2.372820 0.000000 
#    z -0.073050 0.000000 2.227720 
# 
# From -- ./inp_files/221897.got.cif
#   From: 2010.05.17/outbox.cif.g08.bks.cpg/sg15_111_cif.got.tgz:221897.got - 2010.06.03 18:47:42.
