data_PCOD9267654
_publ_section_title
;
Structure prediction by ZEFSAII (Michael W. Deem and Ramdas Pophale) SiO2 
 PCOD9267654
Probable space group: C 2/C
;
_chemical_formula_sum "Si O2"
_cell_formula_units_Z 52
_cell_length_a 20.536899
_cell_length_b 10.118511
_cell_length_c 9.604640
_cell_angle_alpha 90.000000
_cell_angle_beta 78.912264
_cell_angle_gamma 90.000000
_cell_volume 1958.616219
_symmetry_space_group_name_H-M "C 2/C"
_symmetry_group_IT_number 15
_symmetry_cell_setting 'monoclinic'
loop_
_space_group_symop_operation_xyz
x,y,z
-x,y,1/2-z
-x,-y,-z
x,-y,1/2+z
1/2+x,1/2+y,z
1/2-x,1/2+y,1/2-z
1/2-x,1/2-y,-z
1/2+x,1/2-y,1/2+z
loop_
_atom_site_type_symbol
_atom_site_label
_atom_site_fract_x
_atom_site_fract_y
_atom_site_fract_z
Si Si1 0.047095 0.615937 0.428707
Si Si2 0.617515 0.933042 0.188366
Si Si3 0.285899 0.786972 0.631173
Si Si4 0.777589 0.446881 0.021755
Si Si5 0.842075 0.218002 0.128857
Si Si6 0.000000 0.832903 0.250000
Si Si7 0.359111 0.562501 0.754533
O O1 0.089093 0.628541 0.555583
O O2 0.000000 0.500000 0.500000
O O3 0.920344 0.555981 0.227044
O O4 0.009538 0.744466 0.385739
O O5 0.612392 0.815068 0.300458
O O6 0.693475 0.979346 0.125296
O O7 0.250000 0.750000 0.500000
O O8 0.229827 0.777488 0.769670
O O9 0.340760 0.684294 0.659759
O O10 0.303203 0.941072 0.616985
O O11 0.821183 0.312509 0.007599
O O12 0.700064 0.442578 0.101797
O O13 0.861815 0.068361 0.156540
O O14 0.931046 0.912646 0.291037
#
# Coordination Sequence:
#
# PCOD9267654 Si02
#       7
#     8   8   8   8   8   4   8
#     4  12  26  48  81 111 153 202 273 321 396 480
#     4  12  22  44  82 118 147 198 267 346 383 467
#     4  10  19  39  73 108 152 201 250 332 405 455
#     4  10  21  43  79 114 152 202 267 333 396 467
#     4  10  22  42  72 113 156 199 264 320 401 464
#     4  12  26  52  78 106 168 222 254 324 408 486
#     4  10  25  45  73 114 167 212 257 325 410 486
#
# _framework density 26.549357000000001
#
# number of rings (size 3 to 8) (size 9 to 14) (size 15 to 20)
#    0.000    1.231    4.615    0.923    0.000    0.000 
#    2.769    8.462    0.000    0.000    0.000    0.000 
#    0.000    0.000    0.000    0.000    0.000    0.000 
#
# Total GULP energy -144983.064354 kJ/mol
# GULP energy per Si atom -5576.271706 kJ/mol
# Density = 2.648893 g / cm^3
# Si number density = 26.549357 Si / 1000 Ang^3
#
#
#
# Elastic Constant Matrix: (Units=GPa)
#
#
# Indices 1 2 3 4 5 6 
#
# 1 149.4563 52.3789 34.6420 0.0000 18.8306 0.0000
# 2 52.3789 183.5069 29.7960 0.0000 17.9337 0.0000
# 3 34.6420 29.7960 109.2933 0.0000 16.5555 0.0000
# 4 0.0000 0.0000 0.0000 31.6651 0.0000 6.3954
# 5 18.8306 17.9337 16.5555 0.0000 53.1027 0.0000
# 6 0.0000 0.0000 0.0000 6.3954 0.0000 47.1700
#
#
#
# Elastic Compliance Matrix: (Units=1/GPa)
#
#
# Indices 1 2 3 4 5 6 
#
# 1 0.007947 -0.001819 -0.001773 0.000000 -0.001651 0.000000
# 2 -0.001819 0.006236 -0.000947 0.000000 -0.001166 0.000000
# 3 -0.001773 -0.000947 0.010313 0.000000 -0.002267 0.000000
# 4 0.000000 0.000000 0.000000 0.032470 0.000000 -0.004402
# 5 -0.001651 -0.001166 -0.002267 0.000000 0.020517 0.000000
# 6 0.000000 0.000000 0.000000 -0.004402 0.000000 0.021797
#
#
# Mechanical properties :
#
#
# Convention : Reuss Voigt Hill
#
# Bulk Modulus (GPa) = 64.85650 75.09891 69.97770
# Shear Modulus (GPa) = 44.05337 48.08353 46.06845
#
# Velocity S-wave (km/s) = 4.07787 4.26032 4.17009
# Velocity P-wave (km/s) = 6.83035 7.24902 7.04280
#
# Compressibility (1/GPa) = 0.01541865
#
# Stress axis : x y z
#
# Youngs Moduli (GPa) = 125.82608 160.35044 96.96317
#
# Poissons Ratio (x) = 0.29171 0.17191
# Poissons Ratio (y) = 0.22891 0.09182
# Poissons Ratio (z) = 0.22309 0.15185
#
# Static dielectric constant tensor:
#      x y z
#    x 2.341600 0.000000 0.085870 
#    y 0.000000 2.190560 0.000000 
#    z 0.085870 0.000000 2.215380 
# 
# From -- ./inp_files/166275.got.cif
#   From: 2010.05.17/outbox.cif.g08.bks.cpg/sg15_84_cif.got.tgz:166275.got - 2010.06.03 18:47:42.
