data_PCOD9267642
_publ_section_title
;
Structure prediction by ZEFSAII (Michael W. Deem and Ramdas Pophale) SiO2 
 PCOD9267642
Probable space group: C 2/C
;
_chemical_formula_sum "Si O2"
_cell_formula_units_Z 44
_cell_length_a 26.038904
_cell_length_b 10.653610
_cell_length_c 14.429216
_cell_angle_alpha 90.000000
_cell_angle_beta 32.829587
_cell_angle_gamma 90.000000
_cell_volume 2170.078490
_symmetry_space_group_name_H-M "C 2/C"
_symmetry_group_IT_number 15
_symmetry_cell_setting 'monoclinic'
loop_
_space_group_symop_operation_xyz
x,y,z
-x,y,1/2-z
-x,-y,-z
x,-y,1/2+z
1/2+x,1/2+y,z
1/2-x,1/2+y,1/2-z
1/2-x,1/2-y,-z
1/2+x,1/2-y,1/2+z
loop_
_atom_site_type_symbol
_atom_site_label
_atom_site_fract_x
_atom_site_fract_y
_atom_site_fract_z
Si Si1 0.329939 0.692702 0.811891
Si Si2 0.585340 0.959496 0.806670
Si Si3 0.181209 0.738509 0.893582
Si Si4 0.244246 0.334300 0.099779
Si Si5 0.608757 0.469250 0.114677
Si Si6 0.500000 0.094850 0.250000
O O1 0.398247 0.811977 0.698080
O O2 0.269555 0.668186 0.810808
O O3 0.377135 0.582990 0.801118
O O4 0.250000 0.750000 0.000000
O O5 0.555191 0.977515 0.745996
O O6 0.676511 0.044834 0.686620
O O7 0.500000 0.000000 0.000000
O O8 0.202752 0.735924 0.752440
O O9 0.168333 0.876312 0.956938
O O10 0.081880 0.673527 0.073079
O O11 0.250000 0.250000 0.000000
O O12 0.347295 0.393506 0.960895
O O13 0.500000 0.463116 0.250000
#
# Coordination Sequence:
#
# PCOD9267642 Si02
#       6
#     8   8   8   8   8   4
#     4  10  19  39  70  97 128 173 227 270 332 395
#     4  12  23  40  69 103 134 173 229 284 326 401
#     4  11  21  41  72  99 132 179 229 276 331 408
#     4  12  28  46  63 102 147 173 220 290 350 395
#     4  11  22  46  72  98 134 179 233 278 336 419
#     4  12  20  38  76 100 124 182 240 270 326 400
#
# _framework density 20.275765
#
# number of rings (size 3 to 8) (size 9 to 14) (size 15 to 20)
#    0.000    0.727   10.000    0.000    0.000    4.364 
#    4.909    1.818    0.000    0.000    0.000    0.000 
#    0.000    0.000    0.000    0.000    0.000    0.000 
#
# Total GULP energy -122793.979421 kJ/mol
# GULP energy per Si atom -5581.544519 kJ/mol
# Density = 2.022962 g / cm^3
# Si number density = 20.275765 Si / 1000 Ang^3
#
#
#
# Elastic Constant Matrix: (Units=GPa)
#
#
# Indices 1 2 3 4 5 6 
#
# 1 120.5822 15.9791 51.3119 0.0000 3.0391 0.0000
# 2 15.9791 51.8179 41.0274 0.0000 3.7688 0.0000
# 3 51.3119 41.0274 121.1595 0.0000 15.8928 0.0000
# 4 0.0000 0.0000 0.0000 21.5680 0.0000 -1.2111
# 5 3.0391 3.7688 15.8928 0.0000 41.7619 0.0000
# 6 0.0000 0.0000 0.0000 -1.2111 0.0000 32.0486
#
#
#
# Elastic Compliance Matrix: (Units=1/GPa)
#
#
# Indices 1 2 3 4 5 6 
#
# 1 0.010158 0.000415 -0.004569 0.000000 0.000962 0.000000
# 2 0.000415 0.026430 -0.009272 0.000000 0.001113 0.000000
# 3 -0.004569 -0.009272 0.013867 0.000000 -0.004108 0.000000
# 4 0.000000 0.000000 0.000000 0.046464 0.000000 0.001756
# 5 0.000962 0.001113 -0.004108 0.000000 0.025338 0.000000
# 6 0.000000 0.000000 0.000000 0.001756 0.000000 0.031269
#
#
# Mechanical properties :
#
#
# Convention : Reuss Voigt Hill
#
# Bulk Modulus (GPa) = 42.36490 56.68851 49.52670
# Shear Modulus (GPa) = 26.56116 31.42512 28.99314
#
# Velocity S-wave (km/s) = 3.62331 3.94113 3.78556
# Velocity P-wave (km/s) = 6.20034 6.98065 6.60203
#
# Compressibility (1/GPa) = 0.02360445
#
# Stress axis : x y z
#
# Youngs Moduli (GPa) = 98.44462 37.83527 72.11426
#
# Poissons Ratio (x) = -0.01570 0.32947
# Poissons Ratio (y) = -0.04085 0.66862
# Poissons Ratio (z) = 0.44976 0.35080
#
# Static dielectric constant tensor:
#      x y z
#    x 1.773750 0.000000 -0.010580 
#    y 0.000000 1.713740 0.000000 
#    z -0.010580 0.000000 1.704020 
# 
# From -- ./inp_files/117881.got.cif
#   From: 2010.05.17/outbox.cif.g08.bks.cpg/sg15_59_cif.got.tgz:117881.got - 2010.06.03 18:47:42.
