data_PCOD9267309
_publ_section_title
;
Structure prediction by ZEFSAII (Michael W. Deem and Ramdas Pophale) SiO2 
 PCOD9267309
Probable space group: C 2/C
;
_chemical_formula_sum "Si O2"
_cell_formula_units_Z 56
_cell_length_a 20.773183
_cell_length_b 17.483240
_cell_length_c 9.405690
_cell_angle_alpha 90.000000
_cell_angle_beta 112.274204
_cell_angle_gamma 90.000000
_cell_volume 3161.083403
_symmetry_space_group_name_H-M "C 2/C"
_symmetry_group_IT_number 15
_symmetry_cell_setting 'monoclinic'
loop_
_space_group_symop_operation_xyz
x,y,z
-x,y,1/2-z
-x,-y,-z
x,-y,1/2+z
1/2+x,1/2+y,z
1/2-x,1/2+y,1/2-z
1/2-x,1/2-y,-z
1/2+x,1/2-y,1/2+z
loop_
_atom_site_type_symbol
_atom_site_label
_atom_site_fract_x
_atom_site_fract_y
_atom_site_fract_z
Si Si1 0.641671 0.342607 0.567402
Si Si2 0.371116 0.320087 0.441737
Si Si3 0.319543 0.240417 0.648874
Si Si4 0.733422 0.084403 0.805151
Si Si5 0.005176 0.918681 0.581952
Si Si6 0.672466 0.229191 0.374385
Si Si7 0.768442 0.428917 0.534372
O O1 0.683884 0.299776 0.726003
O O2 0.577176 0.382341 0.588520
O O3 0.622715 0.274328 0.442204
O O4 0.692846 0.400937 0.529178
O O5 0.378132 0.267952 0.588444
O O6 0.310055 0.383300 0.410110
O O7 0.442204 0.364737 0.477247
O O8 0.344174 0.266983 0.290511
O O9 0.250000 0.250000 0.500000
O O10 0.318998 0.154530 0.706495
O O11 0.734029 0.066987 0.638048
O O12 0.716412 0.009737 0.881290
O O13 0.000000 0.925548 0.750000
O O14 0.000000 0.000000 0.500000
O O15 0.750000 0.250000 0.500000
O O16 0.676401 0.137713 0.378034
#
# Coordination Sequence:
#
# PCOD9267309 Si02
#       7
#     8   8   8   8   8   8   8
#     4  11  21  40  59  76 120 159 195 239 281 346
#     4  11  22  39  60  82 116 158 199 234 285 347
#     4  10  20  36  59  81 111 153 195 243 294 344
#     4  11  22  34  54  88 117 148 185 240 296 345
#     4  12  28  42  57  87 122 162 203 236 278 343
#     4  10  19  39  59  83 112 152 195 243 293 350
#     4  11  22  34  55  87 119 146 185 238 298 344
#
# _framework density 17.715444999999999
#
# number of rings (size 3 to 8) (size 9 to 14) (size 15 to 20)
#    0.000    1.143    5.714    3.429    8.000    2.286 
#    0.000    0.000    0.000    0.000    0.000    6.000 
#    0.000    0.000    0.000    0.000    0.000    0.000 
#
# Total GULP energy -156179.670657 kJ/mol
# GULP energy per Si atom -5577.845381 kJ/mol
# Density = 1.767512 g / cm^3
# Si number density = 17.715445 Si / 1000 Ang^3
#
#
#
# Elastic Constant Matrix: (Units=GPa)
#
#
# Indices 1 2 3 4 5 6 
#
# 1 77.8396 54.7049 33.4856 0.0000 -21.5145 0.0000
# 2 54.7049 137.4460 56.9659 0.0000 -17.5178 0.0000
# 3 33.4856 56.9659 97.6270 0.0000 -29.7009 0.0000
# 4 0.0000 0.0000 0.0000 35.7900 0.0000 -9.3990
# 5 -21.5145 -17.5178 -29.7009 0.0000 30.3482 0.0000
# 6 0.0000 0.0000 0.0000 -9.3990 0.0000 29.3156
#
#
#
# Elastic Compliance Matrix: (Units=1/GPa)
#
#
# Indices 1 2 3 4 5 6 
#
# 1 0.020604 -0.006934 0.000292 0.000000 0.010890 0.000000
# 2 -0.006934 0.011930 -0.005672 0.000000 -0.003580 0.000000
# 3 0.000292 -0.005672 0.017828 0.000000 0.014380 0.000000
# 4 0.000000 0.000000 0.000000 0.030510 0.000000 0.009782
# 5 0.010890 -0.003580 0.014380 0.000000 0.052678 0.000000
# 6 0.000000 0.000000 0.000000 0.009782 0.000000 0.037248
#
#
# Mechanical properties :
#
#
# Convention : Reuss Voigt Hill
#
# Bulk Modulus (GPa) = 38.86001 67.02505 52.94253
# Shear Modulus (GPa) = 24.50951 30.27452 27.39201
#
# Velocity S-wave (km/s) = 3.72359 4.13841 3.93647
# Velocity P-wave (km/s) = 6.36161 7.79433 7.11413
#
# Compressibility (1/GPa) = 0.02573340
#
# Stress axis : x y z
#
# Youngs Moduli (GPa) = 48.53356 83.82362 56.09309
#
# Poissons Ratio (x) = 0.58121 -0.01636
# Poissons Ratio (y) = 0.33652 0.31817
# Poissons Ratio (z) = -0.01416 0.47546
#
# Static dielectric constant tensor:
#      x y z
#    x 1.650700 0.000000 -0.039920 
#    y 0.000000 1.644980 0.000000 
#    z -0.039920 0.000000 1.626250 
# 
# From -- ./inp_files/56483.got.cif
#   From: 2010.05.17/outbox.cif.g08.bks.cpg/sg15_29_cif.got.tgz:56483.got - 2010.06.03 18:47:42.
