data_PCOD9267177
_publ_section_title
;
Structure prediction by ZEFSAII (Michael W. Deem and Ramdas Pophale) SiO2 
 PCOD9267177
Probable space group: C 2/C
;
_chemical_formula_sum "Si O2"
_cell_formula_units_Z 48
_cell_length_a 13.515344
_cell_length_b 22.017627
_cell_length_c 10.949620
_cell_angle_alpha 90.000000
_cell_angle_beta 136.727019
_cell_angle_gamma 90.000000
_cell_volume 2233.512220
_symmetry_space_group_name_H-M "C 2/C"
_symmetry_group_IT_number 15
_symmetry_cell_setting 'monoclinic'
loop_
_space_group_symop_operation_xyz
x,y,z
-x,y,1/2-z
-x,-y,-z
x,-y,1/2+z
1/2+x,1/2+y,z
1/2-x,1/2+y,1/2-z
1/2-x,1/2-y,-z
1/2+x,1/2-y,1/2+z
loop_
_atom_site_type_symbol
_atom_site_label
_atom_site_fract_x
_atom_site_fract_y
_atom_site_fract_z
Si Si1 0.457244 0.725139 0.950411
Si Si2 0.884341 0.887613 0.993769
Si Si3 0.500000 0.340276 0.750000
Si Si4 0.000000 0.371035 0.250000
Si Si5 0.753449 0.422928 0.873450
Si Si6 0.811629 0.064742 0.694834
Si Si7 0.650461 0.827521 0.165507
O O1 0.557565 0.680880 0.960369
O O2 0.291008 0.713912 0.770523
O O3 0.477354 0.700292 0.108116
O O4 0.513251 0.793202 0.986740
O O5 0.829695 0.907146 0.076336
O O6 0.032216 0.925738 0.100593
O O7 0.769662 0.900415 0.785513
O O8 0.634566 0.384854 0.843353
O O9 0.887423 0.331866 0.225947
O O10 0.092035 0.409246 0.429246
O O11 0.723883 0.494469 0.847803
O O12 0.694778 0.106049 0.658902
#
# Coordination Sequence:
#
# PCOD9267177 Si02
#       7
#     8   8   4   4   8   8   8
#     4  10  22  39  65  94 131 168 223 270 327 388
#     4   9  21  41  69  98 126 175 225 265 323 391
#     4  10  19  38  66  98 120 177 222 274 324 380
#     4  12  27  42  62 100 138 169 216 274 344 386
#     4  11  23  40  69  98 136 171 219 272 333 392
#     4  10  22  43  68  97 133 171 222 272 327 394
#     4  11  25  42  64  96 131 177 218 276 328 390
#
# _framework density 21.490815000000001
#
# number of rings (size 3 to 8) (size 9 to 14) (size 15 to 20)
#    0.000    1.667    1.667    2.000    7.000    2.667 
#    0.000    0.000    0.000    0.000    0.000    0.000 
#    0.000    0.000    0.000    0.000    0.000    0.000 
#
# Total GULP energy -134134.024955 kJ/mol
# GULP energy per Si atom -5588.917706 kJ/mol
# Density = 2.144190 g / cm^3
# Si number density = 21.490815 Si / 1000 Ang^3
#
#
#
# Elastic Constant Matrix: (Units=GPa)
#
#
# Indices 1 2 3 4 5 6 
#
# 1 80.3040 23.8326 10.4536 0.0000 3.2290 0.0000
# 2 23.8326 75.7059 19.8830 0.0000 10.4194 0.0000
# 3 10.4536 19.8830 109.4452 0.0000 7.9429 0.0000
# 4 0.0000 0.0000 0.0000 32.3515 0.0000 -1.6061
# 5 3.2290 10.4194 7.9429 0.0000 17.8516 0.0000
# 6 0.0000 0.0000 0.0000 -1.6061 0.0000 8.8182
#
#
#
# Elastic Compliance Matrix: (Units=1/GPa)
#
#
# Indices 1 2 3 4 5 6 
#
# 1 0.013769 -0.004217 -0.000565 0.000000 0.000222 0.000000
# 2 -0.004217 0.016122 -0.001962 0.000000 -0.007774 0.000000
# 3 -0.000565 -0.001962 0.009772 0.000000 -0.003101 0.000000
# 4 0.000000 0.000000 0.000000 0.031193 0.000000 0.005681
# 5 0.000222 -0.007774 -0.003101 0.000000 0.061894 0.000000
# 6 0.000000 0.000000 0.000000 0.005681 0.000000 0.114436
#
#
# Mechanical properties :
#
#
# Convention : Reuss Voigt Hill
#
# Bulk Modulus (GPa) = 38.20377 41.53260 39.86819
# Shear Modulus (GPa) = 18.55986 25.88998 22.22492
#
# Velocity S-wave (km/s) = 2.94193 3.47464 3.21932
# Velocity P-wave (km/s) = 5.41805 5.95527 5.69300
#
# Compressibility (1/GPa) = 0.02617543
#
# Stress axis : x y z
#
# Youngs Moduli (GPa) = 72.62843 62.02853 102.32861
#
# Poissons Ratio (x) = 0.26155 0.05784
# Poissons Ratio (y) = 0.30624 0.20076
# Poissons Ratio (z) = 0.04105 0.12169
#
# Static dielectric constant tensor:
#      x y z
#    x 1.768640 0.000000 0.006700 
#    y 0.000000 1.783780 0.000000 
#    z 0.006700 0.000000 1.798190 
# 
# From -- ./inp_files/100101.got.cif
#   From: 2010.05.17/outbox.cif.g08.bks.cpg/sg15_51_cif.got.tgz:100101.got - 2010.06.03 18:47:42.
