data_PCOD9267789
_publ_section_title
;
Structure prediction by ZEFSAII (Michael W. Deem and Ramdas Pophale) SiO2 
 PCOD9267789
Probable space group: C 2/C
;
_chemical_formula_sum "Si O2"
_cell_formula_units_Z 64
_cell_length_a 11.392988
_cell_length_b 14.483897
_cell_length_c 20.435291
_cell_angle_alpha 90.000000
_cell_angle_beta 108.649504
_cell_angle_gamma 90.000000
_cell_volume 3195.064742
_symmetry_space_group_name_H-M "C 2/C"
_symmetry_group_IT_number 15
_symmetry_cell_setting 'monoclinic'
loop_
_space_group_symop_operation_xyz
x,y,z
-x,y,1/2-z
-x,-y,-z
x,-y,1/2+z
1/2+x,1/2+y,z
1/2-x,1/2+y,1/2-z
1/2-x,1/2-y,-z
1/2+x,1/2-y,1/2+z
loop_
_atom_site_type_symbol
_atom_site_label
_atom_site_fract_x
_atom_site_fract_y
_atom_site_fract_z
Si Si1 0.558285 0.645574 0.008892
Si Si2 0.840763 0.827342 0.835169
Si Si3 0.435870 0.680392 0.636594
Si Si4 0.938878 0.622194 0.175871
Si Si5 0.195623 0.952074 0.049456
Si Si6 0.533043 0.026258 0.932007
Si Si7 0.145389 0.028465 0.691130
Si Si8 0.306079 0.130892 0.824627
O O1 0.594416 0.691467 0.083374
O O2 0.641661 0.552225 0.018796
O O3 0.577665 0.695473 0.943626
O O4 0.414704 0.617103 0.987590
O O5 0.701903 0.857501 0.829471
O O6 0.839466 0.730038 0.797994
O O7 0.892696 0.920593 0.811496
O O8 0.492688 0.775112 0.674520
O O9 0.526716 0.595821 0.669620
O O10 0.303090 0.656531 0.643618
O O11 0.952819 0.562130 0.113600
O O12 0.000000 0.575943 0.250000
O O13 0.203219 0.956100 0.129435
O O14 0.329226 0.930443 0.044438
O O15 0.424723 0.087698 0.881109
O O16 0.500000 0.000000 0.000000
O O17 0.242747 0.060518 0.762684
#
# Coordination Sequence:
#
# PCOD9267789 Si02
#       8
#     8   8   8   8   8   8   8   8
#     4   9  17  35  65  86 114 158 209 249 297 375
#     4  10  21  38  65  87 117 164 214 244 303 379
#     4  10  21  36  67  93 119 151 212 262 309 359
#     4  11  22  39  62  90 124 164 204 253 314 380
#     4   9  19  37  60  87 114 163 205 242 309 371
#     4  12  25  38  59  93 133 158 203 267 325 359
#     4  10  19  40  65  86 118 166 212 249 295 377
#     4  11  24  35  61  95 126 154 205 263 310 360
#
# _framework density 20.030892999999999
#
# number of rings (size 3 to 8) (size 9 to 14) (size 15 to 20)
#    0.000    1.750    2.500    4.125    1.750    1.000 
#    0.000    0.625   11.000    0.000    0.000    0.000 
#    0.000    0.000    0.000    0.000    0.000    0.000 
#
# Total GULP energy -178577.518347 kJ/mol
# GULP energy per Si atom -5580.547448 kJ/mol
# Density = 1.998530 g / cm^3
# Si number density = 20.030893 Si / 1000 Ang^3
#
#
#
# Elastic Constant Matrix: (Units=GPa)
#
#
# Indices 1 2 3 4 5 6 
#
# 1 88.3747 6.4066 15.1432 0.0000 21.0459 0.0000
# 2 6.4066 80.6368 8.4312 0.0000 8.4721 0.0000
# 3 15.1432 8.4312 99.1471 0.0000 18.3441 0.0000
# 4 0.0000 0.0000 0.0000 17.2032 0.0000 2.3967
# 5 21.0459 8.4721 18.3441 0.0000 23.1122 0.0000
# 6 0.0000 0.0000 0.0000 2.3967 0.0000 25.1000
#
#
#
# Elastic Compliance Matrix: (Units=1/GPa)
#
#
# Indices 1 2 3 4 5 6 
#
# 1 0.014459 0.000238 0.000262 0.000000 -0.013462 0.000000
# 2 0.000238 0.012908 -0.000256 0.000000 -0.004745 0.000000
# 3 0.000262 -0.000256 0.011832 0.000000 -0.009536 0.000000
# 4 0.000000 0.000000 0.000000 0.058913 0.000000 -0.005625
# 5 -0.013462 -0.004745 -0.009536 0.000000 0.064833 0.000000
# 6 0.000000 0.000000 0.000000 -0.005625 0.000000 0.040378
#
#
# Mechanical properties :
#
#
# Convention : Reuss Voigt Hill
#
# Bulk Modulus (GPa) = 25.19711 36.45785 30.82748
# Shear Modulus (GPa) = 23.14136 28.96158 26.05147
#
# Velocity S-wave (km/s) = 3.40263 3.80655 3.61025
# Velocity P-wave (km/s) = 5.29563 6.12863 5.72729
#
# Compressibility (1/GPa) = 0.03968709
#
# Stress axis : x y z
#
# Youngs Moduli (GPa) = 69.16057 77.47327 84.51593
#
# Poissons Ratio (x) = -0.01845 -0.02214
# Poissons Ratio (y) = -0.01647 0.02164
# Poissons Ratio (z) = -0.01812 0.01984
#
# Static dielectric constant tensor:
#      x y z
#    x 1.713880 0.000000 0.012740 
#    y 0.000000 1.788110 0.000000 
#    z 0.012740 0.000000 1.719860 
# 
# From -- ./inp_files/238773.got.cif
#   From: 2010.05.17/outbox.cif.g08.bks.cpg/sg15_120_cif.got.tgz:238773.got - 2010.06.03 18:47:42.
