data_PCOD9267644
_publ_section_title
;
Structure prediction by ZEFSAII (Michael W. Deem and Ramdas Pophale) SiO2 
 PCOD9267644
Probable space group: C 2/C
;
_chemical_formula_sum "Si O2"
_cell_formula_units_Z 64
_cell_length_a 17.947219
_cell_length_b 22.095581
_cell_length_c 15.744215
_cell_angle_alpha 90.000000
_cell_angle_beta 155.184201
_cell_angle_gamma 90.000000
_cell_volume 2620.384568
_symmetry_space_group_name_H-M "C 2/C"
_symmetry_group_IT_number 15
_symmetry_cell_setting 'monoclinic'
loop_
_space_group_symop_operation_xyz
x,y,z
-x,y,1/2-z
-x,-y,-z
x,-y,1/2+z
1/2+x,1/2+y,z
1/2-x,1/2+y,1/2-z
1/2-x,1/2-y,-z
1/2+x,1/2-y,1/2+z
loop_
_atom_site_type_symbol
_atom_site_label
_atom_site_fract_x
_atom_site_fract_y
_atom_site_fract_z
Si Si1 0.906120 0.072911 0.330406
Si Si2 0.088093 0.193258 0.483175
Si Si3 0.242484 0.994655 0.666656
Si Si4 0.024064 0.326831 0.130260
Si Si5 0.626796 0.390026 0.458661
Si Si6 0.638806 0.688374 0.731322
Si Si7 0.028000 0.321433 0.630532
Si Si8 0.576835 0.042175 0.919580
O O1 0.936604 0.142078 0.332085
O O2 0.107264 0.048396 0.550498
O O3 0.787198 0.055153 0.290021
O O4 0.788060 0.032696 0.143498
O O5 0.267943 0.168584 0.628906
O O6 0.152892 0.203135 0.646848
O O7 0.032783 0.260046 0.397561
O O8 0.441861 0.013291 0.849441
O O9 0.158941 0.960735 0.499631
O O10 0.937839 0.385569 0.081805
O O11 0.982447 0.329586 0.984055
O O12 0.500000 0.372799 0.250000
O O13 0.509228 0.361910 0.412649
O O14 0.819754 0.360490 0.668572
O O15 0.572632 0.751809 0.699807
O O16 0.830082 0.666206 0.958945
O O17 0.500000 0.023939 0.750000
#
# Coordination Sequence:
#
# PCOD9267644 Si02
#       8
#     8   8   8   8   8   8   8   8
#     4  11  23  45  77  98 132 180 235 299 336 414
#     4  10  19  39  71 104 134 172 230 293 343 407
#     4  11  26  47  70  98 134 181 248 282 344 412
#     4  10  21  39  70 104 136 175 229 281 351 420
#     4  12  26  40  62  91 133 177 222 280 342 415
#     4  10  20  39  64  98 128 173 221 273 348 395
#     4  10  21  39  67  92 133 169 221 282 327 408
#     4  12  27  45  69 103 144 185 232 288 360 414
#
# _framework density 24.423895000000002
#
# number of rings (size 3 to 8) (size 9 to 14) (size 15 to 20)
#    0.000    1.250    3.750    1.875    3.500    2.000 
#    0.000    2.500    0.000    0.000    0.000    0.000 
#    0.000    0.000    0.000    0.000    0.000    0.000 
#
# Total GULP energy -178593.712231 kJ/mol
# GULP energy per Si atom -5581.053507 kJ/mol
# Density = 2.436831 g / cm^3
# Si number density = 24.423895 Si / 1000 Ang^3
#
#
#
# Elastic Constant Matrix: (Units=GPa)
#
#
# Indices 1 2 3 4 5 6 
#
# 1 28.3391 11.5273 23.8351 0.0000 4.6847 0.0000
# 2 11.5273 78.2813 14.3228 0.0000 15.1098 0.0000
# 3 23.8351 14.3228 96.0727 0.0000 12.7648 0.0000
# 4 0.0000 0.0000 0.0000 35.0549 0.0000 -0.8999
# 5 4.6847 15.1098 12.7648 0.0000 31.8894 0.0000
# 6 0.0000 0.0000 0.0000 -0.8999 0.0000 -1.4280
#
#
#
# Elastic Compliance Matrix: (Units=1/GPa)
#
#
# Indices 1 2 3 4 5 6 
#
# 1 0.046318 -0.004811 -0.010744 0.000000 -0.000224 0.000000
# 2 -0.004811 0.014711 -0.000177 0.000000 -0.006193 0.000000
# 3 -0.010744 -0.000177 0.013603 0.000000 -0.003783 0.000000
# 4 0.000000 0.000000 0.000000 0.028072 0.000000 -0.017691
# 5 -0.000224 -0.006193 -0.003783 0.000000 0.035840 0.000000
# 6 0.000000 0.000000 0.000000 -0.017691 0.000000 -0.689124
#
#
# Mechanical properties :
#
#
# Convention : Reuss Voigt Hill
#
# Bulk Modulus (GPa) = 23.16576 33.56261 28.36418
# Shear Modulus (GPa) = -9.90636 23.30378 6.69871
#
# Velocity S-wave (km/s) = -2.01614 3.09226 1.65790
# Velocity P-wave (km/s) = 2.02131 5.14986 3.91195
#
# Compressibility (1/GPa) = 0.04316716
#
# Stress axis : x y z
#
# Youngs Moduli (GPa) = 21.59007 67.97837 73.51155
#
# Poissons Ratio (x) = 0.32708 0.78981
# Poissons Ratio (y) = 0.10388 0.01298
# Poissons Ratio (z) = 0.23196 0.01201
#
# Static dielectric constant tensor:
#      x y z
#    x 2.157500 0.000000 -0.091960 
#    y 0.000000 1.938880 0.000000 
#    z -0.091960 0.000000 2.004410 
# 
# From -- ./inp_files/216971.got.cif
#   From: 2010.05.17/outbox.cif.g08.bks.cpg/sg15_109_cif.got.tgz:216971.got - 2010.06.03 18:47:42.
