data_PCOD9267456
_publ_section_title
;
Structure prediction by ZEFSAII (Michael W. Deem and Ramdas Pophale) SiO2 
 PCOD9267456
Probable space group: C 2/C
;
_chemical_formula_sum "Si O2"
_cell_formula_units_Z 40
_cell_length_a 6.785713
_cell_length_b 18.242990
_cell_length_c 11.947495
_cell_angle_alpha 90.000000
_cell_angle_beta 95.593464
_cell_angle_gamma 90.000000
_cell_volume 1471.958426
_symmetry_space_group_name_H-M "C 2/C"
_symmetry_group_IT_number 15
_symmetry_cell_setting 'monoclinic'
loop_
_space_group_symop_operation_xyz
x,y,z
-x,y,1/2-z
-x,-y,-z
x,-y,1/2+z
1/2+x,1/2+y,z
1/2-x,1/2+y,1/2-z
1/2-x,1/2-y,-z
1/2+x,1/2-y,1/2+z
loop_
_atom_site_type_symbol
_atom_site_label
_atom_site_fract_x
_atom_site_fract_y
_atom_site_fract_z
Si Si1 0.797831 0.406391 0.614192
Si Si2 0.768430 0.862448 0.653708
Si Si3 0.277133 0.802002 0.160842
Si Si4 0.810555 0.813535 0.089751
Si Si5 0.822502 0.550809 0.539934
O O1 0.689282 0.369319 0.712677
O O2 0.761531 0.492867 0.630724
O O3 0.026046 0.376404 0.633892
O O4 0.725695 0.385162 0.486935
O O5 0.823970 0.780260 0.622159
O O6 0.824810 0.925677 0.568578
O O7 0.364772 0.871394 0.099995
O O8 0.298538 0.806871 0.296684
O O9 0.458603 0.691552 0.871324
O O10 0.750000 0.750000 0.000000
O O11 0.000000 0.500000 0.500000
#
# Coordination Sequence:
#
# PCOD9267456 Si02
#       5
#     8   8   8   8   8
#     4  10  20  38  64  92 134 177 221 292 354 405
#     4  10  19  39  63  93 132 176 234 279 340 426
#     4  11  22  39  67  97 129 185 231 287 349 424
#     4  11  20  39  67  98 130 176 232 290 354 416
#     4  10  24  40  61  94 138 179 228 290 348 417
#
# _framework density 27.174682000000001
#
# number of rings (size 3 to 8) (size 9 to 14) (size 15 to 20)
#    0.000    1.600    4.000    1.800    2.800    0.800 
#    3.600    1.000    0.000    0.000    0.000    0.000 
#    0.000    0.000    0.000    0.000    0.000    0.000 
#
# Total GULP energy -111869.196005 kJ/mol
# GULP energy per Si atom -5593.459800 kJ/mol
# Density = 2.711283 g / cm^3
# Si number density = 27.174682 Si / 1000 Ang^3
#
#
#
# Elastic Constant Matrix: (Units=GPa)
#
#
# Indices 1 2 3 4 5 6 
#
# 1 82.4760 36.0769 23.3250 0.0000 7.8327 0.0000
# 2 36.0769 238.0827 69.6773 0.0000 7.3018 0.0000
# 3 23.3250 69.6773 177.7054 0.0000 5.4821 0.0000
# 4 0.0000 0.0000 0.0000 45.4354 0.0000 3.1346
# 5 7.8327 7.3018 5.4821 0.0000 55.2780 0.0000
# 6 0.0000 0.0000 0.0000 3.1346 0.0000 34.9346
#
#
#
# Elastic Compliance Matrix: (Units=1/GPa)
#
#
# Indices 1 2 3 4 5 6 
#
# 1 0.013295 -0.001661 -0.001046 0.000000 -0.001561 0.000000
# 2 -0.001661 0.004963 -0.001720 0.000000 -0.000250 0.000000
# 3 -0.001046 -0.001720 0.006447 0.000000 -0.000264 0.000000
# 4 0.000000 0.000000 0.000000 0.022146 0.000000 -0.001987
# 5 -0.001561 -0.000250 -0.000264 0.000000 0.018371 0.000000
# 6 0.000000 0.000000 0.000000 -0.001987 0.000000 0.028803
#
#
# Mechanical properties :
#
#
# Convention : Reuss Voigt Hill
#
# Bulk Modulus (GPa) = 63.08418 84.04694 73.56556
# Shear Modulus (GPa) = 46.22648 51.74192 48.98420
#
# Velocity S-wave (km/s) = 4.12890 4.36827 4.25027
# Velocity P-wave (km/s) = 6.78197 7.51252 7.15657
#
# Compressibility (1/GPa) = 0.01585184
#
# Stress axis : x y z
#
# Youngs Moduli (GPa) = 75.21537 201.49173 155.10581
#
# Poissons Ratio (x) = 0.33462 0.16221
# Poissons Ratio (y) = 0.12491 0.26683
# Poissons Ratio (z) = 0.07866 0.34662
#
# Static dielectric constant tensor:
#      x y z
#    x 2.346630 0.000000 -0.096740 
#    y 0.000000 2.191420 0.000000 
#    z -0.096740 0.000000 2.194810 
# 
# From -- ./inp_files/80056.got.cif
#   From: 2010.05.17/outbox.cif.g08.bks.cpg/sg15_41_cif.got.tgz:80056.got - 2010.06.03 18:47:42.
