data_PCOD9267676
_publ_section_title
;
Structure prediction by ZEFSAII (Michael W. Deem and Ramdas Pophale) SiO2 
 PCOD9267676
Probable space group: C 2/C
;
_chemical_formula_sum "Si O2"
_cell_formula_units_Z 44
_cell_length_a 10.705829
_cell_length_b 17.403315
_cell_length_c 10.194334
_cell_angle_alpha 90.000000
_cell_angle_beta 103.746785
_cell_angle_gamma 90.000000
_cell_volume 1844.969975
_symmetry_space_group_name_H-M "C 2/C"
_symmetry_group_IT_number 15
_symmetry_cell_setting 'monoclinic'
loop_
_space_group_symop_operation_xyz
x,y,z
-x,y,1/2-z
-x,-y,-z
x,-y,1/2+z
1/2+x,1/2+y,z
1/2-x,1/2+y,1/2-z
1/2-x,1/2-y,-z
1/2+x,1/2-y,1/2+z
loop_
_atom_site_type_symbol
_atom_site_label
_atom_site_fract_x
_atom_site_fract_y
_atom_site_fract_z
Si Si1 0.316498 0.104258 0.719524
Si Si2 0.780296 0.433018 0.746987
Si Si3 0.256310 0.659533 0.525025
Si Si4 0.538850 0.657634 0.547583
Si Si5 0.636784 0.189705 0.015629
Si Si6 0.000000 0.906850 0.750000
O O1 0.319348 0.141382 0.862607
O O2 0.167812 0.116872 0.630677
O O3 0.396663 0.146969 0.627119
O O4 0.345410 0.014791 0.743473
O O5 0.789377 0.386154 0.614177
O O6 0.631004 0.450368 0.747798
O O7 0.827236 0.376797 0.873590
O O8 0.250000 0.750000 0.500000
O O9 0.405330 0.632841 0.579183
O O10 0.545087 0.749778 0.563930
O O11 0.526077 0.642173 0.387944
O O12 0.750000 0.250000 0.000000
#
# Coordination Sequence:
#
# PCOD9267676 Si02
#       6
#     8   8   8   8   8   4
#     4  11  22  36  59  90 120 153 189 247 301 345
#     4  11  22  36  58  86 126 150 191 242 303 354
#     4  11  24  37  58  90 120 150 200 250 292 340
#     4  10  22  37  62  83 117 162 198 235 293 354
#     4  10  19  40  60  80 116 165 198 225 287 367
#     4  10  20  32  58  86 112 156 194 230 290 358
#
# _framework density 23.848628000000001
#
# number of rings (size 3 to 8) (size 9 to 14) (size 15 to 20)
#    0.000    1.455    3.636    3.818    5.091    1.455 
#    0.000    0.000    0.000    6.545    0.000    0.000 
#    0.000    0.000    0.000    0.000    0.000    0.000 
#
# Total GULP energy -123043.076231 kJ/mol
# GULP energy per Si atom -5592.867101 kJ/mol
# Density = 2.379435 g / cm^3
# Si number density = 23.848628 Si / 1000 Ang^3
#
#
#
# Elastic Constant Matrix: (Units=GPa)
#
#
# Indices 1 2 3 4 5 6 
#
# 1 82.0383 6.7441 30.2056 0.0000 -7.5437 0.0000
# 2 6.7441 169.5488 65.7131 0.0000 -6.4214 0.0000
# 3 30.2056 65.7131 165.8667 0.0000 -15.9431 0.0000
# 4 0.0000 0.0000 0.0000 49.5489 0.0000 -5.8671
# 5 -7.5437 -6.4214 -15.9431 0.0000 20.8549 0.0000
# 6 0.0000 0.0000 0.0000 -5.8671 0.0000 13.9628
#
#
#
# Elastic Compliance Matrix: (Units=1/GPa)
#
#
# Indices 1 2 3 4 5 6 
#
# 1 0.013292 0.000486 -0.002306 0.000000 0.003195 0.000000
# 2 0.000486 0.006986 -0.002841 0.000000 0.000155 0.000000
# 3 -0.002306 -0.002841 0.007998 0.000000 0.004405 0.000000
# 4 0.000000 0.000000 0.000000 0.021239 0.000000 0.008924
# 5 0.003195 0.000155 0.004405 0.000000 0.052521 0.000000
# 6 0.000000 0.000000 0.000000 0.008924 0.000000 0.075369
#
#
# Mechanical properties :
#
#
# Convention : Reuss Voigt Hill
#
# Bulk Modulus (GPa) = 52.76086 69.19772 60.97929
# Shear Modulus (GPa) = 25.90064 37.85939 31.88002
#
# Velocity S-wave (km/s) = 3.29909 3.98865 3.66015
# Velocity P-wave (km/s) = 6.05667 7.09160 6.59447
#
# Compressibility (1/GPa) = 0.01895344
#
# Stress axis : x y z
#
# Youngs Moduli (GPa) = 75.23128 143.14887 125.03156
#
# Poissons Ratio (x) = -0.06958 0.28834
# Poissons Ratio (y) = -0.03657 0.35525
# Poissons Ratio (z) = 0.17349 0.40672
#
# Static dielectric constant tensor:
#      x y z
#    x 2.046700 0.000000 0.024740 
#    y 0.000000 1.441120 0.000000 
#    z 0.024740 0.000000 1.855730 
# 
# From -- ./inp_files/39146.got.cif
#   From: 2010.05.17/outbox.cif.g08.bks.cpg/sg15_20_cif.got.tgz:39146.got - 2010.06.03 18:47:42.
