data_PCOD9267107
_publ_section_title
;
Structure prediction by ZEFSAII (Michael W. Deem and Ramdas Pophale) SiO2 
 PCOD9267107
Probable space group: C 2/C
;
_chemical_formula_sum "Si O2"
_cell_formula_units_Z 40
_cell_length_a 14.294651
_cell_length_b 9.737166
_cell_length_c 17.562629
_cell_angle_alpha 90.000000
_cell_angle_beta 39.171398
_cell_angle_gamma 90.000000
_cell_volume 1544.069747
_symmetry_space_group_name_H-M "C 2/C"
_symmetry_group_IT_number 15
_symmetry_cell_setting 'monoclinic'
loop_
_space_group_symop_operation_xyz
x,y,z
-x,y,1/2-z
-x,-y,-z
x,-y,1/2+z
1/2+x,1/2+y,z
1/2-x,1/2+y,1/2-z
1/2-x,1/2-y,-z
1/2+x,1/2-y,1/2+z
loop_
_atom_site_type_symbol
_atom_site_label
_atom_site_fract_x
_atom_site_fract_y
_atom_site_fract_z
Si Si1 0.500311 0.114180 0.888381
Si Si2 0.658051 0.581899 0.850028
Si Si3 0.958033 0.336134 0.969873
Si Si4 0.561392 0.408286 0.584980
Si Si5 0.843166 0.837016 0.379229
O O1 0.674009 0.123131 0.764578
O O2 0.459282 0.129653 0.003611
O O3 0.428860 0.249249 0.896716
O O4 0.466836 0.953216 0.899691
O O5 0.608001 0.449536 0.831883
O O6 0.537543 0.694962 0.898197
O O7 0.636105 0.564198 0.955134
O O8 0.785395 0.332257 0.102525
O O9 0.625324 0.511138 0.607343
O O10 0.750000 0.750000 0.500000
O O11 0.000000 0.784823 0.250000
#
# Coordination Sequence:
#
# PCOD9267107 Si02
#       5
#     8   8   8   8   8
#     4  10  21  39  66  94 131 171 223 274 331 397
#     4  10  19  38  65  92 131 170 227 272 325 392
#     4  10  22  38  63  99 127 175 220 273 333 400
#     4  10  22  38  61  96 127 173 218 273 329 396
#     4  12  26  44  67  97 138 179 226 280 347 408
#
# _framework density 25.905567999999999
#
# number of rings (size 3 to 8) (size 9 to 14) (size 15 to 20)
#    0.000    1.600    2.000    2.400    0.000    5.600 
#    0.000    0.000    0.000    1.200    0.000    0.000 
#    0.000    0.000    0.000    0.000    0.000    0.000 
#
# Total GULP energy -111628.362688 kJ/mol
# GULP energy per Si atom -5581.418134 kJ/mol
# Density = 2.584661 g / cm^3
# Si number density = 25.905568 Si / 1000 Ang^3
#
#
#
# Elastic Constant Matrix: (Units=GPa)
#
#
# Indices 1 2 3 4 5 6 
#
# 1 43.1827 6.8964 25.4703 0.0000 -4.5629 0.0000
# 2 6.8964 138.3534 59.9802 0.0000 -9.8729 0.0000
# 3 25.4703 59.9802 141.7714 0.0000 -27.5602 0.0000
# 4 0.0000 0.0000 0.0000 25.4324 0.0000 -3.5538
# 5 -4.5629 -9.8729 -27.5602 0.0000 39.4165 0.0000
# 6 0.0000 0.0000 0.0000 -3.5538 0.0000 41.5124
#
#
#
# Elastic Compliance Matrix: (Units=1/GPa)
#
#
# Indices 1 2 3 4 5 6 
#
# 1 0.025996 0.000898 -0.005117 0.000000 -0.000344 0.000000
# 2 0.000898 0.008890 -0.004015 0.000000 -0.000477 0.000000
# 3 -0.005117 -0.004015 0.010834 0.000000 0.005977 0.000000
# 4 0.000000 0.000000 0.000000 0.039796 0.000000 0.003407
# 5 -0.000344 -0.000477 0.005977 0.000000 0.029390 0.000000
# 6 0.000000 0.000000 0.000000 0.003407 0.000000 0.024381
#
#
# Mechanical properties :
#
#
# Convention : Reuss Voigt Hill
#
# Bulk Modulus (GPa) = 34.18692 56.44458 45.31575
# Shear Modulus (GPa) = 30.21068 36.66963 33.44015
#
# Velocity S-wave (km/s) = 3.41865 3.76641 3.59674
# Velocity P-wave (km/s) = 5.36733 6.38360 5.89740
#
# Compressibility (1/GPa) = 0.02925096
#
# Stress axis : x y z
#
# Youngs Moduli (GPa) = 38.46762 112.48936 92.30622
#
# Poissons Ratio (x) = -0.10103 0.47234
# Poissons Ratio (y) = -0.03455 0.37062
# Poissons Ratio (z) = 0.19684 0.45165
#
# Static dielectric constant tensor:
#      x y z
#    x 2.276530 0.000000 -0.018300 
#    y 0.000000 2.262040 0.000000 
#    z -0.018300 0.000000 2.013010 
# 
# From -- ./inp_files/276734.got.cif
#   From: 2010.05.17/outbox.cif.g08.bks.cpg/sg15_139_cif.got.tgz:276734.got - 2010.06.03 18:47:42.
