data_PCOD9267924
_publ_section_title
;
Structure prediction by ZEFSAII (Michael W. Deem and Ramdas Pophale) SiO2 
 PCOD9267924
Probable space group: C 2/C
;
_chemical_formula_sum "Si O2"
_cell_formula_units_Z 48
_cell_length_a 18.345131
_cell_length_b 13.426970
_cell_length_c 9.884518
_cell_angle_alpha 90.000000
_cell_angle_beta 100.581203
_cell_angle_gamma 90.000000
_cell_volume 2393.348415
_symmetry_space_group_name_H-M "C 2/C"
_symmetry_group_IT_number 15
_symmetry_cell_setting 'monoclinic'
loop_
_space_group_symop_operation_xyz
x,y,z
-x,y,1/2-z
-x,-y,-z
x,-y,1/2+z
1/2+x,1/2+y,z
1/2-x,1/2+y,1/2-z
1/2-x,1/2-y,-z
1/2+x,1/2-y,1/2+z
loop_
_atom_site_type_symbol
_atom_site_label
_atom_site_fract_x
_atom_site_fract_y
_atom_site_fract_z
Si Si1 0.708674 0.102904 0.986684
Si Si2 0.369208 0.681778 0.041130
Si Si3 0.062688 0.702770 0.505956
Si Si4 0.855798 0.547900 0.818663
Si Si5 0.004780 0.098071 0.593726
Si Si6 0.000000 0.766345 0.750000
Si Si7 0.000000 0.439145 0.750000
O O1 0.664243 0.207323 0.982949
O O2 0.691976 0.063520 0.831120
O O3 0.796348 0.116162 0.033868
O O4 0.677479 0.030354 0.089141
O O5 0.425334 0.674135 0.188821
O O6 0.418509 0.650702 0.928315
O O7 0.134380 0.651523 0.595925
O O8 0.058057 0.817775 0.459099
O O9 0.008675 0.702956 0.617887
O O10 0.034537 0.632176 0.376978
O O11 0.934937 0.504673 0.794227
O O12 0.000000 0.074842 0.750000
O O13 0.000000 0.000000 0.500000
#
# Coordination Sequence:
#
# PCOD9267924 Si02
#       7
#     8   8   8   8   8   4   4
#     4  11  25  43  68  99 147 183 222 277 367 420
#     4  10  24  46  70  97 137 184 229 286 346 416
#     4  11  22  39  64 102 138 170 224 286 343 402
#     4  12  23  39  66 105 139 184 221 282 348 428
#     4  11  26  43  71  98 129 176 240 296 332 393
#     4  10  19  40  75  92 126 186 233 278 337 406
#     4  12  23  36  67 106 146 174 223 282 343 424
#
# _framework density 20.055582999999999
#
# number of rings (size 3 to 8) (size 9 to 14) (size 15 to 20)
#    0.000    1.000    4.167    3.000    7.000    1.333 
#    0.000    0.000    0.000    5.000    0.000    0.000 
#    0.000    0.000    0.000    0.000    0.000    0.000 
#
# Total GULP energy -133950.955082 kJ/mol
# GULP energy per Si atom -5581.289795 kJ/mol
# Density = 2.000994 g / cm^3
# Si number density = 20.055583 Si / 1000 Ang^3
#
#
#
# Elastic Constant Matrix: (Units=GPa)
#
#
# Indices 1 2 3 4 5 6 
#
# 1 121.8166 41.1145 57.9449 0.0000 18.4589 0.0000
# 2 41.1145 117.7605 68.3998 0.0000 9.2107 0.0000
# 3 57.9449 68.3998 169.8689 0.0000 2.6352 0.0000
# 4 0.0000 0.0000 0.0000 17.6834 0.0000 19.0288
# 5 18.4589 9.2107 2.6352 0.0000 23.1231 0.0000
# 6 0.0000 0.0000 0.0000 19.0288 0.0000 2.7788
#
#
#
# Elastic Compliance Matrix: (Units=1/GPa)
#
#
# Indices 1 2 3 4 5 6 
#
# 1 0.011474 -0.001522 -0.003174 0.000000 -0.008191 0.000000
# 2 -0.001522 0.011651 -0.004127 0.000000 -0.002956 0.000000
# 3 -0.003174 -0.004127 0.008582 0.000000 0.003200 0.000000
# 4 0.000000 0.000000 0.000000 -0.008879 0.000000 0.060803
# 5 -0.008191 -0.002956 0.003200 0.000000 0.050599 0.000000
# 6 0.000000 0.000000 0.000000 0.060803 0.000000 -0.056504
#
#
# Mechanical properties :
#
#
# Convention : Reuss Voigt Hill
#
# Bulk Modulus (GPa) = 71.11382 82.70713 76.91048
# Shear Modulus (GPa) = 127.37561 24.84952 76.11256
#
# Velocity S-wave (km/s) = 7.97804 3.52381 6.16711
# Velocity P-wave (km/s) = 10.97273 7.60821 9.44155
#
# Compressibility (1/GPa) = 0.01406196
#
# Stress axis : x y z
#
# Youngs Moduli (GPa) = 87.15590 85.82854 116.52819
#
# Poissons Ratio (x) = 0.13059 0.36987
# Poissons Ratio (y) = 0.13261 0.48086
# Poissons Ratio (z) = 0.27664 0.35418
#
# Static dielectric constant tensor:
#      x y z
#    x 1.525240 0.000000 0.329900 
#    y 0.000000 1.771130 0.000000 
#    z 0.329900 0.000000 1.198960 
# 
# From -- ./inp_files/47505.got.cif
#   From: 2010.05.17/outbox.cif.g08.bks.cpg/sg15_24_cif.got.tgz:47505.got - 2010.06.03 18:47:42.
