data_PCOD9267776
_publ_section_title
;
Structure prediction by ZEFSAII (Michael W. Deem and Ramdas Pophale) SiO2 
 PCOD9267776
Probable space group: C 2/C
;
_chemical_formula_sum "Si O2"
_cell_formula_units_Z 48
_cell_length_a 9.761720
_cell_length_b 16.433405
_cell_length_c 33.912360
_cell_angle_alpha 90.000000
_cell_angle_beta 152.825916
_cell_angle_gamma 90.000000
_cell_volume 2484.498433
_symmetry_space_group_name_H-M "C 2/C"
_symmetry_group_IT_number 15
_symmetry_cell_setting 'monoclinic'
loop_
_space_group_symop_operation_xyz
x,y,z
-x,y,1/2-z
-x,-y,-z
x,-y,1/2+z
1/2+x,1/2+y,z
1/2-x,1/2+y,1/2-z
1/2-x,1/2-y,-z
1/2+x,1/2-y,1/2+z
loop_
_atom_site_type_symbol
_atom_site_label
_atom_site_fract_x
_atom_site_fract_y
_atom_site_fract_z
Si Si1 0.560570 0.135960 0.219957
Si Si2 0.223964 0.012698 0.593317
Si Si3 0.813550 0.904221 0.051123
Si Si4 0.184145 0.780797 0.191920
Si Si5 0.838457 0.094523 0.743494
Si Si6 0.331176 0.463707 0.626401
O O1 0.500000 0.160032 0.250000
O O2 0.328934 0.067267 0.144629
O O3 0.575560 0.205269 0.190424
O O4 0.888690 0.095599 0.305724
O O5 0.524059 0.053404 0.653537
O O6 0.000000 0.000000 0.500000
O O7 0.055114 0.071009 0.580564
O O8 0.923849 0.818331 0.097207
O O9 0.821677 0.974812 0.086729
O O10 0.475600 0.913296 0.948329
O O11 0.500000 0.766031 0.250000
O O12 0.228498 0.852375 0.235251
O O13 0.000000 0.143251 0.750000
O O14 0.079805 0.024315 0.815586
#
# Coordination Sequence:
#
# PCOD9267776 Si02
#       6
#     8   8   8   8   8   8
#     4  11  23  43  65  95 133 174 214 268 327 391
#     4  11  22  38  68  96 126 165 223 270 317 383
#     4  10  19  40  64  95 122 168 216 270 317 381
#     4  11  23  40  63  92 131 174 211 263 334 385
#     4  10  20  37  62  91 126 168 215 262 317 390
#     4   9  20  36  68  88 123 169 220 261 315 380
#
# _framework density 19.319794000000002
#
# number of rings (size 3 to 8) (size 9 to 14) (size 15 to 20)
#    0.000    1.667    3.333    1.500    0.000    4.000 
#    3.000    2.500    0.000    0.000    0.000    0.000 
#    0.000    0.000    0.000    0.000    0.000    0.000 
#
# Total GULP energy -133800.912491 kJ/mol
# GULP energy per Si atom -5575.038020 kJ/mol
# Density = 1.927582 g / cm^3
# Si number density = 19.319794 Si / 1000 Ang^3
#
#
#
# Elastic Constant Matrix: (Units=GPa)
#
#
# Indices 1 2 3 4 5 6 
#
# 1 130.8762 30.9030 33.7476 -0.0012 5.8857 -0.0003
# 2 30.9030 73.0215 32.9069 0.0004 3.6954 0.0002
# 3 33.7476 32.9069 121.9704 0.0056 3.4588 0.0006
# 4 -0.0012 0.0004 0.0056 7.0896 0.0007 -0.0021
# 5 5.8857 3.6954 3.4588 0.0007 11.4024 -0.0004
# 6 -0.0003 0.0002 0.0006 -0.0021 -0.0004 24.7439
#
#
#
# Elastic Compliance Matrix: (Units=1/GPa)
#
#
# Indices 1 2 3 4 5 6 
#
# 1 0.008873 -0.002879 -0.001588 0.000003 -0.003165 0.000000
# 2 -0.002879 0.016690 -0.003626 0.000002 -0.002823 0.000000
# 3 -0.001588 -0.003626 0.009643 -0.000008 -0.000930 0.000000
# 4 0.000003 0.000002 -0.000008 0.141051 -0.000008 0.000012
# 5 -0.003165 -0.002823 -0.000930 -0.000008 0.090531 0.000001
# 6 0.000000 0.000000 0.000000 0.000012 0.000001 0.040414
#
#
# Mechanical properties :
#
#
# Convention : Reuss Voigt Hill
#
# Bulk Modulus (GPa) = 52.58109 57.88701 55.23405
# Shear Modulus (GPa) = 15.16399 23.86791 19.51595
#
# Velocity S-wave (km/s) = 2.80464 3.51866 3.18174
# Velocity P-wave (km/s) = 6.14518 6.82169 6.49225
#
# Compressibility (1/GPa) = 0.01901824
#
# Stress axis : x y z
#
# Youngs Moduli (GPa) = 112.70770 59.91623 103.70304
#
# Poissons Ratio (x) = 0.17249 0.16473
# Poissons Ratio (y) = 0.32447 0.37605
# Poissons Ratio (z) = 0.17903 0.21727
#
# Static dielectric constant tensor:
#      x y z
#    x 1.694330 0.000000 -0.041010 
#    y 0.000000 1.690920 0.000000 
#    z -0.041010 0.000000 1.675700 
# 
# From -- ./inp_files/182431.got.cif
#   From: 2010.05.17/outbox.cif.g08.bks.cpg/sg15_92_cif.got.tgz:182431.got - 2010.06.03 18:47:42.
