data_PCOD9267001
_publ_section_title
;
Structure prediction by ZEFSAII (Michael W. Deem and Ramdas Pophale) SiO2 
 PCOD9267001
Probable space group: C 2/C
;
_chemical_formula_sum "Si O2"
_cell_formula_units_Z 56
_cell_length_a 18.721948
_cell_length_b 14.222115
_cell_length_c 21.259428
_cell_angle_alpha 90.000000
_cell_angle_beta 149.464372
_cell_angle_gamma 90.000000
_cell_volume 2876.032625
_symmetry_space_group_name_H-M "C 2/C"
_symmetry_group_IT_number 15
_symmetry_cell_setting 'monoclinic'
loop_
_space_group_symop_operation_xyz
x,y,z
-x,y,1/2-z
-x,-y,-z
x,-y,1/2+z
1/2+x,1/2+y,z
1/2-x,1/2+y,1/2-z
1/2-x,1/2-y,-z
1/2+x,1/2-y,1/2+z
loop_
_atom_site_type_symbol
_atom_site_label
_atom_site_fract_x
_atom_site_fract_y
_atom_site_fract_z
Si Si1 0.500000 0.989561 0.250000
Si Si2 0.977208 0.887983 0.983894
Si Si3 0.166405 0.427316 0.759565
Si Si4 0.809955 0.411727 0.999688
Si Si5 0.074752 0.432439 0.006286
Si Si6 0.995552 0.758162 0.879636
Si Si7 0.759918 0.373253 0.254902
Si Si8 0.500000 0.353688 0.750000
O O1 0.610867 0.928022 0.374134
O O2 0.409141 0.048589 0.231840
O O3 0.813669 0.873350 0.876440
O O4 0.010740 0.841413 0.941788
O O5 0.096204 0.852727 0.121875
O O6 0.000000 0.000000 0.000000
O O7 0.204441 0.527142 0.753544
O O8 0.050170 0.380381 0.625660
O O9 0.854152 0.498438 0.989618
O O10 0.642766 0.408615 0.874088
O O11 0.874387 0.314997 0.020794
O O12 0.187036 0.377410 0.133098
O O13 0.000000 0.500000 0.000000
O O14 0.857630 0.701437 0.794723
O O15 0.975657 0.794245 0.794291
#
# Coordination Sequence:
#
# PCOD9267001 Si02
#       8
#     4   8   8   8   8   8   8   4
#     4  10  19  38  64  82 125 164 196 233 310 370
#     4  10  24  37  58  85 122 159 202 257 290 347
#     4   9  19  35  59  83 115 159 197 245 294 357
#     4  11  23  38  58  86 123 165 198 241 296 367
#     4   9  17  35  60  79 109 155 207 241 285 348
#     4  12  23  39  57  88 127 162 199 238 305 361
#     4  10  20  36  61  84 117 157 204 248 290 351
#     4  12  29  32  56  88 129 164 192 239 294 370
#
# _framework density 19.471267999999998
#
# number of rings (size 3 to 8) (size 9 to 14) (size 15 to 20)
#    0.000    1.714    4.286    1.714   10.000    1.143 
#    0.000    0.000    0.000    0.000    0.000   10.000 
#    0.000    0.143    0.000    0.000    0.000    0.000 
#
# Total GULP energy -156200.760872 kJ/mol
# GULP energy per Si atom -5578.598603 kJ/mol
# Density = 1.942695 g / cm^3
# Si number density = 19.471268 Si / 1000 Ang^3
#
#
#
# Elastic Constant Matrix: (Units=GPa)
#
#
# Indices 1 2 3 4 5 6 
#
# 1 89.0933 26.6560 83.1104 -0.0001 -11.4217 -0.0002
# 2 26.6560 39.6299 42.3169 0.0005 -4.2358 0.0004
# 3 83.1104 42.3169 213.8478 -0.0001 -3.1838 -0.0001
# 4 -0.0001 0.0005 -0.0001 -1.9537 -0.0002 -11.5764
# 5 -11.4217 -4.2358 -3.1838 -0.0002 12.0127 -0.0002
# 6 -0.0002 0.0004 -0.0001 -11.5764 -0.0002 14.6303
#
#
#
# Elastic Compliance Matrix: (Units=1/GPa)
#
#
# Indices 1 2 3 4 5 6 
#
# 1 0.021536 -0.005097 -0.007111 -0.000001 0.016794 0.000000
# 2 -0.005097 0.034353 -0.004727 0.000003 0.006014 0.000001
# 3 -0.007111 -0.004727 0.008283 0.000000 -0.006233 0.000000
# 4 -0.000001 0.000003 0.000000 -0.089980 -0.000003 -0.071197
# 5 0.016794 0.006014 -0.006233 -0.000003 0.099681 -0.000001
# 6 0.000000 0.000001 0.000000 -0.071197 -0.000001 0.012016
#
#
# Mechanical properties :
#
#
# Convention : Reuss Voigt Hill
#
# Bulk Modulus (GPa) = 33.00357 71.85973 52.43165
# Shear Modulus (GPa) = 38.50335 17.63705 28.07020
#
# Velocity S-wave (km/s) = 4.45167 3.01291 3.80099
# Velocity P-wave (km/s) = 6.58861 7.00637 6.80070
#
# Compressibility (1/GPa) = 0.03029975
#
# Stress axis : x y z
#
# Youngs Moduli (GPa) = 46.43450 29.10989 120.73640
#
# Poissons Ratio (x) = 0.14838 0.85856
# Poissons Ratio (y) = 0.23669 0.57075
# Poissons Ratio (z) = 0.33020 0.13761
#
# Static dielectric constant tensor:
#      x y z
#    x 1.684780 0.000020 -0.097780 
#    y 0.000020 1.896840 -0.000040 
#    z -0.097780 -0.000040 1.992170 
# 
# From -- ./inp_files/249567.got.cif
#   From: 2010.05.17/outbox.cif.g08.bks.cpg/sg15_125_cif.got.tgz:249567.got - 2010.06.03 18:47:42.
