data_PCOD9267126
_publ_section_title
;
Structure prediction by ZEFSAII (Michael W. Deem and Ramdas Pophale) SiO2 
 PCOD9267126
Probable space group: C 2/C
;
_chemical_formula_sum "Si O2"
_cell_formula_units_Z 44
_cell_length_a 7.979857
_cell_length_b 20.922387
_cell_length_c 11.791030
_cell_angle_alpha 90.000000
_cell_angle_beta 67.068091
_cell_angle_gamma 90.000000
_cell_volume 1813.021212
_symmetry_space_group_name_H-M "C 2/C"
_symmetry_group_IT_number 15
_symmetry_cell_setting 'monoclinic'
loop_
_space_group_symop_operation_xyz
x,y,z
-x,y,1/2-z
-x,-y,-z
x,-y,1/2+z
1/2+x,1/2+y,z
1/2-x,1/2+y,1/2-z
1/2-x,1/2-y,-z
1/2+x,1/2-y,1/2+z
loop_
_atom_site_type_symbol
_atom_site_label
_atom_site_fract_x
_atom_site_fract_y
_atom_site_fract_z
Si Si1 0.784617 0.078921 0.831814
Si Si2 0.500000 0.939909 0.250000
Si Si3 0.697948 0.721569 0.755467
Si Si4 0.378762 0.435807 0.548147
Si Si5 0.761235 0.851934 0.033933
Si Si6 0.799029 0.858093 0.766895
O O1 0.660771 0.034258 0.786516
O O2 0.744377 0.153612 0.814104
O O3 0.000000 0.069275 0.750000
O O4 0.755256 0.065778 0.969996
O O5 0.617455 0.898931 0.129838
O O6 0.500000 0.731958 0.750000
O O7 0.723837 0.708201 0.884066
O O8 0.801733 0.787842 0.708830
O O9 0.500000 0.500000 0.500000
O O10 0.538851 0.382724 0.501947
O O11 0.254506 0.410854 0.684706
O O12 0.709003 0.849398 0.914776
O O13 0.000000 0.878676 0.750000
#
# Coordination Sequence:
#
# PCOD9267126 Si02
#       6
#     8   4   8   8   8   8
#     4  10  20  40  67 101 134 182 240 277 366 422
#     4  10  20  38  74  96 134 178 228 290 342 434
#     4  10  19  38  65  95 146 178 229 296 361 443
#     4  11  23  45  71  95 139 195 244 293 347 427
#     4  10  21  43  61 105 136 184 240 284 369 423
#     4  10  24  39  62 105 137 181 238 292 361 423
#
# _framework density 24.268882000000001
#
# number of rings (size 3 to 8) (size 9 to 14) (size 15 to 20)
#    0.000    1.818    5.455    0.545    5.091    4.364 
#    0.000    0.909    2.000    0.000    0.000    0.000 
#    0.000    0.000    0.000    0.000    0.000    0.000 
#
# Total GULP energy -122469.245485 kJ/mol
# GULP energy per Si atom -5566.783886 kJ/mol
# Density = 2.421364 g / cm^3
# Si number density = 24.268882 Si / 1000 Ang^3
#
#
#
# Elastic Constant Matrix: (Units=GPa)
#
#
# Indices 1 2 3 4 5 6 
#
# 1 82.7174 1.1062 38.0986 0.0000 39.6786 0.0000
# 2 1.1062 119.7826 68.7950 0.0000 24.2735 0.0000
# 3 38.0986 68.7950 136.4904 0.0000 41.4835 0.0000
# 4 0.0000 0.0000 0.0000 2.6554 0.0000 -17.4858
# 5 39.6786 24.2735 41.4835 0.0000 47.1124 0.0000
# 6 0.0000 0.0000 0.0000 -17.4858 0.0000 -0.0658
#
#
#
# Elastic Compliance Matrix: (Units=1/GPa)
#
#
# Indices 1 2 3 4 5 6 
#
# 1 0.022687 0.005576 -0.003362 0.000000 -0.019019 0.000000
# 2 0.005576 0.013166 -0.006422 0.000000 -0.005825 0.000000
# 3 -0.003362 -0.006422 0.013157 0.000000 -0.005444 0.000000
# 4 0.000000 0.000000 0.000000 0.000215 0.000000 -0.057157
# 5 -0.019019 -0.005825 -0.005444 0.000000 0.045038 0.000000
# 6 0.000000 0.000000 0.000000 -0.057157 0.000000 -0.008680
#
#
# Mechanical properties :
#
#
# Convention : Reuss Voigt Hill
#
# Bulk Modulus (GPa) = 24.63556 61.66556 43.15056
# Shear Modulus (GPa) = 46.49840 25.33976 35.91908
#
# Velocity S-wave (km/s) = 4.38193 3.23480 3.85131
# Velocity P-wave (km/s) = 5.98121 6.27825 6.13152
#
# Compressibility (1/GPa) = 0.04059172
#
# Stress axis : x y z
#
# Youngs Moduli (GPa) = 44.07855 75.95524 76.00802
#
# Poissons Ratio (x) = -0.42351 0.25557
# Poissons Ratio (y) = -0.24577 0.48812
# Poissons Ratio (z) = 0.14821 0.48778
#
# Static dielectric constant tensor:
#      x y z
#    x 1.975510 0.000000 -0.019380 
#    y 0.000000 1.906700 0.000000 
#    z -0.019380 0.000000 2.140020 
# 
# From -- ./inp_files/78128.got.cif
#   From: 2010.05.17/outbox.cif.g08.bks.cpg/sg15_40_cif.got.tgz:78128.got - 2010.06.03 18:47:42.
