data_PCOD9267004
_publ_section_title
;
Structure prediction by ZEFSAII (Michael W. Deem and Ramdas Pophale) SiO2 
 PCOD9267004
Probable space group: C 2/C
;
_chemical_formula_sum "Si O2"
_cell_formula_units_Z 60
_cell_length_a 22.164106
_cell_length_b 20.859271
_cell_length_c 9.349843
_cell_angle_alpha 90.000000
_cell_angle_beta 139.767268
_cell_angle_gamma 90.000000
_cell_volume 2791.996457
_symmetry_space_group_name_H-M "C 2/C"
_symmetry_group_IT_number 15
_symmetry_cell_setting 'monoclinic'
loop_
_space_group_symop_operation_xyz
x,y,z
-x,y,1/2-z
-x,-y,-z
x,-y,1/2+z
1/2+x,1/2+y,z
1/2-x,1/2+y,1/2-z
1/2-x,1/2-y,-z
1/2+x,1/2-y,1/2+z
loop_
_atom_site_type_symbol
_atom_site_label
_atom_site_fract_x
_atom_site_fract_y
_atom_site_fract_z
Si Si1 0.879539 0.539070 0.279655
Si Si2 0.288426 0.594803 0.367710
Si Si3 0.391010 0.540401 0.038505
Si Si4 0.500000 0.020440 0.250000
Si Si5 0.723795 0.786150 0.304665
Si Si6 0.262375 0.911355 0.031629
Si Si7 0.911895 0.822503 0.485363
Si Si8 0.654122 0.275865 0.405437
O O1 0.798729 0.584831 0.185718
O O2 0.933851 0.560123 0.236427
O O3 0.943668 0.522833 0.533086
O O4 0.827774 0.473015 0.143329
O O5 0.336460 0.526355 0.417951
O O6 0.252109 0.618014 0.149499
O O7 0.346260 0.650001 0.545359
O O8 0.500000 0.525117 0.250000
O O9 0.337601 0.568853 0.080928
O O10 0.388379 0.600676 0.923519
O O11 0.750000 0.750000 0.500000
O O12 0.692504 0.857804 0.287970
O O13 0.823478 0.793824 0.407333
O O14 0.653660 0.759256 0.057582
O O15 0.921555 0.780283 0.359228
O O16 0.000000 0.821059 0.750000
O O17 0.750000 0.250000 0.500000
#
# Coordination Sequence:
#
# PCOD9267004 Si02
#       8
#     8   8   8   4   8   8   8   8
#     4  10  21  36  61  91 123 155 203 257 331 381
#     4  11  21  36  61  97 124 163 209 256 312 383
#     4   9  21  37  58  96 132 166 198 251 325 389
#     4  10  20  36  58  88 122 154 192 256 324 384
#     4  10  19  38  64  85 115 162 218 256 298 365
#     4  10  20  36  62  89 126 161 205 261 309 377
#     4   9  20  40  62  89 126 162 200 260 325 373
#     4  10  22  39  65  87 115 172 219 252 303 375
#
# _framework density 21.489999000000001
#
# number of rings (size 3 to 8) (size 9 to 14) (size 15 to 20)
#    0.000    2.133    2.667    0.000    3.733    2.667 
#    4.800    0.667   22.000    0.000    1.733    0.000 
#    0.000    0.000    0.000    0.000    0.000    0.000 
#
# Total GULP energy -167086.726498 kJ/mol
# GULP energy per Si atom -5569.557550 kJ/mol
# Density = 2.144109 g / cm^3
# Si number density = 21.489999 Si / 1000 Ang^3
#
#
#
# Elastic Constant Matrix: (Units=GPa)
#
#
# Indices 1 2 3 4 5 6 
#
# 1 84.7054 28.9565 36.1634 0.0000 -15.6046 0.0000
# 2 28.9565 46.8588 24.8908 0.0000 -12.0293 0.0000
# 3 36.1634 24.8908 94.8834 0.0000 -23.6494 0.0000
# 4 0.0000 0.0000 0.0000 6.5509 0.0000 -7.5827
# 5 -15.6046 -12.0293 -23.6494 0.0000 32.9322 0.0000
# 6 0.0000 0.0000 0.0000 -7.5827 0.0000 -6.3345
#
#
#
# Elastic Compliance Matrix: (Units=1/GPa)
#
#
# Indices 1 2 3 4 5 6 
#
# 1 0.016399 -0.007575 -0.003674 0.000000 0.002366 0.000000
# 2 -0.007575 0.029092 -0.003642 0.000000 0.004421 0.000000
# 3 -0.003674 -0.003642 0.014774 0.000000 0.007538 0.000000
# 4 0.000000 0.000000 0.000000 0.063989 0.000000 -0.076598
# 5 0.002366 0.004421 0.007538 0.000000 0.038515 0.000000
# 6 0.000000 0.000000 0.000000 -0.076598 0.000000 -0.066175
#
#
# Mechanical properties :
#
#
# Convention : Reuss Voigt Hill
#
# Bulk Modulus (GPa) = 32.80605 45.16321 38.98463
# Shear Modulus (GPa) = 36.62014 15.72552 26.17283
#
# Velocity S-wave (km/s) = 4.13250 2.70804 3.49364
# Velocity P-wave (km/s) = 6.17000 5.55333 5.86977
#
# Compressibility (1/GPa) = 0.03048218
#
# Stress axis : x y z
#
# Youngs Moduli (GPa) = 60.97776 34.37397 67.68757
#
# Poissons Ratio (x) = 0.26040 0.24865
# Poissons Ratio (y) = 0.46194 0.24654
# Poissons Ratio (z) = 0.22400 0.12520
#
# Static dielectric constant tensor:
#      x y z
#    x 1.926250 0.000000 0.027710 
#    y 0.000000 1.815230 0.000000 
#    z 0.027710 0.000000 1.805230 
# 
# From -- ./inp_files/63519.got.cif
#   From: 2010.05.17/outbox.cif.g08.bks.cpg/sg15_32_cif.got.tgz:63519.got - 2010.06.03 18:47:42.
