data_PCOD9267677
_publ_section_title
;
Structure prediction by ZEFSAII (Michael W. Deem and Ramdas Pophale) SiO2 
 PCOD9267677
Probable space group: C 2/C
;
_chemical_formula_sum "Si O2"
_cell_formula_units_Z 48
_cell_length_a 12.915339
_cell_length_b 16.587618
_cell_length_c 12.486599
_cell_angle_alpha 90.000000
_cell_angle_beta 135.511506
_cell_angle_gamma 90.000000
_cell_volume 1874.593182
_symmetry_space_group_name_H-M "C 2/C"
_symmetry_group_IT_number 15
_symmetry_cell_setting 'monoclinic'
loop_
_space_group_symop_operation_xyz
x,y,z
-x,y,1/2-z
-x,-y,-z
x,-y,1/2+z
1/2+x,1/2+y,z
1/2-x,1/2+y,1/2-z
1/2-x,1/2-y,-z
1/2+x,1/2-y,1/2+z
loop_
_atom_site_type_symbol
_atom_site_label
_atom_site_fract_x
_atom_site_fract_y
_atom_site_fract_z
Si Si1 0.179139 0.167325 0.619879
Si Si2 0.388026 0.146797 0.073889
Si Si3 0.917077 0.870484 0.089357
Si Si4 0.996963 0.697014 0.917522
Si Si5 0.326764 0.487298 0.855880
Si Si6 0.373657 0.970723 0.988022
O O1 0.332841 0.210705 0.754238
O O2 0.229223 0.073841 0.643255
O O3 0.057020 0.162973 0.626016
O O4 0.091486 0.222297 0.471785
O O5 0.500000 0.171875 0.250000
O O6 0.216658 0.174977 0.949880
O O7 0.464041 0.173967 0.018397
O O8 0.372036 0.048499 0.061994
O O9 0.000000 0.915400 0.250000
O O10 0.814010 0.910203 0.920985
O O11 0.082329 0.617368 0.937702
O O12 0.269313 0.469668 0.695055
O O13 0.500000 0.500000 0.000000
O O14 0.500000 0.000000 0.000000
#
# Coordination Sequence:
#
# PCOD9267677 Si02
#       6
#     8   8   8   8   8   8
#     4  11  24  39  58  87 120 162 193 240 286 355
#     4  11  22  36  62  90 115 153 193 245 299 344
#     4  11  21  39  59  89 121 148 196 245 300 346
#     4  11  24  39  58  85 123 157 200 234 293 352
#     4  10  20  37  63  82 113 157 204 241 279 342
#     4  10  19  40  60  81 112 156 208 239 273 349
#
# _framework density 25.605557000000001
#
# number of rings (size 3 to 8) (size 9 to 14) (size 15 to 20)
#    0.000    1.333    5.000    3.000    7.000    1.333 
#    0.000    0.000    0.000    2.000    0.000    0.000 
#    0.000    0.000    0.000    0.000    0.000    0.000 
#
# Total GULP energy -133687.951392 kJ/mol
# GULP energy per Si atom -5570.331308 kJ/mol
# Density = 2.554728 g / cm^3
# Si number density = 25.605557 Si / 1000 Ang^3
#
#
#
# Elastic Constant Matrix: (Units=GPa)
#
#
# Indices 1 2 3 4 5 6 
#
# 1 46.4380 -4.1170 23.1401 0.0000 15.2262 0.0000
# 2 -4.1170 95.8397 17.0267 0.0000 7.6796 0.0000
# 3 23.1401 17.0267 151.6857 0.0000 31.6450 0.0000
# 4 0.0000 0.0000 0.0000 32.9823 0.0000 8.1157
# 5 15.2262 7.6796 31.6450 0.0000 27.8478 0.0000
# 6 0.0000 0.0000 0.0000 8.1157 0.0000 -3.2634
#
#
#
# Elastic Compliance Matrix: (Units=1/GPa)
#
#
# Indices 1 2 3 4 5 6 
#
# 1 0.027028 0.002535 -0.001545 0.000000 -0.013721 0.000000
# 2 0.002535 0.010976 -0.000915 0.000000 -0.003373 0.000000
# 3 -0.001545 -0.000915 0.008785 0.000000 -0.008885 0.000000
# 4 0.000000 0.000000 0.000000 0.018809 0.000000 0.046777
# 5 -0.013721 -0.003373 -0.008885 0.000000 0.054439 0.000000
# 6 0.000000 0.000000 0.000000 0.046777 0.000000 -0.190102
#
#
# Mechanical properties :
#
#
# Convention : Reuss Voigt Hill
#
# Bulk Modulus (GPa) = 21.30486 40.67367 30.98926
# Shear Modulus (GPa) = -91.62575 28.70760 -31.45908
#
# Velocity S-wave (km/s) = -5.98842 3.35199 -3.50895
# Velocity P-wave (km/s) = 6.28303 5.55880 2.07078
#
# Compressibility (1/GPa) = 0.04693764
#
# Stress axis : x y z
#
# Youngs Moduli (GPa) = 36.99909 91.10927 113.83438
#
# Poissons Ratio (x) = -0.23096 0.17590
# Poissons Ratio (y) = -0.09379 0.10417
# Poissons Ratio (z) = 0.05717 0.08337
#
# Static dielectric constant tensor:
#      x y z
#    x 2.234300 0.000000 -0.129160 
#    y 0.000000 2.240780 0.000000 
#    z -0.129160 0.000000 2.051910 
# 
# From -- ./inp_files/163315.got.cif
#   From: 2010.05.17/outbox.cif.g08.bks.cpg/sg15_82_cif.got.tgz:163315.got - 2010.06.03 18:47:42.
