data_PCOD9267709
_publ_section_title
;
Structure prediction by ZEFSAII (Michael W. Deem and Ramdas Pophale) SiO2 
 PCOD9267709
Probable space group: C 2/C
;
_chemical_formula_sum "Si O2"
_cell_formula_units_Z 60
_cell_length_a 12.463594
_cell_length_b 7.165880
_cell_length_c 28.673178
_cell_angle_alpha 90.000000
_cell_angle_beta 77.620530
_cell_angle_gamma 90.000000
_cell_volume 2501.334086
_symmetry_space_group_name_H-M "C 2/C"
_symmetry_group_IT_number 15
_symmetry_cell_setting 'monoclinic'
loop_
_space_group_symop_operation_xyz
x,y,z
-x,y,1/2-z
-x,-y,-z
x,-y,1/2+z
1/2+x,1/2+y,z
1/2-x,1/2+y,1/2-z
1/2-x,1/2-y,-z
1/2+x,1/2-y,1/2+z
loop_
_atom_site_type_symbol
_atom_site_label
_atom_site_fract_x
_atom_site_fract_y
_atom_site_fract_z
Si Si1 0.000000 0.897663 0.250000
Si Si2 0.584429 0.595893 0.836933
Si Si3 0.209316 0.127454 0.680015
Si Si4 0.320297 0.186489 0.844076
Si Si5 0.013276 0.433483 0.946017
Si Si6 0.875006 0.849795 0.410101
Si Si7 0.449082 0.955691 0.158823
Si Si8 0.757257 0.301495 0.552731
O O1 0.043440 0.995343 0.292783
O O2 0.113946 0.802119 0.223018
O O3 0.713342 0.577175 0.834785
O O4 0.490285 0.549318 0.883863
O O5 0.565393 0.820989 0.833250
O O6 0.182021 0.214983 0.632373
O O7 0.335179 0.143005 0.683138
O O8 0.191918 0.901923 0.672654
O O9 0.441821 0.108898 0.825032
O O10 0.307456 0.190737 0.901538
O O11 0.039471 0.565434 0.899073
O O12 0.119434 0.301194 0.939770
O O13 0.908270 0.316104 0.940421
O O14 0.000000 0.500000 0.000000
O O15 0.791461 0.991506 0.440327
O O16 0.750000 0.250000 0.500000
#
# Coordination Sequence:
#
# PCOD9267709 Si02
#       8
#     4   8   8   8   8   8   8   8
#     4  10  20  40  64  84 120 168 200 256 316 384
#     4   9  19  40  62  87 124 162 200 258 319 369
#     4   9  19  40  62  87 124 162 200 258 319 369
#     4  10  19  40  62  88 130 162 201 261 313 367
#     4  11  21  37  60  90 126 167 213 258 304 368
#     4   9  18  39  62  80 128 166 196 260 320 354
#     4  10  19  40  62  88 130 162 201 261 313 367
#     4  11  21  37  60  90 126 167 213 258 304 368
#
# _framework density 23.987197999999999
#
# number of rings (size 3 to 8) (size 9 to 14) (size 15 to 20)
#    0.000    2.133    5.333    0.800    0.000    1.067 
#    9.600   10.667    0.000    0.000    0.000    0.000 
#    0.000    0.000    0.000    0.000    0.000    0.000 
#
# Total GULP energy -167457.847256 kJ/mol
# GULP energy per Si atom -5581.928242 kJ/mol
# Density = 2.393260 g / cm^3
# Si number density = 23.987198 Si / 1000 Ang^3
#
#
#
# Elastic Constant Matrix: (Units=GPa)
#
#
# Indices 1 2 3 4 5 6 
#
# 1 157.4181 27.7831 -6.3984 0.0000 -4.2242 0.0000
# 2 27.7831 54.3105 13.7439 0.0000 6.9811 0.0000
# 3 -6.3984 13.7439 72.1135 0.0000 -5.2213 0.0000
# 4 0.0000 0.0000 0.0000 2.9997 0.0000 3.3309
# 5 -4.2242 6.9811 -5.2213 0.0000 25.4086 0.0000
# 6 0.0000 0.0000 0.0000 3.3309 0.0000 41.2305
#
#
#
# Elastic Compliance Matrix: (Units=1/GPa)
#
#
# Indices 1 2 3 4 5 6 
#
# 1 0.007297 -0.004527 0.001714 0.000000 0.002809 0.000000
# 2 -0.004527 0.023155 -0.005410 0.000000 -0.008226 0.000000
# 3 0.001714 -0.005410 0.015408 0.000000 0.004938 0.000000
# 4 0.000000 0.000000 0.000000 0.366215 0.000000 -0.029586
# 5 0.002809 -0.008226 0.004938 0.000000 0.043099 0.000000
# 6 0.000000 0.000000 0.000000 -0.029586 0.000000 0.026644
#
#
# Mechanical properties :
#
#
# Convention : Reuss Voigt Hill
#
# Bulk Modulus (GPa) = 34.00057 39.34438 36.67247
# Shear Modulus (GPa) = 9.84118 30.50867 20.17492
#
# Velocity S-wave (km/s) = 2.02770 3.57020 2.90327
# Velocity P-wave (km/s) = 4.43704 5.78213 5.15366
#
# Compressibility (1/GPa) = 0.02941127
#
# Stress axis : x y z
#
# Youngs Moduli (GPa) = 137.05026 43.18668 64.90247
#
# Poissons Ratio (x) = 0.19552 -0.11122
# Poissons Ratio (y) = 0.62048 0.35115
# Poissons Ratio (z) = -0.23486 0.23366
#
# Static dielectric constant tensor:
#      x y z
#    x 1.909960 0.000000 -0.041160 
#    y 0.000000 2.054380 0.000000 
#    z -0.041160 0.000000 2.000500 
# 
# From -- ./inp_files/307167.got.cif
#   From: 2010.05.17/outbox.cif.g08.bks.cpg/sg15_154_cif.got.tgz:307167.got - 2010.06.03 18:47:42.
