data_PCOD9267230
_publ_section_title
;
Structure prediction by ZEFSAII (Michael W. Deem and Ramdas Pophale) SiO2 
 PCOD9267230
Probable space group: C 2/C
;
_chemical_formula_sum "Si O2"
_cell_formula_units_Z 44
_cell_length_a 5.728833
_cell_length_b 23.281037
_cell_length_c 13.697252
_cell_angle_alpha 90.000000
_cell_angle_beta 100.732949
_cell_angle_gamma 90.000000
_cell_volume 1794.886868
_symmetry_space_group_name_H-M "C 2/C"
_symmetry_group_IT_number 15
_symmetry_cell_setting 'monoclinic'
loop_
_space_group_symop_operation_xyz
x,y,z
-x,y,1/2-z
-x,-y,-z
x,-y,1/2+z
1/2+x,1/2+y,z
1/2-x,1/2+y,1/2-z
1/2-x,1/2-y,-z
1/2+x,1/2-y,1/2+z
loop_
_atom_site_type_symbol
_atom_site_label
_atom_site_fract_x
_atom_site_fract_y
_atom_site_fract_z
Si Si1 0.196078 0.936038 0.124628
Si Si2 0.909858 0.726090 0.924624
Si Si3 0.210621 0.393627 0.146375
Si Si4 0.707915 0.672472 0.405854
Si Si5 0.412770 0.436610 0.852803
Si Si6 0.500000 0.142075 0.250000
O O1 0.448847 0.917394 0.097312
O O2 0.242545 0.920207 0.243090
O O3 0.930956 0.908725 0.092104
O O4 0.153726 0.003426 0.104617
O O5 0.796173 0.675712 0.851802
O O6 0.994141 0.782904 0.877126
O O7 0.750000 0.750000 0.000000
O O8 0.137181 0.694585 0.991721
O O9 0.611264 0.607543 0.407668
O O10 0.863676 0.676731 0.321234
O O11 0.500000 0.451558 0.750000
O O12 0.179115 0.398764 0.822283
#
# Coordination Sequence:
#
# PCOD9267230 Si02
#       6
#     8   8   8   8   8   4
#     4  10  21  42  68 103 134 174 233 290 343 412
#     4  11  25  47  65  92 147 184 230 284 348 418
#     4  10  22  41  68  98 133 184 223 284 349 407
#     4  10  24  42  67  99 132 185 226 286 346 409
#     4  10  19  38  68  99 135 171 224 286 345 404
#     4  10  20  40  68 102 130 170 240 276 344 406
#
# _framework density 24.514078000000001
#
# number of rings (size 3 to 8) (size 9 to 14) (size 15 to 20)
#    0.000    1.818    1.818    2.182    7.636    0.000 
#   16.364    1.818    0.000    0.000    0.000    0.000 
#    0.000    0.000    0.000    0.000    0.000    0.000 
#
# Total GULP energy -122981.013392 kJ/mol
# GULP energy per Si atom -5590.046063 kJ/mol
# Density = 2.445828 g / cm^3
# Si number density = 24.514078 Si / 1000 Ang^3
#
#
#
# Elastic Constant Matrix: (Units=GPa)
#
#
# Indices 1 2 3 4 5 6 
#
# 1 162.8521 28.4602 12.3840 0.0000 -12.9123 0.0000
# 2 28.4602 138.3219 12.5535 0.0000 -0.0150 0.0000
# 3 12.3840 12.5535 58.4822 0.0000 7.2758 0.0000
# 4 0.0000 0.0000 0.0000 33.4027 0.0000 2.5005
# 5 -12.9123 -0.0150 7.2758 0.0000 43.3729 0.0000
# 6 0.0000 0.0000 0.0000 2.5005 0.0000 29.2306
#
#
#
# Elastic Compliance Matrix: (Units=1/GPa)
#
#
# Indices 1 2 3 4 5 6 
#
# 1 0.006640 -0.001237 -0.001416 0.000000 0.002214 0.000000
# 2 -0.001237 0.007607 -0.001354 0.000000 -0.000139 0.000000
# 3 -0.001416 -0.001354 0.018120 0.000000 -0.003462 0.000000
# 4 0.000000 0.000000 0.000000 0.030131 0.000000 -0.002578
# 5 0.002214 -0.000139 -0.003462 0.000000 0.024296 0.000000
# 6 0.000000 0.000000 0.000000 -0.002578 0.000000 0.034431
#
#
# Mechanical properties :
#
#
# Convention : Reuss Voigt Hill
#
# Bulk Modulus (GPa) = 41.06200 51.82795 46.44497
# Shear Modulus (GPa) = 36.40170 41.61848 39.01009
#
# Velocity S-wave (km/s) = 3.85766 4.12483 3.99348
# Velocity P-wave (km/s) = 6.05217 6.62372 6.34439
#
# Compressibility (1/GPa) = 0.02435342
#
# Stress axis : x y z
#
# Youngs Moduli (GPa) = 150.60232 131.45867 55.18685
#
# Poissons Ratio (x) = 0.16268 0.07814
# Poissons Ratio (y) = 0.18637 0.07470
# Poissons Ratio (z) = 0.21323 0.17794
#
# Static dielectric constant tensor:
#      x y z
#    x 1.947820 0.000000 0.102510 
#    y 0.000000 1.888810 0.000000 
#    z 0.102510 0.000000 1.957060 
# 
# From -- ./inp_files/184941.got.cif
#   From: 2010.05.17/outbox.cif.g08.bks.cpg/sg15_93_cif.got.tgz:184941.got - 2010.06.03 18:47:42.
