data_PCOD9267451
_publ_section_title
;
Structure prediction by ZEFSAII (Michael W. Deem and Ramdas Pophale) SiO2 
 PCOD9267451
Probable space group: C 2/C
;
_chemical_formula_sum "Si O2"
_cell_formula_units_Z 48
_cell_length_a 7.527061
_cell_length_b 11.308109
_cell_length_c 24.004644
_cell_angle_alpha 90.000000
_cell_angle_beta 70.844081
_cell_angle_gamma 90.000000
_cell_volume 1930.065353
_symmetry_space_group_name_H-M "C 2/C"
_symmetry_group_IT_number 15
_symmetry_cell_setting 'monoclinic'
loop_
_space_group_symop_operation_xyz
x,y,z
-x,y,1/2-z
-x,-y,-z
x,-y,1/2+z
1/2+x,1/2+y,z
1/2-x,1/2+y,1/2-z
1/2-x,1/2-y,-z
1/2+x,1/2-y,1/2+z
loop_
_atom_site_type_symbol
_atom_site_label
_atom_site_fract_x
_atom_site_fract_y
_atom_site_fract_z
Si Si1 0.592607 0.460568 0.294214
Si Si2 0.536037 0.027131 0.084608
Si Si3 0.566441 0.893259 0.299808
Si Si4 0.178576 0.004197 0.039326
Si Si5 0.939303 0.792200 0.097513
Si Si6 0.526064 0.684853 0.127865
O O1 0.500000 0.404065 0.250000
O O2 0.795842 0.482500 0.246948
O O3 0.585181 0.364768 0.343053
O O4 0.495227 0.579510 0.325058
O O5 0.547951 0.168288 0.087526
O O6 0.546135 0.976001 0.145691
O O7 0.336760 0.997649 0.073293
O O8 0.697149 0.977043 0.028012
O O9 0.500000 0.826388 0.250000
O O10 0.617542 0.786763 0.337732
O O11 0.059702 0.884266 0.048967
O O12 0.035034 0.109956 0.070038
O O13 0.727048 0.751087 0.105737
#
# Coordination Sequence:
#
# PCOD9267451 Si02
#       6
#     8   8   8   8   8   8
#     4  11  23  40  65  92 126 181 223 261 334 411
#     4  10  22  39  63  97 132 168 228 282 319 402
#     4  12  24  40  62  96 135 171 212 273 344 396
#     4   9  20  42  68  91 123 180 228 269 338 386
#     4  10  19  39  63  92 123 174 212 272 337 380
#     4  10  22  41  64  87 132 169 212 281 332 383
#
# _framework density 24.869624999999999
#
# number of rings (size 3 to 8) (size 9 to 14) (size 15 to 20)
#    0.000    1.667    1.667    4.000    2.333    1.333 
#    3.000    0.833    0.000    0.000    0.000    0.000 
#    0.000    0.000    0.000    0.000    0.000    0.000 
#
# Total GULP energy -133780.956129 kJ/mol
# GULP energy per Si atom -5574.206505 kJ/mol
# Density = 2.481302 g / cm^3
# Si number density = 24.869625 Si / 1000 Ang^3
#
#
#
# Elastic Constant Matrix: (Units=GPa)
#
#
# Indices 1 2 3 4 5 6 
#
# 1 54.8518 33.9364 40.1572 0.0000 -9.2306 0.0000
# 2 33.9364 133.3454 49.5903 0.0000 -2.0686 0.0000
# 3 40.1572 49.5903 200.8603 0.0000 -23.3991 0.0000
# 4 0.0000 0.0000 0.0000 23.4931 0.0000 -24.6626
# 5 -9.2306 -2.0686 -23.3991 0.0000 40.9286 0.0000
# 6 0.0000 0.0000 0.0000 -24.6626 0.0000 34.6084
#
#
#
# Elastic Compliance Matrix: (Units=1/GPa)
#
#
# Indices 1 2 3 4 5 6 
#
# 1 0.024199 -0.004903 -0.003236 0.000000 0.003360 0.000000
# 2 -0.004903 0.009276 -0.001483 0.000000 -0.001485 0.000000
# 3 -0.003236 -0.001483 0.006319 0.000000 0.002808 0.000000
# 4 0.000000 0.000000 0.000000 0.168973 0.000000 0.120413
# 5 0.003360 -0.001485 0.002808 0.000000 0.026721 0.000000
# 6 0.000000 0.000000 0.000000 0.120413 0.000000 0.114703
#
#
# Mechanical properties :
#
#
# Convention : Reuss Voigt Hill
#
# Bulk Modulus (GPa) = 48.66312 70.71393 59.68853
# Shear Modulus (GPa) = 13.28785 37.49760 25.39272
#
# Velocity S-wave (km/s) = 2.31400 3.88721 3.19883
# Velocity P-wave (km/s) = 5.17197 6.97444 6.13971
#
# Compressibility (1/GPa) = 0.02054944
#
# Stress axis : x y z
#
# Youngs Moduli (GPa) = 41.32408 107.81050 158.25996
#
# Poissons Ratio (x) = 0.52860 0.51215
# Poissons Ratio (y) = 0.20261 0.23466
# Poissons Ratio (z) = 0.13373 0.15986
#
# Static dielectric constant tensor:
#      x y z
#    x -0.088590 0.000000 0.353390 
#    y 0.000000 1.931840 0.000000 
#    z 0.353390 0.000000 1.862630 
# 
# From -- ./inp_files/263481.got.cif
#   From: 2010.05.17/outbox.cif.g08.bks.cpg/sg15_132_cif.got.tgz:263481.got - 2010.06.03 18:47:42.
