data_PCOD9267117
_publ_section_title
;
Structure prediction by ZEFSAII (Michael W. Deem and Ramdas Pophale) SiO2 
 PCOD9267117
Probable space group: C 2/C
;
_chemical_formula_sum "Si O2"
_cell_formula_units_Z 48
_cell_length_a 9.138201
_cell_length_b 10.794383
_cell_length_c 28.706698
_cell_angle_alpha 90.000000
_cell_angle_beta 140.289565
_cell_angle_gamma 90.000000
_cell_volume 1809.172807
_symmetry_space_group_name_H-M "C 2/C"
_symmetry_group_IT_number 15
_symmetry_cell_setting 'monoclinic'
loop_
_space_group_symop_operation_xyz
x,y,z
-x,y,1/2-z
-x,-y,-z
x,-y,1/2+z
1/2+x,1/2+y,z
1/2-x,1/2+y,1/2-z
1/2-x,1/2-y,-z
1/2+x,1/2-y,1/2+z
loop_
_atom_site_type_symbol
_atom_site_label
_atom_site_fract_x
_atom_site_fract_y
_atom_site_fract_z
Si Si1 0.067284 0.227942 0.588832
Si Si2 0.422672 0.476624 0.784113
Si Si3 0.535375 0.880213 0.210181
Si Si4 0.463895 0.891506 0.644598
Si Si5 0.765925 0.989532 0.552196
Si Si6 0.976331 0.133261 0.020499
O O1 0.337167 0.218947 0.668540
O O2 0.980888 0.345659 0.596112
O O3 0.911300 0.112779 0.570161
O O4 0.055234 0.225745 0.530348
O O5 0.500000 0.483287 0.750000
O O6 0.304082 0.609745 0.767717
O O7 0.791458 0.379554 0.769627
O O8 0.602153 0.452204 0.868165
O O9 0.500000 0.955452 0.250000
O O10 0.442750 0.960020 0.144114
O O11 0.225704 0.838465 0.604720
O O12 0.500000 0.000000 0.500000
O O13 0.802229 0.890776 0.519515
O O14 0.000000 0.000000 0.000000
#
# Coordination Sequence:
#
# PCOD9267117 Si02
#       6
#     8   8   8   8   8   8
#     4  11  21  39  68  97 127 178 236 290 355 447
#     4  10  22  39  64  95 130 181 231 284 359 425
#     4  10  19  41  67  89 134 183 229 291 368 418
#     4  10  21  37  68  97 128 171 242 291 344 436
#     4  11  23  39  68  96 138 189 232 289 371 435
#     4  10  19  38  65  93 131 182 222 287 360 430
#
# _framework density 26.531462999999999
#
# number of rings (size 3 to 8) (size 9 to 14) (size 15 to 20)
#    1.000    0.667    5.000    0.500    7.000    0.667 
#    0.000    1.667    3.667    0.000    0.000    0.000 
#    0.000    0.000    0.000    0.000    0.000    0.000 
#
# Total GULP energy -133865.832007 kJ/mol
# GULP energy per Si atom -5577.743000 kJ/mol
# Density = 2.647108 g / cm^3
# Si number density = 26.531463 Si / 1000 Ang^3
#
#
#
# Elastic Constant Matrix: (Units=GPa)
#
#
# Indices 1 2 3 4 5 6 
#
# 1 225.1898 51.3599 84.7659 0.0000 -7.6286 0.0000
# 2 51.3599 86.0620 9.7307 0.0000 -13.6185 0.0000
# 3 84.7659 9.7307 207.7096 0.0000 16.7806 0.0000
# 4 0.0000 0.0000 0.0000 15.1155 0.0000 -2.7335
# 5 -7.6286 -13.6185 16.7806 0.0000 50.6828 0.0000
# 6 0.0000 0.0000 0.0000 -2.7335 0.0000 43.7901
#
#
#
# Elastic Compliance Matrix: (Units=1/GPa)
#
#
# Indices 1 2 3 4 5 6 
#
# 1 0.006118 -0.003244 -0.002413 0.000000 0.000848 0.000000
# 2 -0.003244 0.014005 0.000414 0.000000 0.003138 0.000000
# 3 -0.002413 0.000414 0.005960 0.000000 -0.002225 0.000000
# 4 0.000000 0.000000 0.000000 0.066912 0.000000 0.004177
# 5 0.000848 0.003138 -0.002225 0.000000 0.021438 0.000000
# 6 0.000000 0.000000 0.000000 0.004177 0.000000 0.023097
#
#
# Mechanical properties :
#
#
# Convention : Reuss Voigt Hill
#
# Bulk Modulus (GPa) = 64.11602 90.07492 77.09547
# Shear Modulus (GPa) = 32.63409 46.79136 39.71272
#
# Velocity S-wave (km/s) = 3.51096 4.20410 3.87307
# Velocity P-wave (km/s) = 6.37607 7.58880 7.00872
#
# Compressibility (1/GPa) = 0.01559673
#
# Stress axis : x y z
#
# Youngs Moduli (GPa) = 163.46255 71.40283 167.79731
#
# Poissons Ratio (x) = 0.23162 0.40492
# Poissons Ratio (y) = 0.53024 -0.06950
# Poissons Ratio (z) = 0.39446 -0.02957
#
# Static dielectric constant tensor:
#      x y z
#    x 2.051170 0.000000 0.068510 
#    y 0.000000 2.338010 0.000000 
#    z 0.068510 0.000000 2.141240 
# 
# From -- ./inp_files/308131.got.cif
#   From: 2010.05.17/outbox.cif.g08.bks.cpg/sg15_155_cif.got.tgz:308131.got - 2010.06.03 18:47:42.
