data_PCOD9267065
_publ_section_title
;
Structure prediction by ZEFSAII (Michael W. Deem and Ramdas Pophale) SiO2 
 PCOD9267065
Probable space group: C 2/C
;
_chemical_formula_sum "Si O2"
_cell_formula_units_Z 40
_cell_length_a 16.146310
_cell_length_b 6.891566
_cell_length_c 15.934159
_cell_angle_alpha 90.000000
_cell_angle_beta 57.015055
_cell_angle_gamma 90.000000
_cell_volume 1487.256380
_symmetry_space_group_name_H-M "C 2/C"
_symmetry_group_IT_number 15
_symmetry_cell_setting 'monoclinic'
loop_
_space_group_symop_operation_xyz
x,y,z
-x,y,1/2-z
-x,-y,-z
x,-y,1/2+z
1/2+x,1/2+y,z
1/2-x,1/2+y,1/2-z
1/2-x,1/2-y,-z
1/2+x,1/2-y,1/2+z
loop_
_atom_site_type_symbol
_atom_site_label
_atom_site_fract_x
_atom_site_fract_y
_atom_site_fract_z
Si Si1 0.310898 0.527628 0.534203
Si Si2 0.567287 0.278437 0.144930
Si Si3 0.205696 0.319377 0.321584
Si Si4 0.605228 0.223262 0.386813
Si Si5 0.611152 0.857574 0.196393
O O1 0.344600 0.416574 0.432778
O O2 0.299728 0.352821 0.608945
O O3 0.398854 0.656108 0.525181
O O4 0.214158 0.664099 0.589970
O O5 0.500000 0.383540 0.250000
O O6 0.499219 0.216683 0.102967
O O7 0.599561 0.085151 0.175726
O O8 0.316763 0.322797 0.221758
O O9 0.158482 0.520152 0.379575
O O10 0.140990 0.296941 0.273259
O O11 0.500000 0.786344 0.250000
#
# Coordination Sequence:
#
# PCOD9267065 Si02
#       5
#     8   8   8   8   8
#     4  11  24  38  72  93 123 174 216 254 316 381
#     4  11  21  42  64  91 130 175 208 263 322 368
#     4  11  19  39  69  92 127 163 213 262 316 380
#     4  11  21  39  66  96 126 163 217 260 314 384
#     4  10  19  38  64  94 129 162 199 261 326 375
#
# _framework density 26.895160000000001
#
# number of rings (size 3 to 8) (size 9 to 14) (size 15 to 20)
#    0.000    1.200    8.000    1.200    0.000    0.800 
#    0.000    1.000    8.800    4.800    0.000    0.000 
#    0.000    0.000    0.000    0.000    0.000    0.000 
#
# Total GULP energy -111737.890197 kJ/mol
# GULP energy per Si atom -5586.894510 kJ/mol
# Density = 2.683395 g / cm^3
# Si number density = 26.895160 Si / 1000 Ang^3
#
#
#
# Elastic Constant Matrix: (Units=GPa)
#
#
# Indices 1 2 3 4 5 6 
#
# 1 170.8087 22.0526 15.6995 0.0000 -17.7684 0.0004
# 2 22.0526 113.7159 17.1886 0.0000 0.0932 0.0009
# 3 15.6995 17.1886 116.2419 0.0000 -0.4067 0.0000
# 4 0.0000 0.0000 0.0000 21.2820 0.0000 10.2413
# 5 -17.7684 0.0932 -0.4067 0.0000 13.5516 0.0000
# 6 0.0004 0.0009 0.0000 10.2413 0.0000 -0.1597
#
#
#
# Elastic Compliance Matrix: (Units=1/GPa)
#
#
# Indices 1 2 3 4 5 6 
#
# 1 0.007044 -0.001263 -0.000732 0.000000 0.009223 0.000000
# 2 -0.001263 0.009221 -0.001199 -0.000001 -0.001755 0.000001
# 3 -0.000732 -0.001199 0.008877 0.000000 -0.000686 0.000000
# 4 0.000000 -0.000001 0.000000 0.001475 0.000000 0.094579
# 5 0.009223 -0.001755 -0.000686 0.000000 0.085877 0.000001
# 6 0.000000 0.000001 0.000000 0.094579 0.000001 -0.196542
#
#
# Mechanical properties :
#
#
# Convention : Reuss Voigt Hill
#
# Bulk Modulus (GPa) = 53.32360 56.73866 55.03113
# Shear Modulus (GPa) = -70.02008 29.98984 -20.01512
#
# Velocity S-wave (km/s) = -5.10793 3.34288 -2.73094
# Velocity P-wave (km/s) = 3.86244 6.00349 3.24988
#
# Compressibility (1/GPa) = 0.01875342
#
# Stress axis : x y z
#
# Youngs Moduli (GPa) = 141.95887 108.44278 112.65595
#
# Poissons Ratio (x) = 0.13696 0.08251
# Poissons Ratio (y) = 0.17928 0.13509
# Poissons Ratio (z) = 0.10397 0.13004
#
# Static dielectric constant tensor:
#      x y z
#    x 2.167410 0.000000 -0.045100 
#    y 0.000000 2.133540 0.000000 
#    z -0.045100 0.000000 2.130650 
# 
# From -- ./inp_files/208470.got.cif
#   From: 2010.05.17/outbox.cif.g08.bks.cpg/sg15_105_cif.got.tgz:208470.got - 2010.06.03 18:47:42.
