data_PCOD9267831
_publ_section_title
;
Structure prediction by ZEFSAII (Michael W. Deem and Ramdas Pophale) SiO2 
 PCOD9267831
Probable space group: C 2/C
;
_chemical_formula_sum "Si O2"
_cell_formula_units_Z 60
_cell_length_a 8.672481
_cell_length_b 17.150616
_cell_length_c 20.069903
_cell_angle_alpha 90.000000
_cell_angle_beta 63.426463
_cell_angle_gamma 90.000000
_cell_volume 2669.815073
_symmetry_space_group_name_H-M "C 2/C"
_symmetry_group_IT_number 15
_symmetry_cell_setting 'monoclinic'
loop_
_space_group_symop_operation_xyz
x,y,z
-x,y,1/2-z
-x,-y,-z
x,-y,1/2+z
1/2+x,1/2+y,z
1/2-x,1/2+y,1/2-z
1/2-x,1/2-y,-z
1/2+x,1/2-y,1/2+z
loop_
_atom_site_type_symbol
_atom_site_label
_atom_site_fract_x
_atom_site_fract_y
_atom_site_fract_z
Si Si1 0.136304 0.950284 0.665776
Si Si2 0.923677 0.143861 0.445692
Si Si3 0.504320 0.125165 0.372413
Si Si4 0.804056 0.159193 0.989839
Si Si5 0.370773 0.187023 0.898243
Si Si6 0.081734 0.802726 0.338492
Si Si7 0.000000 0.484280 0.750000
Si Si8 0.712873 0.094604 0.795049
O O1 0.065814 0.927766 0.607183
O O2 0.305106 0.897558 0.642276
O O3 0.000000 0.931167 0.750000
O O4 0.201373 0.037150 0.668492
O O5 0.742696 0.150407 0.520174
O O6 0.934069 0.226383 0.405074
O O7 0.073801 0.142258 0.470931
O O8 0.374032 0.116205 0.459695
O O9 0.515733 0.214217 0.345255
O O10 0.451608 0.069378 0.321932
O O11 0.750000 0.250000 0.000000
O O12 0.924008 0.150103 0.902432
O O13 0.239419 0.195282 0.861619
O O14 0.536026 0.134143 0.852483
O O15 0.160129 0.840410 0.257692
O O16 0.843391 0.538181 0.755444
#
# Coordination Sequence:
#
# PCOD9267831 Si02
#       8
#     8   8   8   8   8   8   4   8
#     4  11  26  44  64  97 140 178 228 288 343 422
#     4  10  22  40  69 100 139 176 236 286 341 412
#     4  10  22  40  68  94 130 181 232 273 345 411
#     4   9  21  40  66 103 134 173 229 290 340 406
#     4  10  20  38  68 101 129 183 226 283 343 413
#     4  10  19  40  67 101 132 174 232 284 339 406
#     4  10  22  38  62  94 130 180 226 268 334 414
#     4  11  23  42  65  95 142 176 228 282 350 408
#
# _framework density 22.473468
#
# number of rings (size 3 to 8) (size 9 to 14) (size 15 to 20)
#    0.000    1.867    2.667    0.000    7.467    0.533 
#    6.000    3.333    0.000    0.000    0.000    0.000 
#    0.000    0.000    0.000    0.000    0.000    0.000 
#
# Total GULP energy -167794.361051 kJ/mol
# GULP energy per Si atom -5593.145368 kJ/mol
# Density = 2.242232 g / cm^3
# Si number density = 22.473468 Si / 1000 Ang^3
#
#
#
# Elastic Constant Matrix: (Units=GPa)
#
#
# Indices 1 2 3 4 5 6 
#
# 1 86.3256 37.0600 42.9886 0.0000 -13.8187 0.0000
# 2 37.0600 73.8908 46.3317 0.0000 -1.6885 0.0000
# 3 42.9886 46.3317 73.0490 0.0000 -28.2897 0.0000
# 4 0.0000 0.0000 0.0000 -28.3979 0.0000 29.2000
# 5 -13.8187 -1.6885 -28.2897 0.0000 43.7500 0.0000
# 6 0.0000 0.0000 0.0000 29.2000 0.0000 34.5006
#
#
#
# Elastic Compliance Matrix: (Units=1/GPa)
#
#
# Indices 1 2 3 4 5 6 
#
# 1 0.016992 -0.003912 -0.007335 0.000000 0.000473 0.000000
# 2 -0.003912 0.028337 -0.020979 0.000000 -0.013708 0.000000
# 3 -0.007335 -0.020979 0.040157 0.000000 0.022840 0.000000
# 4 0.000000 0.000000 0.000000 -0.018828 0.000000 0.015936
# 5 0.000473 -0.013708 0.022840 0.000000 0.037246 0.000000
# 6 0.000000 0.000000 0.000000 0.015936 0.000000 0.015498
#
#
# Mechanical properties :
#
#
# Convention : Reuss Voigt Hill
#
# Bulk Modulus (GPa) = 47.54291 54.00289 50.77290
# Shear Modulus (GPa) = 26.19636 17.09622 21.64629
#
# Velocity S-wave (km/s) = 3.41788 2.76112 3.10690
# Velocity P-wave (km/s) = 6.06440 5.85208 5.95918
#
# Compressibility (1/GPa) = 0.02103363
#
# Stress axis : x y z
#
# Youngs Moduli (GPa) = 58.85094 35.28975 24.90200
#
# Poissons Ratio (x) = 0.13806 0.18266
# Poissons Ratio (y) = 0.23024 0.52242
# Poissons Ratio (z) = 0.43168 0.74034
#
# Static dielectric constant tensor:
#      x y z
#    x 1.851840 0.000000 0.021540 
#    y 0.000000 1.831460 0.000000 
#    z 0.021540 0.000000 1.881030 
# 
# From -- ./inp_files/233063.got.cif
#   From: 2010.05.17/outbox.cif.g08.bks.cpg/sg15_117_cif.got.tgz:233063.got - 2010.06.03 18:47:42.
