data_PCOD9267475
_publ_section_title
;
Structure prediction by ZEFSAII (Michael W. Deem and Ramdas Pophale) SiO2 
 PCOD9267475
Probable space group: C 2/C
;
_chemical_formula_sum "Si O2"
_cell_formula_units_Z 56
_cell_length_a 23.799534
_cell_length_b 17.613082
_cell_length_c 8.741551
_cell_angle_alpha 90.000000
_cell_angle_beta 40.468762
_cell_angle_gamma 90.000000
_cell_volume 2378.260022
_symmetry_space_group_name_H-M "C 2/C"
_symmetry_group_IT_number 15
_symmetry_cell_setting 'monoclinic'
loop_
_space_group_symop_operation_xyz
x,y,z
-x,y,1/2-z
-x,-y,-z
x,-y,1/2+z
1/2+x,1/2+y,z
1/2-x,1/2+y,1/2-z
1/2-x,1/2-y,-z
1/2+x,1/2-y,1/2+z
loop_
_atom_site_type_symbol
_atom_site_label
_atom_site_fract_x
_atom_site_fract_y
_atom_site_fract_z
Si Si1 0.244854 0.156211 0.336232
Si Si2 0.214690 0.475532 0.979930
Si Si3 0.334606 0.110492 0.623688
Si Si4 0.391740 0.740796 0.097090
Si Si5 0.379611 0.557650 0.754817
Si Si6 0.836124 0.785782 0.040429
Si Si7 0.000000 0.114996 0.750000
Si Si8 0.000000 0.891381 0.750000
O O1 0.277438 0.081262 0.180741
O O2 0.180584 0.197453 0.351653
O O3 0.186607 0.129799 0.599182
O O4 0.318035 0.220060 0.203136
O O5 0.170847 0.552174 0.005865
O O6 0.311778 0.492578 0.847053
O O7 0.163037 0.437868 0.225328
O O8 0.403966 0.178461 0.488797
O O9 0.243792 0.156580 0.812115
O O10 0.354137 0.756518 0.342142
O O11 0.466697 0.677104 0.943817
O O12 0.424722 0.565455 0.827650
O O13 0.459668 0.561977 0.474037
O O14 0.919538 0.837325 0.884582
#
# Coordination Sequence:
#
# PCOD9267475 Si02
#       8
#     8   8   8   8   8   8   4   4
#     4  10  21  38  64  85 118 166 215 248 292 364
#     4  12  21  38  60  94 121 154 208 257 304 356
#     4  11  22  38  63  88 122 162 209 256 302 357
#     4  10  19  39  64  87 115 171 209 245 301 371
#     4  11  24  40  59  92 127 161 201 254 308 372
#     4  11  20  40  63  88 123 167 210 247 300 369
#     4  10  22  42  63  89 128 164 206 244 314 373
#     4  12  24  40  61  93 130 160 198 256 316 361
#
# _framework density 23.546627000000001
#
# number of rings (size 3 to 8) (size 9 to 14) (size 15 to 20)
#    0.000    1.143    7.143    0.857    0.000    0.571 
#    2.571   12.143    0.000    1.714    0.000    0.000 
#    0.000    0.000    0.000    0.000    0.000    0.000 
#
# Total GULP energy -156307.269845 kJ/mol
# GULP energy per Si atom -5582.402494 kJ/mol
# Density = 2.349303 g / cm^3
# Si number density = 23.546627 Si / 1000 Ang^3
#
#
#
# Elastic Constant Matrix: (Units=GPa)
#
#
# Indices 1 2 3 4 5 6 
#
# 1 45.3038 25.5472 4.0664 0.0000 7.4085 0.0000
# 2 25.5472 115.1328 14.2102 0.0000 10.2056 0.0000
# 3 4.0664 14.2102 80.6603 0.0000 2.1697 0.0000
# 4 0.0000 0.0000 0.0000 45.7244 0.0000 5.3130
# 5 7.4085 10.2056 2.1697 0.0000 21.5228 0.0000
# 6 0.0000 0.0000 0.0000 5.3130 0.0000 35.3472
#
#
#
# Elastic Compliance Matrix: (Units=1/GPa)
#
#
# Indices 1 2 3 4 5 6 
#
# 1 0.026078 -0.005183 -0.000227 0.000000 -0.006496 0.000000
# 2 -0.005183 0.010278 -0.001470 0.000000 -0.002941 0.000000
# 3 -0.000227 -0.001470 0.012682 0.000000 -0.000503 0.000000
# 4 0.000000 0.000000 0.000000 0.022259 0.000000 -0.003346
# 5 -0.006496 -0.002941 -0.000503 0.000000 0.050144 0.000000
# 6 0.000000 0.000000 0.000000 -0.003346 0.000000 0.028794
#
#
# Mechanical properties :
#
#
# Convention : Reuss Voigt Hill
#
# Bulk Modulus (GPa) = 28.34623 36.52717 32.43670
# Shear Modulus (GPa) = 28.44889 33.67043 31.05966
#
# Velocity S-wave (km/s) = 3.47968 3.78557 3.63584
# Velocity P-wave (km/s) = 5.31119 5.88674 5.60635
#
# Compressibility (1/GPa) = 0.03527806
#
# Stress axis : x y z
#
# Youngs Moduli (GPa) = 38.34577 97.29677 78.85395
#
# Poissons Ratio (x) = 0.50427 0.01789
# Poissons Ratio (y) = 0.19874 0.11594
# Poissons Ratio (z) = 0.00870 0.14305
#
# Static dielectric constant tensor:
#      x y z
#    x 1.941140 0.000000 0.020100 
#    y 0.000000 1.975660 0.000000 
#    z 0.020100 0.000000 1.975290 
# 
# From -- ./inp_files/70490.got.cif
#   From: 2010.05.17/outbox.cif.g08.bks.cpg/sg15_36_cif.got.tgz:70490.got - 2010.06.03 18:47:42.
