data_PCOD9267402
_publ_section_title
;
Structure prediction by ZEFSAII (Michael W. Deem and Ramdas Pophale) SiO2 
 PCOD9267402
Probable space group: C 2/C
;
_chemical_formula_sum "Si O2"
_cell_formula_units_Z 56
_cell_length_a 14.271981
_cell_length_b 14.983598
_cell_length_c 10.378799
_cell_angle_alpha 90.000000
_cell_angle_beta 73.356116
_cell_angle_gamma 90.000000
_cell_volume 2126.473084
_symmetry_space_group_name_H-M "C 2/C"
_symmetry_group_IT_number 15
_symmetry_cell_setting 'monoclinic'
loop_
_space_group_symop_operation_xyz
x,y,z
-x,y,1/2-z
-x,-y,-z
x,-y,1/2+z
1/2+x,1/2+y,z
1/2-x,1/2+y,1/2-z
1/2-x,1/2-y,-z
1/2+x,1/2-y,1/2+z
loop_
_atom_site_type_symbol
_atom_site_label
_atom_site_fract_x
_atom_site_fract_y
_atom_site_fract_z
Si Si1 0.798129 0.024383 0.256691
Si Si2 0.000000 0.549387 0.750000
Si Si3 0.857413 0.360495 0.622714
Si Si4 0.000000 0.045406 0.750000
Si Si5 0.126790 0.303261 0.353783
Si Si6 0.860133 0.535732 0.500254
Si Si7 0.976910 0.809892 0.040434
Si Si8 0.735421 0.357827 0.409818
O O1 0.911645 0.016953 0.238862
O O2 0.750040 0.989725 0.410593
O O3 0.769638 0.952544 0.160551
O O4 0.736318 0.113320 0.253858
O O5 0.941957 0.621378 0.685216
O O6 0.917336 0.490033 0.850367
O O7 0.907878 0.457445 0.577278
O O8 0.932834 0.281943 0.622985
O O9 0.808344 0.342817 0.499934
O O10 0.986934 0.115078 0.874334
O O11 0.144474 0.358248 0.478016
O O12 0.220222 0.297557 0.224040
O O13 0.062376 0.218323 0.410831
O O14 0.877198 0.841845 0.010584
#
# Coordination Sequence:
#
# PCOD9267402 Si02
#       8
#     8   4   8   4   8   8   8   8
#     4   8  19  40  62  85 118 162 203 239 302 361
#     4  12  18  31  58  85 118 142 180 262 306 323
#     4  10  19  39  62  91 113 151 212 249 287 363
#     4  10  22  45  60  81 132 170 190 254 310 353
#     4  11  19  37  53  85 115 152 193 241 298 359
#     4   9  20  32  57  88 111 142 198 240 298 347
#     4  11  23  38  59  90 122 161 203 244 307 367
#     4  10  20  39  62  82 126 161 188 256 311 343
#
# _framework density 26.334685
#
# number of rings (size 3 to 8) (size 9 to 14) (size 15 to 20)
#    0.857    1.143    2.857    0.857    0.000    0.571 
#    2.571   13.571    0.000    0.000    0.000    0.000 
#    0.000    0.000    0.000    0.000    0.000    0.000 
#
# Total GULP energy -156053.626325 kJ/mol
# GULP energy per Si atom -5573.343797 kJ/mol
# Density = 2.627475 g / cm^3
# Si number density = 26.334685 Si / 1000 Ang^3
#
#
#
# Elastic Constant Matrix: (Units=GPa)
#
#
# Indices 1 2 3 4 5 6 
#
# 1 67.9091 -7.7715 -12.0330 0.0000 1.1651 0.0000
# 2 -7.7715 84.5296 -5.3185 0.0000 6.4851 0.0000
# 3 -12.0330 -5.3185 79.6520 0.0000 2.6443 0.0000
# 4 0.0000 0.0000 0.0000 23.9992 0.0000 -3.8250
# 5 1.1651 6.4851 2.6443 0.0000 28.4657 0.0000
# 6 0.0000 0.0000 0.0000 -3.8250 0.0000 32.0406
#
#
#
# Elastic Compliance Matrix: (Units=1/GPa)
#
#
# Indices 1 2 3 4 5 6 
#
# 1 0.015376 0.001664 0.002475 0.000000 -0.001238 0.000000
# 2 0.001664 0.012285 0.001171 0.000000 -0.002976 0.000000
# 3 0.002475 0.001171 0.013059 0.000000 -0.001581 0.000000
# 4 0.000000 0.000000 0.000000 0.042476 0.000000 0.005071
# 5 -0.001238 -0.002976 -0.001581 0.000000 0.036006 0.000000
# 6 0.000000 0.000000 0.000000 0.005071 0.000000 0.031816
#
#
# Mechanical properties :
#
#
# Convention : Reuss Voigt Hill
#
# Bulk Modulus (GPa) = 19.47793 20.20494 19.84144
# Shear Modulus (GPa) = 31.74380 34.04868 32.89624
#
# Velocity S-wave (km/s) = 3.47565 3.59962 3.53818
# Velocity P-wave (km/s) = 4.84966 4.99654 4.92365
#
# Compressibility (1/GPa) = 0.05134015
#
# Stress axis : x y z
#
# Youngs Moduli (GPa) = 65.03703 81.39917 76.57448
#
# Poissons Ratio (x) = -0.13548 -0.18953
# Poissons Ratio (y) = -0.10825 -0.08963
# Poissons Ratio (z) = -0.16097 -0.09528
#
# Static dielectric constant tensor:
#      x y z
#    x 2.238910 0.000000 0.124910 
#    y 0.000000 2.224960 0.000000 
#    z 0.124910 0.000000 2.239670 
# 
# From -- ./inp_files/106367.got.cif
#   From: 2010.05.17/outbox.cif.g08.bks.cpg/sg15_54_cif.got.tgz:106367.got - 2010.06.03 18:47:42.
