data_PCOD9267564
_publ_section_title
;
Structure prediction by ZEFSAII (Michael W. Deem and Ramdas Pophale) SiO2 
 PCOD9267564
Probable space group: C 2/C
;
_chemical_formula_sum "Si O2"
_cell_formula_units_Z 48
_cell_length_a 26.965559
_cell_length_b 7.796237
_cell_length_c 15.920595
_cell_angle_alpha 90.000000
_cell_angle_beta 138.171333
_cell_angle_gamma 90.000000
_cell_volume 2232.122226
_symmetry_space_group_name_H-M "C 2/C"
_symmetry_group_IT_number 15
_symmetry_cell_setting 'monoclinic'
loop_
_space_group_symop_operation_xyz
x,y,z
-x,y,1/2-z
-x,-y,-z
x,-y,1/2+z
1/2+x,1/2+y,z
1/2-x,1/2+y,1/2-z
1/2-x,1/2-y,-z
1/2+x,1/2-y,1/2+z
loop_
_atom_site_type_symbol
_atom_site_label
_atom_site_fract_x
_atom_site_fract_y
_atom_site_fract_z
Si Si1 0.590749 0.870540 0.581518
Si Si2 0.061868 0.621487 0.391247
Si Si3 0.186103 0.017882 0.680935
Si Si4 0.461921 0.665179 0.492912
Si Si5 0.714940 0.953738 0.856090
Si Si6 0.775100 0.416078 0.453121
O O1 0.641053 0.698794 0.627608
O O2 0.509310 0.811668 0.507705
O O3 0.635170 0.971104 0.711040
O O4 0.581336 0.984930 0.487773
O O5 0.029977 0.789896 0.398197
O O6 0.140477 0.650507 0.446247
O O7 0.000000 0.555987 0.250000
O O8 0.125990 0.868966 0.623894
O O9 0.225109 0.999147 0.639817
O O10 0.248260 0.000342 0.831918
O O11 0.500000 0.500000 0.500000
O O12 0.722637 0.750996 0.886716
O O13 0.729003 0.027612 0.966922
#
# Coordination Sequence:
#
# PCOD9267564 Si02
#       6
#     8   8   8   8   8   8
#     4  10  22  40  64  93 134 171 210 262 332 383
#     4  12  23  40  63  92 131 170 213 265 319 394
#     4  10  20  41  66  93 131 166 216 276 318 379
#     4  10  22  42  65  92 124 173 213 261 328 378
#     4  10  19  39  66  93 125 164 216 266 311 388
#     4  10  21  36  65  97 119 166 217 257 326 378
#
# _framework density 21.504200000000001
#
# number of rings (size 3 to 8) (size 9 to 14) (size 15 to 20)
#    0.000    1.667    3.333    1.500    0.000    1.333 
#    3.000    2.500    0.000    0.000    0.000    0.000 
#    0.000    0.000    0.000    0.000    0.000    0.000 
#
# Total GULP energy -133769.983218 kJ/mol
# GULP energy per Si atom -5573.749301 kJ/mol
# Density = 2.145526 g / cm^3
# Si number density = 21.504200 Si / 1000 Ang^3
#
#
#
# Elastic Constant Matrix: (Units=GPa)
#
#
# Indices 1 2 3 4 5 6 
#
# 1 142.2775 29.2740 54.7506 0.0000 -11.6574 0.0000
# 2 29.2740 55.6055 30.5078 0.0000 -2.2953 0.0000
# 3 54.7506 30.5078 163.6260 0.0000 -15.5425 0.0000
# 4 0.0000 0.0000 0.0000 25.7372 0.0000 1.2192
# 5 -11.6574 -2.2953 -15.5425 0.0000 41.8868 0.0000
# 6 0.0000 0.0000 0.0000 1.2192 0.0000 30.8912
#
#
#
# Elastic Compliance Matrix: (Units=1/GPa)
#
#
# Indices 1 2 3 4 5 6 
#
# 1 0.008653 -0.003322 -0.002140 0.000000 0.001432 0.000000
# 2 -0.003322 0.021312 -0.002943 0.000000 -0.000849 0.000000
# 3 -0.002140 -0.002943 0.007571 0.000000 0.002053 0.000000
# 4 0.000000 0.000000 0.000000 0.038927 0.000000 -0.001536
# 5 0.001432 -0.000849 0.002053 0.000000 0.024988 0.000000
# 6 0.000000 0.000000 0.000000 -0.001536 0.000000 0.032432
#
#
# Mechanical properties :
#
#
# Convention : Reuss Voigt Hill
#
# Bulk Modulus (GPa) = 48.24658 65.61933 56.93296
# Shear Modulus (GPa) = 31.72558 36.16814 33.94686
#
# Velocity S-wave (km/s) = 3.84516 4.10556 3.97749
# Velocity P-wave (km/s) = 6.49602 7.28389 6.90121
#
# Compressibility (1/GPa) = 0.02072686
#
# Stress axis : x y z
#
# Youngs Moduli (GPa) = 115.56867 46.92135 132.08083
#
# Poissons Ratio (x) = 0.15588 0.28263
# Poissons Ratio (y) = 0.38395 0.38866
# Poissons Ratio (z) = 0.24730 0.13807
#
# Static dielectric constant tensor:
#      x y z
#    x 1.829250 0.000000 -0.033710 
#    y 0.000000 1.856380 0.000000 
#    z -0.033710 0.000000 1.814160 
# 
# From -- ./inp_files/176969.got.cif
#   From: 2010.05.17/outbox.cif.g08.bks.cpg/sg15_89_cif.got.tgz:176969.got - 2010.06.03 18:47:42.
