data_PCOD9267192
_publ_section_title
;
Structure prediction by ZEFSAII (Michael W. Deem and Ramdas Pophale) SiO2 
 PCOD9267192
Probable space group: C 2/C
;
_chemical_formula_sum "Si O2"
_cell_formula_units_Z 60
_cell_length_a 28.569554
_cell_length_b 8.579845
_cell_length_c 22.926897
_cell_angle_alpha 90.000000
_cell_angle_beta 150.352389
_cell_angle_gamma 90.000000
_cell_volume 2779.960851
_symmetry_space_group_name_H-M "C 2/C"
_symmetry_group_IT_number 15
_symmetry_cell_setting 'monoclinic'
loop_
_space_group_symop_operation_xyz
x,y,z
-x,y,1/2-z
-x,-y,-z
x,-y,1/2+z
1/2+x,1/2+y,z
1/2-x,1/2+y,1/2-z
1/2-x,1/2-y,-z
1/2+x,1/2-y,1/2+z
loop_
_atom_site_type_symbol
_atom_site_label
_atom_site_fract_x
_atom_site_fract_y
_atom_site_fract_z
Si Si1 0.655807 0.820393 0.200560
Si Si2 0.271459 0.191692 0.090185
Si Si3 0.653767 0.350731 0.822063
Si Si4 0.000000 0.338807 0.750000
Si Si5 0.516656 0.322913 0.038067
Si Si6 0.723791 0.819480 0.774312
Si Si7 0.473713 0.645534 0.823161
Si Si8 0.824222 0.434953 0.078280
O O1 0.665686 0.736004 0.273684
O O2 0.709926 0.725141 0.208210
O O3 0.692975 0.997928 0.241262
O O4 0.544698 0.799539 0.064934
O O5 0.233653 0.219480 0.114994
O O6 0.378736 0.250324 0.215770
O O7 0.268609 0.007709 0.073492
O O8 0.250000 0.250000 0.000000
O O9 0.566983 0.471508 0.725591
O O10 0.641609 0.232220 0.862774
O O11 0.752811 0.433377 0.946610
O O12 0.033320 0.216564 0.835488
O O13 0.913093 0.455823 0.663682
O O14 0.627039 0.279019 0.159433
O O15 0.481799 0.322439 0.066828
O O16 0.500000 0.500000 0.000000
#
# Coordination Sequence:
#
# PCOD9267192 Si02
#       8
#     8   8   8   4   8   8   8   8
#     4  12  25  44  69  98 139 179 231 279 337 410
#     4  10  19  38  67  90 133 170 212 269 334 396
#     4  11  22  42  69  95 133 180 219 277 342 400
#     4  10  24  42  64 102 132 172 226 278 334 408
#     4  11  23  45  67  96 134 173 219 285 338 396
#     4  11  26  43  67 104 131 180 233 273 340 412
#     4  10  22  39  65  93 129 170 217 269 340 393
#     4  10  22  42  66  98 132 173 220 280 341 400
#
# _framework density 21.583038999999999
#
# number of rings (size 3 to 8) (size 9 to 14) (size 15 to 20)
#    0.000    1.333    4.000    1.200    1.867    3.733 
#    2.400    1.333    0.000    0.000    0.000    0.000 
#    0.000    0.000    0.000    0.000    0.000    0.000 
#
# Total GULP energy -167178.071196 kJ/mol
# GULP energy per Si atom -5572.602373 kJ/mol
# Density = 2.153391 g / cm^3
# Si number density = 21.583039 Si / 1000 Ang^3
#
#
#
# Elastic Constant Matrix: (Units=GPa)
#
#
# Indices 1 2 3 4 5 6 
#
# 1 82.8015 27.3889 48.2306 0.0000 -22.0447 0.0000
# 2 27.3889 100.3075 26.9205 0.0000 -9.0248 0.0000
# 3 48.2306 26.9205 112.1622 0.0000 -27.0093 0.0000
# 4 0.0000 0.0000 0.0000 31.8321 0.0000 -1.3526
# 5 -22.0447 -9.0248 -27.0093 0.0000 37.5744 0.0000
# 6 0.0000 0.0000 0.0000 -1.3526 0.0000 35.3968
#
#
#
# Elastic Compliance Matrix: (Units=1/GPa)
#
#
# Indices 1 2 3 4 5 6 
#
# 1 0.017803 -0.002844 -0.005590 0.000000 0.005744 0.000000
# 2 -0.002844 0.011134 -0.001460 0.000000 -0.000044 0.000000
# 3 -0.005590 -0.001460 0.013055 0.000000 0.005754 0.000000
# 4 0.000000 0.000000 0.000000 0.031466 0.000000 0.001202
# 5 0.005744 -0.000044 0.005754 0.000000 0.034110 0.000000
# 6 0.000000 0.000000 0.000000 0.001202 0.000000 0.028297
#
#
# Mechanical properties :
#
#
# Convention : Reuss Voigt Hill
#
# Bulk Modulus (GPa) = 45.03516 55.59456 50.31486
# Shear Modulus (GPa) = 30.66481 33.80943 32.23712
#
# Velocity S-wave (km/s) = 3.77342 3.96217 3.86895
# Velocity P-wave (km/s) = 6.31634 6.83711 6.58188
#
# Compressibility (1/GPa) = 0.02220487
#
# Stress axis : x y z
#
# Youngs Moduli (GPa) = 56.17051 89.81676 76.59722
#
# Poissons Ratio (x) = 0.25545 0.42815
# Poissons Ratio (y) = 0.15976 0.11182
# Poissons Ratio (z) = 0.31397 0.13112
#
# Static dielectric constant tensor:
#      x y z
#    x 1.890150 0.000000 0.028930 
#    y 0.000000 1.850250 0.000000 
#    z 0.028930 0.000000 1.805050 
# 
# From -- ./inp_files/284320.got.cif
#   From: 2010.05.17/outbox.cif.g08.bks.cpg/sg15_143_cif.got.tgz:284320.got - 2010.06.03 18:47:42.
