data_PCOD9267234
_publ_section_title
;
Structure prediction by ZEFSAII (Michael W. Deem and Ramdas Pophale) SiO2 
 PCOD9267234
Probable space group: C 2/C
;
_chemical_formula_sum "Si O2"
_cell_formula_units_Z 52
_cell_length_a 19.062368
_cell_length_b 14.423935
_cell_length_c 14.386904
_cell_angle_alpha 90.000000
_cell_angle_beta 38.693195
_cell_angle_gamma 90.000000
_cell_volume 2472.931916
_symmetry_space_group_name_H-M "C 2/C"
_symmetry_group_IT_number 15
_symmetry_cell_setting 'monoclinic'
loop_
_space_group_symop_operation_xyz
x,y,z
-x,y,1/2-z
-x,-y,-z
x,-y,1/2+z
1/2+x,1/2+y,z
1/2-x,1/2+y,1/2-z
1/2-x,1/2-y,-z
1/2+x,1/2-y,1/2+z
loop_
_atom_site_type_symbol
_atom_site_label
_atom_site_fract_x
_atom_site_fract_y
_atom_site_fract_z
Si Si1 0.000000 0.948140 0.250000
Si Si2 0.242787 0.016112 0.974830
Si Si3 0.428893 0.115344 0.238810
Si Si4 0.467552 0.597977 0.578810
Si Si5 0.596502 0.943146 0.026279
Si Si6 0.723128 0.081745 0.767560
Si Si7 0.512329 0.209055 0.974791
O O1 0.991837 0.895452 0.356846
O O2 0.884858 0.005852 0.361760
O O3 0.246454 0.064619 0.870950
O O4 0.305107 0.916467 0.896093
O O5 0.321083 0.063263 0.971502
O O6 0.500000 0.157345 0.250000
O O7 0.437348 0.180273 0.141493
O O8 0.497445 0.018872 0.146150
O O9 0.500000 0.500000 0.500000
O O10 0.333321 0.603862 0.711833
O O11 0.516437 0.681349 0.467083
O O12 0.665788 0.989832 0.870189
O O13 0.542400 0.846255 0.053959
O O14 0.632802 0.163125 0.867315
#
# Coordination Sequence:
#
# PCOD9267234 Si02
#       7
#     4   8   8   8   8   8   8
#     4  12  26  44  66  96 140 204 224 268 354 436
#     4  11  20  38  71  97 137 179 223 277 352 407
#     4   9  18  34  65 103 129 159 215 288 341 394
#     4  12  28  47  65  93 144 190 232 283 352 418
#     4  10  19  38  69 104 131 166 227 288 349 403
#     4  11  21  43  69 100 133 177 228 290 352 404
#     4  11  23  41  69 104 134 176 237 286 346 408
#
# _framework density 21.027671000000002
#
# number of rings (size 3 to 8) (size 9 to 14) (size 15 to 20)
#    0.000    1.231    6.154    0.923    1.077    2.462 
#    0.000    3.846    0.000    0.000    0.000    0.000 
#    0.000    0.000    0.000    0.000    0.000    0.000 
#
# Total GULP energy -145300.140764 kJ/mol
# GULP energy per Si atom -5588.466952 kJ/mol
# Density = 2.097981 g / cm^3
# Si number density = 21.027671 Si / 1000 Ang^3
#
#
#
# Elastic Constant Matrix: (Units=GPa)
#
#
# Indices 1 2 3 4 5 6 
#
# 1 124.7888 26.0123 15.8150 0.0000 -6.1414 0.0000
# 2 26.0123 101.1139 12.7665 0.0000 -1.2852 0.0000
# 3 15.8150 12.7665 69.4191 0.0000 -10.1419 0.0000
# 4 0.0000 0.0000 0.0000 10.9385 0.0000 4.8083
# 5 -6.1414 -1.2852 -10.1419 0.0000 39.3058 0.0000
# 6 0.0000 0.0000 0.0000 4.8083 0.0000 10.5133
#
#
#
# Elastic Compliance Matrix: (Units=1/GPa)
#
#
# Indices 1 2 3 4 5 6 
#
# 1 0.008668 -0.002033 -0.001468 0.000000 0.000909 0.000000
# 2 -0.002033 0.010603 -0.001541 0.000000 -0.000368 0.000000
# 3 -0.001468 -0.001541 0.015569 0.000000 0.003737 0.000000
# 4 0.000000 0.000000 0.000000 0.114424 0.000000 -0.052333
# 5 0.000909 -0.000368 0.003737 0.000000 0.026536 0.000000
# 6 0.000000 0.000000 0.000000 -0.052333 0.000000 0.119052
#
#
# Mechanical properties :
#
#
# Convention : Reuss Voigt Hill
#
# Bulk Modulus (GPa) = 40.39334 44.94549 42.66941
# Shear Modulus (GPa) = 15.96489 28.20008 22.08249
#
# Velocity S-wave (km/s) = 2.75841 3.66607 3.24414
# Velocity P-wave (km/s) = 5.42184 6.27223 5.86248
#
# Compressibility (1/GPa) = 0.02475656
#
# Stress axis : x y z
#
# Youngs Moduli (GPa) = 115.36530 94.31589 64.22996
#
# Poissons Ratio (x) = 0.19175 0.09429
# Poissons Ratio (y) = 0.23454 0.09895
# Poissons Ratio (z) = 0.16936 0.14530
#
# Static dielectric constant tensor:
#      x y z
#    x 1.777350 0.000000 0.012260 
#    y 0.000000 1.747220 0.000000 
#    z 0.012260 0.000000 1.778510 
# 
# From -- ./inp_files/162490.got.cif
#   From: 2010.05.17/outbox.cif.g08.bks.cpg/sg15_82_cif.got.tgz:162490.got - 2010.06.03 18:47:42.
