data_PCOD9267146
_publ_section_title
;
Structure prediction by ZEFSAII (Michael W. Deem and Ramdas Pophale) SiO2 
 PCOD9267146
Probable space group: C 2/C
;
_chemical_formula_sum "Si O2"
_cell_formula_units_Z 56
_cell_length_a 20.526772
_cell_length_b 8.019211
_cell_length_c 19.062785
_cell_angle_alpha 90.000000
_cell_angle_beta 124.049813
_cell_angle_gamma 90.000000
_cell_volume 2599.907790
_symmetry_space_group_name_H-M "C 2/C"
_symmetry_group_IT_number 15
_symmetry_cell_setting 'monoclinic'
loop_
_space_group_symop_operation_xyz
x,y,z
-x,y,1/2-z
-x,-y,-z
x,-y,1/2+z
1/2+x,1/2+y,z
1/2-x,1/2+y,1/2-z
1/2-x,1/2-y,-z
1/2+x,1/2-y,1/2+z
loop_
_atom_site_type_symbol
_atom_site_label
_atom_site_fract_x
_atom_site_fract_y
_atom_site_fract_z
Si Si1 0.434220 0.843558 0.049086
Si Si2 0.341631 0.851390 0.425868
Si Si3 0.413915 0.463213 0.036514
Si Si4 0.590973 0.003732 0.823966
Si Si5 0.444318 0.500261 0.282320
Si Si6 0.171498 0.170035 0.887628
Si Si7 0.387527 0.845106 0.307376
O O1 0.420409 0.654297 0.015144
O O2 0.410254 0.854260 0.117298
O O3 0.526670 0.889381 0.107987
O O4 0.386929 0.983858 0.979135
O O5 0.391872 0.682203 0.469484
O O6 0.261028 0.832658 0.419624
O O7 0.327325 0.864118 0.334075
O O8 0.496818 0.424571 0.124847
O O9 0.349634 0.449803 0.060366
O O10 0.500000 0.962661 0.750000
O O11 0.629161 0.052950 0.773176
O O12 0.636888 0.850491 0.885503
O O13 0.500000 0.552561 0.250000
O O14 0.380975 0.379482 0.210929
O O15 0.400938 0.657550 0.288919
#
# Coordination Sequence:
#
# PCOD9267146 Si02
#       7
#     8   8   8   8   8   8   8
#     4  10  22  41  67  89 116 163 212 252 304 362
#     4  12  25  40  58  95 135 155 200 259 317 366
#     4  10  21  41  65  90 116 164 210 252 305 361
#     4  10  19  38  66  89 116 160 214 256 294 369
#     4   9  19  39  65  88 113 162 219 254 293 367
#     4  11  22  38  63  93 123 161 205 253 310 364
#     4  10  22  40  62  91 122 159 208 256 305 364
#
# _framework density 21.539224999999998
#
# number of rings (size 3 to 8) (size 9 to 14) (size 15 to 20)
#    0.000    1.714    1.429    5.143    2.000    4.000 
#    5.143    0.000    0.000    0.000    0.000    0.000 
#    0.000    0.000    0.000    0.000    0.000    0.000 
#
# Total GULP energy -156450.057738 kJ/mol
# GULP energy per Si atom -5587.502062 kJ/mol
# Density = 2.149020 g / cm^3
# Si number density = 21.539225 Si / 1000 Ang^3
#
#
#
# Elastic Constant Matrix: (Units=GPa)
#
#
# Indices 1 2 3 4 5 6 
#
# 1 28.7129 10.9737 14.1643 0.0000 -9.9764 0.0000
# 2 10.9737 77.5950 31.0988 0.0000 11.1005 0.0000
# 3 14.1643 31.0988 55.2614 0.0000 -10.6926 0.0000
# 4 0.0000 0.0000 0.0000 -0.7363 0.0000 -7.8980
# 5 -9.9764 11.1005 -10.6926 0.0000 21.3482 0.0000
# 6 0.0000 0.0000 0.0000 -7.8980 0.0000 11.6964
#
#
#
# Elastic Compliance Matrix: (Units=1/GPa)
#
#
# Indices 1 2 3 4 5 6 
#
# 1 0.049050 -0.010300 -0.001445 0.000000 0.027554 0.000000
# 2 -0.010300 0.024437 -0.016058 0.000000 -0.025563 0.000000
# 3 -0.001445 -0.016058 0.032099 0.000000 0.023752 0.000000
# 4 0.000000 0.000000 0.000000 -0.164759 0.000000 -0.111254
# 5 0.027554 -0.025563 0.023752 0.000000 0.084908 0.000000
# 6 0.000000 0.000000 0.000000 -0.111254 0.000000 0.010372
#
#
# Mechanical properties :
#
#
# Convention : Reuss Voigt Hill
#
# Bulk Modulus (GPa) = 20.00762 30.44920 25.22841
# Shear Modulus (GPa) = 46.13762 13.48384 29.81073
#
# Velocity S-wave (km/s) = 4.63323 2.50474 3.72428
# Velocity P-wave (km/s) = 6.15885 4.74682 5.49835
#
# Compressibility (1/GPa) = 0.04998095
#
# Stress axis : x y z
#
# Youngs Moduli (GPa) = 20.38723 40.92182 31.15377
#
# Poissons Ratio (x) = 0.42148 0.04501
# Poissons Ratio (y) = 0.20998 0.50028
# Poissons Ratio (z) = 0.02945 0.65713
#
# Static dielectric constant tensor:
#      x y z
#    x 1.787060 0.000000 -0.015990 
#    y 0.000000 1.777210 0.000000 
#    z -0.015990 0.000000 1.783430 
# 
# From -- ./inp_files/214007.got.cif
#   From: 2010.05.17/outbox.cif.g08.bks.cpg/sg15_108_cif.got.tgz:214007.got - 2010.06.03 18:47:42.
