data_PCOD9267629
_publ_section_title
;
Structure prediction by ZEFSAII (Michael W. Deem and Ramdas Pophale) SiO2 
 PCOD9267629
Probable space group: C 2/C
;
_chemical_formula_sum "Si O2"
_cell_formula_units_Z 56
_cell_length_a 8.631090
_cell_length_b 29.574103
_cell_length_c 13.692959
_cell_angle_alpha 90.000000
_cell_angle_beta 137.833254
_cell_angle_gamma 90.000000
_cell_volume 2346.308142
_symmetry_space_group_name_H-M "C 2/C"
_symmetry_group_IT_number 15
_symmetry_cell_setting 'monoclinic'
loop_
_space_group_symop_operation_xyz
x,y,z
-x,y,1/2-z
-x,-y,-z
x,-y,1/2+z
1/2+x,1/2+y,z
1/2-x,1/2+y,1/2-z
1/2-x,1/2-y,-z
1/2+x,1/2-y,1/2+z
loop_
_atom_site_type_symbol
_atom_site_label
_atom_site_fract_x
_atom_site_fract_y
_atom_site_fract_z
Si Si1 0.973213 0.552786 0.509814
Si Si2 0.990965 0.767452 0.852773
Si Si3 0.134861 0.152843 0.065592
Si Si4 0.165687 0.668171 0.738973
Si Si5 0.242182 0.629872 0.576607
Si Si6 0.779864 0.480849 0.203220
Si Si7 0.007503 0.064057 0.398496
O O1 0.127337 0.581019 0.507406
O O2 0.118867 0.556727 0.678279
O O3 0.000000 0.500000 0.500000
O O4 0.715776 0.568877 0.417914
O O5 0.000000 0.789604 0.750000
O O6 0.835711 0.722643 0.769575
O O7 0.250000 0.750000 0.000000
O O8 0.888739 0.801985 0.882895
O O9 0.903372 0.150149 0.892245
O O10 0.127101 0.109385 0.133465
O O11 0.301942 0.153361 0.049307
O O12 0.101690 0.652153 0.600722
O O13 0.000000 0.655832 0.750000
O O14 0.500000 0.627994 0.750000
O O15 0.622614 0.455513 0.051715
O O16 0.000000 0.501229 0.250000
O O17 0.654738 0.521375 0.201470
#
# Coordination Sequence:
#
# PCOD9267629 Si02
#       7
#     8   8   8   8   8   8   8
#     4  11  24  37  61  92 131 177 227 278 338 415
#     4  11  22  42  72 100 133 175 227 285 352 435
#     4  11  22  40  67  98 132 176 222 291 348 415
#     4  10  19  39  69  96 129 167 228 277 343 417
#     4  10  23  37  64 100 135 170 231 289 340 410
#     4   9  20  39  63  91 126 178 228 284 337 405
#     4  10  22  40  67  89 129 180 229 279 345 403
#
# _framework density 23.867283
#
# number of rings (size 3 to 8) (size 9 to 14) (size 15 to 20)
#    0.000    1.714    2.857    2.571    8.000    1.714 
#    2.571    0.000    0.000    0.000    0.000    0.000 
#    0.000    0.000    0.000    0.000    0.000    0.000 
#
# Total GULP energy -156227.812397 kJ/mol
# GULP energy per Si atom -5579.564728 kJ/mol
# Density = 2.381296 g / cm^3
# Si number density = 23.867283 Si / 1000 Ang^3
#
#
#
# Elastic Constant Matrix: (Units=GPa)
#
#
# Indices 1 2 3 4 5 6 
#
# 1 86.2249 20.5116 15.1732 0.0000 -37.7422 0.0000
# 2 20.5116 65.6143 6.5053 0.0000 -17.1835 0.0000
# 3 15.1732 6.5053 61.6357 0.0000 -12.4235 0.0000
# 4 0.0000 0.0000 0.0000 22.9916 0.0000 -10.0637
# 5 -37.7422 -17.1835 -12.4235 0.0000 34.6340 0.0000
# 6 0.0000 0.0000 0.0000 -10.0637 0.0000 33.8154
#
#
#
# Elastic Compliance Matrix: (Units=1/GPa)
#
#
# Indices 1 2 3 4 5 6 
#
# 1 0.022225 -0.000692 -0.000631 0.000000 0.023650 0.000000
# 2 -0.000692 0.017539 -0.000085 0.000000 0.007918 0.000000
# 3 -0.000631 -0.000085 0.017507 0.000000 0.005550 0.000000
# 4 0.000000 0.000000 0.000000 0.050009 0.000000 0.014883
# 5 0.023650 0.007918 0.005550 0.000000 0.060565 0.000000
# 6 0.000000 0.000000 0.000000 0.014883 0.000000 0.034002
#
#
# Mechanical properties :
#
#
# Convention : Reuss Voigt Hill
#
# Bulk Modulus (GPa) = 18.36343 33.09500 25.72922
# Shear Modulus (GPa) = 22.44016 29.70718 26.07367
#
# Velocity S-wave (km/s) = 3.06960 3.53183 3.30880
# Velocity P-wave (km/s) = 4.50266 5.52523 5.03995
#
# Compressibility (1/GPa) = 0.05445605
#
# Stress axis : x y z
#
# Youngs Moduli (GPa) = 44.99348 57.01666 57.11865
#
# Poissons Ratio (x) = 0.03943 0.03606
# Poissons Ratio (y) = 0.03111 0.00485
# Poissons Ratio (z) = 0.02840 0.00484
#
# Static dielectric constant tensor:
#      x y z
#    x 2.836760 0.000000 -0.019290 
#    y 0.000000 1.820520 0.000000 
#    z -0.019290 0.000000 1.992090 
# 
# From -- ./inp_files/139557.got.cif
#   From: 2010.05.17/outbox.cif.g08.bks.cpg/sg15_70_cif.got.tgz:139557.got - 2010.06.03 18:47:42.
