data_PCOD9267507
_publ_section_title
;
Structure prediction by ZEFSAII (Michael W. Deem and Ramdas Pophale) SiO2 
 PCOD9267507
Probable space group: C 2/C
;
_chemical_formula_sum "Si O2"
_cell_formula_units_Z 48
_cell_length_a 7.819606
_cell_length_b 21.500425
_cell_length_c 19.624039
_cell_angle_alpha 90.000000
_cell_angle_beta 44.124330
_cell_angle_gamma 90.000000
_cell_volume 2297.023089
_symmetry_space_group_name_H-M "C 2/C"
_symmetry_group_IT_number 15
_symmetry_cell_setting 'monoclinic'
loop_
_space_group_symop_operation_xyz
x,y,z
-x,y,1/2-z
-x,-y,-z
x,-y,1/2+z
1/2+x,1/2+y,z
1/2-x,1/2+y,1/2-z
1/2-x,1/2-y,-z
1/2+x,1/2-y,1/2+z
loop_
_atom_site_type_symbol
_atom_site_label
_atom_site_fract_x
_atom_site_fract_y
_atom_site_fract_z
Si Si1 0.363869 0.195319 0.354989
Si Si2 0.755497 0.664997 0.134913
Si Si3 0.566911 0.659752 0.638193
Si Si4 0.529809 0.068485 0.519848
Si Si5 0.051250 0.606841 0.814403
Si Si6 0.358923 0.701710 0.551650
O O1 0.500000 0.170879 0.250000
O O2 0.519317 0.169182 0.374744
O O3 0.379234 0.270802 0.350850
O O4 0.072481 0.183492 0.438416
O O5 0.500000 0.670855 0.250000
O O6 0.807508 0.725485 0.073381
O O7 0.765875 0.604961 0.083104
O O8 0.795328 0.613551 0.574828
O O9 0.335061 0.625162 0.737888
O O10 0.477233 0.676061 0.587718
O O11 0.544474 0.062710 0.597957
O O12 0.500000 0.000000 0.500000
O O13 0.000000 0.589065 0.750000
O O14 0.901291 0.668907 0.876478
#
# Coordination Sequence:
#
# PCOD9267507 Si02
#       6
#     8   8   8   8   8   8
#     4  11  20  34  63  97 127 163 199 255 325 371
#     4  11  23  39  59  94 130 162 206 260 314 369
#     4  10  19  41  63  88 125 164 207 250 309 377
#     4  12  25  42  64  88 123 173 212 249 303 369
#     4  10  23  40  67  94 121 159 210 260 308 376
#     4  10  19  39  64  94 125 157 202 260 326 369
#
# _framework density 20.896611
#
# number of rings (size 3 to 8) (size 9 to 14) (size 15 to 20)
#    0.000    1.333    3.333    5.000    2.333    2.000 
#    0.000    4.167    0.000    0.000    0.000    0.000 
#    0.000    0.000    0.000    0.000    0.000    0.000 
#
# Total GULP energy -133940.111921 kJ/mol
# GULP energy per Si atom -5580.837997 kJ/mol
# Density = 2.084905 g / cm^3
# Si number density = 20.896611 Si / 1000 Ang^3
#
#
#
# Elastic Constant Matrix: (Units=GPa)
#
#
# Indices 1 2 3 4 5 6 
#
# 1 71.5485 17.5505 25.4535 0.0000 4.4080 0.0000
# 2 17.5505 69.4338 25.0962 0.0000 27.8352 0.0000
# 3 25.4535 25.0962 148.1229 0.0000 0.8770 0.0000
# 4 0.0000 0.0000 0.0000 -4.9605 0.0000 -9.5728
# 5 4.4080 27.8352 0.8770 0.0000 40.2357 0.0000
# 6 0.0000 0.0000 0.0000 -9.5728 0.0000 6.9714
#
#
#
# Elastic Compliance Matrix: (Units=1/GPa)
#
#
# Indices 1 2 3 4 5 6 
#
# 1 0.015523 -0.003469 -0.002084 0.000000 0.000745 0.000000
# 2 -0.003469 0.022454 -0.003119 0.000000 -0.015086 0.000000
# 3 -0.002084 -0.003119 0.007625 0.000000 0.002220 0.000000
# 4 0.000000 0.000000 0.000000 -0.055232 0.000000 -0.075842
# 5 0.000745 -0.015086 0.002220 0.000000 0.035160 0.000000
# 6 0.000000 0.000000 0.000000 -0.075842 0.000000 0.039300
#
#
# Mechanical properties :
#
#
# Convention : Reuss Voigt Hill
#
# Bulk Modulus (GPa) = 35.38861 47.25620 41.32240
# Shear Modulus (GPa) = 54.58912 23.18297 38.88604
#
# Velocity S-wave (km/s) = 5.11665 3.33440 4.31847
# Velocity P-wave (km/s) = 7.20269 6.12272 6.68455
#
# Compressibility (1/GPa) = 0.02825768
#
# Stress axis : x y z
#
# Youngs Moduli (GPa) = 64.42054 44.53536 131.15464
#
# Poissons Ratio (x) = 0.15449 0.27335
# Poissons Ratio (y) = 0.22347 0.40906
# Poissons Ratio (z) = 0.13426 0.13890
#
# Static dielectric constant tensor:
#      x y z
#    x 1.835200 0.000000 0.061630 
#    y 0.000000 1.687990 0.000000 
#    z 0.061630 0.000000 1.824950 
# 
# From -- ./inp_files/136177.got.cif
#   From: 2010.05.17/outbox.cif.g08.bks.cpg/sg15_69_cif.got.tgz:136177.got - 2010.06.03 18:47:42.
