data_PCOD9267266
_publ_section_title
;
Structure prediction by ZEFSAII (Michael W. Deem and Ramdas Pophale) SiO2 
 PCOD9267266
Probable space group: C 2/C
;
_chemical_formula_sum "Si O2"
_cell_formula_units_Z 56
_cell_length_a 13.692956
_cell_length_b 20.643243
_cell_length_c 7.796880
_cell_angle_alpha 90.000000
_cell_angle_beta 75.909159
_cell_angle_gamma 90.000000
_cell_volume 2137.606927
_symmetry_space_group_name_H-M "C 2/C"
_symmetry_group_IT_number 15
_symmetry_cell_setting 'monoclinic'
loop_
_space_group_symop_operation_xyz
x,y,z
-x,y,1/2-z
-x,-y,-z
x,-y,1/2+z
1/2+x,1/2+y,z
1/2-x,1/2+y,1/2-z
1/2-x,1/2-y,-z
1/2+x,1/2-y,1/2+z
loop_
_atom_site_type_symbol
_atom_site_label
_atom_site_fract_x
_atom_site_fract_y
_atom_site_fract_z
Si Si1 0.175785 0.157221 0.490870
Si Si2 0.083540 0.024209 0.599629
Si Si3 0.618812 0.620846 0.157496
Si Si4 0.500000 0.267260 0.250000
Si Si5 0.000000 0.459062 0.750000
Si Si6 0.745723 0.162760 0.691797
Si Si7 0.438684 0.799656 0.435307
Si Si8 0.915211 0.577986 0.596247
O O1 0.180377 0.157428 0.282612
O O2 0.248182 0.185423 0.611331
O O3 0.162421 0.079679 0.525286
O O4 0.074588 0.192104 0.598258
O O5 0.000000 0.059676 0.750000
O O6 0.133693 0.042168 0.146739
O O7 0.000000 0.000000 0.500000
O O8 0.500000 0.626669 0.250000
O O9 0.653529 0.647228 0.956837
O O10 0.557135 0.226059 0.372866
O O11 0.085604 0.421681 0.609039
O O12 0.940699 0.507155 0.651274
O O13 0.672441 0.199608 0.594179
O O14 0.681409 0.098145 0.755887
O O15 0.500000 0.766620 0.250000
O O16 0.493529 0.870118 0.420033
#
# Coordination Sequence:
#
# PCOD9267266 Si02
#       8
#     8   8   8   4   4   8   8   8
#     4  12  25  42  67 108 140 190 257 304 360 449
#     4  11  19  40  66  93 144 195 233 281 360 436
#     4  11  24  42  70 103 153 204 236 297 370 448
#     4  12  27  46  80 100 136 201 270 318 378 448
#     4  10  19  38  76 104 142 183 240 292 360 454
#     4  11  25  45  69 108 152 185 246 310 372 456
#     4  10  24  51  72  98 141 194 246 318 394 444
#     4  10  21  44  69 104 144 188 233 298 377 452
#
# _framework density 26.197520000000001
#
# number of rings (size 3 to 8) (size 9 to 14) (size 15 to 20)
#    0.000    1.143    5.714    2.143    0.000    6.857 
#    0.000    5.000    0.000    0.000    0.000    0.000 
#    0.000    0.000    0.000    0.000    0.000    0.000 
#
# Total GULP energy -156020.753710 kJ/mol
# GULP energy per Si atom -5572.169775 kJ/mol
# Density = 2.613789 g / cm^3
# Si number density = 26.197520 Si / 1000 Ang^3
#
#
#
# Elastic Constant Matrix: (Units=GPa)
#
#
# Indices 1 2 3 4 5 6 
#
# 1 87.8049 16.2667 41.0437 0.0000 19.9107 0.0000
# 2 16.2667 72.3255 39.2114 0.0000 12.5198 0.0000
# 3 41.0437 39.2114 178.9017 0.0000 14.3770 0.0000
# 4 0.0000 0.0000 0.0000 35.3919 0.0000 12.4284
# 5 19.9107 12.5198 14.3770 0.0000 59.2288 0.0000
# 6 0.0000 0.0000 0.0000 12.4284 0.0000 21.8139
#
#
#
# Elastic Compliance Matrix: (Units=1/GPa)
#
#
# Indices 1 2 3 4 5 6 
#
# 1 0.013643 -0.001007 -0.002609 0.000000 -0.003740 0.000000
# 2 -0.001007 0.016146 -0.003122 0.000000 -0.002317 0.000000
# 3 -0.002609 -0.003122 0.006883 0.000000 -0.000134 0.000000
# 4 0.000000 0.000000 0.000000 0.035322 0.000000 -0.020125
# 5 -0.003740 -0.002317 -0.000134 0.000000 0.018663 0.000000
# 6 0.000000 0.000000 0.000000 -0.020125 0.000000 0.057308
#
#
# Mechanical properties :
#
#
# Convention : Reuss Voigt Hill
#
# Bulk Modulus (GPa) = 43.10704 59.11952 51.11328
# Shear Modulus (GPa) = 29.55556 39.45429 34.50493
#
# Velocity S-wave (km/s) = 3.36249 3.88497 3.63313
# Velocity P-wave (km/s) = 5.61831 6.53757 6.09530
#
# Compressibility (1/GPa) = 0.02319807
#
# Stress axis : x y z
#
# Youngs Moduli (GPa) = 73.29790 61.93355 145.28214
#
# Poissons Ratio (x) = 0.06234 0.37901
# Poissons Ratio (y) = 0.07378 0.45354
# Poissons Ratio (z) = 0.19122 0.19334
#
# Static dielectric constant tensor:
#      x y z
#    x 2.146910 0.000000 0.096150 
#    y 0.000000 2.104390 0.000000 
#    z 0.096150 0.000000 2.127310 
# 
# From -- ./inp_files/42153.got.cif
#   From: 2010.05.17/outbox.cif.g08.bks.cpg/sg15_22_cif.got.tgz:42153.got - 2010.06.03 18:47:42.
