data_PCOD9267110
_publ_section_title
;
Structure prediction by ZEFSAII (Michael W. Deem and Ramdas Pophale) SiO2 
 PCOD9267110
Probable space group: C 2/C
;
_chemical_formula_sum "Si O2"
_cell_formula_units_Z 48
_cell_length_a 8.546088
_cell_length_b 21.274892
_cell_length_c 13.634342
_cell_angle_alpha 90.000000
_cell_angle_beta 83.937557
_cell_angle_gamma 90.000000
_cell_volume 2465.092665
_symmetry_space_group_name_H-M "C 2/C"
_symmetry_group_IT_number 15
_symmetry_cell_setting 'monoclinic'
loop_
_space_group_symop_operation_xyz
x,y,z
-x,y,1/2-z
-x,-y,-z
x,-y,1/2+z
1/2+x,1/2+y,z
1/2-x,1/2+y,1/2-z
1/2-x,1/2-y,-z
1/2+x,1/2-y,1/2+z
loop_
_atom_site_type_symbol
_atom_site_label
_atom_site_fract_x
_atom_site_fract_y
_atom_site_fract_z
Si Si1 0.170930 0.537163 0.260841
Si Si2 0.000000 0.835362 0.750000
Si Si3 0.500000 0.461338 0.250000
Si Si4 0.021409 0.128658 0.932297
Si Si5 0.231122 0.153645 0.386055
Si Si6 0.752315 0.879207 0.915057
Si Si7 0.975596 0.728248 0.134142
O O1 0.333550 0.498173 0.248592
O O2 0.197629 0.595913 0.183021
O O3 0.153065 0.566101 0.371758
O O4 0.000000 0.506957 0.250000
O O5 0.872511 0.805082 0.685793
O O6 0.903721 0.876610 0.833372
O O7 0.512846 0.418452 0.152771
O O8 0.040328 0.199393 0.891417
O O9 0.180365 0.111876 0.981744
O O10 0.879408 0.129440 0.019990
O O11 0.367689 0.196729 0.419286
O O12 0.665814 0.813261 0.900479
O O13 0.000000 0.720673 0.250000
#
# Coordination Sequence:
#
# PCOD9267110 Si02
#       7
#     8   4   4   8   8   8   8
#     4  11  21  43  71  93 123 166 226 262 294 378
#     4   8  15  28  56  90 112 144 203 244 300 358
#     4  12  27  44  60  92 136 178 201 260 336 356
#     4  11  25  40  60  92 137 162 198 257 330 394
#     4  10  19  38  65  93 117 160 212 262 305 371
#     4  10  19  38  65  93 117 160 212 262 305 371
#     4  12  19  38  68  94 125 159 201 266 321 378
#
# _framework density 19.471883999999999
#
# number of rings (size 3 to 8) (size 9 to 14) (size 15 to 20)
#    0.000    1.333    5.833    4.000    0.000    2.667 
#    3.000    1.667    3.667    0.000    0.000    0.000 
#    0.000    0.000    0.000    0.000    0.000    0.000 
#
# Total GULP energy -133661.748037 kJ/mol
# GULP energy per Si atom -5569.239502 kJ/mol
# Density = 1.942757 g / cm^3
# Si number density = 19.471884 Si / 1000 Ang^3
#
#
#
# Elastic Constant Matrix: (Units=GPa)
#
#
# Indices 1 2 3 4 5 6 
#
# 1 123.8606 46.1152 37.4115 0.0000 17.7360 0.0000
# 2 46.1152 75.3926 29.6963 0.0000 9.3084 0.0000
# 3 37.4115 29.6963 83.1424 0.0000 14.6483 0.0000
# 4 0.0000 0.0000 0.0000 26.9448 0.0000 -1.3490
# 5 17.7360 9.3084 14.6483 0.0000 23.4263 0.0000
# 6 0.0000 0.0000 0.0000 -1.3490 0.0000 23.8714
#
#
#
# Elastic Compliance Matrix: (Units=1/GPa)
#
#
# Indices 1 2 3 4 5 6 
#
# 1 0.011566 -0.005526 -0.002331 0.000000 -0.005103 0.000000
# 2 -0.005526 0.018268 -0.003929 0.000000 -0.000618 0.000000
# 3 -0.002331 -0.003929 0.015614 0.000000 -0.006437 0.000000
# 4 0.000000 0.000000 0.000000 0.037218 0.000000 0.002103
# 5 -0.005103 -0.000618 -0.006437 0.000000 0.050821 0.000000
# 6 0.000000 0.000000 0.000000 0.002103 0.000000 0.042010
#
#
# Mechanical properties :
#
#
# Convention : Reuss Voigt Hill
#
# Bulk Modulus (GPa) = 45.71600 56.53796 51.12698
# Shear Modulus (GPa) = 24.22916 26.12668 25.17792
#
# Velocity S-wave (km/s) = 3.53131 3.66698 3.59979
# Velocity P-wave (km/s) = 6.33686 6.85768 6.60241
#
# Compressibility (1/GPa) = 0.02187418
#
# Stress axis : x y z
#
# Youngs Moduli (GPa) = 86.46047 54.74020 64.04423
#
# Poissons Ratio (x) = 0.30250 0.14932
# Poissons Ratio (y) = 0.47779 0.25166
# Poissons Ratio (z) = 0.20158 0.21510
#
# Static dielectric constant tensor:
#      x y z
#    x 1.769960 0.000000 0.022400 
#    y 0.000000 1.676400 0.000000 
#    z 0.022400 0.000000 1.691890 
# 
# From -- ./inp_files/134895.got.cif
#   From: 2010.05.17/outbox.cif.g08.bks.cpg/sg15_68_cif.got.tgz:134895.got - 2010.06.03 18:47:42.
