data_PCOD9267647
_publ_section_title
;
Structure prediction by ZEFSAII (Michael W. Deem and Ramdas Pophale) SiO2 
 PCOD9267647
Probable space group: C 2/C
;
_chemical_formula_sum "Si O2"
_cell_formula_units_Z 56
_cell_length_a 13.251947
_cell_length_b 14.806909
_cell_length_c 15.225074
_cell_angle_alpha 90.000000
_cell_angle_beta 55.293178
_cell_angle_gamma 90.000000
_cell_volume 2455.927901
_symmetry_space_group_name_H-M "C 2/C"
_symmetry_group_IT_number 15
_symmetry_cell_setting 'monoclinic'
loop_
_space_group_symop_operation_xyz
x,y,z
-x,y,1/2-z
-x,-y,-z
x,-y,1/2+z
1/2+x,1/2+y,z
1/2-x,1/2+y,1/2-z
1/2-x,1/2-y,-z
1/2+x,1/2-y,1/2+z
loop_
_atom_site_type_symbol
_atom_site_label
_atom_site_fract_x
_atom_site_fract_y
_atom_site_fract_z
Si Si1 0.926527 0.500458 0.127928
Si Si2 0.197944 0.148594 0.022762
Si Si3 0.748253 0.371491 0.163526
Si Si4 0.778766 0.148874 0.295377
Si Si5 0.821207 0.464861 0.946597
Si Si6 0.669213 0.678026 0.417045
Si Si7 0.406604 0.678886 0.608294
O O1 0.867374 0.400518 0.164333
O O2 0.809599 0.564635 0.180146
O O3 0.032095 0.542614 0.135954
O O4 0.000000 0.500000 0.000000
O O5 0.154292 0.136218 0.144856
O O6 0.250000 0.250000 0.000000
O O7 0.117388 0.135935 0.975586
O O8 0.300397 0.072105 0.957297
O O9 0.753067 0.269718 0.125577
O O10 0.634979 0.378961 0.286639
O O11 0.765276 0.429781 0.067190
O O12 0.863472 0.162297 0.169086
O O13 0.682625 0.233443 0.346642
O O14 0.746865 0.406637 0.912984
O O15 0.550891 0.697315 0.535386
#
# Coordination Sequence:
#
# PCOD9267647 Si02
#       7
#     8   8   8   8   8   8   8
#     4  10  19  39  71  90 124 172 218 269 324 391
#     4  10  22  40  65  93 127 172 227 268 323 391
#     4  10  22  42  69  96 133 174 218 269 345 391
#     4  10  21  43  65  94 130 172 220 270 336 390
#     4  11  23  40  67 100 130 168 224 274 329 400
#     4  11  25  41  66 102 133 172 216 278 336 400
#     4  10  23  42  64  93 137 171 220 275 324 407
#
# _framework density 22.801973
#
# number of rings (size 3 to 8) (size 9 to 14) (size 15 to 20)
#    0.000    1.714    2.857    2.143    4.000    2.286 
#    0.000    4.286    0.000    0.000    0.000    0.000 
#    0.000    0.000    0.000    0.000    0.000    0.000 
#
# Total GULP energy -156028.983407 kJ/mol
# GULP energy per Si atom -5572.463693 kJ/mol
# Density = 2.275007 g / cm^3
# Si number density = 22.801973 Si / 1000 Ang^3
#
#
#
# Elastic Constant Matrix: (Units=GPa)
#
#
# Indices 1 2 3 4 5 6 
#
# 1 45.5280 6.9470 41.4929 0.0000 15.7442 0.0000
# 2 6.9470 82.1075 21.2054 0.0000 8.8084 0.0000
# 3 41.4929 21.2054 142.1146 0.0000 2.3283 0.0000
# 4 0.0000 0.0000 0.0000 13.4332 0.0000 4.8480
# 5 15.7442 8.8084 2.3283 0.0000 31.3064 0.0000
# 6 0.0000 0.0000 0.0000 4.8480 0.0000 19.7362
#
#
#
# Elastic Compliance Matrix: (Units=1/GPa)
#
#
# Indices 1 2 3 4 5 6 
#
# 1 0.038444 0.001665 -0.011162 0.000000 -0.018972 0.000000
# 2 0.001665 0.013118 -0.002372 0.000000 -0.004352 0.000000
# 3 -0.011162 -0.002372 0.010559 0.000000 0.005496 0.000000
# 4 0.000000 0.000000 0.000000 0.081684 0.000000 -0.020065
# 5 -0.018972 -0.004352 0.005496 0.000000 0.042299 0.000000
# 6 0.000000 0.000000 0.000000 -0.020065 0.000000 0.055597
#
#
# Mechanical properties :
#
#
# Convention : Reuss Voigt Hill
#
# Bulk Modulus (GPa) = 26.05297 45.44897 35.75097
# Shear Modulus (GPa) = 17.97046 26.23546 22.10296
#
# Velocity S-wave (km/s) = 2.81038 3.39570 3.11681
# Velocity P-wave (km/s) = 4.68844 5.94556 5.35402
#
# Compressibility (1/GPa) = 0.03838334
#
# Stress axis : x y z
#
# Youngs Moduli (GPa) = 26.01184 76.23229 94.70155
#
# Poissons Ratio (x) = -0.12696 1.05707
# Poissons Ratio (y) = -0.04332 0.22466
# Poissons Ratio (z) = 0.29035 0.18085
#
# Static dielectric constant tensor:
#      x y z
#    x 1.931640 0.000000 0.078450 
#    y 0.000000 1.915630 0.000000 
#    z 0.078450 0.000000 1.859490 
# 
# From -- ./inp_files/145964.got.cif
#   From: 2010.05.17/outbox.cif.g08.bks.cpg/sg15_73_cif.got.tgz:145964.got - 2010.06.03 18:47:42.
