data_PCOD9267918
_publ_section_title
;
Structure prediction by ZEFSAII (Michael W. Deem and Ramdas Pophale) SiO2 
 PCOD9267918
Probable space group: C 2/C
;
_chemical_formula_sum "Si O2"
_cell_formula_units_Z 60
_cell_length_a 17.514521
_cell_length_b 8.502250
_cell_length_c 26.032146
_cell_angle_alpha 90.000000
_cell_angle_beta 142.290338
_cell_angle_gamma 90.000000
_cell_volume 2371.114424
_symmetry_space_group_name_H-M "C 2/C"
_symmetry_group_IT_number 15
_symmetry_cell_setting 'monoclinic'
loop_
_space_group_symop_operation_xyz
x,y,z
-x,y,1/2-z
-x,-y,-z
x,-y,1/2+z
1/2+x,1/2+y,z
1/2-x,1/2+y,1/2-z
1/2-x,1/2-y,-z
1/2+x,1/2-y,1/2+z
loop_
_atom_site_type_symbol
_atom_site_label
_atom_site_fract_x
_atom_site_fract_y
_atom_site_fract_z
Si Si1 0.334408 0.433884 0.751854
Si Si2 0.000000 0.177018 0.250000
Si Si3 0.539034 0.352550 0.094734
Si Si4 0.835623 0.302705 0.342622
Si Si5 0.148571 0.730538 0.329593
Si Si6 0.321601 0.872403 0.501307
Si Si7 0.908884 0.839576 0.485033
Si Si8 0.335208 0.095907 0.598179
O O1 0.401282 0.416029 0.732821
O O2 0.199456 0.514791 0.676240
O O3 0.335002 0.276987 0.786324
O O4 0.269252 0.639395 0.595786
O O5 0.938971 0.288206 0.174334
O O6 0.592344 0.438463 0.173026
O O7 0.455620 0.202780 0.061767
O O8 0.630715 0.325047 0.095515
O O9 0.446905 0.482173 0.020213
O O10 0.723158 0.221839 0.315559
O O11 0.160427 0.561323 0.363881
O O12 0.000000 0.763298 0.250000
O O13 0.250000 0.750000 0.500000
O O14 0.531568 0.236716 0.561133
O O15 0.339983 0.029156 0.543481
O O16 0.792546 0.813152 0.459172
#
# Coordination Sequence:
#
# PCOD9267918 Si02
#       8
#     8   4   8   8   8   8   8   8
#     4  11  29  48  78 107 163 200 266 327 398 467
#     4  12  30  52  70 114 164 208 260 338 400 458
#     4  10  19  40  72 109 146 198 253 316 379 461
#     4  11  26  47  78 113 152 208 260 321 400 475
#     4  11  22  38  76 115 156 205 265 319 386 474
#     4  10  20  37  67 116 153 196 261 308 386 475
#     4  10  19  42  74 108 149 203 252 322 390 460
#     4  11  23  42  76 107 158 210 260 318 398 468
#
# _framework density 25.304556000000002
#
# number of rings (size 3 to 8) (size 9 to 14) (size 15 to 20)
#    0.000    1.333    4.667    1.600    8.400    0.000 
#    0.000    3.333    2.933    0.000    0.000    0.000 
#    0.000    0.000    0.000    0.000    0.000    0.000 
#
# Total GULP energy -167921.181879 kJ/mol
# GULP energy per Si atom -5597.372729 kJ/mol
# Density = 2.524696 g / cm^3
# Si number density = 25.304556 Si / 1000 Ang^3
#
#
#
# Elastic Constant Matrix: (Units=GPa)
#
#
# Indices 1 2 3 4 5 6 
#
# 1 143.4411 66.3099 54.4013 0.0000 -8.0127 0.0000
# 2 66.3099 96.0146 76.9911 0.0000 -10.0230 0.0000
# 3 54.4013 76.9911 95.0601 0.0000 3.6897 0.0000
# 4 0.0000 0.0000 0.0000 26.3632 0.0000 12.3975
# 5 -8.0127 -10.0230 3.6897 0.0000 44.4361 0.0000
# 6 0.0000 0.0000 0.0000 12.3975 0.0000 5.7248
#
#
#
# Elastic Compliance Matrix: (Units=1/GPa)
#
#
# Indices 1 2 3 4 5 6 
#
# 1 0.010252 -0.006623 -0.000518 0.000001 0.000398 -0.000002
# 2 -0.006623 0.037796 -0.027193 -0.000002 0.009589 0.000005
# 3 -0.000518 -0.027193 0.033189 0.000001 -0.008983 -0.000003
# 4 0.000001 -0.000002 0.000001 -2.062891 0.000000 4.467363
# 5 0.000398 0.009589 -0.008983 0.000000 0.025485 0.000001
# 6 -0.000002 0.000005 -0.000003 4.467363 0.000001 -9.499772
#
#
# Mechanical properties :
#
#
# Convention : Reuss Voigt Hill
#
# Bulk Modulus (GPa) = 79.57026 81.10228 80.33627
# Shear Modulus (GPa) = -0.43925 24.42571 11.99323
#
# Velocity S-wave (km/s) = -0.41709 3.11025 2.17941
# Velocity P-wave (km/s) = 5.59297 6.70956 6.17655
#
# Compressibility (1/GPa) = 0.01256751
#
# Stress axis : x y z
#
# Youngs Moduli (GPa) = 97.54150 26.45808 30.13021
#
# Poissons Ratio (x) = 0.17524 0.01561
# Poissons Ratio (y) = 0.64604 0.81934
# Poissons Ratio (z) = 0.05055 0.71948
#
# Static dielectric constant tensor:
#      x y z
#    x 1.999760 0.000000 0.007860 
#    y 0.000000 2.017200 0.000000 
#    z 0.007860 0.000000 2.082530 
# 
# From -- ./inp_files/298402.got.cif
#   From: 2010.05.17/outbox.cif.g08.bks.cpg/sg15_150_cif.got.tgz:298402.got - 2010.06.03 18:47:42.
