data_PCOD9267717
_publ_section_title
;
Structure prediction by ZEFSAII (Michael W. Deem and Ramdas Pophale) SiO2 
 PCOD9267717
Probable space group: C 2/C
;
_chemical_formula_sum "Si O2"
_cell_formula_units_Z 60
_cell_length_a 8.769075
_cell_length_b 20.905699
_cell_length_c 16.831986
_cell_angle_alpha 90.000000
_cell_angle_beta 127.325745
_cell_angle_gamma 90.000000
_cell_volume 2453.752843
_symmetry_space_group_name_H-M "C 2/C"
_symmetry_group_IT_number 15
_symmetry_cell_setting 'monoclinic'
loop_
_space_group_symop_operation_xyz
x,y,z
-x,y,1/2-z
-x,-y,-z
x,-y,1/2+z
1/2+x,1/2+y,z
1/2-x,1/2+y,1/2-z
1/2-x,1/2-y,-z
1/2+x,1/2-y,1/2+z
loop_
_atom_site_type_symbol
_atom_site_label
_atom_site_fract_x
_atom_site_fract_y
_atom_site_fract_z
Si Si1 0.534992 0.271098 0.536311
Si Si2 0.756773 0.959735 0.606928
Si Si3 0.921938 0.309400 0.601555
Si Si4 0.794719 0.877039 0.382961
Si Si5 0.086411 0.662415 0.668161
Si Si6 0.500000 0.902039 0.750000
Si Si7 0.136099 0.594660 0.531495
Si Si8 0.837813 0.014998 0.316986
O O1 0.767855 0.274412 0.607622
O O2 0.490782 0.231543 0.441376
O O3 0.428876 0.337968 0.486619
O O4 0.498099 0.227562 0.602481
O O5 0.596245 0.906214 0.546629
O O6 0.691755 0.022353 0.538708
O O7 0.763569 0.983732 0.701276
O O8 0.963569 0.947416 0.634593
O O9 0.053523 0.354143 0.695904
O O10 0.787654 0.360128 0.512264
O O11 0.589196 0.883768 0.361918
O O12 0.728888 0.832419 0.287249
O O13 0.860024 0.944578 0.363984
O O14 0.195506 0.625966 0.632375
O O15 0.317337 0.946876 0.680338
#
# Coordination Sequence:
#
# PCOD9267717 Si02
#       8
#     8   8   8   8   8   4   8   8
#     4  10  23  43  64  93 126 169 225 275 327 404
#     4  10  21  37  62  93 129 176 219 262 328 403
#     4  10  23  41  63  92 124 169 219 270 337 390
#     4  11  22  41  64  96 130 171 219 279 326 402
#     4  10  22  38  65  92 126 171 214 269 344 382
#     4  12  24  42  66  96 140 170 214 284 336 388
#     4  10  19  40  62  89 130 175 210 277 324 398
#     4  11  23  39  63 100 132 176 228 266 333 407
#
# _framework density 24.452338999999998
#
# number of rings (size 3 to 8) (size 9 to 14) (size 15 to 20)
#    0.000    1.600    2.667    2.000    1.867    1.067 
#    0.000    2.000    0.000    0.000    0.000    0.000 
#    0.000    0.000    0.000    0.000    0.000    0.000 
#
# Total GULP energy -167289.163838 kJ/mol
# GULP energy per Si atom -5576.305461 kJ/mol
# Density = 2.439668 g / cm^3
# Si number density = 24.452339 Si / 1000 Ang^3
#
#
#
# Elastic Constant Matrix: (Units=GPa)
#
#
# Indices 1 2 3 4 5 6 
#
# 1 58.8793 10.3120 6.8708 0.0000 -1.5906 0.0000
# 2 10.3120 82.5965 26.3775 0.0000 0.0285 0.0000
# 3 6.8708 26.3775 57.6315 0.0000 -10.4636 0.0000
# 4 0.0000 0.0000 0.0000 41.4691 0.0000 -3.6369
# 5 -1.5906 0.0285 -10.4636 0.0000 33.4664 0.0000
# 6 0.0000 0.0000 0.0000 -3.6369 0.0000 30.6091
#
#
#
# Elastic Compliance Matrix: (Units=1/GPa)
#
#
# Indices 1 2 3 4 5 6 
#
# 1 0.017449 -0.001805 -0.001170 0.000000 0.000465 0.000000
# 2 -0.001805 0.014516 -0.006834 0.000000 -0.002235 0.000000
# 3 -0.001170 -0.006834 0.021850 0.000000 0.006782 0.000000
# 4 0.000000 0.000000 0.000000 0.024368 0.000000 0.002895
# 5 0.000465 -0.002235 0.006782 0.000000 0.032025 0.000000
# 6 0.000000 0.000000 0.000000 0.002895 0.000000 0.033014
#
#
# Mechanical properties :
#
#
# Convention : Reuss Voigt Hill
#
# Bulk Modulus (GPa) = 29.24222 31.80309 30.52266
# Shear Modulus (GPa) = 28.69607 31.47873 30.08740
#
# Velocity S-wave (km/s) = 3.42943 3.59186 3.51158
# Velocity P-wave (km/s) = 5.25986 5.49876 5.38064
#
# Compressibility (1/GPa) = 0.03419713
#
# Stress axis : x y z
#
# Youngs Moduli (GPa) = 57.30954 68.89066 45.76572
#
# Poissons Ratio (x) = 0.12436 0.05353
# Poissons Ratio (y) = 0.10345 0.31278
# Poissons Ratio (z) = 0.06703 0.47082
#
# Static dielectric constant tensor:
#      x y z
#    x 1.989800 0.000000 0.018100 
#    y 0.000000 1.929440 0.000000 
#    z 0.018100 0.000000 2.021760 
# 
# From -- ./inp_files/192574.got.cif
#   From: 2010.05.17/outbox.cif.g08.bks.cpg/sg15_97_cif.got.tgz:192574.got - 2010.06.03 18:47:42.
