data_PCOD9267471
_publ_section_title
;
Structure prediction by ZEFSAII (Michael W. Deem and Ramdas Pophale) SiO2 
 PCOD9267471
Probable space group: C 2/C
;
_chemical_formula_sum "Si O2"
_cell_formula_units_Z 48
_cell_length_a 19.685825
_cell_length_b 9.045435
_cell_length_c 17.165536
_cell_angle_alpha 90.000000
_cell_angle_beta 56.660918
_cell_angle_gamma 90.000000
_cell_volume 2553.594313
_symmetry_space_group_name_H-M "C 2/C"
_symmetry_group_IT_number 15
_symmetry_cell_setting 'monoclinic'
loop_
_space_group_symop_operation_xyz
x,y,z
-x,y,1/2-z
-x,-y,-z
x,-y,1/2+z
1/2+x,1/2+y,z
1/2-x,1/2+y,1/2-z
1/2-x,1/2-y,-z
1/2+x,1/2-y,1/2+z
loop_
_atom_site_type_symbol
_atom_site_label
_atom_site_fract_x
_atom_site_fract_y
_atom_site_fract_z
Si Si1 0.086376 0.361132 0.731672
Si Si2 0.195302 0.755453 0.838452
Si Si3 0.235504 0.309602 0.872750
Si Si4 0.180748 0.088578 0.627349
Si Si5 0.086379 0.515356 0.405858
Si Si6 0.262073 0.513056 0.077531
O O1 0.103800 0.188491 0.699486
O O2 0.084382 0.399055 0.824631
O O3 0.166321 0.445345 0.647096
O O4 0.000000 0.405807 0.750000
O O5 0.244186 0.761199 0.727840
O O6 0.248117 0.672695 0.870695
O O7 0.118766 0.651614 0.872696
O O8 0.190334 0.918818 0.877794
O O9 0.308013 0.419963 0.852182
O O10 0.151123 0.399332 0.920108
O O11 0.230034 0.163004 0.927212
O O12 0.200012 0.084025 0.523779
O O13 0.000000 0.500000 0.500000
#
# Coordination Sequence:
#
# PCOD9267471 Si02
#       6
#     8   8   8   8   8   8
#     4  11  23  39  60  87 128 161 199 252 323 367
#     4  10  19  39  64  86 118 165 212 247 302 378
#     4  11  20  41  65  90 122 160 215 258 303 374
#     4  10  22  37  61  91 121 160 209 248 306 378
#     4  11  24  39  62  94 122 160 212 265 314 368
#     4  11  21  39  66  94 117 165 211 260 303 378
#
# _framework density 18.797034
#
# number of rings (size 3 to 8) (size 9 to 14) (size 15 to 20)
#    0.000    1.333    5.000    3.500    7.000    0.000 
#    0.000    3.333    0.000    0.000    0.000    0.000 
#    0.000    0.000    0.000    0.000    0.000    0.000 
#
# Total GULP energy -133763.737032 kJ/mol
# GULP energy per Si atom -5573.489043 kJ/mol
# Density = 1.875425 g / cm^3
# Si number density = 18.797034 Si / 1000 Ang^3
#
#
#
# Elastic Constant Matrix: (Units=GPa)
#
#
# Indices 1 2 3 4 5 6 
#
# 1 58.8948 18.6489 38.7163 0.0000 -16.1663 0.0000
# 2 18.6489 101.1315 26.7926 0.0000 -13.3218 0.0000
# 3 38.7163 26.7926 105.0330 0.0000 -6.1998 0.0000
# 4 0.0000 0.0000 0.0000 18.7776 0.0000 -3.9674
# 5 -16.1663 -13.3218 -6.1998 0.0000 33.4611 0.0000
# 6 0.0000 0.0000 0.0000 -3.9674 0.0000 18.0928
#
#
#
# Elastic Compliance Matrix: (Units=1/GPa)
#
#
# Indices 1 2 3 4 5 6 
#
# 1 0.025882 -0.001105 -0.008641 0.000000 0.010463 0.000000
# 2 -0.001105 0.011142 -0.002229 0.000000 0.003489 0.000000
# 3 -0.008641 -0.002229 0.013119 0.000000 -0.002631 0.000000
# 4 0.000000 0.000000 0.000000 0.055842 0.000000 0.012245
# 5 0.010463 0.003489 -0.002631 0.000000 0.035842 0.000000
# 6 0.000000 0.000000 0.000000 0.012245 0.000000 0.057956
#
#
# Mechanical properties :
#
#
# Convention : Reuss Voigt Hill
#
# Bulk Modulus (GPa) = 38.17765 48.15277 43.16521
# Shear Modulus (GPa) = 21.50871 26.12638 23.81755
#
# Velocity S-wave (km/s) = 3.38636 3.73221 3.56348
# Velocity P-wave (km/s) = 5.97030 6.65172 6.32020
#
# Compressibility (1/GPa) = 0.02619333
#
# Stress axis : x y z
#
# Youngs Moduli (GPa) = 38.63723 89.75049 76.22457
#
# Poissons Ratio (x) = 0.09919 0.65864
# Poissons Ratio (y) = 0.04270 0.16989
# Poissons Ratio (z) = 0.33385 0.20004
#
# Static dielectric constant tensor:
#      x y z
#    x 1.680530 0.000000 0.025050 
#    y 0.000000 1.750830 0.000000 
#    z 0.025050 0.000000 1.634320 
# 
# From -- ./inp_files/176998.got.cif
#   From: 2010.05.17/outbox.cif.g08.bks.cpg/sg15_89_cif.got.tgz:176998.got - 2010.06.03 18:47:42.
