data_PCOD9267728
_publ_section_title
;
Structure prediction by ZEFSAII (Michael W. Deem and Ramdas Pophale) SiO2 
 PCOD9267728
Probable space group: C 2/C
;
_chemical_formula_sum "Si O2"
_cell_formula_units_Z 56
_cell_length_a 13.842249
_cell_length_b 15.764684
_cell_length_c 11.653193
_cell_angle_alpha 90.000000
_cell_angle_beta 81.911891
_cell_angle_gamma 90.000000
_cell_volume 2517.649433
_symmetry_space_group_name_H-M "C 2/C"
_symmetry_group_IT_number 15
_symmetry_cell_setting 'monoclinic'
loop_
_space_group_symop_operation_xyz
x,y,z
-x,y,1/2-z
-x,-y,-z
x,-y,1/2+z
1/2+x,1/2+y,z
1/2-x,1/2+y,1/2-z
1/2-x,1/2-y,-z
1/2+x,1/2-y,1/2+z
loop_
_atom_site_type_symbol
_atom_site_label
_atom_site_fract_x
_atom_site_fract_y
_atom_site_fract_z
Si Si1 0.500000 0.059193 0.750000
Si Si2 0.689717 0.048704 0.604470
Si Si3 0.199961 0.358900 0.705663
Si Si4 0.060633 0.413495 0.910760
Si Si5 0.403348 0.332066 0.694021
Si Si6 0.000000 0.843927 0.250000
Si Si7 0.906987 0.273438 0.961042
Si Si8 0.409115 0.522240 0.600369
O O1 0.606697 0.098978 0.697781
O O2 0.519991 0.996442 0.854095
O O3 0.642090 0.058841 0.487539
O O4 0.806938 0.057995 0.565998
O O5 0.693862 0.957324 0.667524
O O6 0.108955 0.353849 0.805629
O O7 0.293142 0.323247 0.758494
O O8 0.187695 0.310116 0.587617
O O9 0.974404 0.355599 0.973268
O O10 0.500000 0.313437 0.750000
O O11 0.404378 0.278209 0.577865
O O12 0.399888 0.431610 0.663604
O O13 0.050502 0.788182 0.144006
O O14 0.068465 0.907424 0.308687
O O15 0.500000 0.500000 0.500000
#
# Coordination Sequence:
#
# PCOD9267728 Si02
#       8
#     4   8   8   8   8   4   8   8
#     4  10  19  40  62  95 134 164 218 270 321 396
#     4  10  23  39  67 101 126 177 216 273 328 386
#     4  10  22  43  67  97 133 173 217 268 335 395
#     4  11  20  40  69  92 133 170 217 270 329 395
#     4  11  25  44  66  94 133 172 219 280 330 383
#     4  12  23  42  70  91 124 180 224 260 331 408
#     4  12  22  44  66  94 131 177 217 268 335 402
#     4  11  24  42  66  96 130 168 226 279 321 392
#
# _framework density 22.242968999999999
#
# number of rings (size 3 to 8) (size 9 to 14) (size 15 to 20)
#    0.000    1.143    6.429    0.857    2.000    1.143 
#    3.857    1.429    0.000    0.000    0.000    0.000 
#    0.000    0.000    0.000    0.000    0.000    0.000 
#
# Total GULP energy -155879.725249 kJ/mol
# GULP energy per Si atom -5567.133045 kJ/mol
# Density = 2.219234 g / cm^3
# Si number density = 22.242969 Si / 1000 Ang^3
#
#
#
# Elastic Constant Matrix: (Units=GPa)
#
#
# Indices 1 2 3 4 5 6 
#
# 1 172.0860 12.6233 46.4434 0.0000 29.4841 0.0000
# 2 12.6233 33.7540 10.0706 0.0000 1.6433 0.0000
# 3 46.4434 10.0706 61.5585 0.0000 12.2416 0.0000
# 4 0.0000 0.0000 0.0000 -169.9040 0.0000 360.3227
# 5 29.4841 1.6433 12.2416 0.0000 43.9937 0.0000
# 6 0.0000 0.0000 0.0000 360.3227 0.0000 -617.6906
#
#
#
# Elastic Compliance Matrix: (Units=1/GPa)
#
#
# Indices 1 2 3 4 5 6 
#
# 1 0.007915 -0.001282 -0.004993 0.000000 -0.003868 0.000000
# 2 -0.001282 0.031357 -0.004341 0.000000 0.000896 0.000000
# 3 -0.004993 -0.004341 0.021197 0.000000 -0.002390 0.000000
# 4 0.000000 0.000000 0.000000 0.024822 0.000000 0.014480
# 5 -0.003868 0.000896 -0.002390 0.000000 0.025954 0.000000
# 6 0.000000 0.000000 0.000000 0.014480 0.000000 0.006828
#
#
# Mechanical properties :
#
#
# Convention : Reuss Voigt Hill
#
# Bulk Modulus (GPa) = 25.48557 45.07479 35.28018
# Shear Modulus (GPa) = 32.81182 -135.50276 -51.34547
#
# Velocity S-wave (km/s) = 3.84494 -7.81355 -4.80978
# Velocity P-wave (km/s) = 5.58517 7.81623 3.86648
#
# Compressibility (1/GPa) = 0.03923789
#
# Stress axis : x y z
#
# Youngs Moduli (GPa) = 126.33862 31.89078 47.17650
#
# Poissons Ratio (x) = 0.04089 0.23555
# Poissons Ratio (y) = 0.16199 0.20477
# Poissons Ratio (z) = 0.63079 0.13843
#
# Static dielectric constant tensor:
#      x y z
#    x 1.973050 0.000000 -0.062460 
#    y 0.000000 1.823710 0.000000 
#    z -0.062460 0.000000 1.821040 
# 
# From -- ./inp_files/97066.got.cif
#   From: 2010.05.17/outbox.cif.g08.bks.cpg/sg15_49_cif.got.tgz:97066.got - 2010.06.03 18:47:42.
