data_PCOD9267611
_publ_section_title
;
Structure prediction by ZEFSAII (Michael W. Deem and Ramdas Pophale) SiO2 
 PCOD9267611
Probable space group: C 2/C
;
_chemical_formula_sum "Si O2"
_cell_formula_units_Z 48
_cell_length_a 10.435397
_cell_length_b 26.250362
_cell_length_c 19.516496
_cell_angle_alpha 90.000000
_cell_angle_beta 152.228786
_cell_angle_gamma 90.000000
_cell_volume 2491.025235
_symmetry_space_group_name_H-M "C 2/C"
_symmetry_group_IT_number 15
_symmetry_cell_setting 'monoclinic'
loop_
_space_group_symop_operation_xyz
x,y,z
-x,y,1/2-z
-x,-y,-z
x,-y,1/2+z
1/2+x,1/2+y,z
1/2-x,1/2+y,1/2-z
1/2-x,1/2-y,-z
1/2+x,1/2-y,1/2+z
loop_
_atom_site_type_symbol
_atom_site_label
_atom_site_fract_x
_atom_site_fract_y
_atom_site_fract_z
Si Si1 0.607066 0.339023 0.946547
Si Si2 0.000000 0.789337 0.250000
Si Si3 0.253061 0.148865 0.748030
Si Si4 0.000000 0.206131 0.250000
Si Si5 0.021275 0.777735 0.486163
Si Si6 0.214507 0.932258 0.645213
Si Si7 0.253897 0.455004 0.318277
O O1 0.575136 0.325909 0.852364
O O2 0.455875 0.391620 0.892463
O O3 0.473344 0.296949 0.932735
O O4 0.929125 0.339135 0.118166
O O5 0.176645 0.825118 0.283466
O O6 0.198866 0.753665 0.389791
O O7 0.237803 0.087659 0.736242
O O8 0.049196 0.174128 0.595284
O O9 0.261854 0.240645 0.355381
O O10 0.500000 0.911485 0.750000
O O11 0.028571 0.947221 0.492288
O O12 0.270090 0.985418 0.711240
O O13 0.000000 0.443884 0.250000
#
# Coordination Sequence:
#
# PCOD9267611 Si02
#       7
#     8   4   8   4   8   8   8
#     4  12  23  42  66  91 125 171 206 251 318 372
#     4  12  28  38  59 100 133 160 206 262 306 368
#     4  12  22  43  66  90 125 171 207 249 320 370
#     4  12  24  40  63  88 131 164 210 248 302 384
#     4  12  23  42  64  92 120 169 215 256 298 365
#     4  10  22  37  64 101 120 150 210 266 305 357
#     4  10  19  39  68  93 122 157 204 260 311 367
#
# _framework density 19.269174
#
# number of rings (size 3 to 8) (size 9 to 14) (size 15 to 20)
#    0.000    0.667    6.667    2.000    1.167    1.333 
#    0.000    0.833    0.000    2.000    0.000    0.000 
#    0.000    0.000    0.000    0.000    0.000    0.000 
#
# Total GULP energy -134070.941524 kJ/mol
# GULP energy per Si atom -5586.289230 kJ/mol
# Density = 1.922532 g / cm^3
# Si number density = 19.269174 Si / 1000 Ang^3
#
#
#
# Elastic Constant Matrix: (Units=GPa)
#
#
# Indices 1 2 3 4 5 6 
#
# 1 42.7897 27.4008 10.6470 0.0008 7.0513 0.0050
# 2 27.4008 100.9516 20.3523 0.0085 9.5651 0.0117
# 3 10.6470 20.3523 75.6904 -0.0521 13.8856 0.0072
# 4 0.0008 0.0085 -0.0521 24.9641 -0.0013 8.7918
# 5 7.0513 9.5651 13.8856 -0.0013 36.1847 -0.0014
# 6 0.0050 0.0117 0.0072 8.7918 -0.0014 14.8149
#
#
#
# Elastic Compliance Matrix: (Units=1/GPa)
#
#
# Indices 1 2 3 4 5 6 
#
# 1 0.028905 -0.007238 -0.001546 -0.000001 -0.003126 -0.000003
# 2 -0.007238 0.012398 -0.002123 -0.000008 -0.001052 -0.000002
# 3 -0.001546 -0.002123 0.014890 0.000042 -0.004852 -0.000031
# 4 -0.000001 -0.000008 0.000042 0.050641 -0.000013 -0.030053
# 5 -0.003126 -0.001052 -0.004852 -0.000013 0.030385 0.000015
# 6 -0.000003 -0.000002 -0.000031 -0.030053 0.000015 0.085334
#
#
# Mechanical properties :
#
#
# Convention : Reuss Voigt Hill
#
# Bulk Modulus (GPa) = 29.08685 37.35910 33.22298
# Shear Modulus (GPa) = 19.54454 25.92817 22.73636
#
# Velocity S-wave (km/s) = 3.18825 3.67219 3.43874
# Velocity P-wave (km/s) = 5.35547 6.11638 5.74853
#
# Compressibility (1/GPa) = 0.03437979
#
# Stress axis : x y z
#
# Youngs Moduli (GPa) = 34.59658 80.65947 67.15919
#
# Poissons Ratio (x) = 0.58377 0.10385
# Poissons Ratio (y) = 0.25039 0.14255
# Poissons Ratio (z) = 0.05350 0.17120
#
# Static dielectric constant tensor:
#      x y z
#    x 1.656480 0.000000 0.007820 
#    y 0.000000 1.710210 0.000000 
#    z 0.007820 0.000000 1.685830 
# 
# From -- ./inp_files/194350.got.cif
#   From: 2010.05.17/outbox.cif.g08.bks.cpg/sg15_98_cif.got.tgz:194350.got - 2010.06.03 18:47:42.
