data_PCOD9267336
_publ_section_title
;
Structure prediction by ZEFSAII (Michael W. Deem and Ramdas Pophale) SiO2 
 PCOD9267336
Probable space group: C 2/C
;
_chemical_formula_sum "Si O2"
_cell_formula_units_Z 48
_cell_length_a 10.860210
_cell_length_b 9.400298
_cell_length_c 19.974497
_cell_angle_alpha 90.000000
_cell_angle_beta 92.005166
_cell_angle_gamma 90.000000
_cell_volume 2037.931987
_symmetry_space_group_name_H-M "C 2/C"
_symmetry_group_IT_number 15
_symmetry_cell_setting 'monoclinic'
loop_
_space_group_symop_operation_xyz
x,y,z
-x,y,1/2-z
-x,-y,-z
x,-y,1/2+z
1/2+x,1/2+y,z
1/2-x,1/2+y,1/2-z
1/2-x,1/2-y,-z
1/2+x,1/2-y,1/2+z
loop_
_atom_site_type_symbol
_atom_site_label
_atom_site_fract_x
_atom_site_fract_y
_atom_site_fract_z
Si Si1 0.206057 0.944371 0.806868
Si Si2 0.310144 0.452789 0.544794
Si Si3 0.414042 0.135293 0.539286
Si Si4 0.996369 0.705129 0.821623
Si Si5 0.375452 0.242547 0.046191
Si Si6 0.787914 0.734565 0.190800
O O1 0.256669 0.956595 0.883660
O O2 0.088227 0.839945 0.812827
O O3 0.292514 0.871956 0.753267
O O4 0.175512 0.105649 0.785886
O O5 0.374721 0.301951 0.540816
O O6 0.206973 0.449183 0.485385
O O7 0.402139 0.586494 0.547128
O O8 0.459891 0.112554 0.615317
O O9 0.522554 0.145567 0.486915
O O10 0.000000 0.628554 0.750000
O O11 0.857717 0.757247 0.831128
O O12 0.355244 0.201578 0.122854
O O13 0.250000 0.250000 0.000000
#
# Coordination Sequence:
#
# PCOD9267336 Si02
#       6
#     8   8   8   8   8   8
#     4   9  20  40  62  88 126 160 210 258 303 370
#     4   9  21  39  61  87 121 158 203 254 299 370
#     4  10  19  39  60  88 118 161 203 248 313 359
#     4   9  18  37  61  86 119 163 202 253 303 363
#     4  11  21  37  58  91 123 154 200 252 305 365
#     4  10  20  41  62  93 124 161 209 257 307 371
#
# _framework density 23.553288999999999
#
# number of rings (size 3 to 8) (size 9 to 14) (size 15 to 20)
#    0.000    2.333    1.667    0.500    0.000    0.667 
#   12.000   12.500    0.000    0.000    0.000    0.000 
#    0.000    0.000    0.000    0.000    0.000    0.000 
#
# Total GULP energy -134043.379675 kJ/mol
# GULP energy per Si atom -5585.140820 kJ/mol
# Density = 2.349968 g / cm^3
# Si number density = 23.553289 Si / 1000 Ang^3
#
#
#
# Elastic Constant Matrix: (Units=GPa)
#
#
# Indices 1 2 3 4 5 6 
#
# 1 46.5428 17.4979 20.0926 0.0000 -12.3615 0.0000
# 2 17.4979 88.6392 20.3828 0.0000 -22.1141 0.0000
# 3 20.0926 20.3828 168.3946 0.0000 -17.6706 0.0000
# 4 0.0000 0.0000 0.0000 25.5853 0.0000 -9.6737
# 5 -12.3615 -22.1141 -17.6706 0.0000 36.5978 0.0000
# 6 0.0000 0.0000 0.0000 -9.6737 0.0000 42.4875
#
#
#
# Elastic Compliance Matrix: (Units=1/GPa)
#
#
# Indices 1 2 3 4 5 6 
#
# 1 0.025004 -0.003070 -0.002023 0.000000 0.005614 0.000000
# 2 -0.003070 0.013766 -0.000564 0.000000 0.007009 0.000000
# 3 -0.002023 -0.000564 0.006468 0.000000 0.002099 0.000000
# 4 0.000000 0.000000 0.000000 0.042767 0.000000 0.009737
# 5 0.005614 0.007009 0.002099 0.000000 0.034468 0.000000
# 6 0.000000 0.000000 0.000000 0.009737 0.000000 0.025753
#
#
# Mechanical properties :
#
#
# Convention : Reuss Voigt Hill
#
# Bulk Modulus (GPa) = 29.47811 46.61368 38.04590
# Shear Modulus (GPa) = 29.26551 37.30769 33.28660
#
# Velocity S-wave (km/s) = 3.52877 3.98423 3.76340
# Velocity P-wave (km/s) = 5.39867 6.40306 5.92219
#
# Compressibility (1/GPa) = 0.03392348
#
# Stress axis : x y z
#
# Youngs Moduli (GPa) = 39.99352 72.64223 154.59889
#
# Poissons Ratio (x) = 0.22303 0.31271
# Poissons Ratio (y) = 0.12279 0.08727
# Poissons Ratio (z) = 0.08090 0.04101
#
# Static dielectric constant tensor:
#      x y z
#    x 1.904330 0.000000 -0.010180 
#    y 0.000000 2.043060 0.000000 
#    z -0.010180 0.000000 1.916500 
# 
# From -- ./inp_files/236589.got.cif
#   From: 2010.05.17/outbox.cif.g08.bks.cpg/sg15_119_cif.got.tgz:236589.got - 2010.06.03 18:47:42.
