data_PCOD9267836
_publ_section_title
;
Structure prediction by ZEFSAII (Michael W. Deem and Ramdas Pophale) SiO2 
 PCOD9267836
Probable space group: C 2/C
;
_chemical_formula_sum "Si O2"
_cell_formula_units_Z 52
_cell_length_a 26.064309
_cell_length_b 11.544222
_cell_length_c 15.267835
_cell_angle_alpha 90.000000
_cell_angle_beta 142.917780
_cell_angle_gamma 90.000000
_cell_volume 2769.983434
_symmetry_space_group_name_H-M "C 2/C"
_symmetry_group_IT_number 15
_symmetry_cell_setting 'monoclinic'
loop_
_space_group_symop_operation_xyz
x,y,z
-x,y,1/2-z
-x,-y,-z
x,-y,1/2+z
1/2+x,1/2+y,z
1/2-x,1/2+y,1/2-z
1/2-x,1/2-y,-z
1/2+x,1/2-y,1/2+z
loop_
_atom_site_type_symbol
_atom_site_label
_atom_site_fract_x
_atom_site_fract_y
_atom_site_fract_z
Si Si1 0.725452 0.991541 0.580779
Si Si2 0.848070 0.291847 0.116348
Si Si3 0.359338 0.206884 0.969045
Si Si4 0.867942 0.035077 0.126310
Si Si5 0.092059 0.559218 0.635570
Si Si6 0.000000 0.137191 0.750000
Si Si7 0.742091 0.433374 0.679273
O O1 0.663135 0.882917 0.477486
O O2 0.799659 0.987999 0.610073
O O3 0.762986 0.980289 0.729001
O O4 0.672022 0.109251 0.506282
O O5 0.893651 0.169863 0.161966
O O6 0.889160 0.363705 0.252382
O O7 0.750000 0.250000 0.000000
O O8 0.387283 0.142568 0.918597
O O9 0.283943 0.299398 0.853278
O O10 0.436487 0.281352 0.110997
O O11 0.946350 0.947777 0.239432
O O12 0.820743 0.002411 0.971237
O O13 0.163876 0.459416 0.728482
O O14 0.000000 0.500000 0.500000
#
# Coordination Sequence:
#
# PCOD9267836 Si02
#       7
#     8   8   8   8   8   4   8
#     4  10  21  36  68  88 113 167 213 249 317 374
#     4  10  19  40  67  83 121 163 213 253 310 387
#     4  10  23  39  60  88 131 164 209 256 323 388
#     4  10  21  42  64  90 123 164 216 259 315 387
#     4  11  23  40  63 100 129 162 214 280 320 374
#     4  10  24  40  58  90 132 160 200 270 322 380
#     4  10  21  40  63  92 123 166 212 260 314 389
#
# _framework density 18.772676000000001
#
# number of rings (size 3 to 8) (size 9 to 14) (size 15 to 20)
#    0.000    1.846    3.077    1.846    4.308    3.692 
#    5.538    6.923    0.000    0.000    0.000    0.000 
#    0.000    0.000    0.000    0.000    0.000    0.000 
#
# Total GULP energy -145006.204536 kJ/mol
# GULP energy per Si atom -5577.161713 kJ/mol
# Density = 1.872995 g / cm^3
# Si number density = 18.772676 Si / 1000 Ang^3
#
#
#
# Elastic Constant Matrix: (Units=GPa)
#
#
# Indices 1 2 3 4 5 6 
#
# 1 75.1513 58.2766 39.3098 0.0000 -9.8376 0.0000
# 2 58.2766 154.1015 62.3716 0.0000 13.6019 0.0000
# 3 39.3098 62.3716 83.3129 0.0000 6.4345 0.0000
# 4 0.0000 0.0000 0.0000 25.4641 0.0000 -1.4088
# 5 -9.8376 13.6019 6.4345 0.0000 29.4198 0.0000
# 6 0.0000 0.0000 0.0000 -1.4088 0.0000 33.8977
#
#
#
# Elastic Compliance Matrix: (Units=1/GPa)
#
#
# Indices 1 2 3 4 5 6 
#
# 1 0.024613 -0.007698 -0.006877 0.000000 0.013293 0.000000
# 2 -0.007698 0.011955 -0.004773 0.000000 -0.007057 0.000000
# 3 -0.006877 -0.004773 0.019152 0.000000 -0.004282 0.000000
# 4 0.000000 0.000000 0.000000 0.039362 0.000000 0.001636
# 5 0.013293 -0.007057 -0.004282 0.000000 0.042635 0.000000
# 6 0.000000 0.000000 0.000000 0.001636 0.000000 0.029569
#
#
# Mechanical properties :
#
#
# Convention : Reuss Voigt Hill
#
# Bulk Modulus (GPa) = 58.73967 70.27574 64.50770
# Shear Modulus (GPa) = 23.62327 27.93016 25.77672
#
# Velocity S-wave (km/s) = 3.55122 3.86140 3.70955
# Velocity P-wave (km/s) = 6.94066 7.57607 7.26532
#
# Compressibility (1/GPa) = 0.01702427
#
# Stress axis : x y z
#
# Youngs Moduli (GPa) = 40.62853 83.64647 52.21484
#
# Poissons Ratio (x) = 0.64390 0.35908
# Poissons Ratio (y) = 0.31275 0.24922
# Poissons Ratio (z) = 0.27940 0.39924
#
# Static dielectric constant tensor:
#      x y z
#    x 1.935350 0.000000 0.076790 
#    y 0.000000 1.681320 0.000000 
#    z 0.076790 0.000000 1.686400 
# 
# From -- ./inp_files/173193.got.cif
#   From: 2010.05.17/outbox.cif.g08.bks.cpg/sg15_87_cif.got.tgz:173193.got - 2010.06.03 18:47:42.
