data_PCOD9267606
_publ_section_title
;
Structure prediction by ZEFSAII (Michael W. Deem and Ramdas Pophale) SiO2 
 PCOD9267606
Probable space group: C 2/C
;
_chemical_formula_sum "Si O2"
_cell_formula_units_Z 60
_cell_length_a 17.172376
_cell_length_b 8.390069
_cell_length_c 22.664783
_cell_angle_alpha 90.000000
_cell_angle_beta 117.523208
_cell_angle_gamma 90.000000
_cell_volume 2895.908201
_symmetry_space_group_name_H-M "C 2/C"
_symmetry_group_IT_number 15
_symmetry_cell_setting 'monoclinic'
loop_
_space_group_symop_operation_xyz
x,y,z
-x,y,1/2-z
-x,-y,-z
x,-y,1/2+z
1/2+x,1/2+y,z
1/2-x,1/2+y,1/2-z
1/2-x,1/2-y,-z
1/2+x,1/2-y,1/2+z
loop_
_atom_site_type_symbol
_atom_site_label
_atom_site_fract_x
_atom_site_fract_y
_atom_site_fract_z
Si Si1 0.054067 0.882026 0.459758
Si Si2 0.500000 0.640977 0.750000
Si Si3 0.470226 0.369993 0.645781
Si Si4 0.312132 0.322503 0.202003
Si Si5 0.318238 0.802561 0.573046
Si Si6 0.134832 0.076786 0.587903
Si Si7 0.705649 0.822100 0.425149
Si Si8 0.666280 0.379838 0.716376
O O1 0.092745 0.762758 0.425295
O O2 0.957363 0.830534 0.445419
O O3 0.039549 0.051935 0.422123
O O4 0.117323 0.928686 0.536260
O O5 0.467374 0.520185 0.688433
O O6 0.585304 0.731245 0.755608
O O7 0.384558 0.263684 0.623845
O O8 0.568966 0.301317 0.688980
O O9 0.295246 0.277930 0.127778
O O10 0.311275 0.509223 0.219686
O O11 0.243062 0.234464 0.220350
O O12 0.250000 0.750000 0.500000
O O13 0.317465 0.991914 0.576670
O O14 0.216908 0.179327 0.595750
O O15 0.152373 0.006678 0.658357
O O16 0.750000 0.750000 0.500000
#
# Coordination Sequence:
#
# PCOD9267606 Si02
#       8
#     8   4   8   8   8   8   8   8
#     4  10  19  39  68  90 128 180 223 267 337 404
#     4  10  22  42  72  88 132 190 224 264 352 404
#     4  10  21  40  63  94 131 179 222 268 336 402
#     4  11  23  45  67  98 134 180 226 277 338 412
#     4  12  22  42  70 101 132 177 230 278 340 402
#     4  10  20  38  67  91 132 174 216 272 335 394
#     4  12  23  40  66 104 138 172 225 286 343 396
#     4  10  23  44  64  93 134 178 223 271 343 402
#
# _framework density 20.718889999999998
#
# number of rings (size 3 to 8) (size 9 to 14) (size 15 to 20)
#    0.000    1.333    5.333    0.000    0.000    2.133 
#    2.400    2.000    0.000    0.000    0.000    0.000 
#    0.000    0.000    0.000    0.000    0.000    0.000 
#
# Total GULP energy -167316.585131 kJ/mol
# GULP energy per Si atom -5577.219504 kJ/mol
# Density = 2.067173 g / cm^3
# Si number density = 20.718890 Si / 1000 Ang^3
#
#
#
# Elastic Constant Matrix: (Units=GPa)
#
#
# Indices 1 2 3 4 5 6 
#
# 1 197.6830 55.8438 35.3999 0.0000 28.0900 0.0000
# 2 55.8438 50.2638 51.0118 0.0000 12.6050 0.0000
# 3 35.3999 51.0118 104.5355 0.0000 1.6566 0.0000
# 4 0.0000 0.0000 0.0000 27.9921 0.0000 3.4584
# 5 28.0900 12.6050 1.6566 0.0000 38.2380 0.0000
# 6 0.0000 0.0000 0.0000 3.4584 0.0000 43.2665
#
#
#
# Elastic Compliance Matrix: (Units=1/GPa)
#
#
# Indices 1 2 3 4 5 6 
#
# 1 0.008048 -0.011138 0.002747 0.000000 -0.002360 0.000000
# 2 -0.011138 0.061435 -0.026034 0.000000 -0.010942 0.000000
# 3 0.002747 -0.026034 0.021251 0.000000 0.005643 0.000000
# 4 0.000000 0.000000 0.000000 0.036081 0.000000 -0.002884
# 5 -0.002360 -0.010942 0.005643 0.000000 0.031248 0.000000
# 6 0.000000 0.000000 0.000000 -0.002884 0.000000 0.023343
#
#
# Mechanical properties :
#
#
# Convention : Reuss Voigt Hill
#
# Bulk Modulus (GPa) = 45.69566 70.77703 58.23635
# Shear Modulus (GPa) = 19.41357 35.91445 27.66401
#
# Velocity S-wave (km/s) = 3.06436 4.16795 3.65801
# Velocity P-wave (km/s) = 5.88416 7.57609 6.78309
#
# Compressibility (1/GPa) = 0.02188391
#
# Stress axis : x y z
#
# Youngs Moduli (GPa) = 124.24815 16.27724 47.05703
#
# Poissons Ratio (x) = 0.18130 -0.12927
# Poissons Ratio (y) = 1.38389 1.22510
# Poissons Ratio (z) = -0.34132 0.42377
#
# Static dielectric constant tensor:
#      x y z
#    x 1.853380 0.000000 0.029370 
#    y 0.000000 1.557440 0.000000 
#    z 0.029370 0.000000 1.802940 
# 
# From -- ./inp_files/276570.got.cif
#   From: 2010.05.17/outbox.cif.g08.bks.cpg/sg15_139_cif.got.tgz:276570.got - 2010.06.03 18:47:42.
