data_PCOD9267420
_publ_section_title
;
Structure prediction by ZEFSAII (Michael W. Deem and Ramdas Pophale) SiO2 
 PCOD9267420
Probable space group: C 2/C
;
_chemical_formula_sum "Si O2"
_cell_formula_units_Z 56
_cell_length_a 24.275470
_cell_length_b 19.312762
_cell_length_c 8.664290
_cell_angle_alpha 90.000000
_cell_angle_beta 39.615277
_cell_angle_gamma 90.000000
_cell_volume 2590.081067
_symmetry_space_group_name_H-M "C 2/C"
_symmetry_group_IT_number 15
_symmetry_cell_setting 'monoclinic'
loop_
_space_group_symop_operation_xyz
x,y,z
-x,y,1/2-z
-x,-y,-z
x,-y,1/2+z
1/2+x,1/2+y,z
1/2-x,1/2+y,1/2-z
1/2-x,1/2-y,-z
1/2+x,1/2-y,1/2+z
loop_
_atom_site_type_symbol
_atom_site_label
_atom_site_fract_x
_atom_site_fract_y
_atom_site_fract_z
Si Si1 0.593107 0.809830 0.558864
Si Si2 0.216575 0.137985 0.796798
Si Si3 0.728073 0.511445 0.988354
Si Si4 0.275864 0.103595 0.168794
Si Si5 0.950232 0.942480 0.018264
Si Si6 0.341462 0.239221 0.890485
Si Si7 0.132487 0.174646 0.657185
O O1 0.500000 0.846548 0.750000
O O2 0.681215 0.853077 0.389078
O O3 0.595470 0.772947 0.386434
O O4 0.605568 0.750312 0.661275
O O5 0.197550 0.064219 0.919899
O O6 0.198318 0.164334 0.660645
O O7 0.154305 0.191822 0.020058
O O8 0.787228 0.452002 0.782072
O O9 0.773089 0.558793 0.019274
O O10 0.647831 0.472350 0.243643
O O11 0.181962 0.137343 0.408607
O O12 0.335272 0.170677 0.011172
O O13 0.948207 0.870094 0.112465
O O14 0.000000 0.934471 0.750000
O O15 0.000000 0.000000 0.000000
O O16 0.250000 0.250000 0.000000
#
# Coordination Sequence:
#
# PCOD9267420 Si02
#       7
#     8   8   8   8   8   8   8
#     4  11  23  39  62  93 124 167 206 274 328 366
#     4  11  21  41  65  91 123 170 224 264 301 388
#     4  11  21  36  61  87 125 171 216 251 315 384
#     4  11  20  37  59  94 115 162 217 257 306 376
#     4  11  23  37  52  90 135 166 197 250 304 380
#     4  10  19  39  63  84 124 164 213 260 313 380
#     4  11  22  37  63  91 127 173 214 248 312 390
#
# _framework density 21.620946
#
# number of rings (size 3 to 8) (size 9 to 14) (size 15 to 20)
#    0.000    1.143    5.714    4.714    0.000    4.000 
#    0.000    0.000    0.000    0.857    0.000    0.000 
#    0.000    0.000    0.000    0.000    0.000    0.000 
#
# Total GULP energy -155890.415256 kJ/mol
# GULP energy per Si atom -5567.514831 kJ/mol
# Density = 2.157174 g / cm^3
# Si number density = 21.620946 Si / 1000 Ang^3
#
#
#
# Elastic Constant Matrix: (Units=GPa)
#
#
# Indices 1 2 3 4 5 6 
#
# 1 46.1973 -0.4627 30.3226 0.0000 6.7106 0.0000
# 2 -0.4627 34.1351 -2.2138 0.0000 16.1303 0.0000
# 3 30.3226 -2.2138 67.9597 0.0000 16.8933 0.0000
# 4 0.0000 0.0000 0.0000 37.0428 0.0000 11.1959
# 5 6.7106 16.1303 16.8933 0.0000 32.3021 0.0000
# 6 0.0000 0.0000 0.0000 11.1959 0.0000 22.0065
#
#
#
# Elastic Compliance Matrix: (Units=1/GPa)
#
#
# Indices 1 2 3 4 5 6 
#
# 1 0.030674 -0.001290 -0.014143 0.000000 0.001668 0.000000
# 2 -0.001290 0.041441 0.008049 0.000000 -0.024636 0.000000
# 3 -0.014143 0.008049 0.024777 0.000000 -0.014039 0.000000
# 4 0.000000 0.000000 0.000000 0.031901 0.000000 -0.016230
# 5 0.001668 -0.024636 -0.014039 0.000000 0.050255 0.000000
# 6 0.000000 0.000000 0.000000 -0.016230 0.000000 0.053698
#
#
# Mechanical properties :
#
#
# Convention : Reuss Voigt Hill
#
# Bulk Modulus (GPa) = 12.17646 22.62048 17.39847
# Shear Modulus (GPa) = 18.18917 26.31336 22.25127
#
# Velocity S-wave (km/s) = 2.90362 3.49238 3.21152
# Velocity P-wave (km/s) = 4.10918 5.17178 4.67080
#
# Compressibility (1/GPa) = 0.08212566
#
# Stress axis : x y z
#
# Youngs Moduli (GPa) = 32.60076 24.13053 40.35996
#
# Poissons Ratio (x) = 0.03112 0.57081
# Poissons Ratio (y) = 0.04204 -0.32487
# Poissons Ratio (z) = 0.46107 -0.19423
#
# Static dielectric constant tensor:
#      x y z
#    x 1.915690 0.000000 -0.023710 
#    y 0.000000 1.846030 0.000000 
#    z -0.023710 0.000000 1.861880 
# 
# From -- ./inp_files/67122.got.cif
#   From: 2010.05.17/outbox.cif.g08.bks.cpg/sg15_34_cif.got.tgz:67122.got - 2010.06.03 18:47:42.
