data_PCOD9267583
_publ_section_title
;
Structure prediction by ZEFSAII (Michael W. Deem and Ramdas Pophale) SiO2 
 PCOD9267583
Probable space group: C 2/C
;
_chemical_formula_sum "Si O2"
_cell_formula_units_Z 52
_cell_length_a 11.008134
_cell_length_b 17.906422
_cell_length_c 14.920493
_cell_angle_alpha 90.000000
_cell_angle_beta 59.635507
_cell_angle_gamma 90.000000
_cell_volume 2537.636855
_symmetry_space_group_name_H-M "C 2/C"
_symmetry_group_IT_number 15
_symmetry_cell_setting 'monoclinic'
loop_
_space_group_symop_operation_xyz
x,y,z
-x,y,1/2-z
-x,-y,-z
x,-y,1/2+z
1/2+x,1/2+y,z
1/2-x,1/2+y,1/2-z
1/2-x,1/2-y,-z
1/2+x,1/2-y,1/2+z
loop_
_atom_site_type_symbol
_atom_site_label
_atom_site_fract_x
_atom_site_fract_y
_atom_site_fract_z
Si Si1 0.608146 0.474787 0.279172
Si Si2 0.554848 0.648910 0.325241
Si Si3 0.738771 0.956379 0.106701
Si Si4 0.645316 0.828882 0.836296
Si Si5 0.163991 0.523074 0.436064
Si Si6 0.500000 0.926655 0.750000
Si Si7 0.679541 0.302116 0.452420
O O1 0.500000 0.437400 0.250000
O O2 0.561703 0.560307 0.309180
O O3 0.631089 0.450832 0.372634
O O4 0.755278 0.476275 0.169918
O O5 0.500000 0.680929 0.250000
O O6 0.714889 0.675415 0.276867
O O7 0.454532 0.664982 0.445189
O O8 0.708659 0.867698 0.112119
O O9 0.630427 0.016339 0.189085
O O10 0.742401 0.983266 0.002203
O O11 0.676903 0.890504 0.901568
O O12 0.526244 0.871037 0.823406
O O13 0.628836 0.749093 0.888744
O O14 0.000000 0.500000 0.500000
O O15 0.750000 0.250000 0.500000
#
# Coordination Sequence:
#
# PCOD9267583 Si02
#       7
#     8   8   8   8   8   4   8
#     4  10  22  40  62  96 133 169 224 296 328 395
#     4  10  19  39  67  90 129 175 217 270 344 394
#     4  12  22  40  70  97 125 179 234 272 337 410
#     4  11  23  45  62  96 143 173 217 290 345 407
#     4  11  20  37  67  98 130 168 233 283 336 400
#     4  12  24  46  72  94 132 188 228 280 344 404
#     4  12  24  39  65 104 134 173 221 282 343 413
#
# _framework density 20.491505
#
# number of rings (size 3 to 8) (size 9 to 14) (size 15 to 20)
#    0.000    0.923    7.692    1.846    0.000    3.692 
#    4.154    0.769    0.000    0.000    0.000    0.000 
#    0.000    0.000    0.000    0.000    0.000    0.000 
#
# Total GULP energy -144831.911719 kJ/mol
# GULP energy per Si atom -5570.458143 kJ/mol
# Density = 2.044487 g / cm^3
# Si number density = 20.491505 Si / 1000 Ang^3
#
#
#
# Elastic Constant Matrix: (Units=GPa)
#
#
# Indices 1 2 3 4 5 6 
#
# 1 95.6031 14.7464 42.0085 0.0000 20.8981 0.0000
# 2 14.7464 67.0999 16.8932 0.0000 4.0441 0.0000
# 3 42.0085 16.8932 83.7867 0.0000 10.4403 0.0000
# 4 0.0000 0.0000 0.0000 32.5701 0.0000 11.1122
# 5 20.8981 4.0441 10.4403 0.0000 51.5208 0.0000
# 6 0.0000 0.0000 0.0000 11.1122 0.0000 25.2297
#
#
#
# Elastic Compliance Matrix: (Units=1/GPa)
#
#
# Indices 1 2 3 4 5 6 
#
# 1 0.014461 -0.001289 -0.006435 0.000000 -0.004461 0.000000
# 2 -0.001289 0.015834 -0.002520 0.000000 -0.000209 0.000000
# 3 -0.006435 -0.002520 0.015716 0.000000 -0.000377 0.000000
# 4 0.000000 0.000000 0.000000 0.036133 0.000000 -0.015914
# 5 -0.004461 -0.000209 -0.000377 0.000000 0.021312 0.000000
# 6 0.000000 0.000000 0.000000 -0.015914 0.000000 0.046645
#
#
# Mechanical properties :
#
#
# Convention : Reuss Voigt Hill
#
# Bulk Modulus (GPa) = 39.17988 43.75400 41.46694
# Shear Modulus (GPa) = 27.91793 33.38691 30.65242
#
# Velocity S-wave (km/s) = 3.69509 4.04084 3.87183
# Velocity P-wave (km/s) = 6.11282 6.57038 6.34572
#
# Compressibility (1/GPa) = 0.02552330
#
# Stress axis : x y z
#
# Youngs Moduli (GPa) = 69.15001 63.15718 63.62816
#
# Poissons Ratio (x) = 0.08143 0.40943
# Poissons Ratio (y) = 0.08915 0.16034
# Poissons Ratio (z) = 0.44496 0.15915
#
# Static dielectric constant tensor:
#      x y z
#    x 1.845900 0.000000 0.010770 
#    y 0.000000 1.742180 0.000000 
#    z 0.010770 0.000000 1.803900 
# 
# From -- ./inp_files/145486.got.cif
#   From: 2010.05.17/outbox.cif.g08.bks.cpg/sg15_73_cif.got.tgz:145486.got - 2010.06.03 18:47:42.
