data_PCOD9267527
_publ_section_title
;
Structure prediction by ZEFSAII (Michael W. Deem and Ramdas Pophale) SiO2 
 PCOD9267527
Probable space group: C 2/C
;
_chemical_formula_sum "Si O2"
_cell_formula_units_Z 64
_cell_length_a 27.291078
_cell_length_b 19.975457
_cell_length_c 11.601012
_cell_angle_alpha 90.000000
_cell_angle_beta 151.236224
_cell_angle_gamma 90.000000
_cell_volume 3043.256127
_symmetry_space_group_name_H-M "C 2/C"
_symmetry_group_IT_number 15
_symmetry_cell_setting 'monoclinic'
loop_
_space_group_symop_operation_xyz
x,y,z
-x,y,1/2-z
-x,-y,-z
x,-y,1/2+z
1/2+x,1/2+y,z
1/2-x,1/2+y,1/2-z
1/2-x,1/2-y,-z
1/2+x,1/2-y,1/2+z
loop_
_atom_site_type_symbol
_atom_site_label
_atom_site_fract_x
_atom_site_fract_y
_atom_site_fract_z
Si Si1 0.457207 0.746062 0.956620
Si Si2 0.787507 0.081085 0.005279
Si Si3 0.800541 0.764274 0.920260
Si Si4 0.164223 0.794945 0.762299
Si Si5 0.135384 0.372163 0.652547
Si Si6 0.883706 0.483413 0.499259
Si Si7 0.359444 0.350404 0.432935
Si Si8 0.262422 0.544988 0.591219
O O1 0.369040 0.737495 0.676801
O O2 0.455473 0.823346 0.994781
O O3 0.434041 0.699477 0.019151
O O4 0.560773 0.723351 0.113310
O O5 0.794569 0.130613 0.127984
O O6 0.859890 0.117468 0.061022
O O7 0.679909 0.065025 0.718961
O O8 0.810066 0.008096 0.101946
O O9 0.853513 0.780548 0.908714
O O10 0.713531 0.821021 0.753176
O O11 0.744497 0.693362 0.786601
O O12 0.250000 0.750000 0.000000
O O13 0.109871 0.439903 0.532260
O O14 0.196125 0.400839 0.886558
O O15 0.816091 0.484625 0.476195
O O16 0.000000 0.459176 0.750000
O O17 0.350761 0.415827 0.337112
#
# Coordination Sequence:
#
# PCOD9267527 Si02
#       8
#     8   8   8   8   8   8   8   8
#     4  11  23  40  71  94 130 176 226 278 323 408
#     4  10  23  41  62  94 134 174 211 281 333 387
#     4  11  20  42  68  93 132 172 224 273 329 402
#     4  12  26  42  60  99 133 170 217 279 346 388
#     4  10  20  38  67  96 125 169 223 274 327 390
#     4  10  23  39  62  97 136 183 223 266 335 414
#     4  10  19  42  67  95 126 170 224 267 339 391
#     4  10  19  39  65  88 130 172 216 270 329 393
#
# _framework density 21.030106
#
# number of rings (size 3 to 8) (size 9 to 14) (size 15 to 20)
#    0.000    1.500    3.750    1.875    0.000    5.500 
#    0.000    0.625    0.000    0.000    0.000    0.000 
#    0.000    0.000    0.000    0.000    0.000    0.000 
#
# Total GULP energy -178450.250450 kJ/mol
# GULP energy per Si atom -5576.570327 kJ/mol
# Density = 2.098224 g / cm^3
# Si number density = 21.030106 Si / 1000 Ang^3
#
#
#
# Elastic Constant Matrix: (Units=GPa)
#
#
# Indices 1 2 3 4 5 6 
#
# 1 104.9914 49.1625 31.3489 0.0000 -10.4430 0.0000
# 2 49.1625 101.4537 24.1998 0.0000 0.8514 0.0000
# 3 31.3489 24.1998 37.2058 0.0000 6.8462 0.0000
# 4 0.0000 0.0000 0.0000 23.8433 0.0000 -10.6916
# 5 -10.4430 0.8514 6.8462 0.0000 28.0162 0.0000
# 6 0.0000 0.0000 0.0000 -10.6916 0.0000 35.1807
#
#
#
# Elastic Compliance Matrix: (Units=1/GPa)
#
#
# Indices 1 2 3 4 5 6 
#
# 1 0.016540 -0.005160 -0.012296 0.000000 0.009327 0.000000
# 2 -0.005160 0.013343 -0.004086 0.000000 -0.001331 0.000000
# 3 -0.012296 -0.004086 0.042633 0.000000 -0.014877 0.000000
# 4 0.000000 0.000000 0.000000 0.048558 0.000000 0.014757
# 5 0.009327 -0.001331 -0.014877 0.000000 0.042846 0.000000
# 6 0.000000 0.000000 0.000000 0.014757 0.000000 0.032909
#
#
# Mechanical properties :
#
#
# Convention : Reuss Voigt Hill
#
# Bulk Modulus (GPa) = 33.97716 50.34148 42.15932
# Shear Modulus (GPa) = 20.02205 26.67070 23.34638
#
# Velocity S-wave (km/s) = 3.08890 3.56506 3.33549
# Velocity P-wave (km/s) = 5.37711 6.39813 5.90971
#
# Compressibility (1/GPa) = 0.02943153
#
# Stress axis : x y z
#
# Youngs Moduli (GPa) = 60.45933 74.94528 23.45592
#
# Poissons Ratio (x) = 0.38674 0.28842
# Poissons Ratio (y) = 0.31199 0.09584
# Poissons Ratio (z) = 0.74342 0.30622
#
# Static dielectric constant tensor:
#      x y z
#    x 1.815020 0.000000 -0.022870 
#    y 0.000000 1.454740 0.000000 
#    z -0.022870 0.000000 1.810800 
# 
# From -- ./inp_files/124306.got.cif
#   From: 2010.05.17/outbox.cif.g08.bks.cpg/sg15_63_cif.got.tgz:124306.got - 2010.06.03 18:47:42.
