data_PCOD9267248
_publ_section_title
;
Structure prediction by ZEFSAII (Michael W. Deem and Ramdas Pophale) SiO2 
 PCOD9267248
Probable space group: C 2/C
;
_chemical_formula_sum "Si O2"
_cell_formula_units_Z 56
_cell_length_a 10.006676
_cell_length_b 18.381717
_cell_length_c 14.855949
_cell_angle_alpha 90.000000
_cell_angle_beta 84.148822
_cell_angle_gamma 90.000000
_cell_volume 2718.364842
_symmetry_space_group_name_H-M "C 2/C"
_symmetry_group_IT_number 15
_symmetry_cell_setting 'monoclinic'
loop_
_space_group_symop_operation_xyz
x,y,z
-x,y,1/2-z
-x,-y,-z
x,-y,1/2+z
1/2+x,1/2+y,z
1/2-x,1/2+y,1/2-z
1/2-x,1/2-y,-z
1/2+x,1/2-y,1/2+z
loop_
_atom_site_type_symbol
_atom_site_label
_atom_site_fract_x
_atom_site_fract_y
_atom_site_fract_z
Si Si1 0.598863 0.603055 0.660876
Si Si2 0.697860 0.996531 0.424058
Si Si3 0.170803 0.303878 0.072145
Si Si4 0.299708 0.763323 0.894108
Si Si5 0.481934 0.888930 0.946294
Si Si6 0.102567 0.098230 0.979331
Si Si7 0.985447 0.188782 0.155338
O O1 0.500000 0.595081 0.750000
O O2 0.727803 0.550893 0.656072
O O3 0.640743 0.687202 0.644528
O O4 0.516969 0.577563 0.577997
O O5 0.625293 0.939578 0.495582
O O6 0.589878 0.055534 0.395936
O O7 0.804406 0.040595 0.476828
O O8 0.087320 0.257905 0.149621
O O9 0.250000 0.250000 0.000000
O O10 0.291370 0.357052 0.090738
O O11 0.063484 0.346211 0.018296
O O12 0.408762 0.828406 0.890905
O O13 0.167139 0.787199 0.849867
O O14 0.250000 0.750000 0.000000
O O15 0.035151 0.144321 0.064978
O O16 0.000000 0.149332 0.250000
#
# Coordination Sequence:
#
# PCOD9267248 Si02
#       7
#     8   8   8   8   8   8   8
#     4  12  25  40  66  97 133 174 224 276 334 404
#     4  10  21  39  66  92 124 170 220 272 335 404
#     4   9  17  33  57  87 124 161 203 258 321 390
#     4  12  20  41  67  94 130 168 222 277 333 395
#     4  10  19  38  70  92 120 167 220 274 335 395
#     4  10  21  39  61  88 128 174 214 258 334 395
#     4  11  22  35  61  95 129 165 215 273 329 388
#
# _framework density 20.600619999999999
#
# number of rings (size 3 to 8) (size 9 to 14) (size 15 to 20)
#    0.000    1.429    4.286    1.286    2.000    0.571 
#    0.000    0.000    0.000    1.714    0.000    0.000 
#    0.000    0.000    0.000    0.000    0.000    0.000 
#
# Total GULP energy -156273.543156 kJ/mol
# GULP energy per Si atom -5581.197970 kJ/mol
# Density = 2.055373 g / cm^3
# Si number density = 20.600620 Si / 1000 Ang^3
#
#
#
# Elastic Constant Matrix: (Units=GPa)
#
#
# Indices 1 2 3 4 5 6 
#
# 1 123.1897 59.1214 31.5980 0.0000 -11.9935 0.0000
# 2 59.1214 102.7631 16.3460 0.0000 -22.6791 0.0000
# 3 31.5980 16.3460 74.9295 0.0000 -14.1262 0.0000
# 4 0.0000 0.0000 0.0000 3.5267 0.0000 -5.4527
# 5 -11.9935 -22.6791 -14.1262 0.0000 28.0388 0.0000
# 6 0.0000 0.0000 0.0000 -5.4527 0.0000 52.0908
#
#
#
# Elastic Compliance Matrix: (Units=1/GPa)
#
#
# Indices 1 2 3 4 5 6 
#
# 1 0.012268 -0.006942 -0.004120 0.000000 -0.002443 0.000000
# 2 -0.006942 0.015824 0.001468 0.000000 0.010569 0.000000
# 3 -0.004120 0.001468 0.016192 0.000000 0.007583 0.000000
# 4 0.000000 0.000000 0.000000 0.338305 0.000000 0.035413
# 5 -0.002443 0.010569 0.007583 0.000000 0.046989 0.000000
# 6 0.000000 0.000000 0.000000 0.035413 0.000000 0.022904
#
#
# Mechanical properties :
#
#
# Convention : Reuss Voigt Hill
#
# Bulk Modulus (GPa) = 39.84452 57.22368 48.53410
# Shear Modulus (GPa) = 10.41590 29.65238 20.03414
#
# Velocity S-wave (km/s) = 2.25102 3.79805 3.12188
# Velocity P-wave (km/s) = 5.11268 6.86087 6.05025
#
# Compressibility (1/GPa) = 0.02509755
#
# Stress axis : x y z
#
# Youngs Moduli (GPa) = 81.51359 63.19554 61.75699
#
# Poissons Ratio (x) = 0.43869 0.25441
# Poissons Ratio (y) = 0.56585 -0.09066
# Poissons Ratio (z) = 0.33580 -0.09277
#
# Static dielectric constant tensor:
#      x y z
#    x 1.733070 0.000000 -0.018810 
#    y 0.000000 1.792210 0.000000 
#    z -0.018810 0.000000 1.694580 
# 
# From -- ./inp_files/136429.got.cif
#   From: 2010.05.17/outbox.cif.g08.bks.cpg/sg15_69_cif.got.tgz:136429.got - 2010.06.03 18:47:42.
