data_PCOD9267579
_publ_section_title
;
Structure prediction by ZEFSAII (Michael W. Deem and Ramdas Pophale) SiO2 
 PCOD9267579
Probable space group: C 2/C
;
_chemical_formula_sum "Si O2"
_cell_formula_units_Z 56
_cell_length_a 12.617024
_cell_length_b 12.421332
_cell_length_c 20.196433
_cell_angle_alpha 90.000000
_cell_angle_beta 64.234899
_cell_angle_gamma 90.000000
_cell_volume 2850.518452
_symmetry_space_group_name_H-M "C 2/C"
_symmetry_group_IT_number 15
_symmetry_cell_setting 'monoclinic'
loop_
_space_group_symop_operation_xyz
x,y,z
-x,y,1/2-z
-x,-y,-z
x,-y,1/2+z
1/2+x,1/2+y,z
1/2-x,1/2+y,1/2-z
1/2-x,1/2-y,-z
1/2+x,1/2-y,1/2+z
loop_
_atom_site_type_symbol
_atom_site_label
_atom_site_fract_x
_atom_site_fract_y
_atom_site_fract_z
Si Si1 0.370220 0.503857 0.955684
Si Si2 0.215712 0.317422 0.945194
Si Si3 0.706319 0.694358 0.815435
Si Si4 0.572566 0.262852 0.105408
Si Si5 0.727610 0.761590 0.349026
Si Si6 0.137365 0.977889 0.888564
Si Si7 0.547458 0.121230 0.992638
O O1 0.274318 0.435406 0.940985
O O2 0.373569 0.632748 0.946540
O O3 0.502916 0.471870 0.900094
O O4 0.360159 0.480429 0.036392
O O5 0.252801 0.262713 0.865726
O O6 0.250000 0.250000 0.000000
O O7 0.074248 0.314520 0.983779
O O8 0.566925 0.722711 0.847304
O O9 0.769336 0.717350 0.729598
O O10 0.708941 0.567100 0.829132
O O11 0.642368 0.264173 0.154820
O O12 0.592330 0.158822 0.053066
O O13 0.685395 0.640966 0.372931
O O14 0.642327 0.842549 0.412481
O O15 0.500000 0.000000 0.000000
#
# Coordination Sequence:
#
# PCOD9267579 Si02
#       7
#     8   8   8   8   8   8   8
#     4  10  19  39  67  89 113 159 220 256 289 368
#     4  11  21  38  64  88 119 162 204 257 306 368
#     4  10  24  41  59  93 128 160 206 261 322 370
#     4  10  22  40  63  89 117 167 216 252 302 375
#     4  12  23  40  63  92 129 164 204 264 317 377
#     4  10  21  38  65  90 117 160 211 255 304 370
#     4  11  24  37  59  94 126 158 210 254 307 377
#
# _framework density 19.645548999999999
#
# number of rings (size 3 to 8) (size 9 to 14) (size 15 to 20)
#    0.000    1.429    2.857    2.571    2.000    3.429 
#    0.000    4.286    0.000    0.000    0.000    0.000 
#    0.000    0.000    0.000    0.000    0.000    0.000 
#
# Total GULP energy -156295.496221 kJ/mol
# GULP energy per Si atom -5581.982008 kJ/mol
# Density = 1.960084 g / cm^3
# Si number density = 19.645549 Si / 1000 Ang^3
#
#
#
# Elastic Constant Matrix: (Units=GPa)
#
#
# Indices 1 2 3 4 5 6 
#
# 1 62.7583 7.7725 8.7037 0.0000 12.0148 0.0000
# 2 7.7725 98.8515 26.7634 0.0000 3.6045 0.0000
# 3 8.7037 26.7634 91.5822 0.0000 16.2235 0.0000
# 4 0.0000 0.0000 0.0000 11.8463 0.0000 6.8431
# 5 12.0148 3.6045 16.2235 0.0000 25.1993 0.0000
# 6 0.0000 0.0000 0.0000 6.8431 0.0000 32.0971
#
#
#
# Elastic Compliance Matrix: (Units=1/GPa)
#
#
# Indices 1 2 3 4 5 6 
#
# 1 0.017651 -0.001118 0.000126 0.000000 -0.008337 0.000000
# 2 -0.001118 0.011063 -0.003319 0.000000 0.001088 0.000000
# 3 0.000126 -0.003319 0.013323 0.000000 -0.008163 0.000000
# 4 0.000000 0.000000 0.000000 0.096271 0.000000 -0.020525
# 5 -0.008337 0.001088 -0.008163 0.000000 0.048759 0.000000
# 6 0.000000 0.000000 0.000000 -0.020525 0.000000 0.035531
#
#
# Mechanical properties :
#
#
# Convention : Reuss Voigt Hill
#
# Bulk Modulus (GPa) = 29.92671 37.74126 33.83399
# Shear Modulus (GPa) = 20.63047 27.82535 24.22791
#
# Velocity S-wave (km/s) = 3.24409 3.76755 3.51558
# Velocity P-wave (km/s) = 5.41282 6.17889 5.80850
#
# Compressibility (1/GPa) = 0.03341496
#
# Stress axis : x y z
#
# Youngs Moduli (GPa) = 56.65313 90.39009 75.05667
#
# Poissons Ratio (x) = 0.10106 -0.00947
# Poissons Ratio (y) = 0.06334 0.24915
# Poissons Ratio (z) = -0.00715 0.30005
#
# Static dielectric constant tensor:
#      x y z
#    x 1.719560 0.000000 0.004670 
#    y 0.000000 1.720690 0.000000 
#    z 0.004670 0.000000 1.673510 
# 
# From -- ./inp_files/237546.got.cif
#   From: 2010.05.17/outbox.cif.g08.bks.cpg/sg15_119_cif.got.tgz:237546.got - 2010.06.03 18:47:42.
