data_PCOD9267867
_publ_section_title
;
Structure prediction by ZEFSAII (Michael W. Deem and Ramdas Pophale) SiO2 
 PCOD9267867
Probable space group: C 2/C
;
_chemical_formula_sum "Si O2"
_cell_formula_units_Z 52
_cell_length_a 12.372474
_cell_length_b 23.965142
_cell_length_c 14.967384
_cell_angle_alpha 90.000000
_cell_angle_beta 143.421435
_cell_angle_gamma 90.000000
_cell_volume 2644.683411
_symmetry_space_group_name_H-M "C 2/C"
_symmetry_group_IT_number 15
_symmetry_cell_setting 'monoclinic'
loop_
_space_group_symop_operation_xyz
x,y,z
-x,y,1/2-z
-x,-y,-z
x,-y,1/2+z
1/2+x,1/2+y,z
1/2-x,1/2+y,1/2-z
1/2-x,1/2-y,-z
1/2+x,1/2-y,1/2+z
loop_
_atom_site_type_symbol
_atom_site_label
_atom_site_fract_x
_atom_site_fract_y
_atom_site_fract_z
Si Si1 0.288772 0.789184 0.609842
Si Si2 0.124172 0.629095 0.966837
Si Si3 0.500000 0.789043 0.250000
Si Si4 0.326094 0.207982 0.811329
Si Si5 0.905548 0.992903 0.032055
Si Si6 0.500000 0.578971 0.250000
Si Si7 0.495013 0.631021 0.640924
Si Si8 0.500000 0.964938 0.250000
O O1 0.500000 0.798650 0.750000
O O2 0.250000 0.750000 0.500000
O O3 0.216291 0.755759 0.646936
O O4 0.184622 0.845818 0.524037
O O5 0.145451 0.671180 0.896872
O O6 0.992272 0.665357 0.942317
O O7 0.023699 0.575895 0.853209
O O8 0.314637 0.613554 0.135252
O O9 0.612981 0.764337 0.242815
O O10 0.155678 0.165634 0.699481
O O11 0.687031 0.999832 0.874173
O O12 0.982343 0.934967 0.121743
O O13 0.000000 0.000000 0.000000
O O14 0.966490 0.040928 0.141079
O O15 0.500000 0.645135 0.750000
#
# Coordination Sequence:
#
# PCOD9267867 Si02
#       8
#     8   8   4   8   8   4   8   4
#     4  12  23  44  67  92 126 171 220 270 313 380
#     4   8  17  36  66  88 128 163 203 260 323 382
#     4   7  18  36  66  91 124 170 201 252 339 380
#     4  10  19  40  68  89 128 169 210 260 332 377
#     4  11  24  41  63  95 131 172 213 269 324 383
#     4  10  20  40  60 101 132 164 217 264 314 390
#     4  12  24  43  66  90 129 175 218 262 323 380
#     4   9  18  40  58  92 132 162 210 260 321 390
#
# _framework density 19.662089999999999
#
# number of rings (size 3 to 8) (size 9 to 14) (size 15 to 20)
#    0.923    0.923    3.846    0.923    3.231    0.000 
#    5.538    3.077    0.000    0.923    0.000    0.000 
#    0.000    0.000    0.000    0.000    0.000    0.000 
#
# Total GULP energy -144796.206849 kJ/mol
# GULP energy per Si atom -5569.084879 kJ/mol
# Density = 1.961734 g / cm^3
# Si number density = 19.662090 Si / 1000 Ang^3
#
#
#
# Elastic Constant Matrix: (Units=GPa)
#
#
# Indices 1 2 3 4 5 6 
#
# 1 143.4458 28.6084 50.1271 0.0000 -2.6437 0.0000
# 2 28.6084 42.0758 20.3616 0.0000 2.6151 0.0000
# 3 50.1271 20.3616 126.5548 0.0000 22.2214 0.0000
# 4 0.0000 0.0000 0.0000 21.2187 0.0000 1.3010
# 5 -2.6437 2.6151 22.2214 0.0000 22.4238 0.0000
# 6 0.0000 0.0000 0.0000 1.3010 0.0000 -59.2354
#
#
#
# Elastic Compliance Matrix: (Units=1/GPa)
#
#
# Indices 1 2 3 4 5 6 
#
# 1 0.009412 -0.004846 -0.003925 0.000000 0.005565 0.000000
# 2 -0.004846 0.028301 -0.002366 0.000000 -0.001527 0.000000
# 3 -0.003925 -0.002366 0.011949 0.000000 -0.012028 0.000000
# 4 0.000000 0.000000 0.000000 0.047065 0.000000 0.001034
# 5 0.005565 -0.001527 -0.012028 0.000000 0.057349 0.000000
# 6 0.000000 0.000000 0.000000 0.001034 0.000000 -0.016859
#
#
# Mechanical properties :
#
#
# Convention : Reuss Voigt Hill
#
# Bulk Modulus (GPa) = 36.51202 56.69674 46.60438
# Shear Modulus (GPa) = 29.65230 11.08006 20.36618
#
# Velocity S-wave (km/s) = 3.88763 2.37644 3.22189
# Velocity P-wave (km/s) = 6.22589 6.03557 6.13147
#
# Compressibility (1/GPa) = 0.02738824
#
# Stress axis : x y z
#
# Youngs Moduli (GPa) = 106.24741 35.33420 83.68748
#
# Poissons Ratio (x) = 0.17122 0.32851
# Poissons Ratio (y) = 0.51484 0.19800
# Poissons Ratio (z) = 0.41707 0.08360
#
# Static dielectric constant tensor:
#      x y z
#    x 1.709720 0.000000 -0.070060 
#    y 0.000000 1.706750 0.000000 
#    z -0.070060 0.000000 1.862150 
# 
# From -- ./inp_files/148163.got.cif
#   From: 2010.05.17/outbox.cif.g08.bks.cpg/sg15_75_cif.got.tgz:148163.got - 2010.06.03 18:47:42.
