data_PCOD9267028
_publ_section_title
;
Structure prediction by ZEFSAII (Michael W. Deem and Ramdas Pophale) SiO2 
 PCOD9267028
Probable space group: C 2/C
;
_chemical_formula_sum "Si O2"
_cell_formula_units_Z 48
_cell_length_a 10.609793
_cell_length_b 13.922812
_cell_length_c 30.141972
_cell_angle_alpha 90.000000
_cell_angle_beta 146.643942
_cell_angle_gamma 90.000000
_cell_volume 2448.173003
_symmetry_space_group_name_H-M "C 2/C"
_symmetry_group_IT_number 15
_symmetry_cell_setting 'monoclinic'
loop_
_space_group_symop_operation_xyz
x,y,z
-x,y,1/2-z
-x,-y,-z
x,-y,1/2+z
1/2+x,1/2+y,z
1/2-x,1/2+y,1/2-z
1/2-x,1/2-y,-z
1/2+x,1/2-y,1/2+z
loop_
_atom_site_type_symbol
_atom_site_label
_atom_site_fract_x
_atom_site_fract_y
_atom_site_fract_z
Si Si1 0.634872 0.534360 0.605663
Si Si2 0.365980 0.517295 0.614837
Si Si3 0.500000 0.479417 0.750000
Si Si4 0.365449 0.814124 0.846146
Si Si5 0.948209 0.660494 0.472957
Si Si6 0.148321 0.149072 0.050839
Si Si7 0.000000 0.343167 0.250000
O O1 0.554804 0.531073 0.632901
O O2 0.454236 0.592014 0.521977
O O3 0.651616 0.428247 0.590840
O O4 0.874053 0.591186 0.676750
O O5 0.438662 0.534255 0.686960
O O6 0.161695 0.589924 0.543164
O O7 0.270719 0.407580 0.583544
O O8 0.714165 0.410865 0.799911
O O9 0.594019 0.817543 0.884576
O O10 0.192400 0.727022 0.785991
O O11 0.440484 0.806554 0.919560
O O12 0.990495 0.757721 0.512575
#
# Coordination Sequence:
#
# PCOD9267028 Si02
#       7
#     8   8   4   8   8   8   4
#     4  11  24  38  62  94 127 159 200 262 310 367
#     4  10  21  39  64  90 124 159 211 256 306 367
#     4   9  22  36  61  92 118 164 205 256 309 356
#     4  10  19  38  64  88 116 162 214 249 287 376
#     4  10  19  38  66  89 117 163 214 248 300 370
#     4  11  22  40  62  92 124 164 205 247 313 372
#     4  11  22  38  61  94 120 164 213 252 303 362
#
# _framework density 19.606456999999999
#
# number of rings (size 3 to 8) (size 9 to 14) (size 15 to 20)
#    0.000    1.667    3.333    1.500    2.333    0.667 
#    0.000    0.833   11.000    0.000    0.000    0.000 
#    0.000    0.000    0.000    0.000    0.000    0.000 
#
# Total GULP energy -133967.045702 kJ/mol
# GULP energy per Si atom -5581.960238 kJ/mol
# Density = 1.956183 g / cm^3
# Si number density = 19.606457 Si / 1000 Ang^3
#
#
#
# Elastic Constant Matrix: (Units=GPa)
#
#
# Indices 1 2 3 4 5 6 
#
# 1 60.4699 32.3550 40.3064 0.0000 -7.4919 0.0000
# 2 32.3550 89.1205 21.0562 0.0000 3.0870 0.0000
# 3 40.3064 21.0562 95.3342 0.0002 0.4261 0.0000
# 4 0.0000 0.0000 0.0002 36.1537 0.0001 -3.4485
# 5 -7.4919 3.0870 0.4261 0.0001 17.1518 0.0000
# 6 0.0000 0.0000 0.0000 -3.4485 0.0000 10.5912
#
#
#
# Elastic Compliance Matrix: (Units=1/GPa)
#
#
# Indices 1 2 3 4 5 6 
#
# 1 0.030604 -0.009038 -0.011011 0.000000 0.015268 0.000000
# 2 -0.009038 0.014581 0.000630 0.000000 -0.006588 0.000000
# 3 -0.011011 0.000630 0.015029 0.000000 -0.005296 0.000000
# 4 0.000000 0.000000 0.000000 0.028546 0.000000 0.009295
# 5 0.015268 -0.006588 -0.005296 0.000000 0.066289 0.000000
# 6 0.000000 0.000000 0.000000 0.009295 0.000000 0.097445
#
#
# Mechanical properties :
#
#
# Convention : Reuss Voigt Hill
#
# Bulk Modulus (GPa) = 46.78015 48.03998 47.41007
# Shear Modulus (GPa) = 16.75270 22.85980 19.80625
#
# Velocity S-wave (km/s) = 2.92627 3.41828 3.18180
# Velocity P-wave (km/s) = 5.94380 6.33521 6.14262
#
# Compressibility (1/GPa) = 0.02137659
#
# Stress axis : x y z
#
# Youngs Moduli (GPa) = 32.67506 68.58068 66.53638
#
# Poissons Ratio (x) = 0.61984 0.73265
# Poissons Ratio (y) = 0.29532 -0.04193
# Poissons Ratio (z) = 0.35979 -0.04322
#
# Static dielectric constant tensor:
#      x y z
#    x 1.648220 0.000000 0.017960 
#    y 0.000000 1.722520 0.000000 
#    z 0.017960 0.000000 1.716020 
# 
# From -- ./inp_files/196628.got.cif
#   From: 2010.05.17/outbox.cif.g08.bks.cpg/sg15_99_cif.got.tgz:196628.got - 2010.06.03 18:47:42.
