data_PCOD9267017
_publ_section_title
;
Structure prediction by ZEFSAII (Michael W. Deem and Ramdas Pophale) SiO2 
 PCOD9267017
Probable space group: C 2/C
;
_chemical_formula_sum "Si O2"
_cell_formula_units_Z 48
_cell_length_a 32.661641
_cell_length_b 14.575892
_cell_length_c 5.237307
_cell_angle_alpha 90.000000
_cell_angle_beta 79.806908
_cell_angle_gamma 90.000000
_cell_volume 2453.985631
_symmetry_space_group_name_H-M "C 2/C"
_symmetry_group_IT_number 15
_symmetry_cell_setting 'monoclinic'
loop_
_space_group_symop_operation_xyz
x,y,z
-x,y,1/2-z
-x,-y,-z
x,-y,1/2+z
1/2+x,1/2+y,z
1/2-x,1/2+y,1/2-z
1/2-x,1/2-y,-z
1/2+x,1/2-y,1/2+z
loop_
_atom_site_type_symbol
_atom_site_label
_atom_site_fract_x
_atom_site_fract_y
_atom_site_fract_z
Si Si1 0.654519 0.754592 0.173280
Si Si2 0.795052 0.714057 0.367137
Si Si3 0.748708 0.950252 0.840091
Si Si4 0.079447 0.616379 0.743887
Si Si5 0.453573 0.086991 0.219983
Si Si6 0.152990 0.941233 0.814997
O O1 0.678723 0.787427 0.401629
O O2 0.622851 0.836065 0.136155
O O3 0.633750 0.658086 0.278554
O O4 0.682072 0.732684 0.889661
O O5 0.750000 0.750000 0.500000
O O6 0.784492 0.619234 0.237314
O O7 0.796768 0.922230 0.741601
O O8 0.743728 0.035354 0.648141
O O9 0.048444 0.636488 0.546955
O O10 0.074596 0.505275 0.776901
O O11 0.064954 0.648640 0.036565
O O12 0.500000 0.059471 0.250000
O O13 0.143944 0.012115 0.596133
#
# Coordination Sequence:
#
# PCOD9267017 Si02
#       6
#     8   8   8   8   8   8
#     4  12  24  38  56  81 114 146 182 253 307 334
#     4  12  24  39  55  74 104 151 197 242 298 356
#     4  10  21  37  52  73  93 132 196 243 273 346
#     4  10  20  35  54  86 118 146 183 226 276 321
#     4  10  19  38  64  87 121 160 187 212 260 356
#     4  10  21  36  58  74  97 134 191 248 293 325
#
# _framework density 19.560016000000001
#
# number of rings (size 3 to 8) (size 9 to 14) (size 15 to 20)
#    0.000    1.333    1.667    6.000    4.667    0.000 
#   18.000    0.000    0.000    0.000    0.000    0.000 
#    0.000   22.667    0.000    0.000    0.000    0.000 
#
# Total GULP energy -133714.069436 kJ/mol
# GULP energy per Si atom -5571.419560 kJ/mol
# Density = 1.951550 g / cm^3
# Si number density = 19.560016 Si / 1000 Ang^3
#
#
#
# Elastic Constant Matrix: (Units=GPa)
#
#
# Indices 1 2 3 4 5 6 
#
# 1 56.7895 27.0659 21.4195 0.0000 9.3393 0.0000
# 2 27.0659 44.2987 -5.4648 0.0000 1.6117 0.0000
# 3 21.4195 -5.4648 118.4911 0.0000 11.3249 0.0000
# 4 0.0000 0.0000 0.0000 22.9551 0.0000 4.9390
# 5 9.3393 1.6117 11.3249 0.0000 27.1212 0.0000
# 6 0.0000 0.0000 0.0000 4.9390 0.0000 10.5647
#
#
#
# Elastic Compliance Matrix: (Units=1/GPa)
#
#
# Indices 1 2 3 4 5 6 
#
# 1 0.029680 -0.018575 -0.005573 0.000000 -0.006790 0.000000
# 2 -0.018575 0.034418 0.004717 0.000000 0.002381 0.000000
# 3 -0.005573 0.004717 0.009903 0.000000 -0.002496 0.000000
# 4 0.000000 0.000000 0.000000 0.048435 0.000000 -0.022643
# 5 -0.006790 0.002381 -0.002496 0.000000 0.040111 0.000000
# 6 0.000000 0.000000 0.000000 -0.022643 0.000000 0.105240
#
#
# Mechanical properties :
#
#
# Convention : Reuss Voigt Hill
#
# Bulk Modulus (GPa) = 28.45668 33.95785 31.20727
# Shear Modulus (GPa) = 15.70542 23.89879 19.80210
#
# Velocity S-wave (km/s) = 2.83668 3.49924 3.18524
# Velocity P-wave (km/s) = 5.03081 5.80731 5.43295
#
# Compressibility (1/GPa) = 0.03514113
#
# Stress axis : x y z
#
# Youngs Moduli (GPa) = 33.69261 29.05441 100.97911
#
# Poissons Ratio (x) = 0.53967 0.56275
# Poissons Ratio (y) = 0.62583 -0.47637
# Poissons Ratio (z) = 0.18777 -0.13706
#
# Static dielectric constant tensor:
#      x y z
#    x 1.697860 0.000000 -0.019180 
#    y 0.000000 1.763310 0.000000 
#    z -0.019180 0.000000 1.787400 
# 
# From -- ./inp_files/16933.got.cif
#   From: 2010.05.17/outbox.cif.g08.bks.cpg/sg15_9_cif.got.tgz:16933.got - 2010.06.03 18:47:42.
