data_PCOD9267002
_publ_section_title
;
Structure prediction by ZEFSAII (Michael W. Deem and Ramdas Pophale) SiO2 
 PCOD9267002
Probable space group: C 2/C
;
_chemical_formula_sum "Si O2"
_cell_formula_units_Z 60
_cell_length_a 25.788735
_cell_length_b 9.953120
_cell_length_c 14.245781
_cell_angle_alpha 90.000000
_cell_angle_beta 63.693396
_cell_angle_gamma 90.000000
_cell_volume 3277.891092
_symmetry_space_group_name_H-M "C 2/C"
_symmetry_group_IT_number 15
_symmetry_cell_setting 'monoclinic'
loop_
_space_group_symop_operation_xyz
x,y,z
-x,y,1/2-z
-x,-y,-z
x,-y,1/2+z
1/2+x,1/2+y,z
1/2-x,1/2+y,1/2-z
1/2-x,1/2-y,-z
1/2+x,1/2-y,1/2+z
loop_
_atom_site_type_symbol
_atom_site_label
_atom_site_fract_x
_atom_site_fract_y
_atom_site_fract_z
Si Si1 0.001572 0.150111 0.539657
Si Si2 0.000000 0.061130 0.750000
Si Si3 0.629182 0.285238 0.950330
Si Si4 0.317547 0.000597 0.627374
Si Si5 0.875106 0.767156 0.148244
Si Si6 0.288280 0.516493 0.653130
Si Si7 0.872676 0.933712 0.345266
Si Si8 0.258436 0.407728 0.977658
O O1 0.941833 0.222690 0.562064
O O2 0.001715 0.144970 0.652862
O O3 0.064457 0.202777 0.462276
O O4 0.000000 0.000000 0.500000
O O5 0.063822 0.994746 0.703544
O O6 0.675274 0.380920 0.860829
O O7 0.646824 0.132655 0.924279
O O8 0.630988 0.344769 0.055890
O O9 0.351118 0.882870 0.655833
O O10 0.260576 0.039250 0.731570
O O11 0.292850 0.947380 0.549589
O O12 0.870154 0.835791 0.256124
O O13 0.835025 0.863830 0.117000
O O14 0.256814 0.517028 0.578454
O O15 0.820183 0.040030 0.386827
O O16 0.250000 0.250000 0.000000
#
# Coordination Sequence:
#
# PCOD9267002 Si02
#       8
#     8   4   8   8   8   8   8   8
#     4  10  19  38  64  85 115 153 203 246 291 355
#     4   8  18  34  58  92 106 146 202 250 276 346
#     4  10  23  39  60  87 117 159 199 247 298 357
#     4  12  25  37  58  90 124 154 195 248 302 353
#     4  11  21  38  63  89 115 157 199 248 291 357
#     4  11  22  39  58  84 119 156 201 235 299 359
#     4   9  20  38  62  83 116 158 203 237 295 356
#     4  11  23  37  58  87 123 157 194 249 295 347
#
# _framework density 18.304452999999999
#
# number of rings (size 3 to 8) (size 9 to 14) (size 15 to 20)
#    0.000    1.600    4.000    0.800    1.867    1.600 
#    0.000    0.000    0.000    0.000    0.000    0.000 
#    0.000    0.000    0.000    0.000    0.000    0.000 
#
# Total GULP energy -167176.017417 kJ/mol
# GULP energy per Si atom -5572.533914 kJ/mol
# Density = 1.826279 g / cm^3
# Si number density = 18.304453 Si / 1000 Ang^3
#
#
#
# Elastic Constant Matrix: (Units=GPa)
#
#
# Indices 1 2 3 4 5 6 
#
# 1 128.0899 68.1363 34.2042 0.0000 -23.0505 0.0000
# 2 68.1363 120.7218 21.2974 0.0000 -24.4502 0.0000
# 3 34.2042 21.2974 47.9856 0.0000 0.7764 0.0000
# 4 0.0000 0.0000 0.0000 12.7930 0.0000 16.8279
# 5 -23.0505 -24.4502 0.7764 0.0000 23.7393 0.0000
# 6 0.0000 0.0000 0.0000 16.8279 0.0000 -115.7567
#
#
#
# Elastic Compliance Matrix: (Units=1/GPa)
#
#
# Indices 1 2 3 4 5 6 
#
# 1 0.014114 -0.004678 -0.008132 0.000000 0.009153 0.000000
# 2 -0.004678 0.013266 -0.002702 0.000000 0.009209 0.000000
# 3 -0.008132 -0.002702 0.028023 0.000000 -0.011596 0.000000
# 4 0.000000 0.000000 0.000000 0.065620 0.000000 0.009539
# 5 0.009153 0.009209 -0.011596 0.000000 0.060876 0.000000
# 6 0.000000 0.000000 0.000000 0.009539 0.000000 -0.007252
#
#
# Mechanical properties :
#
#
# Convention : Reuss Voigt Hill
#
# Bulk Modulus (GPa) = 41.02074 60.45260 50.73667
# Shear Modulus (GPa) = 23.38665 -4.30090 9.54288
#
# Velocity S-wave (km/s) = 3.57830 -1.53452 2.28577
# Velocity P-wave (km/s) = 6.28738 5.47341 5.89446
#
# Compressibility (1/GPa) = 0.02437791
#
# Stress axis : x y z
#
# Youngs Moduli (GPa) = 70.85190 75.38349 35.68435
#
# Poissons Ratio (x) = 0.35261 0.29020
# Poissons Ratio (y) = 0.33141 0.09644
# Poissons Ratio (z) = 0.57620 0.20372
#
# Static dielectric constant tensor:
#      x y z
#    x 1.676630 0.000000 0.012070 
#    y 0.000000 1.624970 0.000000 
#    z 0.012070 0.000000 1.673790 
# 
# From -- ./inp_files/172353.got.cif
#   From: 2010.05.17/outbox.cif.g08.bks.cpg/sg15_87_cif.got.tgz:172353.got - 2010.06.03 18:47:42.
