data_PCOD9267202
_publ_section_title
;
Structure prediction by ZEFSAII (Michael W. Deem and Ramdas Pophale) SiO2 
 PCOD9267202
Probable space group: C 2/C
;
_chemical_formula_sum "Si O2"
_cell_formula_units_Z 52
_cell_length_a 17.123296
_cell_length_b 15.828805
_cell_length_c 10.167765
_cell_angle_alpha 90.000000
_cell_angle_beta 125.359915
_cell_angle_gamma 90.000000
_cell_volume 2247.514298
_symmetry_space_group_name_H-M "C 2/C"
_symmetry_group_IT_number 15
_symmetry_cell_setting 'monoclinic'
loop_
_space_group_symop_operation_xyz
x,y,z
-x,y,1/2-z
-x,-y,-z
x,-y,1/2+z
1/2+x,1/2+y,z
1/2-x,1/2+y,1/2-z
1/2-x,1/2-y,-z
1/2+x,1/2-y,1/2+z
loop_
_atom_site_type_symbol
_atom_site_label
_atom_site_fract_x
_atom_site_fract_y
_atom_site_fract_z
Si Si1 0.000000 0.500000 0.500000
Si Si2 0.639817 0.688530 0.588997
Si Si3 0.000000 0.490980 0.250000
Si Si4 0.152277 0.631378 0.963342
Si Si5 0.345420 0.854619 0.348889
Si Si6 0.434078 0.313247 0.997022
Si Si7 0.500000 0.554652 0.750000
Si Si8 0.863011 0.086820 0.180669
O O1 0.941059 0.534097 0.304470
O O2 0.910259 0.433531 0.447196
O O3 0.661405 0.782110 0.551944
O O4 0.730984 0.647279 0.748219
O O5 0.547160 0.698414 0.586804
O O6 0.615944 0.629117 0.440555
O O7 0.941296 0.426646 0.092906
O O8 0.140090 0.655325 0.797280
O O9 0.248310 0.577149 0.072005
O O10 0.384563 0.775669 0.469348
O O11 0.390263 0.347602 0.819319
O O12 0.429126 0.386708 0.098017
O O13 0.570071 0.494027 0.735677
#
# Coordination Sequence:
#
# PCOD9267202 Si02
#       8
#     4   8   4   8   8   8   4   8
#     4  10  22  40  62  88 130 164 214 268 320 388
#     4  11  19  36  70  96 115 158 221 280 316 351
#     4  10  22  38  58  92 126 162 210 268 328 386
#     4  10  19  38  67  97 116 158 226 278 313 355
#     4  10  21  39  62  97 124 164 213 266 326 382
#     4  12  23  42  62  90 136 168 211 263 321 391
#     4  12  28  40  56 100 132 182 202 248 338 400
#     4  11  21  39  64  91 123 161 217 271 309 365
#
# _framework density 23.136672999999998
#
# number of rings (size 3 to 8) (size 9 to 14) (size 15 to 20)
#    0.000    1.231    4.615    3.231    0.000    1.846 
#    5.538    0.769    0.000    0.000    0.000    0.000 
#    0.000    0.000    0.000    0.000    0.000    0.000 
#
# Total GULP energy -144834.687329 kJ/mol
# GULP energy per Si atom -5570.564897 kJ/mol
# Density = 2.308401 g / cm^3
# Si number density = 23.136673 Si / 1000 Ang^3
#
#
#
# Elastic Constant Matrix: (Units=GPa)
#
#
# Indices 1 2 3 4 5 6 
#
# 1 26.1901 -4.5130 13.6699 0.0000 13.6554 0.0000
# 2 -4.5130 92.9868 42.3717 0.0000 12.0316 0.0000
# 3 13.6699 42.3717 69.6566 0.0000 25.5107 0.0000
# 4 0.0000 0.0000 0.0000 35.1270 0.0000 3.1411
# 5 13.6554 12.0316 25.5107 0.0000 34.2315 0.0000
# 6 0.0000 0.0000 0.0000 3.1411 0.0000 9.2479
#
#
#
# Elastic Compliance Matrix: (Units=1/GPa)
#
#
# Indices 1 2 3 4 5 6 
#
# 1 0.054115 0.009421 -0.009947 0.000000 -0.017486 0.000000
# 2 0.009421 0.016627 -0.011617 0.000000 -0.000945 0.000000
# 3 -0.009947 -0.011617 0.028094 0.000000 -0.012886 0.000000
# 4 0.000000 0.000000 0.000000 0.029360 0.000000 -0.009972
# 5 -0.017486 -0.000945 -0.012886 0.000000 0.046123 0.000000
# 6 0.000000 0.000000 0.000000 -0.009972 0.000000 0.111520
#
#
# Mechanical properties :
#
#
# Convention : Reuss Voigt Hill
#
# Bulk Modulus (GPa) = 13.41372 32.43227 22.92300
# Shear Modulus (GPa) = 14.92651 24.87494 19.90073
#
# Velocity S-wave (km/s) = 2.54273 3.28248 2.93599
# Velocity P-wave (km/s) = 3.79879 5.33051 4.62845
#
# Compressibility (1/GPa) = 0.07455051
#
# Stress axis : x y z
#
# Youngs Moduli (GPa) = 18.47932 60.14161 35.59458
#
# Poissons Ratio (x) = -0.56662 0.35406
# Poissons Ratio (y) = -0.17410 0.41351
# Poissons Ratio (z) = 0.18381 0.69868
#
# Static dielectric constant tensor:
#      x y z
#    x 1.589140 0.000000 0.200710 
#    y 0.000000 3.079750 0.000000 
#    z 0.200710 0.000000 1.786310 
# 
# From -- ./inp_files/97146.got.cif
#   From: 2010.05.17/outbox.cif.g08.bks.cpg/sg15_49_cif.got.tgz:97146.got - 2010.06.03 18:47:42.
