data_PCOD9267081
_publ_section_title
;
Structure prediction by ZEFSAII (Michael W. Deem and Ramdas Pophale) SiO2 
 PCOD9267081
Probable space group: C 2/C
;
_chemical_formula_sum "Si O2"
_cell_formula_units_Z 44
_cell_length_a 8.287215
_cell_length_b 29.286701
_cell_length_c 12.159916
_cell_angle_alpha 90.000000
_cell_angle_beta 36.339382
_cell_angle_gamma 90.000000
_cell_volume 1748.827964
_symmetry_space_group_name_H-M "C 2/C"
_symmetry_group_IT_number 15
_symmetry_cell_setting 'monoclinic'
loop_
_space_group_symop_operation_xyz
x,y,z
-x,y,1/2-z
-x,-y,-z
x,-y,1/2+z
1/2+x,1/2+y,z
1/2-x,1/2+y,1/2-z
1/2-x,1/2-y,-z
1/2+x,1/2-y,1/2+z
loop_
_atom_site_type_symbol
_atom_site_label
_atom_site_fract_x
_atom_site_fract_y
_atom_site_fract_z
Si Si1 0.500000 0.756712 0.750000
Si Si2 0.689114 0.696933 0.040653
Si Si3 0.972474 0.183591 0.919940
Si Si4 0.795271 0.592051 0.467442
Si Si5 0.629003 0.005090 0.556031
Si Si6 0.312335 0.105643 0.041678
O O1 0.322446 0.791114 0.920439
O O2 0.356648 0.719841 0.746856
O O3 0.500000 0.695378 0.250000
O O4 0.544979 0.685193 0.006394
O O5 0.893670 0.653896 0.941825
O O6 0.750000 0.750000 0.000000
O O7 0.930394 0.131412 0.910547
O O8 0.680364 0.540305 0.541015
O O9 0.000000 0.596922 0.250000
O O10 0.991510 0.599627 0.462919
O O11 0.500000 0.999724 0.750000
O O12 0.698819 0.058503 0.519343
O O13 0.500000 0.000000 0.500000
O O14 0.000000 0.109303 0.250000
#
# Coordination Sequence:
#
# PCOD9267081 Si02
#       6
#     4   8   8   8   8   8
#     4  10  24  36  64  80 120 158 210 240 302 348
#     4  11  24  39  60  90 125 160 203 248 313 366
#     4  11  22  41  59  88 119 162 204 252 298 371
#     4  10  19  38  65  84 119 163 203 251 311 369
#     4   9  20  41  63  89 121 167 211 262 323 378
#     4  10  22  39  60  91 123 162 206 258 318 372
#
# _framework density 25.159707999999998
#
# number of rings (size 3 to 8) (size 9 to 14) (size 15 to 20)
#    0.000    1.818    0.909    3.273    5.091    0.727 
#    8.182   12.727    0.000    0.000    0.000    0.000 
#    0.000    0.000    0.000    0.000    0.000    0.000 
#
# Total GULP energy -122533.189228 kJ/mol
# GULP energy per Si atom -5569.690419 kJ/mol
# Density = 2.510244 g / cm^3
# Si number density = 25.159708 Si / 1000 Ang^3
#
#
#
# Elastic Constant Matrix: (Units=GPa)
#
#
# Indices 1 2 3 4 5 6 
#
# 1 74.0042 51.6390 23.6181 0.0000 27.4150 0.0000
# 2 51.6390 296.8290 34.8564 0.0000 17.6953 0.0000
# 3 23.6181 34.8564 108.8364 0.0000 36.8776 0.0000
# 4 0.0000 0.0000 0.0000 57.0501 0.0000 16.0559
# 5 27.4150 17.6953 36.8776 0.0000 33.6979 0.0000
# 6 0.0000 0.0000 0.0000 16.0559 0.0000 29.4943
#
#
#
# Elastic Compliance Matrix: (Units=1/GPa)
#
#
# Indices 1 2 3 4 5 6 
#
# 1 0.021817 -0.002972 0.002706 0.000000 -0.019150 0.000000
# 2 -0.002972 0.003925 -0.001165 0.000000 0.001631 0.000000
# 3 0.002706 -0.001165 0.015119 0.000000 -0.018135 0.000000
# 4 0.000000 0.000000 0.000000 0.020700 0.000000 -0.011268
# 5 -0.019150 0.001631 -0.018135 0.000000 0.064245 0.000000
# 6 0.000000 0.000000 0.000000 -0.011268 0.000000 0.040039
#
#
# Mechanical properties :
#
#
# Convention : Reuss Voigt Hill
#
# Bulk Modulus (GPa) = 26.31585 77.76628 52.04107
# Shear Modulus (GPa) = 27.56757 48.68555 38.12656
#
# Velocity S-wave (km/s) = 3.31373 4.40370 3.89701
# Velocity P-wave (km/s) = 5.01232 7.53876 6.40142
#
# Compressibility (1/GPa) = 0.03799992
#
# Stress axis : x y z
#
# Youngs Moduli (GPa) = 45.83612 254.74625 66.14277
#
# Poissons Ratio (x) = 0.75700 -0.17898
# Poissons Ratio (y) = 0.13621 0.07706
# Poissons Ratio (z) = -0.12403 0.29679
#
# Static dielectric constant tensor:
#      x y z
#    x 2.019380 0.000000 0.073820 
#    y 0.000000 2.249010 0.000000 
#    z 0.073820 0.000000 1.958710 
# 
# From -- ./inp_files/25560.got.cif
#   From: 2010.05.17/outbox.cif.g08.bks.cpg/sg15_13_cif.got.tgz:25560.got - 2010.06.03 18:47:42.
