data_PCOD9267174
_publ_section_title
;
Structure prediction by ZEFSAII (Michael W. Deem and Ramdas Pophale) SiO2 
 PCOD9267174
Probable space group: C 2/C
;
_chemical_formula_sum "Si O2"
_cell_formula_units_Z 56
_cell_length_a 16.797950
_cell_length_b 10.275877
_cell_length_c 13.275660
_cell_angle_alpha 90.000000
_cell_angle_beta 104.915137
_cell_angle_gamma 90.000000
_cell_volume 2214.353377
_symmetry_space_group_name_H-M "C 2/C"
_symmetry_group_IT_number 15
_symmetry_cell_setting 'monoclinic'
loop_
_space_group_symop_operation_xyz
x,y,z
-x,y,1/2-z
-x,-y,-z
x,-y,1/2+z
1/2+x,1/2+y,z
1/2-x,1/2+y,1/2-z
1/2-x,1/2-y,-z
1/2+x,1/2-y,1/2+z
loop_
_atom_site_type_symbol
_atom_site_label
_atom_site_fract_x
_atom_site_fract_y
_atom_site_fract_z
Si Si1 0.177251 0.925550 0.515053
Si Si2 0.600353 0.583717 0.206593
Si Si3 0.549345 0.377064 0.968621
Si Si4 0.887249 0.790651 0.304181
Si Si5 0.808472 0.676246 0.738981
Si Si6 0.855147 0.359245 0.484047
Si Si7 0.583030 0.969742 0.816830
O O1 0.163403 0.932294 0.630973
O O2 0.131035 0.789854 0.476880
O O3 0.267009 0.902291 0.500759
O O4 0.133325 0.053941 0.461533
O O5 0.515268 0.651350 0.140452
O O6 0.587818 0.433215 0.233294
O O7 0.648009 0.692390 0.283698
O O8 0.500000 0.500000 0.000000
O O9 0.571737 0.285064 0.070256
O O10 0.788358 0.798773 0.283446
O O11 0.907760 0.666291 0.242183
O O12 0.838804 0.559698 0.679732
O O13 0.844599 0.639852 0.861525
O O14 0.920606 0.443604 0.565292
O O15 0.500000 0.033817 0.750000
#
# Coordination Sequence:
#
# PCOD9267174 Si02
#       7
#     8   8   8   8   8   8   8
#     4   8  14  30  61  93 117 157 207 262 314 383
#     4   9  19  35  65  90 133 171 210 266 336 378
#     4   8  16  30  58  92 129 161 201 268 325 370
#     4  10  19  38  66  97 121 166 224 264 311 398
#     4  11  23  43  66  92 135 181 206 266 344 392
#     4  10  20  36  61  90 129 168 217 259 326 393
#     4  12  27  39  65  99 133 168 226 276 323 391
#
# _framework density 25.289549999999998
#
# number of rings (size 3 to 8) (size 9 to 14) (size 15 to 20)
#    0.000    2.571    0.000    5.143    8.000    0.571 
#    0.000    0.714    3.143    8.571    0.000    0.000 
#    0.000    0.000    0.000    0.000    0.000    0.000 
#
# Total GULP energy -156389.448245 kJ/mol
# GULP energy per Si atom -5585.337437 kJ/mol
# Density = 2.523199 g / cm^3
# Si number density = 25.289550 Si / 1000 Ang^3
#
#
#
# Elastic Constant Matrix: (Units=GPa)
#
#
# Indices 1 2 3 4 5 6 
#
# 1 84.1281 31.2602 8.5715 0.0000 8.9596 0.0000
# 2 31.2602 95.1928 30.8283 0.0000 -11.4377 0.0000
# 3 8.5715 30.8283 94.8529 0.0000 -2.7308 0.0000
# 4 0.0000 0.0000 0.0000 19.9587 0.0000 3.2566
# 5 8.9596 -11.4377 -2.7308 0.0000 37.0242 0.0000
# 6 0.0000 0.0000 0.0000 3.2566 0.0000 32.9815
#
#
#
# Elastic Compliance Matrix: (Units=1/GPa)
#
#
# Indices 1 2 3 4 5 6 
#
# 1 0.014433 -0.005464 0.000323 0.000000 -0.005157 0.000000
# 2 -0.005464 0.014240 -0.003978 0.000000 0.005428 0.000000
# 3 0.000323 -0.003978 0.011794 0.000000 -0.000437 0.000000
# 4 0.000000 0.000000 0.000000 0.050924 0.000000 -0.005028
# 5 -0.005157 0.005428 -0.000437 0.000000 0.029902 0.000000
# 6 0.000000 0.000000 0.000000 -0.005028 0.000000 0.030816
#
#
# Mechanical properties :
#
#
# Convention : Reuss Voigt Hill
#
# Bulk Modulus (GPa) = 44.98643 46.16598 45.57621
# Shear Modulus (GPa) = 28.12837 31.56047 29.84442
#
# Velocity S-wave (km/s) = 3.33866 3.53649 3.43900
# Velocity P-wave (km/s) = 5.71746 5.91356 5.81634
#
# Compressibility (1/GPa) = 0.02222893
#
# Stress axis : x y z
#
# Youngs Moduli (GPa) = 69.28464 70.22590 84.79058
#
# Poissons Ratio (x) = 0.38371 -0.02740
# Poissons Ratio (y) = 0.37857 0.33730
# Poissons Ratio (z) = -0.02239 0.27936
#
# Static dielectric constant tensor:
#      x y z
#    x 1.997970 0.000000 0.032280 
#    y 0.000000 2.027300 0.000000 
#    z 0.032280 0.000000 2.138260 
# 
# From -- ./inp_files/161003.got.cif
#   From: 2010.05.17/outbox.cif.g08.bks.cpg/sg15_81_cif.got.tgz:161003.got - 2010.06.03 18:47:42.
