data_PCOD9267023
_publ_section_title
;
Structure prediction by ZEFSAII (Michael W. Deem and Ramdas Pophale) SiO2 
 PCOD9267023
Probable space group: C 2/C
;
_chemical_formula_sum "Si O2"
_cell_formula_units_Z 60
_cell_length_a 16.719235
_cell_length_b 9.523643
_cell_length_c 21.333382
_cell_angle_alpha 90.000000
_cell_angle_beta 65.728361
_cell_angle_gamma 90.000000
_cell_volume 3096.612088
_symmetry_space_group_name_H-M "C 2/C"
_symmetry_group_IT_number 15
_symmetry_cell_setting 'monoclinic'
loop_
_space_group_symop_operation_xyz
x,y,z
-x,y,1/2-z
-x,-y,-z
x,-y,1/2+z
1/2+x,1/2+y,z
1/2-x,1/2+y,1/2-z
1/2-x,1/2-y,-z
1/2+x,1/2-y,1/2+z
loop_
_atom_site_type_symbol
_atom_site_label
_atom_site_fract_x
_atom_site_fract_y
_atom_site_fract_z
Si Si1 0.629882 0.378999 0.015183
Si Si2 0.074463 0.472328 0.027173
Si Si3 0.168153 0.201813 0.984210
Si Si4 0.500559 0.207271 0.126886
Si Si5 0.500000 0.384149 0.250000
Si Si6 0.800387 0.754122 0.172136
Si Si7 0.230551 0.347480 0.421060
Si Si8 0.311644 0.517043 0.772573
O O1 0.535274 0.312988 0.061057
O O2 0.687830 0.338397 0.057723
O O3 0.636899 0.543839 0.005463
O O4 0.676317 0.297078 0.943163
O O5 0.048041 0.560462 0.096940
O O6 0.090703 0.308469 0.027526
O O7 0.164483 0.537643 0.971496
O O8 0.000000 0.500000 0.000000
O O9 0.197376 0.218605 0.902706
O O10 0.250000 0.250000 0.000000
O O11 0.522437 0.282277 0.184835
O O12 0.396360 0.190030 0.156800
O O13 0.585013 0.473107 0.243375
O O14 0.727248 0.639493 0.213884
O O15 0.794953 0.896997 0.214053
O O16 0.262013 0.397080 0.343634
#
# Coordination Sequence:
#
# PCOD9267023 Si02
#       8
#     8   8   8   8   4   8   8   8
#     4  10  21  35  65  99 121 159 220 255 312 381
#     4  11  20  39  63  90 130 165 200 267 325 364
#     4  12  23  39  63  96 129 164 209 268 320 365
#     4  10  21  42  64  95 121 168 215 249 318 388
#     4  10  22  38  70  86 124 168 212 258 300 396
#     4  11  25  42  66  93 129 169 209 265 316 377
#     4  10  19  38  64  87 126 171 202 256 318 379
#     4  11  22  43  64  89 129 167 212 254 321 374
#
# _framework density 19.376014000000001
#
# number of rings (size 3 to 8) (size 9 to 14) (size 15 to 20)
#    0.000    1.333    5.333    0.000    1.867    0.533 
#    2.400    2.667    0.000    0.800    0.000    0.000 
#    0.000    0.000    0.000    0.000    0.000    0.000 
#
# Total GULP energy -167514.986845 kJ/mol
# GULP energy per Si atom -5583.832895 kJ/mol
# Density = 1.933191 g / cm^3
# Si number density = 19.376014 Si / 1000 Ang^3
#
#
#
# Elastic Constant Matrix: (Units=GPa)
#
#
# Indices 1 2 3 4 5 6 
#
# 1 78.8958 24.0714 19.4748 0.0000 -3.1193 0.0000
# 2 24.0714 141.7395 22.4888 0.0000 -10.8518 0.0000
# 3 19.4748 22.4888 67.9210 0.0000 -4.8190 0.0000
# 4 0.0000 0.0000 0.0000 21.2806 0.0000 -9.4789
# 5 -3.1193 -10.8518 -4.8190 0.0000 27.9461 0.0000
# 6 0.0000 0.0000 0.0000 -9.4789 0.0000 25.1435
#
#
#
# Elastic Compliance Matrix: (Units=1/GPa)
#
#
# Indices 1 2 3 4 5 6 
#
# 1 0.014087 -0.001830 -0.003414 0.000000 0.000273 0.000000
# 2 -0.001830 0.007860 -0.001899 0.000000 0.002520 0.000000
# 3 -0.003414 -0.001899 0.016453 0.000000 0.001719 0.000000
# 4 0.000000 0.000000 0.000000 0.056474 0.000000 0.021290
# 5 0.000273 0.002520 0.001719 0.000000 0.037089 0.000000
# 6 0.000000 0.000000 0.000000 0.021290 0.000000 0.047798
#
#
# Mechanical properties :
#
#
# Convention : Reuss Voigt Hill
#
# Bulk Modulus (GPa) = 41.46940 46.73625 44.10282
# Shear Modulus (GPa) = 24.74221 29.70879 27.22550
#
# Velocity S-wave (km/s) = 3.57732 3.91996 3.75255
# Velocity P-wave (km/s) = 6.20579 6.68290 6.44876
#
# Compressibility (1/GPa) = 0.02411417
#
# Stress axis : x y z
#
# Youngs Moduli (GPa) = 70.98897 127.22282 60.78085
#
# Poissons Ratio (x) = 0.23279 0.20750
# Poissons Ratio (y) = 0.12989 0.11543
# Poissons Ratio (z) = 0.24234 0.24160
#
# Static dielectric constant tensor:
#      x y z
#    x 1.719040 0.000000 -0.009660 
#    y 0.000000 1.683240 0.000000 
#    z -0.009660 0.000000 1.681000 
# 
# From -- ./inp_files/276552.got.cif
#   From: 2010.05.17/outbox.cif.g08.bks.cpg/sg15_139_cif.got.tgz:276552.got - 2010.06.03 18:47:42.
