data_PCOD9267074
_publ_section_title
;
Structure prediction by ZEFSAII (Michael W. Deem and Ramdas Pophale) SiO2 
 PCOD9267074
Probable space group: C 2/C
;
_chemical_formula_sum "Si O2"
_cell_formula_units_Z 52
_cell_length_a 20.483111
_cell_length_b 18.406302
_cell_length_c 9.504924
_cell_angle_alpha 90.000000
_cell_angle_beta 144.582022
_cell_angle_gamma 90.000000
_cell_volume 2076.788221
_symmetry_space_group_name_H-M "C 2/C"
_symmetry_group_IT_number 15
_symmetry_cell_setting 'monoclinic'
loop_
_space_group_symop_operation_xyz
x,y,z
-x,y,1/2-z
-x,-y,-z
x,-y,1/2+z
1/2+x,1/2+y,z
1/2-x,1/2+y,1/2-z
1/2-x,1/2-y,-z
1/2+x,1/2-y,1/2+z
loop_
_atom_site_type_symbol
_atom_site_label
_atom_site_fract_x
_atom_site_fract_y
_atom_site_fract_z
Si Si1 0.631393 0.283161 0.953822
Si Si2 0.844583 0.989744 0.958333
Si Si3 0.853911 0.456317 0.742962
Si Si4 0.000000 0.000000 0.500000
Si Si5 0.500000 0.973111 0.250000
Si Si6 0.219835 0.322784 0.027303
Si Si7 0.677933 0.335017 0.735897
Si Si8 0.500000 0.237897 0.250000
O O1 0.500000 0.269453 0.750000
O O2 0.640564 0.333371 0.832033
O O3 0.701187 0.321540 0.199497
O O4 0.703722 0.208431 0.060473
O O5 0.726271 0.014997 0.819863
O O6 0.823369 0.915430 0.829975
O O7 0.906819 0.035769 0.948583
O O8 0.924783 0.977615 0.231761
O O9 0.917712 0.482473 0.713881
O O10 0.912807 0.313821 0.675316
O O11 0.933162 0.430892 0.010846
O O12 0.250000 0.250000 0.000000
O O13 0.226909 0.391272 0.940905
O O14 0.081805 0.211681 0.986889
#
# Coordination Sequence:
#
# PCOD9267074 Si02
#       8
#     8   8   8   4   4   8   8   4
#     4  10  22  42  65 107 146 188 241 301 355 467
#     4  11  23  46  67 101 137 190 234 307 362 435
#     4  11  23  48  73 107 143 190 251 310 374 451
#     4  10  24  42  70  96 138 182 242 296 358 424
#     4  10  25  48  78 106 140 198 255 314 370 442
#     4  11  23  41  68 107 146 192 239 311 390 449
#     4  10  22  42  69  99 142 190 242 289 380 440
#     4  10  19  38  64  96 140 178 231 304 352 458
#
# _framework density 25.038663
#
# number of rings (size 3 to 8) (size 9 to 14) (size 15 to 20)
#    0.000    1.538    0.000    5.077    0.000    2.462 
#   33.231    0.000    0.000    0.000    0.000    0.000 
#    0.000    0.000    0.000    0.000    0.000    0.000 
#
# Total GULP energy -144843.496900 kJ/mol
# GULP energy per Si atom -5570.903727 kJ/mol
# Density = 2.498167 g / cm^3
# Si number density = 25.038663 Si / 1000 Ang^3
#
#
#
# Elastic Constant Matrix: (Units=GPa)
#
#
# Indices 1 2 3 4 5 6 
#
# 1 179.9498 7.1499 81.7786 0.0000 -11.7586 0.0000
# 2 7.1499 43.2515 25.0077 0.0000 0.8587 0.0000
# 3 81.7786 25.0077 137.4338 0.0000 -13.4064 0.0000
# 4 0.0000 0.0000 0.0000 25.1054 0.0000 -1.8830
# 5 -11.7586 0.8587 -13.4064 0.0000 70.4116 0.0000
# 6 0.0000 0.0000 0.0000 -1.8830 0.0000 11.0554
#
#
#
# Elastic Compliance Matrix: (Units=1/GPa)
#
#
# Indices 1 2 3 4 5 6 
#
# 1 0.007716 0.001511 -0.004832 0.000000 0.000350 0.000000
# 2 0.001511 0.026241 -0.005788 0.000000 -0.001170 0.000000
# 3 -0.004832 -0.005788 0.011344 0.000000 0.001423 0.000000
# 4 0.000000 0.000000 0.000000 0.040347 0.000000 0.006872
# 5 0.000350 -0.001170 0.001423 0.000000 0.014546 0.000000
# 6 0.000000 0.000000 0.000000 0.006872 0.000000 0.091624
#
#
# Mechanical properties :
#
#
# Convention : Reuss Voigt Hill
#
# Bulk Modulus (GPa) = 36.92454 65.38975 51.15714
# Shear Modulus (GPa) = 22.82452 37.76108 30.29280
#
# Velocity S-wave (km/s) = 3.02250 3.88765 3.48205
# Velocity P-wave (km/s) = 5.19227 6.80617 6.05325
#
# Compressibility (1/GPa) = 0.02708226
#
# Stress axis : x y z
#
# Youngs Moduli (GPa) = 129.60237 38.10880 88.15499
#
# Poissons Ratio (x) = -0.05760 0.42598
# Poissons Ratio (y) = -0.19589 0.51026
# Poissons Ratio (z) = 0.62626 0.22058
#
# Static dielectric constant tensor:
#      x y z
#    x 2.160280 0.000000 0.019230 
#    y 0.000000 2.056610 0.000000 
#    z 0.019230 0.000000 2.003760 
# 
# From -- ./inp_files/52242.got.cif
#   From: 2010.05.17/outbox.cif.g08.bks.cpg/sg15_27_cif.got.tgz:52242.got - 2010.06.03 18:47:42.
