data_PCOD9267169
_publ_section_title
;
Structure prediction by ZEFSAII (Michael W. Deem and Ramdas Pophale) SiO2 
 PCOD9267169
Probable space group: C 2/C
;
_chemical_formula_sum "Si O2"
_cell_formula_units_Z 44
_cell_length_a 28.590711
_cell_length_b 9.955656
_cell_length_c 16.419121
_cell_angle_alpha 90.000000
_cell_angle_beta 157.678211
_cell_angle_gamma 90.000000
_cell_volume 1775.042787
_symmetry_space_group_name_H-M "C 2/C"
_symmetry_group_IT_number 15
_symmetry_cell_setting 'monoclinic'
loop_
_space_group_symop_operation_xyz
x,y,z
-x,y,1/2-z
-x,-y,-z
x,-y,1/2+z
1/2+x,1/2+y,z
1/2-x,1/2+y,1/2-z
1/2-x,1/2-y,-z
1/2+x,1/2-y,1/2+z
loop_
_atom_site_type_symbol
_atom_site_label
_atom_site_fract_x
_atom_site_fract_y
_atom_site_fract_z
Si Si1 0.085436 0.287347 0.654907
Si Si2 0.381451 0.084769 0.724985
Si Si3 0.500000 0.176902 0.750000
Si Si4 0.865243 0.044319 0.391736
Si Si5 0.877002 0.998798 0.717674
Si Si6 0.725641 0.715864 0.717219
O O1 0.097299 0.430276 0.715976
O O2 0.115928 0.162699 0.763635
O O3 0.178485 0.264517 0.729655
O O4 0.953320 0.307893 0.396565
O O5 0.435955 0.099669 0.722340
O O6 0.234155 0.086459 0.497497
O O7 0.381894 0.249997 0.519933
O O8 0.870754 0.038014 0.303120
O O9 0.759637 0.944527 0.254137
O O10 0.842524 0.193707 0.384555
O O11 0.995195 0.974874 0.622403
#
# Coordination Sequence:
#
# PCOD9267169 Si02
#       6
#     8   8   4   8   8   8
#     4   9  21  37  62  95 131 169 225 268 338 396
#     4  10  19  38  66  95 132 174 220 276 331 407
#     4  10  20  38  64  92 124 170 224 264 342 388
#     4  10  22  40  66  91 131 167 220 265 335 384
#     4  10  20  41  62  96 128 176 216 277 328 404
#     4  10  21  42  61  93 129 172 215 275 320 403
#
# _framework density 24.788133999999999
#
# number of rings (size 3 to 8) (size 9 to 14) (size 15 to 20)
#    0.000    2.182    1.818    0.545    0.000    4.364 
#    6.545    3.636    0.000    0.000    0.000    0.000 
#    0.000    0.000    0.000    0.000    0.000    0.000 
#
# Total GULP energy -122852.587193 kJ/mol
# GULP energy per Si atom -5584.208509 kJ/mol
# Density = 2.473172 g / cm^3
# Si number density = 24.788134 Si / 1000 Ang^3
#
#
#
# Elastic Constant Matrix: (Units=GPa)
#
#
# Indices 1 2 3 4 5 6 
#
# 1 59.5884 38.4647 3.9934 0.0000 4.3364 0.0000
# 2 38.4647 100.4889 -10.8024 0.0000 13.6720 0.0000
# 3 3.9934 -10.8024 86.0557 0.0000 26.8005 0.0000
# 4 0.0000 0.0000 0.0000 23.8981 0.0000 14.9612
# 5 4.3364 13.6720 26.8005 0.0000 25.9983 0.0000
# 6 0.0000 0.0000 0.0000 14.9612 0.0000 47.2199
#
#
#
# Elastic Compliance Matrix: (Units=1/GPa)
#
#
# Indices 1 2 3 4 5 6 
#
# 1 0.023146 -0.010071 -0.004103 0.000000 0.005665 0.000000
# 2 -0.010071 0.016476 0.006938 0.000000 -0.014137 0.000000
# 3 -0.004103 0.006938 0.020038 0.000000 -0.023621 0.000000
# 4 0.000000 0.000000 0.000000 0.052198 0.000000 -0.016538
# 5 0.005665 -0.014137 -0.023621 0.000000 0.069303 0.000000
# 6 0.000000 0.000000 0.000000 -0.016538 0.000000 0.026418
#
#
# Mechanical properties :
#
#
# Convention : Reuss Voigt Hill
#
# Bulk Modulus (GPa) = 22.12999 34.38271 28.25635
# Shear Modulus (GPa) = 21.08714 33.72175 27.40445
#
# Velocity S-wave (km/s) = 2.91983 3.69236 3.32858
# Velocity P-wave (km/s) = 4.50713 5.66381 5.11825
#
# Compressibility (1/GPa) = 0.04518755
#
# Stress axis : x y z
#
# Youngs Moduli (GPa) = 43.20481 60.69595 49.90547
#
# Poissons Ratio (x) = 0.61129 0.20474
# Poissons Ratio (y) = 0.43513 -0.34625
# Poissons Ratio (z) = 0.17725 -0.42111
#
# Static dielectric constant tensor:
#      x y z
#    x 1.910220 0.000000 -0.005080 
#    y 0.000000 2.001090 0.000000 
#    z -0.005080 0.000000 2.228670 
# 
# From -- ./inp_files/142247.got.cif
#   From: 2010.05.17/outbox.cif.g08.bks.cpg/sg15_72_cif.got.tgz:142247.got - 2010.06.03 18:47:42.
