data_PCOD9267657
_publ_section_title
;
Structure prediction by ZEFSAII (Michael W. Deem and Ramdas Pophale) SiO2 
 PCOD9267657
Probable space group: C 2/C
;
_chemical_formula_sum "Si O2"
_cell_formula_units_Z 44
_cell_length_a 29.825618
_cell_length_b 6.710502
_cell_length_c 12.326203
_cell_angle_alpha 90.000000
_cell_angle_beta 138.415816
_cell_angle_gamma 90.000000
_cell_volume 1637.414106
_symmetry_space_group_name_H-M "C 2/C"
_symmetry_group_IT_number 15
_symmetry_cell_setting 'monoclinic'
loop_
_space_group_symop_operation_xyz
x,y,z
-x,y,1/2-z
-x,-y,-z
x,-y,1/2+z
1/2+x,1/2+y,z
1/2-x,1/2+y,1/2-z
1/2-x,1/2-y,-z
1/2+x,1/2-y,1/2+z
loop_
_atom_site_type_symbol
_atom_site_label
_atom_site_fract_x
_atom_site_fract_y
_atom_site_fract_z
Si Si1 0.110584 0.169111 0.875852
Si Si2 0.500000 0.349003 0.750000
Si Si3 0.726765 0.378601 0.856135
Si Si4 0.763547 0.329769 0.679685
Si Si5 0.112375 0.373324 0.097100
Si Si6 0.482680 0.736450 0.981869
O O1 0.082850 0.251598 0.712621
O O2 0.103300 0.344413 0.952107
O O3 0.061934 0.991544 0.827538
O O4 0.187714 0.096526 0.014841
O O5 0.477390 0.231383 0.601502
O O6 0.761952 0.306739 0.807894
O O7 0.648234 0.333753 0.697480
O O8 0.750000 0.250000 0.000000
O O9 0.735930 0.613855 0.874401
O O10 0.828565 0.465702 0.774407
O O11 0.043665 0.362195 0.039194
O O12 0.500000 0.500000 0.000000
#
# Coordination Sequence:
#
# PCOD9267657 Si02
#       6
#     8   4   8   8   8   8
#     4  10  19  39  74 119 157 222 290 359 438 523
#     4  10  20  40  72 114 168 218 298 372 434 522
#     4  11  25  46  78 117 167 220 278 354 437 521
#     4  11  24  48  79 124 166 220 285 363 439 534
#     4  11  22  45  77 116 168 214 286 356 436 515
#     4  10  20  40  75 119 158 229 290 363 433 532
#
# _framework density 26.871637
#
# number of rings (size 3 to 8) (size 9 to 14) (size 15 to 20)
#    0.000    1.455    7.273    0.000    0.000    3.636 
#    0.000    0.000    4.000   16.364    0.000    1.273 
#    0.000    0.000    0.000    0.000    0.000    0.000 
#
# Total GULP energy -123350.124779 kJ/mol
# GULP energy per Si atom -5606.823854 kJ/mol
# Density = 2.681048 g / cm^3
# Si number density = 26.871637 Si / 1000 Ang^3
#
#
#
# Elastic Constant Matrix: (Units=GPa)
#
#
# Indices 1 2 3 4 5 6 
#
# 1 208.5796 80.8403 118.6215 0.0000 0.7293 0.0000
# 2 80.8403 136.8972 79.3051 0.0000 8.8410 0.0001
# 3 118.6215 79.3051 219.5878 0.0000 -23.5880 0.0000
# 4 0.0000 0.0000 0.0000 42.8611 0.0000 1.4608
# 5 0.7293 8.8410 -23.5880 0.0000 61.6556 0.0000
# 6 0.0000 0.0001 0.0000 1.4608 0.0000 58.0104
#
#
#
# Elastic Compliance Matrix: (Units=1/GPa)
#
#
# Indices 1 2 3 4 5 6 
#
# 1 0.007681 -0.002535 -0.003342 0.000000 -0.001006 0.000000
# 2 -0.002535 0.010530 -0.002704 0.000000 -0.002514 0.000000
# 3 -0.003342 -0.002704 0.007698 0.000000 0.003372 0.000000
# 4 0.000000 0.000000 0.000000 0.023351 0.000000 -0.000588
# 5 -0.001006 -0.002514 0.003372 0.000000 0.017882 0.000000
# 6 0.000000 0.000000 0.000000 -0.000588 0.000000 0.017253
#
#
# Mechanical properties :
#
#
# Convention : Reuss Voigt Hill
#
# Bulk Modulus (GPa) = 114.30875 124.73315 119.52095
# Shear Modulus (GPa) = 47.85968 51.59194 49.72581
#
# Velocity S-wave (km/s) = 4.22483 4.38647 4.30640
# Velocity P-wave (km/s) = 8.15046 8.49551 8.32477
#
# Compressibility (1/GPa) = 0.00874824
#
# Stress axis : x y z
#
# Youngs Moduli (GPa) = 130.19542 94.96367 129.90418
#
# Poissons Ratio (x) = 0.24071 0.43411
# Poissons Ratio (y) = 0.33002 0.35125
# Poissons Ratio (z) = 0.43508 0.25677
#
# Static dielectric constant tensor:
#      x y z
#    x 2.113530 0.000000 -0.061370 
#    y 0.000000 2.233710 0.000000 
#    z -0.061370 0.000000 2.096280 
# 
# From -- ./inp_files/122740.got.cif
#   From: 2010.05.17/outbox.cif.g08.bks.cpg/sg15_62_cif.got.tgz:122740.got - 2010.06.03 18:47:42.
