data_PCOD9267387
_publ_section_title
;
Structure prediction by ZEFSAII (Michael W. Deem and Ramdas Pophale) SiO2 
 PCOD9267387
Probable space group: C 2/C
;
_chemical_formula_sum "Si O2"
_cell_formula_units_Z 56
_cell_length_a 16.745828
_cell_length_b 8.894431
_cell_length_c 25.140854
_cell_angle_alpha 90.000000
_cell_angle_beta 53.862125
_cell_angle_gamma 90.000000
_cell_volume 3024.135544
_symmetry_space_group_name_H-M "C 2/C"
_symmetry_group_IT_number 15
_symmetry_cell_setting 'monoclinic'
loop_
_space_group_symop_operation_xyz
x,y,z
-x,y,1/2-z
-x,-y,-z
x,-y,1/2+z
1/2+x,1/2+y,z
1/2-x,1/2+y,1/2-z
1/2-x,1/2-y,-z
1/2+x,1/2-y,1/2+z
loop_
_atom_site_type_symbol
_atom_site_label
_atom_site_fract_x
_atom_site_fract_y
_atom_site_fract_z
Si Si1 0.461081 0.863514 0.820871
Si Si2 0.558938 0.190530 0.559018
Si Si3 0.714637 0.883283 0.913727
Si Si4 0.061556 0.151292 0.480066
Si Si5 0.579853 0.218989 0.673010
Si Si6 0.258201 0.275363 0.434066
Si Si7 0.538074 0.869701 0.899665
O O1 0.500000 0.806222 0.750000
O O2 0.367884 0.768209 0.875178
O O3 0.544514 0.850767 0.833886
O O4 0.425324 0.036443 0.826137
O O5 0.658482 0.203322 0.484502
O O6 0.470913 0.260219 0.559557
O O7 0.560225 0.255139 0.618023
O O8 0.533138 0.014273 0.568769
O O9 0.813492 0.793853 0.858705
O O10 0.637327 0.890831 0.894922
O O11 0.735882 0.053331 0.925119
O O12 0.178959 0.160537 0.439057
O O13 0.019563 0.236758 0.548279
O O14 0.000000 0.000000 0.500000
O O15 0.500000 0.265057 0.750000
O O16 0.250000 0.250000 0.500000
#
# Coordination Sequence:
#
# PCOD9267387 Si02
#       7
#     8   8   8   8   8   8   8
#     4  10  23  42  60  83 122 164 198 243 304 357
#     4  10  19  39  62  84 121 156 192 241 303 354
#     4  11  21  37  64  89 115 161 201 243 303 352
#     4  11  22  34  58  94 120 146 194 253 298 348
#     4  10  23  40  60  86 120 158 203 242 290 364
#     4  12  22  38  62  91 121 153 200 253 303 353
#     4  10  19  42  59  84 122 157 190 243 301 359
#
# _framework density 18.517690000000002
#
# number of rings (size 3 to 8) (size 9 to 14) (size 15 to 20)
#    0.000    1.429    4.286    2.143    6.000    0.571 
#    2.571    0.000    0.000    0.000    0.000    0.000 
#    0.000    0.000    0.000    0.000    0.000    0.000 
#
# Total GULP energy -156087.615181 kJ/mol
# GULP energy per Si atom -5574.557685 kJ/mol
# Density = 1.847554 g / cm^3
# Si number density = 18.517690 Si / 1000 Ang^3
#
#
#
# Elastic Constant Matrix: (Units=GPa)
#
#
# Indices 1 2 3 4 5 6 
#
# 1 116.0096 29.2681 78.8207 0.0000 2.5551 0.0000
# 2 29.2681 34.0344 17.3371 0.0000 7.1867 0.0001
# 3 78.8207 17.3371 154.8900 0.0000 8.4771 0.0000
# 4 0.0000 0.0000 0.0000 14.9659 0.0000 -8.9693
# 5 2.5551 7.1867 8.4771 0.0000 26.0225 0.0000
# 6 0.0000 0.0001 0.0000 -8.9693 0.0000 23.8129
#
#
#
# Elastic Compliance Matrix: (Units=1/GPa)
#
#
# Indices 1 2 3 4 5 6 
#
# 1 0.016254 -0.011098 -0.007238 0.000000 0.003827 0.000000
# 2 -0.011098 0.040288 0.001718 0.000000 -0.010597 0.000000
# 3 -0.007238 0.001718 0.010115 0.000000 -0.003059 0.000000
# 4 0.000000 0.000000 0.000000 0.086299 0.000000 0.032505
# 5 0.003827 -0.010597 -0.003059 0.000000 0.041975 0.000000
# 6 0.000000 0.000000 0.000000 0.032505 0.000000 0.054237
#
#
# Mechanical properties :
#
#
# Convention : Reuss Voigt Hill
#
# Bulk Modulus (GPa) = 29.92248 61.75399 45.83823
# Shear Modulus (GPa) = 17.03308 24.92747 20.98027
#
# Velocity S-wave (km/s) = 3.03616 3.67296 3.36964
# Velocity P-wave (km/s) = 5.33713 7.16998 6.32034
#
# Compressibility (1/GPa) = 0.03341969
#
# Stress axis : x y z
#
# Youngs Moduli (GPa) = 61.52447 24.82098 98.86532
#
# Poissons Ratio (x) = 0.27547 0.71563
# Poissons Ratio (y) = 0.68282 -0.16986
# Poissons Ratio (z) = 0.44534 -0.04265
#
# Static dielectric constant tensor:
#      x y z
#    x 1.617110 0.000000 -0.071820 
#    y 0.000000 1.883850 0.000000 
#    z -0.071820 0.000000 1.472440 
# 
# From -- ./inp_files/276527.got.cif
#   From: 2010.05.17/outbox.cif.g08.bks.cpg/sg15_139_cif.got.tgz:276527.got - 2010.06.03 18:47:42.
