data_PCOD9267569
_publ_section_title
;
Structure prediction by ZEFSAII (Michael W. Deem and Ramdas Pophale) SiO2 
 PCOD9267569
Probable space group: C 2/C
;
_chemical_formula_sum "Si O2"
_cell_formula_units_Z 56
_cell_length_a 9.412634
_cell_length_b 16.239204
_cell_length_c 18.668518
_cell_angle_alpha 90.000000
_cell_angle_beta 57.771902
_cell_angle_gamma 90.000000
_cell_volume 2413.909995
_symmetry_space_group_name_H-M "C 2/C"
_symmetry_group_IT_number 15
_symmetry_cell_setting 'monoclinic'
loop_
_space_group_symop_operation_xyz
x,y,z
-x,y,1/2-z
-x,-y,-z
x,-y,1/2+z
1/2+x,1/2+y,z
1/2-x,1/2+y,1/2-z
1/2-x,1/2-y,-z
1/2+x,1/2-y,1/2+z
loop_
_atom_site_type_symbol
_atom_site_label
_atom_site_fract_x
_atom_site_fract_y
_atom_site_fract_z
Si Si1 0.303225 0.501467 0.571996
Si Si2 0.799627 0.985292 0.806733
Si Si3 0.773036 0.909308 0.447976
Si Si4 0.695782 0.877783 0.713980
Si Si5 0.623952 0.329312 0.406384
Si Si6 0.921469 0.735740 0.579478
Si Si7 0.871410 0.360647 0.226941
O O1 0.500000 0.500000 0.500000
O O2 0.207442 0.445667 0.540391
O O3 0.268000 0.459614 0.656369
O O4 0.274009 0.597510 0.582418
O O5 0.766378 0.011507 0.897744
O O6 0.729529 0.066704 0.784897
O O7 0.000000 0.979410 0.750000
O O8 0.725353 0.903144 0.789343
O O9 0.674608 0.833529 0.440579
O O10 0.958252 0.871398 0.414291
O O11 0.500000 0.866288 0.750000
O O12 0.799351 0.807146 0.643902
O O13 0.557946 0.271192 0.487447
O O14 0.740408 0.304189 0.307907
O O15 0.968180 0.691746 0.641116
O O16 0.000000 0.395810 0.250000
#
# Coordination Sequence:
#
# PCOD9267569 Si02
#       7
#     8   8   8   8   8   8   8
#     4  10  19  39  66  96 126 180 234 279 344 418
#     4  11  21  40  68  96 128 182 235 282 339 429
#     4  10  21  39  67  99 130 178 240 281 341 423
#     4  12  25  39  66 103 140 174 229 299 354 410
#     4  11  21  41  72  96 137 188 234 291 353 431
#     4  11  26  40  68 103 144 184 233 291 361 431
#     4  11  25  44  67  99 137 183 231 289 363 416
#
# _framework density 23.198875999999998
#
# number of rings (size 3 to 8) (size 9 to 14) (size 15 to 20)
#    0.000    1.143    5.714    1.714    2.000    1.143 
#    0.000    0.714    0.000    0.000    0.000    0.000 
#    0.000    0.000    0.000    0.000    0.000    0.000 
#
# Total GULP energy -156173.167676 kJ/mol
# GULP energy per Si atom -5577.613131 kJ/mol
# Density = 2.314607 g / cm^3
# Si number density = 23.198876 Si / 1000 Ang^3
#
#
#
# Elastic Constant Matrix: (Units=GPa)
#
#
# Indices 1 2 3 4 5 6 
#
# 1 77.4219 17.2161 10.4284 0.0000 5.6055 0.0000
# 2 17.2161 82.6792 19.0637 0.0000 6.8917 0.0000
# 3 10.4284 19.0637 97.8217 0.0000 10.3720 0.0000
# 4 0.0000 0.0000 0.0000 32.8533 0.0000 7.2799
# 5 5.6055 6.8917 10.3720 0.0000 30.4393 0.0000
# 6 0.0000 0.0000 0.0000 7.2799 0.0000 16.3583
#
#
#
# Elastic Compliance Matrix: (Units=1/GPa)
#
#
# Indices 1 2 3 4 5 6 
#
# 1 0.013707 -0.002532 -0.000790 0.000000 -0.001682 0.000000
# 2 -0.002532 0.013263 -0.002122 0.000000 -0.001813 0.000000
# 3 -0.000790 -0.002122 0.011053 0.000000 -0.003140 0.000000
# 4 0.000000 0.000000 0.000000 0.033768 0.000000 -0.015028
# 5 -0.001682 -0.001813 -0.003140 0.000000 0.034643 0.000000
# 6 0.000000 0.000000 0.000000 -0.015028 0.000000 0.067819
#
#
# Mechanical properties :
#
#
# Convention : Reuss Voigt Hill
#
# Bulk Modulus (GPa) = 36.85201 39.03770 37.94485
# Shear Modulus (GPa) = 25.74843 30.01115 27.87979
#
# Velocity S-wave (km/s) = 3.33513 3.60063 3.47042
# Velocity P-wave (km/s) = 5.54532 5.84380 5.69651
#
# Compressibility (1/GPa) = 0.02713556
#
# Stress axis : x y z
#
# Youngs Moduli (GPa) = 72.95330 75.39937 90.46941
#
# Poissons Ratio (x) = 0.19091 0.07143
# Poissons Ratio (y) = 0.18472 0.19202
# Poissons Ratio (z) = 0.05760 0.16003
#
# Static dielectric constant tensor:
#      x y z
#    x 1.931530 0.000000 -0.010480 
#    y 0.000000 1.889400 0.000000 
#    z -0.010480 0.000000 1.945160 
# 
# From -- ./inp_files/190930.got.cif
#   From: 2010.05.17/outbox.cif.g08.bks.cpg/sg15_96_cif.got.tgz:190930.got - 2010.06.03 18:47:42.
