data_PCOD9267646
_publ_section_title
;
Structure prediction by ZEFSAII (Michael W. Deem and Ramdas Pophale) SiO2 
 PCOD9267646
Probable space group: C 2/C
;
_chemical_formula_sum "Si O2"
_cell_formula_units_Z 48
_cell_length_a 11.876716
_cell_length_b 8.040768
_cell_length_c 21.562930
_cell_angle_alpha 90.000000
_cell_angle_beta 86.157709
_cell_angle_gamma 90.000000
_cell_volume 2054.586379
_symmetry_space_group_name_H-M "C 2/C"
_symmetry_group_IT_number 15
_symmetry_cell_setting 'monoclinic'
loop_
_space_group_symop_operation_xyz
x,y,z
-x,y,1/2-z
-x,-y,-z
x,-y,1/2+z
1/2+x,1/2+y,z
1/2-x,1/2+y,1/2-z
1/2-x,1/2-y,-z
1/2+x,1/2-y,1/2+z
loop_
_atom_site_type_symbol
_atom_site_label
_atom_site_fract_x
_atom_site_fract_y
_atom_site_fract_z
Si Si1 0.916398 0.639946 0.528557
Si Si2 0.191505 0.207105 0.589040
Si Si3 0.279807 0.796012 0.683085
Si Si4 0.324868 0.590547 0.183907
Si Si5 0.547058 0.763302 0.142511
Si Si6 0.981959 0.639372 0.322908
O O1 0.874274 0.744977 0.471019
O O2 0.794713 0.589238 0.563242
O O3 0.000000 0.500000 0.500000
O O4 0.995621 0.732429 0.575618
O O5 0.268181 0.345117 0.622248
O O6 0.088304 0.211898 0.642639
O O7 0.320397 0.606162 0.683616
O O8 0.245611 0.849351 0.753825
O O9 0.168060 0.820802 0.646608
O O10 0.391833 0.885925 0.656000
O O11 0.448165 0.672617 0.184180
O O12 0.567151 0.953822 0.164675
O O13 0.000000 0.672261 0.250000
#
# Coordination Sequence:
#
# PCOD9267646 Si02
#       6
#     8   8   8   8   8   8
#     4  10  19  39  71  90 122 174 227 264 315 382
#     4  10  21  39  64  94 124 175 218 263 326 385
#     4  12  23  40  62  94 135 166 212 267 324 392
#     4  11  22  40  62  91 131 173 212 266 323 384
#     4  11  23  41  64  95 128 171 219 267 322 381
#     4  12  22  41  64  94 136 170 211 270 332 394
#
# _framework density 23.362366000000002
#
# number of rings (size 3 to 8) (size 9 to 14) (size 15 to 20)
#    0.000    1.000    5.000    2.500    0.000    1.333 
#    6.000    0.833    0.000    6.000    0.000    0.000 
#    0.000    0.000    0.000    0.000    0.000    0.000 
#
# Total GULP energy -133873.138426 kJ/mol
# GULP energy per Si atom -5578.047434 kJ/mol
# Density = 2.330919 g / cm^3
# Si number density = 23.362366 Si / 1000 Ang^3
#
#
#
# Elastic Constant Matrix: (Units=GPa)
#
#
# Indices 1 2 3 4 5 6 
#
# 1 191.7108 17.4880 45.7745 0.0000 -11.0956 0.0000
# 2 17.4880 20.7562 12.3890 0.0000 -6.7998 0.0000
# 3 45.7745 12.3890 130.5464 0.0000 14.0663 0.0000
# 4 0.0000 0.0000 0.0000 5.3040 0.0000 0.9322
# 5 -11.0956 -6.7998 14.0663 0.0000 45.4174 0.0000
# 6 0.0000 0.0000 0.0000 0.9322 0.0000 40.5883
#
#
#
# Elastic Compliance Matrix: (Units=1/GPa)
#
#
# Indices 1 2 3 4 5 6 
#
# 1 0.006095 -0.003431 -0.001983 0.000000 0.001589 0.000000
# 2 -0.003431 0.057262 -0.005240 0.000000 0.009358 0.000000
# 3 -0.001983 -0.005240 0.009300 0.000000 -0.004149 0.000000
# 4 0.000000 0.000000 0.000000 0.189300 0.000000 -0.004348
# 5 0.001589 0.009358 -0.004149 0.000000 0.025092 0.000000
# 6 0.000000 0.000000 0.000000 -0.004348 0.000000 0.024737
#
#
# Mechanical properties :
#
#
# Convention : Reuss Voigt Hill
#
# Bulk Modulus (GPa) = 19.47419 54.92405 37.19912
# Shear Modulus (GPa) = 14.27720 36.08607 25.18163
#
# Velocity S-wave (km/s) = 2.47477 3.93443 3.28666
# Velocity P-wave (km/s) = 4.06445 6.64833 5.51000
#
# Compressibility (1/GPa) = 0.05135002
#
# Stress axis : x y z
#
# Youngs Moduli (GPa) = 164.08170 17.46362 107.53158
#
# Poissons Ratio (x) = 0.05991 0.21320
# Poissons Ratio (y) = 0.56294 0.56342
# Poissons Ratio (z) = 0.32531 0.09150
#
# Static dielectric constant tensor:
#      x y z
#    x 2.097690 0.000000 -0.058320 
#    y 0.000000 1.882970 0.000000 
#    z -0.058320 0.000000 1.923150 
# 
# From -- ./inp_files/267719.got.cif
#   From: 2010.05.17/outbox.cif.g08.bks.cpg/sg15_134_cif.got.tgz:267719.got - 2010.06.03 18:47:42.
