data_PCOD9267165
_publ_section_title
;
Structure prediction by ZEFSAII (Michael W. Deem and Ramdas Pophale) SiO2 
 PCOD9267165
Probable space group: C 2/C
;
_chemical_formula_sum "Si O2"
_cell_formula_units_Z 48
_cell_length_a 9.155590
_cell_length_b 28.598589
_cell_length_c 17.969976
_cell_angle_alpha 90.000000
_cell_angle_beta 148.718300
_cell_angle_gamma 90.000000
_cell_volume 2443.159080
_symmetry_space_group_name_H-M "C 2/C"
_symmetry_group_IT_number 15
_symmetry_cell_setting 'monoclinic'
loop_
_space_group_symop_operation_xyz
x,y,z
-x,y,1/2-z
-x,-y,-z
x,-y,1/2+z
1/2+x,1/2+y,z
1/2-x,1/2+y,1/2-z
1/2-x,1/2-y,-z
1/2+x,1/2-y,1/2+z
loop_
_atom_site_type_symbol
_atom_site_label
_atom_site_fract_x
_atom_site_fract_y
_atom_site_fract_z
Si Si1 0.641407 0.589465 0.893574
Si Si2 0.205772 0.837999 0.158794
Si Si3 0.763829 0.387445 0.918799
Si Si4 0.557236 0.205959 0.934664
Si Si5 0.205638 0.988078 0.909324
Si Si6 0.268726 0.265116 0.921481
O O1 0.500000 0.589566 0.750000
O O2 0.468586 0.623082 0.872486
O O3 0.629943 0.535833 0.918551
O O4 0.960096 0.605449 0.013483
O O5 0.500000 0.855074 0.250000
O O6 0.326527 0.800809 0.270827
O O7 0.986719 0.808859 0.013083
O O8 0.500000 0.380157 0.750000
O O9 0.727709 0.435725 0.950169
O O10 0.796538 0.343374 0.986679
O O11 0.403574 0.219472 0.943293
O O12 0.750000 0.250000 0.000000
O O13 0.000000 0.983114 0.750000
O O14 0.500000 0.000000 0.000000
O O15 0.000000 0.275415 0.750000
O O16 0.250000 0.250000 0.000000
#
# Coordination Sequence:
#
# PCOD9267165 Si02
#       6
#     8   8   8   8   8   8
#     4  10  19  38  66  94 124 162 219 275 336 399
#     4  12  25  43  62  93 133 180 221 266 331 400
#     4  10  21  35  62  97 127 159 213 279 340 384
#     4  12  25  40  60  92 132 175 221 267 325 395
#     4   8  16  32  57  95 121 151 201 278 334 385
#     4  12  26  42  65  94 133 175 226 277 330 388
#
# _framework density 19.646695000000001
#
# number of rings (size 3 to 8) (size 9 to 14) (size 15 to 20)
#    0.000    1.333    5.000    1.000    2.333    1.333 
#    0.000    0.000    0.000    1.000    0.000    0.000 
#    0.000    0.000    0.000    0.000    0.000    0.000 
#
# Total GULP energy -133698.820868 kJ/mol
# GULP energy per Si atom -5570.784203 kJ/mol
# Density = 1.960198 g / cm^3
# Si number density = 19.646695 Si / 1000 Ang^3
#
#
#
# Elastic Constant Matrix: (Units=GPa)
#
#
# Indices 1 2 3 4 5 6 
#
# 1 80.9051 31.0764 35.4222 0.0000 5.8833 0.0000
# 2 31.0764 167.5140 59.6007 0.0000 8.3987 0.0000
# 3 35.4222 59.6007 143.3732 -0.0001 13.4452 0.0000
# 4 0.0000 0.0000 -0.0001 28.6406 0.0000 5.7542
# 5 5.8833 8.3987 13.4452 0.0000 25.3291 0.0000
# 6 0.0000 0.0000 0.0000 5.7542 0.0000 32.1512
#
#
#
# Elastic Compliance Matrix: (Units=1/GPa)
#
#
# Indices 1 2 3 4 5 6 
#
# 1 0.014271 -0.001609 -0.002732 0.000000 -0.001331 0.000000
# 2 -0.001609 0.007203 -0.002534 0.000000 -0.000670 0.000000
# 3 -0.002732 -0.002534 0.009014 0.000000 -0.003310 0.000000
# 4 0.000000 0.000000 0.000000 0.036218 0.000000 -0.006482
# 5 -0.001331 -0.000670 -0.003310 0.000000 0.041768 0.000000
# 6 0.000000 0.000000 0.000000 -0.006482 0.000000 0.032263
#
#
# Mechanical properties :
#
#
# Convention : Reuss Voigt Hill
#
# Bulk Modulus (GPa) = 59.74496 71.55455 65.64975
# Shear Modulus (GPa) = 31.23691 34.93704 33.08697
#
# Velocity S-wave (km/s) = 3.99172 4.22152 4.10823
# Velocity P-wave (km/s) = 7.19172 7.76282 7.48272
#
# Compressibility (1/GPa) = 0.01673781
#
# Stress axis : x y z
#
# Youngs Moduli (GPa) = 70.07161 138.82504 110.94198
#
# Poissons Ratio (x) = 0.22332 0.30313
# Poissons Ratio (y) = 0.11272 0.28115
# Poissons Ratio (z) = 0.19146 0.35181
#
# Static dielectric constant tensor:
#      x y z
#    x 1.885290 0.000000 -0.100450 
#    y 0.000000 1.811150 0.000000 
#    z -0.100450 0.000000 1.813140 
# 
# From -- ./inp_files/194341.got.cif
#   From: 2010.05.17/outbox.cif.g08.bks.cpg/sg15_98_cif.got.tgz:194341.got - 2010.06.03 18:47:42.
