data_PCOD9267944
_publ_section_title
;
Structure prediction by ZEFSAII (Michael W. Deem and Ramdas Pophale) SiO2 
 PCOD9267944
Probable space group: C 2/C
;
_chemical_formula_sum "Si O2"
_cell_formula_units_Z 48
_cell_length_a 19.973648
_cell_length_b 25.115899
_cell_length_c 8.293465
_cell_angle_alpha 90.000000
_cell_angle_beta 152.861021
_cell_angle_gamma 90.000000
_cell_volume 1897.799025
_symmetry_space_group_name_H-M "C 2/C"
_symmetry_group_IT_number 15
_symmetry_cell_setting 'monoclinic'
loop_
_space_group_symop_operation_xyz
x,y,z
-x,y,1/2-z
-x,-y,-z
x,-y,1/2+z
1/2+x,1/2+y,z
1/2-x,1/2+y,1/2-z
1/2-x,1/2-y,-z
1/2+x,1/2-y,1/2+z
loop_
_atom_site_type_symbol
_atom_site_label
_atom_site_fract_x
_atom_site_fract_y
_atom_site_fract_z
Si Si1 0.547597 0.857633 0.116192
Si Si2 0.000000 0.822643 0.250000
Si Si3 0.715584 0.418395 0.694613
Si Si4 0.500000 0.404510 0.750000
Si Si5 0.791532 0.022074 0.989735
Si Si6 0.850887 0.812601 0.622118
Si Si7 0.500000 0.930269 0.750000
Si Si8 0.500000 0.770166 0.250000
O O1 0.624741 0.897541 0.409567
O O2 0.690272 0.834605 0.323039
O O3 0.467748 0.809819 0.034081
O O4 0.448094 0.890979 0.781375
O O5 0.127584 0.864394 0.476601
O O6 0.070415 0.790766 0.547711
O O7 0.692633 0.459138 0.499690
O O8 0.665243 0.451567 0.747194
O O9 0.372204 0.446441 0.519058
O O10 0.455629 0.361455 0.792921
O O11 0.622101 0.034173 0.593148
O O12 0.866984 0.767704 0.520871
#
# Coordination Sequence:
#
# PCOD9267944 Si02
#       8
#     8   4   8   4   8   8   4   4
#     4  10  22  46  60  93 129 167 211 271 315 380
#     4  10  19  41  61  90 134 157 201 275 320 358
#     4  10  23  38  60  95 131 169 210 265 307 378
#     4  11  19  40  66  95 127 168 214 264 314 372
#     4  11  23  38  64  94 131 174 215 251 319 380
#     4  10  22  42  66  93 128 161 213 274 321 373
#     4  10  22  44  64  87 135 178 200 272 312 378
#     4  11  24  41  71  90 124 167 215 267 334 380
#
# _framework density 25.292456000000001
#
# number of rings (size 3 to 8) (size 9 to 14) (size 15 to 20)
#    0.000    1.667    5.000    1.000    2.333    6.667 
#    3.000    4.167    0.000    0.000    0.000    0.000 
#    0.000    0.000    0.000    0.000    0.000    0.000 
#
# Total GULP energy -133960.396319 kJ/mol
# GULP energy per Si atom -5581.683180 kJ/mol
# Density = 2.523489 g / cm^3
# Si number density = 25.292456 Si / 1000 Ang^3
#
#
#
# Elastic Constant Matrix: (Units=GPa)
#
#
# Indices 1 2 3 4 5 6 
#
# 1 101.4126 35.9198 13.4690 0.0000 13.3748 0.0000
# 2 35.9198 95.1447 -11.9630 0.0000 5.4980 0.0000
# 3 13.4690 -11.9630 37.1085 0.0000 -1.8352 0.0000
# 4 0.0000 0.0000 0.0000 4.4032 0.0000 2.5595
# 5 13.3748 5.4980 -1.8352 0.0000 13.8286 0.0000
# 6 0.0000 0.0000 0.0000 2.5595 0.0000 -0.4550
#
#
#
# Elastic Compliance Matrix: (Units=1/GPa)
#
#
# Indices 1 2 3 4 5 6 
#
# 1 0.014642 -0.005764 -0.007811 0.000000 -0.012906 0.000000
# 2 -0.005764 0.013438 0.006478 0.000000 0.001092 0.000000
# 3 -0.007811 0.006478 0.032330 0.000000 0.009270 0.000000
# 4 0.000000 0.000000 0.000000 0.053191 0.000000 0.299191
# 5 -0.012906 0.001092 0.009270 0.000000 0.085593 0.000000
# 6 0.000000 0.000000 0.000000 0.299191 0.000000 -0.514705
#
#
# Mechanical properties :
#
#
# Convention : Reuss Voigt Hill
#
# Bulk Modulus (GPa) = 21.63748 34.27970 27.95859
# Shear Modulus (GPa) = -17.48785 16.63801 -0.42492
#
# Velocity S-wave (km/s) = -2.63235 2.56759 -0.41033
# Velocity P-wave (km/s) = 0.81580 4.72999 3.29448
#
# Compressibility (1/GPa) = 0.04621611
#
# Stress axis : x y z
#
# Youngs Moduli (GPa) = 68.29742 74.41688 30.93110
#
# Poissons Ratio (x) = 0.42894 0.24160
# Poissons Ratio (y) = 0.39367 -0.20038
# Poissons Ratio (z) = 0.53346 -0.48209
#
# Static dielectric constant tensor:
#      x y z
#    x 2.092170 0.000000 -0.005740 
#    y 0.000000 2.008910 0.000000 
#    z -0.005740 0.000000 1.953960 
# 
# From -- ./inp_files/33136.got.cif
#   From: 2010.05.17/outbox.cif.g08.bks.cpg/sg15_17_cif.got.tgz:33136.got - 2010.06.03 18:47:42.
