data_PCOD9267981
_publ_section_title
;
Structure prediction by ZEFSAII (Michael W. Deem and Ramdas Pophale) SiO2 
 PCOD9267981
Probable space group: C 2/C
;
_chemical_formula_sum "Si O2"
_cell_formula_units_Z 52
_cell_length_a 8.990815
_cell_length_b 16.724385
_cell_length_c 18.599683
_cell_angle_alpha 90.000000
_cell_angle_beta 120.771740
_cell_angle_gamma 90.000000
_cell_volume 2403.008295
_symmetry_space_group_name_H-M "C 2/C"
_symmetry_group_IT_number 15
_symmetry_cell_setting 'monoclinic'
loop_
_space_group_symop_operation_xyz
x,y,z
-x,y,1/2-z
-x,-y,-z
x,-y,1/2+z
1/2+x,1/2+y,z
1/2-x,1/2+y,1/2-z
1/2-x,1/2-y,-z
1/2+x,1/2-y,1/2+z
loop_
_atom_site_type_symbol
_atom_site_label
_atom_site_fract_x
_atom_site_fract_y
_atom_site_fract_z
Si Si1 0.680279 0.019982 0.508630
Si Si2 0.500000 0.308099 0.250000
Si Si3 0.757087 0.692957 0.933206
Si Si4 0.332204 0.014845 0.163524
Si Si5 0.709419 0.167971 0.801302
Si Si6 0.509471 0.428337 0.943629
Si Si7 0.604383 0.260027 0.022312
O O1 0.777027 0.099396 0.561680
O O2 0.643564 0.031913 0.414790
O O3 0.500000 0.000000 0.500000
O O4 0.812154 0.946504 0.551757
O O5 0.375153 0.272525 0.157926
O O6 0.663960 0.341119 0.238464
O O7 0.750000 0.750000 0.000000
O O8 0.961147 0.694525 0.968326
O O9 0.500000 0.036047 0.250000
O O10 0.161658 0.062208 0.145519
O O11 0.295594 0.920458 0.164745
O O12 0.500000 0.189223 0.750000
O O13 0.808742 0.230060 0.878256
O O14 0.500000 0.500000 0.000000
O O15 0.512903 0.344672 0.983708
O O16 0.750000 0.250000 0.000000
#
# Coordination Sequence:
#
# PCOD9267981 Si02
#       7
#     8   4   8   8   8   8   8
#     4  11  23  41  67 100 136 176 230 286 353 419
#     4  12  26  44  72 106 138 194 246 282 358 450
#     4  12  25  44  68 102 138 181 233 293 349 423
#     4  10  22  41  66  97 134 177 231 288 347 409
#     4  11  23  43  70 105 140 185 246 294 345 438
#     4  10  19  41  64  90 130 181 223 279 351 414
#     4  12  23  42  68 100 140 186 231 291 366 421
#
# _framework density 21.639543
#
# number of rings (size 3 to 8) (size 9 to 14) (size 15 to 20)
#    0.000    0.923    4.615    4.615    4.308    0.000 
#    5.538    0.000    0.000    0.000    0.000    0.000 
#    0.000    0.000    0.000    0.000    0.000    0.000 
#
# Total GULP energy -144807.352863 kJ/mol
# GULP energy per Si atom -5569.513572 kJ/mol
# Density = 2.159029 g / cm^3
# Si number density = 21.639543 Si / 1000 Ang^3
#
#
#
# Elastic Constant Matrix: (Units=GPa)
#
#
# Indices 1 2 3 4 5 6 
#
# 1 154.6568 -3.1224 36.2211 0.0000 18.3192 0.0000
# 2 -3.1224 38.6054 9.4933 0.0000 2.4387 0.0000
# 3 36.2211 9.4933 132.7342 0.0000 34.3228 0.0000
# 4 0.0000 0.0000 0.0000 15.2906 0.0000 7.8657
# 5 18.3192 2.4387 34.3228 0.0000 44.9555 0.0000
# 6 0.0000 0.0000 0.0000 7.8657 0.0000 32.0602
#
#
#
# Elastic Compliance Matrix: (Units=1/GPa)
#
#
# Indices 1 2 3 4 5 6 
#
# 1 0.007058 0.001062 -0.001549 0.000000 -0.001751 0.000000
# 2 0.001062 0.026527 -0.002122 0.000000 -0.000252 0.000000
# 3 -0.001549 -0.002122 0.009862 0.000000 -0.006783 0.000000
# 4 0.000000 0.000000 0.000000 0.074846 0.000000 -0.018363
# 5 -0.001751 -0.000252 -0.006783 0.000000 0.028150 0.000000
# 6 0.000000 0.000000 0.000000 -0.018363 0.000000 0.035697
#
#
# Mechanical properties :
#
#
# Convention : Reuss Voigt Hill
#
# Bulk Modulus (GPa) = 26.15807 45.68672 35.92240
# Shear Modulus (GPa) = 24.98747 37.35489 31.17118
#
# Velocity S-wave (km/s) = 3.40179 4.15930 3.79947
# Velocity P-wave (km/s) = 5.24823 6.65018 5.99036
#
# Compressibility (1/GPa) = 0.03822911
#
# Stress axis : x y z
#
# Youngs Moduli (GPa) = 141.69164 37.69784 101.39477
#
# Poissons Ratio (x) = -0.04005 0.15708
# Poissons Ratio (y) = -0.15053 0.21516
# Poissons Ratio (z) = 0.21950 0.08000
#
# Static dielectric constant tensor:
#      x y z
#    x 1.878230 0.000000 -0.005130 
#    y 0.000000 1.762380 0.000000 
#    z -0.005130 0.000000 1.784550 
# 
# From -- ./inp_files/191106.got.cif
#   From: 2010.05.17/outbox.cif.g08.bks.cpg/sg15_96_cif.got.tgz:191106.got - 2010.06.03 18:47:42.
