data_PCOD9267842
_publ_section_title
;
Structure prediction by ZEFSAII (Michael W. Deem and Ramdas Pophale) SiO2 
 PCOD9267842
Probable space group: C 2/C
;
_chemical_formula_sum "Si O2"
_cell_formula_units_Z 36
_cell_length_a 12.290730
_cell_length_b 11.466281
_cell_length_c 18.412216
_cell_angle_alpha 90.000000
_cell_angle_beta 30.997109
_cell_angle_gamma 90.000000
_cell_volume 1336.316048
_symmetry_space_group_name_H-M "C 2/C"
_symmetry_group_IT_number 15
_symmetry_cell_setting 'monoclinic'
loop_
_space_group_symop_operation_xyz
x,y,z
-x,y,1/2-z
-x,-y,-z
x,-y,1/2+z
1/2+x,1/2+y,z
1/2-x,1/2+y,1/2-z
1/2-x,1/2-y,-z
1/2+x,1/2-y,1/2+z
loop_
_atom_site_type_symbol
_atom_site_label
_atom_site_fract_x
_atom_site_fract_y
_atom_site_fract_z
Si Si1 0.391254 0.648225 0.501264
Si Si2 0.761424 0.887174 0.916872
Si Si3 0.000000 0.342176 0.750000
Si Si4 0.761783 0.124263 0.858806
Si Si5 0.708457 0.000546 0.237852
O O1 0.379866 0.782038 0.534115
O O2 0.252814 0.632177 0.507966
O O3 0.615391 0.599485 0.346852
O O4 0.294679 0.571012 0.619560
O O5 0.000000 0.865790 0.750000
O O6 0.661425 0.012582 0.956435
O O7 0.212004 0.259713 0.631338
O O8 0.020833 0.422019 0.809121
O O9 0.000000 0.093666 0.750000
O O10 0.732320 0.090900 0.790996
#
# Coordination Sequence:
#
# PCOD9267842 Si02
#       5
#     8   8   4   8   8
#     4  10  22  37  66 102 126 166 229 271 320 399
#     4  10  19  40  67  91 131 173 213 274 333 386
#     4  10  24  42  68  96 130 180 216 260 346 390
#     4   9  20  42  66  90 135 174 208 273 328 386
#     4  11  22  42  65  98 134 171 219 278 325 393
#
# _framework density 26.939736
#
# number of rings (size 3 to 8) (size 9 to 14) (size 15 to 20)
#    0.667    1.333    4.444    0.000    4.667    0.000 
#    4.000   11.111    0.000    0.000    0.000    0.000 
#    0.000    0.000    0.000    0.000    0.000    0.000 
#
# Total GULP energy -100253.010216 kJ/mol
# GULP energy per Si atom -5569.611679 kJ/mol
# Density = 2.687842 g / cm^3
# Si number density = 26.939736 Si / 1000 Ang^3
#
#
#
# Elastic Constant Matrix: (Units=GPa)
#
#
# Indices 1 2 3 4 5 6 
#
# 1 153.2955 38.9372 38.7296 -0.0007 28.6226 -0.0001
# 2 38.9372 167.6208 42.5308 -0.0010 11.9598 -0.0002
# 3 38.7296 42.5308 66.9173 -0.0044 16.2927 0.0027
# 4 -0.0007 -0.0010 -0.0044 37.0642 0.0018 -10.8468
# 5 28.6226 11.9598 16.2927 0.0018 45.7107 -0.0008
# 6 -0.0001 -0.0002 0.0027 -10.8468 -0.0008 33.6897
#
#
#
# Elastic Compliance Matrix: (Units=1/GPa)
#
#
# Indices 1 2 3 4 5 6 
#
# 1 0.008282 -0.000801 -0.003365 0.000000 -0.003777 0.000000
# 2 -0.000801 0.007193 -0.004131 0.000000 0.000092 0.000000
# 3 -0.003365 -0.004131 0.020522 0.000002 -0.004127 -0.000001
# 4 0.000000 0.000000 0.000002 0.029787 -0.000002 0.009590
# 5 -0.003777 0.000092 -0.004127 -0.000002 0.025689 0.000000
# 6 0.000000 0.000000 -0.000001 0.009590 0.000000 0.032770
#
#
# Mechanical properties :
#
#
# Convention : Reuss Voigt Hill
#
# Bulk Modulus (GPa) = 51.53505 69.80320 60.66913
# Shear Modulus (GPa) = 33.94340 41.13530 37.53935
#
# Velocity S-wave (km/s) = 3.55346 3.91184 3.73695
# Velocity P-wave (km/s) = 6.00062 6.80959 6.41786
#
# Compressibility (1/GPa) = 0.01940427
#
# Stress axis : x y z
#
# Youngs Moduli (GPa) = 120.74240 139.01592 48.72915
#
# Poissons Ratio (x) = 0.11129 0.16397
# Poissons Ratio (y) = 0.09666 0.20130
# Poissons Ratio (z) = 0.40629 0.57426
#
# Static dielectric constant tensor:
#      x y z
#    x 2.096110 -0.000010 0.067750 
#    y -0.000010 2.264710 0.000010 
#    z 0.067750 0.000010 1.996390 
# 
# From -- ./inp_files/195869.got.cif
#   From: 2010.05.17/outbox.cif.g08.bks.cpg/sg15_98_cif.got.tgz:195869.got - 2010.06.03 18:47:42.
