data_PCOD9267290
_publ_section_title
;
Structure prediction by ZEFSAII (Michael W. Deem and Ramdas Pophale) SiO2 
 PCOD9267290
Probable space group: C 2/C
;
_chemical_formula_sum "Si O2"
_cell_formula_units_Z 64
_cell_length_a 21.663514
_cell_length_b 19.971692
_cell_length_c 17.615411
_cell_angle_alpha 90.000000
_cell_angle_beta 25.781092
_cell_angle_gamma 90.000000
_cell_volume 3314.819369
_symmetry_space_group_name_H-M "C 2/C"
_symmetry_group_IT_number 15
_symmetry_cell_setting 'monoclinic'
loop_
_space_group_symop_operation_xyz
x,y,z
-x,y,1/2-z
-x,-y,-z
x,-y,1/2+z
1/2+x,1/2+y,z
1/2-x,1/2+y,1/2-z
1/2-x,1/2-y,-z
1/2+x,1/2-y,1/2+z
loop_
_atom_site_type_symbol
_atom_site_label
_atom_site_fract_x
_atom_site_fract_y
_atom_site_fract_z
Si Si1 0.673635 0.450242 0.359709
Si Si2 0.154086 0.938502 0.111336
Si Si3 0.888124 0.362995 0.043975
Si Si4 0.054692 0.752539 0.431616
Si Si5 0.639884 0.454479 0.751640
Si Si6 0.331271 0.936845 0.764380
Si Si7 0.774014 0.200484 0.902709
Si Si8 0.278227 0.337588 0.747976
O O1 0.529097 0.439202 0.566377
O O2 0.647035 0.500355 0.319259
O O3 0.788328 0.489500 0.283547
O O4 0.740956 0.386608 0.243622
O O5 0.144899 0.866796 0.162669
O O6 0.000000 0.955156 0.250000
O O7 0.193024 0.998344 0.125277
O O8 0.262113 0.928224 0.923096
O O9 0.954236 0.310488 0.027903
O O10 0.001604 0.422772 0.914687
O O11 0.863977 0.328054 0.989165
O O12 0.140121 0.763131 0.258802
O O13 0.170188 0.725284 0.364244
O O14 0.941258 0.812095 0.566932
O O15 0.728311 0.388024 0.673427
O O16 0.260798 0.882832 0.783505
O O17 0.750000 0.250000 0.000000
#
# Coordination Sequence:
#
# PCOD9267290 Si02
#       8
#     8   8   8   8   8   8   8   8
#     4  10  19  39  58  85 113 162 209 256 301 352
#     4  12  23  39  58  89 120 162 207 250 303 363
#     4  11  22  38  57  86 122 166 204 247 301 355
#     4  11  22  38  57  87 118 160 203 242 302 364
#     4  10  21  36  62  82 118 158 206 257 303 353
#     4  10  22  37  61  87 123 156 206 250 304 368
#     4  12  25  37  55  83 131 170 197 237 296 372
#     4  10  21  38  60  89 120 156 204 252 297 367
#
# _framework density 19.307236
#
# number of rings (size 3 to 8) (size 9 to 14) (size 15 to 20)
#    0.000    1.250    3.750    3.375    3.500    1.500 
#    0.000    0.000    0.000    0.000    0.000    3.500 
#    0.000    0.000    0.000    0.000    0.000    0.000 
#
# Total GULP energy -178454.304869 kJ/mol
# GULP energy per Si atom -5576.697027 kJ/mol
# Density = 1.926329 g / cm^3
# Si number density = 19.307236 Si / 1000 Ang^3
#
#
#
# Elastic Constant Matrix: (Units=GPa)
#
#
# Indices 1 2 3 4 5 6 
#
# 1 59.0095 36.2682 18.1421 -0.0003 -16.5964 0.0000
# 2 36.2682 77.5302 21.1116 -0.0002 -0.8149 -0.0012
# 3 18.1421 21.1116 38.2677 -0.0072 -10.0558 0.0037
# 4 -0.0003 -0.0002 -0.0072 28.2783 0.0009 0.0640
# 5 -16.5964 -0.8149 -10.0558 0.0009 20.1733 0.0002
# 6 0.0000 -0.0012 0.0037 0.0640 0.0002 42.0195
#
#
#
# Elastic Compliance Matrix: (Units=1/GPa)
#
#
# Indices 1 2 3 4 5 6 
#
# 1 0.034483 -0.015721 -0.000446 -0.000001 0.027512 -0.000001
# 2 -0.015721 0.022645 -0.009434 -0.000002 -0.016721 0.000002
# 3 -0.000446 -0.009434 0.036077 0.000009 0.017235 -0.000004
# 4 -0.000001 -0.000002 0.000009 0.035363 0.000002 -0.000054
# 5 0.027512 -0.016721 0.017235 0.000002 0.080120 -0.000002
# 6 -0.000001 0.000002 -0.000004 -0.000054 -0.000002 0.023799
#
#
# Mechanical properties :
#
#
# Convention : Reuss Voigt Hill
#
# Bulk Modulus (GPa) = 23.80699 36.20570 30.00635
# Shear Modulus (GPa) = 16.79605 24.71323 20.75464
#
# Velocity S-wave (km/s) = 2.95267 3.58159 3.28223
# Velocity P-wave (km/s) = 4.89711 5.99139 5.47168
#
# Compressibility (1/GPa) = 0.04200446
#
# Stress axis : x y z
#
# Youngs Moduli (GPa) = 28.99955 44.15925 27.71882
#
# Poissons Ratio (x) = 0.69421 0.01236
# Poissons Ratio (y) = 0.45589 0.26150
# Poissons Ratio (z) = 0.01293 0.41660
#
# Static dielectric constant tensor:
#      x y z
#    x 1.704010 0.000000 -0.047150 
#    y 0.000000 1.745650 0.000000 
#    z -0.047150 0.000000 1.699290 
# 
# From -- ./inp_files/216166.got.cif
#   From: 2010.05.17/outbox.cif.g08.bks.cpg/sg15_109_cif.got.tgz:216166.got - 2010.06.03 18:47:42.
