data_PCOD9267113
_publ_section_title
;
Structure prediction by ZEFSAII (Michael W. Deem and Ramdas Pophale) SiO2 
 PCOD9267113
Probable space group: C 2/C
;
_chemical_formula_sum "Si O2"
_cell_formula_units_Z 52
_cell_length_a 28.321471
_cell_length_b 18.511548
_cell_length_c 14.563849
_cell_angle_alpha 90.000000
_cell_angle_beta 19.781358
_cell_angle_gamma 90.000000
_cell_volume 2584.079324
_symmetry_space_group_name_H-M "C 2/C"
_symmetry_group_IT_number 15
_symmetry_cell_setting 'monoclinic'
loop_
_space_group_symop_operation_xyz
x,y,z
-x,y,1/2-z
-x,-y,-z
x,-y,1/2+z
1/2+x,1/2+y,z
1/2-x,1/2+y,1/2-z
1/2-x,1/2-y,-z
1/2+x,1/2-y,1/2+z
loop_
_atom_site_type_symbol
_atom_site_label
_atom_site_fract_x
_atom_site_fract_y
_atom_site_fract_z
Si Si1 0.300502 0.086597 0.988762
Si Si2 0.385758 0.788822 0.213599
Si Si3 0.442210 0.122474 0.451222
Si Si4 0.512919 0.353318 0.424967
Si Si5 0.200487 0.466491 0.807724
Si Si6 0.803906 0.570020 0.393073
Si Si7 0.500000 0.590475 0.750000
O O1 0.339275 0.072416 0.024054
O O2 0.137172 0.109915 0.278155
O O3 0.398356 0.146335 0.763117
O O4 0.313051 0.012252 0.910626
O O5 0.250000 0.750000 0.500000
O O6 0.351098 0.823086 0.177660
O O7 0.502996 0.727622 0.983396
O O8 0.500000 0.151346 0.250000
O O9 0.574722 0.110242 0.274798
O O10 0.364686 0.046522 0.574580
O O11 0.517224 0.358619 0.306621
O O12 0.652670 0.396725 0.196200
O O13 0.172107 0.430916 0.760417
O O14 0.368231 0.461787 0.504236
#
# Coordination Sequence:
#
# PCOD9267113 Si02
#       7
#     8   8   8   8   8   8   4
#     4  10  19  38  65  93 124 160 213 265 318 370
#     4  10  23  42  63  87 127 174 209 259 326 389
#     4  12  24  39  64  92 127 159 208 262 319 378
#     4   9  20  37  62  91 124 168 211 253 320 387
#     4  10  20  37  61  97 121 158 205 267 320 371
#     4  11  21  37  64  92 126 161 209 267 317 372
#     4   8  18  36  62  92 124 160 212 262 312 378
#
# _framework density 20.12322
#
# number of rings (size 3 to 8) (size 9 to 14) (size 15 to 20)
#    0.000    1.846    3.077    0.923    1.077    0.615 
#    0.000    0.000    3.385    0.000    0.000    0.000 
#    0.000    0.000    0.000    0.000    0.000    0.000 
#
# Total GULP energy -144985.590419 kJ/mol
# GULP energy per Si atom -5576.368862 kJ/mol
# Density = 2.007742 g / cm^3
# Si number density = 20.123220 Si / 1000 Ang^3
#
#
#
# Elastic Constant Matrix: (Units=GPa)
#
#
# Indices 1 2 3 4 5 6 
#
# 1 116.1921 35.2216 48.1789 -0.0003 21.1122 0.0004
# 2 35.2216 88.3976 47.2349 -0.0001 5.1921 0.0003
# 3 48.1789 47.2349 91.4844 -0.0002 10.8354 0.0002
# 4 -0.0003 -0.0001 -0.0002 31.4982 0.0003 20.2992
# 5 21.1122 5.1921 10.8354 0.0003 35.3944 -0.0004
# 6 0.0004 0.0003 0.0002 20.2992 -0.0004 13.8366
#
#
#
# Elastic Compliance Matrix: (Units=1/GPa)
#
#
# Indices 1 2 3 4 5 6 
#
# 1 0.012176 -0.002003 -0.004724 0.000007 -0.005523 -0.000011
# 2 -0.002003 0.015953 -0.007312 0.000001 0.001093 -0.000002
# 3 -0.004724 -0.007312 0.017363 0.000000 -0.001425 0.000000
# 4 0.000007 0.000001 0.000000 0.582043 -0.000020 -0.853894
# 5 -0.005523 0.001093 -0.001425 -0.000020 0.031823 0.000030
# 6 -0.000011 -0.000002 0.000000 -0.853894 0.000030 1.324988
#
#
# Mechanical properties :
#
#
# Convention : Reuss Voigt Hill
#
# Bulk Modulus (GPa) = 57.42249 61.92722 59.67485
# Shear Modulus (GPa) = 2.47742 27.17511 14.82627
#
# Velocity S-wave (km/s) = 1.11076 3.67881 2.71730
# Velocity P-wave (km/s) = 5.49931 6.99183 6.29000
#
# Compressibility (1/GPa) = 0.01741478
#
# Stress axis : x y z
#
# Youngs Moduli (GPa) = 82.12985 62.68308 57.59517
#
# Poissons Ratio (x) = 0.12554 0.27208
# Poissons Ratio (y) = 0.16449 0.42112
# Poissons Ratio (z) = 0.38799 0.45832
#
# Static dielectric constant tensor:
#      x y z
#    x 1.706750 0.000000 0.011420 
#    y 0.000000 1.761860 0.000000 
#    z 0.011420 0.000000 1.759480 
# 
# From -- ./inp_files/182826.got.cif
#   From: 2010.05.17/outbox.cif.g08.bks.cpg/sg15_92_cif.got.tgz:182826.got - 2010.06.03 18:47:42.
