data_PCOD9267103
_publ_section_title
;
Structure prediction by ZEFSAII (Michael W. Deem and Ramdas Pophale) SiO2 
 PCOD9267103
Probable space group: C 2/C
;
_chemical_formula_sum "Si O2"
_cell_formula_units_Z 48
_cell_length_a 9.827551
_cell_length_b 16.992273
_cell_length_c 30.932271
_cell_angle_alpha 90.000000
_cell_angle_beta 151.782588
_cell_angle_gamma 90.000000
_cell_volume 2442.323078
_symmetry_space_group_name_H-M "C 2/C"
_symmetry_group_IT_number 15
_symmetry_cell_setting 'monoclinic'
loop_
_space_group_symop_operation_xyz
x,y,z
-x,y,1/2-z
-x,-y,-z
x,-y,1/2+z
1/2+x,1/2+y,z
1/2-x,1/2+y,1/2-z
1/2-x,1/2-y,-z
1/2+x,1/2-y,1/2+z
loop_
_atom_site_type_symbol
_atom_site_label
_atom_site_fract_x
_atom_site_fract_y
_atom_site_fract_z
Si Si1 0.584494 0.162093 0.226516
Si Si2 0.294034 0.951227 0.581140
Si Si3 0.737556 0.905988 0.022243
Si Si4 0.226339 0.805345 0.203937
Si Si5 0.823247 0.065833 0.739826
Si Si6 0.367274 0.447822 0.611462
O O1 0.500000 0.193441 0.250000
O O2 0.357520 0.101472 0.141229
O O3 0.640729 0.228652 0.206815
O O4 0.874582 0.113078 0.316549
O O5 0.296503 0.899046 0.538460
O O6 0.559749 0.011692 0.651558
O O7 0.000000 0.000000 0.500000
O O8 0.960852 0.842380 0.102816
O O9 0.848237 0.994815 0.064682
O O10 0.431932 0.905274 0.961389
O O11 0.500000 0.791698 0.250000
O O12 0.293821 0.872069 0.258548
O O13 0.000000 0.103153 0.750000
O O14 0.051996 0.009128 0.827868
#
# Coordination Sequence:
#
# PCOD9267103 Si02
#       6
#     8   8   8   8   8   8
#     4  11  25  44  62  88 129 172 208 253 317 380
#     4  11  22  37  68  96 125 156 215 266 311 363
#     4  10  20  39  64  98 120 158 210 266 308 365
#     4  11  25  41  61  89 132 172 207 253 313 378
#     4  10  19  38  65  91 125 168 205 253 314 374
#     4   9  20  38  66  90 123 161 209 259 310 370
#
# _framework density 19.653419
#
# number of rings (size 3 to 8) (size 9 to 14) (size 15 to 20)
#    0.000    1.667    1.667    2.500    2.333    5.333 
#    3.000    0.833    0.000    0.000    0.000    0.000 
#    0.000    0.000    0.000    0.000    0.000    0.000 
#
# Total GULP energy -134006.648801 kJ/mol
# GULP energy per Si atom -5583.610367 kJ/mol
# Density = 1.960869 g / cm^3
# Si number density = 19.653419 Si / 1000 Ang^3
#
#
#
# Elastic Constant Matrix: (Units=GPa)
#
#
# Indices 1 2 3 4 5 6 
#
# 1 129.7839 45.7513 45.8547 -0.0004 -2.9727 0.0002
# 2 45.7513 67.1242 37.0934 -0.0012 4.9028 -0.0002
# 3 45.8547 37.0934 107.0511 -0.0062 -2.5322 -0.0006
# 4 -0.0004 -0.0012 -0.0062 10.0290 0.0000 1.1277
# 5 -2.9727 4.9028 -2.5322 0.0000 22.4199 -0.0003
# 6 0.0002 -0.0002 -0.0006 1.1277 -0.0003 28.8137
#
#
#
# Elastic Compliance Matrix: (Units=1/GPa)
#
#
# Indices 1 2 3 4 5 6 
#
# 1 0.010807 -0.006215 -0.002416 -0.000002 0.002519 0.000000
# 2 -0.006215 0.022522 -0.005292 -0.000001 -0.006347 0.000000
# 3 -0.002416 -0.005292 0.012262 0.000007 0.002222 0.000000
# 4 -0.000002 -0.000001 0.000007 0.100152 0.000001 -0.003920
# 5 0.002519 -0.006347 0.002222 0.000001 0.046576 0.000001
# 6 0.000000 0.000000 0.000000 -0.003920 0.000001 0.034859
#
#
# Mechanical properties :
#
#
# Convention : Reuss Voigt Hill
#
# Bulk Modulus (GPa) = 56.35197 62.37310 59.36254
# Shear Modulus (GPa) = 19.16151 23.93651 21.54901
#
# Velocity S-wave (km/s) = 3.12584 3.49367 3.31486
# Velocity P-wave (km/s) = 6.46243 6.93396 6.70234
#
# Compressibility (1/GPa) = 0.01774561
#
# Stress axis : x y z
#
# Youngs Moduli (GPa) = 92.52917 44.40160 81.54977
#
# Poissons Ratio (x) = 0.27596 0.19704
# Poissons Ratio (y) = 0.57507 0.43154
# Poissons Ratio (z) = 0.22357 0.23496
#
# Static dielectric constant tensor:
#      x y z
#    x 1.702190 0.000000 -0.025350 
#    y 0.000000 1.676260 0.000000 
#    z -0.025350 0.000000 1.684790 
# 
# From -- ./inp_files/308831.got.cif
#   From: 2010.05.17/outbox.cif.g08.bks.cpg/sg15_155_cif.got.tgz:308831.got - 2010.06.03 18:47:42.
