data_PCOD9267053
_publ_section_title
;
Structure prediction by ZEFSAII (Michael W. Deem and Ramdas Pophale) SiO2 
 PCOD9267053
Probable space group: C 2/C
;
_chemical_formula_sum "Si O2"
_cell_formula_units_Z 52
_cell_length_a 20.573139
_cell_length_b 20.041222
_cell_length_c 8.773668
_cell_angle_alpha 90.000000
_cell_angle_beta 36.108145
_cell_angle_gamma 90.000000
_cell_volume 2131.820628
_symmetry_space_group_name_H-M "C 2/C"
_symmetry_group_IT_number 15
_symmetry_cell_setting 'monoclinic'
loop_
_space_group_symop_operation_xyz
x,y,z
-x,y,1/2-z
-x,-y,-z
x,-y,1/2+z
1/2+x,1/2+y,z
1/2-x,1/2+y,1/2-z
1/2-x,1/2-y,-z
1/2+x,1/2-y,1/2+z
loop_
_atom_site_type_symbol
_atom_site_label
_atom_site_fract_x
_atom_site_fract_y
_atom_site_fract_z
Si Si1 0.500000 0.558967 0.750000
Si Si2 0.401210 0.045291 0.596842
Si Si3 0.031314 0.131937 0.360199
Si Si4 0.236427 0.931447 0.858009
Si Si5 0.509785 0.216123 0.906012
Si Si6 0.625473 0.890995 0.652516
Si Si7 0.726601 0.855346 0.994147
O O1 0.505078 0.594800 0.571010
O O2 0.623539 0.530359 0.532888
O O3 0.372042 0.105867 0.531743
O O4 0.533187 0.050511 0.358022
O O5 0.339611 0.075318 0.857335
O O6 0.338027 0.982331 0.650372
O O7 0.981264 0.206353 0.466324
O O8 0.000000 0.104892 0.250000
O O9 0.163236 0.142154 0.116937
O O10 0.258906 0.907078 0.987984
O O11 0.239282 0.865322 0.747641
O O12 0.500000 0.191528 0.750000
O O13 0.639133 0.202479 0.693538
O O14 0.430975 0.172820 0.163258
#
# Coordination Sequence:
#
# PCOD9267053 Si02
#       7
#     4   8   8   8   8   8   8
#     4  10  26  44  64  88 126 172 214 260 300 380
#     4  10  22  36  59  96 119 159 201 254 314 369
#     4  10  23  42  64  91 125 167 215 259 310 365
#     4  11  21  41  60  86 124 166 204 250 314 367
#     4  10  19  38  64  92 124 162 199 257 322 373
#     4  10  21  36  62  91 125 153 199 258 310 379
#     4  10  21  38  61  90 122 162 205 257 305 376
#
# _framework density 24.392296000000002
#
# number of rings (size 3 to 8) (size 9 to 14) (size 15 to 20)
#    0.000    1.846    1.538    1.846    2.154    6.154 
#    1.385    3.077    0.000    0.000    0.000    0.000 
#    0.000    0.000    0.000    0.000    0.000    0.000 
#
# Total GULP energy -144887.335961 kJ/mol
# GULP energy per Si atom -5572.589845 kJ/mol
# Density = 2.433678 g / cm^3
# Si number density = 24.392296 Si / 1000 Ang^3
#
#
#
# Elastic Constant Matrix: (Units=GPa)
#
#
# Indices 1 2 3 4 5 6 
#
# 1 185.0662 4.0893 42.1712 0.0000 -19.9144 0.0000
# 2 4.0893 32.5224 6.3007 0.0000 -7.8701 0.0000
# 3 42.1712 6.3007 50.0767 0.0000 -5.0292 0.0000
# 4 0.0000 0.0000 0.0000 18.1747 0.0000 -3.9551
# 5 -19.9144 -7.8701 -5.0292 0.0000 43.6346 0.0000
# 6 0.0000 0.0000 0.0000 -3.9551 0.0000 15.4392
#
#
#
# Elastic Compliance Matrix: (Units=1/GPa)
#
#
# Indices 1 2 3 4 5 6 
#
# 1 0.006975 0.000880 -0.005715 0.000000 0.002683 0.000000
# 2 0.000880 0.032881 -0.004292 0.000000 0.005837 0.000000
# 3 -0.005715 -0.004292 0.025275 0.000000 -0.000469 0.000000
# 4 0.000000 0.000000 0.000000 0.058270 0.000000 0.014927
# 5 0.002683 0.005837 -0.000469 0.000000 0.025141 0.000000
# 6 0.000000 0.000000 0.000000 0.014927 0.000000 0.068594
#
#
# Mechanical properties :
#
#
# Convention : Reuss Voigt Hill
#
# Bulk Modulus (GPa) = 21.33231 41.42085 31.37658
# Shear Modulus (GPa) = 19.91900 29.78998 24.85449
#
# Velocity S-wave (km/s) = 2.86074 3.49848 3.19556
# Velocity P-wave (km/s) = 4.43579 5.77383 5.14847
#
# Compressibility (1/GPa) = 0.04687725
#
# Stress axis : x y z
#
# Youngs Moduli (GPa) = 143.36737 30.41229 39.56466
#
# Poissons Ratio (x) = -0.02675 0.22612
# Poissons Ratio (y) = -0.12609 0.16979
# Poissons Ratio (z) = 0.81936 0.13052
#
# Static dielectric constant tensor:
#      x y z
#    x 1.988800 0.000000 0.015730 
#    y 0.000000 2.091520 0.000000 
#    z 0.015730 0.000000 1.999820 
# 
# From -- ./inp_files/58586.got.cif
#   From: 2010.05.17/outbox.cif.g08.bks.cpg/sg15_30_cif.got.tgz:58586.got - 2010.06.03 18:47:42.
