data_PCOD9267188
_publ_section_title
;
Structure prediction by ZEFSAII (Michael W. Deem and Ramdas Pophale) SiO2 
 PCOD9267188
Probable space group: C 2/C
;
_chemical_formula_sum "Si O2"
_cell_formula_units_Z 40
_cell_length_a 12.121515
_cell_length_b 8.674052
_cell_length_c 15.842227
_cell_angle_alpha 90.000000
_cell_angle_beta 63.282008
_cell_angle_gamma 90.000000
_cell_volume 1487.848045
_symmetry_space_group_name_H-M "C 2/C"
_symmetry_group_IT_number 15
_symmetry_cell_setting 'monoclinic'
loop_
_space_group_symop_operation_xyz
x,y,z
-x,y,1/2-z
-x,-y,-z
x,-y,1/2+z
1/2+x,1/2+y,z
1/2-x,1/2+y,1/2-z
1/2-x,1/2-y,-z
1/2+x,1/2-y,1/2+z
loop_
_atom_site_type_symbol
_atom_site_label
_atom_site_fract_x
_atom_site_fract_y
_atom_site_fract_z
Si Si1 0.351648 0.180479 0.206212
Si Si2 0.050006 0.241820 0.502682
Si Si3 0.644987 0.511507 0.698337
Si Si4 0.978931 0.623769 0.845284
Si Si5 0.750713 0.976263 0.517505
O O1 0.426908 0.261064 0.102840
O O2 0.328745 0.308911 0.285342
O O3 0.222168 0.101158 0.230513
O O4 0.439777 0.033002 0.193156
O O5 0.018308 0.304106 0.421097
O O6 0.133687 0.090137 0.471319
O O7 0.145592 0.355667 0.519654
O O8 0.500000 0.512026 0.750000
O O9 0.690716 0.469054 0.589592
O O10 0.000000 0.708590 0.750000
O O11 0.833174 0.592400 0.902584
#
# Coordination Sequence:
#
# PCOD9267188 Si02
#       5
#     8   8   8   8   8
#     4  11  23  40  69 111 152 193 256 309 376 456
#     4  10  19  38  67 111 140 191 261 311 359 460
#     4  12  23  43  74 112 148 200 250 308 383 456
#     4  11  22  37  68 114 142 196 258 310 373 449
#     4  10  20  38  71 110 143 190 256 308 370 456
#
# _framework density 26.884466
#
# number of rings (size 3 to 8) (size 9 to 14) (size 15 to 20)
#    0.000    1.200    6.000    1.800    5.600    0.000 
#    0.000    2.000    0.000   14.400    5.200    1.400 
#    0.000    0.000    0.000    0.000    0.000    0.000 
#
# Total GULP energy -112139.758747 kJ/mol
# GULP energy per Si atom -5606.987937 kJ/mol
# Density = 2.682328 g / cm^3
# Si number density = 26.884466 Si / 1000 Ang^3
#
#
#
# Elastic Constant Matrix: (Units=GPa)
#
#
# Indices 1 2 3 4 5 6 
#
# 1 153.5077 41.5917 26.2487 0.0000 -16.7270 0.0000
# 2 41.5917 91.5688 -2.7002 0.0000 15.8968 0.0000
# 3 26.2487 -2.7002 134.2698 0.0000 12.9299 0.0000
# 4 0.0000 0.0000 0.0000 -68.6532 0.0000 70.0536
# 5 -16.7270 15.8968 12.9299 0.0000 48.6253 0.0000
# 6 0.0000 0.0000 0.0000 70.0536 0.0000 -21.1048
#
#
#
# Elastic Compliance Matrix: (Units=1/GPa)
#
#
# Indices 1 2 3 4 5 6 
#
# 1 0.008850 -0.005010 -0.002342 0.000000 0.005305 0.000000
# 2 -0.005010 0.014463 0.001941 0.000000 -0.006968 0.000000
# 3 -0.002342 0.001941 0.008296 0.000000 -0.003646 0.000000
# 4 0.000000 0.000000 0.000000 0.006102 0.000000 0.020255
# 5 0.005305 -0.006968 -0.003646 0.000000 0.025638 0.000000
# 6 0.000000 0.000000 0.000000 0.020255 0.000000 0.019850
#
#
# Mechanical properties :
#
#
# Convention : Reuss Voigt Hill
#
# Bulk Modulus (GPa) = 48.10406 56.62518 52.36462
# Shear Modulus (GPa) = 49.52980 12.72054 31.12517
#
# Velocity S-wave (km/s) = 4.29688 2.17757 3.40625
# Velocity P-wave (km/s) = 6.52298 5.23742 5.91523
#
# Compressibility (1/GPa) = 0.02078827
#
# Stress axis : x y z
#
# Youngs Moduli (GPa) = 112.99176 69.14085 120.54530
#
# Poissons Ratio (x) = 0.34639 0.28229
# Poissons Ratio (y) = 0.56608 -0.23401
# Poissons Ratio (z) = 0.26460 -0.13422
#
# Static dielectric constant tensor:
#      x y z
#    x 2.096860 0.000000 0.036850 
#    y 0.000000 2.216860 0.000000 
#    z 0.036850 0.000000 2.051630 
# 
# From -- ./inp_files/195907.got.cif
#   From: 2010.05.17/outbox.cif.g08.bks.cpg/sg15_98_cif.got.tgz:195907.got - 2010.06.03 18:47:42.
