data_PCOD9267154
_publ_section_title
;
Structure prediction by ZEFSAII (Michael W. Deem and Ramdas Pophale) SiO2 
 PCOD9267154
Probable space group: C 2/C
;
_chemical_formula_sum "Si O2"
_cell_formula_units_Z 56
_cell_length_a 20.713815
_cell_length_b 17.280193
_cell_length_c 14.393127
_cell_angle_alpha 90.000000
_cell_angle_beta 28.509849
_cell_angle_gamma 90.000000
_cell_volume 2459.032159
_symmetry_space_group_name_H-M "C 2/C"
_symmetry_group_IT_number 15
_symmetry_cell_setting 'monoclinic'
loop_
_space_group_symop_operation_xyz
x,y,z
-x,y,1/2-z
-x,-y,-z
x,-y,1/2+z
1/2+x,1/2+y,z
1/2-x,1/2+y,1/2-z
1/2-x,1/2-y,-z
1/2+x,1/2-y,1/2+z
loop_
_atom_site_type_symbol
_atom_site_label
_atom_site_fract_x
_atom_site_fract_y
_atom_site_fract_z
Si Si1 0.754107 0.227291 0.102561
Si Si2 0.391605 0.583959 0.020147
Si Si3 0.501447 0.823514 0.465585
Si Si4 0.606860 0.289432 0.692131
Si Si5 0.878813 0.529213 0.089555
Si Si6 0.261497 0.117970 0.713200
Si Si7 0.538897 0.436706 0.853500
O O1 0.869623 0.167002 0.997305
O O2 0.609045 0.191035 0.314911
O O3 0.762268 0.308673 0.145837
O O4 0.750000 0.250000 0.000000
O O5 0.249184 0.542552 0.180687
O O6 0.392439 0.579872 0.132806
O O7 0.517774 0.525230 0.844903
O O8 0.539094 0.743466 0.370938
O O9 0.428086 0.886967 0.492166
O O10 0.641348 0.857313 0.325727
O O11 0.500000 0.266624 0.750000
O O12 0.750000 0.250000 0.500000
O O13 0.614533 0.381850 0.686347
O O14 0.831291 0.459706 0.083429
O O15 0.000000 0.500000 0.000000
O O16 0.113093 0.095255 0.936066
#
# Coordination Sequence:
#
# PCOD9267154 Si02
#       7
#     8   8   8   8   8   8   8
#     4  11  23  38  66 102 136 177 228 284 355 423
#     4   9  20  38  68  94 133 178 229 280 350 423
#     4  10  21  41  66  91 136 171 222 287 340 423
#     4  12  26  40  68 103 136 180 236 291 360 425
#     4   8  17  34  65  91 118 173 216 265 343 402
#     4  10  19  38  66  91 128 177 220 273 344 419
#     4  10  20  41  66  96 132 183 226 286 352 420
#
# _framework density 22.773187
#
# number of rings (size 3 to 8) (size 9 to 14) (size 15 to 20)
#    0.000    2.000    1.429    1.714    4.000    0.571 
#    0.000    4.286   18.857    0.000    0.000    0.000 
#    0.000    0.000    0.000    0.000    0.000    0.000 
#
# Total GULP energy -155974.326055 kJ/mol
# GULP energy per Si atom -5570.511645 kJ/mol
# Density = 2.272135 g / cm^3
# Si number density = 22.773187 Si / 1000 Ang^3
#
#
#
# Elastic Constant Matrix: (Units=GPa)
#
#
# Indices 1 2 3 4 5 6 
#
# 1 76.0201 25.5734 32.9247 0.0001 -13.2750 -0.0001
# 2 25.5734 139.0075 20.8468 0.0001 -0.2167 -0.0001
# 3 32.9247 20.8468 61.6728 0.0001 -13.9008 -0.0001
# 4 0.0001 0.0001 0.0001 -6.7151 -0.0001 -16.6183
# 5 -13.2750 -0.2167 -13.9008 -0.0001 25.3105 0.0001
# 6 -0.0001 -0.0001 -0.0001 -16.6183 0.0001 33.4479
#
#
#
# Elastic Compliance Matrix: (Units=1/GPa)
#
#
# Indices 1 2 3 4 5 6 
#
# 1 0.018171 -0.002167 -0.007788 0.000000 0.005234 0.000000
# 2 -0.002167 0.007889 -0.001998 0.000000 -0.002166 0.000000
# 3 -0.007788 -0.001998 0.022966 0.000000 0.008511 0.000000
# 4 0.000000 0.000000 0.000000 -0.066793 0.000000 -0.033185
# 5 0.005234 -0.002166 0.008511 0.000000 0.046910 0.000000
# 6 0.000000 0.000000 0.000000 -0.033185 0.000000 0.013409
#
#
# Mechanical properties :
#
#
# Convention : Reuss Voigt Hill
#
# Bulk Modulus (GPa) = 39.81014 48.37669 44.09342
# Shear Modulus (GPa) = 66.81614 23.56571 45.19092
#
# Velocity S-wave (km/s) = 5.42250 3.22032 4.45948
# Velocity P-wave (km/s) = 7.53152 5.92590 6.77643
#
# Compressibility (1/GPa) = 0.02511923
#
# Stress axis : x y z
#
# Youngs Moduli (GPa) = 55.03425 126.76289 43.54193
#
# Poissons Ratio (x) = 0.27466 0.33912
# Poissons Ratio (y) = 0.11924 0.08700
# Poissons Ratio (z) = 0.42863 0.25329
#
# Static dielectric constant tensor:
#      x y z
#    x 1.876020 0.000000 -0.013190 
#    y 0.000000 1.818580 0.000000 
#    z -0.013190 0.000000 1.832150 
# 
# From -- ./inp_files/169127.got.cif
#   From: 2010.05.17/outbox.cif.g08.bks.cpg/sg15_85_cif.got.tgz:169127.got - 2010.06.03 18:47:42.
