data_PCOD9267218
_publ_section_title
;
Structure prediction by ZEFSAII (Michael W. Deem and Ramdas Pophale) SiO2 
 PCOD9267218
Probable space group: C 2/C
;
_chemical_formula_sum "Si O2"
_cell_formula_units_Z 48
_cell_length_a 12.259393
_cell_length_b 7.388077
_cell_length_c 23.239930
_cell_angle_alpha 90.000000
_cell_angle_beta 72.260789
_cell_angle_gamma 90.000000
_cell_volume 2004.835929
_symmetry_space_group_name_H-M "C 2/C"
_symmetry_group_IT_number 15
_symmetry_cell_setting 'monoclinic'
loop_
_space_group_symop_operation_xyz
x,y,z
-x,y,1/2-z
-x,-y,-z
x,-y,1/2+z
1/2+x,1/2+y,z
1/2-x,1/2+y,1/2-z
1/2-x,1/2-y,-z
1/2+x,1/2-y,1/2+z
loop_
_atom_site_type_symbol
_atom_site_label
_atom_site_fract_x
_atom_site_fract_y
_atom_site_fract_z
Si Si1 0.887651 0.740467 0.984649
Si Si2 0.026749 0.395854 0.919497
Si Si3 0.255588 0.550510 0.830666
Si Si4 0.228558 0.965553 0.803919
Si Si5 0.020379 0.912662 0.642509
Si Si6 0.450253 0.021349 0.818302
O O1 0.939699 0.874338 0.928796
O O2 0.935540 0.540277 0.960272
O O3 0.750000 0.750000 0.000000
O O4 0.941989 0.759202 0.039652
O O5 0.150699 0.485513 0.887024
O O6 0.971837 0.377194 0.864949
O O7 0.249161 0.764854 0.824118
O O8 0.244356 0.471745 0.767993
O O9 0.376039 0.493835 0.838156
O O10 0.319105 0.076447 0.826913
O O11 0.097964 0.018941 0.833917
O O12 0.992919 0.711919 0.673086
O O13 0.500000 0.955354 0.750000
#
# Coordination Sequence:
#
# PCOD9267218 Si02
#       6
#     8   8   8   8   8   8
#     4  10  19  38  68  92 121 173 225 263 314 380
#     4  10  21  38  64  93 123 172 218 260 325 383
#     4  12  22  40  65  94 132 168 211 269 327 390
#     4  12  24  41  62  97 133 166 212 267 325 390
#     4  11  23  41  64  94 127 170 220 266 323 382
#     4  11  21  42  64  90 133 169 209 268 326 385
#
# _framework density 23.942108000000001
#
# number of rings (size 3 to 8) (size 9 to 14) (size 15 to 20)
#    0.000    1.000    6.667    2.500    0.000    1.333 
#    3.000    0.833    0.000    5.000    0.000    0.000 
#    0.000    0.000    0.000    0.000    0.000    0.000 
#
# Total GULP energy -134256.060707 kJ/mol
# GULP energy per Si atom -5594.002529 kJ/mol
# Density = 2.388761 g / cm^3
# Si number density = 23.942108 Si / 1000 Ang^3
#
#
#
# Elastic Constant Matrix: (Units=GPa)
#
#
# Indices 1 2 3 4 5 6 
#
# 1 207.9509 24.9102 53.7022 0.0000 9.9070 0.0000
# 2 24.9102 47.3856 14.5392 0.0000 13.4389 0.0000
# 3 53.7022 14.5392 128.4006 0.0000 13.8370 0.0000
# 4 0.0000 0.0000 0.0000 13.7633 0.0000 -3.2749
# 5 9.9070 13.4389 13.8370 0.0000 47.1083 0.0000
# 6 0.0000 0.0000 0.0000 -3.2749 0.0000 37.3630
#
#
#
# Elastic Compliance Matrix: (Units=1/GPa)
#
#
# Indices 1 2 3 4 5 6 
#
# 1 0.005627 -0.002343 -0.002099 0.000000 0.000102 0.000000
# 2 -0.002343 0.024422 -0.001123 0.000000 -0.006144 0.000000
# 3 -0.002099 -0.001123 0.008996 0.000000 -0.001880 0.000000
# 4 0.000000 0.000000 0.000000 0.074205 0.000000 0.006504
# 5 0.000102 -0.006144 -0.001880 0.000000 0.023512 0.000000
# 6 0.000000 0.000000 0.000000 0.006504 0.000000 0.027335
#
#
# Mechanical properties :
#
#
# Convention : Reuss Voigt Hill
#
# Bulk Modulus (GPa) = 35.82352 63.33781 49.58066
# Shear Modulus (GPa) = 27.09574 39.01926 33.05750
#
# Velocity S-wave (km/s) = 3.36775 4.04138 3.71984
# Velocity P-wave (km/s) = 5.48793 6.94903 6.26124
#
# Compressibility (1/GPa) = 0.02791462
#
# Stress axis : x y z
#
# Youngs Moduli (GPa) = 177.72526 40.94616 111.16233
#
# Poissons Ratio (x) = 0.09592 0.23333
# Poissons Ratio (y) = 0.41635 0.12489
# Poissons Ratio (z) = 0.37304 0.04600
#
# Static dielectric constant tensor:
#      x y z
#    x 1.932510 0.000000 0.034390 
#    y 0.000000 1.943660 0.000000 
#    z 0.034390 0.000000 1.992850 
# 
# From -- ./inp_files/268026.got.cif
#   From: 2010.05.17/outbox.cif.g08.bks.cpg/sg15_135_cif.got.tgz:268026.got - 2010.06.03 18:47:42.
