data_PCOD9267798
_publ_section_title
;
Structure prediction by ZEFSAII (Michael W. Deem and Ramdas Pophale) SiO2 
 PCOD9267798
Probable space group: C 2/C
;
_chemical_formula_sum "Si O2"
_cell_formula_units_Z 56
_cell_length_a 26.320082
_cell_length_b 16.213213
_cell_length_c 16.815685
_cell_angle_alpha 90.000000
_cell_angle_beta 21.089822
_cell_angle_gamma 90.000000
_cell_volume 2582.079165
_symmetry_space_group_name_H-M "C 2/C"
_symmetry_group_IT_number 15
_symmetry_cell_setting 'monoclinic'
loop_
_space_group_symop_operation_xyz
x,y,z
-x,y,1/2-z
-x,-y,-z
x,-y,1/2+z
1/2+x,1/2+y,z
1/2-x,1/2+y,1/2-z
1/2-x,1/2-y,-z
1/2+x,1/2-y,1/2+z
loop_
_atom_site_type_symbol
_atom_site_label
_atom_site_fract_x
_atom_site_fract_y
_atom_site_fract_z
Si Si1 0.189046 0.445799 0.882876
Si Si2 0.380984 0.584820 0.253677
Si Si3 0.885554 0.454466 0.261423
Si Si4 0.643276 0.133902 0.993541
Si Si5 0.038290 0.075182 0.600080
Si Si6 0.995613 0.374450 0.563226
Si Si7 0.428354 0.302944 0.128863
O O1 0.276159 0.412044 0.830321
O O2 0.291973 0.431045 0.657979
O O3 0.184707 0.541387 0.911771
O O4 0.025350 0.424175 0.106011
O O5 0.261154 0.584911 0.496866
O O6 0.469800 0.502440 0.149655
O O7 0.493289 0.654062 0.061724
O O8 0.894950 0.555278 0.250255
O O9 0.914276 0.426535 0.130343
O O10 0.500000 0.135578 0.250000
O O11 0.603836 0.169051 0.965830
O O12 0.765856 0.173639 0.862809
O O13 0.000000 0.074340 0.750000
O O14 0.987193 0.154758 0.624030
O O15 0.927870 0.295358 0.622879
#
# Coordination Sequence:
#
# PCOD9267798 Si02
#       7
#     8   8   8   8   8   8   8
#     4  10  19  40  65  92 129 174 216 259 321 394
#     4  11  21  41  67  97 125 174 218 270 324 394
#     4  10  23  41  70  94 130 173 223 269 319 399
#     4  11  22  40  64  90 133 178 212 263 332 390
#     4  11  24  37  65  99 128 166 220 270 320 389
#     4  10  25  42  64  98 132 171 221 273 323 383
#     4  11  24  44  65  94 140 169 215 276 331 388
#
# _framework density 21.687947999999999
#
# number of rings (size 3 to 8) (size 9 to 14) (size 15 to 20)
#    0.000    1.429    2.857    3.000    6.000    4.000 
#    0.000    0.000    0.000    0.000    0.000    0.000 
#    0.000    0.000    0.000    0.000    0.000    0.000 
#
# Total GULP energy -155999.963681 kJ/mol
# GULP energy per Si atom -5571.427274 kJ/mol
# Density = 2.163859 g / cm^3
# Si number density = 21.687948 Si / 1000 Ang^3
#
#
#
# Elastic Constant Matrix: (Units=GPa)
#
#
# Indices 1 2 3 4 5 6 
#
# 1 64.7834 45.9891 16.2980 0.0001 22.6574 -0.0001
# 2 45.9891 82.3725 33.6047 -0.0002 4.6257 0.0001
# 3 16.2980 33.6047 144.4080 -0.0002 -5.3626 -0.0001
# 4 0.0001 -0.0002 -0.0002 0.4532 0.0001 -2.9800
# 5 22.6574 4.6257 -5.3626 0.0001 49.7263 0.0001
# 6 -0.0001 0.0001 -0.0001 -2.9800 0.0001 -12.2737
#
#
#
# Elastic Compliance Matrix: (Units=1/GPa)
#
#
# Indices 1 2 3 4 5 6 
#
# 1 0.032301 -0.017248 -0.000119 -0.000005 -0.013126 0.000001
# 2 -0.017248 0.022750 -0.003147 0.000005 0.005403 -0.000001
# 3 -0.000119 -0.003147 0.007714 0.000001 0.001179 0.000000
# 4 -0.000005 0.000005 0.000001 0.849842 0.000001 -0.206336
# 5 -0.013126 0.005403 0.001179 0.000001 0.025715 0.000000
# 6 0.000001 -0.000001 0.000000 -0.206336 0.000000 -0.031378
#
#
# Mechanical properties :
#
#
# Convention : Reuss Voigt Hill
#
# Bulk Modulus (GPa) = 46.00415 53.70528 49.85471
# Shear Modulus (GPa) = 5.23440 20.62595 12.93017
#
# Velocity S-wave (km/s) = 1.55523 3.08723 2.44435
# Velocity P-wave (km/s) = 4.94802 6.12572 5.56809
#
# Compressibility (1/GPa) = 0.02173717
#
# Stress axis : x y z
#
# Youngs Moduli (GPa) = 30.95865 43.95584 129.62878
#
# Poissons Ratio (x) = 0.75816 0.01545
# Poissons Ratio (y) = 0.53398 0.40792
# Poissons Ratio (z) = 0.00369 0.13832
#
# Static dielectric constant tensor:
#      x y z
#    x 2.024370 0.000000 -0.145670 
#    y 0.000000 1.868030 0.000000 
#    z -0.145670 0.000000 2.016820 
# 
# From -- ./inp_files/222926.got.cif
#   From: 2010.05.17/outbox.cif.g08.bks.cpg/sg15_112_cif.got.tgz:222926.got - 2010.06.03 18:47:42.
