data_PCOD9267352
_publ_section_title
;
Structure prediction by ZEFSAII (Michael W. Deem and Ramdas Pophale) SiO2 
 PCOD9267352
Probable space group: C 2/C
;
_chemical_formula_sum "Si O2"
_cell_formula_units_Z 64
_cell_length_a 25.950100
_cell_length_b 20.014232
_cell_length_c 19.209458
_cell_angle_alpha 90.000000
_cell_angle_beta 18.584478
_cell_angle_gamma 90.000000
_cell_volume 3179.644733
_symmetry_space_group_name_H-M "C 2/C"
_symmetry_group_IT_number 15
_symmetry_cell_setting 'monoclinic'
loop_
_space_group_symop_operation_xyz
x,y,z
-x,y,1/2-z
-x,-y,-z
x,-y,1/2+z
1/2+x,1/2+y,z
1/2-x,1/2+y,1/2-z
1/2-x,1/2-y,-z
1/2+x,1/2-y,1/2+z
loop_
_atom_site_type_symbol
_atom_site_label
_atom_site_fract_x
_atom_site_fract_y
_atom_site_fract_z
Si Si1 0.577900 0.183244 0.754364
Si Si2 0.162144 0.298259 0.396561
Si Si3 0.091356 0.608843 0.874986
Si Si4 0.899952 0.961411 0.948124
Si Si5 0.289781 0.395798 0.619785
Si Si6 0.281902 0.768455 0.878657
Si Si7 0.899246 0.834468 0.763413
Si Si8 0.229009 0.179206 0.220023
O O1 0.605471 0.170103 0.801567
O O2 0.725579 0.151735 0.522614
O O3 0.562170 0.261344 0.753739
O O4 0.400729 0.152709 0.971616
O O5 0.160302 0.370048 0.362195
O O6 0.219815 0.285933 0.401440
O O7 0.261011 0.248776 0.219318
O O8 0.975083 0.276136 0.627204
O O9 0.209645 0.555405 0.689554
O O10 0.903664 0.590612 0.123804
O O11 0.000000 0.961303 0.750000
O O12 0.983053 0.897302 0.878831
O O13 0.895960 0.038318 0.976282
O O14 0.295266 0.338432 0.552234
O O15 0.339159 0.364175 0.630037
O O16 0.250000 0.750000 0.000000
O O17 0.883020 0.819856 0.702717
#
# Coordination Sequence:
#
# PCOD9267352 Si02
#       8
#     8   8   8   8   8   8   8   8
#     4  10  20  35  56  91 126 160 197 254 320 368
#     4  10  20  34  61  94 125 158 202 262 321 378
#     4  10  19  39  61  85 119 162 205 250 308 376
#     4  12  24  38  59  88 119 164 212 251 305 383
#     4   9  23  40  60  83 121 168 205 250 313 381
#     4  10  21  39  64  94 123 160 205 271 332 369
#     4  11  22  32  59  91 126 160 199 258 307 374
#     4  10  20  36  57  85 125 156 199 255 310 369
#
# _framework density 20.128035000000001
#
# number of rings (size 3 to 8) (size 9 to 14) (size 15 to 20)
#    0.000    1.750    2.500    2.625    1.750    2.500 
#    0.000    0.000    2.750    0.000    6.500    0.000 
#    0.000    0.000    0.000    0.000    0.000    0.000 
#
# Total GULP energy -178185.481186 kJ/mol
# GULP energy per Si atom -5568.296287 kJ/mol
# Density = 2.008222 g / cm^3
# Si number density = 20.128035 Si / 1000 Ang^3
#
#
#
# Elastic Constant Matrix: (Units=GPa)
#
#
# Indices 1 2 3 4 5 6 
#
# 1 105.7099 29.7862 27.3283 -0.0010 12.3725 -0.0047
# 2 29.7862 74.9638 17.5172 -0.0048 3.4699 0.0001
# 3 27.3283 17.5172 55.6791 -0.0107 13.1611 0.0048
# 4 -0.0010 -0.0048 -0.0107 23.5402 0.0049 0.8367
# 5 12.3725 3.4699 13.1611 0.0049 15.5370 0.0000
# 6 -0.0047 0.0001 0.0048 0.8367 0.0000 17.7930
#
#
#
# Elastic Compliance Matrix: (Units=1/GPa)
#
#
# Indices 1 2 3 4 5 6 
#
# 1 0.012074 -0.003741 -0.003344 -0.000001 -0.005947 0.000004
# 2 -0.003741 0.015565 -0.003680 0.000001 0.002620 0.000000
# 3 -0.003344 -0.003680 0.024926 0.000014 -0.017630 -0.000008
# 4 -0.000001 0.000001 0.000014 0.042552 -0.000025 -0.002001
# 5 -0.005947 0.002620 -0.017630 -0.000025 0.083447 0.000004
# 6 0.000004 0.000000 -0.000008 -0.002001 0.000004 0.056296
#
#
# Mechanical properties :
#
#
# Convention : Reuss Voigt Hill
#
# Bulk Modulus (GPa) = 32.22044 42.84626 37.53335
# Shear Modulus (GPa) = 18.74517 22.15546 20.45031
#
# Velocity S-wave (km/s) = 3.05503 3.32132 3.19095
# Velocity P-wave (km/s) = 5.33730 6.00344 5.68014
#
# Compressibility (1/GPa) = 0.03103620
#
# Stress axis : x y z
#
# Youngs Moduli (GPa) = 82.81934 64.24711 40.11843
#
# Poissons Ratio (x) = 0.24035 0.13414
# Poissons Ratio (y) = 0.30983 0.14764
# Poissons Ratio (z) = 0.27691 0.23643
#
# Static dielectric constant tensor:
#      x y z
#    x 1.736860 0.000000 -0.015870 
#    y 0.000000 1.815510 0.000000 
#    z -0.015870 0.000000 1.769330 
# 
# From -- ./inp_files/220244.got.cif
#   From: 2010.05.17/outbox.cif.g08.bks.cpg/sg15_111_cif.got.tgz:220244.got - 2010.06.03 18:47:42.
