data_PCOD9267189
_publ_section_title
;
Structure prediction by ZEFSAII (Michael W. Deem and Ramdas Pophale) SiO2 
 PCOD9267189
Probable space group: C 2/C
;
_chemical_formula_sum "Si O2"
_cell_formula_units_Z 52
_cell_length_a 8.169855
_cell_length_b 14.195780
_cell_length_c 19.912977
_cell_angle_alpha 90.000000
_cell_angle_beta 121.698823
_cell_angle_gamma 90.000000
_cell_volume 1964.936242
_symmetry_space_group_name_H-M "C 2/C"
_symmetry_group_IT_number 15
_symmetry_cell_setting 'monoclinic'
loop_
_space_group_symop_operation_xyz
x,y,z
-x,y,1/2-z
-x,-y,-z
x,-y,1/2+z
1/2+x,1/2+y,z
1/2-x,1/2+y,1/2-z
1/2-x,1/2-y,-z
1/2+x,1/2-y,1/2+z
loop_
_atom_site_type_symbol
_atom_site_label
_atom_site_fract_x
_atom_site_fract_y
_atom_site_fract_z
Si Si1 0.779336 0.137583 0.507631
Si Si2 0.126016 0.356520 0.442245
Si Si3 0.311993 0.321810 0.739023
Si Si4 0.500000 0.000530 0.250000
Si Si5 0.070916 0.456620 0.621323
Si Si6 0.661788 0.358735 0.156143
Si Si7 0.510820 0.646218 0.081382
O O1 0.750000 0.250000 0.500000
O O2 0.568774 0.093030 0.461739
O O3 0.873648 0.107074 0.456927
O O4 0.941332 0.110925 0.596817
O O5 0.246126 0.341136 0.398492
O O6 0.292125 0.392437 0.528924
O O7 0.961764 0.433378 0.395410
O O8 0.031240 0.257633 0.439469
O O9 0.500000 0.270628 0.750000
O O10 0.269982 0.404097 0.676029
O O11 0.159503 0.237679 0.698405
O O12 0.367656 0.357961 0.824314
O O13 0.308855 0.936071 0.215954
O O14 0.507954 0.060108 0.319295
#
# Coordination Sequence:
#
# PCOD9267189 Si02
#       7
#     8   8   8   4   8   8   8
#     4  11  23  40  60  91 124 170 197 253 308 371
#     4   9  20  40  62  90 118 165 204 249 293 377
#     4  12  21  38  65  92 117 163 204 258 306 372
#     4  10  20  38  62  96 118 162 206 264 290 364
#     4  11  23  37  61  92 129 150 208 261 308 346
#     4  10  19  38  67  83 122 165 212 236 307 372
#     4  10  21  38  66  87 121 164 210 235 312 373
#
# _framework density 26.463963
#
# number of rings (size 3 to 8) (size 9 to 14) (size 15 to 20)
#    0.000    1.538    3.846    1.846    0.000    6.769 
#    0.000    4.615    0.000    0.000    0.000    0.000 
#    0.000    0.000    0.000    0.000    0.000    0.000 
#
# Total GULP energy -145461.951317 kJ/mol
# GULP energy per Si atom -5594.690435 kJ/mol
# Density = 2.640373 g / cm^3
# Si number density = 26.463963 Si / 1000 Ang^3
#
#
#
# Elastic Constant Matrix: (Units=GPa)
#
#
# Indices 1 2 3 4 5 6 
#
# 1 63.1601 -5.6569 30.7480 0.0000 -1.3945 0.0000
# 2 -5.6569 72.9531 25.0275 0.0000 14.5097 0.0000
# 3 30.7480 25.0275 205.3920 0.0000 18.1967 0.0000
# 4 0.0000 0.0000 0.0000 52.0906 0.0000 9.0683
# 5 -1.3945 14.5097 18.1967 0.0000 43.6714 0.0000
# 6 0.0000 0.0000 0.0000 9.0683 0.0000 28.0501
#
#
#
# Elastic Compliance Matrix: (Units=1/GPa)
#
#
# Indices 1 2 3 4 5 6 
#
# 1 0.017501 0.002164 -0.002979 0.000000 0.001081 0.000000
# 2 0.002164 0.015348 -0.001816 0.000000 -0.004274 0.000000
# 3 -0.002979 -0.001816 0.005701 0.000000 -0.001868 0.000000
# 4 0.000000 0.000000 0.000000 0.020342 0.000000 -0.006576
# 5 0.001081 -0.004274 -0.001868 0.000000 0.025131 0.000000
# 6 0.000000 0.000000 0.000000 -0.006576 0.000000 0.037777
#
#
# Mechanical properties :
#
#
# Convention : Reuss Voigt Hill
#
# Bulk Modulus (GPa) = 30.04014 49.08248 39.56131
# Shear Modulus (GPa) = 36.19035 44.18818 40.18927
#
# Velocity S-wave (km/s) = 3.70203 4.09069 3.90120
# Velocity P-wave (km/s) = 5.44512 6.39522 5.93920
#
# Compressibility (1/GPa) = 0.03328879
#
# Stress axis : x y z
#
# Youngs Moduli (GPa) = 57.13967 65.15465 175.39354
#
# Poissons Ratio (x) = -0.14100 0.52258
# Poissons Ratio (y) = -0.12366 0.31843
# Poissons Ratio (z) = 0.17025 0.11829
#
# Static dielectric constant tensor:
#      x y z
#    x 2.164170 0.000000 0.076560 
#    y 0.000000 2.038440 0.000000 
#    z 0.076560 0.000000 2.170660 
# 
# From -- ./inp_files/292744.got.cif
#   From: 2010.05.17/outbox.cif.g08.bks.cpg/sg15_147_cif.got.tgz:292744.got - 2010.06.03 18:47:42.
