data_PCOD9267237
_publ_section_title
;
Structure prediction by ZEFSAII (Michael W. Deem and Ramdas Pophale) SiO2 
 PCOD9267237
Probable space group: C 2/C
;
_chemical_formula_sum "Si O2"
_cell_formula_units_Z 60
_cell_length_a 10.615258
_cell_length_b 14.806018
_cell_length_c 16.457055
_cell_angle_alpha 90.000000
_cell_angle_beta 118.019061
_cell_angle_gamma 90.000000
_cell_volume 2283.384362
_symmetry_space_group_name_H-M "C 2/C"
_symmetry_group_IT_number 15
_symmetry_cell_setting 'monoclinic'
loop_
_space_group_symop_operation_xyz
x,y,z
-x,y,1/2-z
-x,-y,-z
x,-y,1/2+z
1/2+x,1/2+y,z
1/2-x,1/2+y,1/2-z
1/2-x,1/2-y,-z
1/2+x,1/2-y,1/2+z
loop_
_atom_site_type_symbol
_atom_site_label
_atom_site_fract_x
_atom_site_fract_y
_atom_site_fract_z
Si Si1 0.500000 0.805633 0.750000
Si Si2 0.564098 0.104903 0.488166
Si Si3 0.307699 0.606721 0.330246
Si Si4 0.585072 0.814585 0.151379
Si Si5 0.673608 0.473897 0.496518
Si Si6 0.773407 0.089818 0.136067
Si Si7 0.700645 0.196191 0.862198
Si Si8 0.003893 0.200048 0.912265
O O1 0.358453 0.866834 0.702124
O O2 0.462243 0.738149 0.812008
O O3 0.630215 0.112815 0.598237
O O4 0.656455 0.042212 0.459016
O O5 0.398129 0.081862 0.427075
O O6 0.575305 0.210561 0.469277
O O7 0.380479 0.707830 0.354488
O O8 0.359687 0.538223 0.417239
O O9 0.317062 0.565618 0.242120
O O10 0.413790 0.828296 0.105097
O O11 0.648681 0.837239 0.258607
O O12 0.648727 0.547895 0.418872
O O13 0.606926 0.382825 0.440221
O O14 0.804035 0.196167 0.143588
O O15 0.864980 0.172360 0.921974
#
# Coordination Sequence:
#
# PCOD9267237 Si02
#       8
#     4   8   8   8   8   8   8   8
#     4  12  18  36  64 102 126 160 228 296 344 378
#     4  11  20  37  65  98 125 171 231 285 328 399
#     4  11  20  39  66  91 131 181 224 277 346 405
#     4  10  19  38  69  92 121 174 232 272 330 399
#     4  12  23  38  65 102 137 176 225 278 344 420
#     4  10  23  41  61  96 137 183 215 272 348 413
#     4   9  21  41  64  92 133 175 224 277 335 402
#     4  11  21  34  63 103 132 163 221 295 338 382
#
# _framework density 26.276783999999999
#
# number of rings (size 3 to 8) (size 9 to 14) (size 15 to 20)
#    0.000    1.333    6.667    1.600    0.000    2.133 
#    0.000    6.000    2.933    0.000    0.000    0.000 
#    0.000    0.000    0.000    0.000    0.000    0.000 
#
# Total GULP energy -167776.448419 kJ/mol
# GULP energy per Si atom -5592.548281 kJ/mol
# Density = 2.621698 g / cm^3
# Si number density = 26.276784 Si / 1000 Ang^3
#
#
#
# Elastic Constant Matrix: (Units=GPa)
#
#
# Indices 1 2 3 4 5 6 
#
# 1 107.3683 2.0791 23.1754 0.0000 -20.0711 0.0000
# 2 2.0791 87.9597 46.3337 0.0000 -18.6775 0.0000
# 3 23.1754 46.3337 146.9610 0.0000 -40.2208 0.0000
# 4 0.0000 0.0000 0.0000 19.1455 0.0000 -13.1923
# 5 -20.0711 -18.6775 -40.2208 0.0000 35.7974 0.0000
# 6 0.0000 0.0000 0.0000 -13.1923 0.0000 5.4991
#
#
#
# Elastic Compliance Matrix: (Units=1/GPa)
#
#
# Indices 1 2 3 4 5 6 
#
# 1 0.010516 0.001250 -0.000376 0.000000 0.006126 0.000000
# 2 0.001250 0.014057 -0.003509 0.000000 0.004093 0.000000
# 3 -0.000376 -0.003509 0.010702 0.000000 0.009983 0.000000
# 4 0.000000 0.000000 0.000000 -0.079983 0.000000 -0.191877
# 5 0.006126 0.004093 0.009983 0.000000 0.044722 0.000000
# 6 0.000000 0.000000 0.000000 -0.191877 0.000000 -0.278465
#
#
# Mechanical properties :
#
#
# Convention : Reuss Voigt Hill
#
# Bulk Modulus (GPa) = 33.32676 53.94059 43.63367
# Shear Modulus (GPa) = -18.99844 30.13513 5.56835
#
# Velocity S-wave (km/s) = -2.69181 3.39017 1.45730
# Velocity P-wave (km/s) = 1.74626 5.99139 4.41283
#
# Compressibility (1/GPa) = 0.03000592
#
# Stress axis : x y z
#
# Youngs Moduli (GPa) = 95.09456 71.14068 93.43782
#
# Poissons Ratio (x) = -0.08895 0.03512
# Poissons Ratio (y) = -0.11889 0.32786
# Poissons Ratio (z) = 0.03575 0.24962
#
# Static dielectric constant tensor:
#      x y z
#    x 2.099290 0.000000 -0.045550 
#    y 0.000000 1.988330 0.000000 
#    z -0.045550 0.000000 2.183950 
# 
# From -- ./inp_files/199527.got.cif
#   From: 2010.05.17/outbox.cif.g08.bks.cpg/sg15_100_cif.got.tgz:199527.got - 2010.06.03 18:47:42.
