data_PCOD9267157
_publ_section_title
;
Structure prediction by ZEFSAII (Michael W. Deem and Ramdas Pophale) SiO2 
 PCOD9267157
Probable space group: C 2/C
;
_chemical_formula_sum "Si O2"
_cell_formula_units_Z 52
_cell_length_a 10.452361
_cell_length_b 14.030567
_cell_length_c 21.151944
_cell_angle_alpha 90.000000
_cell_angle_beta 128.069355
_cell_angle_gamma 90.000000
_cell_volume 2442.085241
_symmetry_space_group_name_H-M "C 2/C"
_symmetry_group_IT_number 15
_symmetry_cell_setting 'monoclinic'
loop_
_space_group_symop_operation_xyz
x,y,z
-x,y,1/2-z
-x,-y,-z
x,-y,1/2+z
1/2+x,1/2+y,z
1/2-x,1/2+y,1/2-z
1/2-x,1/2-y,-z
1/2+x,1/2-y,1/2+z
loop_
_atom_site_type_symbol
_atom_site_label
_atom_site_fract_x
_atom_site_fract_y
_atom_site_fract_z
Si Si1 0.420755 0.019502 0.380060
Si Si2 0.153428 0.679665 0.685782
Si Si3 0.756429 0.705649 0.334740
Si Si4 0.912332 0.779532 0.085493
Si Si5 0.000000 0.783316 0.250000
Si Si6 0.238393 0.978829 0.458311
Si Si7 0.113092 0.815275 0.926763
O O1 0.310269 0.105027 0.319873
O O2 0.329975 0.997633 0.419292
O O3 0.430734 0.921943 0.344473
O O4 0.607173 0.048204 0.450617
O O5 0.174965 0.723376 0.761190
O O6 0.335968 0.662446 0.717386
O O7 0.057180 0.759958 0.616012
O O8 0.647652 0.688111 0.362161
O O9 0.929340 0.752280 0.406655
O O10 0.947776 0.736369 0.166690
O O11 0.887393 0.892728 0.086680
O O12 0.750000 0.750000 0.000000
O O13 0.147426 0.074694 0.453858
O O14 0.250000 0.750000 0.000000
#
# Coordination Sequence:
#
# PCOD9267157 Si02
#       7
#     8   8   8   8   4   8   8
#     4  10  19  38  66  92 123 162 222 265 313 383
#     4  11  22  41  66  92 133 156 217 270 323 381
#     4  10  24  39  63  98 124 172 213 266 323 382
#     4  11  21  39  68  92 134 165 220 265 323 382
#     4  10  24  38  62 104 118 170 208 276 324 376
#     4  10  20  37  65  97 116 171 221 262 311 392
#     4  11  23  40  67  91 127 168 217 263 323 383
#
# _framework density 21.293278000000001
#
# number of rings (size 3 to 8) (size 9 to 14) (size 15 to 20)
#    0.000    1.538    4.615    0.462    2.154    2.462 
#    0.000    0.769   27.077    0.000    0.000    0.000 
#    0.000    0.000    0.000    0.000    0.000    0.000 
#
# Total GULP energy -144891.393112 kJ/mol
# GULP energy per Si atom -5572.745889 kJ/mol
# Density = 2.124481 g / cm^3
# Si number density = 21.293278 Si / 1000 Ang^3
#
#
#
# Elastic Constant Matrix: (Units=GPa)
#
#
# Indices 1 2 3 4 5 6 
#
# 1 45.0920 12.6405 0.8073 0.0000 27.0673 0.0000
# 2 12.6405 117.3491 18.9518 0.0000 5.4555 0.0000
# 3 0.8073 18.9518 82.4782 0.0000 13.4004 0.0000
# 4 0.0000 0.0000 0.0000 35.2513 0.0000 0.2758
# 5 27.0673 5.4555 13.4004 0.0000 34.2767 0.0000
# 6 0.0000 0.0000 0.0000 0.2758 0.0000 15.3169
#
#
#
# Elastic Compliance Matrix: (Units=1/GPa)
#
#
# Indices 1 2 3 4 5 6 
#
# 1 0.046488 -0.004311 0.006822 0.000000 -0.038691 0.000000
# 2 -0.004311 0.009263 -0.002563 0.000000 0.002931 0.000000
# 3 0.006822 -0.002563 0.014368 0.000000 -0.010596 0.000000
# 4 0.000000 0.000000 0.000000 0.028372 0.000000 -0.000511
# 5 -0.038691 0.002931 -0.010596 0.000000 0.063403 0.000000
# 6 0.000000 0.000000 0.000000 -0.000511 0.000000 0.065297
#
#
# Mechanical properties :
#
#
# Convention : Reuss Voigt Hill
#
# Bulk Modulus (GPa) = 14.28232 34.41317 24.34774
# Shear Modulus (GPa) = 19.94947 31.13697 25.54322
#
# Velocity S-wave (km/s) = 3.06419 3.82814 3.46727
# Velocity P-wave (km/s) = 4.38645 5.97797 5.24295
#
# Compressibility (1/GPa) = 0.07001664
#
# Stress axis : x y z
#
# Youngs Moduli (GPa) = 21.51090 107.95075 69.59874
#
# Poissons Ratio (x) = 0.46532 -0.47478
# Poissons Ratio (y) = 0.09272 0.17836
# Poissons Ratio (z) = -0.14674 0.27664
#
# Static dielectric constant tensor:
#      x y z
#    x 1.804040 0.000000 -0.005890 
#    y 0.000000 1.794450 0.000000 
#    z -0.005890 0.000000 1.820050 
# 
# From -- ./inp_files/238650.got.cif
#   From: 2010.05.17/outbox.cif.g08.bks.cpg/sg15_120_cif.got.tgz:238650.got - 2010.06.03 18:47:42.
