data_PCOD9267993
_publ_section_title
;
Structure prediction by ZEFSAII (Michael W. Deem and Ramdas Pophale) SiO2 
 PCOD9267993
Probable space group: C 2/C
;
_chemical_formula_sum "Si O2"
_cell_formula_units_Z 56
_cell_length_a 8.854920
_cell_length_b 29.635009
_cell_length_c 11.269149
_cell_angle_alpha 90.000000
_cell_angle_beta 69.545161
_cell_angle_gamma 90.000000
_cell_volume 2770.743255
_symmetry_space_group_name_H-M "C 2/C"
_symmetry_group_IT_number 15
_symmetry_cell_setting 'monoclinic'
loop_
_space_group_symop_operation_xyz
x,y,z
-x,y,1/2-z
-x,-y,-z
x,-y,1/2+z
1/2+x,1/2+y,z
1/2-x,1/2+y,1/2-z
1/2-x,1/2-y,-z
1/2+x,1/2-y,1/2+z
loop_
_atom_site_type_symbol
_atom_site_label
_atom_site_fract_x
_atom_site_fract_y
_atom_site_fract_z
Si Si1 0.303019 0.485144 0.308936
Si Si2 0.659667 0.838961 0.285556
Si Si3 0.635896 0.410228 0.386297
Si Si4 0.321413 0.417186 0.849816
Si Si5 0.692945 0.751988 0.655457
Si Si6 0.740626 0.594702 0.533567
Si Si7 0.812656 0.648827 0.280556
O O1 0.500000 0.490326 0.250000
O O2 0.275792 0.450322 0.209519
O O3 0.245464 0.536388 0.321148
O O4 0.229478 0.457730 0.441376
O O5 0.500000 0.838196 0.250000
O O6 0.787528 0.862614 0.164656
O O7 0.716878 0.789916 0.309488
O O8 0.666970 0.871724 0.400829
O O9 0.654938 0.421630 0.517492
O O10 0.452164 0.405131 0.394810
O O11 0.500000 0.410554 0.750000
O O12 0.222452 0.374000 0.835137
O O13 0.500000 0.748211 0.750000
O O14 0.750000 0.750000 0.500000
O O15 0.754303 0.800960 0.683444
O O16 0.759489 0.613422 0.396461
O O17 0.000000 0.654020 0.250000
#
# Coordination Sequence:
#
# PCOD9267993 Si02
#       7
#     8   8   8   8   8   8   8
#     4   8  19  34  61  91 120 162 213 265 311 370
#     4  11  24  41  67  95 125 164 213 267 320 393
#     4  10  21  39  64  93 126 166 218 262 318 390
#     4  11  22  36  61  95 125 165 214 270 316 379
#     4  11  24  45  71  95 128 175 222 269 332 396
#     4  10  19  41  65  86 122 169 213 255 317 381
#     4  11  25  40  62  90 133 166 210 266 336 381
#
# _framework density 20.211182999999998
#
# number of rings (size 3 to 8) (size 9 to 14) (size 15 to 20)
#    0.000    1.714    2.857    2.143    4.000    2.286 
#    0.000    5.000    0.000    0.000    0.000    0.000 
#    0.000    0.000    0.000    0.000    0.000    0.000 
#
# Total GULP energy -155940.852207 kJ/mol
# GULP energy per Si atom -5569.316150 kJ/mol
# Density = 2.016518 g / cm^3
# Si number density = 20.211183 Si / 1000 Ang^3
#
#
#
# Elastic Constant Matrix: (Units=GPa)
#
#
# Indices 1 2 3 4 5 6 
#
# 1 63.8197 29.9849 4.8355 0.0000 17.8060 0.0000
# 2 29.9849 137.9351 10.5447 0.0000 14.3260 0.0000
# 3 4.8355 10.5447 63.4506 0.0000 11.3466 0.0000
# 4 0.0000 0.0000 0.0000 10.3142 0.0000 37.8294
# 5 17.8060 14.3260 11.3466 0.0000 24.2323 0.0000
# 6 0.0000 0.0000 0.0000 37.8294 0.0000 -99.9205
#
#
#
# Elastic Compliance Matrix: (Units=1/GPa)
#
#
# Indices 1 2 3 4 5 6 
#
# 1 0.021042 -0.003206 0.001479 0.000000 -0.014259 0.000000
# 2 -0.003206 0.008228 -0.000736 0.000000 -0.002164 0.000000
# 3 0.001479 -0.000736 0.017338 0.000000 -0.008770 0.000000
# 4 0.000000 0.000000 0.000000 0.040591 0.000000 0.015367
# 5 -0.014259 -0.002164 -0.008770 0.000000 0.057130 0.000000
# 6 0.000000 0.000000 0.000000 0.015367 0.000000 -0.004190
#
#
# Mechanical properties :
#
#
# Convention : Reuss Voigt Hill
#
# Bulk Modulus (GPa) = 23.99169 39.54840 31.77004
# Shear Modulus (GPa) = 31.45467 1.58122 16.51795
#
# Velocity S-wave (km/s) = 3.94928 0.88547 2.86189
# Velocity P-wave (km/s) = 5.71769 4.54483 5.16466
#
# Compressibility (1/GPa) = 0.04168110
#
# Stress axis : x y z
#
# Youngs Moduli (GPa) = 47.52460 121.53968 57.67596
#
# Poissons Ratio (x) = 0.38969 -0.08531
# Poissons Ratio (y) = 0.15238 0.04246
# Poissons Ratio (z) = -0.07029 0.08947
#
# Static dielectric constant tensor:
#      x y z
#    x 1.736350 0.000000 0.007450 
#    y 0.000000 1.734640 0.000000 
#    z 0.007450 0.000000 1.784990 
# 
# From -- ./inp_files/81443.got.cif
#   From: 2010.05.17/outbox.cif.g08.bks.cpg/sg15_41_cif.got.tgz:81443.got - 2010.06.03 18:47:42.
