data_PCOD9267600
_publ_section_title
;
Structure prediction by ZEFSAII (Michael W. Deem and Ramdas Pophale) SiO2 
 PCOD9267600
Probable space group: C 2/C
;
_chemical_formula_sum "Si O2"
_cell_formula_units_Z 60
_cell_length_a 13.484219
_cell_length_b 8.574368
_cell_length_c 21.643342
_cell_angle_alpha 90.000000
_cell_angle_beta 116.116511
_cell_angle_gamma 90.000000
_cell_volume 2246.883618
_symmetry_space_group_name_H-M "C 2/C"
_symmetry_group_IT_number 15
_symmetry_cell_setting 'monoclinic'
loop_
_space_group_symop_operation_xyz
x,y,z
-x,y,1/2-z
-x,-y,-z
x,-y,1/2+z
1/2+x,1/2+y,z
1/2-x,1/2+y,1/2-z
1/2-x,1/2-y,-z
1/2+x,1/2-y,1/2+z
loop_
_atom_site_type_symbol
_atom_site_label
_atom_site_fract_x
_atom_site_fract_y
_atom_site_fract_z
Si Si1 0.246680 0.997087 0.503473
Si Si2 0.835815 0.731541 0.852296
Si Si3 0.457838 0.780818 0.853164
Si Si4 0.500000 0.657390 0.250000
Si Si5 0.424417 0.252731 0.999904
Si Si6 0.095928 0.586067 0.853182
Si Si7 0.209269 0.465443 0.758719
Si Si8 0.141864 0.940006 0.353840
O O1 0.340507 0.870278 0.509211
O O2 0.142242 0.914343 0.508711
O O3 0.197801 0.040845 0.423286
O O4 0.311098 0.105765 0.568909
O O5 0.932423 0.718220 0.929443
O O6 0.815547 0.588278 0.801404
O O7 0.823156 0.899220 0.817790
O O8 0.724299 0.703315 0.863415
O O9 0.344482 0.807417 0.786260
O O10 0.529872 0.639657 0.846540
O O11 0.522353 0.938698 0.852274
O O12 0.464695 0.760687 0.929050
O O13 0.482347 0.768184 0.185596
O O14 0.606865 0.547748 0.287396
O O15 0.150577 0.537422 0.803052
#
# Coordination Sequence:
#
# PCOD9267600 Si02
#       8
#     8   8   8   4   8   8   8   8
#     4   8  15  33  61  82 108 148 204 244 288 337
#     4  11  23  37  58  84 123 157 190 234 304 369
#     4  10  19  39  68  83 106 154 211 246 287 337
#     4  12  24  30  56  90 126 136 190 256 294 328
#     4   8  15  33  60  87 103 145 206 247 275 350
#     4  11  20  36  59  87 113 153 195 250 294 342
#     4  12  23  36  58  86 121 158 189 241 296 364
#     4  10  21  39  61  88 114 155 201 249 286 354
#
# _framework density 26.70365
#
# number of rings (size 3 to 8) (size 9 to 14) (size 15 to 20)
#    0.000    1.867    4.000    2.400    1.867    1.067 
#    0.000    0.000    0.000    0.800    0.000    0.000 
#    0.000    0.000    0.000    0.000    0.000    0.000 
#
# Total GULP energy -167624.283001 kJ/mol
# GULP energy per Si atom -5587.476100 kJ/mol
# Density = 2.664287 g / cm^3
# Si number density = 26.703650 Si / 1000 Ang^3
#
#
#
# Elastic Constant Matrix: (Units=GPa)
#
#
# Indices 1 2 3 4 5 6 
#
# 1 27.7840 7.2206 22.6654 0.0000 3.7456 0.0000
# 2 7.2206 51.2383 13.6625 0.0000 0.8435 0.0000
# 3 22.6654 13.6625 191.2752 0.0000 -3.9720 0.0000
# 4 0.0000 0.0000 0.0000 38.8034 0.0000 1.8806
# 5 3.7456 0.8435 -3.9720 0.0000 31.0824 0.0000
# 6 0.0000 0.0000 0.0000 1.8806 0.0000 24.7699
#
#
#
# Elastic Compliance Matrix: (Units=1/GPa)
#
#
# Indices 1 2 3 4 5 6 
#
# 1 0.041782 -0.004533 -0.004742 0.000000 -0.005518 0.000000
# 2 -0.004533 0.020404 -0.000923 0.000000 -0.000125 0.000000
# 3 -0.004742 -0.000923 0.005884 0.000000 0.001348 0.000000
# 4 0.000000 0.000000 0.000000 0.025866 0.000000 -0.001964
# 5 -0.005518 -0.000125 0.001348 0.000000 0.033013 0.000000
# 6 0.000000 0.000000 0.000000 -0.001964 0.000000 0.040521
#
#
# Mechanical properties :
#
#
# Convention : Reuss Voigt Hill
#
# Bulk Modulus (GPa) = 20.97553 39.71047 30.34300
# Shear Modulus (GPa) = 24.53915 34.04774 29.29344
#
# Velocity S-wave (km/s) = 3.03470 3.57462 3.31567
# Velocity P-wave (km/s) = 4.48900 5.65157 5.10350
#
# Compressibility (1/GPa) = 0.04767461
#
# Stress axis : x y z
#
# Youngs Moduli (GPa) = 23.93369 49.01103 169.95597
#
# Poissons Ratio (x) = 0.22215 0.80590
# Poissons Ratio (y) = 0.10849 0.15685
# Poissons Ratio (z) = 0.11349 0.04523
#
# Static dielectric constant tensor:
#      x y z
#    x 2.229930 0.000000 -0.046580 
#    y 0.000000 2.096000 0.000000 
#    z -0.046580 0.000000 2.099670 
# 
# From -- ./inp_files/247859.got.cif
#   From: 2010.05.17/outbox.cif.g08.bks.cpg/sg15_124_cif.got.tgz:247859.got - 2010.06.03 18:47:42.
