data_PCOD9267404
_publ_section_title
;
Structure prediction by ZEFSAII (Michael W. Deem and Ramdas Pophale) SiO2 
 PCOD9267404
Probable space group: C 2/C
;
_chemical_formula_sum "Si O2"
_cell_formula_units_Z 64
_cell_length_a 13.849345
_cell_length_b 11.547439
_cell_length_c 16.833504
_cell_angle_alpha 90.000000
_cell_angle_beta 93.688853
_cell_angle_gamma 90.000000
_cell_volume 2686.511554
_symmetry_space_group_name_H-M "C 2/C"
_symmetry_group_IT_number 15
_symmetry_cell_setting 'monoclinic'
loop_
_space_group_symop_operation_xyz
x,y,z
-x,y,1/2-z
-x,-y,-z
x,-y,1/2+z
1/2+x,1/2+y,z
1/2-x,1/2+y,1/2-z
1/2-x,1/2-y,-z
1/2+x,1/2-y,1/2+z
loop_
_atom_site_type_symbol
_atom_site_label
_atom_site_fract_x
_atom_site_fract_y
_atom_site_fract_z
Si Si1 0.711463 0.003103 0.595008
Si Si2 0.334479 0.108277 0.063318
Si Si3 0.037705 0.196151 0.341653
Si Si4 0.524081 0.039229 0.168824
Si Si5 0.587077 0.556708 0.914421
Si Si6 0.363215 0.682220 0.439967
Si Si7 0.741733 0.241132 0.901783
Si Si8 0.433042 0.305769 0.322460
O O1 0.609091 0.026751 0.628794
O O2 0.740228 0.874813 0.620577
O O3 0.694137 0.007721 0.499653
O O4 0.805271 0.082489 0.616197
O O5 0.427365 0.067304 0.115113
O O6 0.238392 0.146428 0.105484
O O7 0.350854 0.217663 0.005567
O O8 0.130718 0.276220 0.367196
O O9 0.000000 0.190717 0.250000
O O10 0.944317 0.227306 0.387251
O O11 0.060371 0.066380 0.376186
O O12 0.500000 0.979218 0.250000
O O13 0.564730 0.168207 0.189355
O O14 0.505092 0.650134 0.893816
O O15 0.603856 0.567665 0.009503
O O16 0.824485 0.171653 0.854523
O O17 0.750000 0.250000 0.000000
O O18 0.500000 0.352035 0.250000
#
# Coordination Sequence:
#
# PCOD9267404 Si02
#       8
#     8   8   8   8   8   8   8   8
#     4   9  21  37  59  88 118 160 211 264 314 373
#     4  10  20  37  61  86 116 163 214 258 305 380
#     4  11  24  40  62  92 134 161 200 274 336 379
#     4  10  20  36  58  87 123 162 207 262 318 377
#     4  10  19  39  62  91 117 160 211 261 312 391
#     4  10  21  37  62  89 117 162 212 258 315 389
#     4  10  22  41  64  90 125 170 216 259 326 402
#     4  10  20  35  61  90 118 159 210 259 312 382
#
# _framework density 23.822717000000001
#
# number of rings (size 3 to 8) (size 9 to 14) (size 15 to 20)
#    0.000    2.000    1.250    1.875    1.750    6.000 
#    0.000    1.875    0.000    0.000    0.000    0.000 
#    0.000    0.000    0.000    0.000    0.000    0.000 
#
# Total GULP energy -178188.034988 kJ/mol
# GULP energy per Si atom -5568.376093 kJ/mol
# Density = 2.376850 g / cm^3
# Si number density = 23.822717 Si / 1000 Ang^3
#
#
#
# Elastic Constant Matrix: (Units=GPa)
#
#
# Indices 1 2 3 4 5 6 
#
# 1 241.3951 13.6084 81.3959 0.0000 -37.2185 0.0000
# 2 13.6084 57.8820 1.5401 0.0000 -5.3456 0.0000
# 3 81.3959 1.5401 77.1564 0.0000 -19.1948 0.0000
# 4 0.0000 0.0000 0.0000 8.5284 0.0000 -4.4814
# 5 -37.2185 -5.3456 -19.1948 0.0000 23.1001 0.0000
# 6 0.0000 0.0000 0.0000 -4.4814 0.0000 13.5214
#
#
#
# Elastic Compliance Matrix: (Units=1/GPa)
#
#
# Indices 1 2 3 4 5 6 
#
# 1 0.007202 -0.000942 -0.005983 0.000000 0.006414 0.000000
# 2 -0.000942 0.017820 0.001621 0.000000 0.003954 0.000000
# 3 -0.005983 0.001621 0.021349 0.000000 0.008474 0.000000
# 4 0.000000 0.000000 0.000000 0.141983 0.000000 0.047057
# 5 0.006414 0.003954 0.008474 0.000000 0.061581 0.000000
# 6 0.000000 0.000000 0.000000 0.047057 0.000000 0.089553
#
#
# Mechanical properties :
#
#
# Convention : Reuss Voigt Hill
#
# Bulk Modulus (GPa) = 27.96164 63.28026 45.62095
# Shear Modulus (GPa) = 13.81155 27.68925 20.75040
#
# Velocity S-wave (km/s) = 2.41044 3.41296 2.95453
# Velocity P-wave (km/s) = 4.41699 6.49243 5.55255
#
# Compressibility (1/GPa) = 0.03576328
#
# Stress axis : x y z
#
# Youngs Moduli (GPa) = 138.84722 56.11700 46.84132
#
# Poissons Ratio (x) = 0.05284 0.28027
# Poissons Ratio (y) = 0.13075 -0.07594
# Poissons Ratio (z) = 0.83077 -0.09098
#
# Static dielectric constant tensor:
#      x y z
#    x 2.038630 0.000000 -0.062630 
#    y 0.000000 1.977120 0.000000 
#    z -0.062630 0.000000 1.960790 
# 
# From -- ./inp_files/198349.got.cif
#   From: 2010.05.17/outbox.cif.g08.bks.cpg/sg15_100_cif.got.tgz:198349.got - 2010.06.03 18:47:42.
