data_PCOD9267887
_publ_section_title
;
Structure prediction by ZEFSAII (Michael W. Deem and Ramdas Pophale) SiO2 
 PCOD9267887
Probable space group: C 2/C
;
_chemical_formula_sum "Si O2"
_cell_formula_units_Z 64
_cell_length_a 18.138971
_cell_length_b 12.180222
_cell_length_c 30.994294
_cell_angle_alpha 90.000000
_cell_angle_beta 150.302621
_cell_angle_gamma 90.000000
_cell_volume 3392.518290
_symmetry_space_group_name_H-M "C 2/C"
_symmetry_group_IT_number 15
_symmetry_cell_setting 'monoclinic'
loop_
_space_group_symop_operation_xyz
x,y,z
-x,y,1/2-z
-x,-y,-z
x,-y,1/2+z
1/2+x,1/2+y,z
1/2-x,1/2+y,1/2-z
1/2-x,1/2-y,-z
1/2+x,1/2-y,1/2+z
loop_
_atom_site_type_symbol
_atom_site_label
_atom_site_fract_x
_atom_site_fract_y
_atom_site_fract_z
Si Si1 0.448799 0.011568 0.043580
Si Si2 0.751714 0.510480 0.859752
Si Si3 0.596947 0.374317 0.593860
Si Si4 0.332681 0.733491 0.171026
Si Si5 0.899652 0.238167 0.739785
Si Si6 0.424827 0.767815 0.582643
Si Si7 0.645742 0.769731 0.487534
Si Si8 0.582163 0.368742 0.087509
O O1 0.449743 0.108832 0.078162
O O2 0.604747 0.005200 0.097724
O O3 0.418430 0.892334 0.047522
O O4 0.320933 0.032613 0.942480
O O5 0.666794 0.394849 0.815885
O O6 0.655533 0.613748 0.796429
O O7 0.753775 0.313262 0.670584
O O8 0.489340 0.315024 0.573722
O O9 0.517206 0.361712 0.506592
O O10 0.611855 0.503171 0.610987
O O11 0.500000 0.774298 0.250000
O O12 0.233788 0.802940 0.154227
O O13 0.245665 0.738423 0.081438
O O14 0.000000 0.271999 0.750000
O O15 0.993857 0.246656 0.831084
O O16 0.250000 0.750000 0.500000
O O17 0.493597 0.688090 0.581220
O O18 0.750000 0.750000 0.500000
#
# Coordination Sequence:
#
# PCOD9267887 Si02
#       8
#     8   8   8   8   8   8   8   8
#     4  10  20  40  69  92 121 164 208 260 314 368
#     4  10  19  40  69  92 122 158 209 264 312 362
#     4  10  22  43  65  88 125 170 207 252 316 371
#     4  10  21  39  64  94 122 162 204 254 311 366
#     4  12  25  42  63  92 127 164 210 261 314 372
#     4  12  26  41  63  94 127 164 212 260 312 375
#     4  10  22  40  64  93 125 161 205 255 311 368
#     4  10  22  43  65  89 126 166 209 255 309 376
#
# _framework density 18.865041000000002
#
# number of rings (size 3 to 8) (size 9 to 14) (size 15 to 20)
#    0.000    1.500    2.500    2.625    1.750    3.500 
#    4.500    0.000    0.000    0.000    0.000    0.000 
#    0.000    0.000    0.000    0.000    0.000    0.000 
#
# Total GULP energy -178869.299785 kJ/mol
# GULP energy per Si atom -5589.665618 kJ/mol
# Density = 1.882210 g / cm^3
# Si number density = 18.865041 Si / 1000 Ang^3
#
#
#
# Elastic Constant Matrix: (Units=GPa)
#
#
# Indices 1 2 3 4 5 6 
#
# 1 161.4439 87.1357 49.6858 0.0000 21.1412 0.0000
# 2 87.1357 146.6721 68.8385 0.0000 9.7858 0.0000
# 3 49.6858 68.8385 79.8582 0.0000 25.7805 0.0000
# 4 0.0000 0.0000 0.0000 20.5365 0.0000 5.2672
# 5 21.1412 9.7858 25.7805 0.0000 33.0467 0.0000
# 6 0.0000 0.0000 0.0000 5.2672 0.0000 16.6328
#
#
#
# Elastic Compliance Matrix: (Units=1/GPa)
#
#
# Indices 1 2 3 4 5 6 
#
# 1 0.009768 -0.005647 0.000358 0.000000 -0.004856 0.000000
# 2 -0.005647 0.015599 -0.012842 0.000000 0.009012 0.000000
# 3 0.000358 -0.012842 0.029694 0.000000 -0.019591 0.000000
# 4 0.000000 0.000000 0.000000 0.052998 0.000000 -0.016783
# 5 -0.004856 0.009012 -0.019591 0.000000 0.045982 0.000000
# 6 0.000000 0.000000 0.000000 -0.016783 0.000000 0.065437
#
#
# Mechanical properties :
#
#
# Convention : Reuss Voigt Hill
#
# Bulk Modulus (GPa) = 53.19568 88.81048 71.00308
# Shear Modulus (GPa) = 19.08358 26.19748 22.64053
#
# Velocity S-wave (km/s) = 3.18399 3.73054 3.46805
# Velocity P-wave (km/s) = 6.46346 8.10770 7.33182
#
# Compressibility (1/GPa) = 0.01879852
#
# Stress axis : x y z
#
# Youngs Moduli (GPa) = 102.38008 64.10806 33.67680
#
# Poissons Ratio (x) = 0.36201 -0.01206
# Poissons Ratio (y) = 0.57813 0.43248
# Poissons Ratio (z) = -0.03667 0.82329
#
# Static dielectric constant tensor:
#      x y z
#    x 1.624380 0.000000 -0.001680 
#    y 0.000000 1.641090 0.000000 
#    z -0.001680 0.000000 1.634520 
# 
# From -- ./inp_files/316182.got.cif
#   From: 2010.05.17/outbox.cif.g08.bks.cpg/sg15_159_cif.got.tgz:316182.got - 2010.06.03 18:47:42.
