data_PCOD9267630
_publ_section_title
;
Structure prediction by ZEFSAII (Michael W. Deem and Ramdas Pophale) SiO2 
 PCOD9267630
Probable space group: C 2/C
;
_chemical_formula_sum "Si O2"
_cell_formula_units_Z 56
_cell_length_a 27.823513
_cell_length_b 13.658900
_cell_length_c 8.689754
_cell_angle_alpha 90.000000
_cell_angle_beta 49.046072
_cell_angle_gamma 90.000000
_cell_volume 2494.125826
_symmetry_space_group_name_H-M "C 2/C"
_symmetry_group_IT_number 15
_symmetry_cell_setting 'monoclinic'
loop_
_space_group_symop_operation_xyz
x,y,z
-x,y,1/2-z
-x,-y,-z
x,-y,1/2+z
1/2+x,1/2+y,z
1/2-x,1/2+y,1/2-z
1/2-x,1/2-y,-z
1/2+x,1/2-y,1/2+z
loop_
_atom_site_type_symbol
_atom_site_label
_atom_site_fract_x
_atom_site_fract_y
_atom_site_fract_z
Si Si1 0.682843 0.142718 0.549376
Si Si2 0.593388 0.287037 0.305714
Si Si3 0.000000 0.283072 0.750000
Si Si4 0.446590 0.916155 0.111777
Si Si5 0.207481 0.345554 0.634079
Si Si6 0.683721 0.635590 0.071036
Si Si7 0.000000 0.730722 0.750000
Si Si8 0.680406 0.549793 0.738099
O O1 0.627711 0.064968 0.703951
O O2 0.704713 0.136881 0.324340
O O3 0.657226 0.254800 0.623366
O O4 0.741467 0.141381 0.544192
O O5 0.544869 0.278361 0.267792
O O6 0.637320 0.188956 0.227255
O O7 0.550541 0.291756 0.548434
O O8 0.639063 0.379880 0.215068
O O9 0.045507 0.355691 0.560383
O O10 0.465441 0.841939 0.206384
O O11 0.500000 0.000000 0.000000
O O12 0.250000 0.250000 0.500000
O O13 0.246291 0.431613 0.468535
O O14 0.674883 0.586468 0.923511
O O15 0.659154 0.560878 0.251898
#
# Coordination Sequence:
#
# PCOD9267630 Si02
#       8
#     8   8   4   8   8   8   4   8
#     4  11  23  43  67  99 139 186 227 290 355 434
#     4  10  21  41  69  92 135 175 232 284 343 418
#     4  10  25  38  64  99 124 186 230 281 335 402
#     4  11  23  41  62  92 134 182 236 280 333 411
#     4  10  19  39  69  97 135 183 224 286 363 417
#     4  11  24  40  68 104 136 178 227 286 367 415
#     4  10  19  40  64  91 124 182 232 267 343 388
#     4  11  23  42  66 104 139 176 229 293 355 433
#
# _framework density 22.452759
#
# number of rings (size 3 to 8) (size 9 to 14) (size 15 to 20)
#    0.000    1.429    4.286    1.286    2.000    4.571 
#    5.143    0.000    0.000   14.571    0.000    0.000 
#    0.000    0.000    0.000    0.000    0.000    0.000 
#
# Total GULP energy -156423.815019 kJ/mol
# GULP energy per Si atom -5586.564822 kJ/mol
# Density = 2.240166 g / cm^3
# Si number density = 22.452759 Si / 1000 Ang^3
#
#
#
# Elastic Constant Matrix: (Units=GPa)
#
#
# Indices 1 2 3 4 5 6 
#
# 1 94.2987 18.3147 48.2854 0.0000 -0.3963 0.0000
# 2 18.3147 68.7855 7.4296 0.0000 -1.2563 0.0000
# 3 48.2854 7.4296 87.0465 0.0000 -5.2998 0.0000
# 4 0.0000 0.0000 0.0000 24.3059 0.0000 -10.0692
# 5 -0.3963 -1.2563 -5.2998 0.0000 41.1075 0.0000
# 6 0.0000 0.0000 0.0000 -10.0692 0.0000 11.4462
#
#
#
# Elastic Compliance Matrix: (Units=1/GPa)
#
#
# Indices 1 2 3 4 5 6 
#
# 1 0.015533 -0.003247 -0.008402 0.000000 -0.001033 0.000000
# 2 -0.003247 0.015355 0.000521 0.000000 0.000505 0.000000
# 3 -0.008402 0.000521 0.016228 0.000000 0.002027 0.000000
# 4 0.000000 0.000000 0.000000 0.064733 0.000000 0.056946
# 5 -0.001033 0.000505 0.002027 0.000000 0.024593 0.000000
# 6 0.000000 0.000000 0.000000 0.056946 0.000000 0.137461
#
#
# Mechanical properties :
#
#
# Convention : Reuss Voigt Hill
#
# Bulk Modulus (GPa) = 40.22436 44.24336 42.23386
# Shear Modulus (GPa) = 16.42325 27.11200 21.76763
#
# Velocity S-wave (km/s) = 2.70748 3.47870 3.11703
# Velocity P-wave (km/s) = 5.26573 5.99024 5.63963
#
# Compressibility (1/GPa) = 0.02486056
#
# Stress axis : x y z
#
# Youngs Moduli (GPa) = 64.37821 65.12350 61.62286
#
# Poissons Ratio (x) = 0.21147 0.51776
# Poissons Ratio (y) = 0.20905 -0.03213
# Poissons Ratio (z) = 0.54091 -0.03395
#
# Static dielectric constant tensor:
#      x y z
#    x 1.856650 0.000000 -0.057770 
#    y 0.000000 1.895430 0.000000 
#    z -0.057770 0.000000 2.024650 
# 
# From -- ./inp_files/69908.got.cif
#   From: 2010.05.17/outbox.cif.g08.bks.cpg/sg15_35_cif.got.tgz:69908.got - 2010.06.03 18:47:42.
