data_PCOD9267685
_publ_section_title
;
Structure prediction by ZEFSAII (Michael W. Deem and Ramdas Pophale) SiO2 
 PCOD9267685
Probable space group: C 2/C
;
_chemical_formula_sum "Si O2"
_cell_formula_units_Z 52
_cell_length_a 10.867856
_cell_length_b 25.034227
_cell_length_c 8.785363
_cell_angle_alpha 90.000000
_cell_angle_beta 64.854950
_cell_angle_gamma 90.000000
_cell_volume 2163.710244
_symmetry_space_group_name_H-M "C 2/C"
_symmetry_group_IT_number 15
_symmetry_cell_setting 'monoclinic'
loop_
_space_group_symop_operation_xyz
x,y,z
-x,y,1/2-z
-x,-y,-z
x,-y,1/2+z
1/2+x,1/2+y,z
1/2-x,1/2+y,1/2-z
1/2-x,1/2-y,-z
1/2+x,1/2-y,1/2+z
loop_
_atom_site_type_symbol
_atom_site_label
_atom_site_fract_x
_atom_site_fract_y
_atom_site_fract_z
Si Si1 0.875214 0.935786 0.929930
Si Si2 0.168890 0.355216 0.000455
Si Si3 0.500000 0.807222 0.750000
Si Si4 0.500000 0.057633 0.750000
Si Si5 0.742061 0.510084 0.293662
Si Si6 0.240501 0.628044 0.112115
Si Si7 0.500000 0.765289 0.250000
Si Si8 0.109818 0.774508 0.996067
O O1 0.779948 0.971403 0.867374
O O2 0.000000 0.927625 0.750000
O O3 0.806696 0.879107 0.000393
O O4 0.874386 0.969891 0.084244
O O5 0.109808 0.303600 0.110538
O O6 0.060863 0.402418 0.091889
O O7 0.201854 0.352898 0.804800
O O8 0.395580 0.847685 0.889786
O O9 0.487014 0.760717 0.627824
O O10 0.617937 0.021037 0.756729
O O11 0.741085 0.565343 0.389870
O O12 0.368460 0.662390 0.989006
O O13 0.414770 0.732744 0.170245
O O14 0.250000 0.750000 0.000000
#
# Coordination Sequence:
#
# PCOD9267685 Si02
#       8
#     8   8   4   4   8   8   4   8
#     4  10  21  40  58  87 132 167 211 252 309 396
#     4   9  20  37  64  98 120 164 214 267 325 385
#     4  10  19  40  61  80 134 153 202 285 304 370
#     4   9  19  36  62 102 126 148 220 270 320 384
#     4  10  21  37  62  91 125 166 207 263 324 368
#     4  10  20  37  57  91 120 166 210 251 325 380
#     4  11  20  44  71  92 132 167 214 279 336 374
#     4  10  23  41  62  93 127 166 216 267 324 388
#
# _framework density 24.032792000000001
#
# number of rings (size 3 to 8) (size 9 to 14) (size 15 to 20)
#    0.000    2.154    1.538    0.923    0.000    7.385 
#   15.231    0.000    0.000    0.000    0.000    0.000 
#    0.000    0.000    0.000    0.000    0.000    0.000 
#
# Total GULP energy -144780.440925 kJ/mol
# GULP energy per Si atom -5568.478497 kJ/mol
# Density = 2.397809 g / cm^3
# Si number density = 24.032792 Si / 1000 Ang^3
#
#
#
# Elastic Constant Matrix: (Units=GPa)
#
#
# Indices 1 2 3 4 5 6 
#
# 1 61.7314 10.8589 7.4103 0.0000 -2.6214 0.0000
# 2 10.8589 78.2898 1.5467 0.0000 -6.9831 0.0000
# 3 7.4103 1.5467 50.5549 0.0000 -4.4235 0.0000
# 4 0.0000 0.0000 0.0000 -1.2225 0.0000 11.5447
# 5 -2.6214 -6.9831 -4.4235 0.0000 34.9856 0.0000
# 6 0.0000 0.0000 0.0000 11.5447 0.0000 11.5497
#
#
#
# Elastic Compliance Matrix: (Units=1/GPa)
#
#
# Indices 1 2 3 4 5 6 
#
# 1 0.016901 -0.002251 -0.002363 0.000000 0.000518 0.000000
# 2 -0.002251 0.013306 0.000142 0.000000 0.002505 0.000000
# 3 -0.002363 0.000142 0.020334 0.000000 0.002422 0.000000
# 4 0.000000 0.000000 0.000000 -0.078356 0.000000 0.078322
# 5 0.000518 0.002505 0.002422 0.000000 0.029428 0.000000
# 6 0.000000 0.000000 0.000000 0.078322 0.000000 0.008294
#
#
# Mechanical properties :
#
#
# Convention : Reuss Voigt Hill
#
# Bulk Modulus (GPa) = 24.04033 25.57867 24.80950
# Shear Modulus (GPa) = 152.82444 20.44658 86.63551
#
# Velocity S-wave (km/s) = 7.98298 2.91998 6.01059
# Velocity P-wave (km/s) = 9.74657 4.69411 7.64952
#
# Compressibility (1/GPa) = 0.04159676
#
# Stress axis : x y z
#
# Youngs Moduli (GPa) = 59.16843 75.15437 49.17755
#
# Poissons Ratio (x) = 0.16919 0.11621
# Poissons Ratio (y) = 0.13320 -0.00699
# Poissons Ratio (z) = 0.13982 -0.01068
#
# Static dielectric constant tensor:
#      x y z
#    x 2.096280 0.000000 0.106700 
#    y 0.000000 1.908330 0.000000 
#    z 0.106700 0.000000 1.927120 
# 
# From -- ./inp_files/33537.got.cif
#   From: 2010.05.17/outbox.cif.g08.bks.cpg/sg15_17_cif.got.tgz:33537.got - 2010.06.03 18:47:42.
