data_PCOD9267948
_publ_section_title
;
Structure prediction by ZEFSAII (Michael W. Deem and Ramdas Pophale) SiO2 
 PCOD9267948
Probable space group: C 2/C
;
_chemical_formula_sum "Si O2"
_cell_formula_units_Z 52
_cell_length_a 9.692902
_cell_length_b 27.114185
_cell_length_c 13.334041
_cell_angle_alpha 90.000000
_cell_angle_beta 41.704926
_cell_angle_gamma 90.000000
_cell_volume 2331.450102
_symmetry_space_group_name_H-M "C 2/C"
_symmetry_group_IT_number 15
_symmetry_cell_setting 'monoclinic'
loop_
_space_group_symop_operation_xyz
x,y,z
-x,y,1/2-z
-x,-y,-z
x,-y,1/2+z
1/2+x,1/2+y,z
1/2-x,1/2+y,1/2-z
1/2-x,1/2-y,-z
1/2+x,1/2-y,1/2+z
loop_
_atom_site_type_symbol
_atom_site_label
_atom_site_fract_x
_atom_site_fract_y
_atom_site_fract_z
Si Si1 0.912305 0.641567 0.413270
Si Si2 0.770206 0.404025 0.322194
Si Si3 0.307045 0.806390 0.572269
Si Si4 0.153871 0.903292 0.587163
Si Si5 0.721492 0.790662 0.228907
Si Si6 0.569954 0.056005 0.955002
Si Si7 0.000000 0.810300 0.250000
O O1 0.896770 0.584434 0.458826
O O2 0.688089 0.662833 0.581118
O O3 0.000000 0.645393 0.250000
O O4 0.089838 0.667516 0.385767
O O5 0.621213 0.421088 0.492518
O O6 0.722767 0.346376 0.332704
O O7 0.757186 0.432344 0.223926
O O8 0.000000 0.407391 0.250000
O O9 0.153616 0.843767 0.598035
O O10 0.495260 0.797506 0.395479
O O11 0.230519 0.753291 0.646816
O O12 0.377621 0.916722 0.507175
O O13 0.000000 0.925849 0.750000
O O14 0.875994 0.778679 0.236362
O O15 0.500000 0.000000 0.000000
#
# Coordination Sequence:
#
# PCOD9267948 Si02
#       7
#     8   8   8   8   8   8   4
#     4  10  22  40  61  87 123 163 207 263 316 378
#     4  10  19  41  62  82 127 165 197 253 318 360
#     4  10  23  37  53  92 124 164 214 251 306 371
#     4  10  22  40  61  91 125 162 209 260 309 377
#     4  11  22  36  58  88 126 171 209 258 308 367
#     4  10  21  44  65  88 121 156 205 263 330 382
#     4  10  22  40  58  88 128 170 210 264 316 376
#
# _framework density 22.303716999999999
#
# number of rings (size 3 to 8) (size 9 to 14) (size 15 to 20)
#    0.000    1.846    6.154    0.000    5.385    5.538 
#    1.385    0.769    0.000    0.000    0.000    0.000 
#    0.000    0.000    0.000    0.000    0.000    0.000 
#
# Total GULP energy -144758.619831 kJ/mol
# GULP energy per Si atom -5567.639224 kJ/mol
# Density = 2.225295 g / cm^3
# Si number density = 22.303717 Si / 1000 Ang^3
#
#
#
# Elastic Constant Matrix: (Units=GPa)
#
#
# Indices 1 2 3 4 5 6 
#
# 1 47.3868 -7.1986 23.2066 0.0000 16.7493 0.0000
# 2 -7.1986 89.4423 23.3133 0.0000 21.7954 0.0000
# 3 23.2066 23.3133 158.1892 0.0000 30.4155 0.0000
# 4 0.0000 0.0000 0.0000 19.3256 0.0000 3.3819
# 5 16.7493 21.7954 30.4155 0.0000 29.3323 0.0000
# 6 0.0000 0.0000 0.0000 3.3819 0.0000 4.9842
#
#
#
# Elastic Compliance Matrix: (Units=1/GPa)
#
#
# Indices 1 2 3 4 5 6 
#
# 1 0.030991 0.008326 -0.001476 0.000000 -0.022353 0.000000
# 2 0.008326 0.015890 -0.000473 0.000000 -0.016070 0.000000
# 3 -0.001476 -0.000473 0.007966 0.000000 -0.007066 0.000000
# 4 0.000000 0.000000 0.000000 0.058717 0.000000 -0.039841
# 5 -0.022353 -0.016070 -0.007066 0.000000 0.066124 0.000000
# 6 0.000000 0.000000 0.000000 -0.039841 0.000000 0.227667
#
#
# Mechanical properties :
#
#
# Convention : Reuss Voigt Hill
#
# Bulk Modulus (GPa) = 14.79258 41.51786 28.15522
# Shear Modulus (GPa) = 11.98651 27.77490 19.88070
#
# Velocity S-wave (km/s) = 2.32075 3.53271 2.98881
# Velocity P-wave (km/s) = 3.71859 5.94098 4.95597
#
# Compressibility (1/GPa) = 0.06760146
#
# Stress axis : x y z
#
# Youngs Moduli (GPa) = 32.26721 62.93301 125.52671
#
# Poissons Ratio (x) = -0.52397 0.18523
# Poissons Ratio (y) = -0.26865 0.05941
# Poissons Ratio (z) = 0.04761 0.02979
#
# Static dielectric constant tensor:
#      x y z
#    x 1.837630 0.000000 -0.020080 
#    y 0.000000 1.990310 0.000000 
#    z -0.020080 0.000000 1.961780 
# 
# From -- ./inp_files/92562.got.cif
#   From: 2010.05.17/outbox.cif.g08.bks.cpg/sg15_47_cif.got.tgz:92562.got - 2010.06.03 18:47:42.
