data_PCOD9267603
_publ_section_title
;
Structure prediction by ZEFSAII (Michael W. Deem and Ramdas Pophale) SiO2 
 PCOD9267603
Probable space group: C 2/C
;
_chemical_formula_sum "Si O2"
_cell_formula_units_Z 44
_cell_length_a 15.822123
_cell_length_b 10.051712
_cell_length_c 13.702671
_cell_angle_alpha 90.000000
_cell_angle_beta 56.986800
_cell_angle_gamma 90.000000
_cell_volume 1827.411836
_symmetry_space_group_name_H-M "C 2/C"
_symmetry_group_IT_number 15
_symmetry_cell_setting 'monoclinic'
loop_
_space_group_symop_operation_xyz
x,y,z
-x,y,1/2-z
-x,-y,-z
x,-y,1/2+z
1/2+x,1/2+y,z
1/2-x,1/2+y,1/2-z
1/2-x,1/2-y,-z
1/2+x,1/2-y,1/2+z
loop_
_atom_site_type_symbol
_atom_site_label
_atom_site_fract_x
_atom_site_fract_y
_atom_site_fract_z
Si Si1 0.193799 0.379452 0.144201
Si Si2 0.167854 0.114142 0.449472
Si Si3 0.000000 0.457378 0.750000
Si Si4 0.815619 0.858635 0.332013
Si Si5 0.018503 0.258491 0.904735
Si Si6 0.799869 0.379855 0.594455
O O1 0.090424 0.453222 0.234521
O O2 0.216894 0.233947 0.170355
O O3 0.290209 0.471787 0.107412
O O4 0.187994 0.374032 0.029883
O O5 0.155715 0.108843 0.574600
O O6 0.255384 0.219927 0.371539
O O7 0.062361 0.175536 0.482824
O O8 0.033560 0.361301 0.639479
O O9 0.912716 0.838076 0.204580
O O10 0.740930 0.977009 0.349383
O O11 0.095551 0.340723 0.922332
#
# Coordination Sequence:
#
# PCOD9267603 Si02
#       6
#     8   8   4   8   8   8
#     4  10  23  47  61  91 130 171 200 267 315 375
#     4  10  19  39  68  87 125 167 210 256 308 373
#     4  12  22  40  68  92 124 170 214 254 312 376
#     4  10  20  39  61  92 129 165 208 259 306 374
#     4  12  22  38  67 100 120 170 214 259 305 380
#     4  10  25  42  62  93 135 159 210 260 323 365
#
# _framework density 24.077769
#
# number of rings (size 3 to 8) (size 9 to 14) (size 15 to 20)
#    0.000    1.455    3.636    2.182    2.545    3.636 
#    9.818    0.000    0.000    0.000    0.000    0.000 
#    0.000    0.000    0.000    0.000    0.000    0.000 
#
# Total GULP energy -123223.085277 kJ/mol
# GULP energy per Si atom -5601.049331 kJ/mol
# Density = 2.402297 g / cm^3
# Si number density = 24.077769 Si / 1000 Ang^3
#
#
#
# Elastic Constant Matrix: (Units=GPa)
#
#
# Indices 1 2 3 4 5 6 
#
# 1 98.5832 16.4192 8.8376 0.0000 -5.4625 0.0000
# 2 16.4192 89.6281 -8.4453 0.0000 -7.9221 0.0000
# 3 8.8376 -8.4453 53.3157 0.0000 -7.4036 0.0000
# 4 0.0000 0.0000 0.0000 -0.0795 0.0000 -16.3902
# 5 -5.4625 -7.9221 -7.4036 0.0000 45.7860 0.0000
# 6 0.0000 0.0000 0.0000 -16.3902 0.0000 32.4399
#
#
#
# Elastic Compliance Matrix: (Units=1/GPa)
#
#
# Indices 1 2 3 4 5 6 
#
# 1 0.010708 -0.002101 -0.002026 0.000000 0.000586 0.000000
# 2 -0.002101 0.011981 0.002556 0.000000 0.002236 0.000000
# 3 -0.002026 0.002556 0.019973 0.000000 0.003430 0.000000
# 4 0.000000 0.000000 0.000000 -0.119608 0.000000 -0.060432
# 5 0.000586 0.002236 0.003430 0.000000 0.022852 0.000000
# 6 0.000000 0.000000 0.000000 -0.060432 0.000000 0.000293
#
#
# Mechanical properties :
#
#
# Convention : Reuss Voigt Hill
#
# Bulk Modulus (GPa) = 25.30329 30.57221 27.93775
# Shear Modulus (GPa) = -133.38135 30.61030 -51.38552
#
# Velocity S-wave (km/s) = -7.45093 3.56941 -4.62470
# Velocity P-wave (km/s) = 7.96806 5.45091 4.10959
#
# Compressibility (1/GPa) = 0.03952056
#
# Stress axis : x y z
#
# Youngs Moduli (GPa) = 93.39053 83.46881 50.06680
#
# Poissons Ratio (x) = 0.17534 0.10145
# Poissons Ratio (y) = 0.19618 -0.12799
# Poissons Ratio (z) = 0.18923 -0.21338
#
# Static dielectric constant tensor:
#      x y z
#    x 1.935800 0.000000 0.041240 
#    y 0.000000 1.913630 0.000000 
#    z 0.041240 0.000000 1.935320 
# 
# From -- ./inp_files/118117.got.cif
#   From: 2010.05.17/outbox.cif.g08.bks.cpg/sg15_60_cif.got.tgz:118117.got - 2010.06.03 18:47:42.
