data_PCOD9267032
_publ_section_title
;
Structure prediction by ZEFSAII (Michael W. Deem and Ramdas Pophale) SiO2 
 PCOD9267032
Probable space group: C 2/C
;
_chemical_formula_sum "Si O2"
_cell_formula_units_Z 60
_cell_length_a 7.724535
_cell_length_b 19.726514
_cell_length_c 16.119015
_cell_angle_alpha 90.000000
_cell_angle_beta 87.933123
_cell_angle_gamma 90.000000
_cell_volume 2454.587682
_symmetry_space_group_name_H-M "C 2/C"
_symmetry_group_IT_number 15
_symmetry_cell_setting 'monoclinic'
loop_
_space_group_symop_operation_xyz
x,y,z
-x,y,1/2-z
-x,-y,-z
x,-y,1/2+z
1/2+x,1/2+y,z
1/2-x,1/2+y,1/2-z
1/2-x,1/2-y,-z
1/2+x,1/2-y,1/2+z
loop_
_atom_site_type_symbol
_atom_site_label
_atom_site_fract_x
_atom_site_fract_y
_atom_site_fract_z
Si Si1 0.493330 0.335636 0.554733
Si Si2 0.574558 0.557177 0.672068
Si Si3 0.312738 0.941453 0.369284
Si Si4 0.818754 0.027997 0.466094
Si Si5 0.500000 0.043752 0.250000
Si Si6 0.411826 0.154845 0.385471
Si Si7 0.479917 0.189859 0.930843
Si Si8 0.130593 0.197055 0.629202
O O1 0.625184 0.397491 0.563687
O O2 0.301328 0.353306 0.598054
O O3 0.594373 0.265848 0.575757
O O4 0.452905 0.324442 0.457720
O O5 0.500000 0.514830 0.750000
O O6 0.391269 0.570938 0.631823
O O7 0.712044 0.519529 0.612657
O O8 0.636480 0.632906 0.690134
O O9 0.323950 0.976279 0.460062
O O10 0.401762 0.868849 0.375981
O O11 0.366873 0.988864 0.292534
O O12 0.000000 0.000000 0.500000
O O13 0.499197 0.096870 0.327809
O O14 0.494890 0.161792 0.475930
O O15 0.437989 0.229589 0.345141
O O16 0.671992 0.207173 0.898628
#
# Coordination Sequence:
#
# PCOD9267032 Si02
#       8
#     8   8   8   8   4   8   8   8
#     4   9  16  39  68  91 117 161 210 256 301 376
#     4  11  24  39  65  90 123 165 214 255 309 386
#     4  11  25  41  59  90 128 167 204 263 315 359
#     4  10  19  38  64  88 124 166 207 247 309 369
#     4  12  26  38  58  92 138 162 208 262 310 366
#     4   9  20  38  62  94 123 161 207 256 308 371
#     4   9  21  38  67  93 122 157 210 264 313 365
#     4   9  18  38  66  94 117 159 211 248 306 378
#
# _framework density 24.444023999999999
#
# number of rings (size 3 to 8) (size 9 to 14) (size 15 to 20)
#    0.000    2.133    2.667    3.200    4.667    2.133 
#    0.000    0.000    1.467    0.000    0.000    0.000 
#    0.000    0.000    0.000    0.000    0.000    0.000 
#
# Total GULP energy -167114.325680 kJ/mol
# GULP energy per Si atom -5570.477523 kJ/mol
# Density = 2.438839 g / cm^3
# Si number density = 24.444024 Si / 1000 Ang^3
#
#
#
# Elastic Constant Matrix: (Units=GPa)
#
#
# Indices 1 2 3 4 5 6 
#
# 1 44.0617 31.3210 9.5576 0.0000 -4.8103 0.0000
# 2 31.3210 138.3844 34.2282 0.0000 -13.2828 0.0000
# 3 9.5576 34.2282 80.7632 0.0000 -24.7993 0.0000
# 4 0.0000 0.0000 0.0000 31.5273 0.0000 -10.4595
# 5 -4.8103 -13.2828 -24.7993 0.0000 26.7445 0.0000
# 6 0.0000 0.0000 0.0000 -10.4595 0.0000 17.8742
#
#
#
# Elastic Compliance Matrix: (Units=1/GPa)
#
#
# Indices 1 2 3 4 5 6 
#
# 1 0.027142 -0.005935 -0.000144 0.000000 0.001801 0.000000
# 2 -0.005935 0.009396 -0.003040 0.000000 0.000780 0.000000
# 3 -0.000144 -0.003040 0.018477 0.000000 0.015597 0.000000
# 4 0.000000 0.000000 0.000000 0.039360 0.000000 0.023032
# 5 0.001801 0.000780 0.015597 0.000000 0.052565 0.000000
# 6 0.000000 0.000000 0.000000 0.023032 0.000000 0.069425
#
#
# Mechanical properties :
#
#
# Convention : Reuss Voigt Hill
#
# Bulk Modulus (GPa) = 27.19086 45.93587 36.56337
# Shear Modulus (GPa) = 20.25432 27.76936 24.01184
#
# Velocity S-wave (km/s) = 2.88166 3.37417 3.13760
# Velocity P-wave (km/s) = 4.71379 5.83208 5.30250
#
# Compressibility (1/GPa) = 0.03677706
#
# Stress axis : x y z
#
# Youngs Moduli (GPa) = 36.84342 106.42419 54.12227
#
# Poissons Ratio (x) = 0.63159 0.00778
# Poissons Ratio (y) = 0.21865 0.16455
# Poissons Ratio (z) = 0.00530 0.32357
#
# Static dielectric constant tensor:
#      x y z
#    x 1.993410 0.000000 0.067480 
#    y 0.000000 2.036090 0.000000 
#    z 0.067480 0.000000 2.072760 
# 
# From -- ./inp_files/192132.got.cif
#   From: 2010.05.17/outbox.cif.g08.bks.cpg/sg15_97_cif.got.tgz:192132.got - 2010.06.03 18:47:42.
