data_PCOD9267363
_publ_section_title
;
Structure prediction by ZEFSAII (Michael W. Deem and Ramdas Pophale) SiO2 
 PCOD9267363
Probable space group: C 2/C
;
_chemical_formula_sum "Si O2"
_cell_formula_units_Z 44
_cell_length_a 6.382552
_cell_length_b 13.331020
_cell_length_c 26.836528
_cell_angle_alpha 90.000000
_cell_angle_beta 79.115469
_cell_angle_gamma 90.000000
_cell_volume 2242.331720
_symmetry_space_group_name_H-M "C 2/C"
_symmetry_group_IT_number 15
_symmetry_cell_setting 'monoclinic'
loop_
_space_group_symop_operation_xyz
x,y,z
-x,y,1/2-z
-x,-y,-z
x,-y,1/2+z
1/2+x,1/2+y,z
1/2-x,1/2+y,1/2-z
1/2-x,1/2-y,-z
1/2+x,1/2-y,1/2+z
loop_
_atom_site_type_symbol
_atom_site_label
_atom_site_fract_x
_atom_site_fract_y
_atom_site_fract_z
Si Si1 0.665224 0.284100 0.842830
Si Si2 0.585371 0.905346 0.796837
Si Si3 0.270734 0.345646 0.432326
Si Si4 0.077685 0.692029 0.474358
Si Si5 0.311622 0.447450 0.883935
Si Si6 0.000000 0.224315 0.250000
O O1 0.669822 0.216029 0.891159
O O2 0.514538 0.380777 0.858918
O O3 0.569414 0.226050 0.798943
O O4 0.901271 0.326945 0.821349
O O5 0.500000 0.957842 0.750000
O O6 0.661709 0.964736 0.842179
O O7 0.795035 0.843906 0.771296
O O8 0.445606 0.275307 0.450006
O O9 0.367604 0.447393 0.406399
O O10 0.087885 0.363785 0.481614
O O11 0.250000 0.750000 0.500000
O O12 0.185293 0.617923 0.430280
#
# Coordination Sequence:
#
# PCOD9267363 Si02
#       6
#     8   8   8   8   8   4
#     4  10  19  39  61  89 122 156 200 250 297 362
#     4   9  18  37  65  87 121 160 193 249 305 356
#     4  11  24  39  62  91 121 160 206 248 298 363
#     4  11  23  42  60  87 127 160 206 254 298 355
#     4  11  22  39  63  89 122 160 201 249 305 354
#     4   8  18  34  66  86 118 162 190 246 312 348
#
# _framework density 19.622430000000001
#
# number of rings (size 3 to 8) (size 9 to 14) (size 15 to 20)
#    0.000    1.818    3.636    0.545    0.000    2.182 
#    1.636    0.000   32.000    0.000    0.000    0.000 
#    0.000    0.000    0.000    0.000    0.000    0.000 
#
# Total GULP energy -122712.399129 kJ/mol
# GULP energy per Si atom -5577.836324 kJ/mol
# Density = 1.957777 g / cm^3
# Si number density = 19.622430 Si / 1000 Ang^3
#
#
#
# Elastic Constant Matrix: (Units=GPa)
#
#
# Indices 1 2 3 4 5 6 
#
# 1 90.0359 18.3453 45.8336 0.0000 4.3338 0.0000
# 2 18.3453 48.2607 29.4276 0.0000 1.8000 0.0000
# 3 45.8336 29.4276 129.3725 0.0000 18.7053 0.0000
# 4 0.0000 0.0000 0.0000 7.5055 0.0000 -0.2075
# 5 4.3338 1.8000 18.7053 0.0000 42.5369 0.0000
# 6 0.0000 0.0000 0.0000 -0.2075 0.0000 11.3020
#
#
#
# Elastic Compliance Matrix: (Units=1/GPa)
#
#
# Indices 1 2 3 4 5 6 
#
# 1 0.013849 -0.002601 -0.004407 0.000000 0.000637 0.000000
# 2 -0.002601 0.024634 -0.004880 0.000000 0.001368 0.000000
# 3 -0.004407 -0.004880 0.011006 0.000000 -0.004184 0.000000
# 4 0.000000 0.000000 0.000000 0.133304 0.000000 0.002447
# 5 0.000637 0.001368 -0.004184 0.000000 0.025226 0.000000
# 6 0.000000 0.000000 0.000000 0.002447 0.000000 0.088525
#
#
# Mechanical properties :
#
#
# Convention : Reuss Voigt Hill
#
# Bulk Modulus (GPa) = 38.88978 50.54247 44.71612
# Shear Modulus (GPa) = 15.20263 23.87304 19.53783
#
# Velocity S-wave (km/s) = 2.78647 3.49179 3.15888
# Velocity P-wave (km/s) = 5.49678 6.48616 6.01186
#
# Compressibility (1/GPa) = 0.02571370
#
# Stress axis : x y z
#
# Youngs Moduli (GPa) = 72.20517 40.59432 90.86094
#
# Poissons Ratio (x) = 0.10559 0.40042
# Poissons Ratio (y) = 0.18782 0.44337
# Poissons Ratio (z) = 0.31820 0.19809
#
# Static dielectric constant tensor:
#      x y z
#    x 1.678360 0.000000 0.021670 
#    y 0.000000 1.635810 0.000000 
#    z 0.021670 0.000000 1.739010 
# 
# From -- ./inp_files/260358.got.cif
#   From: 2010.05.17/outbox.cif.g08.bks.cpg/sg15_131_cif.got.tgz:260358.got - 2010.06.03 18:47:42.
