data_PCOD9267137
_publ_section_title
;
Structure prediction by ZEFSAII (Michael W. Deem and Ramdas Pophale) SiO2 
 PCOD9267137
Probable space group: C 2/C
;
_chemical_formula_sum "Si O2"
_cell_formula_units_Z 36
_cell_length_a 11.899962
_cell_length_b 13.085339
_cell_length_c 14.857282
_cell_angle_alpha 90.000000
_cell_angle_beta 37.609249
_cell_angle_gamma 90.000000
_cell_volume 1411.868056
_symmetry_space_group_name_H-M "C 2/C"
_symmetry_group_IT_number 15
_symmetry_cell_setting 'monoclinic'
loop_
_space_group_symop_operation_xyz
x,y,z
-x,y,1/2-z
-x,-y,-z
x,-y,1/2+z
1/2+x,1/2+y,z
1/2-x,1/2+y,1/2-z
1/2-x,1/2-y,-z
1/2+x,1/2-y,1/2+z
loop_
_atom_site_type_symbol
_atom_site_label
_atom_site_fract_x
_atom_site_fract_y
_atom_site_fract_z
Si Si1 0.867215 0.833483 0.102554
Si Si2 0.000000 0.656498 0.750000
Si Si3 0.436327 0.813195 0.890607
Si Si4 0.407848 0.452657 0.669312
Si Si5 0.794392 0.475537 0.525935
O O1 0.688112 0.792521 0.164306
O O2 0.923835 0.760487 0.147031
O O3 0.836961 0.949950 0.157606
O O4 0.037370 0.855682 0.926410
O O5 0.072450 0.592717 0.618652
O O6 0.500000 0.842647 0.750000
O O7 0.250000 0.750000 0.000000
O O8 0.387367 0.914536 0.976090
O O9 0.603283 0.485630 0.590548
O O10 0.266641 0.434477 0.839055
#
# Coordination Sequence:
#
# PCOD9267137 Si02
#       5
#     8   4   8   8   8
#     4  10  21  38  61  98 140 177 225 280 340 401
#     4  10  22  40  64  96 142 180 226 274 332 428
#     4  12  23  38  67 106 139 173 222 295 343 390
#     4   9  19  37  64  92 135 178 224 282 330 408
#     4  10  19  38  66 100 130 178 228 279 345 398
#
# _framework density 25.498131999999998
#
# number of rings (size 3 to 8) (size 9 to 14) (size 15 to 20)
#    0.000    1.778    3.333    1.333    0.000    0.889 
#    0.000    2.222    0.000    5.333    2.889    0.000 
#    0.000    2.000    0.000    0.000    0.000    0.000 
#
# Total GULP energy -100907.742895 kJ/mol
# GULP energy per Si atom -5605.985716 kJ/mol
# Density = 2.544010 g / cm^3
# Si number density = 25.498132 Si / 1000 Ang^3
#
#
#
# Elastic Constant Matrix: (Units=GPa)
#
#
# Indices 1 2 3 4 5 6 
#
# 1 124.9025 27.0918 36.8266 -0.0001 -19.9869 0.0000
# 2 27.0918 97.3393 49.2376 0.0000 1.6255 0.0000
# 3 36.8266 49.2376 190.7000 -0.0001 26.3729 0.0001
# 4 -0.0001 0.0000 -0.0001 20.4234 0.0001 3.5901
# 5 -19.9869 1.6255 26.3729 0.0001 48.6911 -0.0001
# 6 0.0000 0.0000 0.0001 3.5901 -0.0001 4.6091
#
#
#
# Elastic Compliance Matrix: (Units=1/GPa)
#
#
# Indices 1 2 3 4 5 6 
#
# 1 0.009876 -0.001727 -0.002194 0.000000 0.005300 0.000000
# 2 -0.001727 0.012203 -0.002878 0.000000 0.000443 0.000000
# 3 -0.002194 -0.002878 0.007050 0.000000 -0.004623 0.000000
# 4 0.000000 0.000000 0.000000 0.056731 0.000000 -0.044189
# 5 0.005300 0.000443 -0.004623 0.000000 0.025203 0.000001
# 6 0.000000 0.000000 0.000000 -0.044189 0.000001 0.251380
#
#
# Mechanical properties :
#
#
# Convention : Reuss Voigt Hill
#
# Bulk Modulus (GPa) = 64.39515 71.02822 67.71168
# Shear Modulus (GPa) = 13.11585 34.73043 23.92314
#
# Velocity S-wave (km/s) = 2.27047 3.69464 3.06638
# Velocity P-wave (km/s) = 5.67301 6.79096 6.25700
#
# Compressibility (1/GPa) = 0.01552912
#
# Stress axis : x y z
#
# Youngs Moduli (GPa) = 101.25602 81.94943 141.84251
#
# Poissons Ratio (x) = 0.14155 0.31122
# Poissons Ratio (y) = 0.17490 0.40826
# Poissons Ratio (z) = 0.22217 0.23587
#
# Static dielectric constant tensor:
#      x y z
#    x 2.120710 0.000000 -0.004480 
#    y 0.000000 1.946250 0.000000 
#    z -0.004480 0.000000 2.008100 
# 
# From -- ./inp_files/144013.got.cif
#   From: 2010.05.17/outbox.cif.g08.bks.cpg/sg15_73_cif.got.tgz:144013.got - 2010.06.03 18:47:42.
