data_PCOD9267407
_publ_section_title
;
Structure prediction by ZEFSAII (Michael W. Deem and Ramdas Pophale) SiO2 
 PCOD9267407
Probable space group: C 2/C
;
_chemical_formula_sum "Si O2"
_cell_formula_units_Z 44
_cell_length_a 11.261799
_cell_length_b 12.559328
_cell_length_c 21.262487
_cell_angle_alpha 90.000000
_cell_angle_beta 144.486428
_cell_angle_gamma 90.000000
_cell_volume 1746.974074
_symmetry_space_group_name_H-M "C 2/C"
_symmetry_group_IT_number 15
_symmetry_cell_setting 'monoclinic'
loop_
_space_group_symop_operation_xyz
x,y,z
-x,y,1/2-z
-x,-y,-z
x,-y,1/2+z
1/2+x,1/2+y,z
1/2-x,1/2+y,1/2-z
1/2-x,1/2-y,-z
1/2+x,1/2-y,1/2+z
loop_
_atom_site_type_symbol
_atom_site_label
_atom_site_fract_x
_atom_site_fract_y
_atom_site_fract_z
Si Si1 0.412616 0.639633 0.649012
Si Si2 0.000000 0.500000 0.000000
Si Si3 0.005937 0.153186 0.954987
Si Si4 0.656533 0.417777 0.745048
Si Si5 0.280123 0.948796 0.666763
Si Si6 0.276390 0.163748 0.423364
O O1 0.500000 0.693936 0.750000
O O2 0.183705 0.595568 0.560462
O O3 0.452200 0.691758 0.597740
O O4 0.551162 0.531863 0.703798
O O5 0.089011 0.583397 0.978857
O O6 0.867965 0.227327 0.940417
O O7 0.884588 0.042522 0.899238
O O8 0.211537 0.129075 0.081701
O O9 0.772747 0.395824 0.731923
O O10 0.462886 0.336883 0.665191
O O11 0.796680 0.413210 0.868346
O O12 0.500000 0.996003 0.750000
#
# Coordination Sequence:
#
# PCOD9267407 Si02
#       6
#     8   4   8   8   8   8
#     4  10  19  39  62  92 126 173 225 270 318 394
#     4  10  20  36  66  86 124 176 210 280 328 360
#     4  10  24  40  63  99 132 173 227 271 332 403
#     4   9  19  40  65  87 124 172 227 261 323 396
#     4  10  23  43  63  92 138 176 208 277 341 388
#     4  10  20  40  65  94 123 171 227 277 314 395
#
# _framework density 25.186406000000002
#
# number of rings (size 3 to 8) (size 9 to 14) (size 15 to 20)
#    0.000    2.182    3.636    0.000    5.091    1.455 
#    3.273    0.000    0.000    0.000    0.000    0.000 
#    0.000    0.000    0.000    0.000    0.000    0.000 
#
# Total GULP energy -122506.057243 kJ/mol
# GULP energy per Si atom -5568.457147 kJ/mol
# Density = 2.512908 g / cm^3
# Si number density = 25.186406 Si / 1000 Ang^3
#
#
#
# Elastic Constant Matrix: (Units=GPa)
#
#
# Indices 1 2 3 4 5 6 
#
# 1 110.7202 1.6674 57.0480 0.0000 -5.7025 0.0000
# 2 1.6674 37.5482 12.3225 0.0000 -8.7225 0.0000
# 3 57.0480 12.3225 98.6990 0.0003 13.8961 0.0000
# 4 0.0000 0.0000 0.0003 25.8679 0.0000 3.5423
# 5 -5.7025 -8.7225 13.8961 0.0000 35.6349 0.0000
# 6 0.0000 0.0000 0.0000 3.5423 0.0000 19.1059
#
#
#
# Elastic Compliance Matrix: (Units=1/GPa)
#
#
# Indices 1 2 3 4 5 6 
#
# 1 0.014438 0.004283 -0.009896 0.000000 0.007218 0.000000
# 2 0.004283 0.031793 -0.008081 0.000000 0.011619 0.000000
# 3 -0.009896 -0.008081 0.018371 0.000000 -0.010725 0.000000
# 4 0.000000 0.000000 0.000000 0.039665 0.000000 -0.007354
# 5 0.007218 0.011619 -0.010725 0.000000 0.036244 0.000000
# 6 0.000000 0.000000 0.000000 -0.007354 0.000000 0.053703
#
#
# Mechanical properties :
#
#
# Convention : Reuss Voigt Hill
#
# Bulk Modulus (GPa) = 26.87133 43.22700 35.04916
# Shear Modulus (GPa) = 21.36692 27.85037 24.60864
#
# Velocity S-wave (km/s) = 2.91581 3.32892 3.12919
# Velocity P-wave (km/s) = 4.69340 5.65471 5.19633
#
# Compressibility (1/GPa) = 0.03721439
#
# Stress axis : x y z
#
# Youngs Moduli (GPa) = 69.26187 31.45322 54.43438
#
# Poissons Ratio (x) = -0.13472 0.53869
# Poissons Ratio (y) = -0.29667 0.43988
# Poissons Ratio (z) = 0.68542 0.25417
#
# Static dielectric constant tensor:
#      x y z
#    x 2.011630 0.000000 -0.011380 
#    y 0.000000 2.189790 0.000000 
#    z -0.011380 0.000000 2.253140 
# 
# From -- ./inp_files/269801.got.cif
#   From: 2010.05.17/outbox.cif.g08.bks.cpg/sg15_135_cif.got.tgz:269801.got - 2010.06.03 18:47:42.
