data_PCOD9267411
_publ_section_title
;
Structure prediction by ZEFSAII (Michael W. Deem and Ramdas Pophale) SiO2 
 PCOD9267411
Probable space group: C 2/C
;
_chemical_formula_sum "Si O2"
_cell_formula_units_Z 48
_cell_length_a 22.712027
_cell_length_b 12.833562
_cell_length_c 13.722884
_cell_angle_alpha 90.000000
_cell_angle_beta 36.542582
_cell_angle_gamma 90.000000
_cell_volume 2381.617171
_symmetry_space_group_name_H-M "C 2/C"
_symmetry_group_IT_number 15
_symmetry_cell_setting 'monoclinic'
loop_
_space_group_symop_operation_xyz
x,y,z
-x,y,1/2-z
-x,-y,-z
x,-y,1/2+z
1/2+x,1/2+y,z
1/2-x,1/2+y,1/2-z
1/2-x,1/2-y,-z
1/2+x,1/2-y,1/2+z
loop_
_atom_site_type_symbol
_atom_site_label
_atom_site_fract_x
_atom_site_fract_y
_atom_site_fract_z
Si Si1 0.925780 0.800859 0.000206
Si Si2 0.000000 0.025632 0.250000
Si Si3 0.471805 0.167191 0.482784
Si Si4 0.616072 0.008420 0.742224
Si Si5 0.000000 0.631794 0.750000
Si Si6 0.804145 0.910441 0.461702
Si Si7 0.223399 0.699371 0.880883
O O1 0.949290 0.704406 0.897577
O O2 0.959154 0.900937 0.892573
O O3 0.990917 0.770852 0.010170
O O4 0.811416 0.800473 0.184240
O O5 0.914210 0.952958 0.320666
O O6 0.567071 0.106135 0.314555
O O7 0.384241 0.179992 0.522063
O O8 0.427575 0.085212 0.619123
O O9 0.732234 0.999475 0.598083
O O10 0.582850 0.059109 0.685965
O O11 0.788193 0.809703 0.549736
O O12 0.762031 0.881322 0.411285
#
# Coordination Sequence:
#
# PCOD9267411 Si02
#       7
#     8   4   8   8   4   8   8
#     4  10  22  44  61  95 130 169 206 260 326 384
#     4  11  26  44  65  94 136 168 215 258 324 399
#     4  10  21  38  67  90 123 164 208 265 316 368
#     4  10  19  39  62  96 118 157 218 261 305 378
#     4   9  20  36  69  90 126 160 207 270 316 365
#     4  11  25  41  61  92 126 166 214 258 317 380
#     4  11  24  41  63  89 128 167 209 261 318 378
#
# _framework density 20.154371999999999
#
# number of rings (size 3 to 8) (size 9 to 14) (size 15 to 20)
#    0.000    1.667    1.667    2.000    2.333    2.000 
#    6.000    5.000    0.000    0.000    0.000    0.000 
#    0.000    0.000    0.000    0.000    0.000    0.000 
#
# Total GULP energy -133975.756296 kJ/mol
# GULP energy per Si atom -5582.323179 kJ/mol
# Density = 2.010850 g / cm^3
# Si number density = 20.154372 Si / 1000 Ang^3
#
#
#
# Elastic Constant Matrix: (Units=GPa)
#
#
# Indices 1 2 3 4 5 6 
#
# 1 111.9630 27.6103 24.7842 0.0000 -22.8813 0.0000
# 2 27.6103 58.6938 15.8245 0.0000 -1.3857 0.0000
# 3 24.7842 15.8245 78.0705 0.0000 -5.8652 0.0000
# 4 0.0000 0.0000 0.0000 17.5882 0.0000 -12.5801
# 5 -22.8813 -1.3857 -5.8652 0.0000 30.6959 0.0000
# 6 0.0000 0.0000 0.0000 -12.5801 0.0000 24.2905
#
#
#
# Elastic Compliance Matrix: (Units=1/GPa)
#
#
# Indices 1 2 3 4 5 6 
#
# 1 0.012436 -0.005032 -0.002281 0.000000 0.008607 0.000000
# 2 -0.005032 0.020059 -0.002721 0.000000 -0.003365 0.000000
# 3 -0.002281 -0.002721 0.014151 0.000000 0.000880 0.000000
# 4 0.000000 0.000000 0.000000 0.090310 0.000000 0.046772
# 5 0.008607 -0.003365 0.000880 0.000000 0.039010 0.000000
# 6 0.000000 0.000000 0.000000 0.046772 0.000000 0.065392
#
#
# Mechanical properties :
#
#
# Convention : Reuss Voigt Hill
#
# Bulk Modulus (GPa) = 37.62657 42.79615 40.21136
# Shear Modulus (GPa) = 18.49891 26.54881 22.52386
#
# Velocity S-wave (km/s) = 3.03291 3.63336 3.34663
# Velocity P-wave (km/s) = 5.56547 6.23555 5.91001
#
# Compressibility (1/GPa) = 0.02657696
#
# Stress axis : x y z
#
# Youngs Moduli (GPa) = 80.40867 49.85326 70.66679
#
# Poissons Ratio (x) = 0.25086 0.16123
# Poissons Ratio (y) = 0.40461 0.19230
# Poissons Ratio (z) = 0.18345 0.13566
#
# Static dielectric constant tensor:
#      x y z
#    x 1.751870 0.000000 0.011410 
#    y 0.000000 1.700200 0.000000 
#    z 0.011410 0.000000 1.741760 
# 
# From -- ./inp_files/97217.got.cif
#   From: 2010.05.17/outbox.cif.g08.bks.cpg/sg15_49_cif.got.tgz:97217.got - 2010.06.03 18:47:42.
