data_PCOD9267362
_publ_section_title
;
Structure prediction by ZEFSAII (Michael W. Deem and Ramdas Pophale) SiO2 
 PCOD9267362
Probable space group: C 2/C
;
_chemical_formula_sum "Si O2"
_cell_formula_units_Z 56
_cell_length_a 11.674051
_cell_length_b 13.850252
_cell_length_c 28.988550
_cell_angle_alpha 90.000000
_cell_angle_beta 39.345173
_cell_angle_gamma 90.000000
_cell_volume 2971.588710
_symmetry_space_group_name_H-M "C 2/C"
_symmetry_group_IT_number 15
_symmetry_cell_setting 'monoclinic'
loop_
_space_group_symop_operation_xyz
x,y,z
-x,y,1/2-z
-x,-y,-z
x,-y,1/2+z
1/2+x,1/2+y,z
1/2-x,1/2+y,1/2-z
1/2-x,1/2-y,-z
1/2+x,1/2-y,1/2+z
loop_
_atom_site_type_symbol
_atom_site_label
_atom_site_fract_x
_atom_site_fract_y
_atom_site_fract_z
Si Si1 0.782298 0.158910 0.349772
Si Si2 0.528229 0.613876 0.859646
Si Si3 0.909576 0.471088 0.410285
Si Si4 0.799273 0.475621 0.543392
Si Si5 0.411756 0.806032 0.924805
Si Si6 0.340523 0.120892 0.833440
Si Si7 0.671543 0.516645 0.725316
O O1 0.803105 0.091011 0.387592
O O2 0.567965 0.176852 0.413528
O O3 0.867304 0.263376 0.328370
O O4 0.826636 0.097534 0.289390
O O5 0.329763 0.567916 0.922029
O O6 0.499701 0.728864 0.861766
O O7 0.647619 0.603587 0.868767
O O8 0.637544 0.555950 0.786732
O O9 0.818028 0.434499 0.485908
O O10 0.872809 0.586955 0.418284
O O11 0.851656 0.422963 0.380732
O O12 0.124689 0.454699 0.350908
O O13 0.000000 0.500000 0.500000
O O14 0.250000 0.750000 0.000000
O O15 0.500000 0.083685 0.750000
O O16 0.500000 0.556368 0.750000
#
# Coordination Sequence:
#
# PCOD9267362 Si02
#       7
#     8   8   8   8   8   8   8
#     4  10  22  36  66  89 121 162 208 254 318 362
#     4  11  22  37  66  91 122 162 213 246 309 374
#     4  11  23  39  66  88 131 161 204 259 312 362
#     4  12  20  39  67  96 120 159 210 270 300 363
#     4  10  19  39  61  89 120 167 202 245 315 375
#     4  11  24  42  60  89 128 172 200 252 315 379
#     4  11  19  37  64  93 116 159 214 257 299 364
#
# _framework density 18.845137000000001
#
# number of rings (size 3 to 8) (size 9 to 14) (size 15 to 20)
#    0.000    1.143    7.143    0.429    0.000    1.143 
#    0.000    0.714    6.286    0.000    0.000    0.000 
#    0.000    0.000    0.000    0.000    0.000    0.000 
#
# Total GULP energy -155921.549936 kJ/mol
# GULP energy per Si atom -5568.626783 kJ/mol
# Density = 1.880224 g / cm^3
# Si number density = 18.845137 Si / 1000 Ang^3
#
#
#
# Elastic Constant Matrix: (Units=GPa)
#
#
# Indices 1 2 3 4 5 6 
#
# 1 91.7272 47.4688 20.9877 0.0001 14.1958 0.0000
# 2 47.4688 101.1619 46.3503 -0.0001 21.8714 0.0000
# 3 20.9877 46.3503 84.8257 -0.0004 19.5674 0.0000
# 4 0.0001 -0.0001 -0.0004 25.8442 0.0000 5.9675
# 5 14.1958 21.8714 19.5674 0.0000 40.5076 0.0000
# 6 0.0000 0.0000 0.0000 5.9675 0.0000 32.0863
#
#
#
# Elastic Compliance Matrix: (Units=1/GPa)
#
#
# Indices 1 2 3 4 5 6 
#
# 1 0.014500 -0.006631 0.000430 0.000000 -0.001709 0.000000
# 2 -0.006631 0.016852 -0.006758 0.000000 -0.003511 0.000000
# 3 0.000430 -0.006758 0.016395 0.000000 -0.004422 0.000000
# 4 0.000000 0.000000 0.000000 0.040430 0.000000 -0.007519
# 5 -0.001709 -0.003511 -0.004422 0.000000 0.029317 0.000000
# 6 0.000000 0.000000 0.000000 -0.007519 0.000000 0.032564
#
#
# Mechanical properties :
#
#
# Convention : Reuss Voigt Hill
#
# Bulk Modulus (GPa) = 45.81108 56.36982 51.09045
# Shear Modulus (GPa) = 27.28483 30.54814 28.91648
#
# Velocity S-wave (km/s) = 3.80918 4.03054 3.92143
# Velocity P-wave (km/s) = 6.61124 7.18592 6.90456
#
# Compressibility (1/GPa) = 0.02182878
#
# Stress axis : x y z
#
# Youngs Moduli (GPa) = 68.96708 59.33975 60.99423
#
# Poissons Ratio (x) = 0.39351 -0.02624
# Poissons Ratio (y) = 0.45735 0.41218
# Poissons Ratio (z) = -0.02967 0.40100
#
# Static dielectric constant tensor:
#      x y z
#    x 1.657000 0.000000 -0.039410 
#    y 0.000000 1.673280 0.000000 
#    z -0.039410 0.000000 1.737460 
# 
# From -- ./inp_files/292824.got.cif
#   From: 2010.05.17/outbox.cif.g08.bks.cpg/sg15_147_cif.got.tgz:292824.got - 2010.06.03 18:47:42.
