data_PCOD9267680
_publ_section_title
;
Structure prediction by ZEFSAII (Michael W. Deem and Ramdas Pophale) SiO2 
 PCOD9267680
Probable space group: C 2/C
;
_chemical_formula_sum "Si O2"
_cell_formula_units_Z 48
_cell_length_a 14.249972
_cell_length_b 12.440488
_cell_length_c 11.214916
_cell_angle_alpha 90.000000
_cell_angle_beta 76.339039
_cell_angle_gamma 90.000000
_cell_volume 1931.898227
_symmetry_space_group_name_H-M "C 2/C"
_symmetry_group_IT_number 15
_symmetry_cell_setting 'monoclinic'
loop_
_space_group_symop_operation_xyz
x,y,z
-x,y,1/2-z
-x,-y,-z
x,-y,1/2+z
1/2+x,1/2+y,z
1/2-x,1/2+y,1/2-z
1/2-x,1/2-y,-z
1/2+x,1/2-y,1/2+z
loop_
_atom_site_type_symbol
_atom_site_label
_atom_site_fract_x
_atom_site_fract_y
_atom_site_fract_z
Si Si1 0.796049 0.154941 0.762328
Si Si2 0.614876 0.342293 0.504387
Si Si3 0.754154 0.021494 0.007004
Si Si4 0.904636 0.671485 0.364865
Si Si5 0.103135 0.323329 0.197857
Si Si6 0.410234 0.657032 0.086157
O O1 0.878667 0.152345 0.639300
O O2 0.818490 0.270519 0.815650
O O3 0.699922 0.124189 0.716574
O O4 0.788099 0.078514 0.875967
O O5 0.709930 0.400566 0.524098
O O6 0.608762 0.224242 0.563932
O O7 0.514702 0.396570 0.569220
O O8 0.645492 0.061337 0.070576
O O9 0.828168 0.072037 0.081293
O O10 0.917152 0.752391 0.476317
O O11 0.000000 0.661205 0.250000
O O12 0.103650 0.220637 0.287085
O O13 0.000000 0.378790 0.250000
#
# Coordination Sequence:
#
# PCOD9267680 Si02
#       6
#     8   8   8   8   8   8
#     4  11  21  40  64  86 128 168 223 256 313 400
#     4  11  24  36  60  96 129 165 208 272 333 364
#     4  11  23  37  62  94 133 165 206 280 323 362
#     4  11  20  39  69  91 122 175 222 255 307 396
#     4  10  21  39  63  87 120 168 217 261 315 384
#     4  10  19  40  60  91 128 165 210 261 316 391
#
# _framework density 24.846029999999999
#
# number of rings (size 3 to 8) (size 9 to 14) (size 15 to 20)
#    0.000    1.333    5.000    2.000    2.333    0.000 
#    3.000    0.833    0.000    3.000    0.000    0.000 
#    0.000    0.000    0.000    0.000    0.000    0.000 
#
# Total GULP energy -133815.839021 kJ/mol
# GULP energy per Si atom -5575.659959 kJ/mol
# Density = 2.478948 g / cm^3
# Si number density = 24.846030 Si / 1000 Ang^3
#
#
#
# Elastic Constant Matrix: (Units=GPa)
#
#
# Indices 1 2 3 4 5 6 
#
# 1 108.2113 10.3735 0.6643 0.0000 -6.7403 0.0000
# 2 10.3735 27.7057 2.0091 0.0000 -18.6599 0.0000
# 3 0.6643 2.0091 97.5223 0.0000 -13.3903 0.0000
# 4 0.0000 0.0000 0.0000 18.0103 0.0000 -6.4364
# 5 -6.7403 -18.6599 -13.3903 0.0000 27.7027 0.0000
# 6 0.0000 0.0000 0.0000 -6.4364 0.0000 26.9293
#
#
#
# Elastic Compliance Matrix: (Units=1/GPa)
#
#
# Indices 1 2 3 4 5 6 
#
# 1 0.009586 -0.003700 -0.000012 0.000000 -0.000165 0.000000
# 2 -0.003700 0.069934 0.005279 0.000000 0.048758 0.000000
# 3 -0.000012 0.005279 0.011389 0.000000 0.009058 0.000000
# 4 0.000000 0.000000 0.000000 0.060709 0.000000 0.014510
# 5 -0.000165 0.048758 0.009058 0.000000 0.073278 0.000000
# 6 0.000000 0.000000 0.000000 0.014510 0.000000 0.040602
#
#
# Mechanical properties :
#
#
# Convention : Reuss Voigt Hill
#
# Bulk Modulus (GPa) = 10.63324 28.83702 19.73513
# Shear Modulus (GPa) = 17.02354 29.22128 23.12241
#
# Velocity S-wave (km/s) = 2.62040 3.43314 3.05393
# Velocity P-wave (km/s) = 3.66664 5.22942 4.51614
#
# Compressibility (1/GPa) = 0.09404471
#
# Stress axis : x y z
#
# Youngs Moduli (GPa) = 104.32315 14.29913 87.80324
#
# Poissons Ratio (x) = 0.05290 0.00103
# Poissons Ratio (y) = 0.38594 -0.46352
# Poissons Ratio (z) = 0.00123 -0.07549
#
# Static dielectric constant tensor:
#      x y z
#    x 1.996000 0.000000 -0.048440 
#    y 0.000000 2.039660 0.000000 
#    z -0.048440 0.000000 2.051250 
# 
# From -- ./inp_files/96170.got.cif
#   From: 2010.05.17/outbox.cif.g08.bks.cpg/sg15_49_cif.got.tgz:96170.got - 2010.06.03 18:47:42.
