data_PCOD9267844
_publ_section_title
;
Structure prediction by ZEFSAII (Michael W. Deem and Ramdas Pophale) SiO2 
 PCOD9267844
Probable space group: C 2/C
;
_chemical_formula_sum "Si O2"
_cell_formula_units_Z 52
_cell_length_a 14.182147
_cell_length_b 19.155042
_cell_length_c 9.006489
_cell_angle_alpha 90.000000
_cell_angle_beta 97.867723
_cell_angle_gamma 90.000000
_cell_volume 2423.667960
_symmetry_space_group_name_H-M "C 2/C"
_symmetry_group_IT_number 15
_symmetry_cell_setting 'monoclinic'
loop_
_space_group_symop_operation_xyz
x,y,z
-x,y,1/2-z
-x,-y,-z
x,-y,1/2+z
1/2+x,1/2+y,z
1/2-x,1/2+y,1/2-z
1/2-x,1/2-y,-z
1/2+x,1/2-y,1/2+z
loop_
_atom_site_type_symbol
_atom_site_label
_atom_site_fract_x
_atom_site_fract_y
_atom_site_fract_z
Si Si1 0.396455 0.167393 0.798054
Si Si2 0.500000 0.526682 0.750000
Si Si3 0.702268 0.314696 0.745485
Si Si4 0.099838 0.862374 0.431052
Si Si5 0.179094 0.943023 0.912357
Si Si6 0.253525 0.556153 0.750801
Si Si7 0.408106 0.199782 0.142989
O O1 0.500000 0.172200 0.750000
O O2 0.337993 0.237254 0.745063
O O3 0.340039 0.099429 0.733431
O O4 0.400899 0.167013 0.978036
O O5 0.511876 0.584363 0.887232
O O6 0.585455 0.475322 0.814732
O O7 0.640689 0.354324 0.604852
O O8 0.689686 0.361290 0.887915
O O9 0.809949 0.311377 0.709768
O O10 0.181612 0.894713 0.342150
O O11 0.079846 0.783264 0.379001
O O12 0.261530 0.984799 0.841636
O O13 0.190251 0.960113 0.086469
O O14 0.500000 0.173529 0.250000
#
# Coordination Sequence:
#
# PCOD9267844 Si02
#       7
#     8   4   8   8   8   8   8
#     4  11  25  44  70 101 140 179 236 286 338 408
#     4  10  22  40  62 104 130 174 220 274 340 426
#     4  11  23  44  67 102 141 180 220 288 346 417
#     4  10  19  40  67  92 138 177 213 269 348 411
#     4  11  26  39  68  96 140 179 228 283 351 407
#     4  11  23  45  64  96 135 187 222 282 344 405
#     4  11  22  41  71 102 131 180 230 276 340 415
#
# _framework density 21.455085
#
# number of rings (size 3 to 8) (size 9 to 14) (size 15 to 20)
#    0.000    1.231    3.846    2.769    3.231    7.385 
#    0.000    1.538    0.000    0.000    0.000    0.000 
#    0.000    0.000    0.000    0.000    0.000    0.000 
#
# Total GULP energy -145227.483356 kJ/mol
# GULP energy per Si atom -5585.672437 kJ/mol
# Density = 2.140625 g / cm^3
# Si number density = 21.455085 Si / 1000 Ang^3
#
#
#
# Elastic Constant Matrix: (Units=GPa)
#
#
# Indices 1 2 3 4 5 6 
#
# 1 80.2285 12.3728 -10.9863 0.0000 10.7284 0.0000
# 2 12.3728 61.2582 8.8758 0.0000 15.6216 0.0000
# 3 -10.9863 8.8758 34.3078 0.0000 7.1222 0.0000
# 4 0.0000 0.0000 0.0000 25.0234 0.0000 0.1365
# 5 10.7284 15.6216 7.1222 0.0000 23.0154 0.0000
# 6 0.0000 0.0000 0.0000 0.1365 0.0000 31.7186
#
#
#
# Elastic Compliance Matrix: (Units=1/GPa)
#
#
# Indices 1 2 3 4 5 6 
#
# 1 0.014726 -0.002024 0.006817 0.000000 -0.007600 0.000000
# 2 -0.002024 0.020220 -0.003447 0.000000 -0.011714 0.000000
# 3 0.006817 -0.003447 0.034621 0.000000 -0.011551 0.000000
# 4 0.000000 0.000000 0.000000 0.039964 0.000000 -0.000172
# 5 -0.007600 -0.011714 -0.011551 0.000000 0.058518 0.000000
# 6 0.000000 0.000000 0.000000 -0.000172 0.000000 0.031528
#
#
# Mechanical properties :
#
#
# Convention : Reuss Voigt Hill
#
# Bulk Modulus (GPa) = 13.83914 21.81324 17.82619
# Shear Modulus (GPa) = 22.62743 26.98695 24.80719
#
# Velocity S-wave (km/s) = 3.25105 3.55044 3.40404
# Velocity P-wave (km/s) = 4.53395 5.19582 4.87613
#
# Compressibility (1/GPa) = 0.07225883
#
# Stress axis : x y z
#
# Youngs Moduli (GPa) = 67.90516 49.45637 28.88431
#
# Poissons Ratio (x) = 0.10010 -0.19691
# Poissons Ratio (y) = 0.13744 0.09958
# Poissons Ratio (z) = -0.46293 0.17050
#
# Static dielectric constant tensor:
#      x y z
#    x 1.820150 0.000000 0.009240 
#    y 0.000000 1.765960 0.000000 
#    z 0.009240 0.000000 1.784790 
# 
# From -- ./inp_files/40884.got.cif
#   From: 2010.05.17/outbox.cif.g08.bks.cpg/sg15_21_cif.got.tgz:40884.got - 2010.06.03 18:47:42.
