data_PCOD9267524
_publ_section_title
;
Structure prediction by ZEFSAII (Michael W. Deem and Ramdas Pophale) SiO2 
 PCOD9267524
Probable space group: C 2/C
;
_chemical_formula_sum "Si O2"
_cell_formula_units_Z 56
_cell_length_a 15.362483
_cell_length_b 9.676063
_cell_length_c 25.238250
_cell_angle_alpha 90.000000
_cell_angle_beta 129.274210
_cell_angle_gamma 90.000000
_cell_volume 2904.227023
_symmetry_space_group_name_H-M "C 2/C"
_symmetry_group_IT_number 15
_symmetry_cell_setting 'monoclinic'
loop_
_space_group_symop_operation_xyz
x,y,z
-x,y,1/2-z
-x,-y,-z
x,-y,1/2+z
1/2+x,1/2+y,z
1/2-x,1/2+y,1/2-z
1/2-x,1/2-y,-z
1/2+x,1/2-y,1/2+z
loop_
_atom_site_type_symbol
_atom_site_label
_atom_site_fract_x
_atom_site_fract_y
_atom_site_fract_z
Si Si1 0.782551 0.213604 0.643892
Si Si2 0.643062 0.099911 0.187235
Si Si3 0.548325 0.480339 0.827820
Si Si4 0.447042 0.100912 0.936673
Si Si5 0.431218 0.028467 0.172295
Si Si6 0.870594 0.279662 0.072876
Si Si7 0.676631 0.612818 0.720790
O O1 0.651547 0.199388 0.579552
O O2 0.839479 0.359015 0.653363
O O3 0.797379 0.182701 0.712061
O O4 0.853961 0.093094 0.642857
O O5 0.682871 0.252630 0.186323
O O6 0.615305 0.005095 0.126762
O O7 0.528184 0.106986 0.176115
O O8 0.735970 0.010449 0.254603
O O9 0.500000 0.446892 0.750000
O O10 0.591873 0.349412 0.876749
O O11 0.446073 0.548031 0.821027
O O12 0.538992 0.185150 0.938439
O O13 0.500000 0.000000 0.000000
O O14 0.500000 0.973054 0.250000
O O15 0.377321 0.910993 0.114986
O O16 0.750000 0.250000 0.000000
#
# Coordination Sequence:
#
# PCOD9267524 Si02
#       7
#     8   8   8   8   8   8   8
#     4  10  19  39  65  88 121 157 201 252 305 368
#     4  10  21  36  61  91 120 159 198 256 306 365
#     4  10  20  38  64  90 122 159 199 251 312 362
#     4  10  23  43  62  83 124 168 204 247 308 369
#     4  11  20  39  65  93 120 156 209 259 308 366
#     4  11  25  42  59  89 126 160 205 256 307 371
#     4  10  20  35  59  93 126 152 199 254 308 362
#
# _framework density 19.282240000000002
#
# number of rings (size 3 to 8) (size 9 to 14) (size 15 to 20)
#    0.000    1.714    2.857    1.714    6.000    0.000 
#    7.714    2.857    0.000    0.000    0.000    0.000 
#    0.000    0.000    0.000    0.000    0.000    0.000 
#
# Total GULP energy -156267.540382 kJ/mol
# GULP energy per Si atom -5580.983585 kJ/mol
# Density = 1.923835 g / cm^3
# Si number density = 19.282240 Si / 1000 Ang^3
#
#
#
# Elastic Constant Matrix: (Units=GPa)
#
#
# Indices 1 2 3 4 5 6 
#
# 1 86.2302 57.6637 52.0699 0.0000 24.1164 0.0000
# 2 57.6637 132.7949 68.3612 0.0000 23.3180 0.0000
# 3 52.0699 68.3612 103.6904 0.0000 24.7654 0.0000
# 4 0.0000 0.0000 0.0000 28.8550 0.0000 6.8587
# 5 24.1164 23.3180 24.7654 0.0000 25.8908 0.0000
# 6 0.0000 0.0000 0.0000 6.8587 0.0000 28.1500
#
#
#
# Elastic Compliance Matrix: (Units=1/GPa)
#
#
# Indices 1 2 3 4 5 6 
#
# 1 0.020446 -0.004615 -0.004755 0.000000 -0.010340 0.000000
# 2 -0.004615 0.012768 -0.005677 0.000000 -0.001770 0.000000
# 3 -0.004755 -0.005677 0.017492 0.000000 -0.007189 0.000000
# 4 0.000000 0.000000 0.000000 0.036787 0.000000 -0.008963
# 5 -0.010340 -0.001770 -0.007189 0.000000 0.056726 0.000000
# 6 0.000000 0.000000 0.000000 -0.008963 0.000000 0.037708
#
#
# Mechanical properties :
#
#
# Convention : Reuss Voigt Hill
#
# Bulk Modulus (GPa) = 48.51777 75.43392 61.97585
# Shear Modulus (GPa) = 22.84234 26.22053 24.53144
#
# Velocity S-wave (km/s) = 3.44558 3.69159 3.57070
# Velocity P-wave (km/s) = 6.40671 7.57471 7.01506
#
# Compressibility (1/GPa) = 0.02061101
#
# Stress axis : x y z
#
# Youngs Moduli (GPa) = 48.90889 78.32254 57.16840
#
# Poissons Ratio (x) = 0.36143 0.27186
# Poissons Ratio (y) = 0.22570 0.32457
# Poissons Ratio (z) = 0.23258 0.44467
#
# Static dielectric constant tensor:
#      x y z
#    x 1.693090 0.000000 -0.003390 
#    y 0.000000 1.701890 0.000000 
#    z -0.003390 0.000000 1.688380 
# 
# From -- ./inp_files/312940.got.cif
#   From: 2010.05.17/outbox.cif.g08.bks.cpg/sg15_157_cif.got.tgz:312940.got - 2010.06.03 18:47:42.
