data_PCOD9267648
_publ_section_title
;
Structure prediction by ZEFSAII (Michael W. Deem and Ramdas Pophale) SiO2 
 PCOD9267648
Probable space group: C 2/C
;
_chemical_formula_sum "Si O2"
_cell_formula_units_Z 40
_cell_length_a 8.954507
_cell_length_b 13.975139
_cell_length_c 17.138594
_cell_angle_alpha 90.000000
_cell_angle_beta 58.862490
_cell_angle_gamma 90.000000
_cell_volume 1835.737657
_symmetry_space_group_name_H-M "C 2/C"
_symmetry_group_IT_number 15
_symmetry_cell_setting 'monoclinic'
loop_
_space_group_symop_operation_xyz
x,y,z
-x,y,1/2-z
-x,-y,-z
x,-y,1/2+z
1/2+x,1/2+y,z
1/2-x,1/2+y,1/2-z
1/2-x,1/2-y,-z
1/2+x,1/2-y,1/2+z
loop_
_atom_site_type_symbol
_atom_site_label
_atom_site_fract_x
_atom_site_fract_y
_atom_site_fract_z
Si Si1 0.681153 0.043587 0.921627
Si Si2 0.810566 0.527293 0.765154
Si Si3 0.506512 0.563098 0.074859
Si Si4 0.665939 0.220327 0.654455
Si Si5 0.028292 0.715106 0.523180
O O1 0.694119 0.033056 0.825844
O O2 0.646629 0.156680 0.949074
O O3 0.837145 0.985491 0.918850
O O4 0.500000 0.000000 0.000000
O O5 0.670645 0.451114 0.830307
O O6 0.763836 0.631569 0.814098
O O7 0.000000 0.505756 0.750000
O O8 0.514727 0.672740 0.046152
O O9 0.500000 0.500000 0.000000
O O10 0.500000 0.258992 0.750000
O O11 0.822439 0.289665 0.584422
O O12 0.595969 0.178584 0.590126
#
# Coordination Sequence:
#
# PCOD9267648 Si02
#       5
#     8   8   8   8   8
#     4  12  25  45  73 108 143 192 254 306 378 457
#     4  11  22  47  70 101 148 188 238 316 377 440
#     4  12  26  45  70 107 152 194 245 319 379 450
#     4  10  19  39  71  98 141 185 237 306 368 444
#     4  11  23  42  74 108 138 197 254 300 381 457
#
# _framework density 21.789605000000002
#
# number of rings (size 3 to 8) (size 9 to 14) (size 15 to 20)
#    0.000    0.800    6.000    4.200    0.000    4.000 
#    0.000    2.000    0.000    0.000    0.000    0.000 
#    0.000    0.000    0.000    0.000    0.000    0.000 
#
# Total GULP energy -111706.275353 kJ/mol
# GULP energy per Si atom -5585.313768 kJ/mol
# Density = 2.174001 g / cm^3
# Si number density = 21.789605 Si / 1000 Ang^3
#
#
#
# Elastic Constant Matrix: (Units=GPa)
#
#
# Indices 1 2 3 4 5 6 
#
# 1 104.8435 59.6773 40.0480 0.0000 -7.3602 0.0000
# 2 59.6773 135.6313 49.8271 0.0000 2.9211 0.0000
# 3 40.0480 49.8271 170.8168 0.0000 -11.8242 0.0000
# 4 0.0000 0.0000 0.0000 37.0007 0.0000 -3.3918
# 5 -7.3602 2.9211 -11.8242 0.0000 45.1864 0.0000
# 6 0.0000 0.0000 0.0000 -3.3918 0.0000 25.7318
#
#
#
# Elastic Compliance Matrix: (Units=1/GPa)
#
#
# Indices 1 2 3 4 5 6 
#
# 1 0.013283 -0.005378 -0.001397 0.000000 0.002146 0.000000
# 2 -0.005378 0.010498 -0.001944 0.000000 -0.002063 0.000000
# 3 -0.001397 -0.001944 0.006866 0.000000 0.001695 0.000000
# 4 0.000000 0.000000 0.000000 0.027357 0.000000 0.003606
# 5 0.002146 -0.002063 0.001695 0.000000 0.023057 0.000000
# 6 0.000000 0.000000 0.000000 0.003606 0.000000 0.039338
#
#
# Mechanical properties :
#
#
# Convention : Reuss Voigt Hill
#
# Bulk Modulus (GPa) = 75.70348 78.93293 77.31821
# Shear Modulus (GPa) = 35.15189 39.03306 37.09247
#
# Velocity S-wave (km/s) = 4.02087 4.23704 4.13037
# Velocity P-wave (km/s) = 7.50832 7.76147 7.63594
#
# Compressibility (1/GPa) = 0.01320943
#
# Stress axis : x y z
#
# Youngs Moduli (GPa) = 75.28283 95.25869 145.64036
#
# Poissons Ratio (x) = 0.51226 0.20347
# Poissons Ratio (y) = 0.40484 0.28316
# Poissons Ratio (z) = 0.10518 0.18521
#
# Static dielectric constant tensor:
#      x y z
#    x 1.657450 0.000000 0.209880 
#    y 0.000000 1.903920 0.000000 
#    z 0.209880 0.000000 1.407530 
# 
# From -- ./inp_files/133091.got.cif
#   From: 2010.05.17/outbox.cif.g08.bks.cpg/sg15_67_cif.got.tgz:133091.got - 2010.06.03 18:47:42.
