data_PCOD9267541
_publ_section_title
;
Structure prediction by ZEFSAII (Michael W. Deem and Ramdas Pophale) SiO2 
 PCOD9267541
Probable space group: C 2/C
;
_chemical_formula_sum "Si O2"
_cell_formula_units_Z 56
_cell_length_a 8.391538
_cell_length_b 24.645196
_cell_length_c 18.057032
_cell_angle_alpha 90.000000
_cell_angle_beta 49.203595
_cell_angle_gamma 90.000000
_cell_volume 2827.071369
_symmetry_space_group_name_H-M "C 2/C"
_symmetry_group_IT_number 15
_symmetry_cell_setting 'monoclinic'
loop_
_space_group_symop_operation_xyz
x,y,z
-x,y,1/2-z
-x,-y,-z
x,-y,1/2+z
1/2+x,1/2+y,z
1/2-x,1/2+y,1/2-z
1/2-x,1/2-y,-z
1/2+x,1/2-y,1/2+z
loop_
_atom_site_type_symbol
_atom_site_label
_atom_site_fract_x
_atom_site_fract_y
_atom_site_fract_z
Si Si1 0.879773 0.238113 0.210547
Si Si2 0.523731 0.539581 0.153043
Si Si3 0.003864 0.198029 0.620782
Si Si4 0.590568 0.417831 0.139064
Si Si5 0.981489 0.728105 0.522438
Si Si6 0.671663 0.878204 0.759627
Si Si7 0.567680 0.891831 0.960044
O O1 0.673021 0.275848 0.273933
O O2 0.005545 0.252475 0.098621
O O3 0.809007 0.175643 0.230739
O O4 0.000000 0.248840 0.250000
O O5 0.500000 0.539739 0.250000
O O6 0.531956 0.477174 0.126969
O O7 0.324463 0.573749 0.186594
O O8 0.739813 0.571273 0.071259
O O9 0.998888 0.133180 0.622197
O O10 0.967876 0.225440 0.552099
O O11 0.234716 0.214713 0.580135
O O12 0.500000 0.413153 0.250000
O O13 0.843979 0.411608 0.059562
O O14 0.097634 0.671371 0.471695
O O15 0.500000 0.866065 0.750000
O O16 0.568137 0.893211 0.870092
#
# Coordination Sequence:
#
# PCOD9267541 Si02
#       7
#     8   8   8   8   8   8   8
#     4  12  24  39  60  91 125 158 204 264 317 372
#     4   9  20  39  62  91 123 164 214 264 305 369
#     4  10  20  37  59  91 123 160 197 248 309 388
#     4  10  20  36  64  94 126 167 212 250 312 381
#     4  10  21  36  62  89 122 159 202 245 317 379
#     4  11  23  40  63  89 122 162 211 265 316 373
#     4  10  19  39  65  94 123 164 210 257 313 379
#
# _framework density 19.808484
#
# number of rings (size 3 to 8) (size 9 to 14) (size 15 to 20)
#    0.000    1.714    1.429    4.714    4.000    0.571 
#    0.000    1.429    0.000    0.000    0.000    0.000 
#    0.000    0.000    0.000    0.000    0.000    0.000 
#
# Total GULP energy -156492.540821 kJ/mol
# GULP energy per Si atom -5589.019315 kJ/mol
# Density = 1.976340 g / cm^3
# Si number density = 19.808484 Si / 1000 Ang^3
#
#
#
# Elastic Constant Matrix: (Units=GPa)
#
#
# Indices 1 2 3 4 5 6 
#
# 1 43.6984 31.1380 27.9637 0.0000 6.9208 0.0000
# 2 31.1380 157.0665 53.4083 0.0000 -13.7784 0.0000
# 3 27.9637 53.4083 123.5713 0.0000 -3.7532 0.0000
# 4 0.0000 0.0000 0.0000 29.0497 0.0000 -8.8889
# 5 6.9208 -13.7784 -3.7532 0.0000 28.7371 0.0000
# 6 0.0000 0.0000 0.0000 -8.8889 0.0000 16.2822
#
#
#
# Elastic Compliance Matrix: (Units=1/GPa)
#
#
# Indices 1 2 3 4 5 6 
#
# 1 0.031865 -0.005529 -0.005155 0.000000 -0.010998 0.000000
# 2 -0.005529 0.008722 -0.002360 0.000000 0.005205 0.000000
# 3 -0.005155 -0.002360 0.010324 0.000000 0.001458 0.000000
# 4 0.000000 0.000000 0.000000 0.041327 0.000000 0.022562
# 5 -0.010998 0.005205 0.001458 0.000000 0.040133 0.000000
# 6 0.000000 0.000000 0.000000 0.022562 0.000000 0.073734
#
#
# Mechanical properties :
#
#
# Convention : Reuss Voigt Hill
#
# Bulk Modulus (GPa) = 40.28835 61.03957 50.66396
# Shear Modulus (GPa) = 20.79276 28.93553 24.86414
#
# Velocity S-wave (km/s) = 3.24341 3.82614 3.54676
# Velocity P-wave (km/s) = 5.86595 7.09936 6.51192
#
# Compressibility (1/GPa) = 0.02482107
#
# Stress axis : x y z
#
# Youngs Moduli (GPa) = 31.38267 114.65145 96.86531
#
# Poissons Ratio (x) = 0.63390 0.49937
# Poissons Ratio (y) = 0.17351 0.22865
# Poissons Ratio (z) = 0.16179 0.27063
#
# Static dielectric constant tensor:
#      x y z
#    x 1.703230 0.000000 -0.052110 
#    y 0.000000 1.683080 0.000000 
#    z -0.052110 0.000000 1.742990 
# 
# From -- ./inp_files/137280.got.cif
#   From: 2010.05.17/outbox.cif.g08.bks.cpg/sg15_69_cif.got.tgz:137280.got - 2010.06.03 18:47:42.
