data_PCOD9267985
_publ_section_title
;
Structure prediction by ZEFSAII (Michael W. Deem and Ramdas Pophale) SiO2 
 PCOD9267985
Probable space group: C 2/C
;
_chemical_formula_sum "Si O2"
_cell_formula_units_Z 36
_cell_length_a 8.773636
_cell_length_b 20.119033
_cell_length_c 8.437943
_cell_angle_alpha 90.000000
_cell_angle_beta 83.265378
_cell_angle_gamma 90.000000
_cell_volume 1479.163803
_symmetry_space_group_name_H-M "C 2/C"
_symmetry_group_IT_number 15
_symmetry_cell_setting 'monoclinic'
loop_
_space_group_symop_operation_xyz
x,y,z
-x,y,1/2-z
-x,-y,-z
x,-y,1/2+z
1/2+x,1/2+y,z
1/2-x,1/2+y,1/2-z
1/2-x,1/2-y,-z
1/2+x,1/2-y,1/2+z
loop_
_atom_site_type_symbol
_atom_site_label
_atom_site_fract_x
_atom_site_fract_y
_atom_site_fract_z
Si Si1 0.450135 0.852827 0.489212
Si Si2 0.500000 0.735705 0.250000
Si Si3 0.198705 0.316221 0.658037
Si Si4 0.329505 0.579756 0.576586
Si Si5 0.000000 0.030157 0.250000
Si Si6 0.000000 0.807454 0.250000
O O1 0.427789 0.786701 0.386644
O O2 0.368912 0.843816 0.668693
O O3 0.370498 0.857305 0.981816
O O4 0.353125 0.909669 0.415797
O O5 0.624578 0.692787 0.326890
O O6 0.122152 0.242758 0.654686
O O7 0.409016 0.568575 0.397167
O O8 0.377688 0.517483 0.677171
O O9 0.405805 0.645035 0.644863
#
# Coordination Sequence:
#
# PCOD9267985 Si02
#       6
#     8   4   8   8   4   4
#     4  10  22  39  58  88 132 163 204 245 306 363
#     4  12  20  37  60  87 131 174 197 240 286 376
#     4  10  23  38  55  96 133 162 198 240 295 389
#     4  10  19  41  64  93 121 159 208 264 307 363
#     4   9  22  39  68  96 112 158 221 265 312 354
#     4   9  18  36  60  89 131 158 194 245 308 366
#
# _framework density 24.338077999999999
#
# number of rings (size 3 to 8) (size 9 to 14) (size 15 to 20)
#    0.000    2.222    2.222    1.333    3.111    0.889 
#    8.000    0.000    0.000    9.333    0.000    0.000 
#    0.000    0.000    0.000    0.000    0.000    0.000 
#
# Total GULP energy -100690.669298 kJ/mol
# GULP energy per Si atom -5593.926072 kJ/mol
# Density = 2.428268 g / cm^3
# Si number density = 24.338078 Si / 1000 Ang^3
#
#
#
# Elastic Constant Matrix: (Units=GPa)
#
#
# Indices 1 2 3 4 5 6 
#
# 1 212.4273 51.6075 42.7657 0.0000 35.6807 0.0000
# 2 51.6075 57.5606 23.8589 0.0000 14.7991 0.0000
# 3 42.7657 23.8589 83.9409 0.0000 30.5343 0.0000
# 4 0.0000 0.0000 0.0000 11.6367 0.0000 0.3759
# 5 35.6807 14.7991 30.5343 0.0000 31.3745 0.0000
# 6 0.0000 0.0000 0.0000 0.3759 0.0000 33.5028
#
#
#
# Elastic Compliance Matrix: (Units=1/GPa)
#
#
# Indices 1 2 3 4 5 6 
#
# 1 0.006762 -0.004612 -0.000198 0.000000 -0.005321 0.000000
# 2 -0.004612 0.023583 -0.003429 0.000000 -0.002542 0.000000
# 3 -0.000198 -0.003429 0.019069 0.000000 -0.016716 0.000000
# 4 0.000000 0.000000 0.000000 0.085966 0.000000 -0.000965
# 5 -0.005321 -0.002542 -0.016716 0.000000 0.055392 0.000000
# 6 0.000000 0.000000 0.000000 -0.000965 0.000000 0.029859
#
#
# Mechanical properties :
#
#
# Convention : Reuss Voigt Hill
#
# Bulk Modulus (GPa) = 30.36230 65.59921 47.98075
# Shear Modulus (GPa) = 20.15418 31.01590 25.58504
#
# Velocity S-wave (km/s) = 2.88078 3.57372 3.24579
# Velocity P-wave (km/s) = 4.85464 6.63630 5.81412
#
# Compressibility (1/GPa) = 0.03293559
#
# Stress axis : x y z
#
# Youngs Moduli (GPa) = 147.89263 42.40387 52.44041
#
# Poissons Ratio (x) = 0.19557 0.01040
# Poissons Ratio (y) = 0.68208 0.17980
# Poissons Ratio (z) = 0.02933 0.14539
#
# Static dielectric constant tensor:
#      x y z
#    x 2.005230 0.000000 -0.017100 
#    y 0.000000 1.915970 0.000000 
#    z -0.017100 0.000000 1.969400 
# 
# From -- ./inp_files/23363.got.cif
#   From: 2010.05.17/outbox.cif.g08.bks.cpg/sg15_12_cif.got.tgz:23363.got - 2010.06.03 18:47:42.
