data_PCOD9267702
_publ_section_title
;
Structure prediction by ZEFSAII (Michael W. Deem and Ramdas Pophale) SiO2 
 PCOD9267702
Probable space group: C 2/C
;
_chemical_formula_sum "Si O2"
_cell_formula_units_Z 48
_cell_length_a 9.963295
_cell_length_b 14.933893
_cell_length_c 18.651572
_cell_angle_alpha 90.000000
_cell_angle_beta 114.102125
_cell_angle_gamma 90.000000
_cell_volume 2533.238923
_symmetry_space_group_name_H-M "C 2/C"
_symmetry_group_IT_number 15
_symmetry_cell_setting 'monoclinic'
loop_
_space_group_symop_operation_xyz
x,y,z
-x,y,1/2-z
-x,-y,-z
x,-y,1/2+z
1/2+x,1/2+y,z
1/2-x,1/2+y,1/2-z
1/2-x,1/2-y,-z
1/2+x,1/2-y,1/2+z
loop_
_atom_site_type_symbol
_atom_site_label
_atom_site_fract_x
_atom_site_fract_y
_atom_site_fract_z
Si Si1 0.000000 0.154811 0.250000
Si Si2 0.137678 0.484272 0.581616
Si Si3 0.000000 0.369296 0.750000
Si Si4 0.823522 0.708258 0.340011
Si Si5 0.045193 0.040015 0.400326
Si Si6 0.641572 0.386251 0.066769
Si Si7 0.954223 0.545240 0.665105
O O1 0.851166 0.210445 0.210211
O O2 0.009463 0.091336 0.181988
O O3 0.147041 0.380527 0.606494
O O4 0.296498 0.504988 0.583354
O O5 0.000000 0.500000 0.500000
O O6 0.093943 0.538092 0.643727
O O7 0.901920 0.310069 0.781150
O O8 0.915463 0.442040 0.680654
O O9 0.877033 0.794114 0.395030
O O10 0.074199 0.108191 0.472554
O O11 0.933965 0.965170 0.403971
O O12 0.814832 0.408609 0.099646
O O13 0.000000 0.588932 0.750000
#
# Coordination Sequence:
#
# PCOD9267702 Si02
#       7
#     4   8   4   8   8   8   8
#     4  10  22  40  62  84 116 158 202 242 302 348
#     4  10  19  40  62  83 115 163 200 237 295 361
#     4   8  18  38  58  82 116 162 190 240 288 356
#     4  10  22  38  61  89 119 151 200 253 290 349
#     4  10  23  39  62  85 122 161 194 247 303 357
#     4  11  22  39  59  90 124 153 198 248 300 348
#     4   9  19  36  63  83 114 162 201 232 293 358
#
# _framework density 18.948074999999999
#
# number of rings (size 3 to 8) (size 9 to 14) (size 15 to 20)
#    0.500    1.667    1.667    1.000    3.500    3.333 
#    0.000    0.833    0.000    0.000    0.000    0.000 
#    0.000    0.000    0.000    0.000    0.000    0.000 
#
# Total GULP energy -133813.111732 kJ/mol
# GULP energy per Si atom -5575.546322 kJ/mol
# Density = 1.890495 g / cm^3
# Si number density = 18.948075 Si / 1000 Ang^3
#
#
#
# Elastic Constant Matrix: (Units=GPa)
#
#
# Indices 1 2 3 4 5 6 
#
# 1 78.7787 20.4067 10.7455 0.0000 -8.8165 0.0000
# 2 20.4067 40.9329 19.3291 0.0000 2.1308 0.0000
# 3 10.7455 19.3291 90.6621 0.0000 -6.7940 0.0000
# 4 0.0000 0.0000 0.0000 20.2988 0.0000 7.0339
# 5 -8.8165 2.1308 -6.7940 0.0000 31.7643 0.0000
# 6 0.0000 0.0000 0.0000 7.0339 0.0000 10.9147
#
#
#
# Elastic Compliance Matrix: (Units=1/GPa)
#
#
# Indices 1 2 3 4 5 6 
#
# 1 0.015267 -0.007983 0.000254 0.000000 0.004827 0.000000
# 2 -0.007983 0.031645 -0.006225 0.000000 -0.005670 0.000000
# 3 0.000254 -0.006225 0.012565 0.000000 0.003176 0.000000
# 4 0.000000 0.000000 0.000000 0.063428 0.000000 -0.040875
# 5 0.004827 -0.005670 0.003176 0.000000 0.033881 0.000000
# 6 0.000000 0.000000 0.000000 -0.040875 0.000000 0.117961
#
#
# Mechanical properties :
#
#
# Convention : Reuss Voigt Hill
#
# Bulk Modulus (GPa) = 31.67642 34.59294 33.13468
# Shear Modulus (GPa) = 15.96534 23.25506 19.61020
#
# Velocity S-wave (km/s) = 2.90588 3.50709 3.22054
# Velocity P-wave (km/s) = 5.29269 5.89032 5.59949
#
# Compressibility (1/GPa) = 0.03156923
#
# Stress axis : x y z
#
# Youngs Moduli (GPa) = 65.50003 31.60078 79.58561
#
# Poissons Ratio (x) = 0.25226 -0.02023
# Poissons Ratio (y) = 0.52286 0.49546
# Poissons Ratio (z) = -0.01665 0.19673
#
# Static dielectric constant tensor:
#      x y z
#    x 1.667480 0.000000 -0.017390 
#    y 0.000000 1.634150 0.000000 
#    z -0.017390 0.000000 1.677790 
# 
# From -- ./inp_files/231384.got.cif
#   From: 2010.05.17/outbox.cif.g08.bks.cpg/sg15_116_cif.got.tgz:231384.got - 2010.06.03 18:47:42.
