data_PCOD9267562
_publ_section_title
;
Structure prediction by ZEFSAII (Michael W. Deem and Ramdas Pophale) SiO2 
 PCOD9267562
Probable space group: C 2/C
;
_chemical_formula_sum "Si O2"
_cell_formula_units_Z 64
_cell_length_a 9.165197
_cell_length_b 15.744551
_cell_length_c 21.402581
_cell_angle_alpha 90.000000
_cell_angle_beta 89.328510
_cell_angle_gamma 90.000000
_cell_volume 3088.221253
_symmetry_space_group_name_H-M "C 2/C"
_symmetry_group_IT_number 15
_symmetry_cell_setting 'monoclinic'
loop_
_space_group_symop_operation_xyz
x,y,z
-x,y,1/2-z
-x,-y,-z
x,-y,1/2+z
1/2+x,1/2+y,z
1/2-x,1/2+y,1/2-z
1/2-x,1/2-y,-z
1/2+x,1/2-y,1/2+z
loop_
_atom_site_type_symbol
_atom_site_label
_atom_site_fract_x
_atom_site_fract_y
_atom_site_fract_z
Si Si1 0.641528 0.890925 0.033323
Si Si2 0.984802 0.096042 0.526327
Si Si3 0.375126 0.733888 0.302603
Si Si4 0.722289 0.639671 0.616979
Si Si5 0.346694 0.914096 0.723192
Si Si6 0.951219 0.768819 0.574574
Si Si7 0.176540 0.405768 0.244263
Si Si8 0.431631 0.009617 0.089286
O O1 0.814252 0.882087 0.031765
O O2 0.553365 0.805386 0.046123
O O3 0.587184 0.962794 0.082993
O O4 0.589864 0.925660 0.966522
O O5 0.060770 0.156436 0.474657
O O6 0.062846 0.119293 0.591539
O O7 0.000000 0.000000 0.500000
O O8 0.500000 0.740532 0.250000
O O9 0.261197 0.663663 0.282695
O O10 0.456932 0.705872 0.364779
O O11 0.304975 0.829077 0.305245
O O12 0.753367 0.627096 0.690656
O O13 0.818332 0.567515 0.582075
O O14 0.796774 0.728065 0.595950
O O15 0.500000 0.885117 0.750000
O O16 0.389641 0.949373 0.654723
O O17 0.279572 0.995152 0.761359
O O18 0.000000 0.415001 0.250000
#
# Coordination Sequence:
#
# PCOD9267562 Si02
#       8
#     8   8   8   8   8   8   8   8
#     4  10  21  40  62  94 122 173 217 256 320 387
#     4  12  24  39  60 101 134 161 211 279 327 373
#     4  11  22  44  66  93 126 170 223 269 328 395
#     4  10  19  39  66  91 126 169 208 261 326 385
#     4  10  22  40  65  95 123 165 220 270 324 383
#     4  11  23  41  66  89 128 179 216 254 329 404
#     4   9  18  40  68  86 118 172 217 252 319 396
#     4   9  19  40  67  88 126 174 216 255 314 401
#
# _framework density 20.723904000000001
#
# number of rings (size 3 to 8) (size 9 to 14) (size 15 to 20)
#    0.000    1.750    3.750    1.500    3.500    0.000 
#    6.750    0.625    0.000    0.000    0.000    0.000 
#    0.000    0.000    0.000    0.000    0.000    0.000 
#
# Total GULP energy -178565.898930 kJ/mol
# GULP energy per Si atom -5580.184342 kJ/mol
# Density = 2.067674 g / cm^3
# Si number density = 20.723904 Si / 1000 Ang^3
#
#
#
# Elastic Constant Matrix: (Units=GPa)
#
#
# Indices 1 2 3 4 5 6 
#
# 1 47.7867 31.5800 10.2579 0.0000 19.9229 0.0000
# 2 31.5800 77.0827 3.2897 0.0000 16.8117 0.0000
# 3 10.2579 3.2897 38.7807 0.0000 20.1883 0.0000
# 4 0.0000 0.0000 0.0000 25.4918 0.0000 11.5336
# 5 19.9229 16.8117 20.1883 0.0000 29.7607 0.0000
# 6 0.0000 0.0000 0.0000 11.5336 0.0000 13.9288
#
#
#
# Elastic Compliance Matrix: (Units=1/GPa)
#
#
# Indices 1 2 3 4 5 6 
#
# 1 0.035324 -0.010480 0.001196 0.000000 -0.018539 0.000000
# 2 -0.010480 0.018503 0.004625 0.000000 -0.006574 0.000000
# 3 0.001196 0.004625 0.041514 0.000000 -0.031575 0.000000
# 4 0.000000 0.000000 0.000000 0.062730 0.000000 -0.051943
# 5 -0.018539 -0.006574 -0.031575 0.000000 0.071144 0.000000
# 6 0.000000 0.000000 0.000000 -0.051943 0.000000 0.114804
#
#
# Mechanical properties :
#
#
# Convention : Reuss Voigt Hill
#
# Bulk Modulus (GPa) = 11.62470 28.21168 19.91819
# Shear Modulus (GPa) = 13.08860 21.73776 17.41318
#
# Velocity S-wave (km/s) = 2.51583 3.24222 2.90184
# Velocity P-wave (km/s) = 3.74976 5.25915 4.56724
#
# Compressibility (1/GPa) = 0.08602374
#
# Stress axis : x y z
#
# Youngs Moduli (GPa) = 28.30934 54.04557 24.08802
#
# Poissons Ratio (x) = 0.56638 -0.02881
# Poissons Ratio (y) = 0.29667 -0.11140
# Poissons Ratio (z) = -0.03386 -0.24994
#
# Static dielectric constant tensor:
#      x y z
#    x 1.752310 0.000000 -0.003450 
#    y 0.000000 1.772530 0.000000 
#    z -0.003450 0.000000 1.771730 
# 
# From -- ./inp_files/264689.got.cif
#   From: 2010.05.17/outbox.cif.g08.bks.cpg/sg15_133_cif.got.tgz:264689.got - 2010.06.03 18:47:42.
