data_PCOD9267566
_publ_section_title
;
Structure prediction by ZEFSAII (Michael W. Deem and Ramdas Pophale) SiO2 
 PCOD9267566
Probable space group: C 2/C
;
_chemical_formula_sum "Si O2"
_cell_formula_units_Z 48
_cell_length_a 9.800863
_cell_length_b 16.388760
_cell_length_c 21.623249
_cell_angle_alpha 90.000000
_cell_angle_beta 146.759505
_cell_angle_gamma 90.000000
_cell_volume 1903.857053
_symmetry_space_group_name_H-M "C 2/C"
_symmetry_group_IT_number 15
_symmetry_cell_setting 'monoclinic'
loop_
_space_group_symop_operation_xyz
x,y,z
-x,y,1/2-z
-x,-y,-z
x,-y,1/2+z
1/2+x,1/2+y,z
1/2-x,1/2+y,1/2-z
1/2-x,1/2-y,-z
1/2+x,1/2-y,1/2+z
loop_
_atom_site_type_symbol
_atom_site_label
_atom_site_fract_x
_atom_site_fract_y
_atom_site_fract_z
Si Si1 0.723451 0.430149 0.917078
Si Si2 0.989031 0.282501 0.425620
Si Si3 0.359215 0.139244 0.755623
Si Si4 0.262472 0.007905 0.061178
Si Si5 0.516216 0.722041 0.948394
Si Si6 0.314431 0.887352 0.822185
O O1 0.945327 0.368757 0.018667
O O2 0.779700 0.451276 0.866839
O O3 0.448226 0.389690 0.812360
O O4 0.708421 0.490862 0.968507
O O5 0.250000 0.250000 0.500000
O O6 0.923601 0.221673 0.456154
O O7 0.829884 0.305202 0.305463
O O8 0.500000 0.177271 0.750000
O O9 0.537483 0.062815 0.839820
O O10 0.088564 0.139152 0.621438
O O11 0.448680 0.086524 0.129411
O O12 0.000000 0.000000 0.000000
O O13 0.341120 0.800000 0.865172
O O14 0.750000 0.750000 0.000000
#
# Coordination Sequence:
#
# PCOD9267566 Si02
#       6
#     8   8   8   8   8   8
#     4   9  21  40  62  91 124 178 228 279 345 421
#     4  10  19  39  66  95 131 184 228 279 351 420
#     4  11  24  42  70  98 141 187 232 287 362 422
#     4  11  26  41  67 100 139 185 234 294 362 419
#     4  11  25  41  69 103 140 181 237 296 350 422
#     4  10  22  42  66  91 134 181 234 287 347 426
#
# _framework density 25.211976
#
# number of rings (size 3 to 8) (size 9 to 14) (size 15 to 20)
#    0.000    1.667    1.667    1.500    7.000    0.667 
#    0.000    5.000    0.000    0.000    0.000    0.000 
#    0.000    0.000    0.000    0.000    0.000    0.000 
#
# Total GULP energy -133716.976749 kJ/mol
# GULP energy per Si atom -5571.540698 kJ/mol
# Density = 2.515459 g / cm^3
# Si number density = 25.211976 Si / 1000 Ang^3
#
#
#
# Elastic Constant Matrix: (Units=GPa)
#
#
# Indices 1 2 3 4 5 6 
#
# 1 131.9229 28.6138 45.7655 -0.0002 -2.8278 -0.0002
# 2 28.6138 87.5936 30.0614 0.0001 -4.4328 -0.0001
# 3 45.7655 30.0614 62.4179 0.0009 -23.0733 -0.0003
# 4 -0.0002 0.0001 0.0009 32.0143 0.0001 8.5862
# 5 -2.8278 -4.4328 -23.0733 0.0001 48.2339 -0.0002
# 6 -0.0002 -0.0001 -0.0003 8.5862 -0.0002 27.9518
#
#
#
# Elastic Compliance Matrix: (Units=1/GPa)
#
#
# Indices 1 2 3 4 5 6 
#
# 1 0.010739 -0.000627 -0.008941 0.000000 -0.003705 0.000000
# 2 -0.000627 0.013927 -0.007032 0.000000 -0.002121 0.000000
# 3 -0.008941 -0.007032 0.031015 -0.000001 0.013666 0.000001
# 4 0.000000 0.000000 -0.000001 0.034040 -0.000001 -0.010457
# 5 -0.003705 -0.002121 0.013666 -0.000001 0.026858 0.000001
# 6 0.000000 0.000000 0.000001 -0.010457 0.000001 0.038988
#
#
# Mechanical properties :
#
#
# Convention : Reuss Voigt Hill
#
# Bulk Modulus (GPa) = 44.48203 54.53511 49.50857
# Shear Modulus (GPa) = 25.47629 33.47292 29.47460
#
# Velocity S-wave (km/s) = 3.18226 3.64766 3.42288
# Velocity P-wave (km/s) = 5.58425 6.27839 5.94147
#
# Compressibility (1/GPa) = 0.02248099
#
# Stress axis : x y z
#
# Youngs Moduli (GPa) = 93.12186 71.80273 32.24195
#
# Poissons Ratio (x) = 0.04501 0.28829
# Poissons Ratio (y) = 0.05837 0.22672
# Poissons Ratio (z) = 0.83265 0.50490
#
# Static dielectric constant tensor:
#      x y z
#    x 2.025170 0.000000 -0.018800 
#    y 0.000000 2.256110 0.000000 
#    z -0.018800 0.000000 2.060420 
# 
# From -- ./inp_files/233993.got.cif
#   From: 2010.05.17/outbox.cif.g08.bks.cpg/sg15_117_cif.got.tgz:233993.got - 2010.06.03 18:47:42.
