data_PCOD9267460
_publ_section_title
;
Structure prediction by ZEFSAII (Michael W. Deem and Ramdas Pophale) SiO2 
 PCOD9267460
Probable space group: C 2/C
;
_chemical_formula_sum "Si O2"
_cell_formula_units_Z 40
_cell_length_a 16.842573
_cell_length_b 10.366291
_cell_length_c 25.130716
_cell_angle_alpha 90.000000
_cell_angle_beta 28.023474
_cell_angle_gamma 90.000000
_cell_volume 2061.486332
_symmetry_space_group_name_H-M "C 2/C"
_symmetry_group_IT_number 15
_symmetry_cell_setting 'monoclinic'
loop_
_space_group_symop_operation_xyz
x,y,z
-x,y,1/2-z
-x,-y,-z
x,-y,1/2+z
1/2+x,1/2+y,z
1/2-x,1/2+y,1/2-z
1/2-x,1/2-y,-z
1/2+x,1/2-y,1/2+z
loop_
_atom_site_type_symbol
_atom_site_label
_atom_site_fract_x
_atom_site_fract_y
_atom_site_fract_z
Si Si1 0.924889 0.860554 0.040891
Si Si2 0.616578 0.889157 0.405127
Si Si3 0.253361 0.886925 0.467080
Si Si4 0.904349 0.327566 0.204743
Si Si5 0.533004 0.464425 0.793747
O O1 0.825436 0.858209 0.043507
O O2 0.786694 0.856288 0.168279
O O3 0.061767 0.746438 0.964034
O O4 0.000000 0.000000 0.000000
O O5 0.568302 0.864737 0.372422
O O6 0.500000 0.000000 0.500000
O O7 0.811318 0.936190 0.292391
O O8 0.250000 0.750000 0.500000
O O9 0.454609 0.908670 0.346274
O O10 0.139069 0.985347 0.569735
O O11 0.915084 0.175825 0.213633
O O12 0.500000 0.452009 0.750000
#
# Coordination Sequence:
#
# PCOD9267460 Si02
#       5
#     8   8   8   8   8
#     4  12  24  40  64  98 135 171 219 274 337 394
#     4  12  24  41  65 101 133 172 220 280 339 392
#     4  10  19  39  63  95 121 168 230 268 307 389
#     4  11  22  39  68  93 127 173 227 269 320 399
#     4  11  21  39  67  97 131 173 223 272 327 395
#
# _framework density 19.403476000000001
#
# number of rings (size 3 to 8) (size 9 to 14) (size 15 to 20)
#    0.000    0.800    6.000    5.400    0.000    0.000 
#    0.000    2.000    0.000    4.800    0.000    0.000 
#    0.000    0.000    0.000    0.000    0.000    0.000 
#
# Total GULP energy -111455.867500 kJ/mol
# GULP energy per Si atom -5572.793375 kJ/mol
# Density = 1.935931 g / cm^3
# Si number density = 19.403476 Si / 1000 Ang^3
#
#
#
# Elastic Constant Matrix: (Units=GPa)
#
#
# Indices 1 2 3 4 5 6 
#
# 1 75.7234 30.7440 10.5474 -0.0001 3.0547 -0.0001
# 2 30.7440 113.3536 51.0591 -0.0001 -18.9545 0.0000
# 3 10.5474 51.0591 113.3678 -0.0009 -17.3574 -0.0001
# 4 -0.0001 -0.0001 -0.0009 26.4428 0.0002 -9.1039
# 5 3.0547 -18.9545 -17.3574 0.0002 40.2793 0.0001
# 6 -0.0001 0.0000 -0.0001 -9.1039 0.0001 17.1516
#
#
#
# Elastic Compliance Matrix: (Units=1/GPa)
#
#
# Indices 1 2 3 4 5 6 
#
# 1 0.015255 -0.004797 0.000234 0.000000 -0.003313 0.000000
# 2 -0.004797 0.012995 -0.004726 0.000000 0.004442 0.000000
# 3 0.000234 -0.004726 0.011332 0.000000 0.002642 0.000000
# 4 0.000000 0.000000 0.000000 0.046274 0.000000 0.024562
# 5 -0.003313 0.004442 0.002642 0.000000 0.028307 0.000000
# 6 0.000000 0.000000 0.000000 0.024562 0.000000 0.071341
#
#
# Mechanical properties :
#
#
# Convention : Reuss Voigt Hill
#
# Bulk Modulus (GPa) = 47.61201 54.12732 50.86966
# Shear Modulus (GPa) = 23.68751 30.78102 27.23427
#
# Velocity S-wave (km/s) = 3.49777 3.98724 3.75050
# Velocity P-wave (km/s) = 6.39560 7.01097 6.71034
#
# Compressibility (1/GPa) = 0.02100310
#
# Stress axis : x y z
#
# Youngs Moduli (GPa) = 65.55428 76.95516 88.24476
#
# Poissons Ratio (x) = 0.36913 -0.02064
# Poissons Ratio (y) = 0.31445 0.41706
# Poissons Ratio (z) = -0.01533 0.36370
#
# Static dielectric constant tensor:
#      x y z
#    x 1.408800 0.000000 0.237770 
#    y 0.000000 1.579950 0.000000 
#    z 0.237770 0.000000 1.505010 
# 
# From -- ./inp_files/273920.got.cif
#   From: 2010.05.17/outbox.cif.g08.bks.cpg/sg15_137_cif.got.tgz:273920.got - 2010.06.03 18:47:42.
