data_PCOD9267468
_publ_section_title
;
Structure prediction by ZEFSAII (Michael W. Deem and Ramdas Pophale) SiO2 
 PCOD9267468
Probable space group: C 2/C
;
_chemical_formula_sum "Si O2"
_cell_formula_units_Z 40
_cell_length_a 22.982517
_cell_length_b 4.988614
_cell_length_c 22.478646
_cell_angle_alpha 90.000000
_cell_angle_beta 138.729042
_cell_angle_gamma 90.000000
_cell_volume 1699.972791
_symmetry_space_group_name_H-M "C 2/C"
_symmetry_group_IT_number 15
_symmetry_cell_setting 'monoclinic'
loop_
_space_group_symop_operation_xyz
x,y,z
-x,y,1/2-z
-x,-y,-z
x,-y,1/2+z
1/2+x,1/2+y,z
1/2-x,1/2+y,1/2-z
1/2-x,1/2-y,-z
1/2+x,1/2-y,1/2+z
loop_
_atom_site_type_symbol
_atom_site_label
_atom_site_fract_x
_atom_site_fract_y
_atom_site_fract_z
Si Si1 0.421400 0.792074 0.455541
Si Si2 0.715485 0.731378 0.053146
Si Si3 0.468713 0.614712 0.376645
Si Si4 0.374115 0.212842 0.569879
Si Si5 0.089590 0.897412 0.293181
O O1 0.333323 0.845366 0.425145
O O2 0.397361 0.704410 0.369962
O O3 0.469868 0.575748 0.535334
O O4 0.500000 0.000000 0.500000
O O5 0.819580 0.739366 0.139844
O O6 0.680139 0.440419 0.007677
O O7 0.680860 0.941874 0.976885
O O8 0.535266 0.829711 0.397685
O O9 0.430413 0.476173 0.289503
O O10 0.394980 0.350426 0.649449
O O11 0.000000 0.762247 0.250000
#
# Coordination Sequence:
#
# PCOD9267468 Si02
#       5
#     8   8   8   8   8
#     4  10  19  39  64  84 125 167 211 250 312 381
#     4  11  22  41  65  93 123 171 207 255 315 377
#     4   9  20  40  60  92 124 165 208 262 311 366
#     4  10  21  41  66  90 128 163 210 254 315 379
#     4  10  22  42  62  95 128 164 211 267 312 370
#
# _framework density 23.529789999999998
#
# number of rings (size 3 to 8) (size 9 to 14) (size 15 to 20)
#    0.000    2.000    2.000    1.200    0.000    0.000 
#   10.800    6.000    0.000    0.000    0.000    0.000 
#    0.000    0.000    0.000    0.000    0.000    0.000 
#
# Total GULP energy -111662.607742 kJ/mol
# GULP energy per Si atom -5583.130387 kJ/mol
# Density = 2.347624 g / cm^3
# Si number density = 23.529790 Si / 1000 Ang^3
#
#
#
# Elastic Constant Matrix: (Units=GPa)
#
#
# Indices 1 2 3 4 5 6 
#
# 1 199.4833 7.7891 77.4997 -0.0003 -15.9274 0.0043
# 2 7.7891 60.9399 5.8911 0.0040 6.1362 0.0196
# 3 77.4997 5.8911 111.4202 -0.0002 -14.0048 -0.0002
# 4 -0.0003 0.0040 -0.0002 4.2048 0.0006 -5.5525
# 5 -15.9274 6.1362 -14.0048 0.0006 52.4782 0.0007
# 6 0.0043 0.0196 -0.0002 -5.5525 0.0007 28.3594
#
#
#
# Elastic Compliance Matrix: (Units=1/GPa)
#
#
# Indices 1 2 3 4 5 6 
#
# 1 0.006921 -0.000525 -0.004671 0.000000 0.000915 -0.000001
# 2 -0.000525 0.016791 -0.000817 -0.000041 -0.002341 -0.000020
# 3 -0.004671 -0.000817 0.012521 0.000003 0.002019 0.000002
# 4 0.000000 -0.000041 0.000003 0.320750 0.000001 0.062800
# 5 0.000915 -0.002341 0.002019 0.000001 0.020146 0.000001
# 6 -0.000001 -0.000020 0.000002 0.062800 0.000001 0.047557
#
#
# Mechanical properties :
#
#
# Convention : Reuss Voigt Hill
#
# Bulk Modulus (GPa) = 41.30975 61.57813 51.44394
# Shear Modulus (GPa) = 11.24142 35.71939 23.48041
#
# Velocity S-wave (km/s) = 2.18813 3.90044 3.16238
# Velocity P-wave (km/s) = 4.89677 6.81995 5.93675
#
# Compressibility (1/GPa) = 0.02420736
#
# Stress axis : x y z
#
# Youngs Moduli (GPa) = 144.47918 59.55431 79.86400
#
# Poissons Ratio (x) = 0.03128 0.37308
# Poissons Ratio (y) = 0.07589 0.06522
# Poissons Ratio (z) = 0.67492 0.04864
#
# Static dielectric constant tensor:
#      x y z
#    x 2.006030 -0.000010 0.003780 
#    y -0.000010 1.992870 0.000000 
#    z 0.003780 0.000000 1.901000 
# 
# From -- ./inp_files/254532.got.cif
#   From: 2010.05.17/outbox.cif.g08.bks.cpg/sg15_128_cif.got.tgz:254532.got - 2010.06.03 18:47:42.
