data_PCOD9267517
_publ_section_title
;
Structure prediction by ZEFSAII (Michael W. Deem and Ramdas Pophale) SiO2 
 PCOD9267517
Probable space group: C 2/C
;
_chemical_formula_sum "Si O2"
_cell_formula_units_Z 64
_cell_length_a 11.781435
_cell_length_b 19.284026
_cell_length_c 17.980264
_cell_angle_alpha 90.000000
_cell_angle_beta 127.845776
_cell_angle_gamma 90.000000
_cell_volume 3225.781145
_symmetry_space_group_name_H-M "C 2/C"
_symmetry_group_IT_number 15
_symmetry_cell_setting 'monoclinic'
loop_
_space_group_symop_operation_xyz
x,y,z
-x,y,1/2-z
-x,-y,-z
x,-y,1/2+z
1/2+x,1/2+y,z
1/2-x,1/2+y,1/2-z
1/2-x,1/2-y,-z
1/2+x,1/2-y,1/2+z
loop_
_atom_site_type_symbol
_atom_site_label
_atom_site_fract_x
_atom_site_fract_y
_atom_site_fract_z
Si Si1 0.313182 0.584176 0.509471
Si Si2 0.858437 0.087314 0.829568
Si Si3 0.040019 0.344176 0.377525
Si Si4 0.652741 0.699349 0.103811
Si Si5 0.216037 0.645543 0.625137
Si Si6 0.323799 0.711322 0.935342
Si Si7 0.870849 0.790406 0.744054
Si Si8 0.635494 0.985425 0.337442
O O1 0.477411 0.564131 0.594916
O O2 0.315927 0.644270 0.447450
O O3 0.245254 0.612135 0.557894
O O4 0.222923 0.522570 0.437324
O O5 0.815272 0.113116 0.730170
O O6 0.838571 0.151392 0.878706
O O7 0.746753 0.031490 0.816220
O O8 0.199842 0.312047 0.443276
O O9 0.067128 0.414871 0.343582
O O10 0.947879 0.363701 0.412438
O O11 0.938704 0.285657 0.296371
O O12 0.737923 0.771309 0.128089
O O13 0.674307 0.674490 0.197245
O O14 0.482210 0.717592 0.031287
O O15 0.259955 0.775619 0.863724
O O16 0.000000 0.824978 0.750000
O O17 0.500000 0.026813 0.250000
#
# Coordination Sequence:
#
# PCOD9267517 Si02
#       8
#     8   8   8   8   8   8   8   8
#     4  11  25  37  56  91 127 160 194 236 311 370
#     4  10  19  39  65  84 106 157 209 251 287 351
#     4   9  17  32  62  88 108 141 206 253 297 335
#     4  10  21  36  55  87 125 159 197 238 301 368
#     4  11  20  38  61  87 116 158 208 244 282 365
#     4   9  16  31  57  87 110 144 194 253 299 333
#     4   9  16  30  55  84 110 145 193 247 291 338
#     4  11  20  40  63  85 115 151 199 261 306 354
#
# _framework density 19.840156
#
# number of rings (size 3 to 8) (size 9 to 14) (size 15 to 20)
#    0.000    2.000    3.750    2.250    0.000    5.000 
#    2.250    1.250    0.000    3.000    0.000    0.000 
#    0.000    0.000    0.000    0.000    0.000    0.000 
#
# Total GULP energy -178465.554812 kJ/mol
# GULP energy per Si atom -5577.048588 kJ/mol
# Density = 1.979500 g / cm^3
# Si number density = 19.840156 Si / 1000 Ang^3
#
#
#
# Elastic Constant Matrix: (Units=GPa)
#
#
# Indices 1 2 3 4 5 6 
#
# 1 119.3741 25.0177 50.8441 0.0000 -17.2856 0.0000
# 2 25.0177 39.2379 31.2800 0.0000 -4.9150 0.0000
# 3 50.8441 31.2800 115.3693 0.0000 -5.1606 0.0000
# 4 0.0000 0.0000 0.0000 4.5002 0.0000 16.0557
# 5 -17.2856 -4.9150 -5.1606 0.0000 30.2905 0.0000
# 6 0.0000 0.0000 0.0000 16.0557 0.0000 -0.4485
#
#
#
# Elastic Compliance Matrix: (Units=1/GPa)
#
#
# Indices 1 2 3 4 5 6 
#
# 1 0.011559 -0.003610 -0.003876 0.000000 0.005350 0.000000
# 2 -0.003610 0.034081 -0.007552 0.000000 0.002183 0.000000
# 3 -0.003876 -0.007552 0.012364 0.000000 -0.001331 0.000000
# 4 0.000000 0.000000 0.000000 0.001726 0.000000 0.061799
# 5 0.005350 0.002183 -0.001331 0.000000 0.036194 0.000000
# 6 0.000000 0.000000 0.000000 0.061799 0.000000 -0.017322
#
#
# Mechanical properties :
#
#
# Convention : Reuss Voigt Hill
#
# Bulk Modulus (GPa) = 35.80563 54.25165 45.02864
# Shear Modulus (GPa) = 42.37714 17.99108 30.18411
#
# Velocity S-wave (km/s) = 4.62662 3.01458 3.90470
# Velocity P-wave (km/s) = 6.82840 6.28655 6.56307
#
# Compressibility (1/GPa) = 0.02792857
#
# Stress axis : x y z
#
# Youngs Moduli (GPa) = 86.51080 29.34197 80.87955
#
# Poissons Ratio (x) = 0.10592 0.31350
# Poissons Ratio (y) = 0.31229 0.61078
# Poissons Ratio (z) = 0.33533 0.22158
#
# Static dielectric constant tensor:
#      x y z
#    x 1.722460 0.000000 0.000990 
#    y 0.000000 1.718980 0.000000 
#    z 0.000990 0.000000 1.737810 
# 
# From -- ./inp_files/200388.got.cif
#   From: 2010.05.17/outbox.cif.g08.bks.cpg/sg15_101_cif.got.tgz:200388.got - 2010.06.03 18:47:42.
