data_PCOD9267206
_publ_section_title
;
Structure prediction by ZEFSAII (Michael W. Deem and Ramdas Pophale) SiO2 
 PCOD9267206
Probable space group: C 2/C
;
_chemical_formula_sum "Si O2"
_cell_formula_units_Z 44
_cell_length_a 15.465968
_cell_length_b 12.608173
_cell_length_c 15.031114
_cell_angle_alpha 90.000000
_cell_angle_beta 37.140298
_cell_angle_gamma 90.000000
_cell_volume 1769.665181
_symmetry_space_group_name_H-M "C 2/C"
_symmetry_group_IT_number 15
_symmetry_cell_setting 'monoclinic'
loop_
_space_group_symop_operation_xyz
x,y,z
-x,y,1/2-z
-x,-y,-z
x,-y,1/2+z
1/2+x,1/2+y,z
1/2-x,1/2+y,1/2-z
1/2-x,1/2-y,-z
1/2+x,1/2-y,1/2+z
loop_
_atom_site_type_symbol
_atom_site_label
_atom_site_fract_x
_atom_site_fract_y
_atom_site_fract_z
Si Si1 0.648899 0.302854 0.278457
Si Si2 0.365046 0.621935 0.078783
Si Si3 0.200716 0.335129 0.172889
Si Si4 0.000000 0.494926 0.750000
Si Si5 0.267307 0.623433 0.973215
Si Si6 0.008672 0.124101 0.341344
O O1 0.492456 0.296667 0.449097
O O2 0.717870 0.186291 0.212147
O O3 0.750798 0.357281 0.266616
O O4 0.652168 0.372237 0.186518
O O5 0.340587 0.570655 0.000962
O O6 0.421744 0.572140 0.125190
O O7 0.096670 0.427178 0.228213
O O8 0.115327 0.224855 0.240250
O O9 0.349613 0.333880 0.996421
O O10 0.108992 0.425629 0.602058
O O11 0.250000 0.750000 0.000000
O O12 0.000000 0.073983 0.250000
#
# Coordination Sequence:
#
# PCOD9267206 Si02
#       6
#     8   8   8   4   8   8
#     4   9  19  36  64  94 125 165 214 264 320 383
#     4   9  19  34  62  96 120 166 225 256 308 389
#     4  10  22  40  66 102 133 170 214 264 322 387
#     4  12  26  42  62  98 134 166 220 280 316 388
#     4  10  23  39  64  87 125 177 218 267 320 378
#     4  10  19  38  67  98 135 177 209 255 322 397
#
# _framework density 24.863461000000001
#
# number of rings (size 3 to 8) (size 9 to 14) (size 15 to 20)
#    0.000    2.182    0.909    1.091   10.182    0.727 
#    0.000    7.273    0.000    0.000    0.000    0.000 
#    0.000    0.000    0.000    0.000    0.000    0.000 
#
# Total GULP energy -122875.809712 kJ/mol
# GULP energy per Si atom -5585.264078 kJ/mol
# Density = 2.480687 g / cm^3
# Si number density = 24.863461 Si / 1000 Ang^3
#
#
#
# Elastic Constant Matrix: (Units=GPa)
#
#
# Indices 1 2 3 4 5 6 
#
# 1 189.7395 39.7391 36.1640 0.0000 27.0955 0.0000
# 2 39.7391 62.9479 20.9160 0.0000 5.4904 0.0000
# 3 36.1640 20.9160 104.5504 0.0000 6.9309 0.0000
# 4 0.0000 0.0000 0.0000 37.7463 0.0000 1.1591
# 5 27.0955 5.4904 6.9309 0.0000 53.1313 0.0000
# 6 0.0000 0.0000 0.0000 1.1591 0.0000 23.8297
#
#
#
# Elastic Compliance Matrix: (Units=1/GPa)
#
#
# Indices 1 2 3 4 5 6 
#
# 1 0.006682 -0.003496 -0.001422 0.000000 -0.002861 0.000000
# 2 -0.003496 0.018940 -0.002591 0.000000 0.000164 0.000000
# 3 -0.001422 -0.002591 0.010601 0.000000 -0.000390 0.000000
# 4 0.000000 0.000000 0.000000 0.026532 0.000000 -0.001291
# 5 -0.002861 0.000164 -0.000390 0.000000 0.020314 0.000000
# 6 0.000000 0.000000 0.000000 -0.001291 0.000000 0.042027
#
#
# Mechanical properties :
#
#
# Convention : Reuss Voigt Hill
#
# Bulk Modulus (GPa) = 47.15948 61.20846 54.18397
# Shear Modulus (GPa) = 33.97123 40.30271 37.13697
#
# Velocity S-wave (km/s) = 3.70038 4.03048 3.86895
# Velocity P-wave (km/s) = 6.10456 6.80669 6.46516
#
# Compressibility (1/GPa) = 0.02120464
#
# Stress axis : x y z
#
# Youngs Moduli (GPa) = 149.64876 52.79851 94.33237
#
# Poissons Ratio (x) = 0.18461 0.13417
# Poissons Ratio (y) = 0.52324 0.24437
# Poissons Ratio (z) = 0.21284 0.13677
#
# Static dielectric constant tensor:
#      x y z
#    x 2.011820 0.000000 0.020010 
#    y 0.000000 2.003810 0.000000 
#    z 0.020010 0.000000 1.950470 
# 
# From -- ./inp_files/211161.got.cif
#   From: 2010.05.17/outbox.cif.g08.bks.cpg/sg15_106_cif.got.tgz:211161.got - 2010.06.03 18:47:42.
