data_PCOD9267034
_publ_section_title
;
Structure prediction by ZEFSAII (Michael W. Deem and Ramdas Pophale) SiO2 
 PCOD9267034
Probable space group: C 2/C
;
_chemical_formula_sum "Si O2"
_cell_formula_units_Z 48
_cell_length_a 7.800509
_cell_length_b 30.303284
_cell_length_c 19.167120
_cell_angle_alpha 90.000000
_cell_angle_beta 144.056673
_cell_angle_gamma 90.000000
_cell_volume 2659.477450
_symmetry_space_group_name_H-M "C 2/C"
_symmetry_group_IT_number 15
_symmetry_cell_setting 'monoclinic'
loop_
_space_group_symop_operation_xyz
x,y,z
-x,y,1/2-z
-x,-y,-z
x,-y,1/2+z
1/2+x,1/2+y,z
1/2-x,1/2+y,1/2-z
1/2-x,1/2-y,-z
1/2+x,1/2-y,1/2+z
loop_
_atom_site_type_symbol
_atom_site_label
_atom_site_fract_x
_atom_site_fract_y
_atom_site_fract_z
Si Si1 0.000000 0.175363 0.750000
Si Si2 0.500000 0.127547 0.250000
Si Si3 0.481665 0.112834 0.968833
Si Si4 0.022505 0.730282 0.675290
Si Si5 0.667452 0.927624 0.671070
Si Si6 0.646956 0.980661 0.120868
Si Si7 0.953181 0.818414 0.572816
O O1 0.206119 0.143531 0.862777
O O2 0.200776 0.205579 0.767094
O O3 0.374481 0.098112 0.271324
O O4 0.758992 0.158911 0.362006
O O5 0.474311 0.069045 0.917668
O O6 0.488007 0.095753 0.050071
O O7 0.757483 0.143311 0.042490
O O8 0.000000 0.725984 0.750000
O O9 0.031366 0.781282 0.655338
O O10 0.740509 0.707023 0.547843
O O11 0.000000 0.927811 0.750000
O O12 0.573102 0.978843 0.648029
O O13 0.000000 0.975784 0.250000
O O14 0.500000 0.000000 0.000000
#
# Coordination Sequence:
#
# PCOD9267034 Si02
#       7
#     4   4   8   8   8   8   8
#     4  10  21  38  62  90 118 154 210 244 307 368
#     4  12  23  38  62  92 124 158 212 244 299 374
#     4  10  19  38  64  89 118 161 202 248 300 367
#     4  10  23  42  60  85 124 158 198 262 313 360
#     4  10  21  37  61  89 125 160 197 249 301 353
#     4   9  18  35  63  91 122 162 201 245 309 363
#     4  10  23  40  59  90 121 155 208 253 302 372
#
# _framework density 18.048659000000001
#
# number of rings (size 3 to 8) (size 9 to 14) (size 15 to 20)
#    0.000    2.000    2.500    0.500    4.667    0.000 
#    0.000    4.167    7.333    0.000    0.000    0.000 
#    0.000    0.000    0.000    0.000    0.000    0.000 
#
# Total GULP energy -133669.405992 kJ/mol
# GULP energy per Si atom -5569.558583 kJ/mol
# Density = 1.800758 g / cm^3
# Si number density = 18.048659 Si / 1000 Ang^3
#
#
#
# Elastic Constant Matrix: (Units=GPa)
#
#
# Indices 1 2 3 4 5 6 
#
# 1 81.7300 50.5421 38.1464 0.0000 -7.4087 0.0000
# 2 50.5421 156.6034 47.2528 0.0000 6.6843 0.0000
# 3 38.1464 47.2528 74.1041 -0.0002 4.4574 0.0001
# 4 0.0000 0.0000 -0.0002 28.1150 0.0000 2.4152
# 5 -7.4087 6.6843 4.4574 0.0000 26.4910 0.0000
# 6 0.0000 0.0000 0.0001 2.4152 0.0000 16.1637
#
#
#
# Elastic Compliance Matrix: (Units=1/GPa)
#
#
# Indices 1 2 3 4 5 6 
#
# 1 0.019071 -0.004186 -0.007609 0.000000 0.007670 0.000000
# 2 -0.004186 0.008861 -0.003324 0.000000 -0.002847 0.000000
# 3 -0.007609 -0.003324 0.019809 0.000000 -0.004622 0.000000
# 4 0.000000 0.000000 0.000000 0.036031 0.000000 -0.005384
# 5 0.007670 -0.002847 -0.004622 0.000000 0.041390 0.000000
# 6 0.000000 0.000000 0.000000 -0.005384 0.000000 0.062672
#
#
# Mechanical properties :
#
#
# Convention : Reuss Voigt Hill
#
# Bulk Modulus (GPa) = 57.13560 64.92447 61.03003
# Shear Modulus (GPa) = 22.33075 25.92037 24.12556
#
# Velocity S-wave (km/s) = 3.52128 3.79375 3.66005
# Velocity P-wave (km/s) = 6.94677 7.43237 7.19367
#
# Compressibility (1/GPa) = 0.01750222
#
# Stress axis : x y z
#
# Youngs Moduli (GPa) = 52.43567 112.85137 50.48203
#
# Poissons Ratio (x) = 0.47245 0.38412
# Poissons Ratio (y) = 0.21952 0.16781
# Poissons Ratio (z) = 0.39898 0.37513
#
# Static dielectric constant tensor:
#      x y z
#    x 1.579700 0.000000 0.030660 
#    y 0.000000 1.633120 0.000000 
#    z 0.030660 0.000000 1.693730 
# 
# From -- ./inp_files/234880.got.cif
#   From: 2010.05.17/outbox.cif.g08.bks.cpg/sg15_118_cif.got.tgz:234880.got - 2010.06.03 18:47:42.
