data_PCOD9267353
_publ_section_title
;
Structure prediction by ZEFSAII (Michael W. Deem and Ramdas Pophale) SiO2 
 PCOD9267353
Probable space group: C 2/C
;
_chemical_formula_sum "Si O2"
_cell_formula_units_Z 44
_cell_length_a 15.852448
_cell_length_b 10.295229
_cell_length_c 26.460964
_cell_angle_alpha 90.000000
_cell_angle_beta 32.105549
_cell_angle_gamma 90.000000
_cell_volume 2295.225936
_symmetry_space_group_name_H-M "C 2/C"
_symmetry_group_IT_number 15
_symmetry_cell_setting 'monoclinic'
loop_
_space_group_symop_operation_xyz
x,y,z
-x,y,1/2-z
-x,-y,-z
x,-y,1/2+z
1/2+x,1/2+y,z
1/2-x,1/2+y,1/2-z
1/2-x,1/2-y,-z
1/2+x,1/2-y,1/2+z
loop_
_atom_site_type_symbol
_atom_site_label
_atom_site_fract_x
_atom_site_fract_y
_atom_site_fract_z
Si Si1 0.651214 0.063106 0.079579
Si Si2 0.937938 0.642563 0.043313
Si Si3 0.968124 0.192568 0.916488
Si Si4 0.693077 0.763067 0.231462
Si Si5 0.910935 0.301546 0.443130
Si Si6 0.000000 0.435569 0.250000
O O1 0.572902 0.200328 0.104905
O O2 0.606602 0.019943 0.158303
O O3 0.584349 0.953336 0.075760
O O4 0.840212 0.079494 0.977558
O O5 0.907451 0.709705 0.004970
O O6 0.779068 0.644576 0.158610
O O7 0.000000 0.500000 0.000000
O O8 0.054350 0.730290 0.018668
O O9 0.154792 0.161307 0.822283
O O10 0.607354 0.847121 0.231924
O O11 0.563110 0.735358 0.339847
O O12 0.750000 0.250000 0.500000
#
# Coordination Sequence:
#
# PCOD9267353 Si02
#       6
#     8   8   8   8   8   4
#     4  10  20  39  58  85 117 161 193 254 299 359
#     4  10  19  39  61  85 120 164 197 257 307 363
#     4   9  21  39  59  81 125 150 205 246 302 367
#     4   9  21  38  57  90 117 156 206 248 295 373
#     4  11  21  38  63  88 122 159 203 254 307 357
#     4  10  20  36  62  80 122 152 206 248 300 360
#
# _framework density 19.170224999999999
#
# number of rings (size 3 to 8) (size 9 to 14) (size 15 to 20)
#    1.091    1.091    1.818    2.182    0.000    2.182 
#    9.818    0.000    0.000    0.000    0.000    0.000 
#    0.000    0.000    0.000    0.000    0.000    0.000 
#
# Total GULP energy -122528.673137 kJ/mol
# GULP energy per Si atom -5569.485143 kJ/mol
# Density = 1.912659 g / cm^3
# Si number density = 19.170225 Si / 1000 Ang^3
#
#
#
# Elastic Constant Matrix: (Units=GPa)
#
#
# Indices 1 2 3 4 5 6 
#
# 1 69.3179 -9.9496 12.1883 0.0000 -11.0620 0.0000
# 2 -9.9496 30.3820 13.8676 0.0000 -4.9658 0.0000
# 3 12.1883 13.8676 100.1052 -0.0001 -18.2049 0.0000
# 4 0.0000 0.0000 -0.0001 29.3395 0.0000 -5.5680
# 5 -11.0620 -4.9658 -18.2049 0.0000 36.8914 0.0000
# 6 0.0000 0.0000 0.0000 -5.5680 0.0000 19.0375
#
#
#
# Elastic Compliance Matrix: (Units=1/GPa)
#
#
# Indices 1 2 3 4 5 6 
#
# 1 0.016619 0.007217 -0.002132 0.000000 0.004903 0.000000
# 2 0.007217 0.038491 -0.005356 0.000000 0.004702 0.000000
# 3 -0.002132 -0.005356 0.011803 0.000000 0.004464 0.000000
# 4 0.000000 0.000000 0.000000 0.036087 0.000000 0.010554
# 5 0.004903 0.004702 0.004464 0.000000 0.031413 0.000000
# 6 0.000000 0.000000 0.000000 0.010554 0.000000 0.055615
#
#
# Mechanical properties :
#
#
# Convention : Reuss Voigt Hill
#
# Bulk Modulus (GPa) = 15.06656 25.77974 20.42315
# Shear Modulus (GPa) = 23.50815 29.30025 26.40420
#
# Velocity S-wave (km/s) = 3.50563 3.91375 3.71530
# Velocity P-wave (km/s) = 4.92569 5.82239 5.39271
#
# Compressibility (1/GPa) = 0.06637213
#
# Stress axis : x y z
#
# Youngs Moduli (GPa) = 60.17063 25.98029 84.72553
#
# Poissons Ratio (x) = -0.18750 0.18060
# Poissons Ratio (y) = -0.43425 0.45376
# Poissons Ratio (z) = 0.12826 0.13914
#
# Static dielectric constant tensor:
#      x y z
#    x 1.667680 0.000000 -0.015750 
#    y 0.000000 1.701540 0.000000 
#    z -0.015750 0.000000 1.672690 
# 
# From -- ./inp_files/273583.got.cif
#   From: 2010.05.17/outbox.cif.g08.bks.cpg/sg15_137_cif.got.tgz:273583.got - 2010.06.03 18:47:42.
