data_PCOD9267222
_publ_section_title
;
Structure prediction by ZEFSAII (Michael W. Deem and Ramdas Pophale) SiO2 
 PCOD9267222
Probable space group: C 2/C
;
_chemical_formula_sum "Si O2"
_cell_formula_units_Z 48
_cell_length_a 9.419557
_cell_length_b 25.331349
_cell_length_c 14.151627
_cell_angle_alpha 90.000000
_cell_angle_beta 37.831906
_cell_angle_gamma 90.000000
_cell_volume 2071.101546
_symmetry_space_group_name_H-M "C 2/C"
_symmetry_group_IT_number 15
_symmetry_cell_setting 'monoclinic'
loop_
_space_group_symop_operation_xyz
x,y,z
-x,y,1/2-z
-x,-y,-z
x,-y,1/2+z
1/2+x,1/2+y,z
1/2-x,1/2+y,1/2-z
1/2-x,1/2-y,-z
1/2+x,1/2-y,1/2+z
loop_
_atom_site_type_symbol
_atom_site_label
_atom_site_fract_x
_atom_site_fract_y
_atom_site_fract_z
Si Si1 0.386224 0.063560 0.209681
Si Si2 0.021748 0.110378 0.848101
Si Si3 0.867045 0.805145 0.917124
Si Si4 0.079115 0.991827 0.599295
Si Si5 0.261612 0.825069 0.856219
Si Si6 0.052008 0.410443 0.047154
O O1 0.500000 0.044379 0.250000
O O2 0.353438 0.125024 0.248754
O O3 0.464795 0.068581 0.055114
O O4 0.137405 0.034743 0.338187
O O5 0.295643 0.101631 0.720711
O O6 0.000000 0.122723 0.750000
O O7 0.906299 0.053579 0.928655
O O8 0.876583 0.153320 0.980782
O O9 0.705518 0.857704 0.988429
O O10 0.000000 0.802236 0.750000
O O11 0.058871 0.805205 0.897562
O O12 0.750000 0.750000 0.000000
O O13 0.313134 0.958020 0.471285
O O14 0.000000 0.988840 0.750000
O O15 0.500000 0.793310 0.750000
#
# Coordination Sequence:
#
# PCOD9267222 Si02
#       6
#     8   8   8   8   8   8
#     4  10  19  38  68  94 138 197 233 282 361 420
#     4  11  25  40  69 111 146 193 242 298 346 431
#     4  12  27  51  80 108 138 189 239 303 367 431
#     4   9  20  40  63 101 143 199 241 285 356 421
#     4  11  24  46  73 100 143 187 231 291 370 424
#     4  11  22  46  71  98 151 189 242 303 356 427
#
# _framework density 23.176072999999999
#
# number of rings (size 3 to 8) (size 9 to 14) (size 15 to 20)
#    0.000    1.333    3.333    2.500    2.333    9.333 
#    3.000    3.333    0.000    1.000    0.000    0.000 
#    0.000    0.000    0.000    0.000    0.000    0.000 
#
# Total GULP energy -133898.584254 kJ/mol
# GULP energy per Si atom -5579.107677 kJ/mol
# Density = 2.312332 g / cm^3
# Si number density = 23.176073 Si / 1000 Ang^3
#
#
#
# Elastic Constant Matrix: (Units=GPa)
#
#
# Indices 1 2 3 4 5 6 
#
# 1 193.9821 62.8067 77.8741 0.0000 -32.9391 0.0000
# 2 62.8067 84.2981 45.7612 0.0000 -7.6954 0.0000
# 3 77.8741 45.7612 157.7989 0.0000 -24.1054 0.0000
# 4 0.0000 0.0000 0.0000 45.9679 0.0000 18.0993
# 5 -32.9391 -7.6954 -24.1054 0.0000 34.0024 0.0000
# 6 0.0000 0.0000 0.0000 18.0993 0.0000 30.1042
#
#
#
# Elastic Compliance Matrix: (Units=1/GPa)
#
#
# Indices 1 2 3 4 5 6 
#
# 1 0.008424 -0.004713 -0.001914 0.000000 0.005737 0.000000
# 2 -0.004713 0.016720 -0.002963 0.000000 -0.002883 0.000000
# 3 -0.001914 -0.002963 0.008697 0.000000 0.003641 0.000000
# 4 0.000000 0.000000 0.000000 0.028501 0.000000 -0.017136
# 5 0.005737 -0.002883 0.003641 0.000000 0.036896 0.000000
# 6 0.000000 0.000000 0.000000 -0.017136 0.000000 0.043520
#
#
# Mechanical properties :
#
#
# Convention : Reuss Voigt Hill
#
# Bulk Modulus (GPa) = 68.21268 89.88478 79.04873
# Shear Modulus (GPa) = 29.97153 38.65737 34.31445
#
# Velocity S-wave (km/s) = 3.60002 4.08853 3.85203
# Velocity P-wave (km/s) = 6.83933 7.82021 7.34616
#
# Compressibility (1/GPa) = 0.01466003
#
# Stress axis : x y z
#
# Youngs Moduli (GPa) = 118.71340 59.80965 114.98053
#
# Poissons Ratio (x) = 0.28191 0.22006
# Poissons Ratio (y) = 0.55955 0.34068
# Poissons Ratio (z) = 0.22720 0.17721
#
# Static dielectric constant tensor:
#      x y z
#    x 2.061930 0.000000 -0.071480 
#    y 0.000000 1.826490 0.000000 
#    z -0.071480 0.000000 1.966350 
# 
# From -- ./inp_files/138889.got.cif
#   From: 2010.05.17/outbox.cif.g08.bks.cpg/sg15_70_cif.got.tgz:138889.got - 2010.06.03 18:47:42.
