data_PCOD9267535
_publ_section_title
;
Structure prediction by ZEFSAII (Michael W. Deem and Ramdas Pophale) SiO2 
 PCOD9267535
Probable space group: C 2/C
;
_chemical_formula_sum "Si O2"
_cell_formula_units_Z 48
_cell_length_a 13.515044
_cell_length_b 7.859364
_cell_length_c 18.820633
_cell_angle_alpha 90.000000
_cell_angle_beta 84.368506
_cell_angle_gamma 90.000000
_cell_volume 1989.472519
_symmetry_space_group_name_H-M "C 2/C"
_symmetry_group_IT_number 15
_symmetry_cell_setting 'monoclinic'
loop_
_space_group_symop_operation_xyz
x,y,z
-x,y,1/2-z
-x,-y,-z
x,-y,1/2+z
1/2+x,1/2+y,z
1/2-x,1/2+y,1/2-z
1/2-x,1/2-y,-z
1/2+x,1/2-y,1/2+z
loop_
_atom_site_type_symbol
_atom_site_label
_atom_site_fract_x
_atom_site_fract_y
_atom_site_fract_z
Si Si1 0.087279 0.010523 0.438619
Si Si2 0.928144 0.455753 0.819852
Si Si3 0.203838 0.697082 0.769137
Si Si4 0.602863 0.910118 0.406833
Si Si5 0.598698 0.436489 0.287387
Si Si6 0.797183 0.418490 0.961293
O O1 0.085452 0.209973 0.419763
O O2 0.066300 0.902202 0.370068
O O3 0.199632 0.967817 0.454386
O O4 0.000000 0.000000 0.500000
O O5 0.862884 0.602728 0.785808
O O6 0.850535 0.374458 0.882761
O O7 0.000000 0.386513 0.750000
O O8 0.009114 0.522397 0.870720
O O9 0.191199 0.589323 0.842613
O O10 0.319825 0.699726 0.742559
O O11 0.160658 0.886236 0.780750
O O12 0.631087 0.987913 0.481218
O O13 0.500000 0.463066 0.250000
O O14 0.750000 0.250000 0.000000
#
# Coordination Sequence:
#
# PCOD9267535 Si02
#       6
#     8   8   8   8   8   8
#     4  10  21  39  61  87 129 168 211 269 338 396
#     4  10  19  39  65  91 125 169 221 274 336 393
#     4  10  21  41  67  99 131 175 222 285 334 399
#     4   9  20  37  64  88 124 168 215 268 334 392
#     4  11  23  43  69  97 136 177 226 278 345 400
#     4  10  20  37  62  88 128 165 209 273 332 390
#
# _framework density 24.126996999999999
#
# number of rings (size 3 to 8) (size 9 to 14) (size 15 to 20)
#    0.000    2.000    1.667    3.000    2.333    0.000 
#    0.000   12.500    0.000    0.000    0.000    0.000 
#    0.000    0.000    0.000    0.000    0.000    0.000 
#
# Total GULP energy -134046.717428 kJ/mol
# GULP energy per Si atom -5585.279893 kJ/mol
# Density = 2.407208 g / cm^3
# Si number density = 24.126997 Si / 1000 Ang^3
#
#
#
# Elastic Constant Matrix: (Units=GPa)
#
#
# Indices 1 2 3 4 5 6 
#
# 1 174.5605 12.0303 93.8791 0.0000 -9.1538 0.0000
# 2 12.0303 35.8757 19.9298 0.0000 -9.9062 0.0000
# 3 93.8791 19.9298 218.9140 0.0000 -10.3076 0.0000
# 4 0.0000 0.0000 0.0000 39.2329 0.0000 -6.8216
# 5 -9.1538 -9.9062 -10.3076 0.0000 56.5804 0.0000
# 6 0.0000 0.0000 0.0000 -6.8216 0.0000 23.0916
#
#
#
# Elastic Compliance Matrix: (Units=1/GPa)
#
#
# Indices 1 2 3 4 5 6 
#
# 1 0.007481 -0.000625 -0.003126 0.000000 0.000531 0.000000
# 2 -0.000625 0.030701 -0.002298 0.000000 0.004855 0.000000
# 3 -0.003126 -0.002298 0.006128 0.000000 0.000208 0.000000
# 4 0.000000 0.000000 0.000000 0.026869 0.000000 0.007938
# 5 0.000531 0.004855 0.000208 0.000000 0.018648 0.000000
# 6 0.000000 0.000000 0.000000 0.007938 0.000000 0.045651
#
#
# Mechanical properties :
#
#
# Convention : Reuss Voigt Hill
#
# Bulk Modulus (GPa) = 31.04595 75.66984 53.35789
# Shear Modulus (GPa) = 31.58292 44.01503 37.79898
#
# Velocity S-wave (km/s) = 3.62197 4.27582 3.96241
# Velocity P-wave (km/s) = 5.51246 7.47048 6.56488
#
# Compressibility (1/GPa) = 0.03221033
#
# Stress axis : x y z
#
# Youngs Moduli (GPa) = 133.67409 32.57211 163.19440
#
# Poissons Ratio (x) = 0.02037 0.51017
# Poissons Ratio (y) = 0.08358 0.37507
# Poissons Ratio (z) = 0.41789 0.07486
#
# Static dielectric constant tensor:
#      x y z
#    x 2.034120 0.000000 -0.013180 
#    y 0.000000 2.036430 0.000000 
#    z -0.013180 0.000000 2.033900 
# 
# From -- ./inp_files/196515.got.cif
#   From: 2010.05.17/outbox.cif.g08.bks.cpg/sg15_99_cif.got.tgz:196515.got - 2010.06.03 18:47:42.
