data_PCOD9267270
_publ_section_title
;
Structure prediction by ZEFSAII (Michael W. Deem and Ramdas Pophale) SiO2 
 PCOD9267270
Probable space group: C 2/C
;
_chemical_formula_sum "Si O2"
_cell_formula_units_Z 60
_cell_length_a 8.372768
_cell_length_b 25.451697
_cell_length_c 24.010497
_cell_angle_alpha 90.000000
_cell_angle_beta 41.737869
_cell_angle_gamma 90.000000
_cell_volume 3406.284861
_symmetry_space_group_name_H-M "C 2/C"
_symmetry_group_IT_number 15
_symmetry_cell_setting 'monoclinic'
loop_
_space_group_symop_operation_xyz
x,y,z
-x,y,1/2-z
-x,-y,-z
x,-y,1/2+z
1/2+x,1/2+y,z
1/2-x,1/2+y,1/2-z
1/2-x,1/2-y,-z
1/2+x,1/2-y,1/2+z
loop_
_atom_site_type_symbol
_atom_site_label
_atom_site_fract_x
_atom_site_fract_y
_atom_site_fract_z
Si Si1 0.233991 0.082190 0.317586
Si Si2 0.245524 0.010274 0.905251
Si Si3 0.724381 0.495067 0.231227
Si Si4 0.567283 0.247527 0.466344
Si Si5 0.765299 0.902392 0.179123
Si Si6 0.545858 0.299324 0.118957
Si Si7 0.500000 0.751969 0.750000
Si Si8 0.990836 0.187850 0.094652
O O1 0.500000 0.106991 0.250000
O O2 0.043507 0.126192 0.384281
O O3 0.253268 0.035104 0.356700
O O4 0.192356 0.051147 0.270830
O O5 0.508303 0.006756 0.865245
O O6 0.221327 0.066471 0.882107
O O7 0.000000 0.000000 0.000000
O O8 0.500000 0.486913 0.250000
O O9 0.726367 0.447929 0.276096
O O10 0.575994 0.267722 0.400693
O O11 0.327848 0.212621 0.537293
O O12 0.539525 0.295961 0.517536
O O13 0.796074 0.214010 0.425470
O O14 0.500000 0.876945 0.250000
O O15 0.969009 0.859532 0.133032
O O16 0.472773 0.280713 0.199769
O O17 0.258415 0.785029 0.822525
#
# Coordination Sequence:
#
# PCOD9267270 Si02
#       8
#     8   8   8   8   8   8   4   8
#     4   9  18  36  59  77 113 146 181 220 280 337
#     4   9  19  37  57  84 107 144 183 222 278 347
#     4   9  19  39  54  82 112 140 183 238 269 325
#     4   9  22  38  55  77 126 141 182 234 284 325
#     4   9  20  36  58  78 110 148 182 217 286 336
#     4  10  21  40  54  85 110 151 182 235 277 332
#     4  10  22  34  60  82 108 142 202 224 266 338
#     4  10  19  39  56  83 108 155 180 233 279 328
#
# _framework density 17.614498000000001
#
# number of rings (size 3 to 8) (size 9 to 14) (size 15 to 20)
#    0.000    2.667    0.667    1.600    4.667    0.000 
#    7.200    1.333    0.000    0.000    0.000    0.000 
#    0.000    0.000    0.000    0.000    0.000    0.000 
#
# Total GULP energy -167051.970516 kJ/mol
# GULP energy per Si atom -5568.399017 kJ/mol
# Density = 1.757441 g / cm^3
# Si number density = 17.614498 Si / 1000 Ang^3
#
#
#
# Elastic Constant Matrix: (Units=GPa)
#
#
# Indices 1 2 3 4 5 6 
#
# 1 108.7183 23.6646 36.1990 0.0000 -5.5834 0.0000
# 2 23.6646 84.3945 17.3522 0.0000 -3.0088 0.0000
# 3 36.1990 17.3522 71.2163 0.0001 1.8931 -0.0001
# 4 0.0000 0.0000 0.0001 15.7416 0.0000 -7.8394
# 5 -5.5834 -3.0088 1.8931 0.0000 22.5176 0.0000
# 6 0.0000 0.0000 -0.0001 -7.8394 0.0000 16.8857
#
#
#
# Elastic Compliance Matrix: (Units=1/GPa)
#
#
# Indices 1 2 3 4 5 6 
#
# 1 0.011627 -0.002020 -0.005499 0.000000 0.003075 0.000000
# 2 -0.002020 0.012909 -0.002156 0.000000 0.001405 0.000000
# 3 -0.005499 -0.002156 0.017445 0.000000 -0.003118 0.000000
# 4 0.000000 0.000000 0.000000 0.082631 0.000000 0.038362
# 5 0.003075 0.001405 -0.003118 0.000000 0.045622 0.000000
# 6 0.000000 0.000000 0.000000 0.038362 0.000000 0.077032
#
#
# Mechanical properties :
#
#
# Convention : Reuss Voigt Hill
#
# Bulk Modulus (GPa) = 44.18837 46.52896 45.35866
# Shear Modulus (GPa) = 18.23754 23.50319 20.87036
#
# Velocity S-wave (km/s) = 3.22121 3.65678 3.44589
# Velocity P-wave (km/s) = 6.24306 6.65597 6.45282
#
# Compressibility (1/GPa) = 0.02263039
#
# Stress axis : x y z
#
# Youngs Moduli (GPa) = 86.00830 77.46609 57.32201
#
# Poissons Ratio (x) = 0.15647 0.31524
# Poissons Ratio (y) = 0.17372 0.12359
# Poissons Ratio (z) = 0.47300 0.16702
#
# Static dielectric constant tensor:
#      x y z
#    x 1.599000 0.000000 0.013290 
#    y 0.000000 1.592700 0.000000 
#    z 0.013290 0.000000 1.743050 
# 
# From -- ./inp_files/266519.got.cif
#   From: 2010.05.17/outbox.cif.g08.bks.cpg/sg15_134_cif.got.tgz:266519.got - 2010.06.03 18:47:42.
