data_PCOD9267392
_publ_section_title
;
Structure prediction by ZEFSAII (Michael W. Deem and Ramdas Pophale) SiO2 
 PCOD9267392
Probable space group: C 2/C
;
_chemical_formula_sum "Si O2"
_cell_formula_units_Z 56
_cell_length_a 28.918878
_cell_length_b 8.530783
_cell_length_c 19.962643
_cell_angle_alpha 90.000000
_cell_angle_beta 145.266834
_cell_angle_gamma 90.000000
_cell_volume 2805.929606
_symmetry_space_group_name_H-M "C 2/C"
_symmetry_group_IT_number 15
_symmetry_cell_setting 'monoclinic'
loop_
_space_group_symop_operation_xyz
x,y,z
-x,y,1/2-z
-x,-y,-z
x,-y,1/2+z
1/2+x,1/2+y,z
1/2-x,1/2+y,1/2-z
1/2-x,1/2-y,-z
1/2+x,1/2-y,1/2+z
loop_
_atom_site_type_symbol
_atom_site_label
_atom_site_fract_x
_atom_site_fract_y
_atom_site_fract_z
Si Si1 0.130944 0.664576 0.363217
Si Si2 0.240031 0.717625 0.102713
Si Si3 0.123239 0.959443 0.021237
Si Si4 0.649553 0.537494 0.704697
Si Si5 0.137851 0.666328 0.851304
Si Si6 0.259193 0.283192 0.897876
Si Si7 0.056816 0.996843 0.232769
O O1 0.087717 0.496491 0.298714
O O2 0.202353 0.664768 0.392177
O O3 0.173703 0.673231 0.486409
O O4 0.085102 0.831665 0.299341
O O5 0.165869 0.798229 0.051759
O O6 0.283875 0.596598 0.203175
O O7 0.312285 0.827107 0.159154
O O8 0.202461 0.652128 0.988781
O O9 0.111076 0.970099 0.086187
O O10 0.189829 0.084194 0.077139
O O11 0.039434 0.986017 0.883071
O O12 0.699890 0.696128 0.776390
O O13 0.587980 0.518749 0.693207
O O14 0.095302 0.838316 0.805348
#
# Coordination Sequence:
#
# PCOD9267392 Si02
#       7
#     8   8   8   8   8   8   8
#     4  10  19  39  62  87 119 150 195 247 294 352
#     4  10  20  35  62  89 109 152 204 243 291 335
#     4  12  22  38  57  88 125 151 195 246 280 354
#     4  10  21  40  60  82 118 162 196 234 292 351
#     4  10  19  39  62  87 119 150 195 247 294 352
#     4  10  20  35  62  89 109 152 204 243 291 335
#     4  10  24  38  61  89 119 162 187 234 315 347
#
# _framework density 19.957736000000001
#
# number of rings (size 3 to 8) (size 9 to 14) (size 15 to 20)
#    0.000    1.714    2.857    2.143    4.000    2.286 
#    2.571    1.429    0.000    3.429    0.000    0.000 
#    0.000    0.000    0.000    0.000    0.000    0.000 
#
# Total GULP energy -156087.352250 kJ/mol
# GULP energy per Si atom -5574.548295 kJ/mol
# Density = 1.991231 g / cm^3
# Si number density = 19.957736 Si / 1000 Ang^3
#
#
#
# Elastic Constant Matrix: (Units=GPa)
#
#
# Indices 1 2 3 4 5 6 
#
# 1 46.6306 6.9645 7.0433 0.0000 2.7732 0.0000
# 2 6.9645 97.9453 19.7797 0.0000 9.5431 0.0000
# 3 7.0433 19.7797 56.6341 0.0000 6.2980 0.0000
# 4 0.0000 0.0000 0.0000 3.0767 0.0000 -7.5849
# 5 2.7732 9.5431 6.2980 0.0000 33.0680 0.0000
# 6 0.0000 0.0000 0.0000 -7.5849 0.0000 17.8180
#
#
#
# Elastic Compliance Matrix: (Units=1/GPa)
#
#
# Indices 1 2 3 4 5 6 
#
# 1 0.022003 -0.000998 -0.002263 0.000000 -0.001126 0.000000
# 2 -0.000998 0.011235 -0.003523 0.000000 -0.002488 0.000000
# 3 -0.002263 -0.003523 0.019447 0.000000 -0.002497 0.000000
# 4 0.000000 0.000000 0.000000 -6.576192 0.000000 -2.799412
# 5 -0.001126 -0.002488 -0.002497 0.000000 0.031529 0.000000
# 6 0.000000 0.000000 0.000000 -2.799412 0.000000 -1.135555
#
#
# Mechanical properties :
#
#
# Convention : Reuss Voigt Hill
#
# Bulk Modulus (GPa) = 25.56417 29.86500 27.71459
# Shear Modulus (GPa) = -0.65781 21.95404 10.64811
#
# Velocity S-wave (km/s) = -0.57473 3.32026 2.31234
# Velocity P-wave (km/s) = 3.52087 5.44935 4.58759
#
# Compressibility (1/GPa) = 0.03911725
#
# Stress axis : x y z
#
# Youngs Moduli (GPa) = 45.44848 89.01113 51.42256
#
# Poissons Ratio (x) = 0.08882 0.11635
# Poissons Ratio (y) = 0.04535 0.18116
# Poissons Ratio (z) = 0.10283 0.31359
#
# Static dielectric constant tensor:
#      x y z
#    x 1.708400 0.000000 0.010200 
#    y 0.000000 1.796700 0.000000 
#    z 0.010200 0.000000 1.667630 
# 
# From -- ./inp_files/218330.got.cif
#   From: 2010.05.17/outbox.cif.g08.bks.cpg/sg15_110_cif.got.tgz:218330.got - 2010.06.03 18:47:42.
