data_PCOD9267881
_publ_section_title
;
Structure prediction by ZEFSAII (Michael W. Deem and Ramdas Pophale) SiO2 
 PCOD9267881
Probable space group: C 2/C
;
_chemical_formula_sum "Si O2"
_cell_formula_units_Z 24
_cell_length_a 13.446323
_cell_length_b 4.831549
_cell_length_c 19.636757
_cell_angle_alpha 90.000000
_cell_angle_beta 138.468958
_cell_angle_gamma 90.000000
_cell_volume 845.843609
_symmetry_space_group_name_H-M "C 2/C"
_symmetry_group_IT_number 15
_symmetry_cell_setting 'monoclinic'
loop_
_space_group_symop_operation_xyz
x,y,z
-x,y,1/2-z
-x,-y,-z
x,-y,1/2+z
1/2+x,1/2+y,z
1/2-x,1/2+y,1/2-z
1/2-x,1/2-y,-z
1/2+x,1/2-y,1/2+z
loop_
_atom_site_type_symbol
_atom_site_label
_atom_site_fract_x
_atom_site_fract_y
_atom_site_fract_z
Si Si1 0.153014 0.499262 0.537147
Si Si2 0.323665 0.525971 0.251308
Si Si3 0.409062 0.109022 0.137768
O O1 0.269403 0.364754 0.649598
O O2 0.243388 0.786492 0.572196
O O3 0.112422 0.418493 0.439207
O O4 0.000000 0.500000 0.500000
O O5 0.289171 0.777206 0.284120
O O6 0.483491 0.370063 0.330106
O O7 0.500000 0.009362 0.250000
#
# Coordination Sequence:
#
# PCOD9267881 Si02
#       3
#     8   8   8
#     4  10  19  40  69 100 134 185 231 284 352 417
#     4  11  23  42  69 101 138 180 230 287 347 414
#     4   9  20  39  66 100 141 179 232 289 347 417
#
# _framework density 28.374040999999998
#
# number of rings (size 3 to 8) (size 9 to 14) (size 15 to 20)
#    0.000    2.000    3.333    0.000    0.000    1.333 
#    0.000   16.667    0.000    0.000    0.000    0.000 
#    0.000    0.000    0.000    0.000    0.000    0.000 
#
# Total GULP energy -67098.704375 kJ/mol
# GULP energy per Si atom -5591.558698 kJ/mol
# Density = 2.830946 g / cm^3
# Si number density = 28.374041 Si / 1000 Ang^3
#
#
#
# Elastic Constant Matrix: (Units=GPa)
#
#
# Indices 1 2 3 4 5 6 
#
# 1 195.2462 65.9641 100.8441 0.0000 5.5240 0.0003
# 2 65.9641 130.8299 60.6450 -0.0003 18.0996 0.0019
# 3 100.8441 60.6450 230.7229 0.0003 -23.7991 -0.0001
# 4 0.0000 -0.0003 0.0003 28.9788 -0.0001 31.0024
# 5 5.5240 18.0996 -23.7991 -0.0001 85.7216 -0.0002
# 6 0.0003 0.0019 -0.0001 31.0024 -0.0002 40.8589
#
#
#
# Elastic Compliance Matrix: (Units=1/GPa)
#
#
# Indices 1 2 3 4 5 6 
#
# 1 0.007305 -0.002359 -0.002646 0.000000 -0.000707 0.000000
# 2 -0.002359 0.010041 -0.001865 0.000003 -0.002486 -0.000003
# 3 -0.002646 -0.001865 0.006217 -0.000001 0.002290 0.000001
# 4 0.000000 0.000003 -0.000001 0.183313 -0.000001 -0.139092
# 5 -0.000707 -0.002486 0.002290 -0.000001 0.012872 0.000001
# 6 0.000000 -0.000003 0.000001 -0.139092 0.000001 0.130013
#
#
# Mechanical properties :
#
#
# Convention : Reuss Voigt Hill
#
# Bulk Modulus (GPa) = 101.78704 112.41171 107.09937
# Shear Modulus (GPa) = 13.63230 53.06822 33.35026
#
# Velocity S-wave (km/s) = 2.19429 4.32940 3.43210
# Velocity P-wave (km/s) = 6.50931 8.04334 7.31664
#
# Compressibility (1/GPa) = 0.00982443
#
# Stress axis : x y z
#
# Youngs Moduli (GPa) = 136.88602 99.59023 160.84850
#
# Poissons Ratio (x) = 0.23493 0.42559
# Poissons Ratio (y) = 0.32291 0.29992
# Poissons Ratio (z) = 0.36219 0.18570
#
# Static dielectric constant tensor:
#      x y z
#    x 2.260310 0.000000 -0.015800 
#    y 0.000000 2.245100 0.000000 
#    z -0.015800 0.000000 2.142830 
# 
# From -- ./inp_files/92844.got.cif
#   From: 2010.05.17/outbox.cif.g08.bks.cpg/sg15_47_cif.got.tgz:92844.got - 2010.06.03 18:47:42.
