data_PCOD9267453
_publ_section_title
;
Structure prediction by ZEFSAII (Michael W. Deem and Ramdas Pophale) SiO2 
 PCOD9267453
Probable space group: C 2/C
;
_chemical_formula_sum "Si O2"
_cell_formula_units_Z 52
_cell_length_a 16.019831
_cell_length_b 12.611609
_cell_length_c 20.111424
_cell_angle_alpha 90.000000
_cell_angle_beta 41.834749
_cell_angle_gamma 90.000000
_cell_volume 2710.110322
_symmetry_space_group_name_H-M "C 2/C"
_symmetry_group_IT_number 15
_symmetry_cell_setting 'monoclinic'
loop_
_space_group_symop_operation_xyz
x,y,z
-x,y,1/2-z
-x,-y,-z
x,-y,1/2+z
1/2+x,1/2+y,z
1/2-x,1/2+y,1/2-z
1/2-x,1/2-y,-z
1/2+x,1/2-y,1/2+z
loop_
_atom_site_type_symbol
_atom_site_label
_atom_site_fract_x
_atom_site_fract_y
_atom_site_fract_z
Si Si1 0.299841 0.805990 0.402762
Si Si2 0.850067 0.607301 0.273632
Si Si3 0.907036 0.847019 0.214799
Si Si4 0.131628 0.053708 0.903847
Si Si5 0.356147 0.450911 0.379095
Si Si6 0.104674 0.478999 0.607813
Si Si7 0.000000 0.855467 0.750000
O O1 0.250000 0.750000 0.500000
O O2 0.194188 0.869926 0.423204
O O3 0.380975 0.722730 0.310586
O O4 0.392678 0.898552 0.372482
O O5 0.854257 0.730676 0.257378
O O6 0.726096 0.542459 0.332312
O O7 0.869629 0.587941 0.340717
O O8 0.968162 0.555207 0.165659
O O9 0.883800 0.880948 0.154065
O O10 0.847116 0.923121 0.306575
O O11 0.056093 0.859758 0.141281
O O12 0.000000 0.000000 0.000000
O O13 0.221119 0.460846 0.490651
O O14 0.437104 0.559858 0.338821
#
# Coordination Sequence:
#
# PCOD9267453 Si02
#       7
#     8   8   8   8   8   8   4
#     4  11  21  38  65  95 117 171 217 258 327 381
#     4  10  22  39  63  87 126 161 204 271 314 385
#     4  10  22  39  59  94 119 168 212 254 332 381
#     4  11  25  43  62  89 131 171 214 271 329 393
#     4  10  21  36  65  91 125 162 215 263 313 399
#     4  10  19  39  63  93 120 160 213 259 314 382
#     4  10  20  36  60  94 128 156 212 278 306 392
#
# _framework density 19.187411000000001
#
# number of rings (size 3 to 8) (size 9 to 14) (size 15 to 20)
#    0.000    1.846    1.538    5.538    2.154    6.154 
#    2.769    0.769    0.000    0.000    0.000    0.000 
#    0.000    0.000    0.000    0.000    0.000    0.000 
#
# Total GULP energy -144856.388994 kJ/mol
# GULP energy per Si atom -5571.399577 kJ/mol
# Density = 1.914374 g / cm^3
# Si number density = 19.187411 Si / 1000 Ang^3
#
#
#
# Elastic Constant Matrix: (Units=GPa)
#
#
# Indices 1 2 3 4 5 6 
#
# 1 51.5733 40.5944 43.2507 0.0000 -4.4567 0.0000
# 2 40.5944 135.7009 62.7082 0.0000 -1.3888 0.0000
# 3 43.2507 62.7082 160.4668 0.0000 -26.5509 0.0000
# 4 0.0000 0.0000 0.0000 26.9970 0.0000 6.9078
# 5 -4.4567 -1.3888 -26.5509 0.0000 32.6839 0.0000
# 6 0.0000 0.0000 0.0000 6.9078 0.0000 12.1168
#
#
#
# Elastic Compliance Matrix: (Units=1/GPa)
#
#
# Indices 1 2 3 4 5 6 
#
# 1 0.028698 -0.006049 -0.005506 0.000000 -0.000817 0.000000
# 2 -0.006049 0.010505 -0.002932 0.000000 -0.002760 0.000000
# 3 -0.005506 -0.002932 0.010070 0.000000 0.007305 0.000000
# 4 0.000000 0.000000 0.000000 0.043367 0.000000 -0.024724
# 5 -0.000817 -0.002760 0.007305 0.000000 0.036302 0.000000
# 6 0.000000 0.000000 0.000000 -0.024724 0.000000 0.096625
#
#
# Mechanical properties :
#
#
# Convention : Reuss Voigt Hill
#
# Bulk Modulus (GPa) = 49.26090 71.20527 60.23309
# Shear Modulus (GPa) = 19.13451 27.77206 23.45328
#
# Velocity S-wave (km/s) = 3.16134 3.80861 3.49997
# Velocity P-wave (km/s) = 6.24938 7.51875 6.91326
#
# Compressibility (1/GPa) = 0.02030007
#
# Stress axis : x y z
#
# Youngs Moduli (GPa) = 34.84535 95.19226 99.30176
#
# Poissons Ratio (x) = 0.57580 0.54680
# Poissons Ratio (y) = 0.21077 0.29111
# Poissons Ratio (z) = 0.19187 0.27906
#
# Static dielectric constant tensor:
#      x y z
#    x 1.712580 0.000000 -0.026520 
#    y 0.000000 1.697450 0.000000 
#    z -0.026520 0.000000 1.713960 
# 
# From -- ./inp_files/248574.got.cif
#   From: 2010.05.17/outbox.cif.g08.bks.cpg/sg15_125_cif.got.tgz:248574.got - 2010.06.03 18:47:42.
