data_PCOD9267863
_publ_section_title
;
Structure prediction by ZEFSAII (Michael W. Deem and Ramdas Pophale) SiO2 
 PCOD9267863
Probable space group: C 2/C
;
_chemical_formula_sum "Si O2"
_cell_formula_units_Z 52
_cell_length_a 19.734940
_cell_length_b 8.447168
_cell_length_c 18.552025
_cell_angle_alpha 90.000000
_cell_angle_beta 118.097686
_cell_angle_gamma 90.000000
_cell_volume 2728.215531
_symmetry_space_group_name_H-M "C 2/C"
_symmetry_group_IT_number 15
_symmetry_cell_setting 'monoclinic'
loop_
_space_group_symop_operation_xyz
x,y,z
-x,y,1/2-z
-x,-y,-z
x,-y,1/2+z
1/2+x,1/2+y,z
1/2-x,1/2+y,1/2-z
1/2-x,1/2-y,-z
1/2+x,1/2-y,1/2+z
loop_
_atom_site_type_symbol
_atom_site_label
_atom_site_fract_x
_atom_site_fract_y
_atom_site_fract_z
Si Si1 0.273704 0.563583 0.811890
Si Si2 0.139589 0.314824 0.729500
Si Si3 0.184614 0.763469 0.025201
Si Si4 0.589605 0.672224 0.079604
Si Si5 0.451240 0.495446 0.583308
Si Si6 0.000000 0.817923 0.250000
Si Si7 0.911458 0.472308 0.938219
O O1 0.194850 0.465865 0.769272
O O2 0.304612 0.664253 0.758857
O O3 0.275429 0.682180 0.880347
O O4 0.339984 0.438190 0.863799
O O5 0.096777 0.353196 0.632850
O O6 0.073278 0.279059 0.754669
O O7 0.136143 0.606918 0.020991
O O8 0.250000 0.750000 0.000000
O O9 0.125281 0.892857 0.964845
O O10 0.520704 0.622814 0.097996
O O11 0.616034 0.852466 0.095427
O O12 0.557375 0.626995 0.984132
O O13 0.468200 0.576004 0.667966
O O14 0.000000 0.500000 0.000000
#
# Coordination Sequence:
#
# PCOD9267863 Si02
#       7
#     8   8   8   8   8   4   8
#     4  10  22  41  64  86 123 169 209 252 319 386
#     4  11  24  41  62  95 130 164 210 269 318 383
#     4  10  23  41  60  92 126 162 210 262 314 381
#     4  10  19  40  68  87 113 172 219 248 309 386
#     4  10  21  40  64  88 125 165 210 260 316 381
#     4  12  24  40  64  98 132 164 210 276 328 368
#     4  11  21  38  66  90 120 167 212 257 309 382
#
# _framework density 19.060078000000001
#
# number of rings (size 3 to 8) (size 9 to 14) (size 15 to 20)
#    0.000    1.538    3.077    1.846    0.000    6.154 
#    2.769    3.077    0.000    0.000    0.000    0.000 
#    0.000    0.000    0.000    0.000    0.000    0.000 
#
# Total GULP energy -145064.408718 kJ/mol
# GULP energy per Si atom -5579.400335 kJ/mol
# Density = 1.901670 g / cm^3
# Si number density = 19.060078 Si / 1000 Ang^3
#
#
#
# Elastic Constant Matrix: (Units=GPa)
#
#
# Indices 1 2 3 4 5 6 
#
# 1 178.9471 58.9800 49.6086 0.0000 -9.0962 0.0000
# 2 58.9800 101.0920 18.6547 0.0000 -6.4780 0.0000
# 3 49.6086 18.6547 70.9416 0.0000 2.6741 0.0000
# 4 0.0000 0.0000 0.0000 24.4965 0.0000 5.9646
# 5 -9.0962 -6.4780 2.6741 0.0000 27.4376 0.0000
# 6 0.0000 0.0000 0.0000 5.9646 0.0000 20.9839
#
#
#
# Elastic Compliance Matrix: (Units=1/GPa)
#
#
# Indices 1 2 3 4 5 6 
#
# 1 0.008319 -0.003798 -0.004907 0.000000 0.002340 0.000000
# 2 -0.003798 0.012339 -0.000653 0.000000 0.001718 0.000000
# 3 -0.004907 -0.000653 0.017832 0.000000 -0.003519 0.000000
# 4 0.000000 0.000000 0.000000 0.043858 0.000000 -0.012466
# 5 0.002340 0.001718 -0.003519 0.000000 0.037970 0.000000
# 6 0.000000 0.000000 0.000000 -0.012466 0.000000 0.051199
#
#
# Mechanical properties :
#
#
# Convention : Reuss Voigt Hill
#
# Bulk Modulus (GPa) = 50.57434 67.27417 58.92425
# Shear Modulus (GPa) = 25.40322 29.49941 27.45132
#
# Velocity S-wave (km/s) = 3.65471 3.93836 3.79918
# Velocity P-wave (km/s) = 6.66341 7.48688 7.08711
#
# Compressibility (1/GPa) = 0.01977287
#
# Stress axis : x y z
#
# Youngs Moduli (GPa) = 120.20020 81.04614 56.07918
#
# Poissons Ratio (x) = 0.30784 0.27518
# Poissons Ratio (y) = 0.45657 0.03663
# Poissons Ratio (z) = 0.58983 0.05293
#
# Static dielectric constant tensor:
#      x y z
#    x 1.663140 0.000000 0.017090 
#    y 0.000000 1.767510 0.000000 
#    z 0.017090 0.000000 1.680760 
# 
# From -- ./inp_files/181066.got.cif
#   From: 2010.05.17/outbox.cif.g08.bks.cpg/sg15_91_cif.got.tgz:181066.got - 2010.06.03 18:47:42.
