data_PCOD9267201
_publ_section_title
;
Structure prediction by ZEFSAII (Michael W. Deem and Ramdas Pophale) SiO2 
 PCOD9267201
Probable space group: C 2/C
;
_chemical_formula_sum "Si O2"
_cell_formula_units_Z 64
_cell_length_a 11.656046
_cell_length_b 14.856718
_cell_length_c 25.497949
_cell_angle_alpha 90.000000
_cell_angle_beta 39.483611
_cell_angle_gamma 90.000000
_cell_volume 2807.625404
_symmetry_space_group_name_H-M "C 2/C"
_symmetry_group_IT_number 15
_symmetry_cell_setting 'monoclinic'
loop_
_space_group_symop_operation_xyz
x,y,z
-x,y,1/2-z
-x,-y,-z
x,-y,1/2+z
1/2+x,1/2+y,z
1/2-x,1/2+y,1/2-z
1/2-x,1/2-y,-z
1/2+x,1/2-y,1/2+z
loop_
_atom_site_type_symbol
_atom_site_label
_atom_site_fract_x
_atom_site_fract_y
_atom_site_fract_z
Si Si1 0.854753 0.784293 0.735086
Si Si2 0.950656 0.399624 0.328894
Si Si3 0.868429 0.203494 0.597633
Si Si4 0.998665 0.703900 0.955025
Si Si5 0.398992 0.633134 0.426143
Si Si6 0.001454 0.950345 0.123947
Si Si7 0.180993 0.530050 0.904371
Si Si8 0.832803 0.544720 0.202451
O O1 0.783798 0.759712 0.817764
O O2 0.691822 0.850641 0.772896
O O3 0.926968 0.684453 0.693472
O O4 0.020063 0.849863 0.661098
O O5 0.747322 0.361851 0.399650
O O6 0.000000 0.415256 0.250000
O O7 0.984274 0.491498 0.348248
O O8 0.985561 0.268907 0.520639
O O9 0.973406 0.141766 0.602502
O O10 0.014461 0.795975 0.918259
O O11 0.145226 0.629055 0.894274
O O12 0.808185 0.660443 0.004312
O O13 0.435037 0.534016 0.433915
O O14 0.152174 0.955784 0.115800
O O15 0.812207 0.983559 0.215010
O O16 0.205564 0.465563 0.845903
O O17 0.000000 0.500000 0.000000
#
# Coordination Sequence:
#
# PCOD9267201 Si02
#       8
#     8   8   8   8   8   8   8   8
#     4  10  20  37  66  95 123 164 217 259 313 378
#     4  10  19  38  67  95 122 163 214 267 318 381
#     4  11  23  40  67  93 128 171 215 264 322 390
#     4  11  23  39  63  92 126 166 211 266 318 386
#     4  10  22  39  63  93 122 164 216 265 312 378
#     4  11  24  42  64  92 129 168 215 266 320 381
#     4  12  25  41  61  94 132 168 213 260 327 381
#     4  11  23  40  69  98 125 167 218 275 315 377
#
# _framework density 22.795065000000001
#
# number of rings (size 3 to 8) (size 9 to 14) (size 15 to 20)
#    0.000    1.250    5.000    1.875    1.750    3.000 
#    0.000    1.250    2.750    0.000    0.000    0.000 
#    0.000    0.000    0.000    0.000    0.000    0.000 
#
# Total GULP energy -178464.375379 kJ/mol
# GULP energy per Si atom -5577.011731 kJ/mol
# Density = 2.274318 g / cm^3
# Si number density = 22.795065 Si / 1000 Ang^3
#
#
#
# Elastic Constant Matrix: (Units=GPa)
#
#
# Indices 1 2 3 4 5 6 
#
# 1 64.4381 34.8916 8.4172 0.0000 0.8638 0.0000
# 2 34.8916 85.7290 5.9652 -0.0001 -5.0117 0.0001
# 3 8.4172 5.9652 41.3657 -0.0002 11.1382 0.0000
# 4 0.0000 -0.0001 -0.0002 26.7473 0.0001 1.8320
# 5 0.8638 -5.0117 11.1382 0.0001 24.9626 0.0000
# 6 0.0000 0.0001 0.0000 1.8320 0.0000 37.8662
#
#
#
# Elastic Compliance Matrix: (Units=1/GPa)
#
#
# Indices 1 2 3 4 5 6 
#
# 1 0.020287 -0.008141 -0.002643 0.000000 -0.001157 0.000000
# 2 -0.008141 0.015333 -0.001659 0.000000 0.004100 0.000000
# 3 -0.002643 -0.001659 0.028433 0.000000 -0.012928 0.000000
# 4 0.000000 0.000000 0.000000 0.037511 0.000000 -0.001815
# 5 -0.001157 0.004100 -0.012928 0.000000 0.046692 0.000000
# 6 0.000000 0.000000 0.000000 -0.001815 0.000000 0.026497
#
#
# Mechanical properties :
#
#
# Convention : Reuss Voigt Hill
#
# Bulk Modulus (GPa) = 25.53030 32.23119 28.88075
# Shear Modulus (GPa) = 23.50808 27.39914 25.45361
#
# Velocity S-wave (km/s) = 3.21484 3.47072 3.34522
# Velocity P-wave (km/s) = 5.00045 5.49831 5.25528
#
# Compressibility (1/GPa) = 0.03916915
#
# Stress axis : x y z
#
# Youngs Moduli (GPa) = 49.29147 65.21858 35.17095
#
# Poissons Ratio (x) = 0.53093 0.09294
# Poissons Ratio (y) = 0.40127 0.05834
# Poissons Ratio (z) = 0.13026 0.10818
#
# Static dielectric constant tensor:
#      x y z
#    x 1.911980 0.000000 0.042000 
#    y 0.000000 1.909260 0.000000 
#    z 0.042000 0.000000 1.919490 
# 
# From -- ./inp_files/293049.got.cif
#   From: 2010.05.17/outbox.cif.g08.bks.cpg/sg15_147_cif.got.tgz:293049.got - 2010.06.03 18:47:42.
