data_PCOD9267030
_publ_section_title
;
Structure prediction by ZEFSAII (Michael W. Deem and Ramdas Pophale) SiO2 
 PCOD9267030
Probable space group: C 2/C
;
_chemical_formula_sum "Si O2"
_cell_formula_units_Z 56
_cell_length_a 7.438178
_cell_length_b 17.910910
_cell_length_c 20.006621
_cell_angle_alpha 90.000000
_cell_angle_beta 65.432015
_cell_angle_gamma 90.000000
_cell_volume 2424.072805
_symmetry_space_group_name_H-M "C 2/C"
_symmetry_group_IT_number 15
_symmetry_cell_setting 'monoclinic'
loop_
_space_group_symop_operation_xyz
x,y,z
-x,y,1/2-z
-x,-y,-z
x,-y,1/2+z
1/2+x,1/2+y,z
1/2-x,1/2+y,1/2-z
1/2-x,1/2-y,-z
1/2+x,1/2-y,1/2+z
loop_
_atom_site_type_symbol
_atom_site_label
_atom_site_fract_x
_atom_site_fract_y
_atom_site_fract_z
Si Si1 0.648839 0.108582 0.089040
Si Si2 0.108208 0.282086 0.824342
Si Si3 0.164170 0.397015 0.383304
Si Si4 0.268138 0.562580 0.564902
Si Si5 0.000000 0.146770 0.750000
Si Si6 0.926650 0.824410 0.441138
Si Si7 0.500000 0.623289 0.250000
Si Si8 0.732979 0.442517 0.590521
O O1 0.566668 0.158205 0.162550
O O2 0.440110 0.096351 0.080974
O O3 0.733002 0.025046 0.085996
O O4 0.808420 0.159972 0.027164
O O5 0.059371 0.248197 0.906658
O O6 0.310741 0.322308 0.775139
O O7 0.088870 0.204913 0.788756
O O8 0.317490 0.403006 0.299690
O O9 0.250862 0.329766 0.413545
O O10 0.200612 0.471331 0.420025
O O11 0.940942 0.395648 0.395144
O O12 0.430378 0.603124 0.584559
O O13 0.320318 0.573450 0.478072
O O14 0.434274 0.576783 0.327495
#
# Coordination Sequence:
#
# PCOD9267030 Si02
#       8
#     8   8   8   8   4   8   4   8
#     4  10  19  39  60  90 125 156 202 266 316 366
#     4  10  24  40  60  84 129 172 204 260 312 381
#     4  10  20  39  61  91 123 150 211 256 311 370
#     4  11  21  36  69  95 119 158 209 268 319 366
#     4  10  23  40  60  79 122 180 196 248 316 377
#     4  11  21  37  63  94 121 159 202 260 315 370
#     4  10  23  40  60  85 126 160 212 248 304 379
#     4  10  19  38  64  88 120 163 195 265 314 361
#
# _framework density 23.101614999999999
#
# number of rings (size 3 to 8) (size 9 to 14) (size 15 to 20)
#    0.000    1.714    2.857    2.143    2.000    1.143 
#    0.000    2.857    0.000    0.000    0.000    0.000 
#    0.000    0.000    0.000    0.000    0.000    0.000 
#
# Total GULP energy -156009.989469 kJ/mol
# GULP energy per Si atom -5571.785338 kJ/mol
# Density = 2.304903 g / cm^3
# Si number density = 23.101615 Si / 1000 Ang^3
#
#
#
# Elastic Constant Matrix: (Units=GPa)
#
#
# Indices 1 2 3 4 5 6 
#
# 1 72.7422 17.4197 22.5043 0.0000 -30.5201 0.0000
# 2 17.4197 86.7605 23.4681 0.0000 -10.7565 0.0000
# 3 22.5043 23.4681 115.4397 0.0000 -42.2524 0.0000
# 4 0.0000 0.0000 0.0000 -225.5480 0.0000 -224.1089
# 5 -30.5201 -10.7565 -42.2524 0.0000 37.7190 0.0000
# 6 0.0000 0.0000 0.0000 -224.1089 0.0000 -132.5648
#
#
#
# Elastic Compliance Matrix: (Units=1/GPa)
#
#
# Indices 1 2 3 4 5 6 
#
# 1 0.022397 -0.002924 0.004332 0.000000 0.022141 0.000000
# 2 -0.002924 0.012610 -0.002616 0.000000 -0.001700 0.000000
# 3 0.004332 -0.002616 0.015864 0.000000 0.020530 0.000000
# 4 0.000000 0.000000 0.000000 0.006522 0.000000 -0.011026
# 5 0.022141 -0.001700 0.020530 0.000000 0.066941 0.000000
# 6 0.000000 0.000000 0.000000 -0.011026 0.000000 0.011097
#
#
# Mechanical properties :
#
#
# Convention : Reuss Voigt Hill
#
# Bulk Modulus (GPa) = 20.63694 44.63628 32.63661
# Shear Modulus (GPa) = 32.46826 -49.97541 -8.75358
#
# Velocity S-wave (km/s) = 3.75301 -4.65616 -1.94869
# Velocity P-wave (km/s) = 5.26617 3.08914 3.01577
#
# Compressibility (1/GPa) = 0.04845680
#
# Stress axis : x y z
#
# Youngs Moduli (GPa) = 44.64922 79.30359 63.03558
#
# Poissons Ratio (x) = 0.23185 -0.27309
# Poissons Ratio (y) = 0.13054 0.16488
# Poissons Ratio (z) = -0.19343 0.20743
#
# Static dielectric constant tensor:
#      x y z
#    x 1.859990 0.000000 0.060460 
#    y 0.000000 1.888770 0.000000 
#    z 0.060460 0.000000 2.050210 
# 
# From -- ./inp_files/265504.got.cif
#   From: 2010.05.17/outbox.cif.g08.bks.cpg/sg15_133_cif.got.tgz:265504.got - 2010.06.03 18:47:42.
