data_PCOD9267917
_publ_section_title
;
Structure prediction by ZEFSAII (Michael W. Deem and Ramdas Pophale) SiO2 
 PCOD9267917
Probable space group: C 2/C
;
_chemical_formula_sum "Si O2"
_cell_formula_units_Z 40
_cell_length_a 12.203536
_cell_length_b 14.520203
_cell_length_c 9.939167
_cell_angle_alpha 90.000000
_cell_angle_beta 58.737929
_cell_angle_gamma 90.000000
_cell_volume 1505.477174
_symmetry_space_group_name_H-M "C 2/C"
_symmetry_group_IT_number 15
_symmetry_cell_setting 'monoclinic'
loop_
_space_group_symop_operation_xyz
x,y,z
-x,y,1/2-z
-x,-y,-z
x,-y,1/2+z
1/2+x,1/2+y,z
1/2-x,1/2+y,1/2-z
1/2-x,1/2-y,-z
1/2+x,1/2-y,1/2+z
loop_
_atom_site_type_symbol
_atom_site_label
_atom_site_fract_x
_atom_site_fract_y
_atom_site_fract_z
Si Si1 0.895021 0.786992 0.928690
Si Si2 0.318270 0.481560 0.043698
Si Si3 0.167394 0.497552 0.882208
Si Si4 0.771302 0.663416 0.345079
Si Si5 0.079592 0.310640 0.479087
O O1 0.000000 0.756500 0.750000
O O2 0.953874 0.746086 0.027087
O O3 0.750000 0.750000 0.000000
O O4 0.899678 0.898038 0.934649
O O5 0.290425 0.462357 0.218737
O O6 0.339676 0.591754 0.026775
O O7 0.195936 0.477118 0.019249
O O8 0.158208 0.405267 0.801726
O O9 0.073558 0.584147 0.930318
O O10 0.868395 0.686436 0.402165
O O11 0.695472 0.750596 0.339123
#
# Coordination Sequence:
#
# PCOD9267917 Si02
#       5
#     8   8   8   8   8
#     4  12  26  44  74 112 152 208 260 322 387 474
#     4   9  20  39  68 105 148 195 255 315 382 458
#     4   9  18  39  71 109 148 198 251 319 384 464
#     4   8  19  38  71 107 147 197 255 315 394 455
#     4  10  19  40  72 105 155 197 257 318 392 467
#
# _framework density 26.569648000000001
#
# number of rings (size 3 to 8) (size 9 to 14) (size 15 to 20)
#    1.200    1.200    0.000    2.400    0.000    0.800 
#    0.000    4.000    4.400   22.800    0.000    0.000 
#    0.000    0.000    0.000    0.000    0.000    0.000 
#
# Total GULP energy -111481.862002 kJ/mol
# GULP energy per Si atom -5574.093100 kJ/mol
# Density = 2.650917 g / cm^3
# Si number density = 26.569648 Si / 1000 Ang^3
#
#
#
# Elastic Constant Matrix: (Units=GPa)
#
#
# Indices 1 2 3 4 5 6 
#
# 1 140.7307 62.0924 22.1809 0.0000 -7.1620 0.0000
# 2 62.0924 183.7200 33.7516 0.0000 -11.5566 0.0000
# 3 22.1809 33.7516 79.1899 0.0000 -19.5441 0.0000
# 4 0.0000 0.0000 0.0000 46.7251 0.0000 6.1738
# 5 -7.1620 -11.5566 -19.5441 0.0000 30.8482 0.0000
# 6 0.0000 0.0000 0.0000 6.1738 0.0000 40.4857
#
#
#
# Elastic Compliance Matrix: (Units=1/GPa)
#
#
# Indices 1 2 3 4 5 6 
#
# 1 0.008465 -0.002627 -0.001196 0.000000 0.000223 0.000000
# 2 -0.002627 0.006735 -0.001971 0.000000 0.000665 0.000000
# 3 -0.001196 -0.001971 0.016064 0.000000 0.009161 0.000000
# 4 0.000000 0.000000 0.000000 0.021842 0.000000 -0.003331
# 5 0.000223 0.000665 0.009161 0.000000 0.038522 0.000000
# 6 0.000000 0.000000 0.000000 -0.003331 0.000000 0.025208
#
#
# Mechanical properties :
#
#
# Convention : Reuss Voigt Hill
#
# Bulk Modulus (GPa) = 50.82399 71.07672 60.95035
# Shear Modulus (GPa) = 37.04215 42.65285 39.84750
#
# Velocity S-wave (km/s) = 3.73789 4.01099 3.87685
# Velocity P-wave (km/s) = 6.14810 6.94694 6.55969
#
# Compressibility (1/GPa) = 0.01967575
#
# Stress axis : x y z
#
# Youngs Moduli (GPa) = 118.13678 148.48328 62.25157
#
# Poissons Ratio (x) = 0.39008 0.07446
# Poissons Ratio (y) = 0.31035 0.12267
# Poissons Ratio (z) = 0.14131 0.29260
#
# Static dielectric constant tensor:
#      x y z
#    x 2.078220 0.000000 -0.097080 
#    y 0.000000 2.067550 0.000000 
#    z -0.097080 0.000000 2.269010 
# 
# From -- ./inp_files/87078.got.cif
#   From: 2010.05.17/outbox.cif.g08.bks.cpg/sg15_44_cif.got.tgz:87078.got - 2010.06.03 18:47:42.
