data_PCOD9267705
_publ_section_title
;
Structure prediction by ZEFSAII (Michael W. Deem and Ramdas Pophale) SiO2 
 PCOD9267705
Probable space group: C 2/C
;
_chemical_formula_sum "Si O2"
_cell_formula_units_Z 40
_cell_length_a 9.501651
_cell_length_b 20.144842
_cell_length_c 16.861654
_cell_angle_alpha 90.000000
_cell_angle_beta 140.465016
_cell_angle_gamma 90.000000
_cell_volume 2054.447845
_symmetry_space_group_name_H-M "C 2/C"
_symmetry_group_IT_number 15
_symmetry_cell_setting 'monoclinic'
loop_
_space_group_symop_operation_xyz
x,y,z
-x,y,1/2-z
-x,-y,-z
x,-y,1/2+z
1/2+x,1/2+y,z
1/2-x,1/2+y,1/2-z
1/2-x,1/2-y,-z
1/2+x,1/2-y,1/2+z
loop_
_atom_site_type_symbol
_atom_site_label
_atom_site_fract_x
_atom_site_fract_y
_atom_site_fract_z
Si Si1 0.810730 0.403611 0.918202
Si Si2 0.291197 0.558291 0.603968
Si Si3 0.332631 0.353045 0.978053
Si Si4 0.921419 0.846913 0.836485
Si Si5 0.938926 0.247651 0.809914
O O1 0.753926 0.479797 0.913423
O O2 0.671118 0.355151 0.914376
O O3 0.719934 0.388020 0.790319
O O4 0.074562 0.400953 0.037956
O O5 0.500000 0.570542 0.750000
O O6 0.328936 0.582840 0.531357
O O7 0.499359 0.301451 0.092763
O O8 0.391335 0.369843 0.913600
O O9 0.101016 0.312369 0.881900
O O10 0.809389 0.774235 0.789702
O O11 0.000000 0.218398 0.750000
#
# Coordination Sequence:
#
# PCOD9267705 Si02
#       5
#     8   8   8   8   8
#     4  10  22  39  58  89 121 163 191 246 318 346
#     4  11  21  38  62  85 122 159 205 245 289 365
#     4  10  20  33  64  90 112 161 206 246 288 362
#     4  10  19  40  62  86 126 153 200 247 310 360
#     4   9  18  35  60  90 119 155 203 248 301 358
#
# _framework density 19.469950999999998
#
# number of rings (size 3 to 8) (size 9 to 14) (size 15 to 20)
#    0.000    2.000    4.000    0.600    0.000    0.800 
#    0.000    5.000    0.000    0.000    0.000    0.000 
#    0.000    0.000    0.000    0.000    0.000    0.000 
#
# Total GULP energy -111537.918392 kJ/mol
# GULP energy per Si atom -5576.895920 kJ/mol
# Density = 1.942564 g / cm^3
# Si number density = 19.469951 Si / 1000 Ang^3
#
#
#
# Elastic Constant Matrix: (Units=GPa)
#
#
# Indices 1 2 3 4 5 6 
#
# 1 145.0487 41.0105 71.6468 0.0005 -9.9123 0.0003
# 2 41.0105 45.6182 18.2876 0.0002 -16.4522 0.0002
# 3 71.6468 18.2876 91.0626 0.0003 -5.1550 0.0000
# 4 0.0005 0.0002 0.0003 55.4591 0.0016 14.7272
# 5 -9.9123 -16.4522 -5.1550 0.0016 45.2063 0.0010
# 6 0.0003 0.0002 0.0000 14.7272 0.0010 31.6175
#
#
#
# Elastic Compliance Matrix: (Units=1/GPa)
#
#
# Indices 1 2 3 4 5 6 
#
# 1 0.014008 -0.009406 -0.009212 0.000000 -0.001402 0.000000
# 2 -0.009406 0.033598 0.001236 0.000000 0.010306 0.000000
# 3 -0.009212 0.001236 0.018008 0.000000 0.000484 0.000000
# 4 0.000000 0.000000 0.000000 0.020576 -0.000001 -0.009584
# 5 -0.001402 0.010306 0.000484 -0.000001 0.025619 -0.000001
# 6 0.000000 0.000000 0.000000 -0.009584 -0.000001 0.036092
#
#
# Mechanical properties :
#
#
# Convention : Reuss Voigt Hill
#
# Bulk Modulus (GPa) = 32.41278 60.40215 46.40746
# Shear Modulus (GPa) = 25.91368 36.50888 31.21128
#
# Velocity S-wave (km/s) = 3.65219 4.33499 4.00815
# Velocity P-wave (km/s) = 5.87098 7.49311 6.73109
#
# Compressibility (1/GPa) = 0.03085203
#
# Stress axis : x y z
#
# Youngs Moduli (GPa) = 71.38833 29.76362 55.53055
#
# Poissons Ratio (x) = 0.27995 0.51153
# Poissons Ratio (y) = 0.67147 -0.06866
# Poissons Ratio (z) = 0.65760 -0.03680
#
# Static dielectric constant tensor:
#      x y z
#    x 1.702570 0.000000 0.030160 
#    y 0.000000 1.683440 0.000000 
#    z 0.030160 0.000000 1.704830 
# 
# From -- ./inp_files/77619.got.cif
#   From: 2010.05.17/outbox.cif.g08.bks.cpg/sg15_39_cif.got.tgz:77619.got - 2010.06.03 18:47:42.
