data_PCOD9267585
_publ_section_title
;
Structure prediction by ZEFSAII (Michael W. Deem and Ramdas Pophale) SiO2 
 PCOD9267585
Probable space group: C 2/C
;
_chemical_formula_sum "Si O2"
_cell_formula_units_Z 52
_cell_length_a 8.171462
_cell_length_b 22.367980
_cell_length_c 14.805000
_cell_angle_alpha 90.000000
_cell_angle_beta 49.639449
_cell_angle_gamma 90.000000
_cell_volume 2061.963648
_symmetry_space_group_name_H-M "C 2/C"
_symmetry_group_IT_number 15
_symmetry_cell_setting 'monoclinic'
loop_
_space_group_symop_operation_xyz
x,y,z
-x,y,1/2-z
-x,-y,-z
x,-y,1/2+z
1/2+x,1/2+y,z
1/2-x,1/2+y,1/2-z
1/2-x,1/2-y,-z
1/2+x,1/2-y,1/2+z
loop_
_atom_site_type_symbol
_atom_site_label
_atom_site_fract_x
_atom_site_fract_y
_atom_site_fract_z
Si Si1 0.431074 0.345855 0.628125
Si Si2 0.401570 0.520302 0.130602
Si Si3 0.793830 0.274438 0.167216
Si Si4 0.035005 0.821994 0.088746
Si Si5 0.310645 0.564655 0.886713
Si Si6 0.000000 0.439893 0.250000
Si Si7 0.608262 0.125387 0.533652
O O1 0.328489 0.411201 0.659509
O O2 0.293766 0.290760 0.713588
O O3 0.478343 0.313795 0.513442
O O4 0.657740 0.364001 0.590649
O O5 0.607368 0.501391 0.118770
O O6 0.190591 0.480281 0.224931
O O7 0.500000 0.500000 0.000000
O O8 0.667844 0.281887 0.115621
O O9 0.691518 0.317397 0.280836
O O10 0.013918 0.308174 0.070792
O O11 0.140343 0.887554 0.053095
O O12 0.500000 0.584105 0.750000
O O13 0.068079 0.581033 0.948089
O O14 0.118793 0.401758 0.130666
#
# Coordination Sequence:
#
# PCOD9267585 Si02
#       7
#     8   8   8   8   8   4   8
#     4  12  24  39  63  98 135 166 225 271 328 406
#     4  12  24  41  66 100 131 168 223 274 325 399
#     4  10  21  38  64  94 127 167 224 274 330 392
#     4  10  19  39  67  92 124 178 218 274 331 396
#     4  11  19  40  69  93 125 171 224 264 327 404
#     4  12  22  42  68  96 122 178 216 268 330 394
#     4  11  21  37  67  90 123 172 221 265 327 392
#
# _framework density 25.218679000000002
#
# number of rings (size 3 to 8) (size 9 to 14) (size 15 to 20)
#    0.000    0.923    7.692    1.846    0.000    1.846 
#    0.000    0.000    8.462    0.000    0.000    0.000 
#    0.000    0.000    0.000    0.000    0.000    0.000 
#
# Total GULP energy -144854.400985 kJ/mol
# GULP energy per Si atom -5571.323115 kJ/mol
# Density = 2.516128 g / cm^3
# Si number density = 25.218679 Si / 1000 Ang^3
#
#
#
# Elastic Constant Matrix: (Units=GPa)
#
#
# Indices 1 2 3 4 5 6 
#
# 1 80.7062 42.3626 -2.3448 0.0000 -12.6566 0.0000
# 2 42.3626 174.3215 -8.1094 0.0000 -4.4159 0.0000
# 3 -2.3448 -8.1094 8.6465 0.0000 -2.2732 0.0000
# 4 0.0000 0.0000 0.0000 14.8330 0.0000 1.7576
# 5 -12.6566 -4.4159 -2.2732 0.0000 25.8814 0.0000
# 6 0.0000 0.0000 0.0000 1.7576 0.0000 37.3368
#
#
#
# Elastic Compliance Matrix: (Units=1/GPa)
#
#
# Indices 1 2 3 4 5 6 
#
# 1 0.015401 -0.003428 0.002854 0.000000 0.007198 0.000000
# 2 -0.003428 0.006823 0.005461 0.000000 -0.000032 0.000000
# 3 0.002854 0.005461 0.125049 0.000000 0.013311 0.000000
# 4 0.000000 0.000000 0.000000 0.067795 0.000000 -0.003191
# 5 0.007198 -0.000032 0.013311 0.000000 0.043321 0.000000
# 6 0.000000 0.000000 0.000000 -0.003191 0.000000 0.026933
#
#
# Mechanical properties :
#
#
# Convention : Reuss Voigt Hill
#
# Bulk Modulus (GPa) = 6.36749 36.38789 21.37769
# Shear Modulus (GPa) = 15.24865 31.06129 23.15497
#
# Velocity S-wave (km/s) = 2.46165 3.51333 3.03342
# Velocity P-wave (km/s) = 3.25730 5.56042 4.55677
#
# Compressibility (1/GPa) = 0.15704769
#
# Stress axis : x y z
#
# Youngs Moduli (GPa) = 64.92886 146.56913 7.99687
#
# Poissons Ratio (x) = 0.50239 -0.02282
# Poissons Ratio (y) = 0.22256 -0.04367
# Poissons Ratio (z) = -0.18531 -0.80039
#
# Static dielectric constant tensor:
#      x y z
#    x 2.120010 0.000000 0.027600 
#    y 0.000000 2.197840 0.000000 
#    z 0.027600 0.000000 2.090260 
# 
# From -- ./inp_files/192452.got.cif
#   From: 2010.05.17/outbox.cif.g08.bks.cpg/sg15_97_cif.got.tgz:192452.got - 2010.06.03 18:47:42.
