data_PCOD9267756
_publ_section_title
;
Structure prediction by ZEFSAII (Michael W. Deem and Ramdas Pophale) SiO2 
 PCOD9267756
Probable space group: C 2/C
;
_chemical_formula_sum "Si O2"
_cell_formula_units_Z 48
_cell_length_a 8.870952
_cell_length_b 22.590836
_cell_length_c 11.267122
_cell_angle_alpha 90.000000
_cell_angle_beta 71.033836
_cell_angle_gamma 90.000000
_cell_volume 2135.373359
_symmetry_space_group_name_H-M "C 2/C"
_symmetry_group_IT_number 15
_symmetry_cell_setting 'monoclinic'
loop_
_space_group_symop_operation_xyz
x,y,z
-x,y,1/2-z
-x,-y,-z
x,-y,1/2+z
1/2+x,1/2+y,z
1/2-x,1/2+y,1/2-z
1/2-x,1/2-y,-z
1/2+x,1/2-y,1/2+z
loop_
_atom_site_type_symbol
_atom_site_label
_atom_site_fract_x
_atom_site_fract_y
_atom_site_fract_z
Si Si1 0.059725 0.432287 0.992002
Si Si2 0.000000 0.743877 0.750000
Si Si3 0.912950 0.825342 0.562529
Si Si4 0.232365 0.132135 0.607179
Si Si5 0.664475 0.572586 0.268675
Si Si6 0.000000 0.039488 0.750000
Si Si7 0.737380 0.852084 0.119137
O O1 0.184192 0.422404 0.853966
O O2 0.155492 0.410668 0.084913
O O3 0.000000 0.500000 0.000000
O O4 0.905575 0.390684 0.026894
O O5 0.903654 0.781994 0.677205
O O6 0.885691 0.702154 0.857471
O O7 0.832213 0.813964 0.455624
O O8 0.822479 0.885929 0.622622
O O9 0.099079 0.837860 0.489742
O O10 0.234551 0.143535 0.747581
O O11 0.103052 0.078963 0.635791
O O12 0.500000 0.595660 0.250000
O O13 0.618485 0.503674 0.292651
#
# Coordination Sequence:
#
# PCOD9267756 Si02
#       7
#     8   4   8   8   8   4   8
#     4  12  23  44  70 106 145 183 230 291 347 427
#     4  12  25  46  76  98 134 185 242 312 354 408
#     4  12  25  46  71 100 137 187 243 290 359 424
#     4  12  25  42  69 106 141 184 233 291 351 433
#     4  10  21  41  67 102 138 186 229 275 350 424
#     4  10  19  40  64 100 136 183 222 270 356 408
#     4  12  24  47  72 100 138 183 242 287 362 426
#
# _framework density 22.478504000000001
#
# number of rings (size 3 to 8) (size 9 to 14) (size 15 to 20)
#    0.500    0.000    7.500    0.500    0.000    3.333 
#    3.000    0.000    0.000    0.000    0.000    0.000 
#    0.000    0.000    0.000    0.000    0.000    0.000 
#
# Total GULP energy -133994.734787 kJ/mol
# GULP energy per Si atom -5583.113949 kJ/mol
# Density = 2.242734 g / cm^3
# Si number density = 22.478504 Si / 1000 Ang^3
#
#
#
# Elastic Constant Matrix: (Units=GPa)
#
#
# Indices 1 2 3 4 5 6 
#
# 1 78.2273 22.0195 51.1343 0.0000 -12.3460 0.0000
# 2 22.0195 86.0441 48.3694 0.0000 7.8916 0.0000
# 3 51.1343 48.3694 120.8578 0.0000 -16.3418 0.0000
# 4 0.0000 0.0000 0.0000 28.3676 0.0000 -12.9250
# 5 -12.3460 7.8916 -16.3418 0.0000 60.5182 0.0000
# 6 0.0000 0.0000 0.0000 -12.9250 0.0000 0.3354
#
#
#
# Elastic Compliance Matrix: (Units=1/GPa)
#
#
# Indices 1 2 3 4 5 6 
#
# 1 0.017872 -0.000821 -0.006980 0.000000 0.001868 0.000000
# 2 -0.000821 0.015882 -0.006551 0.000000 -0.004007 0.000000
# 3 -0.006980 -0.006551 0.014294 0.000000 0.003290 0.000000
# 4 0.000000 0.000000 0.000000 -0.002129 0.000000 -0.082041
# 5 0.001868 -0.004007 0.003290 0.000000 0.018316 0.000000
# 6 0.000000 0.000000 0.000000 -0.082041 0.000000 -0.180062
#
#
# Mechanical properties :
#
#
# Convention : Reuss Voigt Hill
#
# Bulk Modulus (GPa) = 51.69576 58.68619 55.19097
# Shear Modulus (GPa) = -61.97749 28.75130 -16.61310
#
# Velocity S-wave (km/s) = -5.25659 3.58027 -2.72153
# Velocity P-wave (km/s) = 3.71410 6.57689 3.83803
#
# Compressibility (1/GPa) = 0.01934395
#
# Stress axis : x y z
#
# Youngs Moduli (GPa) = 55.95344 62.96399 69.95851
#
# Poissons Ratio (x) = 0.05169 0.48834
# Poissons Ratio (y) = 0.04593 0.45829
# Poissons Ratio (z) = 0.39058 0.41247
#
# Static dielectric constant tensor:
#      x y z
#    x 1.911680 0.000000 0.085400 
#    y 0.000000 1.892150 0.000000 
#    z 0.085400 0.000000 1.836910 
# 
# From -- ./inp_files/79807.got.cif
#   From: 2010.05.17/outbox.cif.g08.bks.cpg/sg15_40_cif.got.tgz:79807.got - 2010.06.03 18:47:42.
