data_PCOD9267442
_publ_section_title
;
Structure prediction by ZEFSAII (Michael W. Deem and Ramdas Pophale) SiO2 
 PCOD9267442
Probable space group: C 2/C
;
_chemical_formula_sum "Si O2"
_cell_formula_units_Z 64
_cell_length_a 17.930021
_cell_length_b 8.590585
_cell_length_c 32.636559
_cell_angle_alpha 90.000000
_cell_angle_beta 141.988096
_cell_angle_gamma 90.000000
_cell_volume 3095.746173
_symmetry_space_group_name_H-M "C 2/C"
_symmetry_group_IT_number 15
_symmetry_cell_setting 'monoclinic'
loop_
_space_group_symop_operation_xyz
x,y,z
-x,y,1/2-z
-x,-y,-z
x,-y,1/2+z
1/2+x,1/2+y,z
1/2-x,1/2+y,1/2-z
1/2-x,1/2-y,-z
1/2+x,1/2-y,1/2+z
loop_
_atom_site_type_symbol
_atom_site_label
_atom_site_fract_x
_atom_site_fract_y
_atom_site_fract_z
Si Si1 0.778052 0.390540 0.951860
Si Si2 0.951356 0.228877 0.967509
Si Si3 0.648305 0.069613 0.925229
Si Si4 0.190821 0.075290 0.069456
Si Si5 0.133895 0.480620 0.209592
Si Si6 0.358438 0.482863 0.681975
Si Si7 0.366342 0.179658 0.211468
Si Si8 0.287994 0.220211 0.323160
O O1 0.891048 0.361498 0.969732
O O2 0.708411 0.230546 0.934759
O O3 0.682775 0.485527 0.883057
O O4 0.824011 0.454859 0.014895
O O5 0.904094 0.228044 0.900147
O O6 0.894042 0.076564 0.964747
O O7 0.095908 0.216688 0.029382
O O8 0.504216 0.076779 0.855835
O O9 0.717847 0.938130 0.928994
O O10 0.274706 0.076190 0.145582
O O11 0.129395 0.616743 0.241361
O O12 0.222925 0.347770 0.266256
O O13 0.180376 0.567319 0.189332
O O14 0.500000 0.470615 0.750000
O O15 0.321808 0.644195 0.687289
O O16 0.301839 0.334129 0.679653
O O17 0.500000 0.169701 0.250000
#
# Coordination Sequence:
#
# PCOD9267442 Si02
#       8
#     8   8   8   8   8   8   8   8
#     4   9  20  40  63  95 123 164 217 261 312 387
#     4   9  20  38  63  87 122 162 211 255 317 375
#     4  10  21  39  65  95 125 165 216 260 320 377
#     4  10  19  39  63  91 120 166 206 260 311 377
#     4  12  24  41  63  92 128 167 207 266 313 375
#     4  10  22  41  64  91 125 165 210 259 311 376
#     4  11  22  39  63  91 123 164 210 254 313 378
#     4  11  24  42  60  93 126 164 213 258 318 376
#
# _framework density 20.67353
#
# number of rings (size 3 to 8) (size 9 to 14) (size 15 to 20)
#    0.000    1.750    2.500    1.500    0.000    3.500 
#   11.250    3.750    0.000    0.000    0.000    0.000 
#    0.000    0.000    0.000    0.000    0.000    0.000 
#
# Total GULP energy -178558.502824 kJ/mol
# GULP energy per Si atom -5579.953213 kJ/mol
# Density = 2.062648 g / cm^3
# Si number density = 20.673530 Si / 1000 Ang^3
#
#
#
# Elastic Constant Matrix: (Units=GPa)
#
#
# Indices 1 2 3 4 5 6 
#
# 1 68.4213 5.6979 46.9156 0.0000 -8.5264 0.0000
# 2 5.6979 22.9390 -0.5528 0.0000 -1.8186 0.0001
# 3 46.9156 -0.5528 126.2055 0.0000 -8.7588 0.0000
# 4 0.0000 0.0000 0.0000 15.8410 0.0000 -9.0837
# 5 -8.5264 -1.8186 -8.7588 0.0000 29.5710 0.0000
# 6 0.0000 0.0001 0.0000 -9.0837 0.0000 21.7027
#
#
#
# Elastic Compliance Matrix: (Units=1/GPa)
#
#
# Indices 1 2 3 4 5 6 
#
# 1 0.020549 -0.005012 -0.007424 0.000000 0.003418 0.000000
# 2 -0.005012 0.045048 0.002198 0.000000 0.001976 0.000000
# 3 -0.007424 0.002198 0.010775 0.000000 0.001186 0.000000
# 4 0.000000 0.000000 0.000000 0.083063 0.000000 0.034766
# 5 0.003418 0.001976 0.001186 0.000000 0.035275 0.000000
# 6 0.000000 0.000000 0.000000 0.034766 0.000000 0.060629
#
#
# Mechanical properties :
#
#
# Convention : Reuss Voigt Hill
#
# Bulk Modulus (GPa) = 17.89021 35.74302 26.81662
# Shear Modulus (GPa) = 16.98090 24.45661 20.71876
#
# Velocity S-wave (km/s) = 2.86909 3.44320 3.16917
# Velocity P-wave (km/s) = 4.43261 5.75624 5.13723
#
# Compressibility (1/GPa) = 0.05589648
#
# Stress axis : x y z
#
# Youngs Moduli (GPa) = 48.66435 22.19831 92.80587
#
# Poissons Ratio (x) = 0.11126 0.68895
# Poissons Ratio (y) = 0.24391 -0.20396
# Poissons Ratio (z) = 0.36126 -0.04878
#
# Static dielectric constant tensor:
#      x y z
#    x 1.738990 0.000000 0.004440 
#    y 0.000000 1.802320 0.000000 
#    z 0.004440 0.000000 1.726570 
# 
# From -- ./inp_files/315745.got.cif
#   From: 2010.05.17/outbox.cif.g08.bks.cpg/sg15_158_cif.got.tgz:315745.got - 2010.06.03 18:47:42.
