data_PCOD9267978
_publ_section_title
;
Structure prediction by ZEFSAII (Michael W. Deem and Ramdas Pophale) SiO2 
 PCOD9267978
Probable space group: C 2/C
;
_chemical_formula_sum "Si O2"
_cell_formula_units_Z 48
_cell_length_a 9.785748
_cell_length_b 19.074834
_cell_length_c 18.761662
_cell_angle_alpha 90.000000
_cell_angle_beta 47.006220
_cell_angle_gamma 90.000000
_cell_volume 2561.518676
_symmetry_space_group_name_H-M "C 2/C"
_symmetry_group_IT_number 15
_symmetry_cell_setting 'monoclinic'
loop_
_space_group_symop_operation_xyz
x,y,z
-x,y,1/2-z
-x,-y,-z
x,-y,1/2+z
1/2+x,1/2+y,z
1/2-x,1/2+y,1/2-z
1/2-x,1/2-y,-z
1/2+x,1/2-y,1/2+z
loop_
_atom_site_type_symbol
_atom_site_label
_atom_site_fract_x
_atom_site_fract_y
_atom_site_fract_z
Si Si1 0.916612 0.446447 0.201885
Si Si2 0.278932 0.032692 0.026219
Si Si3 0.396983 0.563537 0.210430
Si Si4 0.198041 0.170949 0.703109
Si Si5 0.071497 0.620013 0.006614
Si Si6 0.403235 0.826303 0.711309
O O1 0.766254 0.506825 0.239878
O O2 0.809867 0.375434 0.219641
O O3 0.000000 0.447978 0.250000
O O4 0.091622 0.457025 0.087826
O O5 0.302238 0.950710 0.037630
O O6 0.376108 0.086142 0.048173
O O7 0.063391 0.050663 0.095572
O O8 0.500000 0.557954 0.250000
O O9 0.292872 0.636187 0.234180
O O10 0.331239 0.171314 0.585472
O O11 0.140827 0.245095 0.757469
O O12 0.000000 0.137428 0.750000
O O13 0.032942 0.655659 0.096666
O O14 0.500000 0.853575 0.750000
#
# Coordination Sequence:
#
# PCOD9267978 Si02
#       6
#     8   8   8   8   8   8
#     4  11  23  41  61  97 130 154 211 277 305 359
#     4  10  20  37  66  93 119 167 210 255 316 381
#     4  12  21  39  67  91 120 170 211 249 323 378
#     4  10  23  42  63  89 123 177 210 245 321 384
#     4  10  19  41  64  89 126 163 207 263 312 373
#     4  11  24  41  62  94 130 163 211 268 304 364
#
# _framework density 18.738883999999999
#
# number of rings (size 3 to 8) (size 9 to 14) (size 15 to 20)
#    0.000    1.333    3.333    4.000    0.000    4.000 
#    6.000    1.667    0.000    0.000    0.000    0.000 
#    0.000    0.000    0.000    0.000    0.000    0.000 
#
# Total GULP energy -133906.728386 kJ/mol
# GULP energy per Si atom -5579.447016 kJ/mol
# Density = 1.869623 g / cm^3
# Si number density = 18.738884 Si / 1000 Ang^3
#
#
#
# Elastic Constant Matrix: (Units=GPa)
#
#
# Indices 1 2 3 4 5 6 
#
# 1 118.5572 25.9488 54.9967 -0.0001 15.7781 0.0001
# 2 25.9488 63.7734 30.5158 -0.0001 11.7982 0.0000
# 3 54.9967 30.5158 101.0020 -0.0003 -1.6986 0.0001
# 4 -0.0001 -0.0001 -0.0003 22.4243 0.0001 -11.1502
# 5 15.7781 11.7982 -1.6986 0.0001 37.2712 -0.0002
# 6 0.0001 0.0000 0.0001 -11.1502 -0.0002 13.7784
#
#
#
# Elastic Compliance Matrix: (Units=1/GPa)
#
#
# Indices 1 2 3 4 5 6 
#
# 1 0.012371 -0.000934 -0.006542 0.000000 -0.005240 0.000000
# 2 -0.000934 0.019879 -0.005601 0.000000 -0.006153 0.000000
# 3 -0.006542 -0.005601 0.015243 0.000000 0.005237 0.000000
# 4 0.000000 0.000000 0.000000 0.074621 0.000000 0.060388
# 5 -0.005240 -0.006153 0.005237 0.000000 0.031235 0.000000
# 6 0.000000 0.000000 0.000000 0.060388 0.000000 0.121446
#
#
# Mechanical properties :
#
#
# Convention : Reuss Voigt Hill
#
# Bulk Modulus (GPa) = 46.86185 56.25057 51.55621
# Shear Modulus (GPa) = 16.23043 26.15288 21.19166
#
# Velocity S-wave (km/s) = 2.94621 3.73989 3.36652
# Velocity P-wave (km/s) = 6.05274 6.98085 6.53330
#
# Compressibility (1/GPa) = 0.02133932
#
# Stress axis : x y z
#
# Youngs Moduli (GPa) = 80.83205 50.30472 65.60203
#
# Poissons Ratio (x) = 0.04698 0.42919
# Poissons Ratio (y) = 0.07549 0.36743
# Poissons Ratio (z) = 0.52883 0.28175
#
# Static dielectric constant tensor:
#      x y z
#    x 1.648360 0.000000 0.026460 
#    y 0.000000 1.666300 0.000000 
#    z 0.026460 0.000000 1.693950 
# 
# From -- ./inp_files/191975.got.cif
#   From: 2010.05.17/outbox.cif.g08.bks.cpg/sg15_96_cif.got.tgz:191975.got - 2010.06.03 18:47:42.
