data_PCOD9267413
_publ_section_title
;
Structure prediction by ZEFSAII (Michael W. Deem and Ramdas Pophale) SiO2 
 PCOD9267413
Probable space group: C 2/C
;
_chemical_formula_sum "Si O2"
_cell_formula_units_Z 52
_cell_length_a 20.439442
_cell_length_b 7.918589
_cell_length_c 14.117232
_cell_angle_alpha 90.000000
_cell_angle_beta 66.750034
_cell_angle_gamma 90.000000
_cell_volume 2099.342665
_symmetry_space_group_name_H-M "C 2/C"
_symmetry_group_IT_number 15
_symmetry_cell_setting 'monoclinic'
loop_
_space_group_symop_operation_xyz
x,y,z
-x,y,1/2-z
-x,-y,-z
x,-y,1/2+z
1/2+x,1/2+y,z
1/2-x,1/2+y,1/2-z
1/2-x,1/2-y,-z
1/2+x,1/2-y,1/2+z
loop_
_atom_site_type_symbol
_atom_site_label
_atom_site_fract_x
_atom_site_fract_y
_atom_site_fract_z
Si Si1 0.018948 0.783451 0.944436
Si Si2 0.000000 0.732832 0.250000
Si Si3 0.750000 0.750000 0.500000
Si Si4 0.152840 0.721320 0.605504
Si Si5 0.000000 0.255038 0.250000
Si Si6 0.412251 0.919426 0.624778
Si Si7 0.392227 0.578581 0.946963
Si Si8 0.232427 0.558828 0.387602
O O1 0.063790 0.608513 0.914694
O O2 0.014752 0.842805 0.838642
O O3 0.060372 0.911603 0.986522
O O4 0.945801 0.711602 0.029970
O O5 0.044812 0.632625 0.304911
O O6 0.059215 0.841605 0.162328
O O7 0.675073 0.696857 0.499070
O O8 0.733787 0.622308 0.606656
O O9 0.191543 0.592836 0.512895
O O10 0.208556 0.791291 0.651738
O O11 0.076060 0.657349 0.684018
O O12 0.136411 0.894420 0.560000
O O13 0.326867 0.921649 0.660151
#
# Coordination Sequence:
#
# PCOD9267413 Si02
#       8
#     8   4   4   8   4   8   8   8
#     4  10  21  35  65  91 128 165 225 267 338 383
#     4  10  22  36  64  94 133 171 228 278 343 383
#     4  10  20  38  72  84 126 162 216 264 336 384
#     4  10  23  39  65  90 132 168 221 263 345 389
#     4  12  22  40  60  98 127 171 210 280 313 409
#     4  10  19  39  62  96 126 171 218 280 324 399
#     4  10  21  42  60  94 123 176 212 275 321 406
#     4  10  20  42  64  93 123 176 212 276 328 411
#
# _framework density 24.769658
#
# number of rings (size 3 to 8) (size 9 to 14) (size 15 to 20)
#    0.000    1.846    3.077    0.923    0.000    1.846 
#    5.538    0.000    0.000    0.000    0.000    0.000 
#    0.000    0.000    0.000    0.000    0.000    0.000 
#
# Total GULP energy -144763.755954 kJ/mol
# GULP energy per Si atom -5567.836767 kJ/mol
# Density = 2.471328 g / cm^3
# Si number density = 24.769658 Si / 1000 Ang^3
#
#
#
# Elastic Constant Matrix: (Units=GPa)
#
#
# Indices 1 2 3 4 5 6 
#
# 1 177.0865 7.2746 17.0825 0.0000 20.8618 0.0000
# 2 7.2746 64.8211 5.4675 0.0000 10.3382 0.0000
# 3 17.0825 5.4675 81.9674 0.0000 17.1242 0.0000
# 4 0.0000 0.0000 0.0000 26.5035 0.0000 9.7165
# 5 20.8618 10.3382 17.1242 0.0000 43.0524 0.0000
# 6 0.0000 0.0000 0.0000 9.7165 0.0000 21.2335
#
#
#
# Elastic Compliance Matrix: (Units=1/GPa)
#
#
# Indices 1 2 3 4 5 6 
#
# 1 0.006028 -0.000204 -0.000701 0.000000 -0.002593 0.000000
# 2 -0.000204 0.016055 -0.000266 0.000000 -0.003651 0.000000
# 3 -0.000701 -0.000266 0.013392 0.000000 -0.004923 0.000000
# 4 0.000000 0.000000 0.000000 0.045337 0.000000 -0.020746
# 5 -0.002593 -0.003651 -0.004923 0.000000 0.027319 0.000000
# 6 0.000000 0.000000 0.000000 -0.020746 0.000000 0.056589
#
#
# Mechanical properties :
#
#
# Convention : Reuss Voigt Hill
#
# Bulk Modulus (GPa) = 30.18004 42.61380 36.39692
# Shear Modulus (GPa) = 28.07319 37.76125 32.91722
#
# Velocity S-wave (km/s) = 3.37021 3.90872 3.64941
# Velocity P-wave (km/s) = 5.23021 6.13287 5.69944
#
# Compressibility (1/GPa) = 0.03313448
#
# Stress axis : x y z
#
# Youngs Moduli (GPa) = 165.87955 62.28740 74.66949
#
# Poissons Ratio (x) = 0.01269 0.05234
# Poissons Ratio (y) = 0.03381 0.01984
# Poissons Ratio (z) = 0.11628 0.01655
#
# Static dielectric constant tensor:
#      x y z
#    x 2.032900 0.000000 0.016680 
#    y 0.000000 2.175140 0.000000 
#    z 0.016680 0.000000 1.988850 
# 
# From -- ./inp_files/166259.got.cif
#   From: 2010.05.17/outbox.cif.g08.bks.cpg/sg15_84_cif.got.tgz:166259.got - 2010.06.03 18:47:42.
