data_PCOD9267840
_publ_section_title
;
Structure prediction by ZEFSAII (Michael W. Deem and Ramdas Pophale) SiO2 
 PCOD9267840
Probable space group: C 2/C
;
_chemical_formula_sum "Si O2"
_cell_formula_units_Z 52
_cell_length_a 8.649021
_cell_length_b 23.240956
_cell_length_c 22.220527
_cell_angle_alpha 90.000000
_cell_angle_beta 35.747458
_cell_angle_gamma 90.000000
_cell_volume 2609.438112
_symmetry_space_group_name_H-M "C 2/C"
_symmetry_group_IT_number 15
_symmetry_cell_setting 'monoclinic'
loop_
_space_group_symop_operation_xyz
x,y,z
-x,y,1/2-z
-x,-y,-z
x,-y,1/2+z
1/2+x,1/2+y,z
1/2-x,1/2+y,1/2-z
1/2-x,1/2-y,-z
1/2+x,1/2-y,1/2+z
loop_
_atom_site_type_symbol
_atom_site_label
_atom_site_fract_x
_atom_site_fract_y
_atom_site_fract_z
Si Si1 0.589156 0.796186 0.853930
Si Si2 0.314048 0.874563 0.444640
Si Si3 0.619659 0.614165 0.522922
Si Si4 0.583300 0.342230 0.640522
Si Si5 0.964251 0.498618 0.938987
Si Si6 0.000000 0.948476 0.750000
Si Si7 0.262931 0.828398 0.275530
O O1 0.747830 0.802702 0.867143
O O2 0.592099 0.730073 0.833457
O O3 0.778255 0.825170 0.744187
O O4 0.327941 0.833792 0.946172
O O5 0.198739 0.840832 0.538141
O O6 0.576487 0.844211 0.335104
O O7 0.090182 0.880675 0.464536
O O8 0.371473 0.939140 0.447728
O O9 0.444334 0.623388 0.638158
O O10 0.772958 0.553944 0.480213
O O11 0.589306 0.405783 0.668131
O O12 0.244099 0.485836 0.818527
O O13 0.000000 0.500000 0.000000
O O14 0.500000 0.823300 0.250000
#
# Coordination Sequence:
#
# PCOD9267840 Si02
#       7
#     8   8   8   8   8   4   8
#     4  10  19  42  69  85 125 171 216 248 316 379
#     4  11  25  39  62  98 136 159 210 269 322 371
#     4  11  23  41  64  94 128 170 209 262 326 370
#     4  10  19  40  67  91 121 170 214 257 308 388
#     4  12  23  42  66  92 124 173 216 259 312 386
#     4  10  20  40  66  88 118 164 220 260 302 368
#     4  10  22  41  62  93 131 168 202 264 321 369
#
# _framework density 19.927662000000002
#
# number of rings (size 3 to 8) (size 9 to 14) (size 15 to 20)
#    0.000    1.538    6.154    0.923    2.154    1.231 
#    0.000    0.000    6.769    0.000    0.000    0.000 
#    0.000    0.000    0.000    0.000    0.000    0.000 
#
# Total GULP energy -145068.914371 kJ/mol
# GULP energy per Si atom -5579.573630 kJ/mol
# Density = 1.988231 g / cm^3
# Si number density = 19.927662 Si / 1000 Ang^3
#
#
#
# Elastic Constant Matrix: (Units=GPa)
#
#
# Indices 1 2 3 4 5 6 
#
# 1 44.7369 19.3756 35.6328 0.0004 5.0263 -0.0009
# 2 19.3756 70.2667 39.5823 0.0006 -2.9516 -0.0003
# 3 35.6328 39.5823 150.6891 0.0010 23.3052 0.0001
# 4 0.0004 0.0006 0.0010 6.8531 -0.0005 -1.9828
# 5 5.0263 -2.9516 23.3052 -0.0005 26.5263 0.0000
# 6 -0.0009 -0.0003 0.0001 -1.9828 0.0000 7.2883
#
#
#
# Elastic Compliance Matrix: (Units=1/GPa)
#
#
# Indices 1 2 3 4 5 6 
#
# 1 0.028914 -0.005047 -0.005297 0.000001 -0.001387 0.000003
# 2 -0.005047 0.018650 -0.004831 0.000000 0.007276 0.000000
# 3 -0.005297 -0.004831 0.010514 -0.000002 -0.008771 -0.000002
# 4 0.000001 0.000000 -0.000002 0.158386 0.000004 0.043090
# 5 -0.001387 0.007276 -0.008771 0.000004 0.046477 0.000001
# 6 0.000003 0.000000 -0.000002 0.043090 0.000001 0.148928
#
#
# Mechanical properties :
#
#
# Convention : Reuss Voigt Hill
#
# Bulk Modulus (GPa) = 36.06416 50.54156 43.30286
# Shear Modulus (GPa) = 11.07514 19.54036 15.30775
#
# Velocity S-wave (km/s) = 2.36003 3.13479 2.77459
# Velocity P-wave (km/s) = 5.05600 6.20646 5.66053
#
# Compressibility (1/GPa) = 0.02772836
#
# Stress axis : x y z
#
# Youngs Moduli (GPa) = 34.58586 53.61925 95.11021
#
# Poissons Ratio (x) = 0.27063 0.50378
# Poissons Ratio (y) = 0.17456 0.45944
# Poissons Ratio (z) = 0.18320 0.25901
#
# Static dielectric constant tensor:
#      x y z
#    x 1.710180 0.000000 -0.007310 
#    y 0.000000 1.729900 0.000000 
#    z -0.007310 0.000000 1.712480 
# 
# From -- ./inp_files/234373.got.cif
#   From: 2010.05.17/outbox.cif.g08.bks.cpg/sg15_118_cif.got.tgz:234373.got - 2010.06.03 18:47:42.
