data_PCOD9267347
_publ_section_title
;
Structure prediction by ZEFSAII (Michael W. Deem and Ramdas Pophale) SiO2 
 PCOD9267347
Probable space group: C 2/C
;
_chemical_formula_sum "Si O2"
_cell_formula_units_Z 48
_cell_length_a 26.484439
_cell_length_b 9.855703
_cell_length_c 14.709221
_cell_angle_alpha 90.000000
_cell_angle_beta 148.440961
_cell_angle_gamma 90.000000
_cell_volume 2009.474889
_symmetry_space_group_name_H-M "C 2/C"
_symmetry_group_IT_number 15
_symmetry_cell_setting 'monoclinic'
loop_
_space_group_symop_operation_xyz
x,y,z
-x,y,1/2-z
-x,-y,-z
x,-y,1/2+z
1/2+x,1/2+y,z
1/2-x,1/2+y,1/2-z
1/2-x,1/2-y,-z
1/2+x,1/2-y,1/2+z
loop_
_atom_site_type_symbol
_atom_site_label
_atom_site_fract_x
_atom_site_fract_y
_atom_site_fract_z
Si Si1 0.121274 0.966954 0.275633
Si Si2 0.000000 0.095281 0.250000
Si Si3 0.840563 0.792529 0.803859
Si Si4 0.675842 0.950476 0.352927
Si Si5 0.951940 0.686367 0.339780
Si Si6 0.135886 0.340498 0.495776
Si Si7 0.000000 0.560431 0.250000
O O1 0.227072 0.966901 0.481559
O O2 0.098212 0.820171 0.200822
O O3 0.046262 0.008185 0.239856
O O4 0.123025 0.081666 0.201021
O O5 0.080840 0.197741 0.414710
O O6 0.803254 0.673474 0.680890
O O7 0.742158 0.838842 0.702789
O O8 0.935373 0.725224 0.991194
O O9 0.593562 0.050489 0.188307
O O10 0.648626 0.881225 0.408043
O O11 0.929430 0.654506 0.199538
O O12 0.061811 0.459782 0.409669
#
# Coordination Sequence:
#
# PCOD9267347 Si02
#       7
#     8   4   8   8   8   8   4
#     4  11  21  36  61  85 116 155 195 235 283 345
#     4  11  17  34  62  82 110 152 198 234 272 342
#     4  11  20  39  60  91 110 152 199 241 275 340
#     4  10  19  39  61  83 111 155 197 227 283 352
#     4  11  23  37  58  87 123 147 188 242 297 334
#     4   9  18  36  63  80 109 152 199 230 276 344
#     4   9  21  40  56  80 118 164 184 232 296 346
#
# _framework density 23.886837
#
# number of rings (size 3 to 8) (size 9 to 14) (size 15 to 20)
#    0.000    1.667    3.333    3.000    0.000    0.000 
#    3.000    0.000    0.000    0.000    0.000    0.000 
#    0.000    0.000    0.000    0.000    0.000    0.000 
#
# Total GULP energy -133952.323668 kJ/mol
# GULP energy per Si atom -5581.346820 kJ/mol
# Density = 2.383247 g / cm^3
# Si number density = 23.886837 Si / 1000 Ang^3
#
#
#
# Elastic Constant Matrix: (Units=GPa)
#
#
# Indices 1 2 3 4 5 6 
#
# 1 45.2806 6.2481 9.7500 0.0000 24.9350 0.0000
# 2 6.2481 104.7491 41.7631 0.0000 14.1884 0.0000
# 3 9.7500 41.7631 101.2917 0.0000 23.2780 0.0000
# 4 0.0000 0.0000 0.0000 28.1020 0.0000 5.4174
# 5 24.9350 14.1884 23.2780 0.0000 29.3606 0.0000
# 6 0.0000 0.0000 0.0000 5.4174 0.0000 9.7529
#
#
#
# Elastic Compliance Matrix: (Units=1/GPa)
#
#
# Indices 1 2 3 4 5 6 
#
# 1 0.043781 0.001067 0.004903 0.000000 -0.041584 0.000000
# 2 0.001067 0.011566 -0.004132 0.000000 -0.003220 0.000000
# 3 0.004903 -0.004132 0.014187 0.000000 -0.013415 0.000000
# 4 0.000000 0.000000 0.000000 0.039852 0.000000 -0.022137
# 5 -0.041584 -0.003220 -0.013415 0.000000 0.081567 0.000000
# 6 0.000000 0.000000 0.000000 -0.022137 0.000000 0.114829
#
#
# Mechanical properties :
#
#
# Convention : Reuss Voigt Hill
#
# Bulk Modulus (GPa) = 13.65938 40.76040 27.20989
# Shear Modulus (GPa) = 15.31339 26.34712 20.83025
#
# Velocity S-wave (km/s) = 2.53470 3.32474 2.95623
# Velocity P-wave (km/s) = 3.78115 5.64266 4.80295
#
# Compressibility (1/GPa) = 0.07320975
#
# Stress axis : x y z
#
# Youngs Moduli (GPa) = 22.84075 86.45755 70.48720
#
# Poissons Ratio (x) = -0.09221 -0.34557
# Poissons Ratio (y) = -0.02436 0.29123
# Poissons Ratio (z) = -0.11198 0.35721
#
# Static dielectric constant tensor:
#      x y z
#    x 1.910210 0.000000 0.031820 
#    y 0.000000 1.889840 0.000000 
#    z 0.031820 0.000000 2.005510 
# 
# From -- ./inp_files/203031.got.cif
#   From: 2010.05.17/outbox.cif.g08.bks.cpg/sg15_102_cif.got.tgz:203031.got - 2010.06.03 18:47:42.
