data_PCOD9267874
_publ_section_title
;
Structure prediction by ZEFSAII (Michael W. Deem and Ramdas Pophale) SiO2 
 PCOD9267874
Probable space group: C 2/C
;
_chemical_formula_sum "Si O2"
_cell_formula_units_Z 52
_cell_length_a 9.481115
_cell_length_b 25.828875
_cell_length_c 10.805363
_cell_angle_alpha 90.000000
_cell_angle_beta 81.181058
_cell_angle_gamma 90.000000
_cell_volume 2614.805184
_symmetry_space_group_name_H-M "C 2/C"
_symmetry_group_IT_number 15
_symmetry_cell_setting 'monoclinic'
loop_
_space_group_symop_operation_xyz
x,y,z
-x,y,1/2-z
-x,-y,-z
x,-y,1/2+z
1/2+x,1/2+y,z
1/2-x,1/2+y,1/2-z
1/2-x,1/2-y,-z
1/2+x,1/2-y,1/2+z
loop_
_atom_site_type_symbol
_atom_site_label
_atom_site_fract_x
_atom_site_fract_y
_atom_site_fract_z
Si Si1 0.273326 0.447393 0.727145
Si Si2 0.571065 0.308285 0.001151
Si Si3 0.411144 0.187357 0.507111
Si Si4 0.723641 0.433256 0.302619
Si Si5 0.000000 0.631376 0.750000
Si Si6 0.000000 0.137195 0.750000
Si Si7 0.964050 0.088225 0.431182
Si Si8 0.500000 0.126734 0.250000
O O1 0.244664 0.508343 0.739790
O O2 0.384391 0.440361 0.599631
O O3 0.362091 0.428700 0.833989
O O4 0.136858 0.411053 0.732830
O O5 0.741217 0.315864 0.999563
O O6 0.488468 0.325303 0.135893
O O7 0.549531 0.247830 0.982773
O O8 0.506934 0.350970 0.916608
O O9 0.449174 0.161979 0.634264
O O10 0.488677 0.161107 0.377451
O O11 0.635497 0.400184 0.213645
O O12 0.618437 0.427614 0.433823
O O13 0.869067 0.404050 0.310183
#
# Coordination Sequence:
#
# PCOD9267874 Si02
#       8
#     8   8   8   8   4   4   8   4
#     4  11  23  40  65  95 132 171 218 271 330 383
#     4  10  21  43  68  93 129 173 217 273 328 384
#     4  11  24  43  67  97 133 174 215 271 336 387
#     4  11  23  40  64  93 130 172 215 270 324 392
#     4  12  25  44  64 102 134 170 221 268 328 400
#     4  10  19  40  68  94 122 168 223 260 322 386
#     4  10  22  42  64  97 124 171 225 272 315 397
#     4  12  24  44  64 100 138 174 214 270 334 394
#
# _framework density 19.886759000000001
#
# number of rings (size 3 to 8) (size 9 to 14) (size 15 to 20)
#    0.000    1.231    3.077    3.231    0.000    3.692 
#    0.000    6.923    0.000    0.000    0.000    0.000 
#    0.000    0.000    0.000    0.000    0.000    0.000 
#
# Total GULP energy -145069.433121 kJ/mol
# GULP energy per Si atom -5579.593582 kJ/mol
# Density = 1.984150 g / cm^3
# Si number density = 19.886759 Si / 1000 Ang^3
#
#
#
# Elastic Constant Matrix: (Units=GPa)
#
#
# Indices 1 2 3 4 5 6 
#
# 1 95.0041 54.3687 26.2099 0.0000 4.2798 0.0000
# 2 54.3687 181.2910 49.9231 0.0000 12.3859 0.0000
# 3 26.2099 49.9231 93.3263 0.0000 2.2659 0.0000
# 4 0.0000 0.0000 0.0000 24.4395 0.0000 1.2528
# 5 4.2798 12.3859 2.2659 0.0000 20.8716 0.0000
# 6 0.0000 0.0000 0.0000 1.2528 0.0000 27.8332
#
#
#
# Elastic Compliance Matrix: (Units=1/GPa)
#
#
# Indices 1 2 3 4 5 6 
#
# 1 0.012973 -0.003352 -0.001839 0.000000 -0.000471 0.000000
# 2 -0.003352 0.007596 -0.003037 0.000000 -0.003491 0.000000
# 3 -0.001839 -0.003037 0.012837 0.000000 0.000786 0.000000
# 4 0.000000 0.000000 0.000000 0.041012 0.000000 -0.001846
# 5 -0.000471 -0.003491 0.000786 0.000000 0.049995 0.000000
# 6 0.000000 0.000000 0.000000 -0.001846 0.000000 0.036011
#
#
# Mechanical properties :
#
#
# Convention : Reuss Voigt Hill
#
# Bulk Modulus (GPa) = 58.99720 70.06940 64.53330
# Shear Modulus (GPa) = 27.39275 30.57017 28.98146
#
# Velocity S-wave (km/s) = 3.71541 3.92498 3.82163
# Velocity P-wave (km/s) = 6.93806 7.47338 7.21069
#
# Compressibility (1/GPa) = 0.01694996
#
# Stress axis : x y z
#
# Youngs Moduli (GPa) = 77.08561 131.64651 77.89892
#
# Poissons Ratio (x) = 0.44126 0.14324
# Poissons Ratio (y) = 0.25838 0.23660
# Poissons Ratio (z) = 0.14174 0.39985
#
# Static dielectric constant tensor:
#      x y z
#    x 1.702900 0.000000 0.005590 
#    y 0.000000 1.691730 0.000000 
#    z 0.005590 0.000000 1.755820 
# 
# From -- ./inp_files/80756.got.cif
#   From: 2010.05.17/outbox.cif.g08.bks.cpg/sg15_41_cif.got.tgz:80756.got - 2010.06.03 18:47:42.
