data_PCOD9267540
_publ_section_title
;
Structure prediction by ZEFSAII (Michael W. Deem and Ramdas Pophale) SiO2 
 PCOD9267540
Probable space group: C 2/C
;
_chemical_formula_sum "Si O2"
_cell_formula_units_Z 52
_cell_length_a 14.873353
_cell_length_b 9.692908
_cell_length_c 29.271225
_cell_angle_alpha 90.000000
_cell_angle_beta 38.516166
_cell_angle_gamma 90.000000
_cell_volume 2627.891594
_symmetry_space_group_name_H-M "C 2/C"
_symmetry_group_IT_number 15
_symmetry_cell_setting 'monoclinic'
loop_
_space_group_symop_operation_xyz
x,y,z
-x,y,1/2-z
-x,-y,-z
x,-y,1/2+z
1/2+x,1/2+y,z
1/2-x,1/2+y,1/2-z
1/2-x,1/2-y,-z
1/2+x,1/2-y,1/2+z
loop_
_atom_site_type_symbol
_atom_site_label
_atom_site_fract_x
_atom_site_fract_y
_atom_site_fract_z
Si Si1 0.899599 0.972025 0.619575
Si Si2 0.412966 0.990109 0.639751
Si Si3 0.617354 0.225342 0.518477
Si Si4 0.500000 0.339600 0.750000
Si Si5 0.079986 0.066952 0.787323
Si Si6 0.183974 0.250078 0.888189
Si Si7 0.576376 0.878500 0.765374
O O1 0.747693 0.895558 0.689662
O O2 0.017210 0.860928 0.559000
O O3 0.941113 0.044622 0.650779
O O4 0.874128 0.095773 0.594559
O O5 0.395934 0.854335 0.614949
O O6 0.459857 0.954886 0.672882
O O7 0.520895 0.098629 0.574632
O O8 0.250425 0.050265 0.708400
O O9 0.750000 0.250000 0.500000
O O10 0.667344 0.201301 0.446734
O O11 0.499974 0.443948 0.792859
O O12 0.353058 0.254128 0.807413
O O13 0.035679 0.218423 0.789007
O O14 0.500000 0.930546 0.750000
#
# Coordination Sequence:
#
# PCOD9267540 Si02
#       7
#     8   8   8   4   8   8   8
#     4  11  24  41  64  96 131 168 219 270 329 377
#     4  10  23  43  63  94 129 174 214 260 331 391
#     4  12  26  44  65  92 137 177 217 270 328 387
#     4  10  22  38  70  98 126 168 228 264 330 394
#     4  10  19  39  65  93 128 166 210 274 318 387
#     4  11  24  43  68  94 133 175 219 268 327 391
#     4  11  22  38  69  99 129 164 220 275 322 380
#
# _framework density 19.787725999999999
#
# number of rings (size 3 to 8) (size 9 to 14) (size 15 to 20)
#    0.000    1.231    3.846    1.846    3.231    1.231 
#    0.000    0.769    0.000    0.000    0.000    0.000 
#    0.000    0.000    0.000    0.000    0.000    0.000 
#
# Total GULP energy -145353.148503 kJ/mol
# GULP energy per Si atom -5590.505712 kJ/mol
# Density = 1.974269 g / cm^3
# Si number density = 19.787726 Si / 1000 Ang^3
#
#
#
# Elastic Constant Matrix: (Units=GPa)
#
#
# Indices 1 2 3 4 5 6 
#
# 1 116.1722 36.1043 31.8099 0.0000 16.6118 0.0001
# 2 36.1043 108.1994 38.6053 0.0000 -9.0544 0.0001
# 3 31.8099 38.6053 73.6082 0.0000 9.9985 0.0000
# 4 0.0000 0.0000 0.0000 12.3820 0.0000 -5.4902
# 5 16.6118 -9.0544 9.9985 0.0000 34.9556 0.0000
# 6 0.0001 0.0001 0.0000 -5.4902 0.0000 14.4480
#
#
#
# Elastic Compliance Matrix: (Units=1/GPa)
#
#
# Indices 1 2 3 4 5 6 
#
# 1 0.011049 -0.003327 -0.002289 0.000000 -0.005458 0.000000
# 2 -0.003327 0.013217 -0.006423 0.000000 0.006842 0.000000
# 3 -0.002289 -0.006423 0.018750 0.000000 -0.005939 0.000000
# 4 0.000000 0.000000 0.000000 0.097127 0.000000 0.036908
# 5 -0.005458 0.006842 -0.005939 0.000000 0.034673 0.000000
# 6 0.000000 0.000000 0.000000 0.036908 0.000000 0.083239
#
#
# Mechanical properties :
#
#
# Convention : Reuss Voigt Hill
#
# Bulk Modulus (GPa) = 52.80408 56.77987 54.79198
# Shear Modulus (GPa) = 17.33431 25.12114 21.22773
#
# Velocity S-wave (km/s) = 2.96296 3.56691 3.27887
# Velocity P-wave (km/s) = 6.20070 6.76170 6.48727
#
# Compressibility (1/GPa) = 0.01893793
#
# Stress axis : x y z
#
# Youngs Moduli (GPa) = 90.50605 75.66143 53.33316
#
# Poissons Ratio (x) = 0.25173 0.12205
# Poissons Ratio (y) = 0.30112 0.34258
# Poissons Ratio (z) = 0.20712 0.48600
#
# Static dielectric constant tensor:
#      x y z
#    x 1.707430 0.000000 0.008620 
#    y 0.000000 1.688940 0.000000 
#    z 0.008620 0.000000 1.651620 
# 
# From -- ./inp_files/313070.got.cif
#   From: 2010.05.17/outbox.cif.g08.bks.cpg/sg15_157_cif.got.tgz:313070.got - 2010.06.03 18:47:42.
