data_PCOD9267355
_publ_section_title
;
Structure prediction by ZEFSAII (Michael W. Deem and Ramdas Pophale) SiO2 
 PCOD9267355
Probable space group: C 2/C
;
_chemical_formula_sum "Si O2"
_cell_formula_units_Z 40
_cell_length_a 9.309756
_cell_length_b 12.932480
_cell_length_c 12.751879
_cell_angle_alpha 90.000000
_cell_angle_beta 79.667104
_cell_angle_gamma 90.000000
_cell_volume 1510.404481
_symmetry_space_group_name_H-M "C 2/C"
_symmetry_group_IT_number 15
_symmetry_cell_setting 'monoclinic'
loop_
_space_group_symop_operation_xyz
x,y,z
-x,y,1/2-z
-x,-y,-z
x,-y,1/2+z
1/2+x,1/2+y,z
1/2-x,1/2+y,1/2-z
1/2-x,1/2-y,-z
1/2+x,1/2-y,1/2+z
loop_
_atom_site_type_symbol
_atom_site_label
_atom_site_fract_x
_atom_site_fract_y
_atom_site_fract_z
Si Si1 0.531995 0.887473 0.418083
Si Si2 0.510504 0.239026 0.364780
Si Si3 0.929330 0.070530 0.157883
Si Si4 0.821227 0.069367 0.954902
Si Si5 0.223872 0.377503 0.201516
O O1 0.509771 0.823349 0.526202
O O2 0.659792 0.964490 0.440105
O O3 0.626840 0.838077 0.310703
O O4 0.385843 0.913571 0.375312
O O5 0.500000 0.187877 0.250000
O O6 0.395269 0.334404 0.383030
O O7 0.670691 0.288189 0.350926
O O8 0.000000 0.125041 0.250000
O O9 0.830066 0.974860 0.212677
O O10 0.831329 0.110359 0.074113
O O11 0.071924 0.026599 0.078687
#
# Coordination Sequence:
#
# PCOD9267355 Si02
#       5
#     8   8   8   8   8
#     4  11  21  37  62  91 119 163 198 244 307 354
#     4  11  21  39  60  86 124 160 201 247 297 358
#     4  10  19  39  61  86 117 159 198 249 297 354
#     4  10  20  36  63  85 114 158 204 242 296 359
#     4  10  21  38  61  86 125 157 201 247 303 355
#
# _framework density 26.482970999999999
#
# number of rings (size 3 to 8) (size 9 to 14) (size 15 to 20)
#    0.000    1.600    4.000    2.400    0.000    0.800 
#    3.600    6.000    4.400    0.000    0.000    0.000 
#    0.000    0.000    0.000    0.000    0.000    0.000 
#
# Total GULP energy -111637.944882 kJ/mol
# GULP energy per Si atom -5581.897244 kJ/mol
# Density = 2.642269 g / cm^3
# Si number density = 26.482971 Si / 1000 Ang^3
#
#
#
# Elastic Constant Matrix: (Units=GPa)
#
#
# Indices 1 2 3 4 5 6 
#
# 1 173.2892 10.4386 43.4120 0.0000 38.9624 0.0000
# 2 10.4386 26.3650 25.6228 0.0000 -10.6771 0.0000
# 3 43.4120 25.6228 196.5680 0.0000 15.2010 0.0000
# 4 0.0000 0.0000 0.0000 -10.2956 0.0000 53.3407
# 5 38.9624 -10.6771 15.2010 0.0000 53.6777 0.0000
# 6 0.0000 0.0000 0.0000 53.3407 0.0000 -17.3530
#
#
#
# Elastic Compliance Matrix: (Units=1/GPa)
#
#
# Indices 1 2 3 4 5 6 
#
# 1 0.007656 -0.005123 -0.000526 0.000000 -0.006427 0.000000
# 2 -0.005123 0.053496 -0.007108 0.000000 0.016372 0.000000
# 3 -0.000526 -0.007108 0.006349 0.000000 -0.002830 0.000000
# 4 0.000000 0.000000 0.000000 0.006508 0.000000 0.020003
# 5 -0.006427 0.016372 -0.002830 0.000000 0.027353 0.000000
# 6 0.000000 0.000000 0.000000 0.020003 0.000000 0.003861
#
#
# Mechanical properties :
#
#
# Convention : Reuss Voigt Hill
#
# Bulk Modulus (GPa) = 23.81699 61.68543 42.75121
# Shear Modulus (GPa) = 34.54667 26.32241 30.43454
#
# Velocity S-wave (km/s) = 3.61569 3.15610 3.39368
# Velocity P-wave (km/s) = 5.14235 6.05180 5.61552
#
# Compressibility (1/GPa) = 0.04198684
#
# Stress axis : x y z
#
# Youngs Moduli (GPa) = 130.61288 18.69313 157.50924
#
# Poissons Ratio (x) = 0.09576 0.08286
# Poissons Ratio (y) = 0.66913 1.11956
# Poissons Ratio (z) = 0.06871 0.13287
#
# Static dielectric constant tensor:
#      x y z
#    x 2.077010 0.000000 0.048560 
#    y 0.000000 2.129110 0.000000 
#    z 0.048560 0.000000 2.173200 
# 
# From -- ./inp_files/76709.got.cif
#   From: 2010.05.17/outbox.cif.g08.bks.cpg/sg15_39_cif.got.tgz:76709.got - 2010.06.03 18:47:42.
