data_PCOD9267901
_publ_section_title
;
Structure prediction by ZEFSAII (Michael W. Deem and Ramdas Pophale) SiO2 
 PCOD9267901
Probable space group: C 2/C
;
_chemical_formula_sum "Si O2"
_cell_formula_units_Z 56
_cell_length_a 17.692740
_cell_length_b 18.934508
_cell_length_c 8.365024
_cell_angle_alpha 90.000000
_cell_angle_beta 108.196444
_cell_angle_gamma 90.000000
_cell_volume 2662.171324
_symmetry_space_group_name_H-M "C 2/C"
_symmetry_group_IT_number 15
_symmetry_cell_setting 'monoclinic'
loop_
_space_group_symop_operation_xyz
x,y,z
-x,y,1/2-z
-x,-y,-z
x,-y,1/2+z
1/2+x,1/2+y,z
1/2-x,1/2+y,1/2-z
1/2-x,1/2-y,-z
1/2+x,1/2-y,1/2+z
loop_
_atom_site_type_symbol
_atom_site_label
_atom_site_fract_x
_atom_site_fract_y
_atom_site_fract_z
Si Si1 0.233950 0.024050 0.732887
Si Si2 0.000000 0.165588 0.250000
Si Si3 0.144266 0.109696 0.169139
Si Si4 0.087458 0.906321 0.274266
Si Si5 0.237066 0.711753 0.322315
Si Si6 0.500000 0.134974 0.250000
Si Si7 0.920808 0.759360 0.401063
Si Si8 0.666261 0.070981 0.422808
O O1 0.201359 0.949097 0.782128
O O2 0.293002 0.997611 0.631652
O O3 0.147797 0.063726 0.678123
O O4 0.292298 0.071017 0.878329
O O5 0.939132 0.115055 0.301255
O O6 0.043030 0.214166 0.409801
O O7 0.180440 0.188372 0.199744
O O8 0.132654 0.090261 0.974356
O O9 0.072404 0.825363 0.215757
O O10 0.000000 0.938772 0.250000
O O11 0.250000 0.750000 0.500000
O O12 0.174048 0.746696 0.163544
O O13 0.198333 0.637452 0.346011
O O14 0.465424 0.189902 0.360655
O O15 0.571869 0.084715 0.358536
#
# Coordination Sequence:
#
# PCOD9267901 Si02
#       8
#     8   4   8   8   8   4   8   8
#     4  11  23  42  60  98 132 172 227 267 328 398
#     4  12  26  38  59 105 134 166 204 292 338 378
#     4  11  24  40  61  96 133 174 222 270 334 397
#     4  12  22  40  67  95 127 188 211 267 332 410
#     4  10  19  40  70  91 120 181 228 263 326 406
#     4  10  22  46  71  93 126 184 228 268 338 412
#     4  11  22  40  68  98 132 163 226 272 334 404
#     4  10  23  40  68  94 131 174 225 281 324 399
#
# _framework density 21.03546
#
# number of rings (size 3 to 8) (size 9 to 14) (size 15 to 20)
#    0.000    1.143    6.429    0.000    5.000    1.714 
#    0.000    4.286    0.000    0.000    0.000    0.000 
#    0.000    0.000    0.000    0.000    0.000    0.000 
#
# Total GULP energy -155917.622443 kJ/mol
# GULP energy per Si atom -5568.486516 kJ/mol
# Density = 2.098758 g / cm^3
# Si number density = 21.035460 Si / 1000 Ang^3
#
#
#
# Elastic Constant Matrix: (Units=GPa)
#
#
# Indices 1 2 3 4 5 6 
#
# 1 110.3354 31.2970 8.5159 0.0000 21.3437 0.0000
# 2 31.2970 56.6157 19.1623 0.0000 10.3245 0.0000
# 3 8.5159 19.1623 52.5224 0.0000 24.1073 0.0000
# 4 0.0000 0.0000 0.0000 28.6222 0.0000 3.6637
# 5 21.3437 10.3245 24.1073 0.0000 29.1333 0.0000
# 6 0.0000 0.0000 0.0000 3.6637 0.0000 30.3878
#
#
#
# Elastic Compliance Matrix: (Units=1/GPa)
#
#
# Indices 1 2 3 4 5 6 
#
# 1 0.012868 -0.006945 0.005877 0.000000 -0.011829 0.000000
# 2 -0.006945 0.023953 -0.009758 0.000000 0.004675 0.000000
# 3 0.005877 -0.009758 0.035531 0.000000 -0.030248 0.000000
# 4 0.000000 0.000000 0.000000 0.035486 0.000000 -0.004278
# 5 -0.011829 0.004675 -0.030248 0.000000 0.066365 0.000000
# 6 0.000000 0.000000 0.000000 -0.004278 0.000000 0.033424
#
#
# Mechanical properties :
#
#
# Convention : Reuss Voigt Hill
#
# Bulk Modulus (GPa) = 19.72473 37.49154 28.60814
# Shear Modulus (GPa) = 20.31049 28.32853 24.31951
#
# Velocity S-wave (km/s) = 3.11068 3.67373 3.40386
# Velocity P-wave (km/s) = 4.72218 5.98805 5.39239
#
# Compressibility (1/GPa) = 0.05069778
#
# Stress axis : x y z
#
# Youngs Moduli (GPa) = 77.71186 41.74891 28.14480
#
# Poissons Ratio (x) = 0.28996 -0.16541
# Poissons Ratio (y) = 0.53974 0.27465
# Poissons Ratio (z) = -0.45672 0.40740
#
# Static dielectric constant tensor:
#      x y z
#    x 0.971100 0.000000 0.384530 
#    y 0.000000 1.788410 0.000000 
#    z 0.384530 0.000000 1.606190 
# 
# From -- ./inp_files/49198.got.cif
#   From: 2010.05.17/outbox.cif.g08.bks.cpg/sg15_25_cif.got.tgz:49198.got - 2010.06.03 18:47:42.
