data_PCOD9267921
_publ_section_title
;
Structure prediction by ZEFSAII (Michael W. Deem and Ramdas Pophale) SiO2 
 PCOD9267921
Probable space group: C 2/C
;
_chemical_formula_sum "Si O2"
_cell_formula_units_Z 32
_cell_length_a 11.081715
_cell_length_b 14.641942
_cell_length_c 7.716626
_cell_angle_alpha 90.000000
_cell_angle_beta 86.325518
_cell_angle_gamma 90.000000
_cell_volume 1249.509020
_symmetry_space_group_name_H-M "C 2/C"
_symmetry_group_IT_number 15
_symmetry_cell_setting 'monoclinic'
loop_
_space_group_symop_operation_xyz
x,y,z
-x,y,1/2-z
-x,-y,-z
x,-y,1/2+z
1/2+x,1/2+y,z
1/2-x,1/2+y,1/2-z
1/2-x,1/2-y,-z
1/2+x,1/2-y,1/2+z
loop_
_atom_site_type_symbol
_atom_site_label
_atom_site_fract_x
_atom_site_fract_y
_atom_site_fract_z
Si Si1 0.323783 0.313242 0.330418
Si Si2 0.735478 0.118206 0.305033
Si Si3 0.971647 0.892804 0.992035
Si Si4 0.138633 0.430513 0.190087
O O1 0.311920 0.207756 0.286270
O O2 0.393007 0.361782 0.164921
O O3 0.404408 0.337416 0.488611
O O4 0.194444 0.361249 0.326195
O O5 0.877044 0.123452 0.345957
O O6 0.662363 0.108060 0.495076
O O7 0.708559 0.026241 0.202938
O O8 0.000000 0.000000 0.000000
O O9 0.000000 0.445358 0.250000
#
# Coordination Sequence:
#
# PCOD9267921 Si02
#       4
#     8   8   8   8
#     4  10  23  43  71  99 138 185 231 292 356 405
#     4  11  24  46  72 102 143 186 233 291 355 416
#     4  10  19  40  72  95 131 180 240 284 339 403
#     4  11  23  43  68 103 145 187 229 286 351 427
#
# _framework density 25.610059
#
# number of rings (size 3 to 8) (size 9 to 14) (size 15 to 20)
#    0.000    1.500    2.500    3.750    3.500    0.000 
#    4.500   11.250    0.000    0.000    0.000    0.000 
#    0.000    0.000    0.000    0.000    0.000    0.000 
#
# Total GULP energy -89739.274161 kJ/mol
# GULP energy per Si atom -5608.704635 kJ/mol
# Density = 2.555177 g / cm^3
# Si number density = 25.610059 Si / 1000 Ang^3
#
#
#
# Elastic Constant Matrix: (Units=GPa)
#
#
# Indices 1 2 3 4 5 6 
#
# 1 146.2785 83.6505 58.5279 0.0000 34.6370 0.0000
# 2 83.6505 233.0794 82.9214 0.0000 30.1857 0.0000
# 3 58.5279 82.9214 144.9304 0.0000 25.0542 0.0000
# 4 0.0000 0.0000 0.0000 -24.5897 0.0000 -31.1558
# 5 34.6370 30.1857 25.0542 0.0000 38.5435 0.0000
# 6 0.0000 0.0000 0.0000 -31.1558 0.0000 23.6247
#
#
#
# Elastic Compliance Matrix: (Units=1/GPa)
#
#
# Indices 1 2 3 4 5 6 
#
# 1 0.010349 -0.002252 -0.001789 0.000000 -0.006374 0.000000
# 2 -0.002252 0.006099 -0.002370 0.000000 -0.001211 0.000000
# 3 -0.001789 -0.002370 0.009441 0.000000 -0.002673 0.000000
# 4 0.000000 0.000000 0.000000 -0.015226 0.000000 -0.020080
# 5 -0.006374 -0.001211 -0.002673 0.000000 0.034358 0.000000
# 6 0.000000 0.000000 0.000000 -0.020080 0.000000 0.015848
#
#
# Mechanical properties :
#
#
# Convention : Reuss Voigt Hill
#
# Bulk Modulus (GPa) = 76.53909 108.27643 92.40776
# Shear Modulus (GPa) = 64.06347 27.46161 45.76254
#
# Velocity S-wave (km/s) = 5.00692 3.27815 4.23176
# Velocity P-wave (km/s) = 7.96096 7.52987 7.74842
#
# Compressibility (1/GPa) = 0.01306522
#
# Stress axis : x y z
#
# Youngs Moduli (GPa) = 96.62515 163.96147 105.92623
#
# Poissons Ratio (x) = 0.36931 0.18949
# Poissons Ratio (y) = 0.21764 0.25110
# Poissons Ratio (z) = 0.17285 0.38867
#
# Static dielectric constant tensor:
#      x y z
#    x 2.056110 0.000000 -0.006680 
#    y 0.000000 1.907010 0.000000 
#    z -0.006680 0.000000 2.077090 
# 
# From -- ./inp_files/27623.got.cif
#   From: 2010.05.17/outbox.cif.g08.bks.cpg/sg15_14_cif.got.tgz:27623.got - 2010.06.03 18:47:42.
