data_PCOD9267889
_publ_section_title
;
Structure prediction by ZEFSAII (Michael W. Deem and Ramdas Pophale) SiO2 
 PCOD9267889
Probable space group: C 2/C
;
_chemical_formula_sum "Si O2"
_cell_formula_units_Z 60
_cell_length_a 7.087581
_cell_length_b 12.061323
_cell_length_c 28.778423
_cell_angle_alpha 90.000000
_cell_angle_beta 111.643535
_cell_angle_gamma 90.000000
_cell_volume 2286.692337
_symmetry_space_group_name_H-M "C 2/C"
_symmetry_group_IT_number 15
_symmetry_cell_setting 'monoclinic'
loop_
_space_group_symop_operation_xyz
x,y,z
-x,y,1/2-z
-x,-y,-z
x,-y,1/2+z
1/2+x,1/2+y,z
1/2-x,1/2+y,1/2-z
1/2-x,1/2-y,-z
1/2+x,1/2-y,1/2+z
loop_
_atom_site_type_symbol
_atom_site_label
_atom_site_fract_x
_atom_site_fract_y
_atom_site_fract_z
Si Si1 0.203274 0.771223 0.714876
Si Si2 0.959397 0.072114 0.644219
Si Si3 0.089018 0.951738 0.056371
Si Si4 0.500000 0.567079 0.750000
Si Si5 0.725929 0.204440 0.180538
Si Si6 0.163702 0.239540 0.111225
Si Si7 0.047155 0.412391 0.916911
Si Si8 0.798129 0.720428 0.452233
O O1 0.306226 0.650001 0.729943
O O2 0.288088 0.835204 0.767244
O O3 0.252853 0.810040 0.667572
O O4 0.961438 0.766657 0.695528
O O5 0.742259 0.133466 0.618677
O O6 0.008273 0.011812 0.599922
O O7 0.991730 0.012727 0.697523
O O8 0.108244 0.179450 0.661990
O O9 0.064028 0.820238 0.053994
O O10 0.329028 0.975707 0.075751
O O11 0.431600 0.887576 0.954259
O O12 0.625471 0.117494 0.136324
O O13 0.268335 0.173651 0.078620
O O14 0.923680 0.224800 0.090392
O O15 0.500000 0.500000 0.000000
O O16 0.750000 0.750000 0.500000
#
# Coordination Sequence:
#
# PCOD9267889 Si02
#       8
#     8   8   8   4   8   8   8   8
#     4   9  15  28  63 100 126 170 230 269 343 423
#     4   9  18  37  62  95 134 174 229 285 355 417
#     4  12  26  44  67 100 142 184 233 305 361 430
#     4   8  16  28  60 100 126 176 228 286 340 436
#     4   9  16  34  62  96 131 172 229 280 336 432
#     4  10  19  40  69  93 133 176 224 287 344 428
#     4  11  24  43  67  98 135 176 231 287 359 422
#     4  12  26  45  68  96 131 180 237 290 359 426
#
# _framework density 26.238773999999999
#
# number of rings (size 3 to 8) (size 9 to 14) (size 15 to 20)
#    0.000    1.867    4.000    1.600    1.867    1.600 
#    2.400    0.000    0.000   17.600    0.000    0.000 
#    0.000    0.000    0.000    0.000    0.000    0.000 
#
# Total GULP energy -167710.204724 kJ/mol
# GULP energy per Si atom -5590.340157 kJ/mol
# Density = 2.617905 g / cm^3
# Si number density = 26.238774 Si / 1000 Ang^3
#
#
#
# Elastic Constant Matrix: (Units=GPa)
#
#
# Indices 1 2 3 4 5 6 
#
# 1 115.3971 22.0864 41.6218 0.0000 3.7956 0.0000
# 2 22.0864 69.3111 15.2849 0.0000 6.0340 0.0000
# 3 41.6218 15.2849 177.6676 0.0000 -26.8144 0.0000
# 4 0.0000 0.0000 0.0000 30.2895 0.0000 0.3241
# 5 3.7956 6.0340 -26.8144 0.0000 61.2023 0.0000
# 6 0.0000 0.0000 0.0000 0.3241 0.0000 32.8134
#
#
#
# Elastic Compliance Matrix: (Units=1/GPa)
#
#
# Indices 1 2 3 4 5 6 
#
# 1 0.010048 -0.002563 -0.002344 0.000000 -0.001398 0.000000
# 2 -0.002563 0.015629 -0.001020 0.000000 -0.001829 0.000000
# 3 -0.002344 -0.001020 0.006749 0.000000 0.003203 0.000000
# 4 0.000000 0.000000 0.000000 0.033018 0.000000 -0.000326
# 5 -0.001398 -0.001829 0.003203 0.000000 0.018009 0.000000
# 6 0.000000 0.000000 0.000000 -0.000326 0.000000 0.030479
#
#
# Mechanical properties :
#
#
# Convention : Reuss Voigt Hill
#
# Bulk Modulus (GPa) = 48.61400 57.81798 53.21599
# Shear Modulus (GPa) = 37.69504 43.75320 40.72412
#
# Velocity S-wave (km/s) = 3.79438 4.08794 3.94389
# Velocity P-wave (km/s) = 6.14526 6.66069 6.40816
#
# Compressibility (1/GPa) = 0.02057021
#
# Stress axis : x y z
#
# Youngs Moduli (GPa) = 99.52406 63.98509 148.17399
#
# Poissons Ratio (x) = 0.16400 0.34736
# Poissons Ratio (y) = 0.25510 0.15115
# Poissons Ratio (z) = 0.23331 0.06527
#
# Static dielectric constant tensor:
#      x y z
#    x 2.085470 0.000000 -0.073260 
#    y 0.000000 2.107280 0.000000 
#    z -0.073260 0.000000 2.131320 
# 
# From -- ./inp_files/289284.got.cif
#   From: 2010.05.17/outbox.cif.g08.bks.cpg/sg15_145_cif.got.tgz:289284.got - 2010.06.03 18:47:42.
