data_PCOD9267486
_publ_section_title
;
Structure prediction by ZEFSAII (Michael W. Deem and Ramdas Pophale) SiO2 
 PCOD9267486
Probable space group: C 2/C
;
_chemical_formula_sum "Si O2"
_cell_formula_units_Z 36
_cell_length_a 11.720942
_cell_length_b 12.347110
_cell_length_c 10.373375
_cell_angle_alpha 90.000000
_cell_angle_beta 105.459901
_cell_angle_gamma 90.000000
_cell_volume 1446.913623
_symmetry_space_group_name_H-M "C 2/C"
_symmetry_group_IT_number 15
_symmetry_cell_setting 'monoclinic'
loop_
_space_group_symop_operation_xyz
x,y,z
-x,y,1/2-z
-x,-y,-z
x,-y,1/2+z
1/2+x,1/2+y,z
1/2-x,1/2+y,1/2-z
1/2-x,1/2-y,-z
1/2+x,1/2-y,1/2+z
loop_
_atom_site_type_symbol
_atom_site_label
_atom_site_fract_x
_atom_site_fract_y
_atom_site_fract_z
Si Si1 0.000000 0.178194 0.250000
Si Si2 0.380283 0.859580 0.390391
Si Si3 0.903482 0.412294 0.872051
Si Si4 0.633592 0.681499 0.750694
Si Si5 0.796299 0.125990 0.005980
O O1 0.074113 0.256958 0.177530
O O2 0.092800 0.112904 0.364899
O O3 0.469922 0.874912 0.535710
O O4 0.241844 0.844663 0.377542
O O5 0.399658 0.968899 0.311894
O O6 0.858942 0.310242 0.778420
O O7 0.817032 0.431991 0.969026
O O8 0.500000 0.657812 0.750000
O O9 0.663232 0.615460 0.628403
O O10 0.750000 0.250000 0.000000
#
# Coordination Sequence:
#
# PCOD9267486 Si02
#       5
#     4   8   8   8   8
#     4  12  18  38  72  86 122 166 210 262 306 374
#     4  11  21  38  65  93 124 162 214 262 303 370
#     4  10  22  40  65  93 120 166 216 255 314 370
#     4  11  23  41  61  93 133 163 205 263 319 370
#     4  10  19  39  64  89 119 167 207 250 320 369
#
# _framework density 24.880545000000001
#
# number of rings (size 3 to 8) (size 9 to 14) (size 15 to 20)
#    0.000    1.333    8.889    0.000    1.556    0.889 
#    2.000    1.111    0.000    0.000    0.000    0.000 
#    0.000    0.000    0.000    0.000    0.000    0.000 
#
# Total GULP energy -100644.939280 kJ/mol
# GULP energy per Si atom -5591.385516 kJ/mol
# Density = 2.482392 g / cm^3
# Si number density = 24.880545 Si / 1000 Ang^3
#
#
#
# Elastic Constant Matrix: (Units=GPa)
#
#
# Indices 1 2 3 4 5 6 
#
# 1 196.4464 14.5666 48.0731 0.0000 13.2356 0.0000
# 2 14.5666 57.0169 17.1576 0.0000 19.0081 0.0000
# 3 48.0731 17.1576 75.5114 0.0000 26.5685 0.0000
# 4 0.0000 0.0000 0.0000 16.4403 0.0000 19.1098
# 5 13.2356 19.0081 26.5685 0.0000 64.6784 0.0000
# 6 0.0000 0.0000 0.0000 19.1098 0.0000 21.7231
#
#
#
# Elastic Compliance Matrix: (Units=1/GPa)
#
#
# Indices 1 2 3 4 5 6 
#
# 1 0.006054 -0.000545 -0.003917 0.000000 0.000530 0.000000
# 2 -0.000545 0.020018 -0.002538 0.000000 -0.004729 0.000000
# 3 -0.003917 -0.002538 0.018433 0.000000 -0.006025 0.000000
# 4 0.000000 0.000000 0.000000 -2.698880 0.000000 2.374197
# 5 0.000530 -0.004729 -0.006025 0.000000 0.019217 0.000000
# 6 0.000000 0.000000 0.000000 2.374197 0.000000 -2.042540
#
#
# Mechanical properties :
#
#
# Convention : Reuss Voigt Hill
#
# Bulk Modulus (GPa) = 32.78024 54.28549 43.53286
# Shear Modulus (GPa) = -1.07445 37.18019 18.05287
#
# Velocity S-wave (km/s) = -0.65786 3.86987 2.69658
# Velocity P-wave (km/s) = 3.55339 6.46790 5.21825
#
# Compressibility (1/GPa) = 0.03050618
#
# Stress axis : x y z
#
# Youngs Moduli (GPa) = 165.19137 49.95487 54.25092
#
# Poissons Ratio (x) = 0.02721 0.21248
# Poissons Ratio (y) = 0.08998 0.13768
# Poissons Ratio (z) = 0.64700 0.12677
#
# Static dielectric constant tensor:
#      x y z
#    x 2.003160 0.000000 -0.035130 
#    y 0.000000 2.073890 0.000000 
#    z -0.035130 0.000000 1.980950 
# 
# From -- ./inp_files/85387.got.cif
#   From: 2010.05.17/outbox.cif.g08.bks.cpg/sg15_43_cif.got.tgz:85387.got - 2010.06.03 18:47:42.
