data_PCOD9267520
_publ_section_title
;
Structure prediction by ZEFSAII (Michael W. Deem and Ramdas Pophale) SiO2 
 PCOD9267520
Probable space group: C 2/C
;
_chemical_formula_sum "Si O2"
_cell_formula_units_Z 48
_cell_length_a 8.997993
_cell_length_b 23.797209
_cell_length_c 12.084881
_cell_angle_alpha 90.000000
_cell_angle_beta 86.749815
_cell_angle_gamma 90.000000
_cell_volume 2583.538415
_symmetry_space_group_name_H-M "C 2/C"
_symmetry_group_IT_number 15
_symmetry_cell_setting 'monoclinic'
loop_
_space_group_symop_operation_xyz
x,y,z
-x,y,1/2-z
-x,-y,-z
x,-y,1/2+z
1/2+x,1/2+y,z
1/2-x,1/2+y,1/2-z
1/2-x,1/2-y,-z
1/2+x,1/2-y,1/2+z
loop_
_atom_site_type_symbol
_atom_site_label
_atom_site_fract_x
_atom_site_fract_y
_atom_site_fract_z
Si Si1 0.500000 0.467541 0.750000
Si Si2 0.500000 0.252507 0.250000
Si Si3 0.919459 0.900519 0.536245
Si Si4 0.181206 0.306140 0.553140
Si Si5 0.733034 0.443372 0.163348
Si Si6 0.161450 0.144629 0.853652
Si Si7 0.496688 0.869120 0.372160
O O1 0.480957 0.431330 0.640494
O O2 0.349416 0.504835 0.773621
O O3 0.412154 0.213433 0.338243
O O4 0.388617 0.293686 0.185599
O O5 0.810439 0.850203 0.575497
O O6 0.827105 0.941804 0.459100
O O7 0.043715 0.876301 0.448452
O O8 0.250000 0.250000 0.500000
O O9 0.082357 0.335315 0.462327
O O10 0.671108 0.391119 0.239191
O O11 0.909317 0.427662 0.147649
O O12 0.321686 0.132069 0.902259
O O13 0.500000 0.841202 0.250000
#
# Coordination Sequence:
#
# PCOD9267520 Si02
#       7
#     4   4   8   8   8   8   8
#     4  12  23  36  66  94 122 164 211 262 314 376
#     4  12  21  38  72  88 128 180 205 254 332 368
#     4  11  22  39  62  92 126 158 212 257 305 379
#     4  11  22  41  61  89 127 170 207 263 315 366
#     4  10  19  39  65  87 121 166 204 254 316 376
#     4  11  19  40  67  93 115 167 216 250 304 399
#     4   9  21  37  63  91 122 156 214 257 302 382
#
# _framework density 18.579172
#
# number of rings (size 3 to 8) (size 9 to 14) (size 15 to 20)
#    0.000    1.333    5.000    2.500    0.000    2.000 
#    4.500    0.833   16.500    0.000    0.000    0.000 
#    0.000    0.000    0.000    0.000    0.000    0.000 
#
# Total GULP energy -133701.134210 kJ/mol
# GULP energy per Si atom -5570.880592 kJ/mol
# Density = 1.853688 g / cm^3
# Si number density = 18.579172 Si / 1000 Ang^3
#
#
#
# Elastic Constant Matrix: (Units=GPa)
#
#
# Indices 1 2 3 4 5 6 
#
# 1 141.4363 42.0565 50.0887 0.0000 1.7437 0.0000
# 2 42.0565 66.1121 39.6714 0.0000 -1.6167 0.0000
# 3 50.0887 39.6714 113.2701 0.0000 -6.6504 0.0000
# 4 0.0000 0.0000 0.0000 17.3058 0.0000 10.6473
# 5 1.7437 -1.6167 -6.6504 0.0000 29.3400 0.0000
# 6 0.0000 0.0000 0.0000 10.6473 0.0000 -6.7352
#
#
#
# Elastic Compliance Matrix: (Units=1/GPa)
#
#
# Indices 1 2 3 4 5 6 
#
# 1 0.009335 -0.004363 -0.002682 0.000000 -0.001403 0.000000
# 2 -0.004363 0.021196 -0.005484 0.000000 0.000184 0.000000
# 3 -0.002682 -0.005484 0.012088 0.000000 0.002597 0.000000
# 4 0.000000 0.000000 0.000000 0.029293 0.000000 0.046308
# 5 -0.001403 0.000184 0.002597 0.000000 0.034765 0.000000
# 6 0.000000 0.000000 0.000000 0.046308 0.000000 -0.075268
#
#
# Mechanical properties :
#
#
# Convention : Reuss Voigt Hill
#
# Bulk Modulus (GPa) = 56.94406 64.93909 60.94158
# Shear Modulus (GPa) = 80.23027 20.58226 50.40626
#
# Velocity S-wave (km/s) = 6.57850 3.33199 5.21435
# Velocity P-wave (km/s) = 9.40309 7.05914 8.31413
#
# Compressibility (1/GPa) = 0.01756109
#
# Stress axis : x y z
#
# Youngs Moduli (GPa) = 107.12508 47.17800 82.72965
#
# Poissons Ratio (x) = 0.20584 0.22190
# Poissons Ratio (y) = 0.46740 0.45365
# Poissons Ratio (z) = 0.28733 0.25870
#
# Static dielectric constant tensor:
#      x y z
#    x 1.612810 0.000000 -0.019640 
#    y 0.000000 1.637210 0.000000 
#    z -0.019640 0.000000 1.577740 
# 
# From -- ./inp_files/79303.got.cif
#   From: 2010.05.17/outbox.cif.g08.bks.cpg/sg15_40_cif.got.tgz:79303.got - 2010.06.03 18:47:42.
