data_PCOD9267523
_publ_section_title
;
Structure prediction by ZEFSAII (Michael W. Deem and Ramdas Pophale) SiO2 
 PCOD9267523
Probable space group: C 2/C
;
_chemical_formula_sum "Si O2"
_cell_formula_units_Z 52
_cell_length_a 16.785826
_cell_length_b 26.102227
_cell_length_c 12.330870
_cell_angle_alpha 90.000000
_cell_angle_beta 153.461444
_cell_angle_gamma 90.000000
_cell_volume 2413.943517
_symmetry_space_group_name_H-M "C 2/C"
_symmetry_group_IT_number 15
_symmetry_cell_setting 'monoclinic'
loop_
_space_group_symop_operation_xyz
x,y,z
-x,y,1/2-z
-x,-y,-z
x,-y,1/2+z
1/2+x,1/2+y,z
1/2-x,1/2+y,1/2-z
1/2-x,1/2-y,-z
1/2+x,1/2-y,1/2+z
loop_
_atom_site_type_symbol
_atom_site_label
_atom_site_fract_x
_atom_site_fract_y
_atom_site_fract_z
Si Si1 0.696724 0.912281 0.006238
Si Si2 0.652366 0.196751 0.779564
Si Si3 0.257152 0.307546 0.647173
Si Si4 0.000000 0.094770 0.750000
Si Si5 0.216416 0.083367 0.220065
Si Si6 0.358078 0.087524 0.816009
Si Si7 0.794423 0.470989 0.028049
O O1 0.500000 0.891196 0.750000
O O2 0.712887 0.968217 0.970527
O O3 0.709737 0.926153 0.148111
O O4 0.837224 0.877677 0.113158
O O5 0.673759 0.250575 0.745278
O O6 0.451251 0.193071 0.577487
O O7 0.683443 0.147369 0.745693
O O8 0.773041 0.190477 0.035078
O O9 0.324823 0.358118 0.790866
O O10 0.909987 0.068947 0.533973
O O11 0.425802 0.079974 0.436053
O O12 0.191481 0.049738 0.297830
O O13 0.262378 0.056920 0.602690
O O14 0.000000 0.457330 0.250000
#
# Coordination Sequence:
#
# PCOD9267523 Si02
#       7
#     8   8   8   4   8   8   8
#     4  11  24  41  63  88 123 166 208 248 305 371
#     4   9  17  31  59  90 119 154 195 251 308 360
#     4   9  17  32  56  89 122 153 193 251 308 356
#     4  12  26  40  60  88 128 164 208 254 298 362
#     4  10  20  38  60  87 126 159 204 256 298 365
#     4  10  19  39  65  88 117 164 210 246 311 366
#     4   9  20  36  64  90 115 159 206 257 307 357
#
# _framework density 21.541515
#
# number of rings (size 3 to 8) (size 9 to 14) (size 15 to 20)
#    0.000    2.154    3.077    0.000    2.154    3.692 
#    0.000    0.000    1.692    2.769    0.000    0.000 
#    0.000    0.000    0.000    0.000    0.000    0.000 
#
# Total GULP energy -144920.315712 kJ/mol
# GULP energy per Si atom -5573.858297 kJ/mol
# Density = 2.149249 g / cm^3
# Si number density = 21.541515 Si / 1000 Ang^3
#
#
#
# Elastic Constant Matrix: (Units=GPa)
#
#
# Indices 1 2 3 4 5 6 
#
# 1 115.7457 17.8413 28.1296 0.0000 -10.2536 0.0000
# 2 17.8413 44.9162 -1.6838 0.0000 6.5251 0.0000
# 3 28.1296 -1.6838 84.0738 0.0000 -17.5697 0.0000
# 4 0.0000 0.0000 0.0000 5.9142 0.0000 7.4916
# 5 -10.2536 6.5251 -17.5697 0.0000 24.7394 0.0000
# 6 0.0000 0.0000 0.0000 7.4916 0.0000 -0.5996
#
#
#
# Elastic Compliance Matrix: (Units=1/GPa)
#
#
# Indices 1 2 3 4 5 6 
#
# 1 0.010370 -0.004740 -0.002824 0.000000 0.003542 0.000000
# 2 -0.004740 0.025382 0.000334 0.000000 -0.008422 0.000000
# 3 -0.002824 0.000334 0.014776 0.000000 0.009235 0.000000
# 4 0.000000 0.000000 0.000000 0.010048 0.000000 0.125550
# 5 0.003542 -0.008422 0.009235 0.000000 0.050669 0.000000
# 6 0.000000 0.000000 0.000000 0.125550 0.000000 -0.099115
#
#
# Mechanical properties :
#
#
# Convention : Reuss Voigt Hill
#
# Bulk Modulus (GPa) = 27.72476 37.03442 32.37959
# Shear Modulus (GPa) = 129.48394 19.37405 74.42899
#
# Velocity S-wave (km/s) = 7.76141 3.00222 5.88442
# Velocity P-wave (km/s) = 9.65493 5.40807 7.82512
#
# Compressibility (1/GPa) = 0.03606884
#
# Stress axis : x y z
#
# Youngs Moduli (GPa) = 96.42775 39.39734 67.67768
#
# Poissons Ratio (x) = 0.18674 0.19115
# Poissons Ratio (y) = 0.45705 -0.02262
# Poissons Ratio (z) = 0.27235 -0.01317
#
# Static dielectric constant tensor:
#      x y z
#    x 1.837800 0.000000 0.034590 
#    y 0.000000 1.785380 0.000000 
#    z 0.034590 0.000000 1.866260 
# 
# From -- ./inp_files/108359.got.cif
#   From: 2010.05.17/outbox.cif.g08.bks.cpg/sg15_55_cif.got.tgz:108359.got - 2010.06.03 18:47:42.
