data_PCOD9267801
_publ_section_title
;
Structure prediction by ZEFSAII (Michael W. Deem and Ramdas Pophale) SiO2 
 PCOD9267801
Probable space group: C 2/C
;
_chemical_formula_sum "Si O2"
_cell_formula_units_Z 40
_cell_length_a 10.834869
_cell_length_b 15.119295
_cell_length_c 22.301407
_cell_angle_alpha 90.000000
_cell_angle_beta 153.320920
_cell_angle_gamma 90.000000
_cell_volume 1640.313371
_symmetry_space_group_name_H-M "C 2/C"
_symmetry_group_IT_number 15
_symmetry_cell_setting 'monoclinic'
loop_
_space_group_symop_operation_xyz
x,y,z
-x,y,1/2-z
-x,-y,-z
x,-y,1/2+z
1/2+x,1/2+y,z
1/2-x,1/2+y,1/2-z
1/2-x,1/2-y,-z
1/2+x,1/2-y,1/2+z
loop_
_atom_site_type_symbol
_atom_site_label
_atom_site_fract_x
_atom_site_fract_y
_atom_site_fract_z
Si Si1 0.693815 0.626647 0.106401
Si Si2 0.414455 0.791990 0.015691
Si Si3 0.427041 0.562050 0.106195
Si Si4 0.925510 0.866467 0.085520
Si Si5 0.814983 0.703050 0.339895
O O1 0.488501 0.578277 0.062645
O O2 0.000000 0.593029 0.250000
O O3 0.676859 0.730271 0.118744
O O4 0.615916 0.617801 0.003676
O O5 0.255843 0.775832 0.883646
O O6 0.372100 0.896850 0.007360
O O7 0.250000 0.750000 0.000000
O O8 0.471156 0.459391 0.137454
O O9 0.645985 0.623882 0.236312
O O10 0.164902 0.792732 0.190849
O O11 0.634362 0.828614 0.980983
#
# Coordination Sequence:
#
# PCOD9267801 Si02
#       5
#     8   8   8   8   8
#     4  10  19  40  65  95 131 178 224 274 337 403
#     4   9  21  39  65  94 131 169 225 280 329 398
#     4  11  21  40  66 100 133 170 226 285 334 397
#     4  10  22  40  65  96 134 175 225 276 335 410
#     4  10  21  42  66  92 136 180 220 278 344 405
#
# _framework density 24.385586
#
# number of rings (size 3 to 8) (size 9 to 14) (size 15 to 20)
#    0.000    2.000    2.000    1.200    0.000    0.800 
#   10.800    2.000    8.800    0.000    0.000    0.000 
#    0.000    0.000    0.000    0.000    0.000    0.000 
#
# Total GULP energy -111617.437187 kJ/mol
# GULP energy per Si atom -5580.871859 kJ/mol
# Density = 2.433008 g / cm^3
# Si number density = 24.385586 Si / 1000 Ang^3
#
#
#
# Elastic Constant Matrix: (Units=GPa)
#
#
# Indices 1 2 3 4 5 6 
#
# 1 76.7083 18.2707 10.4340 0.0005 -15.6801 -0.0021
# 2 18.2707 186.4189 15.8940 0.0010 8.0282 0.0011
# 3 10.4340 15.8940 41.4003 -0.0067 -10.5673 0.0091
# 4 0.0005 0.0010 -0.0067 27.1469 0.0073 -4.3880
# 5 -15.6801 8.0282 -10.5673 0.0073 35.7242 0.0016
# 6 -0.0021 0.0011 0.0091 -4.3880 0.0016 14.2127
#
#
#
# Elastic Compliance Matrix: (Units=1/GPa)
#
#
# Indices 1 2 3 4 5 6 
#
# 1 0.014950 -0.001617 -0.001492 -0.000002 0.006484 0.000002
# 2 -0.001617 0.005860 -0.002552 0.000000 -0.002782 0.000001
# 3 -0.001492 -0.002552 0.027571 0.000002 0.008074 -0.000018
# 4 -0.000002 0.000000 0.000002 0.038771 -0.000009 0.011970
# 5 0.006484 -0.002782 0.008074 -0.000009 0.033852 -0.000010
# 6 0.000002 0.000001 -0.000018 0.011970 -0.000010 0.074055
#
#
# Mechanical properties :
#
#
# Convention : Reuss Voigt Hill
#
# Bulk Modulus (GPa) = 26.98434 43.74720 35.36577
# Shear Modulus (GPa) = 22.85867 32.74533 27.80200
#
# Velocity S-wave (km/s) = 3.06500 3.66842 3.38020
# Velocity P-wave (km/s) = 4.85956 5.99348 5.45606
#
# Compressibility (1/GPa) = 0.03705853
#
# Stress axis : x y z
#
# Youngs Moduli (GPa) = 66.88984 170.64362 36.26980
#
# Poissons Ratio (x) = 0.27598 0.05411
# Poissons Ratio (y) = 0.10818 0.09257
# Poissons Ratio (z) = 0.09979 0.43552
#
# Static dielectric constant tensor:
#      x y z
#    x 1.969100 0.000000 0.037720 
#    y 0.000000 1.992430 0.000000 
#    z 0.037720 0.000000 2.009010 
# 
# From -- ./inp_files/143942.got.cif
#   From: 2010.05.17/outbox.cif.g08.bks.cpg/sg15_72_cif.got.tgz:143942.got - 2010.06.03 18:47:42.
