data_PCOD9267349
_publ_section_title
;
Structure prediction by ZEFSAII (Michael W. Deem and Ramdas Pophale) SiO2 
 PCOD9267349
Probable space group: C 2/C
;
_chemical_formula_sum "Si O2"
_cell_formula_units_Z 40
_cell_length_a 18.939148
_cell_length_b 7.703831
_cell_length_c 21.911842
_cell_angle_alpha 90.000000
_cell_angle_beta 136.419257
_cell_angle_gamma 90.000000
_cell_volume 2203.952869
_symmetry_space_group_name_H-M "C 2/C"
_symmetry_group_IT_number 15
_symmetry_cell_setting 'monoclinic'
loop_
_space_group_symop_operation_xyz
x,y,z
-x,y,1/2-z
-x,-y,-z
x,-y,1/2+z
1/2+x,1/2+y,z
1/2-x,1/2+y,1/2-z
1/2-x,1/2-y,-z
1/2+x,1/2-y,1/2+z
loop_
_atom_site_type_symbol
_atom_site_label
_atom_site_fract_x
_atom_site_fract_y
_atom_site_fract_z
Si Si1 0.595977 0.260225 0.690114
Si Si2 0.893545 0.948740 0.401150
Si Si3 0.381975 0.898015 0.062676
Si Si4 0.042668 0.567862 0.091549
Si Si5 0.270138 0.821998 0.112540
O O1 0.624388 0.418595 0.664807
O O2 0.472931 0.246517 0.622614
O O3 0.653181 0.257383 0.789820
O O4 0.616015 0.079699 0.665966
O O5 0.906126 0.752575 0.384661
O O6 0.805637 0.945396 0.397020
O O7 0.000000 0.000000 0.500000
O O8 0.331346 0.916549 0.096748
O O9 0.443968 0.062085 0.074843
O O10 0.298329 0.825681 0.963112
O O11 0.000000 0.500000 0.000000
#
# Coordination Sequence:
#
# PCOD9267349 Si02
#       5
#     8   8   8   8   8
#     4  10  23  38  65  82 124 157 201 247 293 362
#     4  12  21  39  63  88 120 156 204 247 294 356
#     4   9  21  40  63  82 127 160 192 251 297 356
#     4  10  19  39  61  84 121 162 189 248 296 345
#     4  11  21  37  65  91 115 166 198 239 317 342
#
# _framework density 18.149207000000001
#
# number of rings (size 3 to 8) (size 9 to 14) (size 15 to 20)
#    1.200    0.400    6.000    0.600    2.800    0.000 
#    0.000    1.000   13.200    0.000    0.000    0.000 
#    0.000    0.000    0.000    0.000    0.000    0.000 
#
# Total GULP energy -111440.928843 kJ/mol
# GULP energy per Si atom -5572.046442 kJ/mol
# Density = 1.810790 g / cm^3
# Si number density = 18.149207 Si / 1000 Ang^3
#
#
#
# Elastic Constant Matrix: (Units=GPa)
#
#
# Indices 1 2 3 4 5 6 
#
# 1 158.0070 45.2499 30.7448 0.0000 -14.9010 0.0000
# 2 45.2499 90.3128 26.2663 0.0000 -9.9183 0.0000
# 3 30.7448 26.2663 122.5558 0.0000 -28.1926 0.0000
# 4 0.0000 0.0000 0.0000 16.3158 0.0000 1.2615
# 5 -14.9010 -9.9183 -28.1926 0.0000 23.6429 0.0000
# 6 0.0000 0.0000 0.0000 1.2615 0.0000 21.2694
#
#
#
# Elastic Compliance Matrix: (Units=1/GPa)
#
#
# Indices 1 2 3 4 5 6 
#
# 1 0.007664 -0.003374 -0.000570 0.000000 0.002735 0.000000
# 2 -0.003374 0.013417 -0.001686 0.000000 0.001492 0.000000
# 3 -0.000570 -0.001686 0.011601 0.000000 0.012766 0.000000
# 4 0.000000 0.000000 0.000000 0.061573 0.000000 -0.003652
# 5 0.002735 0.001492 0.012766 0.000000 0.059868 0.000000
# 6 0.000000 0.000000 0.000000 -0.003652 0.000000 0.047233
#
#
# Mechanical properties :
#
#
# Convention : Reuss Voigt Hill
#
# Bulk Modulus (GPa) = 46.68225 63.93306 55.30765
# Shear Modulus (GPa) = 22.75248 30.15325 26.45286
#
# Velocity S-wave (km/s) = 3.54451 4.08046 3.82189
# Velocity P-wave (km/s) = 6.52140 7.58308 7.07219
#
# Compressibility (1/GPa) = 0.02142142
#
# Stress axis : x y z
#
# Youngs Moduli (GPa) = 130.48245 74.53154 86.20121
#
# Poissons Ratio (x) = 0.25144 0.04917
# Poissons Ratio (y) = 0.44020 0.14534
# Poissons Ratio (z) = 0.07444 0.12567
#
# Static dielectric constant tensor:
#      x y z
#    x 1.645800 0.000000 0.029870 
#    y 0.000000 1.630300 0.000000 
#    z 0.029870 0.000000 1.637890 
# 
# From -- ./inp_files/208330.got.cif
#   From: 2010.05.17/outbox.cif.g08.bks.cpg/sg15_105_cif.got.tgz:208330.got - 2010.06.03 18:47:42.
