data_PCOD9267905
_publ_section_title
;
Structure prediction by ZEFSAII (Michael W. Deem and Ramdas Pophale) SiO2 
 PCOD9267905
Probable space group: C 2/C
;
_chemical_formula_sum "Si O2"
_cell_formula_units_Z 40
_cell_length_a 11.339783
_cell_length_b 8.434942
_cell_length_c 23.701267
_cell_angle_alpha 90.000000
_cell_angle_beta 46.324390
_cell_angle_gamma 90.000000
_cell_volume 1639.659095
_symmetry_space_group_name_H-M "C 2/C"
_symmetry_group_IT_number 15
_symmetry_cell_setting 'monoclinic'
loop_
_space_group_symop_operation_xyz
x,y,z
-x,y,1/2-z
-x,-y,-z
x,-y,1/2+z
1/2+x,1/2+y,z
1/2-x,1/2+y,1/2-z
1/2-x,1/2-y,-z
1/2+x,1/2-y,1/2+z
loop_
_atom_site_type_symbol
_atom_site_label
_atom_site_fract_x
_atom_site_fract_y
_atom_site_fract_z
Si Si1 0.135476 0.442642 0.129834
Si Si2 0.450716 0.351881 0.976339
Si Si3 0.315580 0.198775 0.762815
Si Si4 0.261592 0.215736 0.564173
Si Si5 0.475201 0.499986 0.667583
O O1 0.177253 0.363891 0.175871
O O2 0.176207 0.627421 0.118033
O O3 0.946203 0.405872 0.184380
O O4 0.255297 0.357227 0.045978
O O5 0.555679 0.213063 0.970750
O O6 0.514504 0.403244 0.894521
O O7 0.500000 0.500000 0.000000
O O8 0.381971 0.376664 0.738022
O O9 0.136697 0.156361 0.800692
O O10 0.250000 0.250000 0.500000
O O11 0.156884 0.063858 0.616646
#
# Coordination Sequence:
#
# PCOD9267905 Si02
#       5
#     8   8   8   8   8
#     4  10  21  44  66  94 144 181 230 309 352 412
#     4  10  19  40  70  98 135 177 244 291 347 428
#     4  11  24  41  64  99 146 185 231 300 358 433
#     4  11  19  39  76  98 126 184 239 298 360 419
#     4  12  23  43  68 106 137 192 242 287 370 434
#
# _framework density 24.395315
#
# number of rings (size 3 to 8) (size 9 to 14) (size 15 to 20)
#    0.000    1.200    8.000    1.200    0.000    0.800 
#    7.200    1.000    0.000    0.000    0.000    0.000 
#    0.000    0.000    0.000    0.000    0.000    0.000 
#
# Total GULP energy -111765.702781 kJ/mol
# GULP energy per Si atom -5588.285139 kJ/mol
# Density = 2.433979 g / cm^3
# Si number density = 24.395315 Si / 1000 Ang^3
#
#
#
# Elastic Constant Matrix: (Units=GPa)
#
#
# Indices 1 2 3 4 5 6 
#
# 1 39.6802 6.7592 26.8256 0.0000 -11.9003 0.0000
# 2 6.7592 95.0197 30.4331 0.0000 21.3873 0.0000
# 3 26.8256 30.4331 107.8661 0.0000 -1.1611 0.0000
# 4 0.0000 0.0000 0.0000 50.2242 0.0000 -10.2258
# 5 -11.9003 21.3873 -1.1611 0.0000 40.8161 0.0000
# 6 0.0000 0.0000 0.0000 -10.2258 0.0000 37.1160
#
#
#
# Elastic Compliance Matrix: (Units=1/GPa)
#
#
# Indices 1 2 3 4 5 6 
#
# 1 0.034107 -0.002446 -0.007674 0.000000 0.011008 0.000000
# 2 -0.002446 0.013531 -0.003294 0.000000 -0.007897 0.000000
# 3 -0.007674 -0.003294 0.012107 0.000000 -0.000167 0.000000
# 4 0.000000 0.000000 0.000000 0.021094 0.000000 0.005812
# 5 0.011008 -0.007897 -0.000167 0.000000 0.031843 0.000000
# 6 0.000000 0.000000 0.000000 0.005812 0.000000 0.028544
#
#
# Mechanical properties :
#
#
# Convention : Reuss Voigt Hill
#
# Bulk Modulus (GPa) = 30.37970 41.17798 35.77884
# Shear Modulus (GPa) = 27.92912 37.53448 32.73180
#
# Velocity S-wave (km/s) = 3.38724 3.92675 3.66693
# Velocity P-wave (km/s) = 5.27048 6.12170 5.71197
#
# Compressibility (1/GPa) = 0.03291671
#
# Stress axis : x y z
#
# Youngs Moduli (GPa) = 29.31944 73.90635 82.59868
#
# Poissons Ratio (x) = 0.18078 0.63383
# Poissons Ratio (y) = 0.07172 0.27209
# Poissons Ratio (z) = 0.22498 0.24346
#
# Static dielectric constant tensor:
#      x y z
#    x 2.018680 0.000000 -0.032220 
#    y 0.000000 1.944800 0.000000 
#    z -0.032220 0.000000 1.986350 
# 
# From -- ./inp_files/294702.got.cif
#   From: 2010.05.17/outbox.cif.g08.bks.cpg/sg15_148_cif.got.tgz:294702.got - 2010.06.03 18:47:42.
