data_PCOD9267529
_publ_section_title
;
Structure prediction by ZEFSAII (Michael W. Deem and Ramdas Pophale) SiO2 
 PCOD9267529
Probable space group: C 2/C
;
_chemical_formula_sum "Si O2"
_cell_formula_units_Z 52
_cell_length_a 14.875119
_cell_length_b 28.508160
_cell_length_c 9.277281
_cell_angle_alpha 90.000000
_cell_angle_beta 42.410323
_cell_angle_gamma 90.000000
_cell_volume 2653.326660
_symmetry_space_group_name_H-M "C 2/C"
_symmetry_group_IT_number 15
_symmetry_cell_setting 'monoclinic'
loop_
_space_group_symop_operation_xyz
x,y,z
-x,y,1/2-z
-x,-y,-z
x,-y,1/2+z
1/2+x,1/2+y,z
1/2-x,1/2+y,1/2-z
1/2-x,1/2-y,-z
1/2+x,1/2-y,1/2+z
loop_
_atom_site_type_symbol
_atom_site_label
_atom_site_fract_x
_atom_site_fract_y
_atom_site_fract_z
Si Si1 0.475667 0.925915 0.445867
Si Si2 0.616813 0.506160 0.206815
Si Si3 0.500000 0.600337 0.250000
Si Si4 0.129645 0.722450 0.494482
Si Si5 0.003842 0.337811 0.917028
Si Si6 0.268065 0.673849 0.583189
Si Si7 0.707680 0.011579 0.759326
O O1 0.500000 0.912721 0.250000
O O2 0.425025 0.883803 0.603102
O O3 0.611870 0.944266 0.358397
O O4 0.375290 0.969302 0.574278
O O5 0.500000 0.483369 0.250000
O O6 0.578232 0.561743 0.257435
O O7 0.656771 0.483526 0.310025
O O8 0.747734 0.500231 0.954413
O O9 0.384807 0.634825 0.447794
O O10 0.223153 0.685489 0.470698
O O11 0.186900 0.774544 0.418995
O O12 0.000000 0.724946 0.750000
O O13 0.083727 0.704961 0.393509
O O14 0.000000 0.337016 0.750000
O O15 0.859134 0.338893 0.167673
#
# Coordination Sequence:
#
# PCOD9267529 Si02
#       7
#     8   8   4   8   8   8   8
#     4  11  23  39  64  86 119 162 214 264 302 361
#     4  10  23  37  58  86 123 159 201 248 306 373
#     4  10  22  36  64  92 116 168 204 252 298 360
#     4   9  19  37  66  93 116 160 209 252 299 365
#     4  11  25  38  59  96 125 160 200 262 318 358
#     4  10  19  39  65  89 123 157 209 250 297 372
#     4  11  22  40  59  87 115 161 202 258 307 362
#
# _framework density 19.598040000000001
#
# number of rings (size 3 to 8) (size 9 to 14) (size 15 to 20)
#    0.462    1.231    2.308    2.769    4.308    0.615 
#    0.000    0.000    0.000    0.000    0.000    0.000 
#    0.000    0.000    0.000    0.000    0.000    0.000 
#
# Total GULP energy -144894.140534 kJ/mol
# GULP energy per Si atom -5572.851559 kJ/mol
# Density = 1.955343 g / cm^3
# Si number density = 19.598040 Si / 1000 Ang^3
#
#
#
# Elastic Constant Matrix: (Units=GPa)
#
#
# Indices 1 2 3 4 5 6 
#
# 1 118.1392 50.3885 31.5053 0.0000 19.4014 0.0000
# 2 50.3885 55.4955 17.7790 0.0000 15.3204 0.0000
# 3 31.5053 17.7790 60.8167 0.0000 17.5040 0.0000
# 4 0.0000 0.0000 0.0000 21.2610 0.0000 -1.5054
# 5 19.4014 15.3204 17.5040 0.0000 36.8176 0.0000
# 6 0.0000 0.0000 0.0000 -1.5054 0.0000 14.0007
#
#
#
# Elastic Compliance Matrix: (Units=1/GPa)
#
#
# Indices 1 2 3 4 5 6 
#
# 1 0.014711 -0.011845 -0.003876 0.000000 -0.000981 0.000000
# 2 -0.011845 0.030804 -0.001131 0.000000 -0.006038 0.000000
# 3 -0.003876 -0.001131 0.020921 0.000000 -0.007433 0.000000
# 4 0.000000 0.000000 0.000000 0.047395 0.000000 0.005096
# 5 -0.000981 -0.006038 -0.007433 0.000000 0.033724 0.000000
# 6 0.000000 0.000000 0.000000 0.005096 0.000000 0.071973
#
#
# Mechanical properties :
#
#
# Convention : Reuss Voigt Hill
#
# Bulk Modulus (GPa) = 30.55135 48.19966 39.37550
# Shear Modulus (GPa) = 18.92912 23.40112 21.16512
#
# Velocity S-wave (km/s) = 3.11121 3.45926 3.28984
# Velocity P-wave (km/s) = 5.34126 6.37203 5.87928
#
# Compressibility (1/GPa) = 0.03273178
#
# Stress axis : x y z
#
# Youngs Moduli (GPa) = 67.97415 32.46345 47.79932
#
# Poissons Ratio (x) = 0.38453 0.18527
# Poissons Ratio (y) = 0.80516 0.05406
# Poissons Ratio (z) = 0.26347 0.03671
#
# Static dielectric constant tensor:
#      x y z
#    x 1.748820 0.000000 -0.073980 
#    y 0.000000 1.687100 0.000000 
#    z -0.073980 0.000000 1.717520 
# 
# From -- ./inp_files/44216.got.cif
#   From: 2010.05.17/outbox.cif.g08.bks.cpg/sg15_23_cif.got.tgz:44216.got - 2010.06.03 18:47:42.
