data_PCOD9267704
_publ_section_title
;
Structure prediction by ZEFSAII (Michael W. Deem and Ramdas Pophale) SiO2 
 PCOD9267704
Probable space group: C 2/C
;
_chemical_formula_sum "Si O2"
_cell_formula_units_Z 36
_cell_length_a 8.671907
_cell_length_b 20.454265
_cell_length_c 15.515082
_cell_angle_alpha 90.000000
_cell_angle_beta 34.501643
_cell_angle_gamma 90.000000
_cell_volume 1558.829844
_symmetry_space_group_name_H-M "C 2/C"
_symmetry_group_IT_number 15
_symmetry_cell_setting 'monoclinic'
loop_
_space_group_symop_operation_xyz
x,y,z
-x,y,1/2-z
-x,-y,-z
x,-y,1/2+z
1/2+x,1/2+y,z
1/2-x,1/2+y,1/2-z
1/2-x,1/2-y,-z
1/2+x,1/2-y,1/2+z
loop_
_atom_site_type_symbol
_atom_site_label
_atom_site_fract_x
_atom_site_fract_y
_atom_site_fract_z
Si Si1 0.425226 0.286715 0.491813
Si Si2 0.405468 0.174476 0.639982
Si Si3 0.500000 0.122965 0.750000
Si Si4 0.000000 0.928829 0.250000
Si Si5 0.000000 0.394694 0.750000
Si Si6 0.159938 0.004922 0.838122
O O1 0.250000 0.250000 0.500000
O O2 0.462859 0.235288 0.552011
O O3 0.697784 0.305493 0.314005
O O4 0.241058 0.348402 0.604432
O O5 0.645047 0.154316 0.596848
O O6 0.254704 0.120359 0.649371
O O7 0.323163 0.071166 0.777551
O O8 0.025370 0.977834 0.157689
O O9 0.136906 0.443195 0.757582
O O10 0.000000 0.000000 0.000000
#
# Coordination Sequence:
#
# PCOD9267704 Si02
#       6
#     8   8   4   4   4   8
#     4  12  21  39  64  92 119 168 213 255 307 377
#     4  11  22  39  66  89 124 165 211 256 316 371
#     4   9  22  42  58  90 126 161 200 266 314 361
#     4  10  19  40  62  84 117 166 202 248 316 372
#     4  11  21  38  62  92 125 161 208 262 308 375
#     4  10  22  40  62  90 127 164 209 260 315 380
#
# _framework density 23.094245999999998
#
# number of rings (size 3 to 8) (size 9 to 14) (size 15 to 20)
#    0.000    1.333    4.444    2.667    0.000    0.889 
#    4.000    5.556    0.000    0.000    0.000    0.000 
#    0.000    0.000    0.000    0.000    0.000    0.000 
#
# Total GULP energy -100265.026662 kJ/mol
# GULP energy per Si atom -5570.279259 kJ/mol
# Density = 2.304168 g / cm^3
# Si number density = 23.094246 Si / 1000 Ang^3
#
#
#
# Elastic Constant Matrix: (Units=GPa)
#
#
# Indices 1 2 3 4 5 6 
#
# 1 111.5337 44.7847 8.7736 -0.0088 47.9261 0.0004
# 2 44.7847 130.8486 22.1483 -0.0038 29.0684 0.0001
# 3 8.7736 22.1483 72.4401 -0.0199 21.5998 0.0064
# 4 -0.0088 -0.0038 -0.0199 27.6767 0.0017 5.1719
# 5 47.9261 29.0684 21.5998 0.0017 35.1420 -0.0013
# 6 0.0004 0.0001 0.0064 5.1719 -0.0013 49.7387
#
#
#
# Elastic Compliance Matrix: (Units=1/GPa)
#
#
# Indices 1 2 3 4 5 6 
#
# 1 0.025955 -0.001618 0.009191 0.000018 -0.039709 -0.000004
# 2 -0.001618 0.009491 -0.001252 0.000000 -0.004874 0.000000
# 3 0.009191 -0.001252 0.020206 0.000020 -0.023918 -0.000005
# 4 0.000018 0.000000 0.000020 0.036847 -0.000039 -0.003831
# 5 -0.039709 -0.004874 -0.023918 -0.000039 0.101343 0.000010
# 6 -0.000004 0.000000 -0.000005 -0.003831 0.000010 0.020503
#
#
# Mechanical properties :
#
#
# Convention : Reuss Voigt Hill
#
# Bulk Modulus (GPa) = 14.64255 51.80393 33.22324
# Shear Modulus (GPa) = 22.27470 38.45253 30.36362
#
# Velocity S-wave (km/s) = 3.10903 4.08490 3.62991
# Velocity P-wave (km/s) = 4.38659 6.68796 5.65557
#
# Compressibility (1/GPa) = 0.06829413
#
# Stress axis : x y z
#
# Youngs Moduli (GPa) = 38.52767 105.36250 49.48992
#
# Poissons Ratio (x) = 0.17047 -0.45487
# Poissons Ratio (y) = 0.06234 0.06198
# Poissons Ratio (z) = -0.35412 0.13196
#
# Static dielectric constant tensor:
#      x y z
#    x 14.389140 -0.001200 -7.180550 
#    y -0.001200 2.336040 0.000750 
#    z -7.180550 0.000750 5.924160 
# 
# From -- ./inp_files/23202.got.cif
#   From: 2010.05.17/outbox.cif.g08.bks.cpg/sg15_12_cif.got.tgz:23202.got - 2010.06.03 18:47:42.
