data_PCOD9267375
_publ_section_title
;
Structure prediction by ZEFSAII (Michael W. Deem and Ramdas Pophale) SiO2 
 PCOD9267375
Probable space group: C 2/C
;
_chemical_formula_sum "Si O2"
_cell_formula_units_Z 56
_cell_length_a 9.771804
_cell_length_b 19.104218
_cell_length_c 17.512829
_cell_angle_alpha 90.000000
_cell_angle_beta 117.161759
_cell_angle_gamma 90.000000
_cell_volume 2908.802846
_symmetry_space_group_name_H-M "C 2/C"
_symmetry_group_IT_number 15
_symmetry_cell_setting 'monoclinic'
loop_
_space_group_symop_operation_xyz
x,y,z
-x,y,1/2-z
-x,-y,-z
x,-y,1/2+z
1/2+x,1/2+y,z
1/2-x,1/2+y,1/2-z
1/2-x,1/2-y,-z
1/2+x,1/2-y,1/2+z
loop_
_atom_site_type_symbol
_atom_site_label
_atom_site_fract_x
_atom_site_fract_y
_atom_site_fract_z
Si Si1 0.335128 0.318414 0.487721
Si Si2 0.829566 0.185195 0.673868
Si Si3 0.182899 0.705015 0.792487
Si Si4 0.176987 0.588175 0.514994
Si Si5 0.676696 0.366921 0.768453
Si Si6 0.172724 0.573853 0.054583
Si Si7 0.303122 0.665495 0.400999
O O1 0.250000 0.250000 0.500000
O O2 0.267822 0.328857 0.385860
O O3 0.284836 0.379768 0.531697
O O4 0.519886 0.314750 0.534052
O O5 0.726181 0.173906 0.722190
O O6 0.790884 0.127042 0.602037
O O7 0.788786 0.261460 0.629382
O O8 0.000000 0.184505 0.750000
O O9 0.227046 0.787536 0.802851
O O10 0.000000 0.702101 0.750000
O O11 0.182416 0.504776 0.526213
O O12 0.224954 0.616454 0.444185
O O13 0.999900 0.604840 0.491646
O O14 0.500000 0.373829 0.750000
O O15 0.774206 0.420197 0.843960
O O16 0.693628 0.370385 0.681783
#
# Coordination Sequence:
#
# PCOD9267375 Si02
#       7
#     8   8   8   8   8   8   8
#     4  12  20  39  69  95 124 170 216 274 312 380
#     4  11  24  41  63  94 129 165 205 272 329 376
#     4  10  20  35  62  94 122 155 214 261 314 370
#     4  11  26  44  59  96 131 174 215 258 328 395
#     4  10  19  39  61  94 120 162 208 263 318 369
#     4  11  24  42  66  86 135 175 210 263 329 381
#     4  11  24  39  68  97 124 164 224 267 319 390
#
# _framework density 19.251905000000001
#
# number of rings (size 3 to 8) (size 9 to 14) (size 15 to 20)
#    0.000    1.143    2.857    4.714    4.000    1.143 
#    2.571    0.000    0.000    0.000    0.000    0.000 
#    0.000    0.000    0.000    0.000    0.000    0.000 
#
# Total GULP energy -156452.004220 kJ/mol
# GULP energy per Si atom -5587.571579 kJ/mol
# Density = 1.920809 g / cm^3
# Si number density = 19.251905 Si / 1000 Ang^3
#
#
#
# Elastic Constant Matrix: (Units=GPa)
#
#
# Indices 1 2 3 4 5 6 
#
# 1 96.0925 41.8551 38.6209 0.0000 -0.5799 0.0000
# 2 41.8551 51.2464 35.9400 0.0000 -1.9998 0.0000
# 3 38.6209 35.9400 128.7435 0.0000 -5.6707 0.0000
# 4 0.0000 0.0000 0.0000 3.6683 0.0000 -14.8917
# 5 -0.5799 -1.9998 -5.6707 0.0000 41.1897 0.0000
# 6 0.0000 0.0000 0.0000 -14.8917 0.0000 17.2070
#
#
#
# Elastic Compliance Matrix: (Units=1/GPa)
#
#
# Indices 1 2 3 4 5 6 
#
# 1 0.016386 -0.012360 -0.001490 0.000000 -0.000575 0.000000
# 2 -0.012360 0.033590 -0.005639 0.000000 0.000680 0.000000
# 3 -0.001490 -0.005639 0.009835 0.000000 0.001059 0.000000
# 4 0.000000 0.000000 0.000000 -0.108464 0.000000 -0.093870
# 5 -0.000575 0.000680 0.001059 0.000000 0.024449 0.000000
# 6 0.000000 0.000000 0.000000 -0.093870 0.000000 -0.023123
#
#
# Mechanical properties :
#
#
# Convention : Reuss Voigt Hill
#
# Bulk Modulus (GPa) = 48.00347 56.54606 52.27476
# Shear Modulus (GPa) = -3561.16320 23.05743 -1769.05289
#
# Velocity S-wave (km/s) = -43.05563 3.46449 -30.34621
# Velocity P-wave (km/s) = 49.46441 6.74085 34.65032
#
# Compressibility (1/GPa) = 0.02083183
#
# Stress axis : x y z
#
# Youngs Moduli (GPa) = 61.02789 29.77061 101.67419
#
# Poissons Ratio (x) = 0.36798 0.15153
# Poissons Ratio (y) = 0.75433 0.57336
# Poissons Ratio (z) = 0.09095 0.16788
#
# Static dielectric constant tensor:
#      x y z
#    x 1.644940 0.000000 -0.012040 
#    y 0.000000 1.648700 0.000000 
#    z -0.012040 0.000000 1.675380 
# 
# From -- ./inp_files/191043.got.cif
#   From: 2010.05.17/outbox.cif.g08.bks.cpg/sg15_96_cif.got.tgz:191043.got - 2010.06.03 18:47:42.
