data_PCOD9267385
_publ_section_title
;
Structure prediction by ZEFSAII (Michael W. Deem and Ramdas Pophale) SiO2 
 PCOD9267385
Probable space group: C 2/C
;
_chemical_formula_sum "Si O2"
_cell_formula_units_Z 48
_cell_length_a 10.579974
_cell_length_b 14.391561
_cell_length_c 16.254603
_cell_angle_alpha 90.000000
_cell_angle_beta 59.288765
_cell_angle_gamma 90.000000
_cell_volume 2127.855526
_symmetry_space_group_name_H-M "C 2/C"
_symmetry_group_IT_number 15
_symmetry_cell_setting 'monoclinic'
loop_
_space_group_symop_operation_xyz
x,y,z
-x,y,1/2-z
-x,-y,-z
x,-y,1/2+z
1/2+x,1/2+y,z
1/2-x,1/2+y,1/2-z
1/2-x,1/2-y,-z
1/2+x,1/2-y,1/2+z
loop_
_atom_site_type_symbol
_atom_site_label
_atom_site_fract_x
_atom_site_fract_y
_atom_site_fract_z
Si Si1 0.412663 0.788549 0.448876
Si Si2 0.571721 0.490635 0.354496
Si Si3 0.842940 0.820072 0.719084
Si Si4 0.931425 0.777861 0.123381
Si Si5 0.252583 0.525979 0.532669
Si Si6 0.377934 0.867417 0.848831
O O1 0.250000 0.750000 0.500000
O O2 0.515198 0.742378 0.345694
O O3 0.472215 0.745874 0.515448
O O4 0.369998 0.897294 0.449717
O O5 0.627237 0.570155 0.273080
O O6 0.556454 0.381494 0.344397
O O7 0.409641 0.528868 0.434388
O O8 0.688740 0.479675 0.391756
O O9 0.732008 0.765140 0.813891
O O10 0.754509 0.831714 0.662802
O O11 0.035948 0.718635 0.145037
O O12 0.174116 0.426924 0.556013
O O13 0.500000 0.918632 0.750000
#
# Coordination Sequence:
#
# PCOD9267385 Si02
#       6
#     8   8   8   8   8   8
#     4  12  22  39  61  97 124 155 205 256 301 363
#     4  10  19  39  62  82 118 170 199 237 309 373
#     4  10  23  41  63  88 123 161 210 248 302 376
#     4  11  23  40  65  90 124 162 205 258 305 355
#     4  10  20  37  62  86 121 161 202 246 301 370
#     4   9  21  41  60  87 121 165 211 248 300 371
#
# _framework density 22.557922999999999
#
# number of rings (size 3 to 8) (size 9 to 14) (size 15 to 20)
#    0.000    1.667    3.333    2.000    0.000    8.000 
#    0.000    5.000    0.000    0.000    0.000    0.000 
#    0.000    0.000    0.000    0.000    0.000    0.000 
#
# Total GULP energy -133603.801465 kJ/mol
# GULP energy per Si atom -5566.825061 kJ/mol
# Density = 2.250658 g / cm^3
# Si number density = 22.557923 Si / 1000 Ang^3
#
#
#
# Elastic Constant Matrix: (Units=GPa)
#
#
# Indices 1 2 3 4 5 6 
#
# 1 71.6485 16.9316 4.4854 0.0000 -10.6517 0.0000
# 2 16.9316 133.6303 24.6025 0.0000 -15.8730 0.0000
# 3 4.4854 24.6025 40.1030 0.0000 -2.8613 0.0000
# 4 0.0000 0.0000 0.0000 18.5809 0.0000 -16.5250
# 5 -10.6517 -15.8730 -2.8613 0.0000 25.4901 0.0000
# 6 0.0000 0.0000 0.0000 -16.5250 0.0000 18.2575
#
#
#
# Elastic Compliance Matrix: (Units=1/GPa)
#
#
# Indices 1 2 3 4 5 6 
#
# 1 0.015086 -0.001147 -0.000590 0.000000 0.005524 0.000000
# 2 -0.001147 0.009124 -0.005139 0.000000 0.004626 0.000000
# 3 -0.000590 -0.005139 0.028134 0.000000 -0.000289 0.000000
# 4 0.000000 0.000000 0.000000 0.275944 0.000000 0.249759
# 5 0.005524 0.004626 -0.000289 0.000000 0.044387 0.000000
# 6 0.000000 0.000000 0.000000 0.249759 0.000000 0.280832
#
#
# Mechanical properties :
#
#
# Convention : Reuss Voigt Hill
#
# Bulk Modulus (GPa) = 25.91146 37.49117 31.70132
# Shear Modulus (GPa) = 7.35161 25.75650 16.55406
#
# Velocity S-wave (km/s) = 1.80723 3.38271 2.71190
# Velocity P-wave (km/s) = 3.98326 5.64916 4.88771
#
# Compressibility (1/GPa) = 0.03859296
#
# Stress axis : x y z
#
# Youngs Moduli (GPa) = 66.28593 109.59774 35.54415
#
# Poissons Ratio (x) = 0.12568 0.02096
# Poissons Ratio (y) = 0.07602 0.18267
# Poissons Ratio (z) = 0.03909 0.56325
#
# Static dielectric constant tensor:
#      x y z
#    x 1.840260 0.000000 0.004110 
#    y 0.000000 2.946420 0.000000 
#    z 0.004110 0.000000 2.008760 
# 
# From -- ./inp_files/237410.got.cif
#   From: 2010.05.17/outbox.cif.g08.bks.cpg/sg15_119_cif.got.tgz:237410.got - 2010.06.03 18:47:42.
