data_PCOD9267483
_publ_section_title
;
Structure prediction by ZEFSAII (Michael W. Deem and Ramdas Pophale) SiO2 
 PCOD9267483
Probable space group: C 2/C
;
_chemical_formula_sum "Si O2"
_cell_formula_units_Z 48
_cell_length_a 32.555199
_cell_length_b 9.379363
_cell_length_c 18.836999
_cell_angle_alpha 90.000000
_cell_angle_beta 23.808116
_cell_angle_gamma 90.000000
_cell_volume 2321.866025
_symmetry_space_group_name_H-M "C 2/C"
_symmetry_group_IT_number 15
_symmetry_cell_setting 'monoclinic'
loop_
_space_group_symop_operation_xyz
x,y,z
-x,y,1/2-z
-x,-y,-z
x,-y,1/2+z
1/2+x,1/2+y,z
1/2-x,1/2+y,1/2-z
1/2-x,1/2-y,-z
1/2+x,1/2-y,1/2+z
loop_
_atom_site_type_symbol
_atom_site_label
_atom_site_fract_x
_atom_site_fract_y
_atom_site_fract_z
Si Si1 0.702208 0.781185 0.726381
Si Si2 0.108789 0.321537 0.719478
Si Si3 0.032589 0.559985 0.584134
Si Si4 0.330703 0.248704 0.935858
Si Si5 0.605820 0.563189 0.621788
Si Si6 0.191682 0.487852 0.450318
O O1 0.669702 0.801349 0.695455
O O2 0.810528 0.860316 0.560168
O O3 0.721946 0.616573 0.715507
O O4 0.616474 0.854100 0.908299
O O5 0.089205 0.168820 0.714944
O O6 0.165151 0.411681 0.567832
O O7 0.012009 0.422596 0.886149
O O8 0.092593 0.496688 0.557308
O O9 0.938533 0.668086 0.749154
O O10 0.352813 0.409633 0.921903
O O11 0.250000 0.250000 0.000000
O O12 0.281470 0.150498 0.075197
O O13 0.500000 0.546922 0.750000
#
# Coordination Sequence:
#
# PCOD9267483 Si02
#       6
#     8   8   8   8   8   8
#     4  11  23  40  63  93 122 159 210 262 310 367
#     4  10  19  39  64  88 119 164 206 245 305 385
#     4  11  23  40  62  92 126 161 204 264 320 365
#     4  11  22  40  62  88 122 166 209 253 312 385
#     4  11  21  37  62  90 118 161 212 253 301 380
#     4  10  21  40  62  87 123 167 205 247 310 382
#
# _framework density 20.673027000000001
#
# number of rings (size 3 to 8) (size 9 to 14) (size 15 to 20)
#    0.000    1.333    0.000   10.500    0.000    2.667 
#    0.000    6.667    0.000    0.000    0.000    0.000 
#    0.000    0.000    0.000    0.000    0.000    0.000 
#
# Total GULP energy -133982.545142 kJ/mol
# GULP energy per Si atom -5582.606048 kJ/mol
# Density = 2.062597 g / cm^3
# Si number density = 20.673027 Si / 1000 Ang^3
#
#
#
# Elastic Constant Matrix: (Units=GPa)
#
#
# Indices 1 2 3 4 5 6 
#
# 1 41.9250 -9.1318 2.1297 0.0000 -3.8422 0.0000
# 2 -9.1318 151.0088 34.4020 0.0000 3.7731 0.0000
# 3 2.1297 34.4020 84.7361 0.0000 -1.0520 0.0000
# 4 0.0000 0.0000 0.0000 47.1858 0.0000 -12.4375
# 5 -3.8422 3.7731 -1.0520 0.0000 16.8257 0.0000
# 6 0.0000 0.0000 0.0000 -12.4375 0.0000 36.3696
#
#
#
# Elastic Compliance Matrix: (Units=1/GPa)
#
#
# Indices 1 2 3 4 5 6 
#
# 1 0.024750 0.001646 -0.001226 0.000000 0.005206 0.000000
# 2 0.001646 0.007463 -0.003090 0.000000 -0.001491 0.000000
# 3 -0.001226 -0.003090 0.013102 0.000000 0.001232 0.000000
# 4 0.000000 0.000000 0.000000 0.023292 0.000000 0.007965
# 5 0.005206 -0.001491 0.001232 0.000000 0.061033 0.000000
# 6 0.000000 0.000000 0.000000 0.007965 0.000000 0.030219
#
#
# Mechanical properties :
#
#
# Convention : Reuss Voigt Hill
#
# Bulk Modulus (GPa) = 25.01528 36.94108 30.97818
# Shear Modulus (GPa) = 28.00751 36.76090 32.38420
#
# Velocity S-wave (km/s) = 3.68473 4.22145 3.96219
# Velocity P-wave (km/s) = 5.49816 6.45514 5.99577
#
# Compressibility (1/GPa) = 0.03997557
#
# Stress axis : x y z
#
# Youngs Moduli (GPa) = 40.40415 133.99829 76.32519
#
# Poissons Ratio (x) = -0.22054 0.09354
# Poissons Ratio (y) = -0.06650 0.23582
# Poissons Ratio (z) = 0.04952 0.41401
#
# Static dielectric constant tensor:
#      x y z
#    x 1.760290 0.000000 0.017600 
#    y 0.000000 1.745490 0.000000 
#    z 0.017600 0.000000 1.787230 
# 
# From -- ./inp_files/224525.got.cif
#   From: 2010.05.17/outbox.cif.g08.bks.cpg/sg15_113_cif.got.tgz:224525.got - 2010.06.03 18:47:42.
