data_PCOD9267895
_publ_section_title
;
Structure prediction by ZEFSAII (Michael W. Deem and Ramdas Pophale) SiO2 
 PCOD9267895
Probable space group: C 2/C
;
_chemical_formula_sum "Si O2"
_cell_formula_units_Z 56
_cell_length_a 12.268177
_cell_length_b 23.161378
_cell_length_c 11.066029
_cell_angle_alpha 90.000000
_cell_angle_beta 117.155530
_cell_angle_gamma 90.000000
_cell_volume 2797.785534
_symmetry_space_group_name_H-M "C 2/C"
_symmetry_group_IT_number 15
_symmetry_cell_setting 'monoclinic'
loop_
_space_group_symop_operation_xyz
x,y,z
-x,y,1/2-z
-x,-y,-z
x,-y,1/2+z
1/2+x,1/2+y,z
1/2-x,1/2+y,1/2-z
1/2-x,1/2-y,-z
1/2+x,1/2-y,1/2+z
loop_
_atom_site_type_symbol
_atom_site_label
_atom_site_fract_x
_atom_site_fract_y
_atom_site_fract_z
Si Si1 0.160310 0.889958 0.208270
Si Si2 0.048787 0.534714 0.908893
Si Si3 0.631779 0.256804 0.524547
Si Si4 0.500000 0.299510 0.250000
Si Si5 0.906785 0.113172 0.428597
Si Si6 0.805331 0.023411 0.559414
Si Si7 0.419424 0.844816 0.316544
Si Si8 0.500000 0.443406 0.750000
O O1 0.192605 0.945123 0.307950
O O2 0.286462 0.870120 0.210805
O O3 0.113451 0.842074 0.281700
O O4 0.042384 0.893501 0.060713
O O5 0.000000 0.517792 0.750000
O O6 0.001141 0.600484 0.901029
O O7 0.191627 0.518593 0.981570
O O8 0.000000 0.500000 0.000000
O O9 0.750000 0.250000 0.500000
O O10 0.518263 0.260915 0.375280
O O11 0.633000 0.320175 0.584913
O O12 0.611067 0.203843 0.602189
O O13 0.818918 0.071851 0.463074
O O14 0.914783 0.093653 0.294343
O O15 0.925451 0.984510 0.622885
O O16 0.500000 0.818681 0.250000
#
# Coordination Sequence:
#
# PCOD9267895 Si02
#       8
#     8   8   8   4   8   8   8   4
#     4  11  19  43  70  95 128 178 231 271 349 409
#     4  11  27  44  67 100 143 190 225 277 351 431
#     4  11  22  45  71  94 126 179 238 280 331 414
#     4  10  19  40  70 100 114 171 234 288 330 386
#     4  11  25  42  68 103 133 176 229 297 343 405
#     4  12  22  43  70  96 138 175 231 280 346 413
#     4  11  25  43  66  98 142 190 218 278 360 424
#     4  12  27  36  66 106 134 165 216 296 352 392
#
# _framework density 20.015830000000001
#
# number of rings (size 3 to 8) (size 9 to 14) (size 15 to 20)
#    0.000    0.857    7.143    0.429    7.000    0.000 
#    3.857    2.857    0.000    0.000    0.000    0.000 
#    0.000    0.000    0.000    0.000    0.000    0.000 
#
# Total GULP energy -156221.635469 kJ/mol
# GULP energy per Si atom -5579.344124 kJ/mol
# Density = 1.997027 g / cm^3
# Si number density = 20.015830 Si / 1000 Ang^3
#
#
#
# Elastic Constant Matrix: (Units=GPa)
#
#
# Indices 1 2 3 4 5 6 
#
# 1 113.6109 51.0121 13.6392 0.0000 -0.7134 0.0000
# 2 51.0121 113.1231 45.4472 0.0000 -4.3530 0.0000
# 3 13.6392 45.4472 45.7262 0.0000 -12.1911 0.0000
# 4 0.0000 0.0000 0.0000 31.0057 0.0000 -11.3508
# 5 -0.7134 -4.3530 -12.1911 0.0000 40.8240 0.0000
# 6 0.0000 0.0000 0.0000 -11.3508 0.0000 34.0530
#
#
#
# Elastic Compliance Matrix: (Units=1/GPa)
#
#
# Indices 1 2 3 4 5 6 
#
# 1 0.011255 -0.006252 0.002967 0.000000 0.000416 0.000000
# 2 -0.006252 0.018544 -0.017458 0.000000 -0.003345 0.000000
# 3 0.002967 -0.017458 0.041128 0.000000 0.010472 0.000000
# 4 0.000000 0.000000 0.000000 0.036735 0.000000 0.012245
# 5 0.000416 -0.003345 0.010472 0.000000 0.027273 0.000000
# 6 0.000000 0.000000 0.000000 0.012245 0.000000 0.033447
#
#
# Mechanical properties :
#
#
# Convention : Reuss Voigt Hill
#
# Bulk Modulus (GPa) = 33.96489 54.73970 44.35229
# Shear Modulus (GPa) = 22.76015 32.00064 27.38039
#
# Velocity S-wave (km/s) = 3.37576 4.00280 3.70258
# Velocity P-wave (km/s) = 5.67452 6.98361 6.36282
#
# Compressibility (1/GPa) = 0.02944217
#
# Stress axis : x y z
#
# Youngs Moduli (GPa) = 88.84649 53.92543 24.31437
#
# Poissons Ratio (x) = 0.33712 -0.07214
# Poissons Ratio (y) = 0.55543 0.42448
# Poissons Ratio (z) = -0.26362 0.94144
#
# Static dielectric constant tensor:
#      x y z
#    x 1.756480 0.000000 0.005510 
#    y 0.000000 1.756500 0.000000 
#    z 0.005510 0.000000 1.780070 
# 
# From -- ./inp_files/89690.got.cif
#   From: 2010.05.17/outbox.cif.g08.bks.cpg/sg15_45_cif.got.tgz:89690.got - 2010.06.03 18:47:42.
