data_PCOD9267665
_publ_section_title
;
Structure prediction by ZEFSAII (Michael W. Deem and Ramdas Pophale) SiO2 
 PCOD9267665
Probable space group: C 2/C
;
_chemical_formula_sum "Si O2"
_cell_formula_units_Z 48
_cell_length_a 15.427195
_cell_length_b 8.453471
_cell_length_c 15.273304
_cell_angle_alpha 90.000000
_cell_angle_beta 79.188042
_cell_angle_gamma 90.000000
_cell_volume 1956.483723
_symmetry_space_group_name_H-M "C 2/C"
_symmetry_group_IT_number 15
_symmetry_cell_setting 'monoclinic'
loop_
_space_group_symop_operation_xyz
x,y,z
-x,y,1/2-z
-x,-y,-z
x,-y,1/2+z
1/2+x,1/2+y,z
1/2-x,1/2+y,1/2-z
1/2-x,1/2-y,-z
1/2+x,1/2-y,1/2+z
loop_
_atom_site_type_symbol
_atom_site_label
_atom_site_fract_x
_atom_site_fract_y
_atom_site_fract_z
Si Si1 0.587438 0.117210 0.613843
Si Si2 0.749520 0.889442 0.571622
Si Si3 0.057471 0.125120 0.823218
Si Si4 0.781544 0.106750 0.812211
Si Si5 0.909314 0.498476 0.686067
Si Si6 0.597601 0.477286 0.554108
O O1 0.486819 0.070771 0.612450
O O2 0.591967 0.089317 0.719268
O O3 0.596234 0.291241 0.573329
O O4 0.667236 0.004821 0.568538
O O5 0.750000 0.750000 0.500000
O O6 0.734092 0.792976 0.664564
O O7 0.842392 0.975798 0.539827
O O8 0.159002 0.080086 0.784815
O O9 0.062898 0.315231 0.815499
O O10 0.000000 0.067937 0.750000
O O11 0.996826 0.064517 0.914548
O O12 0.687825 0.023302 0.831803
O O13 0.842380 0.042903 0.877748
#
# Coordination Sequence:
#
# PCOD9267665 Si02
#       6
#     8   8   8   8   8   8
#     4  11  22  38  61  93 123 160 204 260 309 362
#     4  10  20  43  63  85 123 169 201 244 315 379
#     4  10  19  40  58  86 122 166 199 250 312 365
#     4  10  22  37  63  90 119 162 208 252 306 369
#     4  11  22  36  61  91 124 156 210 257 305 363
#     4  10  23  38  64  86 124 163 207 250 313 372
#
# _framework density 24.533809000000002
#
# number of rings (size 3 to 8) (size 9 to 14) (size 15 to 20)
#    0.000    1.667    3.333    2.500    9.333    0.000 
#    0.000    8.333    0.000    0.000    0.000    0.000 
#    0.000    0.000    0.000    0.000    0.000    0.000 
#
# Total GULP energy -134094.692206 kJ/mol
# GULP energy per Si atom -5587.278842 kJ/mol
# Density = 2.447797 g / cm^3
# Si number density = 24.533809 Si / 1000 Ang^3
#
#
#
# Elastic Constant Matrix: (Units=GPa)
#
#
# Indices 1 2 3 4 5 6 
#
# 1 187.5831 60.4304 57.8017 0.0000 -72.0878 0.0000
# 2 60.4304 130.8392 58.6204 0.0000 -40.5369 0.0000
# 3 57.8017 58.6204 147.3737 0.0000 -49.7679 0.0000
# 4 0.0000 0.0000 0.0000 38.3325 0.0000 -23.5787
# 5 -72.0878 -40.5369 -49.7679 0.0000 51.6442 0.0000
# 6 0.0000 0.0000 0.0000 -23.5787 0.0000 36.1037
#
#
#
# Elastic Compliance Matrix: (Units=1/GPa)
#
#
# Indices 1 2 3 4 5 6 
#
# 1 0.011738 -0.000757 0.001527 0.000000 0.017261 0.000000
# 2 -0.000757 0.010556 -0.002165 0.000000 0.005142 0.000000
# 3 0.001527 -0.002165 0.010664 0.000000 0.010708 0.000000
# 4 0.000000 0.000000 0.000000 0.043604 0.000000 0.028477
# 5 0.017261 0.005142 0.010708 0.000000 0.057812 0.000000
# 6 0.000000 0.000000 0.000000 0.028477 0.000000 0.046296
#
#
# Mechanical properties :
#
#
# Convention : Reuss Voigt Hill
#
# Bulk Modulus (GPa) = 33.15062 91.05565 62.10314
# Shear Modulus (GPa) = 25.83745 44.47899 35.15822
#
# Velocity S-wave (km/s) = 3.24873 4.26251 3.78967
# Velocity P-wave (km/s) = 5.25489 7.83711 6.67211
#
# Compressibility (1/GPa) = 0.03016535
#
# Stress axis : x y z
#
# Youngs Moduli (GPa) = 85.19340 94.73293 93.77279
#
# Poissons Ratio (x) = 0.07176 -0.14315
# Poissons Ratio (y) = 0.06453 0.20306
# Poissons Ratio (z) = -0.13005 0.20514
#
# Static dielectric constant tensor:
#      x y z
#    x 1.965590 0.000000 0.022800 
#    y 0.000000 1.953680 0.000000 
#    z 0.022800 0.000000 2.090230 
# 
# From -- ./inp_files/242314.got.cif
#   From: 2010.05.17/outbox.cif.g08.bks.cpg/sg15_122_cif.got.tgz:242314.got - 2010.06.03 18:47:42.
