data_PCOD9267235
_publ_section_title
;
Structure prediction by ZEFSAII (Michael W. Deem and Ramdas Pophale) SiO2 
 PCOD9267235
Probable space group: C 2/C
;
_chemical_formula_sum "Si O2"
_cell_formula_units_Z 56
_cell_length_a 17.976652
_cell_length_b 9.964536
_cell_length_c 22.614950
_cell_angle_alpha 90.000000
_cell_angle_beta 141.552695
_cell_angle_gamma 90.000000
_cell_volume 2518.885783
_symmetry_space_group_name_H-M "C 2/C"
_symmetry_group_IT_number 15
_symmetry_cell_setting 'monoclinic'
loop_
_space_group_symop_operation_xyz
x,y,z
-x,y,1/2-z
-x,-y,-z
x,-y,1/2+z
1/2+x,1/2+y,z
1/2-x,1/2+y,1/2-z
1/2-x,1/2-y,-z
1/2+x,1/2-y,1/2+z
loop_
_atom_site_type_symbol
_atom_site_label
_atom_site_fract_x
_atom_site_fract_y
_atom_site_fract_z
Si Si1 0.825418 0.554600 0.074805
Si Si2 0.374931 0.970446 0.387955
Si Si3 0.782392 0.758862 0.357016
Si Si4 0.188727 0.725867 0.552895
Si Si5 0.030415 0.074196 0.580290
Si Si6 0.391717 0.648359 0.046068
Si Si7 0.536288 0.122184 0.685884
O O1 0.788766 0.661421 0.102483
O O2 0.725405 0.437963 0.013087
O O3 0.959106 0.499900 0.162704
O O4 0.810105 0.625041 0.001550
O O5 0.308894 0.854532 0.384533
O O6 0.414237 0.922479 0.347677
O O7 0.500000 0.000000 0.500000
O O8 0.298238 0.107849 0.343581
O O9 0.840847 0.860384 0.345542
O O10 0.862306 0.777785 0.465674
O O11 0.650719 0.813896 0.288922
O O12 0.063916 0.806080 0.471884
O O13 0.000000 0.000000 0.500000
O O14 0.999545 0.959428 0.607591
O O15 0.438233 0.760775 0.118346
#
# Coordination Sequence:
#
# PCOD9267235 Si02
#       7
#     8   8   8   8   8   8   8
#     4  10  21  38  64  94 125 172 215 261 332 407
#     4  12  20  41  67  95 127 168 219 279 330 388
#     4  11  23  37  62  94 129 164 215 274 331 391
#     4  10  19  38  69  92 121 168 220 267 329 393
#     4   9  17  34  59  90 120 161 204 263 324 385
#     4  10  21  39  61  87 128 172 214 258 326 393
#     4  12  24  38  65  98 130 169 221 274 334 395
#
# _framework density 22.232051999999999
#
# number of rings (size 3 to 8) (size 9 to 14) (size 15 to 20)
#    0.000    1.429    4.286    1.286    2.000    0.571 
#    0.000    0.000    3.143    3.429    0.000    0.000 
#    0.000    0.000    0.000    0.000    0.000    0.000 
#
# Total GULP energy -156482.068602 kJ/mol
# GULP energy per Si atom -5588.645307 kJ/mol
# Density = 2.218145 g / cm^3
# Si number density = 22.232052 Si / 1000 Ang^3
#
#
#
# Elastic Constant Matrix: (Units=GPa)
#
#
# Indices 1 2 3 4 5 6 
#
# 1 107.4999 54.8016 29.5580 0.0000 24.7314 0.0000
# 2 54.8016 122.2395 38.6296 0.0000 23.8584 0.0000
# 3 29.5580 38.6296 74.6092 0.0000 12.5853 0.0000
# 4 0.0000 0.0000 0.0000 12.6335 0.0000 4.0515
# 5 24.7314 23.8584 12.5853 0.0000 20.6959 0.0000
# 6 0.0000 0.0000 0.0000 4.0515 0.0000 37.9903
#
#
#
# Elastic Compliance Matrix: (Units=1/GPa)
#
#
# Indices 1 2 3 4 5 6 
#
# 1 0.014359 -0.003514 -0.001847 0.000000 -0.011984 0.000000
# 2 -0.003514 0.012482 -0.003735 0.000000 -0.007919 0.000000
# 3 -0.001847 -0.003735 0.016681 0.000000 -0.003631 0.000000
# 4 0.000000 0.000000 0.000000 0.081958 0.000000 -0.008741
# 5 -0.011984 -0.007919 -0.003631 0.000000 0.073976 0.000000
# 6 0.000000 0.000000 0.000000 -0.008741 0.000000 0.027255
#
#
# Mechanical properties :
#
#
# Convention : Reuss Voigt Hill
#
# Bulk Modulus (GPa) = 39.48048 61.14745 50.31396
# Shear Modulus (GPa) = 19.73580 26.35455 23.04517
#
# Velocity S-wave (km/s) = 2.98269 3.44674 3.22308
# Velocity P-wave (km/s) = 5.44599 6.58817 6.04412
#
# Compressibility (1/GPa) = 0.02532897
#
# Stress axis : x y z
#
# Youngs Moduli (GPa) = 69.64302 80.11558 59.94782
#
# Poissons Ratio (x) = 0.28157 0.11075
# Poissons Ratio (y) = 0.24476 0.22388
# Poissons Ratio (z) = 0.12866 0.29920
#
# Static dielectric constant tensor:
#      x y z
#    x 1.799220 0.000000 0.010030 
#    y 0.000000 1.811130 0.000000 
#    z 0.010030 0.000000 1.784980 
# 
# From -- ./inp_files/317576.got.cif
#   From: 2010.05.17/outbox.cif.g08.bks.cpg/sg15_159_cif.got.tgz:317576.got - 2010.06.03 18:47:42.
