data_PCOD9267228
_publ_section_title
;
Structure prediction by ZEFSAII (Michael W. Deem and Ramdas Pophale) SiO2 
 PCOD9267228
Probable space group: C 2/C
;
_chemical_formula_sum "Si O2"
_cell_formula_units_Z 44
_cell_length_a 6.320868
_cell_length_b 16.918719
_cell_length_c 16.182628
_cell_angle_alpha 90.000000
_cell_angle_beta 65.980940
_cell_angle_gamma 90.000000
_cell_volume 1580.734965
_symmetry_space_group_name_H-M "C 2/C"
_symmetry_group_IT_number 15
_symmetry_cell_setting 'monoclinic'
loop_
_space_group_symop_operation_xyz
x,y,z
-x,y,1/2-z
-x,-y,-z
x,-y,1/2+z
1/2+x,1/2+y,z
1/2-x,1/2+y,1/2-z
1/2-x,1/2-y,-z
1/2+x,1/2-y,1/2+z
loop_
_atom_site_type_symbol
_atom_site_label
_atom_site_fract_x
_atom_site_fract_y
_atom_site_fract_z
Si Si1 0.500000 0.750444 0.750000
Si Si2 0.211656 0.676319 0.381082
Si Si3 0.822521 0.069039 0.001266
Si Si4 0.250000 0.750000 0.000000
Si Si5 0.585020 0.018775 0.868216
Si Si6 0.000000 0.954836 0.750000
Si Si7 0.025322 0.683023 0.844514
O O1 0.377851 0.799496 0.697403
O O2 0.704693 0.699674 0.675645
O O3 0.377264 0.600941 0.337777
O O4 0.389972 0.739629 0.387285
O O5 0.983703 0.695715 0.469955
O O6 0.735496 0.039733 0.925232
O O7 0.892086 0.161585 0.990971
O O8 0.590064 0.053579 0.094360
O O9 0.000000 0.000000 0.000000
O O10 0.438680 0.098277 0.884593
O O11 0.774530 0.007501 0.765232
O O12 0.000000 0.679660 0.750000
#
# Coordination Sequence:
#
# PCOD9267228 Si02
#       7
#     4   8   8   4   8   4   8
#     4  10  19  38  68  97 136 182 236 303 366 438
#     4  11  23  43  69 107 142 184 258 303 372 461
#     4  11  26  49  70 106 147 195 248 304 380 459
#     4  12  24  46  78 102 148 204 244 316 390 456
#     4  11  25  45  68 101 148 187 240 309 371 441
#     4  12  23  48  68 105 148 188 250 313 366 460
#     4  10  21  42  69 103 140 183 240 310 367 440
#
# _framework density 27.835155
#
# number of rings (size 3 to 8) (size 9 to 14) (size 15 to 20)
#    0.000    1.091    4.545    2.727    0.000    5.818 
#    4.909    5.455    0.000    0.000    0.000    0.000 
#    0.000    0.000    0.000    0.000    0.000    0.000 
#
# Total GULP energy -122481.147077 kJ/mol
# GULP energy per Si atom -5567.324867 kJ/mol
# Density = 2.777180 g / cm^3
# Si number density = 27.835155 Si / 1000 Ang^3
#
#
#
# Elastic Constant Matrix: (Units=GPa)
#
#
# Indices 1 2 3 4 5 6 
#
# 1 89.1390 39.8381 34.9759 0.0000 -5.5723 0.0000
# 2 39.8381 218.8195 33.2435 0.0000 -16.6804 0.0000
# 3 34.9759 33.2435 86.5391 0.0000 -33.5258 0.0000
# 4 0.0000 0.0000 0.0000 53.7543 0.0000 -7.5510
# 5 -5.5723 -16.6804 -33.5258 0.0000 66.1467 0.0000
# 6 0.0000 0.0000 0.0000 -7.5510 0.0000 34.9474
#
#
#
# Elastic Compliance Matrix: (Units=1/GPa)
#
#
# Indices 1 2 3 4 5 6 
#
# 1 0.014231 -0.001865 -0.005914 0.000000 -0.002269 0.000000
# 2 -0.001865 0.005104 -0.000957 0.000000 0.000645 0.000000
# 3 -0.005914 -0.000957 0.017454 0.000000 0.008107 0.000000
# 4 0.000000 0.000000 0.000000 0.019185 0.000000 0.004145
# 5 -0.002269 0.000645 0.008107 0.000000 0.019198 0.000000
# 6 0.000000 0.000000 0.000000 0.004145 0.000000 0.029510
#
#
# Mechanical properties :
#
#
# Convention : Reuss Voigt Hill
#
# Bulk Modulus (GPa) = 51.77004 67.84584 59.80794
# Shear Modulus (GPa) = 38.88203 50.06568 44.47385
#
# Velocity S-wave (km/s) = 3.74152 4.24565 4.00153
# Velocity P-wave (km/s) = 6.10774 6.96140 6.54850
#
# Compressibility (1/GPa) = 0.01931619
#
# Stress axis : x y z
#
# Youngs Moduli (GPa) = 70.27023 195.91993 57.29358
#
# Poissons Ratio (x) = 0.36546 0.33884
# Poissons Ratio (y) = 0.13108 0.05483
# Poissons Ratio (z) = 0.41558 0.18749
#
# Static dielectric constant tensor:
#      x y z
#    x 2.058830 0.000000 0.071540 
#    y 0.000000 2.237380 0.000000 
#    z 0.071540 0.000000 2.491170 
# 
# From -- ./inp_files/226990.got.cif
#   From: 2010.05.17/outbox.cif.g08.bks.cpg/sg15_114_cif.got.tgz:226990.got - 2010.06.03 18:47:42.
