data_PCOD9267502
_publ_section_title
;
Structure prediction by ZEFSAII (Michael W. Deem and Ramdas Pophale) SiO2 
 PCOD9267502
Probable space group: C 2/C
;
_chemical_formula_sum "Si O2"
_cell_formula_units_Z 44
_cell_length_a 18.685380
_cell_length_b 8.325943
_cell_length_c 12.903455
_cell_angle_alpha 90.000000
_cell_angle_beta 61.795043
_cell_angle_gamma 90.000000
_cell_volume 1769.076860
_symmetry_space_group_name_H-M "C 2/C"
_symmetry_group_IT_number 15
_symmetry_cell_setting 'monoclinic'
loop_
_space_group_symop_operation_xyz
x,y,z
-x,y,1/2-z
-x,-y,-z
x,-y,1/2+z
1/2+x,1/2+y,z
1/2-x,1/2+y,1/2-z
1/2-x,1/2-y,-z
1/2+x,1/2-y,1/2+z
loop_
_atom_site_type_symbol
_atom_site_label
_atom_site_fract_x
_atom_site_fract_y
_atom_site_fract_z
Si Si1 0.136462 0.674518 0.148089
Si Si2 0.070892 0.075076 0.386785
Si Si3 0.294055 0.331093 0.201862
Si Si4 0.606061 0.873828 0.267192
Si Si5 0.327584 0.854197 0.481888
Si Si6 0.500000 0.393437 0.250000
O O1 0.193626 0.772464 0.188214
O O2 0.086345 0.557971 0.261981
O O3 0.177903 0.544944 0.042419
O O4 0.068546 0.787233 0.144548
O O5 0.157890 0.997492 0.354096
O O6 0.053701 0.000499 0.286683
O O7 0.063242 0.264669 0.379718
O O8 0.000000 0.000000 0.500000
O O9 0.200769 0.359328 0.236291
O O10 0.333333 0.198153 0.096777
O O11 0.603564 0.806723 0.149648
O O12 0.250000 0.750000 0.500000
#
# Coordination Sequence:
#
# PCOD9267502 Si02
#       6
#     8   8   8   8   8   4
#     4   9  20  37  62  86 123 163 203 261 308 376
#     4  11  25  39  63  94 131 168 206 267 323 381
#     4  10  19  39  64  93 125 161 216 258 317 377
#     4   9  20  38  64  89 122 167 206 262 311 372
#     4   8  18  35  62  89 114 159 206 257 308 367
#     4  10  24  42  54  90 132 160 206 256 316 388
#
# _framework density 24.871729999999999
#
# number of rings (size 3 to 8) (size 9 to 14) (size 15 to 20)
#    1.091    1.455    0.000    1.091    2.545    3.636 
#    0.000    3.636    0.000    8.727    0.000    0.000 
#    0.000    0.000    0.000    0.000    0.000    0.000 
#
# Total GULP energy -122549.132893 kJ/mol
# GULP energy per Si atom -5570.415131 kJ/mol
# Density = 2.481512 g / cm^3
# Si number density = 24.871730 Si / 1000 Ang^3
#
#
#
# Elastic Constant Matrix: (Units=GPa)
#
#
# Indices 1 2 3 4 5 6 
#
# 1 63.8703 -8.3925 -0.1230 0.0000 9.1196 0.0000
# 2 -8.3925 39.0141 3.8295 0.0000 0.4513 0.0000
# 3 -0.1230 3.8295 45.0499 0.0000 2.2100 0.0000
# 4 0.0000 0.0000 0.0000 44.6960 0.0000 -4.2153
# 5 9.1196 0.4513 2.2100 0.0000 20.2671 0.0000
# 6 0.0000 0.0000 0.0000 -4.2153 0.0000 18.4912
#
#
#
# Elastic Compliance Matrix: (Units=1/GPa)
#
#
# Indices 1 2 3 4 5 6 
#
# 1 0.017280 0.003797 0.000111 0.000000 -0.007872 0.000000
# 2 0.003797 0.026684 -0.002157 0.000000 -0.002068 0.000000
# 3 0.000111 -0.002157 0.022502 0.000000 -0.002455 0.000000
# 4 0.000000 0.000000 0.000000 0.022865 0.000000 0.005212
# 5 -0.007872 -0.002068 -0.002455 0.000000 0.053197 0.000000
# 6 0.000000 0.000000 0.000000 0.005212 0.000000 0.055268
#
#
# Mechanical properties :
#
#
# Convention : Reuss Voigt Hill
#
# Bulk Modulus (GPa) = 14.29213 15.39582 14.84397
# Shear Modulus (GPa) = 22.97626 26.86555 24.92090
#
# Velocity S-wave (km/s) = 3.04269 3.29015 3.16884
# Velocity P-wave (km/s) = 4.25473 4.54279 4.40112
#
# Compressibility (1/GPa) = 0.06996860
#
# Stress axis : x y z
#
# Youngs Moduli (GPa) = 57.87071 37.47534 44.44110
#
# Poissons Ratio (x) = -0.14231 -0.00491
# Poissons Ratio (y) = -0.21976 0.09584
# Poissons Ratio (z) = -0.00640 0.08082
#
# Static dielectric constant tensor:
#      x y z
#    x 2.113540 0.000000 0.148090 
#    y 0.000000 2.020520 0.000000 
#    z 0.148090 0.000000 2.156660 
# 
# From -- ./inp_files/166055.got.cif
#   From: 2010.05.17/outbox.cif.g08.bks.cpg/sg15_84_cif.got.tgz:166055.got - 2010.06.03 18:47:42.
