data_PCOD9267490
_publ_section_title
;
Structure prediction by ZEFSAII (Michael W. Deem and Ramdas Pophale) SiO2 
 PCOD9267490
Probable space group: C 2/C
;
_chemical_formula_sum "Si O2"
_cell_formula_units_Z 56
_cell_length_a 10.651168
_cell_length_b 23.361727
_cell_length_c 14.873329
_cell_angle_alpha 90.000000
_cell_angle_beta 41.702507
_cell_angle_gamma 90.000000
_cell_volume 2462.089008
_symmetry_space_group_name_H-M "C 2/C"
_symmetry_group_IT_number 15
_symmetry_cell_setting 'monoclinic'
loop_
_space_group_symop_operation_xyz
x,y,z
-x,y,1/2-z
-x,-y,-z
x,-y,1/2+z
1/2+x,1/2+y,z
1/2-x,1/2+y,1/2-z
1/2-x,1/2-y,-z
1/2+x,1/2-y,1/2+z
loop_
_atom_site_type_symbol
_atom_site_label
_atom_site_fract_x
_atom_site_fract_y
_atom_site_fract_z
Si Si1 0.284558 0.973604 0.853541
Si Si2 0.526789 0.797585 0.336030
Si Si3 0.587187 0.834258 0.922765
Si Si4 0.992091 0.835093 0.877851
Si Si5 0.154639 0.351671 0.598326
Si Si6 0.961724 0.796334 0.093761
Si Si7 0.010631 0.033845 0.141534
O O1 0.500000 0.993626 0.750000
O O2 0.284703 0.906559 0.877850
O O3 0.185502 0.976739 0.808636
O O4 0.160010 0.003972 0.996098
O O5 0.500000 0.819983 0.250000
O O6 0.418708 0.835221 0.467136
O O7 0.448499 0.731744 0.374107
O O8 0.748557 0.799700 0.245441
O O9 0.793638 0.837723 0.772405
O O10 0.452298 0.872415 0.934175
O O11 0.512912 0.770315 0.941107
O O12 0.930884 0.899022 0.884284
O O13 0.958657 0.830302 0.001566
O O14 0.343330 0.318172 0.468204
O O15 0.000000 0.321701 0.750000
O O16 0.000000 0.012494 0.250000
#
# Coordination Sequence:
#
# PCOD9267490 Si02
#       7
#     8   8   8   8   8   8   8
#     4  10  23  45  69  96 130 164 215 283 328 376
#     4  10  23  38  55  92 138 169 207 263 305 370
#     4  10  21  36  61  94 123 168 211 247 315 386
#     4  10  19  39  64  90 121 172 218 254 313 384
#     4  11  19  39  68  90 124 168 210 257 319 383
#     4  10  20  36  60  92 128 164 208 256 307 380
#     4  11  23  42  71  98 123 171 220 269 329 389
#
# _framework density 22.744911999999999
#
# number of rings (size 3 to 8) (size 9 to 14) (size 15 to 20)
#    0.000    1.714    2.857    1.714    0.000    7.429 
#    2.571    2.143    0.000    1.714    0.000    0.000 
#    0.000    0.000    0.000    0.000    0.000    0.000 
#
# Total GULP energy -156098.224084 kJ/mol
# GULP energy per Si atom -5574.936574 kJ/mol
# Density = 2.269314 g / cm^3
# Si number density = 22.744912 Si / 1000 Ang^3
#
#
#
# Elastic Constant Matrix: (Units=GPa)
#
#
# Indices 1 2 3 4 5 6 
#
# 1 119.6666 25.8979 61.9268 0.0000 -1.1610 0.0000
# 2 25.8979 30.4618 36.5415 0.0000 -6.6593 0.0000
# 3 61.9268 36.5415 107.2562 -0.0001 -13.4042 0.0000
# 4 0.0000 0.0000 -0.0001 22.8117 0.0000 -2.1508
# 5 -1.1610 -6.6593 -13.4042 0.0000 51.7538 0.0000
# 6 0.0000 0.0000 0.0000 -2.1508 0.0000 18.7835
#
#
#
# Elastic Compliance Matrix: (Units=1/GPa)
#
#
# Indices 1 2 3 4 5 6 
#
# 1 0.012253 -0.003469 -0.006112 0.000000 -0.001755 0.000000
# 2 -0.003469 0.056770 -0.016985 0.000000 0.002828 0.000000
# 3 -0.006112 -0.016985 0.018963 0.000000 0.002589 0.000000
# 4 0.000000 0.000000 0.000000 0.044316 0.000000 0.005074
# 5 -0.001755 0.002828 0.002589 0.000000 0.020317 0.000000
# 6 0.000000 0.000000 0.000000 0.005074 0.000000 0.053819
#
#
# Mechanical properties :
#
#
# Convention : Reuss Voigt Hill
#
# Bulk Modulus (GPa) = 28.69102 56.23523 42.46313
# Shear Modulus (GPa) = 18.43734 27.53767 22.98750
#
# Velocity S-wave (km/s) = 2.85022 3.48331 3.18255
# Velocity P-wave (km/s) = 4.84492 6.39968 5.67579
#
# Compressibility (1/GPa) = 0.03485411
#
# Stress axis : x y z
#
# Youngs Moduli (GPa) = 81.61088 17.61480 52.73535
#
# Poissons Ratio (x) = 0.06111 0.32232
# Poissons Ratio (y) = 0.28311 0.89571
# Poissons Ratio (z) = 0.49881 0.29919
#
# Static dielectric constant tensor:
#      x y z
#    x 2.065850 0.000000 0.017000 
#    y 0.000000 1.843120 0.000000 
#    z 0.017000 0.000000 1.871300 
# 
# From -- ./inp_files/148524.got.cif
#   From: 2010.05.17/outbox.cif.g08.bks.cpg/sg15_75_cif.got.tgz:148524.got - 2010.06.03 18:47:42.
