data_PCOD9267910
_publ_section_title
;
Structure prediction by ZEFSAII (Michael W. Deem and Ramdas Pophale) SiO2 
 PCOD9267910
Probable space group: C 2/C
;
_chemical_formula_sum "Si O2"
_cell_formula_units_Z 32
_cell_length_a 8.329811
_cell_length_b 12.822347
_cell_length_c 11.607216
_cell_angle_alpha 90.000000
_cell_angle_beta 97.130617
_cell_angle_gamma 90.000000
_cell_volume 1230.151894
_symmetry_space_group_name_H-M "C 2/C"
_symmetry_group_IT_number 15
_symmetry_cell_setting 'monoclinic'
loop_
_space_group_symop_operation_xyz
x,y,z
-x,y,1/2-z
-x,-y,-z
x,-y,1/2+z
1/2+x,1/2+y,z
1/2-x,1/2+y,1/2-z
1/2-x,1/2-y,-z
1/2+x,1/2-y,1/2+z
loop_
_atom_site_type_symbol
_atom_site_label
_atom_site_fract_x
_atom_site_fract_y
_atom_site_fract_z
Si Si1 0.117883 0.408767 0.973331
Si Si2 0.598077 0.295661 0.057188
Si Si3 0.597621 0.405274 0.652962
Si Si4 0.322061 0.833223 0.278665
O O1 0.212220 0.379844 0.099170
O O2 0.235526 0.447030 0.883536
O O3 0.000000 0.500000 0.000000
O O4 0.020989 0.302829 0.932792
O O5 0.674770 0.342490 0.178317
O O6 0.750000 0.250000 0.000000
O O7 0.516427 0.379488 0.965858
O O8 0.500000 0.454229 0.750000
O O9 0.651404 0.290687 0.703347
O O10 0.500000 0.871019 0.250000
#
# Coordination Sequence:
#
# PCOD9267910 Si02
#       4
#     8   8   8   8
#     4  11  25  43  68 109 147 179 235 309 368 411
#     4  11  19  41  74  99 140 189 241 286 341 436
#     4  10  21  40  69 101 138 188 242 280 348 443
#     4  10  19  40  71 101 138 186 242 282 346 432
#
# _framework density 26.013047
#
# number of rings (size 3 to 8) (size 9 to 14) (size 15 to 20)
#    0.000    1.500    7.500    3.000    0.000    4.000 
#    4.500    1.250    5.500    9.000    0.000    0.000 
#    0.000    0.000    0.000    0.000    0.000    0.000 
#
# Total GULP energy -89712.267331 kJ/mol
# GULP energy per Si atom -5607.016708 kJ/mol
# Density = 2.595384 g / cm^3
# Si number density = 26.013047 Si / 1000 Ang^3
#
#
#
# Elastic Constant Matrix: (Units=GPa)
#
#
# Indices 1 2 3 4 5 6 
#
# 1 174.6806 57.1489 111.2649 0.0000 -23.8714 0.0000
# 2 57.1489 111.3289 55.5965 0.0000 -2.2960 0.0000
# 3 111.2649 55.5965 173.9191 0.0000 3.6401 0.0000
# 4 0.0000 0.0000 0.0000 12.3691 0.0000 -14.8834
# 5 -23.8714 -2.2960 3.6401 0.0000 77.7037 0.0000
# 6 0.0000 0.0000 0.0000 -14.8834 0.0000 40.4671
#
#
#
# Elastic Compliance Matrix: (Units=1/GPa)
#
#
# Indices 1 2 3 4 5 6 
#
# 1 0.011087 -0.002423 -0.006394 0.000000 0.003634 0.000000
# 2 -0.002423 0.011236 -0.002035 0.000000 -0.000317 0.000000
# 3 -0.006394 -0.002035 0.010544 0.000000 -0.002519 0.000000
# 4 0.000000 0.000000 0.000000 0.145030 0.000000 0.053341
# 5 0.003634 -0.000317 -0.002519 0.000000 0.014094 0.000000
# 6 0.000000 0.000000 0.000000 0.053341 0.000000 0.044330
#
#
# Mechanical properties :
#
#
# Convention : Reuss Voigt Hill
#
# Bulk Modulus (GPa) = 89.59051 100.88324 95.23687
# Shear Modulus (GPa) = 19.10239 41.83585 30.46912
#
# Velocity S-wave (km/s) = 2.71281 4.01467 3.42614
# Velocity P-wave (km/s) = 6.65791 7.76892 7.23477
#
# Compressibility (1/GPa) = 0.01116190
#
# Stress axis : x y z
#
# Youngs Moduli (GPa) = 90.19458 88.99991 94.84160
#
# Poissons Ratio (x) = 0.21566 0.60646
# Poissons Ratio (y) = 0.21855 0.19300
# Poissons Ratio (z) = 0.57675 0.18111
#
# Static dielectric constant tensor:
#      x y z
#    x 2.049250 0.000000 0.014910 
#    y 0.000000 2.082450 0.000000 
#    z 0.014910 0.000000 2.048330 
# 
# From -- ./inp_files/75587.got.cif
#   From: 2010.05.17/outbox.cif.g08.bks.cpg/sg15_38_cif.got.tgz:75587.got - 2010.06.03 18:47:42.
