data_PCOD9267151
_publ_section_title
;
Structure prediction by ZEFSAII (Michael W. Deem and Ramdas Pophale) SiO2 
 PCOD9267151
Probable space group: C 2/C
;
_chemical_formula_sum "Si O2"
_cell_formula_units_Z 56
_cell_length_a 22.761036
_cell_length_b 11.652761
_cell_length_c 16.125312
_cell_angle_alpha 90.000000
_cell_angle_beta 43.066616
_cell_angle_gamma 90.000000
_cell_volume 2920.472851
_symmetry_space_group_name_H-M "C 2/C"
_symmetry_group_IT_number 15
_symmetry_cell_setting 'monoclinic'
loop_
_space_group_symop_operation_xyz
x,y,z
-x,y,1/2-z
-x,-y,-z
x,-y,1/2+z
1/2+x,1/2+y,z
1/2-x,1/2+y,1/2-z
1/2-x,1/2-y,-z
1/2+x,1/2-y,1/2+z
loop_
_atom_site_type_symbol
_atom_site_label
_atom_site_fract_x
_atom_site_fract_y
_atom_site_fract_z
Si Si1 0.423091 0.084310 0.474985
Si Si2 0.848551 0.756487 0.424341
Si Si3 0.151782 0.172399 0.913755
Si Si4 0.563842 0.278040 0.341522
Si Si5 0.013011 0.665837 0.638499
Si Si6 0.344598 0.206634 0.704296
Si Si7 0.394803 0.407398 0.532851
O O1 0.381782 0.140433 0.434953
O O2 0.506486 0.163093 0.409208
O O3 0.359303 0.110386 0.617188
O O4 0.450527 0.954977 0.432870
O O5 0.750000 0.750000 0.500000
O O6 0.902328 0.781726 0.286425
O O7 0.862786 0.852992 0.479256
O O8 0.137401 0.217862 0.834507
O O9 0.249718 0.194702 0.838413
O O10 0.131154 0.038026 0.934814
O O11 0.082022 0.238057 0.041320
O O12 0.497065 0.381376 0.428226
O O13 0.000000 0.659392 0.750000
O O14 0.921925 0.691932 0.688967
O O15 0.355771 0.328212 0.645832
#
# Coordination Sequence:
#
# PCOD9267151 Si02
#       7
#     8   8   8   8   8   8   8
#     4  10  21  42  67  93 126 168 216 270 315 379
#     4  10  20  38  65 100 124 160 220 272 317 367
#     4  12  25  41  66  94 131 175 207 270 332 395
#     4  10  19  38  66  90 124 167 218 262 317 371
#     4  12  26  43  64  95 136 174 214 261 332 396
#     4  10  24  43  66  94 122 168 228 263 322 387
#     4  10  22  41  61  93 129 166 216 262 324 390
#
# _framework density 19.174976999999998
#
# number of rings (size 3 to 8) (size 9 to 14) (size 15 to 20)
#    0.000    1.714    2.857    5.143    2.000    4.000 
#    0.000    0.000    0.000    0.000    0.000    0.000 
#    0.000    0.000    0.000    0.000    0.000    0.000 
#
# Total GULP energy -156469.517577 kJ/mol
# GULP energy per Si atom -5588.197056 kJ/mol
# Density = 1.913133 g / cm^3
# Si number density = 19.174977 Si / 1000 Ang^3
#
#
#
# Elastic Constant Matrix: (Units=GPa)
#
#
# Indices 1 2 3 4 5 6 
#
# 1 76.5857 27.4126 41.7331 0.0000 -18.0803 0.0000
# 2 27.4126 111.8195 29.3533 0.0000 -14.9389 0.0000
# 3 41.7331 29.3533 74.5591 0.0000 -20.6111 0.0000
# 4 0.0000 0.0000 0.0000 10.5965 0.0000 1.3481
# 5 -18.0803 -14.9389 -20.6111 0.0000 36.5487 0.0000
# 6 0.0000 0.0000 0.0000 1.3481 0.0000 4.5332
#
#
#
# Elastic Compliance Matrix: (Units=1/GPa)
#
#
# Indices 1 2 3 4 5 6 
#
# 1 0.019640 -0.001896 -0.009211 0.000000 0.003746 0.000000
# 2 -0.001896 0.010309 -0.002478 0.000000 0.001878 0.000000
# 3 -0.009211 -0.002478 0.021329 0.000000 0.006459 0.000000
# 4 0.000000 0.000000 0.000000 0.098081 0.000000 -0.029167
# 5 0.003746 0.001878 0.006459 0.000000 0.033624 0.000000
# 6 0.000000 0.000000 0.000000 -0.029167 0.000000 0.229270
#
#
# Mechanical properties :
#
#
# Convention : Reuss Voigt Hill
#
# Bulk Modulus (GPa) = 41.48093 51.10692 46.29392
# Shear Modulus (GPa) = 11.17420 21.30002 16.23711
#
# Velocity S-wave (km/s) = 2.41664 3.33652 2.91312
# Velocity P-wave (km/s) = 5.42832 6.44623 5.95905
#
# Compressibility (1/GPa) = 0.02410747
#
# Stress axis : x y z
#
# Youngs Moduli (GPa) = 50.91768 96.99985 46.88506
#
# Poissons Ratio (x) = 0.18394 0.43185
# Poissons Ratio (y) = 0.09655 0.11618
# Poissons Ratio (z) = 0.46899 0.24037
#
# Static dielectric constant tensor:
#      x y z
#    x 1.676550 0.000000 -0.006020 
#    y 0.000000 1.650940 0.000000 
#    z -0.006020 0.000000 1.670030 
# 
# From -- ./inp_files/219063.got.cif
#   From: 2010.05.17/outbox.cif.g08.bks.cpg/sg15_110_cif.got.tgz:219063.got - 2010.06.03 18:47:42.
