data_PCOD9267531
_publ_section_title
;
Structure prediction by ZEFSAII (Michael W. Deem and Ramdas Pophale) SiO2 
 PCOD9267531
Probable space group: C 2/C
;
_chemical_formula_sum "Si O2"
_cell_formula_units_Z 64
_cell_length_a 13.195644
_cell_length_b 12.329261
_cell_length_c 18.927863
_cell_angle_alpha 90.000000
_cell_angle_beta 68.200154
_cell_angle_gamma 90.000000
_cell_volume 2859.202838
_symmetry_space_group_name_H-M "C 2/C"
_symmetry_group_IT_number 15
_symmetry_cell_setting 'monoclinic'
loop_
_space_group_symop_operation_xyz
x,y,z
-x,y,1/2-z
-x,-y,-z
x,-y,1/2+z
1/2+x,1/2+y,z
1/2-x,1/2+y,1/2-z
1/2-x,1/2-y,-z
1/2+x,1/2-y,1/2+z
loop_
_atom_site_type_symbol
_atom_site_label
_atom_site_fract_x
_atom_site_fract_y
_atom_site_fract_z
Si Si1 0.922214 0.391600 0.859371
Si Si2 0.535229 0.862013 0.963599
Si Si3 0.262744 0.082813 0.173354
Si Si4 0.590296 0.865839 0.106741
Si Si5 0.943843 0.120646 0.367650
Si Si6 0.140418 0.040195 0.805971
Si Si7 0.140939 0.273636 0.751252
Si Si8 0.847375 0.865085 0.045039
O O1 0.915061 0.520636 0.850164
O O2 0.840916 0.318723 0.832594
O O3 0.928174 0.370572 0.942358
O O4 0.040089 0.346271 0.805095
O O5 0.632737 0.931019 0.902959
O O6 0.586409 0.741452 0.948429
O O7 0.530431 0.886960 0.047368
O O8 0.157059 0.080363 0.152556
O O9 0.266633 0.196106 0.216027
O O10 0.251048 0.996400 0.238860
O O11 0.545058 0.750774 0.145740
O O12 0.719982 0.844034 0.060446
O O13 0.908406 0.098420 0.458221
O O14 0.050799 0.053402 0.321422
O O15 0.109338 0.150030 0.772420
O O16 0.152078 0.059912 0.886224
#
# Coordination Sequence:
#
# PCOD9267531 Si02
#       8
#     8   8   8   8   8   8   8   8
#     4  10  21  37  62  90 121 164 207 248 305 379
#     4  10  19  39  65  90 120 166 207 251 317 367
#     4  11  21  40  62  91 122 166 208 248 317 369
#     4  11  20  40  66  92 125 161 213 260 305 369
#     4  11  23  38  64 101 119 163 213 263 314 357
#     4  12  24  39  66  92 130 162 210 267 304 383
#     4  10  23  43  59  89 126 173 202 246 332 373
#     4  11  20  42  67  87 127 168 209 256 314 376
#
# _framework density 22.383863000000002
#
# number of rings (size 3 to 8) (size 9 to 14) (size 15 to 20)
#    0.000    1.250    5.000    2.625    3.500    0.000 
#    9.000    0.000    0.000    1.500    0.000    0.000 
#    0.000    0.000    0.000    0.000    0.000    0.000 
#
# Total GULP energy -178533.960128 kJ/mol
# GULP energy per Si atom -5579.186254 kJ/mol
# Density = 2.233292 g / cm^3
# Si number density = 22.383863 Si / 1000 Ang^3
#
#
#
# Elastic Constant Matrix: (Units=GPa)
#
#
# Indices 1 2 3 4 5 6 
#
# 1 36.9287 9.8435 1.8940 0.0000 22.7938 0.0000
# 2 9.8435 118.8252 33.9422 0.0000 -8.7236 0.0000
# 3 1.8940 33.9422 69.2896 0.0000 22.0487 0.0000
# 4 0.0000 0.0000 0.0000 42.5518 0.0000 -4.2239
# 5 22.7938 -8.7236 22.0487 0.0000 35.5398 0.0000
# 6 0.0000 0.0000 0.0000 -4.2239 0.0000 21.6817
#
#
#
# Elastic Compliance Matrix: (Units=1/GPa)
#
#
# Indices 1 2 3 4 5 6 
#
# 1 0.076503 -0.020760 0.031539 0.000000 -0.073729 0.000000
# 2 -0.020760 0.016890 -0.016525 0.000000 0.027712 0.000000
# 3 0.031539 -0.016525 0.036622 0.000000 -0.047004 0.000000
# 4 0.000000 0.000000 0.000000 0.023964 0.000000 0.004669
# 5 -0.073729 0.027712 -0.047004 0.000000 0.111388 0.000000
# 6 0.000000 0.000000 0.000000 0.004669 0.000000 0.047031
#
#
# Mechanical properties :
#
#
# Convention : Reuss Voigt Hill
#
# Bulk Modulus (GPa) = 8.43697 35.15589 21.79643
# Shear Modulus (GPa) = 13.75906 31.91225 22.83565
#
# Velocity S-wave (km/s) = 2.48198 3.77992 3.19750
# Velocity P-wave (km/s) = 3.46280 5.89833 4.83639
#
# Compressibility (1/GPa) = 0.11852591
#
# Stress axis : x y z
#
# Youngs Moduli (GPa) = 13.07135 59.20600 27.30583
#
# Poissons Ratio (x) = 1.22909 -0.86121
# Poissons Ratio (y) = 0.27136 0.45122
# Poissons Ratio (z) = -0.41226 0.97836
#
# Static dielectric constant tensor:
#      x y z
#    x 1.878660 0.000000 0.082310 
#    y 0.000000 1.895760 0.000000 
#    z 0.082310 0.000000 1.908690 
# 
# From -- ./inp_files/243709.got.cif
#   From: 2010.05.17/outbox.cif.g08.bks.cpg/sg15_122_cif.got.tgz:243709.got - 2010.06.03 18:47:42.
