data_PCOD9267632
_publ_section_title
;
Structure prediction by ZEFSAII (Michael W. Deem and Ramdas Pophale) SiO2 
 PCOD9267632
Probable space group: C 2/C
;
_chemical_formula_sum "Si O2"
_cell_formula_units_Z 48
_cell_length_a 24.156057
_cell_length_b 12.263612
_cell_length_c 13.733490
_cell_angle_alpha 90.000000
_cell_angle_beta 150.758708
_cell_angle_gamma 90.000000
_cell_volume 1987.375006
_symmetry_space_group_name_H-M "C 2/C"
_symmetry_group_IT_number 15
_symmetry_cell_setting 'monoclinic'
loop_
_space_group_symop_operation_xyz
x,y,z
-x,y,1/2-z
-x,-y,-z
x,-y,1/2+z
1/2+x,1/2+y,z
1/2-x,1/2+y,1/2-z
1/2-x,1/2-y,-z
1/2+x,1/2-y,1/2+z
loop_
_atom_site_type_symbol
_atom_site_label
_atom_site_fract_x
_atom_site_fract_y
_atom_site_fract_z
Si Si1 0.608552 0.014911 0.735342
Si Si2 0.494020 0.402569 0.890548
Si Si3 0.410960 0.361471 0.270122
Si Si4 0.335358 0.821365 0.535859
Si Si5 0.241218 0.121265 0.699386
Si Si6 0.650054 0.221093 0.920707
O O1 0.706758 0.053815 0.810719
O O2 0.605136 0.104462 0.817349
O O3 0.500000 0.000000 0.500000
O O4 0.627880 0.904347 0.823757
O O5 0.415846 0.509103 0.759733
O O6 0.445616 0.307720 0.751701
O O7 0.492327 0.356012 0.998671
O O8 0.623669 0.430666 0.059528
O O9 0.400776 0.290271 0.157784
O O10 0.300132 0.315635 0.155685
O O11 0.337609 0.866928 0.429988
O O12 0.202676 0.243069 0.604835
O O13 0.750000 0.250000 0.000000
#
# Coordination Sequence:
#
# PCOD9267632 Si02
#       6
#     8   8   8   8   8   8
#     4  11  24  45  72  96 141 183 225 291 354 412
#     4  10  19  39  70 101 130 178 233 278 335 407
#     4   9  19  37  71  94 137 174 217 291 339 398
#     4  10  21  42  65 103 137 176 228 279 350 416
#     4  10  23  43  69  99 137 183 238 278 342 419
#     4  10  21  40  66  97 132 177 224 275 339 410
#
# _framework density 24.152463999999998
#
# number of rings (size 3 to 8) (size 9 to 14) (size 15 to 20)
#    0.000    2.000    0.000    3.500    0.000    0.667 
#   18.000    0.000   40.333    0.000    0.000    0.000 
#    0.000    0.000    0.000    0.000    0.000    0.000 
#
# Total GULP energy -133887.785792 kJ/mol
# GULP energy per Si atom -5578.657741 kJ/mol
# Density = 2.409749 g / cm^3
# Si number density = 24.152464 Si / 1000 Ang^3
#
#
#
# Elastic Constant Matrix: (Units=GPa)
#
#
# Indices 1 2 3 4 5 6 
#
# 1 68.1233 0.3389 34.7687 0.0000 3.4080 0.0000
# 2 0.3389 103.1749 55.9611 0.0000 -5.6172 0.0000
# 3 34.7687 55.9611 131.2567 0.0000 -26.7399 0.0000
# 4 0.0000 0.0000 0.0000 -27.6630 0.0000 -130.9632
# 5 3.4080 -5.6172 -26.7399 0.0000 39.4809 0.0000
# 6 0.0000 0.0000 0.0000 -130.9632 0.0000 -189.8409
#
#
#
# Elastic Compliance Matrix: (Units=1/GPa)
#
#
# Indices 1 2 3 4 5 6 
#
# 1 0.019120 0.003971 -0.008096 0.000000 -0.006569 0.000000
# 2 0.003971 0.013591 -0.007566 0.000000 -0.003533 0.000000
# 3 -0.008096 -0.007566 0.014979 0.000000 0.009767 0.000000
# 4 0.000000 0.000000 0.000000 0.015953 0.000000 -0.011006
# 5 -0.006569 -0.003533 0.009767 0.000000 0.032008 0.000000
# 6 0.000000 0.000000 0.000000 -0.011006 0.000000 0.002325
#
#
# Mechanical properties :
#
#
# Convention : Reuss Voigt Hill
#
# Bulk Modulus (GPa) = 41.14018 53.85467 47.49743
# Shear Modulus (GPa) = 38.62199 -21.50551 8.55824
#
# Velocity S-wave (km/s) = 4.00320 -2.98721 1.88444
# Velocity P-wave (km/s) = 6.19984 3.23239 4.94400
#
# Compressibility (1/GPa) = 0.02430714
#
# Stress axis : x y z
#
# Youngs Moduli (GPa) = 52.30121 73.58048 66.76154
#
# Poissons Ratio (x) = -0.29216 0.54049
# Poissons Ratio (y) = -0.20767 0.50511
# Poissons Ratio (z) = 0.42342 0.55671
#
# Static dielectric constant tensor:
#      x y z
#    x 2.416400 0.000000 0.085350 
#    y 0.000000 1.950210 0.000000 
#    z 0.085350 0.000000 1.947340 
# 
# From -- ./inp_files/177885.got.cif
#   From: 2010.05.17/outbox.cif.g08.bks.cpg/sg15_89_cif.got.tgz:177885.got - 2010.06.03 18:47:42.
