data_PCOD9267026
_publ_section_title
;
Structure prediction by ZEFSAII (Michael W. Deem and Ramdas Pophale) SiO2 
 PCOD9267026
Probable space group: C 2/C
;
_chemical_formula_sum "Si O2"
_cell_formula_units_Z 44
_cell_length_a 12.148150
_cell_length_b 23.655434
_cell_length_c 10.193727
_cell_angle_alpha 90.000000
_cell_angle_beta 55.261574
_cell_angle_gamma 90.000000
_cell_volume 2407.244220
_symmetry_space_group_name_H-M "C 2/C"
_symmetry_group_IT_number 15
_symmetry_cell_setting 'monoclinic'
loop_
_space_group_symop_operation_xyz
x,y,z
-x,y,1/2-z
-x,-y,-z
x,-y,1/2+z
1/2+x,1/2+y,z
1/2-x,1/2+y,1/2-z
1/2-x,1/2-y,-z
1/2+x,1/2-y,1/2+z
loop_
_atom_site_type_symbol
_atom_site_label
_atom_site_fract_x
_atom_site_fract_y
_atom_site_fract_z
Si Si1 0.102552 0.109337 0.063365
Si Si2 0.091400 0.016879 0.563106
Si Si3 0.355794 0.811445 0.363174
Si Si4 0.000000 0.214478 0.750000
Si Si5 0.298136 0.774521 0.688532
Si Si6 0.638907 0.365738 0.958212
O O1 0.000000 0.124035 0.250000
O O2 0.007339 0.120842 0.003938
O O3 0.150357 0.044879 0.054643
O O4 0.231497 0.147134 0.960967
O O5 0.183534 0.070772 0.467800
O O6 0.000000 0.032946 0.750000
O O7 0.000000 0.000000 0.500000
O O8 0.500000 0.839316 0.250000
O O9 0.360542 0.781007 0.501316
O O10 0.321737 0.769330 0.265693
O O11 0.910762 0.250866 0.709755
O O12 0.106344 0.175325 0.600762
O O13 0.233481 0.831404 0.793925
#
# Coordination Sequence:
#
# PCOD9267026 Si02
#       6
#     8   8   8   4   8   8
#     4  10  19  38  64  88 116 152 200 252 297 347
#     4   9  19  34  59  91 115 148 202 259 298 345
#     4  11  23  38  61  89 121 156 205 245 299 360
#     4  12  22  36  52  86 124 160 196 242 304 366
#     4  11  24  37  58  85 123 161 201 244 301 361
#     4  11  20  36  58  88 118 155 199 253 296 354
#
# _framework density 18.278161999999998
#
# number of rings (size 3 to 8) (size 9 to 14) (size 15 to 20)
#    0.000    1.455    4.545    1.636    2.545    0.000 
#    0.000    0.000    2.000    1.091    0.000    0.000 
#    0.000    0.000    0.000    0.000    0.000    0.000 
#
# Total GULP energy -122527.719189 kJ/mol
# GULP energy per Si atom -5569.441781 kJ/mol
# Density = 1.823656 g / cm^3
# Si number density = 18.278162 Si / 1000 Ang^3
#
#
#
# Elastic Constant Matrix: (Units=GPa)
#
#
# Indices 1 2 3 4 5 6 
#
# 1 62.7998 14.0017 22.6600 0.0000 0.8755 0.0000
# 2 14.0017 84.8085 23.4875 0.0000 -11.1008 0.0000
# 3 22.6600 23.4875 53.8365 0.0000 3.3759 0.0000
# 4 0.0000 0.0000 0.0000 30.9989 0.0000 -0.4104
# 5 0.8755 -11.1008 3.3759 0.0000 33.6566 0.0000
# 6 0.0000 0.0000 0.0000 -0.4104 0.0000 10.2521
#
#
#
# Elastic Compliance Matrix: (Units=1/GPa)
#
#
# Indices 1 2 3 4 5 6 
#
# 1 0.018856 -0.001056 -0.007470 0.000000 -0.000089 0.000000
# 2 -0.001056 0.014379 -0.006167 0.000000 0.005388 0.000000
# 3 -0.007470 -0.006167 0.024680 0.000000 -0.004315 0.000000
# 4 0.000000 0.000000 0.000000 0.032276 0.000000 0.001292
# 5 -0.000089 0.005388 -0.004315 0.000000 0.031924 0.000000
# 6 0.000000 0.000000 0.000000 0.001292 0.000000 0.097592
#
#
# Mechanical properties :
#
#
# Convention : Reuss Voigt Hill
#
# Bulk Modulus (GPa) = 35.05191 35.74923 35.40057
# Shear Modulus (GPa) = 19.33472 24.40124 21.86798
#
# Velocity S-wave (km/s) = 3.25592 3.65772 3.46265
# Velocity P-wave (km/s) = 5.77523 6.11878 5.94948
#
# Compressibility (1/GPa) = 0.02852911
#
# Stress axis : x y z
#
# Youngs Moduli (GPa) = 53.03427 69.54729 40.51888
#
# Poissons Ratio (x) = 0.07344 0.30268
# Poissons Ratio (y) = 0.05600 0.24986
# Poissons Ratio (z) = 0.39618 0.42886
#
# Static dielectric constant tensor:
#      x y z
#    x 1.644430 0.000000 0.060380 
#    y 0.000000 1.731540 0.000000 
#    z 0.060380 0.000000 1.673200 
# 
# From -- ./inp_files/32456.got.cif
#   From: 2010.05.17/outbox.cif.g08.bks.cpg/sg15_17_cif.got.tgz:32456.got - 2010.06.03 18:47:42.
