data_PCOD9267689
_publ_section_title
;
Structure prediction by ZEFSAII (Michael W. Deem and Ramdas Pophale) SiO2 
 PCOD9267689
Probable space group: C 2/C
;
_chemical_formula_sum "Si O2"
_cell_formula_units_Z 56
_cell_length_a 16.578532
_cell_length_b 15.475334
_cell_length_c 18.111214
_cell_angle_alpha 90.000000
_cell_angle_beta 31.913845
_cell_angle_gamma 90.000000
_cell_volume 2456.385547
_symmetry_space_group_name_H-M "C 2/C"
_symmetry_group_IT_number 15
_symmetry_cell_setting 'monoclinic'
loop_
_space_group_symop_operation_xyz
x,y,z
-x,y,1/2-z
-x,-y,-z
x,-y,1/2+z
1/2+x,1/2+y,z
1/2-x,1/2+y,1/2-z
1/2-x,1/2-y,-z
1/2+x,1/2-y,1/2+z
loop_
_atom_site_type_symbol
_atom_site_label
_atom_site_fract_x
_atom_site_fract_y
_atom_site_fract_z
Si Si1 0.126894 0.623866 0.594591
Si Si2 0.020165 0.591537 0.524507
Si Si3 0.303901 0.442037 0.193411
Si Si4 0.108348 0.126512 0.385667
Si Si5 0.549957 0.325930 0.631212
Si Si6 0.116318 0.148475 0.723361
Si Si7 0.564129 0.224383 0.029277
O O1 0.290382 0.625793 0.507032
O O2 0.085596 0.724024 0.609195
O O3 0.000000 0.588740 0.750000
O O4 0.128905 0.583952 0.510778
O O5 0.853380 0.608826 0.690768
O O6 0.035904 0.665732 0.449876
O O7 0.000000 0.500000 0.500000
O O8 0.285374 0.543299 0.193002
O O9 0.360100 0.425201 0.233405
O O10 0.438712 0.406880 0.038668
O O11 0.084427 0.160704 0.322300
O O12 0.137162 0.200560 0.421700
O O13 0.500000 0.356023 0.750000
O O14 0.285807 0.171824 0.561956
O O15 0.000000 0.123318 0.750000
O O16 0.035709 0.228683 0.830526
#
# Coordination Sequence:
#
# PCOD9267689 Si02
#       7
#     8   8   8   8   8   8   8
#     4  10  21  39  57  87 124 154 190 244 304 351
#     4  11  23  39  59  90 124 155 204 250 301 356
#     4   9  22  37  60  86 117 160 192 250 298 348
#     4  10  19  40  61  86 118 155 207 235 298 367
#     4  10  21  33  61  90 113 155 194 244 292 354
#     4  10  21  40  61  89 121 155 204 249 298 348
#     4  10  22  38  65  87 114 165 198 252 293 360
#
# _framework density 22.797725
#
# number of rings (size 3 to 8) (size 9 to 14) (size 15 to 20)
#    0.000    2.000    1.429    1.286    4.000    0.571 
#    2.571    0.714    0.000    0.000    0.000    0.000 
#    0.000    0.000    0.000    0.000    0.000    0.000 
#
# Total GULP energy -156397.793530 kJ/mol
# GULP energy per Si atom -5585.635483 kJ/mol
# Density = 2.274584 g / cm^3
# Si number density = 22.797725 Si / 1000 Ang^3
#
#
#
# Elastic Constant Matrix: (Units=GPa)
#
#
# Indices 1 2 3 4 5 6 
#
# 1 86.0609 -6.3683 -6.4609 0.0001 -8.9136 0.0000
# 2 -6.3683 44.6584 -10.6777 -0.0003 2.4283 0.0002
# 3 -6.4609 -10.6777 68.6459 -0.0001 1.4605 0.0003
# 4 0.0001 -0.0003 -0.0001 24.0619 0.0001 6.4394
# 5 -8.9136 2.4283 1.4605 0.0001 24.3802 -0.0001
# 6 0.0000 0.0002 0.0003 6.4394 -0.0001 18.0608
#
#
#
# Elastic Compliance Matrix: (Units=1/GPa)
#
#
# Indices 1 2 3 4 5 6 
#
# 1 0.012296 0.001847 0.001355 0.000000 0.004230 0.000000
# 2 0.001847 0.023692 0.003900 0.000000 -0.001918 0.000000
# 3 0.001355 0.003900 0.015319 0.000000 -0.000811 0.000000
# 4 0.000000 0.000000 0.000000 0.045943 0.000000 -0.016381
# 5 0.004230 -0.001918 -0.000811 0.000000 0.042803 0.000000
# 6 0.000000 0.000000 0.000000 -0.016381 0.000000 0.061209
#
#
# Mechanical properties :
#
#
# Convention : Reuss Voigt Hill
#
# Bulk Modulus (GPa) = 15.26455 16.92796 16.09626
# Shear Modulus (GPa) = 23.93531 28.15870 26.04701
#
# Velocity S-wave (km/s) = 3.24373 3.51829 3.38379
# Velocity P-wave (km/s) = 4.55403 4.89345 4.72679
#
# Compressibility (1/GPa) = 0.06551126
#
# Stress axis : x y z
#
# Youngs Moduli (GPa) = 81.32573 42.20766 65.27891
#
# Poissons Ratio (x) = -0.07797 -0.08843
# Poissons Ratio (y) = -0.15023 -0.25458
# Poissons Ratio (z) = -0.11017 -0.16461
#
# Static dielectric constant tensor:
#      x y z
#    x 1.835650 0.000000 -0.006760 
#    y 0.000000 1.844890 0.000000 
#    z -0.006760 0.000000 1.921460 
# 
# From -- ./inp_files/249221.got.cif
#   From: 2010.05.17/outbox.cif.g08.bks.cpg/sg15_125_cif.got.tgz:249221.got - 2010.06.03 18:47:42.
