data_PCOD9267380
_publ_section_title
;
Structure prediction by ZEFSAII (Michael W. Deem and Ramdas Pophale) SiO2 
 PCOD9267380
Probable space group: C 2/C
;
_chemical_formula_sum "Si O2"
_cell_formula_units_Z 56
_cell_length_a 17.970980
_cell_length_b 26.544260
_cell_length_c 9.252139
_cell_angle_alpha 90.000000
_cell_angle_beta 37.108082
_cell_angle_gamma 90.000000
_cell_volume 2662.763561
_symmetry_space_group_name_H-M "C 2/C"
_symmetry_group_IT_number 15
_symmetry_cell_setting 'monoclinic'
loop_
_space_group_symop_operation_xyz
x,y,z
-x,y,1/2-z
-x,-y,-z
x,-y,1/2+z
1/2+x,1/2+y,z
1/2-x,1/2+y,1/2-z
1/2-x,1/2-y,-z
1/2+x,1/2-y,1/2+z
loop_
_atom_site_type_symbol
_atom_site_label
_atom_site_fract_x
_atom_site_fract_y
_atom_site_fract_z
Si Si1 0.057756 0.762782 0.875680
Si Si2 0.811933 0.275095 0.623862
Si Si3 0.559073 0.044085 0.312274
Si Si4 0.986716 0.121824 0.440651
Si Si5 0.167633 0.050615 0.691046
Si Si6 0.354780 0.452410 0.606528
Si Si7 0.616604 0.111484 0.465258
O O1 0.123616 0.742343 0.626984
O O2 0.167527 0.756685 0.828518
O O3 0.030735 0.822214 0.906287
O O4 0.915676 0.740991 0.084966
O O5 0.813046 0.335659 0.633490
O O6 0.500000 0.049797 0.250000
O O7 0.562034 0.096388 0.394716
O O8 0.500000 0.000000 0.500000
O O9 0.697768 0.031702 0.057123
O O10 0.850767 0.105061 0.706092
O O11 0.000000 0.113847 0.250000
O O12 0.068218 0.083326 0.407026
O O13 0.116770 0.053066 0.607077
O O14 0.124147 0.009160 0.873455
O O15 0.214056 0.432942 0.844951
O O16 0.500000 0.112637 0.750000
#
# Coordination Sequence:
#
# PCOD9267380 Si02
#       7
#     8   8   8   8   8   8   8
#     4  10  20  38  64  98 137 169 236 300 349 413
#     4  10  19  39  62 104 132 173 234 302 348 417
#     4  11  23  43  63  96 141 182 236 292 347 423
#     4  12  23  39  63  98 131 179 226 288 355 418
#     4  11  24  41  63  94 133 182 227 283 351 426
#     4  11  23  41  61  92 136 176 228 282 348 429
#     4  11  21  37  69  99 133 180 233 295 360 414
#
# _framework density 21.030781000000001
#
# number of rings (size 3 to 8) (size 9 to 14) (size 15 to 20)
#    0.000    1.143    4.286    4.714    0.000    1.143 
#    2.571    0.000    0.000    5.143    0.000    0.000 
#    0.000    0.000    0.000    0.000    0.000    0.000 
#
# Total GULP energy -155873.298685 kJ/mol
# GULP energy per Si atom -5566.903524 kJ/mol
# Density = 2.098291 g / cm^3
# Si number density = 21.030781 Si / 1000 Ang^3
#
#
#
# Elastic Constant Matrix: (Units=GPa)
#
#
# Indices 1 2 3 4 5 6 
#
# 1 140.0165 34.3055 36.0800 -0.0001 -23.3791 0.0000
# 2 34.3055 97.7257 13.2438 0.0000 6.7576 0.0000
# 3 36.0800 13.2438 59.6075 -0.0001 -4.0737 0.0000
# 4 -0.0001 0.0000 -0.0001 12.2684 0.0001 -4.2331
# 5 -23.3791 6.7576 -4.0737 0.0001 35.3719 0.0000
# 6 0.0000 0.0000 0.0000 -4.2331 0.0000 35.6784
#
#
#
# Elastic Compliance Matrix: (Units=1/GPa)
#
#
# Indices 1 2 3 4 5 6 
#
# 1 0.010472 -0.003470 -0.005089 0.000000 0.006999 0.000000
# 2 -0.003470 0.011890 -0.000860 0.000000 -0.004664 0.000000
# 3 -0.005089 -0.000860 0.019987 0.000000 -0.000898 0.000000
# 4 0.000000 0.000000 0.000000 0.084990 0.000000 0.010084
# 5 0.006999 -0.004664 -0.000898 0.000000 0.033684 0.000000
# 6 0.000000 0.000000 0.000000 0.010084 0.000000 0.029225
#
#
# Mechanical properties :
#
#
# Convention : Reuss Voigt Hill
#
# Bulk Modulus (GPa) = 42.53597 51.62314 47.07956
# Shear Modulus (GPa) = 23.04957 30.91176 26.98066
#
# Velocity S-wave (km/s) = 3.31417 3.83800 3.58566
# Velocity P-wave (km/s) = 5.90884 6.65132 6.29105
#
# Compressibility (1/GPa) = 0.02350951
#
# Stress axis : x y z
#
# Youngs Moduli (GPa) = 95.48952 84.10399 50.03316
#
# Poissons Ratio (x) = 0.29188 0.25464
# Poissons Ratio (y) = 0.33139 0.04302
# Poissons Ratio (z) = 0.48599 0.07232
#
# Static dielectric constant tensor:
#      x y z
#    x 1.840950 0.000000 -0.061360 
#    y 0.000000 1.734920 0.000000 
#    z -0.061360 0.000000 1.856740 
# 
# From -- ./inp_files/52288.got.cif
#   From: 2010.05.17/outbox.cif.g08.bks.cpg/sg15_27_cif.got.tgz:52288.got - 2010.06.03 18:47:42.
