data_PCOD9267184
_publ_section_title
;
Structure prediction by ZEFSAII (Michael W. Deem and Ramdas Pophale) SiO2 
 PCOD9267184
Probable space group: C 2/C
;
_chemical_formula_sum "Si O2"
_cell_formula_units_Z 60
_cell_length_a 19.907133
_cell_length_b 8.435352
_cell_length_c 17.757562
_cell_angle_alpha 90.000000
_cell_angle_beta 120.007803
_cell_angle_gamma 90.000000
_cell_volume 2582.211115
_symmetry_space_group_name_H-M "C 2/C"
_symmetry_group_IT_number 15
_symmetry_cell_setting 'monoclinic'
loop_
_space_group_symop_operation_xyz
x,y,z
-x,y,1/2-z
-x,-y,-z
x,-y,1/2+z
1/2+x,1/2+y,z
1/2-x,1/2+y,1/2-z
1/2-x,1/2-y,-z
1/2+x,1/2-y,1/2+z
loop_
_atom_site_type_symbol
_atom_site_label
_atom_site_fract_x
_atom_site_fract_y
_atom_site_fract_z
Si Si1 0.635435 0.140362 0.403483
Si Si2 0.765837 0.929452 0.621689
Si Si3 0.500000 0.666181 0.750000
Si Si4 0.381700 0.458022 0.302599
Si Si5 0.617320 0.269636 0.050933
Si Si6 0.602090 0.812850 0.325048
Si Si7 0.803357 0.919622 0.980381
Si Si8 0.981865 0.757969 0.865924
O O1 0.564231 0.227980 0.325835
O O2 0.717109 0.125274 0.403064
O O3 0.652376 0.252364 0.485017
O O4 0.609667 0.958512 0.386102
O O5 0.677990 0.872868 0.575638
O O6 0.816327 0.768045 0.644764
O O7 0.800820 0.018307 0.713926
O O8 0.785154 0.022088 0.555841
O O9 0.552186 0.569779 0.721801
O O10 0.385395 0.317587 0.363517
O O11 0.414334 0.622591 0.354686
O O12 0.652690 0.433886 0.033918
O O13 0.534076 0.226164 0.968645
O O14 0.563029 0.851477 0.222031
O O15 0.550965 0.690451 0.345933
#
# Coordination Sequence:
#
# PCOD9267184 Si02
#       8
#     8   8   4   8   8   8   8   8
#     4  11  23  36  67 102 134 174 221 279 337 404
#     4  11  21  43  69  95 131 181 225 276 340 420
#     4  12  22  44  64  88 136 180 222 264 352 420
#     4  11  25  42  67  98 134 180 227 282 344 409
#     4  12  23  40  71 102 135 171 236 290 340 397
#     4  10  19  38  67 101 131 176 228 268 331 408
#     4  11  22  41  67 102 132 171 226 282 344 409
#     4  10  20  36  65  96 132 172 227 272 323 402
#
# _framework density 23.235900000000001
#
# number of rings (size 3 to 8) (size 9 to 14) (size 15 to 20)
#    0.000    1.067    4.000    4.800    0.000    1.067 
#    0.000    0.000    0.000    4.800    0.000    0.000 
#    0.000    0.000    0.000    0.000    0.000    0.000 
#
# Total GULP energy -167160.976070 kJ/mol
# GULP energy per Si atom -5572.032536 kJ/mol
# Density = 2.318301 g / cm^3
# Si number density = 23.235900 Si / 1000 Ang^3
#
#
#
# Elastic Constant Matrix: (Units=GPa)
#
#
# Indices 1 2 3 4 5 6 
#
# 1 16.9877 -2.2732 22.2252 0.0000 13.5629 0.0000
# 2 -2.2732 47.6882 17.0314 0.0000 0.8801 0.0000
# 3 22.2252 17.0314 109.0969 0.0000 24.9024 0.0000
# 4 0.0000 0.0000 0.0000 29.6361 0.0000 10.1946
# 5 13.5629 0.8801 24.9024 0.0000 42.9349 0.0000
# 6 0.0000 0.0000 0.0000 10.1946 0.0000 21.1284
#
#
#
# Elastic Compliance Matrix: (Units=1/GPa)
#
#
# Indices 1 2 3 4 5 6 
#
# 1 0.100462 0.011344 -0.017220 0.000000 -0.021980 0.000000
# 2 0.011344 0.023609 -0.005842 0.000000 -0.000679 0.000000
# 3 -0.017220 -0.005842 0.014197 0.000000 -0.002675 0.000000
# 4 0.000000 0.000000 0.000000 0.040458 0.000000 -0.019521
# 5 -0.021980 -0.000679 -0.002675 0.000000 0.031800 0.000000
# 6 0.000000 0.000000 0.000000 -0.019521 0.000000 0.056749
#
#
# Mechanical properties :
#
#
# Convention : Reuss Voigt Hill
#
# Bulk Modulus (GPa) = 8.70825 27.52662 18.11744
# Shear Modulus (GPa) = 15.19818 27.85917 21.52868
#
# Velocity S-wave (km/s) = 2.56028 3.46637 3.04719
# Velocity P-wave (km/s) = 3.53496 5.28141 4.49384
#
# Compressibility (1/GPa) = 0.11483358
#
# Stress axis : x y z
#
# Youngs Moduli (GPa) = 9.95400 42.35646 70.43898
#
# Poissons Ratio (x) = -0.48051 1.21295
# Poissons Ratio (y) = -0.11292 0.41148
# Poissons Ratio (z) = 0.17141 0.24743
#
# Static dielectric constant tensor:
#      x y z
#    x 1.886920 0.000000 0.022700 
#    y 0.000000 1.969830 0.000000 
#    z 0.022700 0.000000 1.973180 
# 
# From -- ./inp_files/214315.got.cif
#   From: 2010.05.17/outbox.cif.g08.bks.cpg/sg15_108_cif.got.tgz:214315.got - 2010.06.03 18:47:42.
