data_PCOD9267069
_publ_section_title
;
Structure prediction by ZEFSAII (Michael W. Deem and Ramdas Pophale) SiO2 
 PCOD9267069
Probable space group: C 2/C
;
_chemical_formula_sum "Si O2"
_cell_formula_units_Z 64
_cell_length_a 20.752081
_cell_length_b 16.707437
_cell_length_c 11.935251
_cell_angle_alpha 90.000000
_cell_angle_beta 48.799354
_cell_angle_gamma 90.000000
_cell_volume 3113.552180
_symmetry_space_group_name_H-M "C 2/C"
_symmetry_group_IT_number 15
_symmetry_cell_setting 'monoclinic'
loop_
_space_group_symop_operation_xyz
x,y,z
-x,y,1/2-z
-x,-y,-z
x,-y,1/2+z
1/2+x,1/2+y,z
1/2-x,1/2+y,1/2-z
1/2-x,1/2-y,-z
1/2+x,1/2-y,1/2+z
loop_
_atom_site_type_symbol
_atom_site_label
_atom_site_fract_x
_atom_site_fract_y
_atom_site_fract_z
Si Si1 0.001857 0.943021 0.884393
Si Si2 0.955052 0.691044 0.701846
Si Si3 0.315152 0.418100 0.138363
Si Si4 0.270677 0.862928 0.474067
Si Si5 0.255240 0.908686 0.831574
Si Si6 0.429632 0.957357 0.503128
Si Si7 0.642856 0.317828 0.795317
Si Si8 0.292991 0.956575 0.026725
O O1 0.000000 0.968005 0.750000
O O2 0.085392 0.890349 0.812384
O O3 0.913348 0.896481 0.008073
O O4 0.000000 0.000000 0.000000
O O5 0.869893 0.654656 0.853475
O O6 0.921540 0.743183 0.636286
O O7 0.000000 0.741515 0.750000
O O8 0.018153 0.619043 0.600317
O O9 0.262678 0.364474 0.113375
O O10 0.301655 0.510651 0.116026
O O11 0.270236 0.418162 0.309801
O O12 0.216215 0.807942 0.617937
O O13 0.260746 0.953822 0.532324
O O14 0.343320 0.925315 0.663117
O O15 0.194860 0.840783 0.847289
O O16 0.285342 0.903745 0.924644
O O17 0.500000 0.000000 0.500000
O O18 0.387860 0.023113 0.466091
#
# Coordination Sequence:
#
# PCOD9267069 Si02
#       8
#     8   8   8   8   8   8   8   8
#     4  12  23  37  60  92 130 170 227 278 325 394
#     4  12  24  38  61  95 132 171 215 269 343 403
#     4  10  20  35  61  91 120 163 212 269 327 384
#     4  11  20  38  59  86 129 163 211 265 329 388
#     4  10  21  38  61  88 130 168 207 271 327 388
#     4  11  22  39  66 101 127 161 218 285 331 391
#     4  12  23  40  56  91 135 174 211 264 335 409
#     4  10  19  38  64  95 128 157 219 268 336 388
#
# _framework density 20.555301
#
# number of rings (size 3 to 8) (size 9 to 14) (size 15 to 20)
#    0.000    1.000    6.250    3.000    1.750    0.000 
#    0.000    0.000    0.000    3.000   13.000    0.000 
#    0.000    0.000    0.000    0.000    0.000    0.000 
#
# Total GULP energy -178259.209678 kJ/mol
# GULP energy per Si atom -5570.600302 kJ/mol
# Density = 2.050852 g / cm^3
# Si number density = 20.555301 Si / 1000 Ang^3
#
#
#
# Elastic Constant Matrix: (Units=GPa)
#
#
# Indices 1 2 3 4 5 6 
#
# 1 191.4246 46.5221 70.0519 0.0000 6.3061 0.0000
# 2 46.5221 47.8194 23.4400 0.0000 6.2081 0.0000
# 3 70.0519 23.4400 81.0101 0.0000 16.9267 0.0000
# 4 0.0000 0.0000 0.0000 22.8631 0.0000 0.5270
# 5 6.3061 6.2081 16.9267 0.0000 41.4906 0.0000
# 6 0.0000 0.0000 0.0000 0.5270 0.0000 35.1580
#
#
#
# Elastic Compliance Matrix: (Units=1/GPa)
#
#
# Indices 1 2 3 4 5 6 
#
# 1 0.008942 -0.005789 -0.006509 0.000000 0.002163 0.000000
# 2 -0.005789 0.028143 -0.002668 0.000000 -0.002243 0.000000
# 3 -0.006509 -0.002668 0.020174 0.000000 -0.006842 0.000000
# 4 0.000000 0.000000 0.000000 0.043754 0.000000 -0.000656
# 5 0.002163 -0.002243 -0.006842 0.000000 0.026900 0.000000
# 6 0.000000 0.000000 0.000000 -0.000656 0.000000 0.028453
#
#
# Mechanical properties :
#
#
# Convention : Reuss Voigt Hill
#
# Bulk Modulus (GPa) = 36.59508 66.69799 51.64654
# Shear Modulus (GPa) = 25.58752 31.91834 28.75293
#
# Velocity S-wave (km/s) = 3.53202 3.94484 3.74412
# Velocity P-wave (km/s) = 5.87158 7.29846 6.62355
#
# Compressibility (1/GPa) = 0.02732608
#
# Stress axis : x y z
#
# Youngs Moduli (GPa) = 111.83612 35.53224 49.56826
#
# Poissons Ratio (x) = 0.20571 0.32263
# Poissons Ratio (y) = 0.64746 0.13227
# Poissons Ratio (z) = 0.72793 0.09481
#
# Static dielectric constant tensor:
#      x y z
#    x 1.821450 0.000000 0.052390 
#    y 0.000000 1.817730 0.000000 
#    z 0.052390 0.000000 1.749250 
# 
# From -- ./inp_files/113667.got.cif
#   From: 2010.05.17/outbox.cif.g08.bks.cpg/sg15_57_cif.got.tgz:113667.got - 2010.06.03 18:47:42.
