data_PCOD9267132
_publ_section_title
;
Structure prediction by ZEFSAII (Michael W. Deem and Ramdas Pophale) SiO2 
 PCOD9267132
Probable space group: C 2/C
;
_chemical_formula_sum "Si O2"
_cell_formula_units_Z 44
_cell_length_a 9.668592
_cell_length_b 13.118336
_cell_length_c 15.834073
_cell_angle_alpha 90.000000
_cell_angle_beta 119.363004
_cell_angle_gamma 90.000000
_cell_volume 1750.319256
_symmetry_space_group_name_H-M "C 2/C"
_symmetry_group_IT_number 15
_symmetry_cell_setting 'monoclinic'
loop_
_space_group_symop_operation_xyz
x,y,z
-x,y,1/2-z
-x,-y,-z
x,-y,1/2+z
1/2+x,1/2+y,z
1/2-x,1/2+y,1/2-z
1/2-x,1/2-y,-z
1/2+x,1/2-y,1/2+z
loop_
_atom_site_type_symbol
_atom_site_label
_atom_site_fract_x
_atom_site_fract_y
_atom_site_fract_z
Si Si1 0.174522 0.578609 0.637633
Si Si2 0.000000 0.067338 0.750000
Si Si3 0.162370 0.127236 0.532319
Si Si4 0.878764 0.547005 0.081046
Si Si5 0.576573 0.267021 0.409321
Si Si6 0.015296 0.756703 0.854172
O O1 0.331069 0.522232 0.722212
O O2 0.146488 0.558588 0.528962
O O3 0.027936 0.524629 0.639531
O O4 0.137429 0.696968 0.653048
O O5 0.071167 0.143616 0.840781
O O6 0.064522 0.138805 0.415875
O O7 0.329806 0.186938 0.579933
O O8 0.053812 0.192718 0.563633
O O9 0.218805 0.010583 0.564746
O O10 0.941994 0.654892 0.132945
O O11 0.750000 0.250000 0.500000
O O12 0.000000 0.768745 0.750000
#
# Coordination Sequence:
#
# PCOD9267132 Si02
#       6
#     8   4   8   8   8   8
#     4  10  21  43  66  96 140 174 233 303 358 420
#     4  12  24  44  68 102 136 190 232 296 372 438
#     4  10  22  39  68  99 132 187 239 287 360 442
#     4  10  22  45  73  95 139 192 231 304 366 429
#     4  12  24  46  69  98 150 186 233 303 377 435
#     4  10  19  38  65  97 133 181 234 294 360 427
#
# _framework density 25.138272000000001
#
# number of rings (size 3 to 8) (size 9 to 14) (size 15 to 20)
#    0.000    1.455    3.636    1.091    2.545    0.727 
#   11.455    0.000    0.000    0.000    0.000    0.000 
#    0.000    0.000    0.000    0.000    0.000    0.000 
#
# Total GULP energy -122626.806436 kJ/mol
# GULP energy per Si atom -5573.945747 kJ/mol
# Density = 2.508106 g / cm^3
# Si number density = 25.138272 Si / 1000 Ang^3
#
#
#
# Elastic Constant Matrix: (Units=GPa)
#
#
# Indices 1 2 3 4 5 6 
#
# 1 114.4043 20.0450 23.0920 0.0000 37.5594 0.0000
# 2 20.0450 72.5678 -13.0468 0.0000 3.7287 0.0000
# 3 23.0920 -13.0468 86.7400 0.0000 20.6584 0.0000
# 4 0.0000 0.0000 0.0000 5.7057 0.0000 17.6962
# 5 37.5594 3.7287 20.6584 0.0000 33.8074 0.0000
# 6 0.0000 0.0000 0.0000 17.6962 0.0000 28.8577
#
#
#
# Elastic Compliance Matrix: (Units=1/GPa)
#
#
# Indices 1 2 3 4 5 6 
#
# 1 0.014493 -0.003347 -0.000720 0.000000 -0.015293 0.000000
# 2 -0.003347 0.015268 0.003163 0.000000 0.000101 0.000000
# 3 -0.000720 0.003163 0.014148 0.000000 -0.008195 0.000000
# 4 0.000000 0.000000 0.000000 -0.194323 0.000000 0.119164
# 5 -0.015293 0.000101 -0.008195 0.000000 0.051566 0.000000
# 6 0.000000 0.000000 0.000000 0.119164 0.000000 -0.038421
#
#
# Mechanical properties :
#
#
# Convention : Reuss Voigt Hill
#
# Bulk Modulus (GPa) = 23.75133 37.09919 30.42526
# Shear Modulus (GPa) = -41.17654 29.91561 -5.63047
#
# Velocity S-wave (km/s) = -4.05161 3.45344 -1.49822
# Velocity P-wave (km/s) = 3.52401 5.54001 3.02267
#
# Compressibility (1/GPa) = 0.04210291
#
# Stress axis : x y z
#
# Youngs Moduli (GPa) = 68.99710 65.49527 70.68259
#
# Poissons Ratio (x) = 0.21921 0.05087
# Poissons Ratio (y) = 0.23094 -0.22360
# Poissons Ratio (z) = 0.04965 -0.20719
#
# Static dielectric constant tensor:
#      x y z
#    x 1.774780 0.000000 -0.010010 
#    y 0.000000 2.613720 0.000000 
#    z -0.010010 0.000000 1.974310 
# 
# From -- ./inp_files/189351.got.cif
#   From: 2010.05.17/outbox.cif.g08.bks.cpg/sg15_95_cif.got.tgz:189351.got - 2010.06.03 18:47:42.
