data_PCOD9267298
_publ_section_title
;
Structure prediction by ZEFSAII (Michael W. Deem and Ramdas Pophale) SiO2 
 PCOD9267298
Probable space group: C 2/C
;
_chemical_formula_sum "Si O2"
_cell_formula_units_Z 60
_cell_length_a 11.720613
_cell_length_b 25.839093
_cell_length_c 11.968122
_cell_angle_alpha 90.000000
_cell_angle_beta 61.164662
_cell_angle_gamma 90.000000
_cell_volume 3175.136189
_symmetry_space_group_name_H-M "C 2/C"
_symmetry_group_IT_number 15
_symmetry_cell_setting 'monoclinic'
loop_
_space_group_symop_operation_xyz
x,y,z
-x,y,1/2-z
-x,-y,-z
x,-y,1/2+z
1/2+x,1/2+y,z
1/2-x,1/2+y,1/2-z
1/2-x,1/2-y,-z
1/2+x,1/2-y,1/2+z
loop_
_atom_site_type_symbol
_atom_site_label
_atom_site_fract_x
_atom_site_fract_y
_atom_site_fract_z
Si Si1 0.830550 0.635067 0.187176
Si Si2 0.539283 0.780356 0.600443
Si Si3 0.791394 0.626241 0.460957
Si Si4 0.014482 0.163604 0.609731
Si Si5 0.500000 0.888079 0.250000
Si Si6 0.511421 0.061058 0.982032
Si Si7 0.347495 0.289514 0.820548
Si Si8 0.243126 0.818895 0.387335
O O1 0.844813 0.621040 0.309944
O O2 0.690869 0.660935 0.235191
O O3 0.927182 0.682161 0.105683
O O4 0.879235 0.587407 0.091887
O O5 0.500000 0.776617 0.750000
O O6 0.667633 0.814993 0.523354
O O7 0.545892 0.722395 0.552944
O O8 0.635615 0.625790 0.530652
O O9 0.869197 0.586756 0.503611
O O10 0.874941 0.152792 0.620121
O O11 0.000000 0.164969 0.750000
O O12 0.475911 0.922167 0.151897
O O13 0.373405 0.852430 0.327839
O O14 0.500000 0.000000 0.000000
O O15 0.500000 0.279707 0.750000
O O16 0.277824 0.236484 0.814684
O O17 0.301366 0.304687 0.966688
#
# Coordination Sequence:
#
# PCOD9267298 Si02
#       8
#     8   8   8   8   4   8   8   8
#     4  10  19  39  58  90 126 158 213 255 306 373
#     4   8  16  29  50  82 120 156 195 242 292 358
#     4  10  21  36  60  89 119 161 207 266 309 363
#     4  11  20  34  53  85 128 166 206 240 309 373
#     4  12  24  44  66  94 132 164 212 268 328 394
#     4  11  25  43  69  93 118 161 217 280 331 373
#     4  11  21  36  58  89 138 181 211 245 311 392
#     4  11  23  37  57  93 132 177 211 253 311 397
#
# _framework density 18.896826000000001
#
# number of rings (size 3 to 8) (size 9 to 14) (size 15 to 20)
#    0.000    1.600    3.333    3.200    1.867    0.000 
#    7.200    0.000    0.000    3.200    0.000    0.000 
#    0.000    0.000    0.000    0.000    0.000    0.000 
#
# Total GULP energy -167441.178201 kJ/mol
# GULP energy per Si atom -5581.372607 kJ/mol
# Density = 1.885382 g / cm^3
# Si number density = 18.896826 Si / 1000 Ang^3
#
#
#
# Elastic Constant Matrix: (Units=GPa)
#
#
# Indices 1 2 3 4 5 6 
#
# 1 119.8299 32.6939 32.7569 0.0000 -8.5652 0.0000
# 2 32.6939 98.8231 34.9887 0.0000 0.4339 0.0000
# 3 32.7569 34.9887 76.6374 0.0000 5.4271 0.0000
# 4 0.0000 0.0000 0.0000 0.9416 0.0000 -0.8730
# 5 -8.5652 0.4339 5.4271 0.0000 35.1287 0.0000
# 6 0.0000 0.0000 0.0000 -0.8730 0.0000 13.8254
#
#
#
# Elastic Compliance Matrix: (Units=1/GPa)
#
#
# Indices 1 2 3 4 5 6 
#
# 1 0.010113 -0.002090 -0.003584 0.000000 0.003045 0.000000
# 2 -0.002090 0.012520 -0.004828 0.000000 0.000082 0.000000
# 3 -0.003584 -0.004828 0.017029 0.000000 -0.003445 0.000000
# 4 0.000000 0.000000 0.000000 1.128039 0.000000 0.071230
# 5 0.003045 0.000082 -0.003445 0.000000 0.029740 0.000000
# 6 0.000000 0.000000 0.000000 0.071230 0.000000 0.076828
#
#
# Mechanical properties :
#
#
# Convention : Reuss Voigt Hill
#
# Bulk Modulus (GPa) = 53.60051 55.12994 54.36523
# Shear Modulus (GPa) = 3.84175 22.96921 13.40548
#
# Velocity S-wave (km/s) = 1.42738 3.49019 2.66635
# Velocity P-wave (km/s) = 5.58059 6.74385 6.18960
#
# Compressibility (1/GPa) = 0.01865654
#
# Stress axis : x y z
#
# Youngs Moduli (GPa) = 98.88465 79.87429 58.72475
#
# Poissons Ratio (x) = 0.16695 0.21046
# Poissons Ratio (y) = 0.20668 0.28354
# Poissons Ratio (z) = 0.35439 0.38565
#
# Static dielectric constant tensor:
#      x y z
#    x 1.747180 0.000000 0.004460 
#    y 0.000000 1.632840 0.000000 
#    z 0.004460 0.000000 1.675680 
# 
# From -- ./inp_files/92064.got.cif
#   From: 2010.05.17/outbox.cif.g08.bks.cpg/sg15_47_cif.got.tgz:92064.got - 2010.06.03 18:47:42.
