data_PCOD9267614
_publ_section_title
;
Structure prediction by ZEFSAII (Michael W. Deem and Ramdas Pophale) SiO2 
 PCOD9267614
Probable space group: C 2/C
;
_chemical_formula_sum "Si O2"
_cell_formula_units_Z 48
_cell_length_a 9.670957
_cell_length_b 22.253246
_cell_length_c 14.260977
_cell_angle_alpha 90.000000
_cell_angle_beta 139.867369
_cell_angle_gamma 90.000000
_cell_volume 1978.221359
_symmetry_space_group_name_H-M "C 2/C"
_symmetry_group_IT_number 15
_symmetry_cell_setting 'monoclinic'
loop_
_space_group_symop_operation_xyz
x,y,z
-x,y,1/2-z
-x,-y,-z
x,-y,1/2+z
1/2+x,1/2+y,z
1/2-x,1/2+y,1/2-z
1/2-x,1/2-y,-z
1/2+x,1/2-y,1/2+z
loop_
_atom_site_type_symbol
_atom_site_label
_atom_site_fract_x
_atom_site_fract_y
_atom_site_fract_z
Si Si1 0.733482 0.163369 0.918007
Si Si2 0.972432 0.536383 0.134519
Si Si3 0.894740 0.422952 0.985220
Si Si4 0.295313 0.836937 0.539287
Si Si5 0.090820 0.743082 0.563559
Si Si6 0.176951 0.136352 0.729383
O O1 0.500000 0.174439 0.750000
O O2 0.712419 0.129959 0.007593
O O3 0.612504 0.278502 0.002319
O O4 0.832814 0.121435 0.886889
O O5 0.848763 0.485841 0.011879
O O6 0.858300 0.597707 0.102755
O O7 0.000000 0.505783 0.250000
O O8 0.140871 0.563285 0.143592
O O9 0.847363 0.408633 0.366055
O O10 0.247180 0.792363 0.599054
O O11 0.447282 0.803244 0.543212
O O12 0.068225 0.850933 0.371888
O O13 0.214428 0.701893 0.700697
#
# Coordination Sequence:
#
# PCOD9267614 Si02
#       6
#     8   8   8   8   8   8
#     4   9  20  37  61  94 130 171 212 262 335 397
#     4  11  23  41  66  95 128 171 219 280 322 379
#     4  10  22  42  65  94 130 172 220 267 333 393
#     4  10  22  38  64  98 129 171 229 272 320 381
#     4  10  20  36  63  94 128 171 222 269 319 391
#     4  10  19  39  68  94 126 178 223 265 319 399
#
# _framework density 24.264220999999999
#
# number of rings (size 3 to 8) (size 9 to 14) (size 15 to 20)
#    0.000    2.000    1.667    2.000    0.000    6.667 
#    0.000    7.500    0.000    9.000    0.000    0.000 
#    0.000    0.000    0.000    0.000    0.000    0.000 
#
# Total GULP energy -133653.444463 kJ/mol
# GULP energy per Si atom -5568.893519 kJ/mol
# Density = 2.420899 g / cm^3
# Si number density = 24.264221 Si / 1000 Ang^3
#
#
#
# Elastic Constant Matrix: (Units=GPa)
#
#
# Indices 1 2 3 4 5 6 
#
# 1 93.7048 25.2203 40.0334 0.0007 -29.1758 -0.0052
# 2 25.2203 97.9541 11.5043 0.0000 13.8671 -0.0002
# 3 40.0334 11.5043 74.0017 0.0006 -31.5933 -0.0048
# 4 0.0007 0.0000 0.0006 7.6050 0.0006 127.6948
# 5 -29.1758 13.8671 -31.5933 0.0006 33.1209 -0.0047
# 6 -0.0052 -0.0002 -0.0048 127.6948 -0.0047-1076.8396
#
#
#
# Elastic Compliance Matrix: (Units=1/GPa)
#
#
# Indices 1 2 3 4 5 6 
#
# 1 0.018986 -0.007418 -0.001099 0.000000 0.018781 0.000000
# 2 -0.007418 0.015685 -0.006780 0.000000 -0.019569 0.000000
# 3 -0.001099 -0.006780 0.026925 0.000000 0.027554 0.000000
# 4 0.000000 0.000000 0.000000 0.043961 0.000000 0.005213
# 5 0.018781 -0.019569 0.027554 0.000000 0.081213 -0.000001
# 6 0.000000 0.000000 0.000000 0.005213 -0.000001 -0.000310
#
#
# Mechanical properties :
#
#
# Convention : Reuss Voigt Hill
#
# Bulk Modulus (GPa) = 32.25610 46.57518 39.41564
# Shear Modulus (GPa) = 21.98879 -194.62923 -86.32022
#
# Velocity S-wave (km/s) = 3.01362 -8.96586 -5.97096
# Velocity P-wave (km/s) = 5.04299 9.37792 5.59078
#
# Compressibility (1/GPa) = 0.03100188
#
# Stress axis : x y z
#
# Youngs Moduli (GPa) = 52.67090 63.75364 37.13961
#
# Poissons Ratio (x) = 0.47293 0.04083
# Poissons Ratio (y) = 0.39071 0.25180
# Poissons Ratio (z) = 0.05791 0.43225
#
# Static dielectric constant tensor:
#      x y z
#    x 2.527690 0.000000 -0.117990 
#    y 0.000000 1.914130 0.000000 
#    z -0.117990 0.000000 2.065430 
# 
# From -- ./inp_files/136955.got.cif
#   From: 2010.05.17/outbox.cif.g08.bks.cpg/sg15_69_cif.got.tgz:136955.got - 2010.06.03 18:47:42.
