data_PCOD9267181
_publ_section_title
;
Structure prediction by ZEFSAII (Michael W. Deem and Ramdas Pophale) SiO2 
 PCOD9267181
Probable space group: C 2/C
;
_chemical_formula_sum "Si O2"
_cell_formula_units_Z 60
_cell_length_a 13.663016
_cell_length_b 21.261389
_cell_length_c 15.336466
_cell_angle_alpha 90.000000
_cell_angle_beta 137.662421
_cell_angle_gamma 90.000000
_cell_volume 3000.540403
_symmetry_space_group_name_H-M "C 2/C"
_symmetry_group_IT_number 15
_symmetry_cell_setting 'monoclinic'
loop_
_space_group_symop_operation_xyz
x,y,z
-x,y,1/2-z
-x,-y,-z
x,-y,1/2+z
1/2+x,1/2+y,z
1/2-x,1/2+y,1/2-z
1/2-x,1/2-y,-z
1/2+x,1/2-y,1/2+z
loop_
_atom_site_type_symbol
_atom_site_label
_atom_site_fract_x
_atom_site_fract_y
_atom_site_fract_z
Si Si1 0.286582 0.227834 0.427817
Si Si2 0.076222 0.084409 0.895673
Si Si3 0.365477 0.444089 0.528911
Si Si4 0.451509 0.137721 0.937973
Si Si5 0.157072 0.147625 0.644491
Si Si6 0.578498 0.109596 0.387382
Si Si7 0.500000 0.652272 0.250000
Si Si8 0.451818 0.964639 0.122791
O O1 0.250000 0.250000 0.500000
O O2 0.421589 0.180511 0.517707
O O3 0.334044 0.288034 0.403487
O O4 0.135554 0.193384 0.304100
O O5 0.988307 0.132955 0.897803
O O6 0.000000 0.082788 0.750000
O O7 0.065814 0.013656 0.929189
O O8 0.246692 0.102893 0.005164
O O9 0.326696 0.411311 0.411723
O O10 0.456740 0.393280 0.642278
O O11 0.220232 0.454554 0.489817
O O12 0.291177 0.152662 0.799057
O O13 0.480468 0.069300 0.915259
O O14 0.458352 0.142413 0.046218
O O15 0.500000 0.136870 0.250000
O O16 0.516979 0.038520 0.356416
O O17 0.500000 0.938931 0.250000
#
# Coordination Sequence:
#
# PCOD9267181 Si02
#       8
#     8   8   8   8   8   8   4   8
#     4  12  26  44  66  97 136 174 216 282 334 408
#     4  11  23  45  69  97 140 179 226 284 340 402
#     4  11  22  39  66 101 134 174 217 279 344 403
#     4  12  23  42  70  95 132 181 227 269 343 408
#     4  12  25  43  67  99 131 183 232 272 337 412
#     4  10  24  44  67  99 136 176 225 284 334 398
#     4  12  22  40  64  98 140 170 214 272 344 400
#     4  10  19  38  66  99 137 170 210 271 340 407
#
# _framework density 19.996397999999999
#
# number of rings (size 3 to 8) (size 9 to 14) (size 15 to 20)
#    0.000    0.800    6.000    1.600    0.000    1.067 
#    2.400    1.333    0.000    0.000    0.000    0.000 
#    0.000    0.000    0.000    0.000    0.000    0.000 
#
# Total GULP energy -167505.263236 kJ/mol
# GULP energy per Si atom -5583.508775 kJ/mol
# Density = 1.995089 g / cm^3
# Si number density = 19.996398 Si / 1000 Ang^3
#
#
#
# Elastic Constant Matrix: (Units=GPa)
#
#
# Indices 1 2 3 4 5 6 
#
# 1 82.9233 38.8572 35.1525 0.0000 0.4533 0.0000
# 2 38.8572 67.4360 25.5808 0.0000 4.8860 0.0000
# 3 35.1525 25.5808 116.0003 0.0000 -10.2843 0.0000
# 4 0.0000 0.0000 0.0000 11.1812 0.0000 -3.1466
# 5 0.4533 4.8860 -10.2843 0.0000 34.2468 0.0000
# 6 0.0000 0.0000 0.0000 -3.1466 0.0000 36.3114
#
#
#
# Elastic Compliance Matrix: (Units=1/GPa)
#
#
# Indices 1 2 3 4 5 6 
#
# 1 0.017664 -0.008893 -0.003390 0.000000 0.000017 0.000000
# 2 -0.008893 0.021072 -0.002268 0.000000 -0.003570 0.000000
# 3 -0.003390 -0.002268 0.010459 0.000000 0.003509 0.000000
# 4 0.000000 0.000000 0.000000 0.091671 0.000000 0.007944
# 5 0.000017 -0.003570 0.003509 0.000000 0.030763 0.000000
# 6 0.000000 0.000000 0.000000 0.007944 0.000000 0.028228
#
#
# Mechanical properties :
#
#
# Convention : Reuss Voigt Hill
#
# Bulk Modulus (GPa) = 49.77136 51.72673 50.74905
# Shear Modulus (GPa) = 21.21718 27.46583 24.34150
#
# Velocity S-wave (km/s) = 3.26091 3.71015 3.49276
# Velocity P-wave (km/s) = 6.25478 6.65416 6.45756
#
# Compressibility (1/GPa) = 0.02009187
#
# Stress axis : x y z
#
# Youngs Moduli (GPa) = 56.61352 47.45557 95.60797
#
# Poissons Ratio (x) = 0.42203 0.32412
# Poissons Ratio (y) = 0.50347 0.21688
# Poissons Ratio (z) = 0.19192 0.10765
#
# Static dielectric constant tensor:
#      x y z
#    x 1.674950 0.000000 -0.024060 
#    y 0.000000 1.736770 0.000000 
#    z -0.024060 0.000000 1.711830 
# 
# From -- ./inp_files/156380.got.cif
#   From: 2010.05.17/outbox.cif.g08.bks.cpg/sg15_79_cif.got.tgz:156380.got - 2010.06.03 18:47:42.
