data_PCOD9267740
_publ_section_title
;
Structure prediction by ZEFSAII (Michael W. Deem and Ramdas Pophale) SiO2 
 PCOD9267740
Probable space group: C 2/C
;
_chemical_formula_sum "Si O2"
_cell_formula_units_Z 44
_cell_length_a 8.968501
_cell_length_b 29.598626
_cell_length_c 11.819951
_cell_angle_alpha 90.000000
_cell_angle_beta 132.911362
_cell_angle_gamma 90.000000
_cell_volume 2298.053341
_symmetry_space_group_name_H-M "C 2/C"
_symmetry_group_IT_number 15
_symmetry_cell_setting 'monoclinic'
loop_
_space_group_symop_operation_xyz
x,y,z
-x,y,1/2-z
-x,-y,-z
x,-y,1/2+z
1/2+x,1/2+y,z
1/2-x,1/2+y,1/2-z
1/2-x,1/2-y,-z
1/2+x,1/2-y,1/2+z
loop_
_atom_site_type_symbol
_atom_site_label
_atom_site_fract_x
_atom_site_fract_y
_atom_site_fract_z
Si Si1 0.000000 0.767863 0.250000
Si Si2 0.281091 0.366832 0.663500
Si Si3 0.273303 0.105515 0.114247
Si Si4 0.393920 0.809983 0.523708
Si Si5 0.212333 0.967523 0.409131
Si Si6 0.942013 0.442804 0.091217
O O1 0.966251 0.734822 0.126338
O O2 0.204401 0.797336 0.346492
O O3 0.500000 0.346043 0.750000
O O4 0.308926 0.387483 0.803501
O O5 0.209535 0.406060 0.541592
O O6 0.091132 0.332698 0.570710
O O7 0.500000 0.085841 0.250000
O O8 0.307680 0.153540 0.069908
O O9 0.162177 0.071436 0.973908
O O10 0.360327 0.946720 0.388933
O O11 0.000000 0.984537 0.250000
O O12 0.333016 0.008567 0.528418
O O13 0.000000 0.432121 0.250000
#
# Coordination Sequence:
#
# PCOD9267740 Si02
#       6
#     4   8   8   8   8   8
#     4  10  20  38  72  96 122 152 224 262 304 380
#     4  11  23  42  62  92 134 169 205 258 328 376
#     4  10  19  40  63  87 121 164 211 254 307 371
#     4  10  20  40  66  96 121 162 205 264 312 374
#     4  11  24  39  64  88 121 168 220 262 304 367
#     4  11  25  41  58  91 129 166 212 264 313 369
#
# _framework density 19.146637999999999
#
# number of rings (size 3 to 8) (size 9 to 14) (size 15 to 20)
#    0.000    1.455    6.364    1.091    6.364    0.727 
#    0.000    0.909    0.000    0.000    0.000    0.000 
#    0.000    0.000    0.000    0.000    0.000    0.000 
#
# Total GULP energy -122791.501028 kJ/mol
# GULP energy per Si atom -5581.431865 kJ/mol
# Density = 1.910306 g / cm^3
# Si number density = 19.146638 Si / 1000 Ang^3
#
#
#
# Elastic Constant Matrix: (Units=GPa)
#
#
# Indices 1 2 3 4 5 6 
#
# 1 78.6967 29.5779 53.7083 0.0000 10.6597 0.0000
# 2 29.5779 71.9137 48.4787 0.0000 -0.7898 0.0000
# 3 53.7083 48.4787 106.7227 0.0000 5.2668 0.0000
# 4 0.0000 0.0000 0.0000 33.7030 0.0000 5.8523
# 5 10.6597 -0.7898 5.2668 0.0000 25.6153 0.0000
# 6 0.0000 0.0000 0.0000 5.8523 0.0000 5.7923
#
#
#
# Elastic Compliance Matrix: (Units=1/GPa)
#
#
# Indices 1 2 3 4 5 6 
#
# 1 0.020676 -0.002584 -0.008893 0.000000 -0.006856 0.000000
# 2 -0.002584 0.020528 -0.008192 0.000000 0.003393 0.000000
# 3 -0.008893 -0.008192 0.017575 0.000000 -0.000165 0.000000
# 4 0.000000 0.000000 0.000000 0.035984 0.000000 -0.036357
# 5 -0.006856 0.003393 -0.000165 0.000000 0.042031 0.000000
# 6 0.000000 0.000000 0.000000 -0.036357 0.000000 0.209376
#
#
# Mechanical properties :
#
#
# Convention : Reuss Voigt Hill
#
# Bulk Modulus (GPa) = 51.43832 57.87365 54.65598
# Shear Modulus (GPa) = 12.75548 21.39333 17.07441
#
# Velocity S-wave (km/s) = 2.58388 3.34629 2.98949
# Velocity P-wave (km/s) = 5.98546 6.72476 6.36585
#
# Compressibility (1/GPa) = 0.01944076
#
# Stress axis : x y z
#
# Youngs Moduli (GPa) = 48.36481 48.71417 56.89988
#
# Poissons Ratio (x) = 0.12589 0.50601
# Poissons Ratio (y) = 0.12499 0.46610
# Poissons Ratio (z) = 0.43011 0.39905
#
# Static dielectric constant tensor:
#      x y z
#    x 1.688300 0.000000 -0.033430 
#    y 0.000000 1.661040 0.000000 
#    z -0.033430 0.000000 1.711350 
# 
# From -- ./inp_files/25558.got.cif
#   From: 2010.05.17/outbox.cif.g08.bks.cpg/sg15_13_cif.got.tgz:25558.got - 2010.06.03 18:47:42.
