data_PCOD9267288
_publ_section_title
;
Structure prediction by ZEFSAII (Michael W. Deem and Ramdas Pophale) SiO2 
 PCOD9267288
Probable space group: C 2/C
;
_chemical_formula_sum "Si O2"
_cell_formula_units_Z 56
_cell_length_a 13.740061
_cell_length_b 11.491614
_cell_length_c 27.338621
_cell_angle_alpha 90.000000
_cell_angle_beta 140.600014
_cell_angle_gamma 90.000000
_cell_volume 2739.905235
_symmetry_space_group_name_H-M "C 2/C"
_symmetry_group_IT_number 15
_symmetry_cell_setting 'monoclinic'
loop_
_space_group_symop_operation_xyz
x,y,z
-x,y,1/2-z
-x,-y,-z
x,-y,1/2+z
1/2+x,1/2+y,z
1/2-x,1/2+y,1/2-z
1/2-x,1/2-y,-z
1/2+x,1/2-y,1/2+z
loop_
_atom_site_type_symbol
_atom_site_label
_atom_site_fract_x
_atom_site_fract_y
_atom_site_fract_z
Si Si1 0.661225 0.706276 0.122621
Si Si2 0.786826 0.519062 0.239156
Si Si3 0.340335 0.700846 0.489223
Si Si4 0.512104 0.843922 0.369346
Si Si5 0.910646 0.854883 0.758258
Si Si6 0.822879 0.826921 0.371974
Si Si7 0.334357 0.423588 0.483562
O O1 0.782424 0.626669 0.199264
O O2 0.608226 0.817100 0.133874
O O3 0.710087 0.730188 0.085850
O O4 0.499373 0.633701 0.058092
O O5 0.946262 0.455530 0.314051
O O6 0.701484 0.566613 0.253565
O O7 0.685279 0.417613 0.175389
O O8 0.250000 0.750000 0.500000
O O9 0.516760 0.738760 0.562851
O O10 0.342263 0.560862 0.493644
O O11 0.504438 0.726840 0.332977
O O12 0.685518 0.871042 0.452718
O O13 0.811873 0.762028 0.689628
O O14 0.000000 0.920747 0.750000
O O15 0.802764 0.896593 0.414306
#
# Coordination Sequence:
#
# PCOD9267288 Si02
#       7
#     8   8   8   8   8   8   8
#     4  10  20  42  60  86 119 155 197 244 290 353
#     4  10  20  37  59  84 124 149 188 243 300 343
#     4  11  23  38  61  85 118 155 199 241 304 345
#     4  10  22  35  62  91 113 152 197 245 289 350
#     4  10  20  36  58  85 116 152 201 239 290 349
#     4  10  19  39  58  84 110 159 198 243 278 362
#     4  11  19  38  65  82 112 154 204 242 285 346
#
# _framework density 20.438662999999998
#
# number of rings (size 3 to 8) (size 9 to 14) (size 15 to 20)
#    0.000    1.714    4.286    1.286    2.000    0.000 
#    2.571    0.714    0.000    0.000    0.000    0.000 
#    0.000    0.000    0.000    0.000    0.000    0.000 
#
# Total GULP energy -156213.564372 kJ/mol
# GULP energy per Si atom -5579.055870 kJ/mol
# Density = 2.039214 g / cm^3
# Si number density = 20.438663 Si / 1000 Ang^3
#
#
#
# Elastic Constant Matrix: (Units=GPa)
#
#
# Indices 1 2 3 4 5 6 
#
# 1 81.3880 10.8747 14.6098 0.0000 -28.8265 0.0000
# 2 10.8747 32.8526 15.6234 0.0000 -4.5696 0.0000
# 3 14.6098 15.6234 57.1636 0.0000 -12.1432 0.0000
# 4 0.0000 0.0000 0.0000 13.1797 0.0000 -3.3555
# 5 -28.8265 -4.5696 -12.1432 0.0000 29.2782 0.0000
# 6 0.0000 0.0000 0.0000 -3.3555 0.0000 30.9433
#
#
#
# Elastic Compliance Matrix: (Units=1/GPa)
#
#
# Indices 1 2 3 4 5 6 
#
# 1 0.019327 -0.003846 0.000029 0.000000 0.018440 0.000000
# 2 -0.003846 0.035824 -0.009239 0.000000 -0.002027 0.000000
# 3 0.000029 -0.009239 0.021615 0.000000 0.007552 0.000000
# 4 0.000000 0.000000 0.000000 0.078029 0.000000 0.008461
# 5 0.018440 -0.002027 0.007552 0.000000 0.055127 0.000000
# 6 0.000000 0.000000 0.000000 0.008461 0.000000 0.033235
#
#
# Mechanical properties :
#
#
# Convention : Reuss Voigt Hill
#
# Bulk Modulus (GPa) = 19.74175 28.17999 23.96087
# Shear Modulus (GPa) = 17.47322 23.36668 20.41995
#
# Velocity S-wave (km/s) = 2.92706 3.38488 3.16426
# Velocity P-wave (km/s) = 4.59386 5.39389 5.00987
#
# Compressibility (1/GPa) = 0.05065408
#
# Stress axis : x y z
#
# Youngs Moduli (GPa) = 51.74142 27.91454 46.26330
#
# Poissons Ratio (x) = 0.10737 -0.00134
# Poissons Ratio (y) = 0.19901 0.42741
# Poissons Ratio (z) = -0.00150 0.25789
#
# Static dielectric constant tensor:
#      x y z
#    x 1.793930 0.000000 -0.006790 
#    y 0.000000 1.718270 0.000000 
#    z -0.006790 0.000000 1.751340 
# 
# From -- ./inp_files/268979.got.cif
#   From: 2010.05.17/outbox.cif.g08.bks.cpg/sg15_135_cif.got.tgz:268979.got - 2010.06.03 18:47:42.
