data_PCOD9267707
_publ_section_title
;
Structure prediction by ZEFSAII (Michael W. Deem and Ramdas Pophale) SiO2 
 PCOD9267707
Probable space group: C 2/C
;
_chemical_formula_sum "Si O2"
_cell_formula_units_Z 60
_cell_length_a 9.701571
_cell_length_b 13.546119
_cell_length_c 19.844839
_cell_angle_alpha 90.000000
_cell_angle_beta 64.192234
_cell_angle_gamma 90.000000
_cell_volume 2347.860970
_symmetry_space_group_name_H-M "C 2/C"
_symmetry_group_IT_number 15
_symmetry_cell_setting 'monoclinic'
loop_
_space_group_symop_operation_xyz
x,y,z
-x,y,1/2-z
-x,-y,-z
x,-y,1/2+z
1/2+x,1/2+y,z
1/2-x,1/2+y,1/2-z
1/2-x,1/2-y,-z
1/2+x,1/2-y,1/2+z
loop_
_atom_site_type_symbol
_atom_site_label
_atom_site_fract_x
_atom_site_fract_y
_atom_site_fract_z
Si Si1 0.464751 0.645828 0.139127
Si Si2 0.920623 0.294852 0.474851
Si Si3 0.500000 0.056879 0.750000
Si Si4 0.134427 0.114534 0.676897
Si Si5 0.779993 0.734477 0.758424
Si Si6 0.741179 0.980309 0.597455
Si Si7 0.228389 0.484424 0.947883
Si Si8 0.561010 0.325728 0.409461
O O1 0.377801 0.667772 0.226577
O O2 0.340004 0.598490 0.116692
O O3 0.614491 0.578735 0.099550
O O4 0.502616 0.759602 0.110093
O O5 0.750000 0.250000 0.500000
O O6 0.900457 0.403800 0.506870
O O7 0.004838 0.232005 0.513945
O O8 0.369348 0.131943 0.752374
O O9 0.582028 0.996652 0.671973
O O10 0.180623 0.206673 0.713611
O O11 0.000000 0.062696 0.750000
O O12 0.054446 0.142812 0.623736
O O13 0.276198 0.050737 0.618317
O O14 0.677530 0.746938 0.846276
O O15 0.736546 0.960349 0.518601
O O16 0.840700 0.081886 0.583893
#
# Coordination Sequence:
#
# PCOD9267707 Si02
#       8
#     8   8   4   8   8   8   8   8
#     4  11  21  37  63  95 125 159 219 254 318 380
#     4  10  20  34  60  98 126 152 209 271 307 367
#     4  10  24  44  64  82 132 168 218 262 336 366
#     4  10  22  42  61  91 130 171 207 258 324 392
#     4  10  24  40  61  89 129 167 208 265 320 377
#     4  11  20  40  66  95 123 174 206 268 316 384
#     4  11  21  36  70  96 127 159 222 263 312 374
#     4  10  19  40  62  86 128 170 204 259 328 368
#
# _framework density 25.555175999999999
#
# number of rings (size 3 to 8) (size 9 to 14) (size 15 to 20)
#    0.000    1.600    4.000    2.000    5.600    1.067 
#    3.600    5.333    0.000    0.000    0.000    0.000 
#    0.000    0.000    0.000    0.000    0.000    0.000 
#
# Total GULP energy -167624.175583 kJ/mol
# GULP energy per Si atom -5587.472519 kJ/mol
# Density = 2.549701 g / cm^3
# Si number density = 25.555176 Si / 1000 Ang^3
#
#
#
# Elastic Constant Matrix: (Units=GPa)
#
#
# Indices 1 2 3 4 5 6 
#
# 1 49.4307 0.4405 7.7647 0.0000 5.4314 0.0000
# 2 0.4405 47.3841 6.9605 0.0000 1.1784 0.0000
# 3 7.7647 6.9605 88.0946 0.0000 -2.5243 0.0000
# 4 0.0000 0.0000 0.0000 36.8059 0.0000 2.4435
# 5 5.4314 1.1784 -2.5243 0.0000 43.9624 0.0000
# 6 0.0000 0.0000 0.0000 2.4435 0.0000 18.7328
#
#
#
# Elastic Compliance Matrix: (Units=1/GPa)
#
#
# Indices 1 2 3 4 5 6 
#
# 1 0.020827 0.000156 -0.001925 0.000000 -0.002688 0.000000
# 2 0.000156 0.021373 -0.001722 0.000000 -0.000691 0.000000
# 3 -0.001925 -0.001722 0.011685 0.000000 0.000955 0.000000
# 4 0.000000 0.000000 0.000000 0.027407 0.000000 -0.003575
# 5 -0.002688 -0.000691 0.000955 0.000000 0.023152 0.000000
# 6 0.000000 0.000000 0.000000 -0.003575 0.000000 0.053849
#
#
# Mechanical properties :
#
#
# Convention : Reuss Voigt Hill
#
# Bulk Modulus (GPa) = 21.32128 23.91566 22.61847
# Shear Modulus (GPa) = 27.63832 31.21645 29.42738
#
# Velocity S-wave (km/s) = 3.29221 3.49883 3.39709
# Velocity P-wave (km/s) = 4.77628 5.06964 4.92514
#
# Compressibility (1/GPa) = 0.04690149
#
# Stress axis : x y z
#
# Youngs Moduli (GPa) = 48.01531 46.78836 85.58312
#
# Poissons Ratio (x) = -0.00730 0.16475
# Poissons Ratio (y) = -0.00749 0.14740
# Poissons Ratio (z) = 0.09243 0.08058
#
# Static dielectric constant tensor:
#      x y z
#    x 2.085280 0.000000 -0.056060 
#    y 0.000000 2.055310 0.000000 
#    z -0.056060 0.000000 2.040060 
# 
# From -- ./inp_files/238702.got.cif
#   From: 2010.05.17/outbox.cif.g08.bks.cpg/sg15_120_cif.got.tgz:238702.got - 2010.06.03 18:47:42.
