data_PCOD9267459
_publ_section_title
;
Structure prediction by ZEFSAII (Michael W. Deem and Ramdas Pophale) SiO2 
 PCOD9267459
Probable space group: C 2/C
;
_chemical_formula_sum "Si O2"
_cell_formula_units_Z 56
_cell_length_a 14.734283
_cell_length_b 27.774417
_cell_length_c 9.284639
_cell_angle_alpha 90.000000
_cell_angle_beta 134.145668
_cell_angle_gamma 90.000000
_cell_volume 2726.491163
_symmetry_space_group_name_H-M "C 2/C"
_symmetry_group_IT_number 15
_symmetry_cell_setting 'monoclinic'
loop_
_space_group_symop_operation_xyz
x,y,z
-x,y,1/2-z
-x,-y,-z
x,-y,1/2+z
1/2+x,1/2+y,z
1/2-x,1/2+y,1/2-z
1/2-x,1/2-y,-z
1/2+x,1/2-y,1/2+z
loop_
_atom_site_type_symbol
_atom_site_label
_atom_site_fract_x
_atom_site_fract_y
_atom_site_fract_z
Si Si1 0.303522 0.028062 0.820459
Si Si2 0.882266 0.745759 0.229659
Si Si3 0.721234 0.151061 0.276319
Si Si4 0.134773 0.991595 0.858318
Si Si5 0.954124 0.110315 0.357337
Si Si6 0.115374 0.144864 0.768474
Si Si7 0.463089 0.929774 0.040918
O O1 0.211792 0.024146 0.582973
O O2 0.407580 0.068041 0.906443
O O3 0.220826 0.029252 0.871159
O O4 0.383347 0.978500 0.926445
O O5 0.850518 0.702468 0.303102
O O6 0.898894 0.800069 0.305304
O O7 0.000000 0.735997 0.250000
O O8 0.750000 0.750000 0.000000
O O9 0.845983 0.143014 0.313708
O O10 0.764975 0.141673 0.491434
O O11 0.623038 0.112740 0.109098
O O12 0.102336 0.943854 0.727324
O O13 0.000000 0.013079 0.750000
O O14 0.000000 0.125930 0.250000
O O15 0.079510 0.111598 0.594771
O O16 0.000000 0.137177 0.750000
O O17 0.500000 0.927248 0.250000
#
# Coordination Sequence:
#
# PCOD9267459 Si02
#       7
#     8   8   8   8   8   8   8
#     4  11  22  43  61  85 120 159 205 248 320 355
#     4   9  18  37  64  95 129 159 207 261 304 358
#     4  10  19  39  63  95 120 165 214 247 302 374
#     4  11  23  43  63  89 116 159 209 261 303 371
#     4  10  20  39  61  90 130 165 196 258 316 357
#     4   8  17  36  65  92 124 162 200 255 303 356
#     4  11  22  41  63  85 128 165 198 255 310 365
#
# _framework density 20.539218000000002
#
# number of rings (size 3 to 8) (size 9 to 14) (size 15 to 20)
#    0.000    2.000    2.857    1.286    0.000    0.000 
#   10.286    7.143    0.000    0.000    0.000    0.000 
#    0.000    0.000    0.000    0.000    0.000    0.000 
#
# Total GULP energy -156198.694552 kJ/mol
# GULP energy per Si atom -5578.524805 kJ/mol
# Density = 2.049247 g / cm^3
# Si number density = 20.539218 Si / 1000 Ang^3
#
#
#
# Elastic Constant Matrix: (Units=GPa)
#
#
# Indices 1 2 3 4 5 6 
#
# 1 133.7889 31.8412 20.1343 0.0000 13.8436 0.0000
# 2 31.8412 78.7512 44.4378 0.0000 -7.2923 0.0000
# 3 20.1343 44.4378 111.5263 0.0000 5.5080 0.0000
# 4 0.0000 0.0000 0.0000 31.0469 0.0000 3.9111
# 5 13.8436 -7.2923 5.5080 0.0000 30.3719 0.0000
# 6 0.0000 0.0000 0.0000 3.9111 0.0000 24.3987
#
#
#
# Elastic Compliance Matrix: (Units=1/GPa)
#
#
# Indices 1 2 3 4 5 6 
#
# 1 0.008985 -0.004313 0.000353 0.000000 -0.005195 0.000000
# 2 -0.004313 0.019296 -0.007301 0.000000 0.007923 0.000000
# 3 0.000353 -0.007301 0.012014 0.000000 -0.004093 0.000000
# 4 0.000000 0.000000 0.000000 0.032873 0.000000 -0.005270
# 5 -0.005195 0.007923 -0.004093 0.000000 0.037938 0.000000
# 6 0.000000 0.000000 0.000000 -0.005270 0.000000 0.041831
#
#
# Mechanical properties :
#
#
# Convention : Reuss Voigt Hill
#
# Bulk Modulus (GPa) = 56.26652 57.43256 56.84954
# Shear Modulus (GPa) = 27.56594 32.34037 29.95315
#
# Velocity S-wave (km/s) = 3.66746 3.97239 3.82296
# Velocity P-wave (km/s) = 6.73705 7.00449 6.87207
#
# Compressibility (1/GPa) = 0.01777256
#
# Stress axis : x y z
#
# Youngs Moduli (GPa) = 111.29085 51.82508 83.23653
#
# Poissons Ratio (x) = 0.22354 -0.02939
# Poissons Ratio (y) = 0.48004 0.60771
# Poissons Ratio (z) = -0.03929 0.37837
#
# Static dielectric constant tensor:
#      x y z
#    x 1.775170 0.000000 0.011330 
#    y 0.000000 1.800580 0.000000 
#    z 0.011330 0.000000 1.725420 
# 
# From -- ./inp_files/44614.got.cif
#   From: 2010.05.17/outbox.cif.g08.bks.cpg/sg15_23_cif.got.tgz:44614.got - 2010.06.03 18:47:42.
