data_PCOD9267170
_publ_section_title
;
Structure prediction by ZEFSAII (Michael W. Deem and Ramdas Pophale) SiO2 
 PCOD9267170
Probable space group: C 2/C
;
_chemical_formula_sum "Si O2"
_cell_formula_units_Z 64
_cell_length_a 31.859257
_cell_length_b 11.092618
_cell_length_c 13.845541
_cell_angle_alpha 90.000000
_cell_angle_beta 38.729006
_cell_angle_gamma 90.000000
_cell_volume 3061.276235
_symmetry_space_group_name_H-M "C 2/C"
_symmetry_group_IT_number 15
_symmetry_cell_setting 'monoclinic'
loop_
_space_group_symop_operation_xyz
x,y,z
-x,y,1/2-z
-x,-y,-z
x,-y,1/2+z
1/2+x,1/2+y,z
1/2-x,1/2+y,1/2-z
1/2-x,1/2-y,-z
1/2+x,1/2-y,1/2+z
loop_
_atom_site_type_symbol
_atom_site_label
_atom_site_fract_x
_atom_site_fract_y
_atom_site_fract_z
Si Si1 0.218031 0.689467 0.155714
Si Si2 0.592961 0.975441 0.852746
Si Si3 0.840029 0.126945 0.071430
Si Si4 0.537643 0.667443 0.293520
Si Si5 0.613158 0.612162 0.897142
Si Si6 0.440100 0.607572 0.729437
Si Si7 0.924951 0.752723 0.561556
Si Si8 0.524667 0.072186 0.803002
O O1 0.165683 0.581947 0.227213
O O2 0.270057 0.638559 0.141511
O O3 0.172178 0.791603 0.286782
O O4 0.250000 0.750000 0.000000
O O5 0.572818 0.987121 0.777240
O O6 0.578558 0.109393 0.919195
O O7 0.537549 0.900473 0.012370
O O8 0.859050 0.001193 0.091392
O O9 0.890050 0.165215 0.895096
O O10 0.857003 0.216675 0.127773
O O11 0.456893 0.655690 0.431727
O O12 0.556268 0.529805 0.238920
O O13 0.568124 0.688205 0.345674
O O14 0.556442 0.798793 0.217185
O O15 0.589691 0.596762 0.826114
O O16 0.509800 0.682316 0.604027
O O17 0.500000 0.012141 0.750000
#
# Coordination Sequence:
#
# PCOD9267170 Si02
#       8
#     8   8   8   8   8   8   8   8
#     4  12  27  47  67  89 139 191 227 268 327 408
#     4  10  24  44  62  94 140 175 218 279 337 392
#     4  12  25  39  70  99 129 182 221 269 326 406
#     4  10  19  38  66  95 135 159 204 297 342 378
#     4  11  22  44  64  95 131 166 225 274 331 387
#     4  11  21  39  68 103 132 164 220 287 345 388
#     4  10  21  38  64  99 130 164 216 283 337 392
#     4  10  22  38  67  98 129 171 218 280 347 403
#
# _framework density 20.906313999999998
#
# number of rings (size 3 to 8) (size 9 to 14) (size 15 to 20)
#    0.000    1.250    5.000    1.125    5.250    2.000 
#    0.000    0.000    0.000    3.000    0.000    0.000 
#    0.000    0.000    0.000    0.000    0.000    0.000 
#
# Total GULP energy -178204.335650 kJ/mol
# GULP energy per Si atom -5568.885489 kJ/mol
# Density = 2.085873 g / cm^3
# Si number density = 20.906314 Si / 1000 Ang^3
#
#
#
# Elastic Constant Matrix: (Units=GPa)
#
#
# Indices 1 2 3 4 5 6 
#
# 1 203.5339 47.1613 36.3667 0.0000 -19.1504 0.0000
# 2 47.1613 94.9487 5.9574 0.0000 -6.2160 0.0000
# 3 36.3667 5.9574 30.0844 0.0000 -11.7413 0.0000
# 4 0.0000 0.0000 0.0000 21.6002 0.0000 -4.2169
# 5 -19.1504 -6.2160 -11.7413 0.0000 29.2454 0.0000
# 6 0.0000 0.0000 0.0000 -4.2169 0.0000 30.7149
#
#
#
# Elastic Compliance Matrix: (Units=1/GPa)
#
#
# Indices 1 2 3 4 5 6 
#
# 1 0.007037 -0.002960 -0.007551 0.000000 0.000948 0.000000
# 2 -0.002960 0.011980 0.001711 0.000000 0.001295 0.000000
# 3 -0.007551 0.001711 0.047718 0.000000 0.014577 0.000000
# 4 0.000000 0.000000 0.000000 0.047571 0.000000 0.006531
# 5 0.000948 0.001295 0.014577 0.000000 0.040941 0.000000
# 6 0.000000 0.000000 0.000000 0.006531 0.000000 0.033454
#
#
# Mechanical properties :
#
#
# Convention : Reuss Voigt Hill
#
# Bulk Modulus (GPa) = 20.35202 56.39307 38.37254
# Shear Modulus (GPa) = 22.45388 32.25088 27.35238
#
# Velocity S-wave (km/s) = 3.28079 3.93190 3.62101
# Velocity P-wave (km/s) = 4.90993 6.90260 5.98971
#
# Compressibility (1/GPa) = 0.04913518
#
# Stress axis : x y z
#
# Youngs Moduli (GPa) = 142.09987 83.47591 20.95657
#
# Poissons Ratio (x) = 0.24706 0.15824
# Poissons Ratio (y) = 0.42056 -0.03585
# Poissons Ratio (z) = 1.07299 -0.14282
#
# Static dielectric constant tensor:
#      x y z
#    x 1.814280 0.000000 0.045740 
#    y 0.000000 1.823080 0.000000 
#    z 0.045740 0.000000 1.796980 
# 
# From -- ./inp_files/181762.got.cif
#   From: 2010.05.17/outbox.cif.g08.bks.cpg/sg15_91_cif.got.tgz:181762.got - 2010.06.03 18:47:42.
