data_PCOD9267168
_publ_section_title
;
Structure prediction by ZEFSAII (Michael W. Deem and Ramdas Pophale) SiO2 
 PCOD9267168
Probable space group: C 2/C
;
_chemical_formula_sum "Si O2"
_cell_formula_units_Z 64
_cell_length_a 12.780349
_cell_length_b 12.964557
_cell_length_c 26.413439
_cell_angle_alpha 90.000000
_cell_angle_beta 140.187375
_cell_angle_gamma 90.000000
_cell_volume 2802.170680
_symmetry_space_group_name_H-M "C 2/C"
_symmetry_group_IT_number 15
_symmetry_cell_setting 'monoclinic'
loop_
_space_group_symop_operation_xyz
x,y,z
-x,y,1/2-z
-x,-y,-z
x,-y,1/2+z
1/2+x,1/2+y,z
1/2-x,1/2+y,1/2-z
1/2-x,1/2-y,-z
1/2+x,1/2-y,1/2+z
loop_
_atom_site_type_symbol
_atom_site_label
_atom_site_fract_x
_atom_site_fract_y
_atom_site_fract_z
Si Si1 0.317817 0.399036 0.679857
Si Si2 0.686346 0.689453 0.614432
Si Si3 0.603410 0.828826 0.403153
Si Si4 0.489139 0.953024 0.872728
Si Si5 0.643843 0.191143 0.342617
Si Si6 0.663379 0.611485 0.426101
Si Si7 0.581632 0.475423 0.585483
Si Si8 0.345429 0.810892 0.491781
O O1 0.500000 0.438149 0.750000
O O2 0.307408 0.274649 0.681614
O O3 0.275835 0.423812 0.605868
O O4 0.192965 0.438404 0.674794
O O5 0.750236 0.664072 0.582518
O O6 0.671372 0.580493 0.635733
O O7 0.513904 0.748033 0.547188
O O8 0.544680 0.712257 0.374727
O O9 0.678806 0.844601 0.486550
O O10 0.499711 0.930634 0.357177
O O11 0.554008 0.876480 0.853240
O O12 0.602613 0.920206 0.963890
O O13 0.500000 0.217279 0.250000
O O14 0.787504 0.116905 0.373261
O O15 0.733962 0.290677 0.401076
O O16 0.560175 0.542449 0.426022
O O17 0.500000 0.500000 0.500000
O O18 0.250000 0.750000 0.500000
#
# Coordination Sequence:
#
# PCOD9267168 Si02
#       8
#     8   8   8   8   8   8   8   8
#     4  10  24  43  61  89 136 176 217 261 332 407
#     4  10  19  38  66  94 126 172 220 276 315 394
#     4  10  19  39  64  97 121 159 228 274 322 387
#     4  10  21  41  68  91 129 179 225 266 329 414
#     4  11  22  35  62 103 136 163 215 289 337 377
#     4  10  22  36  63  93 128 170 207 273 328 378
#     4  12  20  37  68  97 129 160 220 277 324 388
#     4   9  19  35  59  95 132 172 211 263 336 396
#
# _framework density 22.839437
#
# number of rings (size 3 to 8) (size 9 to 14) (size 15 to 20)
#    0.000    1.750    3.750    0.000    3.500    1.000 
#    0.000    0.000    0.000    3.000    0.000    0.000 
#    0.000    0.000    0.000    0.000    0.000    0.000 
#
# Total GULP energy -178523.901782 kJ/mol
# GULP energy per Si atom -5578.871931 kJ/mol
# Density = 2.278745 g / cm^3
# Si number density = 22.839437 Si / 1000 Ang^3
#
#
#
# Elastic Constant Matrix: (Units=GPa)
#
#
# Indices 1 2 3 4 5 6 
#
# 1 105.8451 14.2946 -8.7804 0.0000 25.6638 0.0000
# 2 14.2946 51.7693 -14.1427 0.0000 0.2824 0.0000
# 3 -8.7804 -14.1427 68.4246 0.0000 7.4555 0.0000
# 4 0.0000 0.0000 0.0000 11.3866 0.0000 4.4299
# 5 25.6638 0.2824 7.4555 0.0000 28.1231 0.0000
# 6 0.0000 0.0000 0.0000 4.4299 0.0000 30.7310
#
#
#
# Elastic Compliance Matrix: (Units=1/GPa)
#
#
# Indices 1 2 3 4 5 6 
#
# 1 0.013086 -0.002874 0.002454 0.000000 -0.012563 0.000000
# 2 -0.002874 0.021155 0.003852 0.000000 0.001389 0.000000
# 3 0.002454 0.003852 0.016449 0.000000 -0.006639 0.000000
# 4 0.000000 0.000000 0.000000 0.093040 0.000000 -0.013412
# 5 -0.012563 0.001389 -0.006639 0.000000 0.048768 0.000000
# 6 0.000000 0.000000 0.000000 -0.013412 0.000000 0.034474
#
#
# Mechanical properties :
#
#
# Convention : Reuss Voigt Hill
#
# Bulk Modulus (GPa) = 17.37514 23.19802 20.28658
# Shear Modulus (GPa) = 20.89492 29.69264 25.29378
#
# Velocity S-wave (km/s) = 3.02795 3.60955 3.33146
# Velocity P-wave (km/s) = 4.45518 5.24889 4.86824
#
# Compressibility (1/GPa) = 0.05755350
#
# Stress axis : x y z
#
# Youngs Moduli (GPa) = 76.41970 47.27030 60.79360
#
# Poissons Ratio (x) = 0.13587 -0.14918
# Poissons Ratio (y) = 0.21965 -0.23419
# Poissons Ratio (z) = -0.18753 -0.18210
#
# Static dielectric constant tensor:
#      x y z
#    x 1.822570 0.000000 -0.026370 
#    y 0.000000 2.061230 0.000000 
#    z -0.026370 0.000000 1.914840 
# 
# From -- ./inp_files/293079.got.cif
#   From: 2010.05.17/outbox.cif.g08.bks.cpg/sg15_147_cif.got.tgz:293079.got - 2010.06.03 18:47:42.
