data_PCOD9267738
_publ_section_title
;
Structure prediction by ZEFSAII (Michael W. Deem and Ramdas Pophale) SiO2 
 PCOD9267738
Probable space group: C 2/C
;
_chemical_formula_sum "Si O2"
_cell_formula_units_Z 56
_cell_length_a 17.248051
_cell_length_b 16.346855
_cell_length_c 18.581872
_cell_angle_alpha 90.000000
_cell_angle_beta 29.041074
_cell_angle_gamma 90.000000
_cell_volume 2543.291390
_symmetry_space_group_name_H-M "C 2/C"
_symmetry_group_IT_number 15
_symmetry_cell_setting 'monoclinic'
loop_
_space_group_symop_operation_xyz
x,y,z
-x,y,1/2-z
-x,-y,-z
x,-y,1/2+z
1/2+x,1/2+y,z
1/2-x,1/2+y,1/2-z
1/2-x,1/2-y,-z
1/2+x,1/2-y,1/2+z
loop_
_atom_site_type_symbol
_atom_site_label
_atom_site_fract_x
_atom_site_fract_y
_atom_site_fract_z
Si Si1 0.135357 0.046260 0.535897
Si Si2 0.309843 0.093733 0.068690
Si Si3 0.686613 0.442761 0.269237
Si Si4 0.766760 0.732784 0.634564
Si Si5 0.093329 0.501765 0.782948
Si Si6 0.000000 0.814654 0.250000
Si Si7 0.500000 0.591878 0.250000
Si Si8 0.418009 0.838203 0.624442
O O1 0.312651 0.032227 0.362370
O O2 0.004939 0.052875 0.577754
O O3 0.097362 0.124127 0.617418
O O4 0.084888 0.967911 0.623711
O O5 0.397440 0.149299 0.056610
O O6 0.151207 0.134576 0.164515
O O7 0.248212 0.014952 0.165460
O O8 0.439955 0.060855 0.905983
O O9 0.736237 0.355432 0.196266
O O10 0.773334 0.455253 0.274543
O O11 0.635733 0.738137 0.678656
O O12 0.743282 0.805275 0.709616
O O13 0.948563 0.727651 0.463281
O O14 0.039142 0.422829 0.872555
#
# Coordination Sequence:
#
# PCOD9267738 Si02
#       8
#     8   8   8   8   8   4   4   8
#     4   9  19  32  57  89 117 158 187 245 301 358
#     4  10  19  40  63  86 118 154 200 263 305 348
#     4   9  17  36  59  84 123 150 198 250 298 348
#     4  11  22  41  57  84 124 168 197 242 298 351
#     4  11  19  35  61  91 115 156 208 250 294 347
#     4   9  22  40  56  78 136 163 198 236 286 363
#     4   9  20  38  56  88 124 143 188 258 320 351
#     4  11  24  38  60  86 120 164 208 246 292 360
#
# _framework density 22.018712000000001
#
# number of rings (size 3 to 8) (size 9 to 14) (size 15 to 20)
#    0.000    2.000    2.857    2.143    4.000    1.143 
#    0.000    0.000    0.000    0.857    0.000    0.000 
#    0.000    0.000    0.000    0.000    0.000    0.000 
#
# Total GULP energy -156353.304405 kJ/mol
# GULP energy per Si atom -5584.046586 kJ/mol
# Density = 2.196860 g / cm^3
# Si number density = 22.018712 Si / 1000 Ang^3
#
#
#
# Elastic Constant Matrix: (Units=GPa)
#
#
# Indices 1 2 3 4 5 6 
#
# 1 66.9422 7.1547 45.7116 -0.0045 -8.8162 0.0012
# 2 7.1547 19.1883 2.0998 0.0177 -3.4179 -0.0034
# 3 45.7116 2.0998 138.0299 0.0186 -5.6687 -0.0031
# 4 -0.0045 0.0177 0.0186 13.9645 0.0018 7.1296
# 5 -8.8162 -3.4179 -5.6687 0.0018 23.4915 -0.0015
# 6 0.0012 -0.0034 -0.0031 7.1296 -0.0015 14.2916
#
#
#
# Elastic Compliance Matrix: (Units=1/GPa)
#
#
# Indices 1 2 3 4 5 6 
#
# 1 0.020775 -0.006079 -0.006569 0.000033 0.005327 -0.000021
# 2 -0.006079 0.055314 0.001423 -0.000110 0.006110 0.000070
# 3 -0.006569 0.001423 0.009399 -0.000024 0.000010 0.000015
# 4 0.000033 -0.000110 -0.000024 0.096082 -0.000020 -0.047932
# 5 0.005327 0.006110 0.000010 -0.000020 0.045459 0.000016
# 6 -0.000021 0.000070 0.000015 -0.047932 0.000016 0.093883
#
#
# Mechanical properties :
#
#
# Convention : Reuss Voigt Hill
#
# Bulk Modulus (GPa) = 15.86333 37.12138 26.49236
# Shear Modulus (GPa) = 13.72210 21.62913 17.67562
#
# Velocity S-wave (km/s) = 2.49911 3.13758 2.83637
# Velocity P-wave (km/s) = 3.94303 5.47919 4.77331
#
# Compressibility (1/GPa) = 0.06303846
#
# Stress axis : x y z
#
# Youngs Moduli (GPa) = 48.13459 18.07852 106.39435
#
# Poissons Ratio (x) = 0.10989 0.69889
# Poissons Ratio (y) = 0.29259 -0.15135
# Poissons Ratio (z) = 0.31619 -0.02572
#
# Static dielectric constant tensor:
#      x y z
#    x 1.848960 0.000000 -0.021070 
#    y 0.000000 1.754690 0.000000 
#    z -0.021070 0.000000 1.849920 
# 
# From -- ./inp_files/277737.got.cif
#   From: 2010.05.17/outbox.cif.g08.bks.cpg/sg15_139_cif.got.tgz:277737.got - 2010.06.03 18:47:42.
