data_PCOD9267207
_publ_section_title
;
Structure prediction by ZEFSAII (Michael W. Deem and Ramdas Pophale) SiO2 
 PCOD9267207
Probable space group: C 2/C
;
_chemical_formula_sum "Si O2"
_cell_formula_units_Z 44
_cell_length_a 13.451366
_cell_length_b 23.524866
_cell_length_c 14.198755
_cell_angle_alpha 90.000000
_cell_angle_beta 157.719849
_cell_angle_gamma 90.000000
_cell_volume 1703.485328
_symmetry_space_group_name_H-M "C 2/C"
_symmetry_group_IT_number 15
_symmetry_cell_setting 'monoclinic'
loop_
_space_group_symop_operation_xyz
x,y,z
-x,y,1/2-z
-x,-y,-z
x,-y,1/2+z
1/2+x,1/2+y,z
1/2-x,1/2+y,1/2-z
1/2-x,1/2-y,-z
1/2+x,1/2-y,1/2+z
loop_
_atom_site_type_symbol
_atom_site_label
_atom_site_fract_x
_atom_site_fract_y
_atom_site_fract_z
Si Si1 0.541988 0.064869 0.961733
Si Si2 0.912031 0.214523 0.021588
Si Si3 0.619432 0.369172 0.180419
Si Si4 0.500000 0.854010 0.250000
Si Si5 0.323566 0.957896 0.668233
Si Si6 0.000000 0.788141 0.250000
Si Si7 0.500000 0.536847 0.250000
O O1 0.403124 0.099254 0.923827
O O2 0.464465 0.105240 0.806363
O O3 0.423443 0.001897 0.836754
O O4 0.851761 0.064649 0.209418
O O5 0.692460 0.259258 0.791771
O O6 0.938572 0.169969 0.960238
O O7 0.757498 0.184707 0.972506
O O8 0.590455 0.329023 0.244564
O O9 0.410379 0.419946 0.999170
O O10 0.500000 0.920404 0.750000
O O11 0.212624 0.998950 0.488481
O O12 0.250000 0.750000 0.500000
#
# Coordination Sequence:
#
# PCOD9267207 Si02
#       7
#     8   8   8   4   8   4   4
#     4  10  21  42  65 110 149 182 236 289 363 460
#     4  11  25  47  68 104 139 180 244 303 358 431
#     4  11  25  45  74 103 137 197 245 298 380 423
#     4  10  20  40  70 100 141 189 220 288 378 430
#     4  10  21  42  66 104 150 187 239 290 361 448
#     4  12  29  56  77 104 147 196 264 331 362 422
#     4  10  19  38  67  98 154 185 220 291 350 436
#
# _framework density 25.829398000000001
#
# number of rings (size 3 to 8) (size 9 to 14) (size 15 to 20)
#    0.000    1.455    2.727    2.727    1.273    3.636 
#    9.818    0.000    0.000    0.000    0.000    0.000 
#    0.000    0.000    0.000    0.000    0.000    0.000 
#
# Total GULP energy -123002.293025 kJ/mol
# GULP energy per Si atom -5591.013319 kJ/mol
# Density = 2.577061 g / cm^3
# Si number density = 25.829398 Si / 1000 Ang^3
#
#
#
# Elastic Constant Matrix: (Units=GPa)
#
#
# Indices 1 2 3 4 5 6 
#
# 1 129.4680 71.3314 43.3532 -0.0008 24.0267 0.0046
# 2 71.3314 125.2195 28.5724 -0.0057 13.2842 0.0044
# 3 43.3532 28.5724 68.2115 -0.0152 14.9035 0.0195
# 4 -0.0008 -0.0057 -0.0152 16.5950 -0.0024 57.1607
# 5 24.0267 13.2842 14.9035 -0.0024 49.7137 0.0045
# 6 0.0046 0.0044 0.0195 57.1607 0.0045 -47.6860
#
#
#
# Elastic Compliance Matrix: (Units=1/GPa)
#
#
# Indices 1 2 3 4 5 6 
#
# 1 0.013477 -0.006123 -0.005281 0.000000 -0.003294 -0.000002
# 2 -0.006123 0.011696 -0.001039 0.000000 0.000145 0.000001
# 3 -0.005281 -0.001039 0.019084 -0.000001 -0.002891 0.000005
# 4 0.000000 0.000000 -0.000001 0.011749 0.000000 0.014084
# 5 -0.003294 0.000145 -0.002891 0.000000 0.022535 0.000000
# 6 -0.000002 0.000001 0.000005 0.014084 0.000000 -0.004089
#
#
# Mechanical properties :
#
#
# Convention : Reuss Voigt Hill
#
# Bulk Modulus (GPa) = 51.62657 67.71255 59.66956
# Shear Modulus (GPa) = 47.26120 15.70067 31.48094
#
# Velocity S-wave (km/s) = 4.28219 2.46816 3.49492
# Velocity P-wave (km/s) = 6.66937 5.86469 6.27993
#
# Compressibility (1/GPa) = 0.01936987
#
# Stress axis : x y z
#
# Youngs Moduli (GPa) = 74.20023 85.50290 52.40022
#
# Poissons Ratio (x) = 0.52351 0.27674
# Poissons Ratio (y) = 0.45431 0.05446
# Poissons Ratio (z) = 0.39187 0.08887
#
# Static dielectric constant tensor:
#      x y z
#    x 1.997810 0.000000 0.241820 
#    y 0.000000 2.052180 0.000000 
#    z 0.241820 0.000000 2.201010 
# 
# From -- ./inp_files/207405.got.cif
#   From: 2010.05.17/outbox.cif.g08.bks.cpg/sg15_104_cif.got.tgz:207405.got - 2010.06.03 18:47:42.
