data_PCOD9267683
_publ_section_title
;
Structure prediction by ZEFSAII (Michael W. Deem and Ramdas Pophale) SiO2 
 PCOD9267683
Probable space group: C 2/C
;
_chemical_formula_sum "Si O2"
_cell_formula_units_Z 32
_cell_length_a 7.499853
_cell_length_b 16.948811
_cell_length_c 10.514459
_cell_angle_alpha 90.000000
_cell_angle_beta 96.463129
_cell_angle_gamma 90.000000
_cell_volume 1328.036319
_symmetry_space_group_name_H-M "C 2/C"
_symmetry_group_IT_number 15
_symmetry_cell_setting 'monoclinic'
loop_
_space_group_symop_operation_xyz
x,y,z
-x,y,1/2-z
-x,-y,-z
x,-y,1/2+z
1/2+x,1/2+y,z
1/2-x,1/2+y,1/2-z
1/2-x,1/2-y,-z
1/2+x,1/2-y,1/2+z
loop_
_atom_site_type_symbol
_atom_site_label
_atom_site_fract_x
_atom_site_fract_y
_atom_site_fract_z
Si Si1 0.287211 0.520695 0.986014
Si Si2 0.314573 0.242649 0.147735
Si Si3 0.213913 0.686839 0.108731
Si Si4 0.789588 0.075076 0.716985
O O1 0.258161 0.603421 0.053441
O O2 0.210632 0.455813 0.077424
O O3 0.500000 0.500000 0.000000
O O4 0.210951 0.534861 0.837949
O O5 0.510483 0.206789 0.132901
O O6 0.204102 0.191875 0.241532
O O7 0.250000 0.250000 0.000000
O O8 0.204763 0.169914 0.790821
O O9 0.250000 0.750000 0.000000
O O10 0.000000 0.053779 0.750000
#
# Coordination Sequence:
#
# PCOD9267683 Si02
#       4
#     8   8   8   8
#     4  10  21  37  65  95 132 174 226 289 347 401
#     4  11  24  41  69 100 140 182 235 285 349 416
#     4  11  21  44  66  94 140 181 228 293 337 408
#     4  10  19  40  60  97 131 171 227 280 340 414
#
# _framework density 24.095727
#
# number of rings (size 3 to 8) (size 9 to 14) (size 15 to 20)
#    0.000    1.500    5.000    1.500    3.500    1.000 
#    4.500    1.250    0.000    0.000    0.000    0.000 
#    0.000    0.000    0.000    0.000    0.000    0.000 
#
# Total GULP energy -89128.572106 kJ/mol
# GULP energy per Si atom -5570.535757 kJ/mol
# Density = 2.404088 g / cm^3
# Si number density = 24.095727 Si / 1000 Ang^3
#
#
#
# Elastic Constant Matrix: (Units=GPa)
#
#
# Indices 1 2 3 4 5 6 
#
# 1 79.1718 19.3042 26.1375 0.0000 -23.5661 0.0000
# 2 19.3042 106.2590 7.0248 0.0000 -17.9273 0.0000
# 3 26.1375 7.0248 177.2043 0.0000 -32.9480 0.0000
# 4 0.0000 0.0000 0.0000 55.6002 0.0000 -13.4614
# 5 -23.5661 -17.9273 -32.9480 0.0000 26.3273 0.0000
# 6 0.0000 0.0000 0.0000 -13.4614 0.0000 10.0337
#
#
#
# Elastic Compliance Matrix: (Units=1/GPa)
#
#
# Indices 1 2 3 4 5 6 
#
# 1 0.017270 -0.000538 0.000365 0.000000 0.015549 0.000000
# 2 -0.000538 0.010850 0.001216 0.000000 0.008429 0.000000
# 3 0.000365 0.001216 0.007501 0.000000 0.010543 0.000000
# 4 0.000000 0.000000 0.000000 0.026638 0.000000 0.035739
# 5 0.015549 0.008429 0.010543 0.000000 0.070835 0.000000
# 6 0.000000 0.000000 0.000000 0.035739 0.000000 0.147613
#
#
# Mechanical properties :
#
#
# Convention : Reuss Voigt Hill
#
# Bulk Modulus (GPa) = 26.51942 51.95203 39.23572
# Shear Modulus (GPa) = 17.17089 39.07013 28.12051
#
# Velocity S-wave (km/s) = 2.67237 4.03110 3.41989
# Velocity P-wave (km/s) = 4.53342 6.57828 5.64915
#
# Compressibility (1/GPa) = 0.03770822
#
# Stress axis : x y z
#
# Youngs Moduli (GPa) = 57.90485 92.16235 133.30817
#
# Poissons Ratio (x) = 0.04961 -0.04867
# Poissons Ratio (y) = 0.03117 -0.16217
# Poissons Ratio (z) = -0.02114 -0.11211
#
# Static dielectric constant tensor:
#      x y z
#    x 1.891930 0.000000 0.057900 
#    y 0.000000 1.976020 0.000000 
#    z 0.057900 0.000000 2.220400 
# 
# From -- ./inp_files/22335.got.cif
#   From: 2010.05.17/outbox.cif.g08.bks.cpg/sg15_12_cif.got.tgz:22335.got - 2010.06.03 18:47:42.
