data_PCOD9267766
_publ_section_title
;
Structure prediction by ZEFSAII (Michael W. Deem and Ramdas Pophale) SiO2 
 PCOD9267766
Probable space group: C 2/C
;
_chemical_formula_sum "Si O2"
_cell_formula_units_Z 40
_cell_length_a 4.799965
_cell_length_b 22.734765
_cell_length_c 14.381257
_cell_angle_alpha 90.000000
_cell_angle_beta 72.631826
_cell_angle_gamma 90.000000
_cell_volume 1497.816739
_symmetry_space_group_name_H-M "C 2/C"
_symmetry_group_IT_number 15
_symmetry_cell_setting 'monoclinic'
loop_
_space_group_symop_operation_xyz
x,y,z
-x,y,1/2-z
-x,-y,-z
x,-y,1/2+z
1/2+x,1/2+y,z
1/2-x,1/2+y,1/2-z
1/2-x,1/2-y,-z
1/2+x,1/2-y,1/2+z
loop_
_atom_site_type_symbol
_atom_site_label
_atom_site_fract_x
_atom_site_fract_y
_atom_site_fract_z
Si Si1 0.243928 0.814318 0.844672
Si Si2 0.500000 0.598516 0.250000
Si Si3 0.548983 0.883730 0.508573
Si Si4 0.826899 0.110911 0.623456
Si Si5 0.762189 0.983583 0.606512
Si Si6 0.500000 0.298866 0.250000
O O1 0.500000 0.840082 0.750000
O O2 0.962403 0.848825 0.834451
O O3 0.278313 0.745343 0.825009
O O4 0.333440 0.831983 0.938172
O O5 0.637313 0.552757 0.312430
O O6 0.292509 0.869099 0.464468
O O7 0.525207 0.941117 0.579038
O O8 0.826064 0.899438 0.416729
O O9 0.813059 0.160424 0.701541
O O10 0.676748 0.047844 0.649113
O O11 0.000000 0.000000 0.500000
#
# Coordination Sequence:
#
# PCOD9267766 Si02
#       6
#     8   4   8   8   8   4
#     4   9  23  40  60  91 121 170 215 260 302 372
#     4  10  19  40  64  88 125 166 216 264 314 372
#     4  10  23  40  67  90 129 166 212 259 311 380
#     4  11  23  43  63  98 129 165 206 261 326 376
#     4   9  20  37  65  94 125 163 206 261 318 380
#     4  10  25  42  62  94 129 166 212 262 314 380
#
# _framework density 26.705535999999999
#
# number of rings (size 3 to 8) (size 9 to 14) (size 15 to 20)
#    0.600    1.600    0.000    1.200    8.400    4.000 
#    3.600    0.000    0.000    0.000    0.000    0.000 
#    0.000    0.000    0.000    0.000    0.000    0.000 
#
# Total GULP energy -111466.367803 kJ/mol
# GULP energy per Si atom -5573.318390 kJ/mol
# Density = 2.664475 g / cm^3
# Si number density = 26.705536 Si / 1000 Ang^3
#
#
#
# Elastic Constant Matrix: (Units=GPa)
#
#
# Indices 1 2 3 4 5 6 
#
# 1 105.0912 31.0548 63.6812 0.0000 38.2249 0.0000
# 2 31.0548 237.5330 108.5655 0.0000 48.7479 0.0000
# 3 63.6812 108.5655 177.2993 0.0000 50.2185 0.0000
# 4 0.0000 0.0000 0.0000 43.9410 0.0000 -3.6031
# 5 38.2249 48.7479 50.2185 0.0000 56.4265 0.0000
# 6 0.0000 0.0000 0.0000 -3.6031 0.0000 -2.9005
#
#
#
# Elastic Compliance Matrix: (Units=1/GPa)
#
#
# Indices 1 2 3 4 5 6 
#
# 1 0.014107 0.001429 -0.003858 0.000000 -0.007358 0.000000
# 2 0.001429 0.006265 -0.003399 0.000000 -0.003355 0.000000
# 3 -0.003858 -0.003399 0.010075 0.000000 -0.003416 0.000000
# 4 0.000000 0.000000 0.000000 0.020654 0.000000 -0.025657
# 5 -0.007358 -0.003355 -0.003416 0.000000 0.028646 0.000000
# 6 0.000000 0.000000 0.000000 -0.025657 0.000000 -0.312893
#
#
# Mechanical properties :
#
#
# Convention : Reuss Voigt Hill
#
# Bulk Modulus (GPa) = 53.21711 102.94741 78.08226
# Shear Modulus (GPa) = -23.23144 40.60153 8.68504
#
# Velocity S-wave (km/s) = -2.95262 3.90339 1.80533
# Velocity P-wave (km/s) = 2.88906 7.67776 5.80063
#
# Compressibility (1/GPa) = 0.01879095
#
# Stress axis : x y z
#
# Youngs Moduli (GPa) = 70.88566 159.60592 99.25560
#
# Poissons Ratio (x) = -0.22806 0.38292
# Poissons Ratio (y) = -0.10129 0.33740
# Poissons Ratio (z) = 0.27347 0.54255
#
# Static dielectric constant tensor:
#      x y z
#    x 2.523710 0.000000 -0.177130 
#    y 0.000000 2.060830 0.000000 
#    z -0.177130 0.000000 2.180040 
# 
# From -- ./inp_files/129184.got.cif
#   From: 2010.05.17/outbox.cif.g08.bks.cpg/sg15_65_cif.got.tgz:129184.got - 2010.06.03 18:47:42.
