data_PCOD9267043
_publ_section_title
;
Structure prediction by ZEFSAII (Michael W. Deem and Ramdas Pophale) SiO2 
 PCOD9267043
Probable space group: C 2/C
;
_chemical_formula_sum "Si O2"
_cell_formula_units_Z 56
_cell_length_a 8.962730
_cell_length_b 22.973628
_cell_length_c 13.308171
_cell_angle_alpha 90.000000
_cell_angle_beta 72.430711
_cell_angle_gamma 90.000000
_cell_volume 2612.412948
_symmetry_space_group_name_H-M "C 2/C"
_symmetry_group_IT_number 15
_symmetry_cell_setting 'monoclinic'
loop_
_space_group_symop_operation_xyz
x,y,z
-x,y,1/2-z
-x,-y,-z
x,-y,1/2+z
1/2+x,1/2+y,z
1/2-x,1/2+y,1/2-z
1/2-x,1/2-y,-z
1/2+x,1/2-y,1/2+z
loop_
_atom_site_type_symbol
_atom_site_label
_atom_site_fract_x
_atom_site_fract_y
_atom_site_fract_z
Si Si1 0.568366 0.141523 0.442560
Si Si2 0.155403 0.525645 0.523115
Si Si3 0.750049 0.412792 0.065227
Si Si4 0.950621 0.833834 0.104723
Si Si5 0.517074 0.744406 0.089234
Si Si6 0.836363 0.587476 0.778871
Si Si7 0.230084 0.729258 0.283989
O O1 0.670455 0.089212 0.469518
O O2 0.392525 0.115881 0.473287
O O3 0.549284 0.195982 0.522702
O O4 0.647133 0.167936 0.326616
O O5 0.283623 0.476324 0.474504
O O6 0.138294 0.535680 0.646004
O O7 0.000000 0.500000 0.500000
O O8 0.607479 0.368258 0.098173
O O9 0.804133 0.424161 0.169033
O O10 0.808005 0.877136 0.150188
O O11 0.903217 0.777760 0.179523
O O12 0.959325 0.808921 0.991169
O O13 0.339607 0.739026 0.165711
O O14 0.645006 0.739269 0.150808
O O15 0.000000 0.622568 0.750000
#
# Coordination Sequence:
#
# PCOD9267043 Si02
#       7
#     8   8   8   8   8   8   8
#     4  10  19  38  64  90 132 172 222 277 330 407
#     4  10  21  40  67  96 126 170 234 280 325 404
#     4  11  25  42  64 100 137 172 226 284 338 400
#     4  11  24  41  63 100 139 169 225 286 333 411
#     4  10  21  37  63 100 132 177 225 279 338 405
#     4  12  22  40  72  94 122 184 227 272 338 407
#     4  10  21  36  65  99 130 179 228 270 347 408
#
# _framework density 21.436121
#
# number of rings (size 3 to 8) (size 9 to 14) (size 15 to 20)
#    0.000    1.429    2.857    4.714    2.000    2.857 
#    2.571    2.143    3.143    0.000    0.000    0.000 
#    0.000    0.000    0.000    0.000    0.000    0.000 
#
# Total GULP energy -156358.316264 kJ/mol
# GULP energy per Si atom -5584.225581 kJ/mol
# Density = 2.138733 g / cm^3
# Si number density = 21.436121 Si / 1000 Ang^3
#
#
#
# Elastic Constant Matrix: (Units=GPa)
#
#
# Indices 1 2 3 4 5 6 
#
# 1 72.1578 36.2752 18.4763 0.0000 -11.9782 0.0000
# 2 36.2752 111.6615 40.6678 0.0000 -14.1523 0.0000
# 3 18.4763 40.6678 70.7196 0.0000 -15.2730 0.0000
# 4 0.0000 0.0000 0.0000 18.4267 0.0000 -5.9357
# 5 -11.9782 -14.1523 -15.2730 0.0000 39.5247 0.0000
# 6 0.0000 0.0000 0.0000 -5.9357 0.0000 25.9483
#
#
#
# Elastic Compliance Matrix: (Units=1/GPa)
#
#
# Indices 1 2 3 4 5 6 
#
# 1 0.017028 -0.004762 -0.001052 0.000000 0.003049 0.000000
# 2 -0.004762 0.012763 -0.005914 0.000000 0.000842 0.000000
# 3 -0.001052 -0.005914 0.018864 0.000000 0.004853 0.000000
# 4 0.000000 0.000000 0.000000 0.058586 0.000000 0.013402
# 5 0.003049 0.000842 0.004853 0.000000 0.028401 0.000000
# 6 0.000000 0.000000 0.000000 0.013402 0.000000 0.041604
#
#
# Mechanical properties :
#
#
# Convention : Reuss Voigt Hill
#
# Bulk Modulus (GPa) = 39.68283 49.48640 44.58462
# Shear Modulus (GPa) = 23.91181 27.38792 25.64986
#
# Velocity S-wave (km/s) = 3.34352 3.57830 3.46290
# Velocity P-wave (km/s) = 5.78427 6.34098 6.06901
#
# Compressibility (1/GPa) = 0.02519981
#
# Stress axis : x y z
#
# Youngs Moduli (GPa) = 58.72657 78.35009 53.01138
#
# Poissons Ratio (x) = 0.37314 0.05575
# Poissons Ratio (y) = 0.27968 0.31349
# Poissons Ratio (z) = 0.06176 0.46333
#
# Static dielectric constant tensor:
#      x y z
#    x 1.811470 0.000000 -0.001820 
#    y 0.000000 1.819090 0.000000 
#    z -0.001820 0.000000 1.817380 
# 
# From -- ./inp_files/137287.got.cif
#   From: 2010.05.17/outbox.cif.g08.bks.cpg/sg15_69_cif.got.tgz:137287.got - 2010.06.03 18:47:42.
