data_PCOD9267086
_publ_section_title
;
Structure prediction by ZEFSAII (Michael W. Deem and Ramdas Pophale) SiO2 
 PCOD9267086
Probable space group: C 2/C
;
_chemical_formula_sum "Si O2"
_cell_formula_units_Z 52
_cell_length_a 14.254867
_cell_length_b 14.495598
_cell_length_c 18.885047
_cell_angle_alpha 90.000000
_cell_angle_beta 45.992235
_cell_angle_gamma 90.000000
_cell_volume 2806.691117
_symmetry_space_group_name_H-M "C 2/C"
_symmetry_group_IT_number 15
_symmetry_cell_setting 'monoclinic'
loop_
_space_group_symop_operation_xyz
x,y,z
-x,y,1/2-z
-x,-y,-z
x,-y,1/2+z
1/2+x,1/2+y,z
1/2-x,1/2+y,1/2-z
1/2-x,1/2-y,-z
1/2+x,1/2-y,1/2+z
loop_
_atom_site_type_symbol
_atom_site_label
_atom_site_fract_x
_atom_site_fract_y
_atom_site_fract_z
Si Si1 0.000000 0.255868 0.750000
Si Si2 0.265747 0.159091 0.653151
Si Si3 0.907246 0.526000 0.939945
Si Si4 0.866839 0.282200 0.389873
Si Si5 0.645874 0.167794 0.043630
Si Si6 0.322219 0.045349 0.143870
Si Si7 0.148311 0.777774 0.758394
O O1 0.872253 0.197033 0.800239
O O2 0.964907 0.311248 0.840210
O O3 0.370095 0.168787 0.533611
O O4 0.313102 0.215873 0.695394
O O5 0.249717 0.052417 0.680104
O O6 0.907243 0.613079 0.888322
O O7 0.816334 0.439810 0.963951
O O8 0.048172 0.477924 0.878615
O O9 0.864353 0.561910 0.040011
O O10 0.750000 0.250000 0.500000
O O11 0.825226 0.272342 0.330301
O O12 0.991112 0.216063 0.339445
O O13 0.750000 0.250000 0.000000
O O14 0.231157 0.128241 0.216865
#
# Coordination Sequence:
#
# PCOD9267086 Si02
#       7
#     4   8   8   8   8   8   8
#     4  10  20  36  64  90 120 164 200 272 320 394
#     4  10  21  39  59  91 126 157 212 264 324 391
#     4  10  19  38  65  87 124 169 213 265 328 390
#     4  11  23  40  61  94 131 172 221 275 321 385
#     4   9  20  37  58  92 120 156 205 257 317 381
#     4  10  20  37  64  89 118 173 211 261 328 389
#     4  11  23  39  63  93 129 171 221 272 324 395
#
# _framework density 18.527153999999999
#
# number of rings (size 3 to 8) (size 9 to 14) (size 15 to 20)
#    0.000    1.846    3.077    0.923    0.000    3.692 
#    8.308    0.000    0.000    1.846    0.000    0.000 
#    0.000    0.000    0.000    0.000    0.000    0.000 
#
# Total GULP energy -144835.610422 kJ/mol
# GULP energy per Si atom -5570.600401 kJ/mol
# Density = 1.848499 g / cm^3
# Si number density = 18.527154 Si / 1000 Ang^3
#
#
#
# Elastic Constant Matrix: (Units=GPa)
#
#
# Indices 1 2 3 4 5 6 
#
# 1 76.7408 47.5910 45.1305 0.0000 13.2293 0.0000
# 2 47.5910 133.8531 59.6551 0.0000 12.1256 0.0000
# 3 45.1305 59.6551 136.6485 0.0000 8.0276 0.0000
# 4 0.0000 0.0000 0.0000 30.4965 0.0000 0.2046
# 5 13.2293 12.1256 8.0276 0.0000 23.6483 0.0000
# 6 0.0000 0.0000 0.0000 0.2046 0.0000 30.9457
#
#
#
# Elastic Compliance Matrix: (Units=1/GPa)
#
#
# Indices 1 2 3 4 5 6 
#
# 1 0.019409 -0.004445 -0.004047 0.000000 -0.007205 0.000000
# 2 -0.004445 0.010578 -0.003038 0.000000 -0.001906 0.000000
# 3 -0.004047 -0.003038 0.009955 0.000000 0.000442 0.000000
# 4 0.000000 0.000000 0.000000 0.032792 0.000000 -0.000217
# 5 -0.007205 -0.001906 0.000442 0.000000 0.047144 0.000000
# 6 0.000000 0.000000 0.000000 -0.000217 0.000000 0.032316
#
#
# Mechanical properties :
#
#
# Convention : Reuss Voigt Hill
#
# Bulk Modulus (GPa) = 59.23007 72.44394 65.83700
# Shear Modulus (GPa) = 27.64266 30.00918 28.82592
#
# Velocity S-wave (km/s) = 3.86684 4.02897 3.94874
# Velocity P-wave (km/s) = 7.20939 7.79935 7.51017
#
# Compressibility (1/GPa) = 0.01688332
#
# Stress axis : x y z
#
# Youngs Moduli (GPa) = 51.52234 94.53811 100.45477
#
# Poissons Ratio (x) = 0.42019 0.40649
# Poissons Ratio (y) = 0.22900 0.30517
# Poissons Ratio (z) = 0.20849 0.28720
#
# Static dielectric constant tensor:
#      x y z
#    x 1.675400 0.000000 -0.011070 
#    y 0.000000 1.653550 0.000000 
#    z -0.011070 0.000000 1.675260 
# 
# From -- ./inp_files/204989.got.cif
#   From: 2010.05.17/outbox.cif.g08.bks.cpg/sg15_103_cif.got.tgz:204989.got - 2010.06.03 18:47:42.
