data_PCOD9267334
_publ_section_title
;
Structure prediction by ZEFSAII (Michael W. Deem and Ramdas Pophale) SiO2 
 PCOD9267334
Probable space group: C 2/C
;
_chemical_formula_sum "Si O2"
_cell_formula_units_Z 56
_cell_length_a 9.031057
_cell_length_b 18.849338
_cell_length_c 17.583274
_cell_angle_alpha 90.000000
_cell_angle_beta 69.015038
_cell_angle_gamma 90.000000
_cell_volume 2794.665959
_symmetry_space_group_name_H-M "C 2/C"
_symmetry_group_IT_number 15
_symmetry_cell_setting 'monoclinic'
loop_
_space_group_symop_operation_xyz
x,y,z
-x,y,1/2-z
-x,-y,-z
x,-y,1/2+z
1/2+x,1/2+y,z
1/2-x,1/2+y,1/2-z
1/2-x,1/2-y,-z
1/2+x,1/2-y,1/2+z
loop_
_atom_site_type_symbol
_atom_site_label
_atom_site_fract_x
_atom_site_fract_y
_atom_site_fract_z
Si Si1 0.795830 0.856262 0.435233
Si Si2 0.073193 0.404906 0.840567
Si Si3 0.702339 0.797310 0.617056
Si Si4 0.103525 0.873618 0.800072
Si Si5 0.117680 0.449575 0.164911
Si Si6 0.032726 0.025984 0.834712
Si Si7 0.043976 0.419575 0.015209
O O1 0.773677 0.830597 0.526065
O O2 0.839350 0.784892 0.382740
O O3 0.622477 0.880772 0.440986
O O4 0.913379 0.921756 0.400387
O O5 0.235766 0.406693 0.765288
O O6 0.957583 0.341084 0.839683
O O7 0.970301 0.475617 0.841067
O O8 0.114136 0.393536 0.922226
O O9 0.834893 0.814322 0.654743
O O10 0.000000 0.845376 0.750000
O O11 0.014637 0.941483 0.853323
O O12 0.289052 0.456325 0.171669
O O13 0.135208 0.414971 0.077978
O O14 0.000000 0.416409 0.250000
O O15 0.000000 0.035035 0.750000
O O16 0.000000 0.500000 0.000000
#
# Coordination Sequence:
#
# PCOD9267334 Si02
#       7
#     8   8   8   8   8   8   8
#     4  10  23  41  62  92 125 158 212 263 314 379
#     4  10  19  39  60  87 120 168 206 240 312 385
#     4  10  21  43  64  84 124 173 207 248 319 396
#     4  11  23  37  63  94 124 163 213 265 301 374
#     4  11  18  35  58  87 124 159 202 252 313 374
#     4  11  23  36  58  94 128 155 204 275 310 353
#     4   9  21  35  60  89 120 165 196 255 316 372
#
# _framework density 20.038173
#
# number of rings (size 3 to 8) (size 9 to 14) (size 15 to 20)
#    0.000    1.714    2.857    1.286    6.000    2.857 
#    0.000    3.571    0.000    5.143    0.000    0.000 
#    0.000    0.000    0.000    0.000    0.000    0.000 
#
# Total GULP energy -156162.795562 kJ/mol
# GULP energy per Si atom -5577.242699 kJ/mol
# Density = 1.999257 g / cm^3
# Si number density = 20.038173 Si / 1000 Ang^3
#
#
#
# Elastic Constant Matrix: (Units=GPa)
#
#
# Indices 1 2 3 4 5 6 
#
# 1 107.5881 6.8661 33.4334 0.0000 32.4381 0.0000
# 2 6.8661 51.8741 15.9770 0.0000 -6.9507 0.0000
# 3 33.4334 15.9770 77.0343 0.0000 21.5187 0.0000
# 4 0.0000 0.0000 0.0000 19.7678 0.0000 -6.5043
# 5 32.4381 -6.9507 21.5187 0.0000 41.2150 0.0000
# 6 0.0000 0.0000 0.0000 -6.5043 0.0000 13.7821
#
#
#
# Elastic Compliance Matrix: (Units=1/GPa)
#
#
# Indices 1 2 3 4 5 6 
#
# 1 0.013039 -0.002157 -0.002626 0.000000 -0.009255 0.000000
# 2 -0.002157 0.022648 -0.006208 0.000000 0.008758 0.000000
# 3 -0.002626 -0.006208 0.017706 0.000000 -0.008224 0.000000
# 4 0.000000 0.000000 0.000000 0.059887 0.000000 0.028263
# 5 -0.009255 0.008758 -0.008224 0.000000 0.037318 0.000000
# 6 0.000000 0.000000 0.000000 0.028263 0.000000 0.085896
#
#
# Mechanical properties :
#
#
# Convention : Reuss Voigt Hill
#
# Bulk Modulus (GPa) = 31.83589 38.78325 35.30957
# Shear Modulus (GPa) = 18.59103 26.96763 22.77933
#
# Velocity S-wave (km/s) = 3.04925 3.67251 3.37530
# Velocity P-wave (km/s) = 5.32160 6.11390 5.73146
#
# Compressibility (1/GPa) = 0.03141109
#
# Stress axis : x y z
#
# Youngs Moduli (GPa) = 76.69396 44.15320 56.47825
#
# Poissons Ratio (x) = 0.09524 0.14833
# Poissons Ratio (y) = 0.16543 0.35060
# Poissons Ratio (z) = 0.20143 0.27409
#
# Static dielectric constant tensor:
#      x y z
#    x 1.699150 0.000000 0.000050 
#    y 0.000000 1.747650 0.000000 
#    z 0.000050 0.000000 1.851860 
# 
# From -- ./inp_files/190916.got.cif
#   From: 2010.05.17/outbox.cif.g08.bks.cpg/sg15_96_cif.got.tgz:190916.got - 2010.06.03 18:47:42.
