data_PCOD9267858
_publ_section_title
;
Structure prediction by ZEFSAII (Michael W. Deem and Ramdas Pophale) SiO2 
 PCOD9267858
Probable space group: C 2/C
;
_chemical_formula_sum "Si O2"
_cell_formula_units_Z 40
_cell_length_a 6.709428
_cell_length_b 24.387470
_cell_length_c 10.035794
_cell_angle_alpha 90.000000
_cell_angle_beta 88.537030
_cell_angle_gamma 90.000000
_cell_volume 1641.581295
_symmetry_space_group_name_H-M "C 2/C"
_symmetry_group_IT_number 15
_symmetry_cell_setting 'monoclinic'
loop_
_space_group_symop_operation_xyz
x,y,z
-x,y,1/2-z
-x,-y,-z
x,-y,1/2+z
1/2+x,1/2+y,z
1/2-x,1/2+y,1/2-z
1/2-x,1/2-y,-z
1/2+x,1/2-y,1/2+z
loop_
_atom_site_type_symbol
_atom_site_label
_atom_site_fract_x
_atom_site_fract_y
_atom_site_fract_z
Si Si1 0.715918 0.212584 0.632251
Si Si2 0.500000 0.520331 0.750000
Si Si3 0.574786 0.862874 0.488705
Si Si4 0.324987 0.065018 0.142795
Si Si5 0.500000 0.790647 0.750000
Si Si6 0.964030 0.887763 0.037283
O O1 0.750000 0.250000 0.500000
O O2 0.506880 0.180280 0.618247
O O3 0.802107 0.252944 0.742800
O O4 0.866969 0.162203 0.616753
O O5 0.310937 0.485670 0.807014
O O6 0.563195 0.557872 0.873818
O O7 0.455009 0.920630 0.506199
O O8 0.527359 0.829522 0.623668
O O9 0.803692 0.876551 0.477446
O O10 0.500000 0.068706 0.250000
O O11 0.143398 0.106795 0.104826
#
# Coordination Sequence:
#
# PCOD9267858 Si02
#       6
#     8   4   8   8   4   8
#     4   9  21  41  64  99 139 177 228 277 341 414
#     4  12  27  44  70 100 140 186 231 294 348 416
#     4  10  22  42  68 101 139 182 232 287 343 419
#     4  11  24  44  68  99 135 183 234 287 351 411
#     4  10  19  40  68 102 142 182 227 284 344 416
#     4  11  25  46  69 103 142 180 236 290 343 423
#
# _framework density 24.36675
#
# number of rings (size 3 to 8) (size 9 to 14) (size 15 to 20)
#    0.000    1.600    1.000    2.400    0.000    8.000 
#    0.000   13.000    0.000    0.000    0.000    0.000 
#    0.000    0.000    0.000    0.000    0.000    0.000 
#
# Total GULP energy -111421.668273 kJ/mol
# GULP energy per Si atom -5571.083414 kJ/mol
# Density = 2.431129 g / cm^3
# Si number density = 24.366750 Si / 1000 Ang^3
#
#
#
# Elastic Constant Matrix: (Units=GPa)
#
#
# Indices 1 2 3 4 5 6 
#
# 1 178.5158 60.1061 28.7712 0.0000 34.3292 0.0000
# 2 60.1061 127.6576 42.4296 0.0000 12.2317 0.0000
# 3 28.7712 42.4296 106.0861 0.0000 26.5458 0.0000
# 4 0.0000 0.0000 0.0000 26.1733 0.0000 0.6027
# 5 34.3292 12.2317 26.5458 0.0000 34.0610 0.0000
# 6 0.0000 0.0000 0.0000 0.6027 0.0000 -10.4350
#
#
#
# Elastic Compliance Matrix: (Units=1/GPa)
#
#
# Indices 1 2 3 4 5 6 
#
# 1 0.008071 -0.003430 0.001131 0.000000 -0.007784 0.000000
# 2 -0.003430 0.010500 -0.003964 0.000000 0.002776 0.000000
# 3 0.001131 -0.003964 0.013210 0.000000 -0.010012 0.000000
# 4 0.000000 0.000000 0.000000 0.038156 0.000000 0.002204
# 5 -0.007784 0.002776 -0.010012 0.000000 0.044011 0.000000
# 6 0.000000 0.000000 0.000000 0.002204 0.000000 -0.095704
#
#
# Mechanical properties :
#
#
# Convention : Reuss Voigt Hill
#
# Bulk Modulus (GPa) = 51.93425 74.98593 63.46009
# Shear Modulus (GPa) = 134.44479 28.69003 81.56741
#
# Velocity S-wave (km/s) = 7.43608 3.43509 5.79202
# Velocity P-wave (km/s) = 9.75125 6.82450 8.41608
#
# Compressibility (1/GPa) = 0.01925512
#
# Stress axis : x y z
#
# Youngs Moduli (GPa) = 123.89337 95.23747 75.69898
#
# Poissons Ratio (x) = 0.32670 -0.08560
# Poissons Ratio (y) = 0.42500 0.30006
# Poissons Ratio (z) = -0.14011 0.37751
#
# Static dielectric constant tensor:
#      x y z
#    x 1.971360 0.000000 -0.000700 
#    y 0.000000 1.961930 0.000000 
#    z -0.000700 0.000000 2.065780 
# 
# From -- ./inp_files/73361.got.cif
#   From: 2010.05.17/outbox.cif.g08.bks.cpg/sg15_37_cif.got.tgz:73361.got - 2010.06.03 18:47:42.
