data_PCOD9267793
_publ_section_title
;
Structure prediction by ZEFSAII (Michael W. Deem and Ramdas Pophale) SiO2 
 PCOD9267793
Probable space group: C 2/C
;
_chemical_formula_sum "Si O2"
_cell_formula_units_Z 44
_cell_length_a 18.131615
_cell_length_b 13.939594
_cell_length_c 7.664649
_cell_angle_alpha 90.000000
_cell_angle_beta 71.201144
_cell_angle_gamma 90.000000
_cell_volume 1833.880095
_symmetry_space_group_name_H-M "C 2/C"
_symmetry_group_IT_number 15
_symmetry_cell_setting 'monoclinic'
loop_
_space_group_symop_operation_xyz
x,y,z
-x,y,1/2-z
-x,-y,-z
x,-y,1/2+z
1/2+x,1/2+y,z
1/2-x,1/2+y,1/2-z
1/2-x,1/2-y,-z
1/2+x,1/2-y,1/2+z
loop_
_atom_site_type_symbol
_atom_site_label
_atom_site_fract_x
_atom_site_fract_y
_atom_site_fract_z
Si Si1 0.299603 0.655340 0.409351
Si Si2 0.835529 0.628852 0.503014
Si Si3 0.338142 0.347674 0.468645
Si Si4 0.853973 0.427983 0.379332
Si Si5 0.500000 0.658122 0.750000
Si Si6 0.440731 0.247213 0.954274
O O1 0.250000 0.750000 0.500000
O O2 0.320512 0.648419 0.189332
O O3 0.237825 0.574716 0.504316
O O4 0.376647 0.670584 0.462814
O O5 0.740992 0.624693 0.568970
O O6 0.851768 0.734355 0.418222
O O7 0.873776 0.539705 0.373601
O O8 0.862824 0.616438 0.681116
O O9 0.418892 0.397490 0.351601
O O10 0.898981 0.356831 0.475896
O O11 0.485057 0.723498 0.592955
O O12 0.500000 0.247635 0.750000
#
# Coordination Sequence:
#
# PCOD9267793 Si02
#       6
#     8   8   8   8   4   8
#     4  10  19  40  65  89 127 169 220 269 310 377
#     4  11  23  40  65  95 126 169 223 268 321 374
#     4  11  23  41  66  94 127 175 218 266 320 396
#     4  11  23  40  65  96 129 166 219 277 317 377
#     4  12  24  38  66  96 130 176 216 254 334 392
#     4  11  22  42  62  95 137 172 212 262 325 398
#
# _framework density 23.992846
#
# number of rings (size 3 to 8) (size 9 to 14) (size 15 to 20)
#    0.000    1.091    5.455    2.182   10.182    0.000 
#    1.636    1.818    2.000    3.273    0.000    0.000 
#    0.000    0.000    0.000    0.000    0.000    0.000 
#
# Total GULP energy -123025.569608 kJ/mol
# GULP energy per Si atom -5592.071346 kJ/mol
# Density = 2.393824 g / cm^3
# Si number density = 23.992846 Si / 1000 Ang^3
#
#
#
# Elastic Constant Matrix: (Units=GPa)
#
#
# Indices 1 2 3 4 5 6 
#
# 1 105.3251 -28.9946 16.5200 0.0000 11.6115 0.0000
# 2 -28.9946 39.5517 -12.8623 0.0000 13.3586 0.0000
# 3 16.5200 -12.8623 90.6777 0.0000 4.7863 0.0000
# 4 0.0000 0.0000 0.0000 16.1760 0.0000 0.1100
# 5 11.6115 13.3586 4.7863 0.0000 54.0576 0.0000
# 6 0.0000 0.0000 0.0000 0.1100 0.0000 -2.7453
#
#
#
# Elastic Compliance Matrix: (Units=1/GPa)
#
#
# Indices 1 2 3 4 5 6 
#
# 1 0.013386 0.011574 -0.000497 0.000000 -0.005691 0.000000
# 2 0.011574 0.039362 0.004139 0.000000 -0.012580 0.000000
# 3 -0.000497 0.004139 0.011809 0.000000 -0.001962 0.000000
# 4 0.000000 0.000000 0.000000 0.061803 0.000000 0.002477
# 5 -0.005691 -0.012580 -0.001962 0.000000 0.023004 0.000000
# 6 0.000000 0.000000 0.000000 0.002477 0.000000 -0.364154
#
#
# Mechanical properties :
#
#
# Convention : Reuss Voigt Hill
#
# Bulk Modulus (GPa) = 10.52749 20.54229 15.53489
# Shear Modulus (GPa) = -23.41281 30.89042 3.73880
#
# Velocity S-wave (km/s) = -3.12721 3.59205 1.24967
# Velocity P-wave (km/s) = 2.93972 5.07781 2.92764
#
# Compressibility (1/GPa) = 0.09498938
#
# Stress axis : x y z
#
# Youngs Moduli (GPa) = 74.70598 25.40490 84.67989
#
# Poissons Ratio (x) = -0.29403 0.04205
# Poissons Ratio (y) = -0.86462 -0.35048
# Poissons Ratio (z) = 0.03710 -0.10515
#
# Static dielectric constant tensor:
#      x y z
#    x 1.946020 0.000000 -0.037630 
#    y 0.000000 1.952470 0.000000 
#    z -0.037630 0.000000 1.929070 
# 
# From -- ./inp_files/46992.got.cif
#   From: 2010.05.17/outbox.cif.g08.bks.cpg/sg15_24_cif.got.tgz:46992.got - 2010.06.03 18:47:42.
