data_PCOD9267283
_publ_section_title
;
Structure prediction by ZEFSAII (Michael W. Deem and Ramdas Pophale) SiO2 
 PCOD9267283
Probable space group: C 2/C
;
_chemical_formula_sum "Si O2"
_cell_formula_units_Z 56
_cell_length_a 28.648583
_cell_length_b 18.410699
_cell_length_c 9.446766
_cell_angle_alpha 90.000000
_cell_angle_beta 37.006356
_cell_angle_gamma 90.000000
_cell_volume 2999.048802
_symmetry_space_group_name_H-M "C 2/C"
_symmetry_group_IT_number 15
_symmetry_cell_setting 'monoclinic'
loop_
_space_group_symop_operation_xyz
x,y,z
-x,y,1/2-z
-x,-y,-z
x,-y,1/2+z
1/2+x,1/2+y,z
1/2-x,1/2+y,1/2-z
1/2-x,1/2-y,-z
1/2+x,1/2-y,1/2+z
loop_
_atom_site_type_symbol
_atom_site_label
_atom_site_fract_x
_atom_site_fract_y
_atom_site_fract_z
Si Si1 0.762770 0.332739 0.296527
Si Si2 0.168594 0.150811 0.763441
Si Si3 0.759078 0.325589 0.771012
Si Si4 0.056088 0.978488 0.491930
Si Si5 0.421045 0.777113 0.023843
Si Si6 0.347015 0.620608 0.184873
Si Si7 0.080097 0.718833 0.631703
O O1 0.737239 0.367750 0.208854
O O2 0.743655 0.246915 0.319947
O O3 0.850655 0.329022 0.140525
O O4 0.704743 0.366561 0.550759
O O5 0.209790 0.188395 0.530632
O O6 0.120577 0.083361 0.818770
O O7 0.111092 0.205173 0.987422
O O8 0.714261 0.386590 0.793481
O O9 0.849826 0.336399 0.574899
O O10 0.000000 0.950514 0.750000
O O11 0.098640 0.051847 0.435353
O O12 0.000000 0.000000 0.500000
O O13 0.396730 0.694180 0.043833
O O14 0.429215 0.778589 0.175187
O O15 0.500000 0.794562 0.750000
O O16 0.000000 0.700750 0.750000
#
# Coordination Sequence:
#
# PCOD9267283 Si02
#       7
#     8   8   8   8   8   8   8
#     4  10  19  39  58  78 113 151 199 241 290 346
#     4  11  23  37  57  81 120 159 192 234 288 349
#     4  10  20  37  55  82 110 155 196 237 295 349
#     4  12  26  40  56  88 122 158 202 233 273 345
#     4  11  22  34  58  89 113 151 190 242 304 343
#     4  11  20  39  58  75 119 161 194 236 276 350
#     4  11  22  34  56  87 121 144 187 249 300 342
#
# _framework density 18.672588000000001
#
# number of rings (size 3 to 8) (size 9 to 14) (size 15 to 20)
#    0.000    1.143    4.286    5.143    8.000    0.000 
#    0.000    0.000    0.000    0.000    0.000    6.000 
#    0.000    0.000    0.000    0.000    0.000    0.000 
#
# Total GULP energy -156144.003839 kJ/mol
# GULP energy per Si atom -5576.571566 kJ/mol
# Density = 1.863009 g / cm^3
# Si number density = 18.672588 Si / 1000 Ang^3
#
#
#
# Elastic Constant Matrix: (Units=GPa)
#
#
# Indices 1 2 3 4 5 6 
#
# 1 141.8588 21.9236 31.2677 0.0000 -24.8231 0.0000
# 2 21.9236 35.3545 2.3042 0.0000 -13.6191 0.0000
# 3 31.2677 2.3042 96.1584 0.0000 -7.6422 0.0000
# 4 0.0000 0.0000 0.0000 23.2339 0.0000 -7.2521
# 5 -24.8231 -13.6191 -7.6422 0.0000 39.2789 0.0000
# 6 0.0000 0.0000 0.0000 -7.2521 0.0000 20.0726
#
#
#
# Elastic Compliance Matrix: (Units=1/GPa)
#
#
# Indices 1 2 3 4 5 6 
#
# 1 0.008856 -0.003878 -0.002487 0.000000 0.003768 0.000000
# 2 -0.003878 0.034345 0.001208 0.000000 0.009693 0.000000
# 3 -0.002487 0.001208 0.011262 0.000000 0.001038 0.000000
# 4 0.000000 0.000000 0.000000 0.048511 0.000000 0.017527
# 5 0.003768 0.009693 0.001038 0.000000 0.031403 0.000000
# 6 0.000000 0.000000 0.000000 0.017527 0.000000 0.056152
#
#
# Mechanical properties :
#
#
# Convention : Reuss Voigt Hill
#
# Bulk Modulus (GPa) = 22.65076 42.70696 32.67886
# Shear Modulus (GPa) = 23.19548 31.04216 27.11882
#
# Velocity S-wave (km/s) = 3.52834 4.08173 3.81508
# Velocity P-wave (km/s) = 5.36244 6.71827 6.07828
#
# Compressibility (1/GPa) = 0.04414864
#
# Stress axis : x y z
#
# Youngs Moduli (GPa) = 112.91467 29.11656 88.79522
#
# Poissons Ratio (x) = 0.11292 0.22086
# Poissons Ratio (y) = 0.43789 -0.10730
# Poissons Ratio (z) = 0.28086 -0.03518
#
# Static dielectric constant tensor:
#      x y z
#    x 1.721630 0.000000 0.001250 
#    y 0.000000 1.633790 0.000000 
#    z 0.001250 0.000000 1.655010 
# 
# From -- ./inp_files/67114.got.cif
#   From: 2010.05.17/outbox.cif.g08.bks.cpg/sg15_34_cif.got.tgz:67114.got - 2010.06.03 18:47:42.
