data_PCOD9267662
_publ_section_title
;
Structure prediction by ZEFSAII (Michael W. Deem and Ramdas Pophale) SiO2 
 PCOD9267662
Probable space group: C 2/C
;
_chemical_formula_sum "Si O2"
_cell_formula_units_Z 56
_cell_length_a 8.555176
_cell_length_b 22.339086
_cell_length_c 16.888631
_cell_angle_alpha 90.000000
_cell_angle_beta 52.785990
_cell_angle_gamma 90.000000
_cell_volume 2570.456520
_symmetry_space_group_name_H-M "C 2/C"
_symmetry_group_IT_number 15
_symmetry_cell_setting 'monoclinic'
loop_
_space_group_symop_operation_xyz
x,y,z
-x,y,1/2-z
-x,-y,-z
x,-y,1/2+z
1/2+x,1/2+y,z
1/2-x,1/2+y,1/2-z
1/2-x,1/2-y,-z
1/2+x,1/2-y,1/2+z
loop_
_atom_site_type_symbol
_atom_site_label
_atom_site_fract_x
_atom_site_fract_y
_atom_site_fract_z
Si Si1 0.835537 0.116353 0.108822
Si Si2 0.710111 0.472547 0.021822
Si Si3 0.648342 0.483612 0.780364
Si Si4 0.226713 0.605552 0.552454
Si Si5 0.500000 0.299968 0.250000
Si Si6 0.591039 0.211853 0.098666
Si Si7 0.000000 0.453445 0.250000
Si Si8 0.880279 0.364861 0.058777
O O1 0.830209 0.084613 0.195335
O O2 0.698774 0.171950 0.132395
O O3 0.779467 0.063625 0.063558
O O4 0.059119 0.132941 0.020038
O O5 0.484423 0.478778 0.117177
O O6 0.824114 0.432528 0.050565
O O7 0.768754 0.541271 0.994267
O O8 0.500000 0.485035 0.750000
O O9 0.869909 0.509734 0.724373
O O10 0.156563 0.588717 0.660310
O O11 0.053740 0.642275 0.566939
O O12 0.452165 0.257252 0.188785
O O13 0.682684 0.337962 0.159571
O O14 0.750000 0.250000 0.000000
O O15 0.534909 0.165421 0.047406
#
# Coordination Sequence:
#
# PCOD9267662 Si02
#       8
#     8   8   8   8   4   8   4   8
#     4  10  20  42  60  83 129 174 200 257 324 371
#     4  10  19  40  57  86 139 171 195 244 309 397
#     4  11  22  36  56  93 139 172 208 252 304 388
#     4  11  21  36  59  96 136 161 208 252 314 400
#     4  10  22  43  62  92 122 150 233 282 322 384
#     4   9  21  43  67  85 117 164 216 276 327 377
#     4  12  22  33  58  96 138 178 213 250 302 374
#     4  10  22  36  68  94 117 176 211 260 333 385
#
# _framework density 21.786013000000001
#
# number of rings (size 3 to 8) (size 9 to 14) (size 15 to 20)
#    0.000    1.714    2.857    2.143    3.000    2.857 
#    5.143    2.857    0.000    5.143    0.000    0.000 
#    0.000    0.000    0.000    0.000    0.000    0.000 
#
# Total GULP energy -156010.043590 kJ/mol
# GULP energy per Si atom -5571.787271 kJ/mol
# Density = 2.173643 g / cm^3
# Si number density = 21.786013 Si / 1000 Ang^3
#
#
#
# Elastic Constant Matrix: (Units=GPa)
#
#
# Indices 1 2 3 4 5 6 
#
# 1 94.2113 -2.6778 5.6477 0.0000 2.1239 0.0000
# 2 -2.6778 21.7872 -5.2518 0.0000 8.7180 0.0000
# 3 5.6477 -5.2518 61.8888 0.0000 2.0669 0.0000
# 4 0.0000 0.0000 0.0000 8.4454 0.0000 6.1075
# 5 2.1239 8.7180 2.0669 0.0000 28.0307 0.0000
# 6 0.0000 0.0000 0.0000 6.1075 0.0000 -5.0575
#
#
#
# Elastic Compliance Matrix: (Units=1/GPa)
#
#
# Indices 1 2 3 4 5 6 
#
# 1 0.010737 0.001632 -0.000799 0.000000 -0.001262 0.000000
# 2 0.001632 0.054264 0.005036 0.000000 -0.017372 0.000000
# 3 -0.000799 0.005036 0.016750 0.000000 -0.002741 0.000000
# 4 0.000000 0.000000 0.000000 0.063208 0.000000 0.076330
# 5 -0.001262 -0.017372 -0.002741 0.000000 0.041376 0.000000
# 6 0.000000 0.000000 0.000000 0.076330 0.000000 -0.105548
#
#
# Mechanical properties :
#
#
# Convention : Reuss Voigt Hill
#
# Bulk Modulus (GPa) = 10.69643 19.25817 14.97730
# Shear Modulus (GPa) = 49.89430 18.29499 34.09464
#
# Velocity S-wave (km/s) = 4.79079 2.90100 3.96027
# Velocity P-wave (km/s) = 5.96009 4.48107 5.27270
#
# Compressibility (1/GPa) = 0.09348917
#
# Stress axis : x y z
#
# Youngs Moduli (GPa) = 93.13424 18.42834 59.70208
#
# Poissons Ratio (x) = -0.03008 0.04771
# Poissons Ratio (y) = -0.15200 -0.30066
# Poissons Ratio (z) = 0.07443 -0.09281
#
# Static dielectric constant tensor:
#      x y z
#    x 1.843020 0.000000 0.043970 
#    y 0.000000 1.831150 0.000000 
#    z 0.043970 0.000000 1.882080 
# 
# From -- ./inp_files/192910.got.cif
#   From: 2010.05.17/outbox.cif.g08.bks.cpg/sg15_97_cif.got.tgz:192910.got - 2010.06.03 18:47:42.
