data_PCOD9267384
_publ_section_title
;
Structure prediction by ZEFSAII (Michael W. Deem and Ramdas Pophale) SiO2 
 PCOD9267384
Probable space group: C 2/C
;
_chemical_formula_sum "Si O2"
_cell_formula_units_Z 56
_cell_length_a 27.484800
_cell_length_b 15.236873
_cell_length_c 12.322401
_cell_angle_alpha 90.000000
_cell_angle_beta 142.670894
_cell_angle_gamma 90.000000
_cell_volume 3129.230320
_symmetry_space_group_name_H-M "C 2/C"
_symmetry_group_IT_number 15
_symmetry_cell_setting 'monoclinic'
loop_
_space_group_symop_operation_xyz
x,y,z
-x,y,1/2-z
-x,-y,-z
x,-y,1/2+z
1/2+x,1/2+y,z
1/2-x,1/2+y,1/2-z
1/2-x,1/2-y,-z
1/2+x,1/2-y,1/2+z
loop_
_atom_site_type_symbol
_atom_site_label
_atom_site_fract_x
_atom_site_fract_y
_atom_site_fract_z
Si Si1 0.560088 0.864705 0.756625
Si Si2 0.213755 0.249041 0.055849
Si Si3 0.245561 0.114909 0.688242
Si Si4 0.746489 0.416703 0.755755
Si Si5 0.908492 0.334681 0.352181
Si Si6 0.089350 0.440045 0.361912
Si Si7 0.316128 0.674344 0.139615
O O1 0.500000 0.856497 0.750000
O O2 0.498193 0.857977 0.547927
O O3 0.600928 0.960261 0.839335
O O4 0.625764 0.789914 0.883884
O O5 0.258034 0.312653 0.222543
O O6 0.215536 0.152728 0.112523
O O7 0.250000 0.250000 0.000000
O O8 0.337431 0.125776 0.803268
O O9 0.185012 0.129736 0.479932
O O10 0.229032 0.017936 0.701840
O O11 0.713085 0.386680 0.814019
O O12 0.843434 0.414463 0.932267
O O13 0.898102 0.376364 0.216376
O O14 0.892416 0.230536 0.314209
O O15 0.000000 0.434687 0.250000
O O16 0.250000 0.750000 0.000000
#
# Coordination Sequence:
#
# PCOD9267384 Si02
#       7
#     8   8   8   8   8   8   8
#     4  11  21  39  56  88 125 158 194 245 312 376
#     4  12  26  37  57  95 126 159 203 257 305 353
#     4  11  21  39  61  89 122 159 207 250 302 369
#     4  12  22  38  60  86 123 158 202 248 301 362
#     4  11  20  39  62  82 124 162 203 244 304 376
#     4  11  22  34  58  92 122 156 194 245 320 369
#     4  10  19  39  62  82 111 168 207 238 291 365
#
# _framework density 17.895775
#
# number of rings (size 3 to 8) (size 9 to 14) (size 15 to 20)
#    0.000    0.857    8.571    1.286    6.000    0.000 
#    0.000    0.000    0.000    0.857    3.714    0.000 
#    0.000    0.000    0.000    0.000    0.000    0.000 
#
# Total GULP energy -156163.232507 kJ/mol
# GULP energy per Si atom -5577.258304 kJ/mol
# Density = 1.785504 g / cm^3
# Si number density = 17.895775 Si / 1000 Ang^3
#
#
#
# Elastic Constant Matrix: (Units=GPa)
#
#
# Indices 1 2 3 4 5 6 
#
# 1 57.9955 36.7850 15.9251 0.0000 -19.2905 0.0000
# 2 36.7850 111.3509 25.4362 0.0000 -5.2882 0.0000
# 3 15.9251 25.4362 41.3036 0.0000 -0.8320 0.0000
# 4 0.0000 0.0000 0.0000 34.3864 0.0000 -4.1510
# 5 -19.2905 -5.2882 -0.8320 0.0000 29.6302 0.0000
# 6 0.0000 0.0000 0.0000 -4.1510 0.0000 31.3215
#
#
#
# Elastic Compliance Matrix: (Units=1/GPa)
#
#
# Indices 1 2 3 4 5 6 
#
# 1 0.029694 -0.007483 -0.006482 0.000000 0.017815 0.000000
# 2 -0.007483 0.012421 -0.004821 0.000000 -0.002790 0.000000
# 3 -0.006482 -0.004821 0.029593 0.000000 -0.004249 0.000000
# 4 0.000000 0.000000 0.000000 0.029554 0.000000 0.003917
# 5 0.017815 -0.002790 -0.004249 0.000000 0.044730 0.000000
# 6 0.000000 0.000000 0.000000 0.003917 0.000000 0.032446
#
#
# Mechanical properties :
#
#
# Convention : Reuss Voigt Hill
#
# Bulk Modulus (GPa) = 29.29275 40.77139 35.03207
# Shear Modulus (GPa) = 21.98875 27.90120 24.94497
#
# Velocity S-wave (km/s) = 3.50910 3.95282 3.73755
# Velocity P-wave (km/s) = 5.72909 6.60796 6.18416
#
# Compressibility (1/GPa) = 0.03413814
#
# Stress axis : x y z
#
# Youngs Moduli (GPa) = 33.67651 80.50715 33.79155
#
# Poissons Ratio (x) = 0.60242 0.21903
# Poissons Ratio (y) = 0.25200 0.16289
# Poissons Ratio (z) = 0.21829 0.38809
#
# Static dielectric constant tensor:
#      x y z
#    x 1.625330 0.000000 0.001440 
#    y 0.000000 1.635170 0.000000 
#    z 0.001440 0.000000 1.761050 
# 
# From -- ./inp_files/123348.got.cif
#   From: 2010.05.17/outbox.cif.g08.bks.cpg/sg15_62_cif.got.tgz:123348.got - 2010.06.03 18:47:42.
