data_PCOD9267340
_publ_section_title
;
Structure prediction by ZEFSAII (Michael W. Deem and Ramdas Pophale) SiO2 
 PCOD9267340
Probable space group: C 2/C
;
_chemical_formula_sum "Si O2"
_cell_formula_units_Z 48
_cell_length_a 8.818942
_cell_length_b 25.591760
_cell_length_c 14.373921
_cell_angle_alpha 90.000000
_cell_angle_beta 141.409701
_cell_angle_gamma 90.000000
_cell_volume 2023.487606
_symmetry_space_group_name_H-M "C 2/C"
_symmetry_group_IT_number 15
_symmetry_cell_setting 'monoclinic'
loop_
_space_group_symop_operation_xyz
x,y,z
-x,y,1/2-z
-x,-y,-z
x,-y,1/2+z
1/2+x,1/2+y,z
1/2-x,1/2+y,1/2-z
1/2-x,1/2-y,-z
1/2+x,1/2-y,1/2+z
loop_
_atom_site_type_symbol
_atom_site_label
_atom_site_fract_x
_atom_site_fract_y
_atom_site_fract_z
Si Si1 0.576954 0.907267 0.556769
Si Si2 0.233129 0.297238 0.635100
Si Si3 0.246897 0.039356 0.179551
Si Si4 0.325523 0.442661 0.253424
Si Si5 0.151436 0.868448 0.491707
Si Si6 0.240043 0.764701 0.643209
O O1 0.727077 0.856985 0.597468
O O2 0.719398 0.942767 0.697149
O O3 0.450462 0.939779 0.414214
O O4 0.356062 0.884085 0.514507
O O5 0.500000 0.273016 0.750000
O O6 0.213887 0.293529 0.737153
O O7 0.002125 0.269700 0.477099
O O8 0.500000 0.025259 0.250000
O O9 0.173194 0.091966 0.089674
O O10 0.118691 0.983806 0.138028
O O11 0.500000 0.455021 0.250000
O O12 0.398438 0.384773 0.323494
O O13 0.190125 0.810163 0.544078
O O14 0.500000 0.736821 0.750000
#
# Coordination Sequence:
#
# PCOD9267340 Si02
#       6
#     8   8   8   8   8   8
#     4  10  21  40  63  89 130 168 217 263 323 387
#     4  12  27  45  67 102 137 169 212 283 339 382
#     4  10  19  39  60  88 129 170 217 268 326 380
#     4  10  22  36  62  95 123 167 218 273 312 386
#     4  10  20  40  64  91 127 167 224 267 313 386
#     4  12  24  46  73  97 127 179 226 264 324 402
#
# _framework density 23.721420999999999
#
# number of rings (size 3 to 8) (size 9 to 14) (size 15 to 20)
#    0.000    1.333    3.333    2.500    2.333    1.333 
#    3.000    0.000    0.000    0.000    0.000    0.000 
#    0.000    0.000    0.000    0.000    0.000    0.000 
#
# Total GULP energy -134009.289662 kJ/mol
# GULP energy per Si atom -5583.720403 kJ/mol
# Density = 2.366743 g / cm^3
# Si number density = 23.721421 Si / 1000 Ang^3
#
#
#
# Elastic Constant Matrix: (Units=GPa)
#
#
# Indices 1 2 3 4 5 6 
#
# 1 34.8041 13.7894 15.9056 0.0000 3.1923 0.0000
# 2 13.7894 85.8418 29.7194 0.0000 10.9077 0.0000
# 3 15.9056 29.7194 86.6312 0.0000 5.0159 0.0000
# 4 0.0000 0.0000 0.0000 39.9588 0.0000 -1.1941
# 5 3.1923 10.9077 5.0159 0.0000 36.1660 0.0000
# 6 0.0000 0.0000 0.0000 -1.1941 0.0000 55.3702
#
#
#
# Elastic Compliance Matrix: (Units=1/GPa)
#
#
# Indices 1 2 3 4 5 6 
#
# 1 0.032341 -0.003420 -0.004697 0.000000 -0.001172 0.000000
# 2 -0.003420 0.014005 -0.003982 0.000000 -0.003370 0.000000
# 3 -0.004697 -0.003982 0.013789 0.000000 -0.000297 0.000000
# 4 0.000000 0.000000 0.000000 0.025042 0.000000 0.000540
# 5 -0.001172 -0.003370 -0.000297 0.000000 0.028811 0.000000
# 6 0.000000 0.000000 0.000000 0.000540 0.000000 0.018072
#
#
# Mechanical properties :
#
#
# Convention : Reuss Voigt Hill
#
# Bulk Modulus (GPa) = 27.82557 36.23399 32.02978
# Shear Modulus (GPa) = 29.72001 36.15649 32.93825
#
# Velocity S-wave (km/s) = 3.54344 3.90835 3.73036
# Velocity P-wave (km/s) = 5.33825 5.97285 5.66444
#
# Compressibility (1/GPa) = 0.03593816
#
# Stress axis : x y z
#
# Youngs Moduli (GPa) = 30.92031 71.40093 72.52366
#
# Poissons Ratio (x) = 0.24421 0.34062
# Poissons Ratio (y) = 0.10576 0.28876
# Poissons Ratio (z) = 0.14522 0.28429
#
# Static dielectric constant tensor:
#      x y z
#    x 1.919100 0.000000 0.023660 
#    y 0.000000 1.891510 0.000000 
#    z 0.023660 0.000000 1.965750 
# 
# From -- ./inp_files/139051.got.cif
#   From: 2010.05.17/outbox.cif.g08.bks.cpg/sg15_70_cif.got.tgz:139051.got - 2010.06.03 18:47:42.
