data_PCOD9267957
_publ_section_title
;
Structure prediction by ZEFSAII (Michael W. Deem and Ramdas Pophale) SiO2 
 PCOD9267957
Probable space group: C 2/C
;
_chemical_formula_sum "Si O2"
_cell_formula_units_Z 60
_cell_length_a 20.042476
_cell_length_b 12.521343
_cell_length_c 29.286447
_cell_angle_alpha 90.000000
_cell_angle_beta 155.694461
_cell_angle_gamma 90.000000
_cell_volume 3025.150175
_symmetry_space_group_name_H-M "C 2/C"
_symmetry_group_IT_number 15
_symmetry_cell_setting 'monoclinic'
loop_
_space_group_symop_operation_xyz
x,y,z
-x,y,1/2-z
-x,-y,-z
x,-y,1/2+z
1/2+x,1/2+y,z
1/2-x,1/2+y,1/2-z
1/2-x,1/2-y,-z
1/2+x,1/2-y,1/2+z
loop_
_atom_site_type_symbol
_atom_site_label
_atom_site_fract_x
_atom_site_fract_y
_atom_site_fract_z
Si Si1 0.396102 0.935456 0.083030
Si Si2 0.615614 0.883349 0.764978
Si Si3 0.698576 0.032284 0.567934
Si Si4 0.500000 0.691807 0.750000
Si Si5 0.862369 0.038741 0.354328
Si Si6 0.673346 0.908912 0.646089
Si Si7 0.256434 0.563849 0.916144
Si Si8 0.708962 0.826129 0.297483
O O1 0.534195 0.845507 0.165702
O O2 0.494813 0.042787 0.159916
O O3 0.286021 0.914111 0.058190
O O4 0.309219 0.956609 0.981351
O O5 0.535467 0.773520 0.730375
O O6 0.774875 0.874672 0.832609
O O7 0.673818 0.954538 0.844998
O O8 0.840122 0.118322 0.647504
O O9 0.517092 0.079627 0.461075
O O10 0.721583 0.968518 0.629442
O O11 0.776575 0.043713 0.252023
O O12 0.821130 0.923952 0.350549
O O13 0.051919 0.055169 0.469427
O O14 0.716379 0.785642 0.667702
O O15 0.191654 0.653451 0.840872
#
# Coordination Sequence:
#
# PCOD9267957 Si02
#       8
#     8   8   8   4   8   8   8   8
#     4  10  20  45  64  96 132 166 230 274 329 379
#     4  10  19  41  63 101 132 161 221 278 320 397
#     4  11  27  46  62  97 139 178 211 286 331 405
#     4  12  26  40  70  98 138 174 216 276 358 382
#     4  10  22  40  65 100 127 175 226 270 317 404
#     4  11  25  47  65  91 142 174 225 267 330 407
#     4  10  20  38  68  97 131 163 224 287 313 384
#     4  10  21  41  69  95 124 183 215 272 337 389
#
# _framework density 19.833727
#
# number of rings (size 3 to 8) (size 9 to 14) (size 15 to 20)
#    0.000    1.867    4.000    2.800    5.600    2.667 
#    2.400    1.333    0.000    0.000    0.000    0.000 
#    0.000    0.000    0.000    0.000    0.000    0.000 
#
# Total GULP energy -167507.838881 kJ/mol
# GULP energy per Si atom -5583.594629 kJ/mol
# Density = 1.978858 g / cm^3
# Si number density = 19.833727 Si / 1000 Ang^3
#
#
#
# Elastic Constant Matrix: (Units=GPa)
#
#
# Indices 1 2 3 4 5 6 
#
# 1 96.6276 25.2480 34.7231 -0.0014 -12.9530 -0.0025
# 2 25.2480 67.3914 23.8153 -0.0019 -4.8118 0.0001
# 3 34.7231 23.8153 84.0683 -0.0265 -3.0239 0.0043
# 4 -0.0014 -0.0019 -0.0265 6.3541 0.0061 11.0750
# 5 -12.9530 -4.8118 -3.0239 0.0061 37.9218 -0.0008
# 6 -0.0025 0.0001 0.0043 11.0750 -0.0008 24.7927
#
#
#
# Elastic Compliance Matrix: (Units=1/GPa)
#
#
# Indices 1 2 3 4 5 6 
#
# 1 0.013276 -0.003127 -0.004462 -0.000109 0.003782 0.000051
# 2 -0.003127 0.017339 -0.003590 -0.000054 0.000846 0.000024
# 3 -0.004462 -0.003590 0.014726 0.000296 -0.000805 -0.000135
# 4 -0.000109 -0.000054 0.000296 0.710798 -0.000141 -0.317517
# 5 0.003782 0.000846 -0.000805 -0.000141 0.027705 0.000064
# 6 0.000051 0.000024 -0.000135 -0.317517 0.000064 0.182171
#
#
# Mechanical properties :
#
#
# Convention : Reuss Voigt Hill
#
# Bulk Modulus (GPa) = 43.50836 46.18444 44.84640
# Shear Modulus (GPa) = 5.01991 24.76714 14.89352
#
# Velocity S-wave (km/s) = 1.59264 3.53758 2.74326
# Velocity P-wave (km/s) = 5.03648 6.32632 5.71789
#
# Compressibility (1/GPa) = 0.02298409
#
# Stress axis : x y z
#
# Youngs Moduli (GPa) = 75.32127 57.67247 67.90690
#
# Poissons Ratio (x) = 0.18035 0.30298
# Poissons Ratio (y) = 0.23554 0.24378
# Poissons Ratio (z) = 0.33606 0.20704
#
# Static dielectric constant tensor:
#      x y z
#    x 1.734540 0.000000 0.008030 
#    y 0.000000 1.676510 0.000000 
#    z 0.008030 0.000000 1.691940 
# 
# From -- ./inp_files/298967.got.cif
#   From: 2010.05.17/outbox.cif.g08.bks.cpg/sg15_150_cif.got.tgz:298967.got - 2010.06.03 18:47:42.
