data_PCOD9267219
_publ_section_title
;
Structure prediction by ZEFSAII (Michael W. Deem and Ramdas Pophale) SiO2 
 PCOD9267219
Probable space group: C 2/C
;
_chemical_formula_sum "Si O2"
_cell_formula_units_Z 60
_cell_length_a 10.730713
_cell_length_b 18.280079
_cell_length_c 22.372971
_cell_angle_alpha 90.000000
_cell_angle_beta 35.693269
_cell_angle_gamma 90.000000
_cell_volume 2560.535665
_symmetry_space_group_name_H-M "C 2/C"
_symmetry_group_IT_number 15
_symmetry_cell_setting 'monoclinic'
loop_
_space_group_symop_operation_xyz
x,y,z
-x,y,1/2-z
-x,-y,-z
x,-y,1/2+z
1/2+x,1/2+y,z
1/2-x,1/2+y,1/2-z
1/2-x,1/2-y,-z
1/2+x,1/2-y,1/2+z
loop_
_atom_site_type_symbol
_atom_site_label
_atom_site_fract_x
_atom_site_fract_y
_atom_site_fract_z
Si Si1 0.500000 0.582714 0.250000
Si Si2 0.509279 0.364544 0.989100
Si Si3 0.442755 0.103451 0.880887
Si Si4 0.678909 0.372314 0.787978
Si Si5 0.737533 0.216757 0.913730
Si Si6 0.443279 0.912775 0.518980
Si Si7 0.412370 0.052159 0.350755
Si Si8 0.217346 0.219301 0.749259
O O1 0.425648 0.563711 0.210995
O O2 0.263607 0.607810 0.361868
O O3 0.582596 0.371783 0.891246
O O4 0.582290 0.285765 0.985195
O O5 0.666541 0.425831 0.955295
O O6 0.256822 0.376182 0.083751
O O7 0.654963 0.147435 0.781508
O O8 0.470330 0.017345 0.866267
O O9 0.398577 0.114896 0.968613
O O10 0.654257 0.289199 0.774892
O O11 0.932942 0.381615 0.693158
O O12 0.768889 0.221473 0.829049
O O13 0.964962 0.220842 0.857696
O O14 0.635897 0.137921 0.966127
O O15 0.500000 0.000000 0.500000
O O16 0.500000 0.034130 0.250000
#
# Coordination Sequence:
#
# PCOD9267219 Si02
#       8
#     4   8   8   8   8   8   8   8
#     4  12  24  40  62  94 130 164 218 268 320 374
#     4  10  19  38  68  93 124 161 217 265 318 387
#     4  11  22  38  65  97 128 168 215 266 321 385
#     4  10  20  38  63  89 124 169 207 266 320 376
#     4   9  19  38  65  92 118 168 213 259 313 385
#     4  11  25  41  62  92 131 174 217 260 321 381
#     4  10  21  39  64  94 128 170 212 263 327 378
#     4   9  19  37  64  92 122 162 214 257 309 385
#
# _framework density 23.432597000000001
#
# number of rings (size 3 to 8) (size 9 to 14) (size 15 to 20)
#    0.000    1.867    2.667    1.200    1.867    4.800 
#    1.200    0.667    0.000    0.000    0.000    0.000 
#    0.000    0.000    0.000    0.000    0.000    0.000 
#
# Total GULP energy -167058.576038 kJ/mol
# GULP energy per Si atom -5568.619201 kJ/mol
# Density = 2.337926 g / cm^3
# Si number density = 23.432597 Si / 1000 Ang^3
#
#
#
# Elastic Constant Matrix: (Units=GPa)
#
#
# Indices 1 2 3 4 5 6 
#
# 1 58.6343 2.5442 21.3495 0.0014 -5.1905 0.0003
# 2 2.5442 88.0793 12.5898 -0.0155 -8.1671 0.0078
# 3 21.3495 12.5898 50.9811 -0.0122 -16.1368 0.0113
# 4 0.0014 -0.0155 -0.0122 21.8077 -0.0008 -9.9752
# 5 -5.1905 -8.1671 -16.1368 -0.0008 37.9869 -0.0009
# 6 0.0003 0.0078 0.0113 -9.9752 -0.0009 26.1564
#
#
#
# Elastic Compliance Matrix: (Units=1/GPa)
#
#
# Indices 1 2 3 4 5 6 
#
# 1 0.020184 0.000604 -0.008882 -0.000005 -0.000885 0.000001
# 2 0.000604 0.011861 -0.002714 0.000007 0.001480 0.000000
# 3 -0.008882 -0.002714 0.027077 0.000011 0.009705 -0.000006
# 4 -0.000005 0.000007 0.000011 0.055545 0.000007 0.021183
# 5 -0.000885 0.001480 0.009705 0.000007 0.030645 -0.000001
# 6 0.000001 0.000000 -0.000006 0.021183 -0.000001 0.046310
#
#
# Mechanical properties :
#
#
# Convention : Reuss Voigt Hill
#
# Bulk Modulus (GPa) = 26.92564 30.07352 28.49958
# Shear Modulus (GPa) = 22.12537 27.93761 25.03149
#
# Velocity S-wave (km/s) = 3.07614 3.45665 3.27193
# Velocity P-wave (km/s) = 4.91248 5.36592 5.14420
#
# Compressibility (1/GPa) = 0.03713931
#
# Stress axis : x y z
#
# Youngs Moduli (GPa) = 49.54324 84.30941 36.93191
#
# Poissons Ratio (x) = -0.05096 0.32804
# Poissons Ratio (y) = -0.02995 0.10023
# Poissons Ratio (z) = 0.44005 0.22880
#
# Static dielectric constant tensor:
#      x y z
#    x 1.944140 0.000000 0.018240 
#    y 0.000000 1.882940 0.000000 
#    z 0.018240 0.000000 1.884440 
# 
# From -- ./inp_files/293521.got.cif
#   From: 2010.05.17/outbox.cif.g08.bks.cpg/sg15_147_cif.got.tgz:293521.got - 2010.06.03 18:47:42.
