data_PCOD9267409
_publ_section_title
;
Structure prediction by ZEFSAII (Michael W. Deem and Ramdas Pophale) SiO2 
 PCOD9267409
Probable space group: C 2/C
;
_chemical_formula_sum "Si O2"
_cell_formula_units_Z 56
_cell_length_a 15.304264
_cell_length_b 12.096063
_cell_length_c 15.292030
_cell_angle_alpha 90.000000
_cell_angle_beta 93.534567
_cell_angle_gamma 90.000000
_cell_volume 2825.496166
_symmetry_space_group_name_H-M "C 2/C"
_symmetry_group_IT_number 15
_symmetry_cell_setting 'monoclinic'
loop_
_space_group_symop_operation_xyz
x,y,z
-x,y,1/2-z
-x,-y,-z
x,-y,1/2+z
1/2+x,1/2+y,z
1/2-x,1/2+y,1/2-z
1/2-x,1/2-y,-z
1/2+x,1/2-y,1/2+z
loop_
_atom_site_type_symbol
_atom_site_label
_atom_site_fract_x
_atom_site_fract_y
_atom_site_fract_z
Si Si1 0.032171 0.943701 0.910067
Si Si2 0.649512 0.212409 0.469671
Si Si3 0.867947 0.175043 0.359660
Si Si4 0.706074 0.344476 0.939757
Si Si5 0.906984 0.145619 0.697852
Si Si6 0.722365 0.996223 0.917955
Si Si7 0.267747 0.803063 0.209691
O O1 0.101227 0.846860 0.933755
O O2 0.951158 0.901494 0.847528
O O3 0.084621 0.030338 0.853249
O O4 0.000000 0.000000 0.000000
O O5 0.750000 0.250000 0.500000
O O6 0.602119 0.260208 0.551073
O O7 0.615318 0.269470 0.380674
O O8 0.646952 0.082738 0.450089
O O9 0.833653 0.266455 0.290177
O O10 0.789268 0.088375 0.374288
O O11 0.739649 0.310968 0.846305
O O12 0.750000 0.250000 0.000000
O O13 0.732483 0.455277 0.992035
O O14 0.825537 0.156638 0.758890
O O15 0.000000 0.166760 0.750000
O O16 0.700488 0.097466 0.851874
#
# Coordination Sequence:
#
# PCOD9267409 Si02
#       7
#     8   8   8   8   8   8   8
#     4  12  23  41  70 104 131 168 227 296 342 390
#     4  10  19  39  62  92 133 178 218 270 340 413
#     4  11  22  39  68 101 134 171 235 279 344 406
#     4  10  24  41  64  93 140 179 223 276 348 416
#     4  12  25  38  68 104 135 167 231 293 338 394
#     4  10  20  40  64  92 133 183 225 267 342 412
#     4  11  25  40  62 101 139 182 224 280 349 424
#
# _framework density 19.819527000000001
#
# number of rings (size 3 to 8) (size 9 to 14) (size 15 to 20)
#    0.000    1.143    5.714    1.714    6.000    0.000 
#    0.000    0.000    6.286    4.286    0.000    0.000 
#    0.000    0.000    0.000    0.000    0.000    0.000 
#
# Total GULP energy -156049.122091 kJ/mol
# GULP energy per Si atom -5573.182932 kJ/mol
# Density = 1.977442 g / cm^3
# Si number density = 19.819527 Si / 1000 Ang^3
#
#
#
# Elastic Constant Matrix: (Units=GPa)
#
#
# Indices 1 2 3 4 5 6 
#
# 1 66.0779 22.8945 17.2991 0.0000 4.0872 0.0000
# 2 22.8945 86.6388 34.2218 0.0000 0.6140 0.0000
# 3 17.2991 34.2218 93.0449 0.0000 0.3766 0.0000
# 4 0.0000 0.0000 0.0000 51.4517 0.0000 -1.6539
# 5 4.0872 0.6140 0.3766 0.0000 32.7335 0.0000
# 6 0.0000 0.0000 0.0000 -1.6539 0.0000 34.0675
#
#
#
# Elastic Compliance Matrix: (Units=1/GPa)
#
#
# Indices 1 2 3 4 5 6 
#
# 1 0.017035 -0.003790 -0.001765 0.000000 -0.002036 0.000000
# 2 -0.003790 0.014348 -0.004574 0.000000 0.000257 0.000000
# 3 -0.001765 -0.004574 0.012757 0.000000 0.000159 0.000000
# 4 0.000000 0.000000 0.000000 0.019466 0.000000 0.000945
# 5 -0.002036 0.000257 0.000159 0.000000 0.030797 0.000000
# 6 0.000000 0.000000 0.000000 0.000945 0.000000 0.029399
#
#
# Mechanical properties :
#
#
# Convention : Reuss Voigt Hill
#
# Bulk Modulus (GPa) = 41.87049 43.84359 42.85704
# Shear Modulus (GPa) = 32.89011 35.07363 33.98187
#
# Velocity S-wave (km/s) = 4.07809 4.21128 4.14522
# Velocity P-wave (km/s) = 6.58378 6.76875 6.67691
#
# Compressibility (1/GPa) = 0.02388317
#
# Stress axis : x y z
#
# Youngs Moduli (GPa) = 58.70361 69.69397 78.38693
#
# Poissons Ratio (x) = 0.26413 0.13835
# Poissons Ratio (y) = 0.22248 0.35852
# Poissons Ratio (z) = 0.10361 0.31876
#
# Static dielectric constant tensor:
#      x y z
#    x 1.779940 0.000000 -0.042320 
#    y 0.000000 1.715600 0.000000 
#    z -0.042320 0.000000 1.797330 
# 
# From -- ./inp_files/161686.got.cif
#   From: 2010.05.17/outbox.cif.g08.bks.cpg/sg15_81_cif.got.tgz:161686.got - 2010.06.03 18:47:42.
