data_PCOD9267556
_publ_section_title
;
Structure prediction by ZEFSAII (Michael W. Deem and Ramdas Pophale) SiO2 
 PCOD9267556
Probable space group: C 2/C
;
_chemical_formula_sum "Si O2"
_cell_formula_units_Z 52
_cell_length_a 18.515377
_cell_length_b 8.504335
_cell_length_c 19.232349
_cell_angle_alpha 90.000000
_cell_angle_beta 117.655185
_cell_angle_gamma 90.000000
_cell_volume 2682.376983
_symmetry_space_group_name_H-M "C 2/C"
_symmetry_group_IT_number 15
_symmetry_cell_setting 'monoclinic'
loop_
_space_group_symop_operation_xyz
x,y,z
-x,y,1/2-z
-x,-y,-z
x,-y,1/2+z
1/2+x,1/2+y,z
1/2-x,1/2+y,1/2-z
1/2-x,1/2-y,-z
1/2+x,1/2-y,1/2+z
loop_
_atom_site_type_symbol
_atom_site_label
_atom_site_fract_x
_atom_site_fract_y
_atom_site_fract_z
Si Si1 0.000000 0.945763 0.250000
Si Si2 0.634621 0.452654 0.069365
Si Si3 0.208719 0.242434 0.172731
Si Si4 0.083994 0.414054 0.021526
Si Si5 0.825707 0.971972 0.710828
Si Si6 0.026516 0.105995 0.915487
Si Si7 0.213823 0.343046 0.548259
O O1 0.921672 0.037297 0.242164
O O2 0.972455 0.863131 0.166143
O O3 0.697417 0.594206 0.114392
O O4 0.562597 0.445176 0.094969
O O5 0.677550 0.286236 0.084574
O O6 0.589119 0.477789 0.974967
O O7 0.135880 0.358039 0.112782
O O8 0.288865 0.353549 0.210855
O O9 0.198091 0.154209 0.241096
O O10 0.143105 0.529141 0.004573
O O11 0.056961 0.260677 0.968090
O O12 0.000000 0.500000 0.000000
O O13 0.785107 0.931218 0.619741
O O14 0.250000 0.250000 0.500000
#
# Coordination Sequence:
#
# PCOD9267556 Si02
#       7
#     4   8   8   8   8   8   8
#     4  12  24  38  60  96 126 162 206 274 322 374
#     4  10  19  39  66  88 120 170 210 254 321 392
#     4  10  22  39  63  92 120 169 213 256 315 394
#     4  10  21  39  64  91 121 167 222 259 307 389
#     4  11  24  40  63  91 128 166 212 263 322 382
#     4  10  21  37  63  92 124 165 212 259 321 387
#     4  11  23  38  62  93 126 162 209 269 318 374
#
# _framework density 19.385791000000001
#
# number of rings (size 3 to 8) (size 9 to 14) (size 15 to 20)
#    0.000    1.538    3.077    1.846    0.000    2.462 
#    0.000    6.154    0.000    4.615    0.000    0.000 
#    0.000    0.000    0.000    0.000    0.000    0.000 
#
# Total GULP energy -144872.929936 kJ/mol
# GULP energy per Si atom -5572.035767 kJ/mol
# Density = 1.934167 g / cm^3
# Si number density = 19.385791 Si / 1000 Ang^3
#
#
#
# Elastic Constant Matrix: (Units=GPa)
#
#
# Indices 1 2 3 4 5 6 
#
# 1 83.2204 34.3741 26.6118 0.0000 6.9215 0.0000
# 2 34.3741 80.3329 5.2478 0.0000 5.0264 0.0000
# 3 26.6118 5.2478 83.9168 0.0000 -12.0934 0.0000
# 4 0.0000 0.0000 0.0000 32.3078 0.0000 -1.0598
# 5 6.9215 5.0264 -12.0934 0.0000 24.1202 0.0000
# 6 0.0000 0.0000 0.0000 -1.0598 0.0000 24.4721
#
#
#
# Elastic Compliance Matrix: (Units=1/GPa)
#
#
# Indices 1 2 3 4 5 6 
#
# 1 0.017182 -0.006550 -0.005985 0.000000 -0.006566 0.000000
# 2 -0.006550 0.015234 0.001011 0.000000 -0.000788 0.000000
# 3 -0.005985 0.001011 0.015057 0.000000 0.009056 0.000000
# 4 0.000000 0.000000 0.000000 0.030996 0.000000 0.001342
# 5 -0.006566 -0.000788 0.009056 0.000000 0.048048 0.000000
# 6 0.000000 0.000000 0.000000 0.001342 0.000000 0.040921
#
#
# Mechanical properties :
#
#
# Convention : Reuss Voigt Hill
#
# Bulk Modulus (GPa) = 40.94447 42.21528 41.57987
# Shear Modulus (GPa) = 25.17261 28.26247 26.71754
#
# Velocity S-wave (km/s) = 3.60739 3.82238 3.71644
# Velocity P-wave (km/s) = 6.20627 6.42686 6.31752
#
# Compressibility (1/GPa) = 0.02442332
#
# Stress axis : x y z
#
# Youngs Moduli (GPa) = 58.20046 65.64136 66.41638
#
# Poissons Ratio (x) = 0.42997 0.39753
# Poissons Ratio (y) = 0.38123 -0.06714
# Poissons Ratio (z) = 0.34836 -0.06636
#
# Static dielectric constant tensor:
#      x y z
#    x 1.698710 0.000000 0.027250 
#    y 0.000000 1.692380 0.000000 
#    z 0.027250 0.000000 1.735420 
# 
# From -- ./inp_files/209217.got.cif
#   From: 2010.05.17/outbox.cif.g08.bks.cpg/sg15_105_cif.got.tgz:209217.got - 2010.06.03 18:47:42.
