data_PCOD9267016
_publ_section_title
;
Structure prediction by ZEFSAII (Michael W. Deem and Ramdas Pophale) SiO2 
 PCOD9267016
Probable space group: C 2/C
;
_chemical_formula_sum "Si O2"
_cell_formula_units_Z 44
_cell_length_a 9.653738
_cell_length_b 17.193038
_cell_length_c 12.927265
_cell_angle_alpha 90.000000
_cell_angle_beta 67.243656
_cell_angle_gamma 90.000000
_cell_volume 1978.609959
_symmetry_space_group_name_H-M "C 2/C"
_symmetry_group_IT_number 15
_symmetry_cell_setting 'monoclinic'
loop_
_space_group_symop_operation_xyz
x,y,z
-x,y,1/2-z
-x,-y,-z
x,-y,1/2+z
1/2+x,1/2+y,z
1/2-x,1/2+y,1/2-z
1/2-x,1/2-y,-z
1/2+x,1/2-y,1/2+z
loop_
_atom_site_type_symbol
_atom_site_label
_atom_site_fract_x
_atom_site_fract_y
_atom_site_fract_z
Si Si1 0.379663 0.944580 0.587976
Si Si2 0.669732 0.374167 0.306320
Si Si3 0.678128 0.425270 0.080938
Si Si4 0.500000 0.392461 0.750000
Si Si5 0.261330 0.462070 0.662294
Si Si6 0.721694 0.213540 0.398798
O O1 0.365910 0.945220 0.716010
O O2 0.400402 0.854906 0.554679
O O3 0.500000 0.000000 0.500000
O O4 0.223755 0.985545 0.595042
O O5 0.731776 0.383311 0.171087
O O6 0.494933 0.398884 0.368078
O O7 0.745320 0.444185 0.350231
O O8 0.686833 0.285869 0.335481
O O9 0.740135 0.417407 0.946309
O O10 0.416024 0.438545 0.679344
O O11 0.631818 0.334080 0.676666
O O12 0.750000 0.250000 0.500000
#
# Coordination Sequence:
#
# PCOD9267016 Si02
#       6
#     8   8   8   4   8   8
#     4  10  23  41  59  86 123 167 218 264 318 392
#     4  10  20  35  61  97 124 157 214 269 319 385
#     4  10  20  38  62  86 123 169 209 254 321 397
#     4  10  22  40  62  92 124 164 218 262 320 408
#     4  10  19  38  64  87 119 169 214 260 322 397
#     4  11  22  38  62  92 125 162 209 270 323 376
#
# _framework density 22.237835
#
# number of rings (size 3 to 8) (size 9 to 14) (size 15 to 20)
#    0.000    1.818    0.000    6.000    0.000    3.636 
#    0.000   11.818    0.000    0.000    0.000    0.000 
#    0.000    0.000    0.000    0.000    0.000    0.000 
#
# Total GULP energy -122521.544232 kJ/mol
# GULP energy per Si atom -5569.161101 kJ/mol
# Density = 2.218722 g / cm^3
# Si number density = 22.237835 Si / 1000 Ang^3
#
#
#
# Elastic Constant Matrix: (Units=GPa)
#
#
# Indices 1 2 3 4 5 6 
#
# 1 55.4956 44.0108 39.2892 0.0000 4.6501 0.0000
# 2 44.0108 209.9676 70.3017 0.0000 9.6182 0.0000
# 3 39.2892 70.3017 188.7541 0.0000 20.0400 0.0000
# 4 0.0000 0.0000 0.0000 23.1875 0.0000 -4.0886
# 5 4.6501 9.6182 20.0400 0.0000 35.0057 0.0000
# 6 0.0000 0.0000 0.0000 -4.0886 0.0000 32.8125
#
#
#
# Elastic Compliance Matrix: (Units=1/GPa)
#
#
# Indices 1 2 3 4 5 6 
#
# 1 0.023463 -0.003749 -0.003477 0.000000 -0.000096 0.000000
# 2 -0.003749 0.006045 -0.001435 0.000000 -0.000341 0.000000
# 3 -0.003477 -0.001435 0.006883 0.000000 -0.003085 0.000000
# 4 0.000000 0.000000 0.000000 0.044095 0.000000 0.005495
# 5 -0.000096 -0.000341 -0.003085 0.000000 0.030439 0.000000
# 6 0.000000 0.000000 0.000000 0.005495 0.000000 0.031161
#
#
# Mechanical properties :
#
#
# Convention : Reuss Voigt Hill
#
# Bulk Modulus (GPa) = 52.44261 84.60230 68.52245
# Shear Modulus (GPa) = 30.16331 38.24218 34.20275
#
# Velocity S-wave (km/s) = 3.68692 4.15141 3.92604
# Velocity P-wave (km/s) = 6.46207 7.81702 7.17162
#
# Compressibility (1/GPa) = 0.01906846
#
# Stress axis : x y z
#
# Youngs Moduli (GPa) = 42.62110 165.43954 145.27554
#
# Poissons Ratio (x) = 0.62029 0.50514
# Poissons Ratio (y) = 0.15980 0.20841
# Poissons Ratio (z) = 0.14820 0.23734
#
# Static dielectric constant tensor:
#      x y z
#    x 1.961690 0.000000 -0.051790 
#    y 0.000000 1.887020 0.000000 
#    z -0.051790 0.000000 1.891230 
# 
# From -- ./inp_files/143364.got.cif
#   From: 2010.05.17/outbox.cif.g08.bks.cpg/sg15_72_cif.got.tgz:143364.got - 2010.06.03 18:47:42.
