data_PCOD9267574
_publ_section_title
;
Structure prediction by ZEFSAII (Michael W. Deem and Ramdas Pophale) SiO2 
 PCOD9267574
Probable space group: C 2/C
;
_chemical_formula_sum "Si O2"
_cell_formula_units_Z 36
_cell_length_a 12.358535
_cell_length_b 14.022401
_cell_length_c 13.324748
_cell_angle_alpha 90.000000
_cell_angle_beta 142.118884
_cell_angle_gamma 90.000000
_cell_volume 1417.863749
_symmetry_space_group_name_H-M "C 2/C"
_symmetry_group_IT_number 15
_symmetry_cell_setting 'monoclinic'
loop_
_space_group_symop_operation_xyz
x,y,z
-x,y,1/2-z
-x,-y,-z
x,-y,1/2+z
1/2+x,1/2+y,z
1/2-x,1/2+y,1/2-z
1/2-x,1/2-y,-z
1/2+x,1/2-y,1/2+z
loop_
_atom_site_type_symbol
_atom_site_label
_atom_site_fract_x
_atom_site_fract_y
_atom_site_fract_z
Si Si1 0.000000 0.649725 0.250000
Si Si2 0.331298 0.481466 0.001023
Si Si3 0.903112 0.814539 0.572439
Si Si4 0.227679 0.989544 0.305523
Si Si5 0.479618 0.164588 0.462041
O O1 0.021032 0.697355 0.376402
O O2 0.171911 0.585362 0.352708
O O3 0.314519 0.591764 0.961414
O O4 0.534687 0.461994 0.123771
O O5 0.302555 0.481406 0.098649
O O6 0.750000 0.750000 0.500000
O O7 0.988016 0.752503 0.545220
O O8 0.000000 0.838365 0.750000
O O9 0.375315 0.911162 0.393031
O O10 0.302425 0.096659 0.337858
#
# Coordination Sequence:
#
# PCOD9267574 Si02
#       5
#     4   8   8   8   8
#     4  10  24  40  70 100 144 194 228 282 346 430
#     4  10  19  39  66  99 133 185 239 290 345 406
#     4  12  23  38  68 107 138 177 227 304 353 399
#     4   9  18  38  60  94 136 180 237 286 342 414
#     4  10  21  39  63 103 143 184 230 287 356 414
#
# _framework density 25.390309999999999
#
# number of rings (size 3 to 8) (size 9 to 14) (size 15 to 20)
#    0.000    1.778    4.444    0.000    1.556    0.889 
#    0.000    2.222    0.000    5.333    5.778    3.111 
#    0.000   16.000    0.000    0.000    0.000    0.000 
#
# Total GULP energy -100407.642425 kJ/mol
# GULP energy per Si atom -5578.202357 kJ/mol
# Density = 2.533252 g / cm^3
# Si number density = 25.390310 Si / 1000 Ang^3
#
#
#
# Elastic Constant Matrix: (Units=GPa)
#
#
# Indices 1 2 3 4 5 6 
#
# 1 141.6553 40.0063 68.0779 0.0002 -30.0960 0.0001
# 2 40.0063 48.3544 5.9577 0.0002 2.2311 0.0001
# 3 68.0779 5.9577 91.4125 0.0004 -1.7412 0.0003
# 4 0.0002 0.0002 0.0004 3.3321 0.0002 9.5130
# 5 -30.0960 2.2311 -1.7412 0.0002 68.5721 0.0001
# 6 0.0001 0.0001 0.0003 9.5130 0.0001 48.3350
#
#
#
# Elastic Compliance Matrix: (Units=1/GPa)
#
#
# Indices 1 2 3 4 5 6 
#
# 1 0.019627 -0.014983 -0.013474 0.000003 0.008760 0.000000
# 2 -0.014983 0.032320 0.008911 -0.000005 -0.007401 0.000001
# 3 -0.013474 0.008911 0.020285 -0.000005 -0.005688 0.000001
# 4 0.000003 -0.000005 -0.000005 0.685034 -0.000001 -0.134825
# 5 0.008760 -0.007401 -0.005688 -0.000001 0.018524 0.000000
# 6 0.000000 0.000001 0.000001 -0.134825 0.000000 0.047224
#
#
# Mechanical properties :
#
#
# Convention : Reuss Voigt Hill
#
# Bulk Modulus (GPa) = 30.17433 56.61180 43.39306
# Shear Modulus (GPa) = 5.72637 35.20652 20.46645
#
# Velocity S-wave (km/s) = 1.50341 3.72776 2.84222
# Velocity P-wave (km/s) = 3.86311 6.39322 5.28190
#
# Compressibility (1/GPa) = 0.03314076
#
# Stress axis : x y z
#
# Youngs Moduli (GPa) = 50.94962 30.94024 49.29840
#
# Poissons Ratio (x) = 0.46357 0.66423
# Poissons Ratio (y) = 0.76337 -0.43929
# Poissons Ratio (z) = 0.68648 -0.27570
#
# Static dielectric constant tensor:
#      x y z
#    x 2.495360 0.000000 -0.349690 
#    y 0.000000 1.978890 0.000000 
#    z -0.349690 0.000000 2.330610 
# 
# From -- ./inp_files/144448.got.cif
#   From: 2010.05.17/outbox.cif.g08.bks.cpg/sg15_73_cif.got.tgz:144448.got - 2010.06.03 18:47:42.
