data_PCOD9267560
_publ_section_title
;
Structure prediction by ZEFSAII (Michael W. Deem and Ramdas Pophale) SiO2 
 PCOD9267560
Probable space group: C 2/C
;
_chemical_formula_sum "Si O2"
_cell_formula_units_Z 52
_cell_length_a 13.734611
_cell_length_b 12.653948
_cell_length_c 23.734119
_cell_angle_alpha 90.000000
_cell_angle_beta 142.605248
_cell_angle_gamma 90.000000
_cell_volume 2505.076559
_symmetry_space_group_name_H-M "C 2/C"
_symmetry_group_IT_number 15
_symmetry_cell_setting 'monoclinic'
loop_
_space_group_symop_operation_xyz
x,y,z
-x,y,1/2-z
-x,-y,-z
x,-y,1/2+z
1/2+x,1/2+y,z
1/2-x,1/2+y,1/2-z
1/2-x,1/2-y,-z
1/2+x,1/2-y,1/2+z
loop_
_atom_site_type_symbol
_atom_site_label
_atom_site_fract_x
_atom_site_fract_y
_atom_site_fract_z
Si Si1 0.759169 0.994003 0.294201
Si Si2 0.019555 0.156925 0.543867
Si Si3 0.479713 0.399307 0.303668
Si Si4 0.580969 0.187371 0.173182
Si Si5 0.500000 0.873277 0.250000
Si Si6 0.254319 0.066417 0.020178
Si Si7 0.735258 0.676569 0.546782
O O1 0.896945 0.955546 0.401087
O O2 0.825311 0.944687 0.266097
O O3 0.603039 0.944192 0.253266
O O4 0.723201 0.114341 0.261593
O O5 0.095870 0.241407 0.623338
O O6 0.069761 0.188627 0.504840
O O7 0.835123 0.139917 0.474466
O O8 0.500000 0.437825 0.250000
O O9 0.460914 0.273353 0.298912
O O10 0.638144 0.425219 0.412854
O O11 0.430323 0.111265 0.092171
O O12 0.624154 0.804839 0.343138
O O13 0.255132 0.945578 0.039122
O O14 0.750000 0.750000 0.500000
#
# Coordination Sequence:
#
# PCOD9267560 Si02
#       7
#     8   8   8   8   4   8   8
#     4   9  19  38  61  87 121 161 204 251 302 366
#     4   9  21  39  60  91 126 157 205 257 306 368
#     4  10  23  40  58  94 129 158 205 259 316 365
#     4  10  19  39  66  90 117 165 209 253 307 364
#     4  10  20  42  62  88 124 160 216 252 288 382
#     4  10  20  42  62  89 122 161 212 248 310 369
#     4  11  23  41  61  92 123 166 208 248 314 368
#
# _framework density 20.757847999999999
#
# number of rings (size 3 to 8) (size 9 to 14) (size 15 to 20)
#    0.000    2.462    1.538    2.308    1.077    1.231 
#   23.538    1.538    0.000    0.000    0.000    0.000 
#    0.000    0.000    0.000    0.000    0.000    0.000 
#
# Total GULP energy -145005.365698 kJ/mol
# GULP energy per Si atom -5577.129450 kJ/mol
# Density = 2.071060 g / cm^3
# Si number density = 20.757848 Si / 1000 Ang^3
#
#
#
# Elastic Constant Matrix: (Units=GPa)
#
#
# Indices 1 2 3 4 5 6 
#
# 1 121.6258 31.9029 42.3243 0.0000 -31.2231 0.0000
# 2 31.9029 58.3566 40.7244 0.0000 -11.6521 0.0000
# 3 42.3243 40.7244 66.6677 0.0000 -8.4094 0.0000
# 4 0.0000 0.0000 0.0000 20.7837 0.0000 3.1446
# 5 -31.2231 -11.6521 -8.4094 0.0000 29.3229 0.0000
# 6 0.0000 0.0000 0.0000 3.1446 0.0000 12.8097
#
#
#
# Elastic Compliance Matrix: (Units=1/GPa)
#
#
# Indices 1 2 3 4 5 6 
#
# 1 0.014075 -0.000036 -0.007288 0.000000 0.012882 0.000000
# 2 -0.000036 0.031272 -0.018174 0.000000 0.007176 0.000000
# 3 -0.007288 -0.018174 0.029921 0.000000 -0.006402 0.000000
# 4 0.000000 0.000000 0.000000 0.049971 0.000000 -0.012267
# 5 0.012882 0.007176 -0.006402 0.000000 0.048836 0.000000
# 6 0.000000 0.000000 0.000000 -0.012267 0.000000 0.081077
#
#
# Mechanical properties :
#
#
# Convention : Reuss Voigt Hill
#
# Bulk Modulus (GPa) = 41.20334 52.95037 47.07685
# Shear Modulus (GPa) = 15.91145 21.36316 18.63731
#
# Velocity S-wave (km/s) = 2.77163 3.21153 2.99966
# Velocity P-wave (km/s) = 5.48955 6.27024 5.89284
#
# Compressibility (1/GPa) = 0.02426988
#
# Stress axis : x y z
#
# Youngs Moduli (GPa) = 71.04914 31.97786 33.42092
#
# Poissons Ratio (x) = 0.00115 0.24359
# Poissons Ratio (y) = 0.00256 0.60741
# Poissons Ratio (z) = 0.51784 0.58118
#
# Static dielectric constant tensor:
#      x y z
#    x 1.781150 0.000000 0.009920 
#    y 0.000000 1.744980 0.000000 
#    z 0.009920 0.000000 1.804200 
# 
# From -- ./inp_files/273897.got.cif
#   From: 2010.05.17/outbox.cif.g08.bks.cpg/sg15_137_cif.got.tgz:273897.got - 2010.06.03 18:47:42.
