data_PCOD9267055
_publ_section_title
;
Structure prediction by ZEFSAII (Michael W. Deem and Ramdas Pophale) SiO2 
 PCOD9267055
Probable space group: C 2/C
;
_chemical_formula_sum "Si O2"
_cell_formula_units_Z 64
_cell_length_a 24.075978
_cell_length_b 15.570672
_cell_length_c 13.985034
_cell_angle_alpha 90.000000
_cell_angle_beta 29.796333
_cell_angle_gamma 90.000000
_cell_volume 2605.193093
_symmetry_space_group_name_H-M "C 2/C"
_symmetry_group_IT_number 15
_symmetry_cell_setting 'monoclinic'
loop_
_space_group_symop_operation_xyz
x,y,z
-x,y,1/2-z
-x,-y,-z
x,-y,1/2+z
1/2+x,1/2+y,z
1/2-x,1/2+y,1/2-z
1/2-x,1/2-y,-z
1/2+x,1/2-y,1/2+z
loop_
_atom_site_type_symbol
_atom_site_label
_atom_site_fract_x
_atom_site_fract_y
_atom_site_fract_z
Si Si1 0.297310 0.469852 0.622404
Si Si2 0.457633 0.405939 0.535988
Si Si3 0.086463 0.396935 0.049773
Si Si4 0.682217 0.301458 0.226000
Si Si5 0.030085 0.648354 0.426501
Si Si6 0.299100 0.942577 0.929678
Si Si7 0.771208 0.665711 0.790708
Si Si8 0.758131 0.643764 0.030826
O O1 0.399790 0.423666 0.520766
O O2 0.285629 0.434599 0.533264
O O3 0.291680 0.573134 0.626391
O O4 0.187345 0.447696 0.849058
O O5 0.500000 0.500000 0.500000
O O6 0.567136 0.351590 0.385953
O O7 0.364005 0.358469 0.739459
O O8 0.000000 0.443643 0.250000
O O9 0.023831 0.359428 0.050617
O O10 0.147110 0.331366 0.033128
O O11 0.636008 0.212644 0.250038
O O12 0.722082 0.282642 0.274080
O O13 0.770733 0.369503 0.049505
O O14 0.078439 0.564980 0.300943
O O15 0.905890 0.665311 0.575196
O O16 0.280860 0.040176 0.989017
O O17 0.760127 0.682533 0.921391
#
# Coordination Sequence:
#
# PCOD9267055 Si02
#       8
#     8   8   8   8   8   8   8   8
#     4   9  21  37  67  99 125 157 216 278 318 371
#     4  11  20  42  65  97 125 167 216 270 319 367
#     4  10  19  38  64  92 129 164 208 262 328 375
#     4  12  25  45  64  91 136 176 213 258 322 398
#     4  11  26  42  64  94 135 176 211 258 327 403
#     4  10  22  42  66  97 128 167 219 274 320 379
#     4  11  23  42  62  99 127 166 220 264 323 388
#     4  10  21  39  69 100 124 161 220 282 323 369
#
# _framework density 24.566317000000002
#
# number of rings (size 3 to 8) (size 9 to 14) (size 15 to 20)
#    0.000    1.500    3.750    1.125    1.750    6.000 
#    2.250    2.500    0.000    0.000    0.000    0.000 
#    0.000    0.000    0.000    0.000    0.000    0.000 
#
# Total GULP energy -178622.113485 kJ/mol
# GULP energy per Si atom -5581.941046 kJ/mol
# Density = 2.451040 g / cm^3
# Si number density = 24.566317 Si / 1000 Ang^3
#
#
#
# Elastic Constant Matrix: (Units=GPa)
#
#
# Indices 1 2 3 4 5 6 
#
# 1 170.4279 21.5224 47.6398 0.0000 -17.2010 0.0000
# 2 21.5224 42.6355 3.9386 0.0000 0.9468 0.0000
# 3 47.6398 3.9386 59.9192 0.0000 -0.4045 0.0000
# 4 0.0000 0.0000 0.0000 26.7343 0.0000 12.7629
# 5 -17.2010 0.9468 -0.4045 0.0000 37.4678 0.0000
# 6 0.0000 0.0000 0.0000 12.7629 0.0000 38.1163
#
#
#
# Elastic Compliance Matrix: (Units=1/GPa)
#
#
# Indices 1 2 3 4 5 6 
#
# 1 0.008578 -0.003814 -0.006543 0.000000 0.003964 0.000000
# 2 -0.003814 0.025308 0.001353 0.000000 -0.002376 0.000000
# 3 -0.006543 0.001353 0.021783 0.000000 -0.002803 0.000000
# 4 0.000000 0.000000 0.000000 0.044522 0.000000 -0.014908
# 5 0.003964 -0.002376 -0.002803 0.000000 0.028539 0.000000
# 6 0.000000 0.000000 0.000000 -0.014908 0.000000 0.031227
#
#
# Mechanical properties :
#
#
# Convention : Reuss Voigt Hill
#
# Bulk Modulus (GPa) = 26.55251 46.57602 36.56427
# Shear Modulus (GPa) = 26.24409 33.78914 30.01661
#
# Velocity S-wave (km/s) = 3.27202 3.71270 3.49930
# Velocity P-wave (km/s) = 5.01067 6.11386 5.58955
#
# Compressibility (1/GPa) = 0.03766122
#
# Stress axis : x y z
#
# Youngs Moduli (GPa) = 116.57477 39.51375 45.90687
#
# Poissons Ratio (x) = 0.15070 0.30036
# Poissons Ratio (y) = 0.44460 -0.06210
# Poissons Ratio (z) = 0.76272 -0.05345
#
# Static dielectric constant tensor:
#      x y z
#    x 2.205120 0.000000 -0.009770 
#    y 0.000000 2.021910 0.000000 
#    z -0.009770 0.000000 1.948850 
# 
# From -- ./inp_files/174225.got.cif
#   From: 2010.05.17/outbox.cif.g08.bks.cpg/sg15_88_cif.got.tgz:174225.got - 2010.06.03 18:47:42.
