data_PCOD9267726
_publ_section_title
;
Structure prediction by ZEFSAII (Michael W. Deem and Ramdas Pophale) SiO2 
 PCOD9267726
Probable space group: C 2/C
;
_chemical_formula_sum "Si O2"
_cell_formula_units_Z 60
_cell_length_a 25.964014
_cell_length_b 5.801392
_cell_length_c 16.357490
_cell_angle_alpha 90.000000
_cell_angle_beta 67.867612
_cell_angle_gamma 90.000000
_cell_volume 2282.337086
_symmetry_space_group_name_H-M "C 2/C"
_symmetry_group_IT_number 15
_symmetry_cell_setting 'monoclinic'
loop_
_space_group_symop_operation_xyz
x,y,z
-x,y,1/2-z
-x,-y,-z
x,-y,1/2+z
1/2+x,1/2+y,z
1/2-x,1/2+y,1/2-z
1/2-x,1/2-y,-z
1/2+x,1/2-y,1/2+z
loop_
_atom_site_type_symbol
_atom_site_label
_atom_site_fract_x
_atom_site_fract_y
_atom_site_fract_z
Si Si1 0.927435 0.196650 0.191649
Si Si2 0.500000 0.409135 0.250000
Si Si3 0.834813 0.170130 0.708996
Si Si4 0.267517 0.772944 0.124458
Si Si5 0.100533 0.300997 0.466755
Si Si6 0.395558 0.906760 0.811307
Si Si7 0.875387 0.201916 0.501420
Si Si8 0.792482 0.467592 0.453926
O O1 0.981087 0.046982 0.181430
O O2 0.871339 0.045512 0.217765
O O3 0.933345 0.303688 0.098149
O O4 0.920296 0.343521 0.278814
O O5 0.553639 0.255328 0.201397
O O6 0.771471 0.159279 0.777004
O O7 0.865529 0.369052 0.741613
O O8 0.845121 0.207761 0.608131
O O9 0.333290 0.787556 0.096894
O O10 0.245738 0.527829 0.100801
O O11 0.260292 0.950299 0.053353
O O12 0.094319 0.047122 0.513575
O O13 0.091045 0.551458 0.515923
O O14 0.344958 0.866457 0.902884
O O15 0.828248 0.242924 0.459187
#
# Coordination Sequence:
#
# PCOD9267726 Si02
#       8
#     8   4   8   8   8   8   8   8
#     4  10  20  38  61  98 120 166 219 288 324 401
#     4  10  22  38  70  94 122 160 224 288 354 400
#     4   9  19  36  60  88 131 174 225 258 310 388
#     4   9  19  39  58  92 133 185 219 259 314 395
#     4  10  21  37  61  85 130 168 222 261 311 378
#     4  10  19  40  62  93 125 164 213 281 342 396
#     4  10  20  38  57  89 124 180 215 266 306 374
#     4   9  20  38  60  93 137 174 218 272 328 389
#
# _framework density 26.288844000000001
#
# number of rings (size 3 to 8) (size 9 to 14) (size 15 to 20)
#    0.000    2.400    1.333    0.400    0.000    4.800 
#   26.400    0.000    0.000   10.400    0.000    0.000 
#    0.000    0.000    0.000    0.000    0.000    0.000 
#
# Total GULP energy -167286.495678 kJ/mol
# GULP energy per Si atom -5576.216523 kJ/mol
# Density = 2.622901 g / cm^3
# Si number density = 26.288844 Si / 1000 Ang^3
#
#
#
# Elastic Constant Matrix: (Units=GPa)
#
#
# Indices 1 2 3 4 5 6 
#
# 1 120.2834 35.9310 28.9451 0.0000 9.2411 0.0000
# 2 35.9310 129.0371 16.3815 0.0000 9.2402 0.0000
# 3 28.9451 16.3815 74.2338 0.0000 4.4507 0.0000
# 4 0.0000 0.0000 0.0000 19.2463 0.0000 25.5437
# 5 9.2411 9.2402 4.4507 0.0000 37.5752 0.0000
# 6 0.0000 0.0000 0.0000 25.5437 0.0000 37.1639
#
#
#
# Elastic Compliance Matrix: (Units=1/GPa)
#
#
# Indices 1 2 3 4 5 6 
#
# 1 0.009882 -0.002229 -0.003272 0.000000 -0.001495 0.000000
# 2 -0.002229 0.008594 -0.000940 0.000000 -0.001454 0.000000
# 3 -0.003272 -0.000940 0.014998 0.000000 -0.000741 0.000000
# 4 0.000000 0.000000 0.000000 0.591896 0.000000 -0.406826
# 5 -0.001495 -0.001454 -0.000741 0.000000 0.027426 0.000000
# 6 0.000000 0.000000 0.000000 -0.406826 0.000000 0.306530
#
#
# Mechanical properties :
#
#
# Convention : Reuss Voigt Hill
#
# Bulk Modulus (GPa) = 48.56167 54.00773 51.28470
# Shear Modulus (GPa) = 5.10688 34.95020 20.02854
#
# Velocity S-wave (km/s) = 1.39528 3.65014 2.76318
# Velocity P-wave (km/s) = 4.59437 6.19300 5.45259
#
# Compressibility (1/GPa) = 0.02059237
#
# Stress axis : x y z
#
# Youngs Moduli (GPa) = 101.19715 116.36158 66.67356
#
# Poissons Ratio (x) = 0.25940 0.21812
# Poissons Ratio (y) = 0.22559 0.06268
# Poissons Ratio (z) = 0.33107 0.10939
#
# Static dielectric constant tensor:
#      x y z
#    x 2.021750 0.000000 0.053420 
#    y 0.000000 2.266850 0.000000 
#    z 0.053420 0.000000 2.104350 
# 
# From -- ./inp_files/256539.got.cif
#   From: 2010.05.17/outbox.cif.g08.bks.cpg/sg15_129_cif.got.tgz:256539.got - 2010.06.03 18:47:42.
