data_PCOD9267861
_publ_section_title
;
Structure prediction by ZEFSAII (Michael W. Deem and Ramdas Pophale) SiO2 
 PCOD9267861
Probable space group: C 2/C
;
_chemical_formula_sum "Si O2"
_cell_formula_units_Z 36
_cell_length_a 7.719548
_cell_length_b 17.945014
_cell_length_c 14.056231
_cell_angle_alpha 90.000000
_cell_angle_beta 90.263912
_cell_angle_gamma 90.000000
_cell_volume 1947.152435
_symmetry_space_group_name_H-M "C 2/C"
_symmetry_group_IT_number 15
_symmetry_cell_setting 'monoclinic'
loop_
_space_group_symop_operation_xyz
x,y,z
-x,y,1/2-z
-x,-y,-z
x,-y,1/2+z
1/2+x,1/2+y,z
1/2-x,1/2+y,1/2-z
1/2-x,1/2-y,-z
1/2+x,1/2-y,1/2+z
loop_
_atom_site_type_symbol
_atom_site_label
_atom_site_fract_x
_atom_site_fract_y
_atom_site_fract_z
Si Si1 0.259981 0.161520 0.509759
Si Si2 0.500000 0.471740 0.750000
Si Si3 0.440782 0.906963 0.356676
Si Si4 0.454106 0.615815 0.643724
Si Si5 0.149195 0.420784 0.682889
O O1 0.250000 0.250000 0.500000
O O2 0.415624 0.126923 0.573736
O O3 0.291846 0.126665 0.406596
O O4 0.081381 0.140803 0.562033
O O5 0.490031 0.527730 0.660518
O O6 0.319949 0.430094 0.747997
O O7 0.500000 0.887543 0.250000
O O8 0.249066 0.875241 0.375776
O O9 0.418486 0.997516 0.353999
O O10 0.500000 0.647579 0.750000
O O11 0.000000 0.388742 0.750000
#
# Coordination Sequence:
#
# PCOD9267861 Si02
#       5
#     8   4   8   8   8
#     4  12  25  37  55  95 124 162 200 237 308 374
#     4   8  18  38  66  90 110 152 206 256 308 330
#     4  10  19  40  68  85 112 159 208 250 302 350
#     4   9  18  38  62  83 113 150 199 250 293 354
#     4  10  21  39  62  89 121 154 207 258 294 349
#
# _framework density 18.488537999999998
#
# number of rings (size 3 to 8) (size 9 to 14) (size 15 to 20)
#    0.667    1.333    2.222    2.000    0.000    7.111 
#    2.000    0.000    0.000    0.000    0.000    0.000 
#    0.000    0.000    0.000    0.000    0.000    0.000 
#
# Total GULP energy -100261.766724 kJ/mol
# GULP energy per Si atom -5570.098151 kJ/mol
# Density = 1.844646 g / cm^3
# Si number density = 18.488538 Si / 1000 Ang^3
#
#
#
# Elastic Constant Matrix: (Units=GPa)
#
#
# Indices 1 2 3 4 5 6 
#
# 1 161.8003 45.7760 66.7024 0.0000 -35.0066 0.0000
# 2 45.7760 38.2899 26.5122 0.0000 -15.2012 0.0000
# 3 66.7024 26.5122 90.9167 0.0000 -42.4288 0.0000
# 4 0.0000 0.0000 0.0000 35.1608 0.0000 -12.2527
# 5 -35.0066 -15.2012 -42.4288 0.0000 42.8457 0.0000
# 6 0.0000 0.0000 0.0000 -12.2527 0.0000 -0.3262
#
#
#
# Elastic Compliance Matrix: (Units=1/GPa)
#
#
# Indices 1 2 3 4 5 6 
#
# 1 0.011100 -0.009497 -0.005046 0.000000 0.000702 0.000000
# 2 -0.009497 0.041225 -0.003439 0.000000 0.003462 0.000000
# 3 -0.005046 -0.003439 0.024561 0.000000 0.018979 0.000000
# 4 0.000000 0.000000 0.000000 0.002019 0.000000 -0.075822
# 5 0.000702 0.003462 0.018979 0.000000 0.043936 0.000000
# 6 0.000000 0.000000 0.000000 -0.075822 0.000000 -0.217582
#
#
# Mechanical properties :
#
#
# Convention : Reuss Voigt Hill
#
# Bulk Modulus (GPa) = 24.43625 63.22090 43.82857
# Shear Modulus (GPa) = -110.77538 25.67048 -42.55245
#
# Velocity S-wave (km/s) = -7.74892 3.73024 -4.80266
# Velocity P-wave (km/s) = 8.17407 7.26786 2.64515
#
# Compressibility (1/GPa) = 0.04092282
#
# Stress axis : x y z
#
# Youngs Moduli (GPa) = 90.09412 24.25696 40.71436
#
# Poissons Ratio (x) = 0.23036 0.20546
# Poissons Ratio (y) = 0.85560 0.14000
# Poissons Ratio (z) = 0.45464 0.08341
#
# Static dielectric constant tensor:
#      x y z
#    x 1.631330 0.000000 0.070030 
#    y 0.000000 1.642950 0.000000 
#    z 0.070030 0.000000 1.519070 
# 
# From -- ./inp_files/133490.got.cif
#   From: 2010.05.17/outbox.cif.g08.bks.cpg/sg15_67_cif.got.tgz:133490.got - 2010.06.03 18:47:42.
