data_PCOD9267252
_publ_section_title
;
Structure prediction by ZEFSAII (Michael W. Deem and Ramdas Pophale) SiO2 
 PCOD9267252
Probable space group: C 2/C
;
_chemical_formula_sum "Si O2"
_cell_formula_units_Z 44
_cell_length_a 28.119694
_cell_length_b 15.786553
_cell_length_c 12.991293
_cell_angle_alpha 90.000000
_cell_angle_beta 20.382551
_cell_angle_gamma 90.000000
_cell_volume 2008.570279
_symmetry_space_group_name_H-M "C 2/C"
_symmetry_group_IT_number 15
_symmetry_cell_setting 'monoclinic'
loop_
_space_group_symop_operation_xyz
x,y,z
-x,y,1/2-z
-x,-y,-z
x,-y,1/2+z
1/2+x,1/2+y,z
1/2-x,1/2+y,1/2-z
1/2-x,1/2-y,-z
1/2+x,1/2-y,1/2+z
loop_
_atom_site_type_symbol
_atom_site_label
_atom_site_fract_x
_atom_site_fract_y
_atom_site_fract_z
Si Si1 0.089224 0.414667 0.216621
Si Si2 0.694935 0.016920 0.197899
Si Si3 0.411216 0.245035 0.653406
Si Si4 0.000000 0.332202 0.750000
Si Si5 0.256866 0.547278 0.770222
Si Si6 0.070861 0.087620 0.889748
O O1 0.139533 0.457093 0.220859
O O2 0.051248 0.321530 0.332278
O O3 0.945880 0.451105 0.468539
O O4 0.210241 0.452033 0.900183
O O5 0.786669 0.964038 0.090216
O O6 0.785944 0.089610 0.963940
O O7 0.448781 0.216957 0.458617
O O8 0.481094 0.333673 0.538489
O O9 0.250000 0.250000 0.000000
O O10 0.125264 0.390475 0.537635
O O11 0.375940 0.580788 0.601056
O O12 0.000000 0.000000 0.000000
#
# Coordination Sequence:
#
# PCOD9267252 Si02
#       6
#     8   8   8   4   8   8
#     4  10  19  38  71 101 135 182 228 297 356 419
#     4  10  19  39  68 100 136 179 238 286 354 441
#     4  12  26  46  67 103 150 185 246 308 364 430
#     4  12  24  44  78 104 132 196 236 296 372 436
#     4  11  21  42  75 105 140 187 245 291 365 448
#     4  11  27  43  64  97 143 193 229 302 368 418
#
# _framework density 21.906129
#
# number of rings (size 3 to 8) (size 9 to 14) (size 15 to 20)
#    0.000    1.091    3.636    4.364    0.000    6.545 
#    0.000    1.818    0.000    0.000    0.000    0.000 
#    0.000    0.000    0.000    0.000    0.000    0.000 
#
# Total GULP energy -122612.654442 kJ/mol
# GULP energy per Si atom -5573.302475 kJ/mol
# Density = 2.185627 g / cm^3
# Si number density = 21.906129 Si / 1000 Ang^3
#
#
#
# Elastic Constant Matrix: (Units=GPa)
#
#
# Indices 1 2 3 4 5 6 
#
# 1 151.9895 47.0466 39.7852 0.0000 -21.7567 0.0000
# 2 47.0466 129.6600 46.7608 0.0000 -11.5676 0.0000
# 3 39.7852 46.7608 85.4577 -0.0001 -5.8756 0.0000
# 4 0.0000 0.0000 -0.0001 19.5212 0.0001 -16.7818
# 5 -21.7567 -11.5676 -5.8756 0.0001 39.9800 0.0000
# 6 0.0000 0.0000 0.0000 -16.7818 0.0000 26.5390
#
#
#
# Elastic Compliance Matrix: (Units=1/GPa)
#
#
# Indices 1 2 3 4 5 6 
#
# 1 0.008340 -0.001733 -0.002684 0.000000 0.003643 0.000000
# 2 -0.001733 0.010134 -0.004649 0.000000 0.001306 0.000000
# 3 -0.002684 -0.004649 0.015458 0.000000 -0.000534 0.000000
# 4 0.000000 0.000000 0.000000 0.112241 0.000000 0.070975
# 5 0.003643 0.001306 -0.000534 0.000000 0.027294 0.000000
# 6 0.000000 0.000000 0.000000 0.070975 0.000000 0.082561
#
#
# Mechanical properties :
#
#
# Convention : Reuss Voigt Hill
#
# Bulk Modulus (GPa) = 63.28731 70.47693 66.88212
# Shear Modulus (GPa) = 17.89376 32.77569 25.33473
#
# Velocity S-wave (km/s) = 2.86114 3.87226 3.40444
# Velocity P-wave (km/s) = 6.31409 7.22735 6.78610
#
# Compressibility (1/GPa) = 0.01580096
#
# Stress axis : x y z
#
# Youngs Moduli (GPa) = 119.90634 98.67418 64.69095
#
# Poissons Ratio (x) = 0.17102 0.17362
# Poissons Ratio (y) = 0.20782 0.30072
# Poissons Ratio (z) = 0.32181 0.45870
#
# Static dielectric constant tensor:
#      x y z
#    x 1.896790 0.000000 0.028220 
#    y 0.000000 1.970940 0.000000 
#    z 0.028220 0.000000 1.877100 
# 
# From -- ./inp_files/182238.got.cif
#   From: 2010.05.17/outbox.cif.g08.bks.cpg/sg15_92_cif.got.tgz:182238.got - 2010.06.03 18:47:42.
