data_PCOD9267232
_publ_section_title
;
Structure prediction by ZEFSAII (Michael W. Deem and Ramdas Pophale) SiO2 
 PCOD9267232
Probable space group: C 2/C
;
_chemical_formula_sum "Si O2"
_cell_formula_units_Z 36
_cell_length_a 11.132346
_cell_length_b 23.445218
_cell_length_c 9.344415
_cell_angle_alpha 90.000000
_cell_angle_beta 40.975854
_cell_angle_gamma 90.000000
_cell_volume 1599.283188
_symmetry_space_group_name_H-M "C 2/C"
_symmetry_group_IT_number 15
_symmetry_cell_setting 'monoclinic'
loop_
_space_group_symop_operation_xyz
x,y,z
-x,y,1/2-z
-x,-y,-z
x,-y,1/2+z
1/2+x,1/2+y,z
1/2-x,1/2+y,1/2-z
1/2-x,1/2-y,-z
1/2+x,1/2-y,1/2+z
loop_
_atom_site_type_symbol
_atom_site_label
_atom_site_fract_x
_atom_site_fract_y
_atom_site_fract_z
Si Si1 0.690811 0.694562 0.644489
Si Si2 0.829676 0.805836 0.004306
Si Si3 0.716065 0.931967 0.061072
Si Si4 0.000000 0.615455 0.250000
Si Si5 0.805644 0.527432 0.220926
O O1 0.500000 0.671642 0.750000
O O2 0.750000 0.750000 0.500000
O O3 0.864808 0.652834 0.470613
O O4 0.647860 0.708316 0.848506
O O5 0.000000 0.819216 0.750000
O O6 0.750000 0.750000 0.000000
O O7 0.726302 0.866049 0.093204
O O8 0.500000 0.944547 0.250000
O O9 0.795296 0.976129 0.105988
O O10 0.784962 0.946378 0.839470
O O11 0.864055 0.576950 0.277792
O O12 0.000000 0.500000 0.000000
#
# Coordination Sequence:
#
# PCOD9267232 Si02
#       5
#     8   8   8   4   8
#     4  12  27  47  72 106 144 191 246 298 362 432
#     4  12  28  47  70 104 144 187 237 300 367 432
#     4  10  21  40  69  99 138 181 244 278 352 429
#     4  12  24  42  78 100 150 188 242 294 364 422
#     4  10  19  38  69 103 132 190 236 283 352 433
#
# _framework density 22.510086000000001
#
# number of rings (size 3 to 8) (size 9 to 14) (size 15 to 20)
#    0.000    0.889    4.444    4.667    6.222    0.000 
#    0.000    2.222    0.000    0.000    0.000    0.000 
#    0.000    0.000    0.000    0.000    0.000    0.000 
#
# Total GULP energy -100504.209972 kJ/mol
# GULP energy per Si atom -5583.567221 kJ/mol
# Density = 2.245885 g / cm^3
# Si number density = 22.510086 Si / 1000 Ang^3
#
#
#
# Elastic Constant Matrix: (Units=GPa)
#
#
# Indices 1 2 3 4 5 6 
#
# 1 69.8170 38.6215 48.4094 0.0000 37.5816 0.0000
# 2 38.6215 129.9139 25.1495 0.0000 32.0335 0.0000
# 3 48.4094 25.1495 125.8054 0.0000 30.5089 0.0000
# 4 0.0000 0.0000 0.0000 32.2803 0.0000 8.3480
# 5 37.5816 32.0335 30.5089 0.0000 58.8426 0.0000
# 6 0.0000 0.0000 0.0000 8.3480 0.0000 26.3896
#
#
#
# Elastic Compliance Matrix: (Units=1/GPa)
#
#
# Indices 1 2 3 4 5 6 
#
# 1 0.027822 -0.003961 -0.007009 0.000000 -0.011979 0.000000
# 2 -0.003961 0.009507 0.000303 0.000000 -0.002803 0.000000
# 3 -0.007009 0.000303 0.010912 0.000000 -0.001346 0.000000
# 4 0.000000 0.000000 0.000000 0.033739 0.000000 -0.010673
# 5 -0.011979 -0.002803 -0.001346 0.000000 0.026870 0.000000
# 6 0.000000 0.000000 0.000000 -0.010673 0.000000 0.041270
#
#
# Mechanical properties :
#
#
# Convention : Reuss Voigt Hill
#
# Bulk Modulus (GPa) = 37.16271 61.09968 49.13120
# Shear Modulus (GPa) = 27.71286 37.72624 32.71955
#
# Velocity S-wave (km/s) = 3.51255 4.09830 3.81668
# Velocity P-wave (km/s) = 5.74421 7.04251 6.42623
#
# Compressibility (1/GPa) = 0.02690869
#
# Stress axis : x y z
#
# Youngs Moduli (GPa) = 35.94236 105.18162 91.64518
#
# Poissons Ratio (x) = 0.41657 0.64235
# Poissons Ratio (y) = 0.14235 -0.02779
# Poissons Ratio (z) = 0.25192 -0.03190
#
# Static dielectric constant tensor:
#      x y z
#    x 1.864610 0.000000 0.005780 
#    y 0.000000 1.920840 0.000000 
#    z 0.005780 0.000000 1.798940 
# 
# From -- ./inp_files/31689.got.cif
#   From: 2010.05.17/outbox.cif.g08.bks.cpg/sg15_16_cif.got.tgz:31689.got - 2010.06.03 18:47:42.
