data_PCOD9267718
_publ_section_title
;
Structure prediction by ZEFSAII (Michael W. Deem and Ramdas Pophale) SiO2 
 PCOD9267718
Probable space group: C 2/C
;
_chemical_formula_sum "Si O2"
_cell_formula_units_Z 40
_cell_length_a 17.957402
_cell_length_b 12.219969
_cell_length_c 18.071802
_cell_angle_alpha 90.000000
_cell_angle_beta 33.087998
_cell_angle_gamma 90.000000
_cell_volume 2164.956725
_symmetry_space_group_name_H-M "C 2/C"
_symmetry_group_IT_number 15
_symmetry_cell_setting 'monoclinic'
loop_
_space_group_symop_operation_xyz
x,y,z
-x,y,1/2-z
-x,-y,-z
x,-y,1/2+z
1/2+x,1/2+y,z
1/2-x,1/2+y,1/2-z
1/2-x,1/2-y,-z
1/2+x,1/2-y,1/2+z
loop_
_atom_site_type_symbol
_atom_site_label
_atom_site_fract_x
_atom_site_fract_y
_atom_site_fract_z
Si Si1 0.093755 0.360233 0.858603
Si Si2 0.804690 0.996446 0.097828
Si Si3 0.156589 0.647623 0.599753
Si Si4 0.330433 0.988028 0.560747
Si Si5 0.085089 0.897332 0.340165
O O1 0.199172 0.412377 0.713094
O O2 0.150289 0.392365 0.893299
O O3 0.079061 0.233132 0.852691
O O4 0.951518 0.424695 0.970964
O O5 0.726600 0.912628 0.110500
O O6 0.858701 0.937523 0.126938
O O7 0.936243 0.051792 0.951492
O O8 0.250000 0.750000 0.500000
O O9 0.157742 0.565396 0.529204
O O10 0.000000 0.677234 0.750000
O O11 0.190653 0.052302 0.693488
#
# Coordination Sequence:
#
# PCOD9267718 Si02
#       5
#     8   8   8   8   8
#     4  10  19  40  62  90 122 163 205 250 306 354
#     4  10  22  40  61  91 126 155 208 255 293 370
#     4  12  26  44  64  90 124 162 200 256 315 362
#     4  10  22  38  63  90 125 160 205 255 298 367
#     4  10  21  38  64  92 120 163 206 250 305 357
#
# _framework density 18.476120000000002
#
# number of rings (size 3 to 8) (size 9 to 14) (size 15 to 20)
#    0.000    1.600    2.000    2.400    2.800    0.000 
#    7.200    6.000    0.000    0.000    0.000    0.000 
#    0.000    0.000    0.000    0.000    0.000    0.000 
#
# Total GULP energy -111701.088729 kJ/mol
# GULP energy per Si atom -5585.054436 kJ/mol
# Density = 1.843407 g / cm^3
# Si number density = 18.476120 Si / 1000 Ang^3
#
#
#
# Elastic Constant Matrix: (Units=GPa)
#
#
# Indices 1 2 3 4 5 6 
#
# 1 38.2548 11.0408 28.7946 0.0000 -7.3827 0.0000
# 2 11.0408 103.9054 47.0945 0.0000 -16.0117 0.0000
# 3 28.7946 47.0945 164.6392 -0.0001 -26.9434 0.0000
# 4 0.0000 0.0000 -0.0001 25.9665 0.0000 -3.4098
# 5 -7.3827 -16.0117 -26.9434 0.0000 28.4844 0.0000
# 6 0.0000 0.0000 0.0000 -3.4098 0.0000 10.2826
#
#
#
# Elastic Compliance Matrix: (Units=1/GPa)
#
#
# Indices 1 2 3 4 5 6 
#
# 1 0.030412 -0.000654 -0.004617 0.000000 0.003148 0.000000
# 2 -0.000654 0.011434 -0.002523 0.000000 0.003871 0.000000
# 3 -0.004617 -0.002523 0.008489 0.000000 0.005415 0.000000
# 4 0.000000 0.000000 0.000000 0.040265 0.000000 0.013352
# 5 0.003148 0.003871 0.005415 0.000000 0.043221 0.000000
# 6 0.000000 0.000000 0.000000 0.013352 0.000000 0.101680
#
#
# Mechanical properties :
#
#
# Convention : Reuss Voigt Hill
#
# Bulk Modulus (GPa) = 28.77867 53.40657 41.09262
# Shear Modulus (GPa) = 19.03537 27.60466 23.32002
#
# Velocity S-wave (km/s) = 3.21326 3.86952 3.55656
# Velocity P-wave (km/s) = 5.42003 6.99519 6.25737
#
# Compressibility (1/GPa) = 0.03474795
#
# Stress axis : x y z
#
# Youngs Moduli (GPa) = 32.88210 87.46190 117.79795
#
# Poissons Ratio (x) = 0.05720 0.54383
# Poissons Ratio (y) = 0.02150 0.29716
# Poissons Ratio (z) = 0.15181 0.22063
#
# Static dielectric constant tensor:
#      x y z
#    x 1.625240 0.000000 -0.002770 
#    y 0.000000 1.639530 0.000000 
#    z -0.002770 0.000000 1.640750 
# 
# From -- ./inp_files/46078.got.cif
#   From: 2010.05.17/outbox.cif.g08.bks.cpg/sg15_24_cif.got.tgz:46078.got - 2010.06.03 18:47:42.
