data_PCOD9267214
_publ_section_title
;
Structure prediction by ZEFSAII (Michael W. Deem and Ramdas Pophale) SiO2 
 PCOD9267214
Probable space group: C 2/C
;
_chemical_formula_sum "Si O2"
_cell_formula_units_Z 56
_cell_length_a 17.922250
_cell_length_b 14.244818
_cell_length_c 15.834107
_cell_angle_alpha 90.000000
_cell_angle_beta 145.781319
_cell_angle_gamma 90.000000
_cell_volume 2273.275325
_symmetry_space_group_name_H-M "C 2/C"
_symmetry_group_IT_number 15
_symmetry_cell_setting 'monoclinic'
loop_
_space_group_symop_operation_xyz
x,y,z
-x,y,1/2-z
-x,-y,-z
x,-y,1/2+z
1/2+x,1/2+y,z
1/2-x,1/2+y,1/2-z
1/2-x,1/2-y,-z
1/2+x,1/2-y,1/2+z
loop_
_atom_site_type_symbol
_atom_site_label
_atom_site_fract_x
_atom_site_fract_y
_atom_site_fract_z
Si Si1 0.415664 0.318753 0.284712
Si Si2 0.291175 0.365937 0.331154
Si Si3 0.651051 0.580910 0.105343
Si Si4 0.439551 0.114526 0.346527
Si Si5 0.512488 0.907589 0.412912
Si Si6 0.500000 0.462812 0.250000
Si Si7 0.535862 0.639456 0.164862
Si Si8 0.500000 0.789950 0.250000
O O1 0.298097 0.319668 0.244667
O O2 0.536559 0.372047 0.443946
O O3 0.466404 0.212031 0.325003
O O4 0.391058 0.385505 0.180745
O O5 0.351993 0.470639 0.377636
O O6 0.144328 0.380217 0.228502
O O7 0.398749 0.322147 0.495257
O O8 0.787187 0.593505 0.183496
O O9 0.638685 0.628012 0.185606
O O10 0.440014 0.121828 0.449604
O O11 0.524139 0.020125 0.411441
O O12 0.567581 0.856709 0.382090
O O13 0.499784 0.540465 0.174740
O O14 0.587269 0.714794 0.279888
#
# Coordination Sequence:
#
# PCOD9267214 Si02
#       8
#     8   8   8   8   8   4   8   4
#     4  11  21  36  65  92 119 158 204 254 303 351
#     4  10  19  38  68  87 122 162 196 251 294 372
#     4  10  19  41  64  88 122 160 206 249 294 369
#     4  10  24  41  65  86 117 174 211 238 286 378
#     4  10  23  45  59  89 124 165 206 241 304 359
#     4  11  20  37  58  98 130 145 194 263 318 340
#     4  10  20  38  61  99 123 152 196 252 319 355
#     4  11  24  39  60  92 130 157 192 257 310 360
#
# _framework density 24.634060000000002
#
# number of rings (size 3 to 8) (size 9 to 14) (size 15 to 20)
#    0.000    1.714    2.857    2.571    4.000    1.143 
#    5.143    0.714    0.000    0.000    0.000    0.000 
#    0.000    0.000    0.000    0.000    0.000    0.000 
#
# Total GULP energy -156143.634156 kJ/mol
# GULP energy per Si atom -5576.558363 kJ/mol
# Density = 2.457799 g / cm^3
# Si number density = 24.634060 Si / 1000 Ang^3
#
#
#
# Elastic Constant Matrix: (Units=GPa)
#
#
# Indices 1 2 3 4 5 6 
#
# 1 66.1795 37.5660 13.0341 0.0000 -23.6483 0.0000
# 2 37.5660 168.9904 2.6871 0.0000 -23.9417 0.0000
# 3 13.0341 2.6871 32.5527 0.0000 6.2630 0.0000
# 4 0.0000 0.0000 0.0000 20.4900 0.0000 -14.1602
# 5 -23.6483 -23.9417 6.2630 0.0000 28.6909 0.0000
# 6 0.0000 0.0000 0.0000 -14.1602 0.0000 49.7423
#
#
#
# Elastic Compliance Matrix: (Units=1/GPa)
#
#
# Indices 1 2 3 4 5 6 
#
# 1 0.028668 -0.002577 -0.016073 0.000000 0.024988 0.000000
# 2 -0.002577 0.007034 -0.000281 0.000000 0.003807 0.000000
# 3 -0.016073 -0.000281 0.041516 0.000000 -0.022546 0.000000
# 4 0.000000 0.000000 0.000000 0.060757 0.000000 0.017296
# 5 0.024988 0.003807 -0.022546 0.000000 0.063549 0.000000
# 6 0.000000 0.000000 0.000000 0.017296 0.000000 0.025027
#
#
# Mechanical properties :
#
#
# Convention : Reuss Voigt Hill
#
# Bulk Modulus (GPa) = 25.40989 41.58855 33.49922
# Shear Modulus (GPa) = 18.01587 34.08033 26.04810
#
# Velocity S-wave (km/s) = 2.70726 3.72353 3.25530
# Velocity P-wave (km/s) = 4.48438 5.95025 5.26854
#
# Compressibility (1/GPa) = 0.03935475
#
# Stress axis : x y z
#
# Youngs Moduli (GPa) = 34.88222 142.16224 24.08697
#
# Poissons Ratio (x) = 0.36636 0.38716
# Poissons Ratio (y) = 0.08989 0.00677
# Poissons Ratio (z) = 0.56068 0.03999
#
# Static dielectric constant tensor:
#      x y z
#    x 2.013370 0.000000 -0.050790 
#    y 0.000000 2.021440 0.000000 
#    z -0.050790 0.000000 2.007420 
# 
# From -- ./inp_files/211254.got.cif
#   From: 2010.05.17/outbox.cif.g08.bks.cpg/sg15_106_cif.got.tgz:211254.got - 2010.06.03 18:47:42.
