data_PCOD9267359
_publ_section_title
;
Structure prediction by ZEFSAII (Michael W. Deem and Ramdas Pophale) SiO2 
 PCOD9267359
Probable space group: C 2/C
;
_chemical_formula_sum "Si O2"
_cell_formula_units_Z 48
_cell_length_a 8.311206
_cell_length_b 12.748990
_cell_length_c 21.871556
_cell_angle_alpha 90.000000
_cell_angle_beta 107.251315
_cell_angle_gamma 90.000000
_cell_volume 2213.241752
_symmetry_space_group_name_H-M "C 2/C"
_symmetry_group_IT_number 15
_symmetry_cell_setting 'monoclinic'
loop_
_space_group_symop_operation_xyz
x,y,z
-x,y,1/2-z
-x,-y,-z
x,-y,1/2+z
1/2+x,1/2+y,z
1/2-x,1/2+y,1/2-z
1/2-x,1/2-y,-z
1/2+x,1/2-y,1/2+z
loop_
_atom_site_type_symbol
_atom_site_label
_atom_site_fract_x
_atom_site_fract_y
_atom_site_fract_z
Si Si1 0.801877 0.029555 0.339982
Si Si2 0.897218 0.473303 0.427417
Si Si3 0.187438 0.653057 0.919606
Si Si4 0.000000 0.332951 0.750000
Si Si5 0.192036 0.670229 0.157564
Si Si6 0.411385 0.559213 0.045237
Si Si7 0.500000 0.544997 0.250000
O O1 0.648497 0.095630 0.295385
O O2 0.938950 0.097414 0.393931
O O3 0.904679 0.984784 0.293288
O O4 0.738226 0.941379 0.379071
O O5 0.909324 0.571782 0.382638
O O6 0.704099 0.478834 0.428313
O O7 0.000000 0.500000 0.500000
O O8 0.989642 0.370773 0.410947
O O9 0.248255 0.754040 0.889592
O O10 0.290580 0.638215 0.994650
O O11 0.914648 0.278689 0.799291
O O12 0.358604 0.619134 0.204847
O O13 0.500000 0.500000 0.000000
#
# Coordination Sequence:
#
# PCOD9267359 Si02
#       7
#     8   8   8   4   8   8   4
#     4  10  19  39  61  86 122 174 209 259 338 396
#     4  10  20  39  65  90 126 165 212 273 335 389
#     4  10  22  38  67  91 123 168 220 268 334 402
#     4  10  22  38  66  84 134 176 212 274 334 400
#     4  11  22  42  62  98 129 167 226 278 324 398
#     4   9  19  37  62  89 124 157 211 271 327 392
#     4  10  22  38  60  86 130 166 206 270 322 382
#
# _framework density 21.687645
#
# number of rings (size 3 to 8) (size 9 to 14) (size 15 to 20)
#    0.000    2.000    3.333    0.000    0.000    4.000 
#    0.000    7.500    0.000    0.000    0.000    0.000 
#    0.000    0.000    0.000    0.000    0.000    0.000 
#
# Total GULP energy -133723.596602 kJ/mol
# GULP energy per Si atom -5571.816525 kJ/mol
# Density = 2.163828 g / cm^3
# Si number density = 21.687645 Si / 1000 Ang^3
#
#
#
# Elastic Constant Matrix: (Units=GPa)
#
#
# Indices 1 2 3 4 5 6 
#
# 1 135.5675 29.4938 59.8870 0.0000 -18.6213 0.0000
# 2 29.4938 55.7126 35.1596 0.0000 4.0222 0.0000
# 3 59.8870 35.1596 141.0637 0.0000 3.8230 0.0000
# 4 0.0000 0.0000 0.0000 18.4207 0.0000 -16.4237
# 5 -18.6213 4.0222 3.8230 0.0000 64.5986 0.0000
# 6 0.0000 0.0000 0.0000 -16.4237 0.0000 22.1542
#
#
#
# Elastic Compliance Matrix: (Units=1/GPa)
#
#
# Indices 1 2 3 4 5 6 
#
# 1 0.010138 -0.003364 -0.003556 0.000000 0.003342 0.000000
# 2 -0.003364 0.022482 -0.004118 0.000000 -0.002126 0.000000
# 3 -0.003556 -0.004118 0.009661 0.000000 -0.001340 0.000000
# 4 0.000000 0.000000 0.000000 0.160120 0.000000 0.118703
# 5 0.003342 -0.002126 -0.001340 0.000000 0.016655 0.000000
# 6 0.000000 0.000000 0.000000 0.118703 0.000000 0.133137
#
#
# Mechanical properties :
#
#
# Convention : Reuss Voigt Hill
#
# Bulk Modulus (GPa) = 49.49076 64.60274 57.04675
# Shear Modulus (GPa) = 13.12314 34.88828 24.00571
#
# Velocity S-wave (km/s) = 2.46254 4.01518 3.33060
# Velocity P-wave (km/s) = 5.56371 7.16575 6.41494
#
# Compressibility (1/GPa) = 0.02020579
#
# Stress axis : x y z
#
# Youngs Moduli (GPa) = 98.63523 44.47917 103.50449
#
# Poissons Ratio (x) = 0.14964 0.36808
# Poissons Ratio (y) = 0.33183 0.42621
# Poissons Ratio (z) = 0.35077 0.18316
#
# Static dielectric constant tensor:
#      x y z
#    x 1.844210 0.000000 -0.024780 
#    y 0.000000 1.790820 0.000000 
#    z -0.024780 0.000000 1.805050 
# 
# From -- ./inp_files/231399.got.cif
#   From: 2010.05.17/outbox.cif.g08.bks.cpg/sg15_116_cif.got.tgz:231399.got - 2010.06.03 18:47:42.
