data_PCOD9267778
_publ_section_title
;
Structure prediction by ZEFSAII (Michael W. Deem and Ramdas Pophale) SiO2 
 PCOD9267778
Probable space group: C 2/C
;
_chemical_formula_sum "Si O2"
_cell_formula_units_Z 60
_cell_length_a 8.954306
_cell_length_b 20.876165
_cell_length_c 17.020922
_cell_angle_alpha 90.000000
_cell_angle_beta 111.129418
_cell_angle_gamma 90.000000
_cell_volume 2967.834234
_symmetry_space_group_name_H-M "C 2/C"
_symmetry_group_IT_number 15
_symmetry_cell_setting 'monoclinic'
loop_
_space_group_symop_operation_xyz
x,y,z
-x,y,1/2-z
-x,-y,-z
x,-y,1/2+z
1/2+x,1/2+y,z
1/2-x,1/2+y,1/2-z
1/2-x,1/2-y,-z
1/2+x,1/2-y,1/2+z
loop_
_atom_site_type_symbol
_atom_site_label
_atom_site_fract_x
_atom_site_fract_y
_atom_site_fract_z
Si Si1 0.249998 0.203821 0.820460
Si Si2 0.151981 0.184800 0.970759
Si Si3 0.000000 0.525598 0.750000
Si Si4 0.614839 0.347375 0.623874
Si Si5 0.173820 0.768307 0.136491
Si Si6 0.689503 0.453744 0.768996
Si Si7 0.572959 0.133868 0.878812
Si Si8 0.240287 0.633319 0.077300
O O1 0.176796 0.171123 0.884151
O O2 0.325927 0.274549 0.850711
O O3 0.148063 0.216382 0.723133
O O4 0.392720 0.155588 0.830719
O O5 0.968692 0.204413 0.942121
O O6 0.250000 0.250000 0.000000
O O7 0.184037 0.137507 0.049394
O O8 0.155907 0.491360 0.738400
O O9 0.086600 0.568933 0.832873
O O10 0.667337 0.394653 0.703292
O O11 0.422995 0.351981 0.587325
O O12 0.327109 0.807477 0.138293
O O13 0.186628 0.693751 0.119870
O O14 0.500000 0.477592 0.750000
O O15 0.749947 0.427735 0.864440
O O16 0.627870 0.127458 0.979710
#
# Coordination Sequence:
#
# PCOD9267778 Si02
#       8
#     8   8   4   8   8   8   8   8
#     4  11  21  36  61 101 137 171 208 264 343 415
#     4  10  22  34  55  98 142 166 204 264 337 409
#     4  12  28  50  64  94 140 174 236 284 334 400
#     4  10  19  40  64  95 134 166 220 278 329 394
#     4  12  20  38  65 100 138 171 210 268 343 411
#     4  10  25  46  72  95 124 184 240 285 328 389
#     4  12  24  41  67  99 134 177 211 273 346 408
#     4  11  21  39  72  99 126 172 227 271 337 409
#
# _framework density 20.216764000000001
#
# number of rings (size 3 to 8) (size 9 to 14) (size 15 to 20)
#    0.000    1.067    5.333    2.400    0.000    3.733 
#    2.400    2.667    0.000    0.000    0.000    0.000 
#    0.000    0.000    0.000    0.000    0.000    0.000 
#
# Total GULP energy -167005.117711 kJ/mol
# GULP energy per Si atom -5566.837257 kJ/mol
# Density = 2.017075 g / cm^3
# Si number density = 20.216764 Si / 1000 Ang^3
#
#
#
# Elastic Constant Matrix: (Units=GPa)
#
#
# Indices 1 2 3 4 5 6 
#
# 1 53.2401 9.6853 7.4964 0.0000 -16.4030 0.0000
# 2 9.6853 30.9985 14.7108 0.0000 -5.6059 0.0000
# 3 7.4964 14.7108 139.6928 0.0000 -13.4529 0.0000
# 4 0.0000 0.0000 0.0000 18.0258 0.0000 -4.5098
# 5 -16.4030 -5.6059 -13.4529 0.0000 24.9458 0.0000
# 6 0.0000 0.0000 0.0000 -4.5098 0.0000 6.9326
#
#
#
# Elastic Compliance Matrix: (Units=1/GPa)
#
#
# Indices 1 2 3 4 5 6 
#
# 1 0.024309 -0.005181 0.000705 0.000000 0.015200 0.000000
# 2 -0.005181 0.035938 -0.003224 0.000000 0.002931 0.000000
# 3 0.000705 -0.003224 0.007842 0.000000 0.003968 0.000000
# 4 0.000000 0.000000 0.000000 0.066260 0.000000 0.043103
# 5 0.015200 0.002931 0.003968 0.000000 0.052880 0.000000
# 6 0.000000 0.000000 0.000000 0.043103 0.000000 0.172285
#
#
# Mechanical properties :
#
#
# Convention : Reuss Voigt Hill
#
# Bulk Modulus (GPa) = 18.97914 31.96849 25.47382
# Shear Modulus (GPa) = 12.73952 22.78344 17.76148
#
# Velocity S-wave (km/s) = 2.51300 3.36066 2.96725
# Velocity P-wave (km/s) = 4.22237 5.55931 4.93631
#
# Compressibility (1/GPa) = 0.05268942
#
# Stress axis : x y z
#
# Youngs Moduli (GPa) = 41.13666 27.82533 127.51129
#
# Poissons Ratio (x) = 0.14416 -0.08989
# Poissons Ratio (y) = 0.21313 0.41114
# Poissons Ratio (z) = -0.02900 0.08972
#
# Static dielectric constant tensor:
#      x y z
#    x 1.761350 0.000000 -0.033460 
#    y 0.000000 1.692990 0.000000 
#    z -0.033460 0.000000 1.740210 
# 
# From -- ./inp_files/192227.got.cif
#   From: 2010.05.17/outbox.cif.g08.bks.cpg/sg15_97_cif.got.tgz:192227.got - 2010.06.03 18:47:42.
