data_PCOD9267167
_publ_section_title
;
Structure prediction by ZEFSAII (Michael W. Deem and Ramdas Pophale) SiO2 
 PCOD9267167
Probable space group: C 2/C
;
_chemical_formula_sum "Si O2"
_cell_formula_units_Z 48
_cell_length_a 7.759543
_cell_length_b 16.706886
_cell_length_c 15.702797
_cell_angle_alpha 90.000000
_cell_angle_beta 74.205162
_cell_angle_gamma 90.000000
_cell_volume 1958.814064
_symmetry_space_group_name_H-M "C 2/C"
_symmetry_group_IT_number 15
_symmetry_cell_setting 'monoclinic'
loop_
_space_group_symop_operation_xyz
x,y,z
-x,y,1/2-z
-x,-y,-z
x,-y,1/2+z
1/2+x,1/2+y,z
1/2-x,1/2+y,1/2-z
1/2-x,1/2-y,-z
1/2+x,1/2-y,1/2+z
loop_
_atom_site_type_symbol
_atom_site_label
_atom_site_fract_x
_atom_site_fract_y
_atom_site_fract_z
Si Si1 0.212404 0.806490 0.386955
Si Si2 0.081610 0.093640 0.325725
Si Si3 0.828434 0.852711 0.518007
Si Si4 0.441456 0.162872 0.022196
Si Si5 0.710168 0.430607 0.243256
Si Si6 0.268358 0.000011 0.563171
O O1 0.355195 0.815813 0.443338
O O2 0.166979 0.712071 0.390578
O O3 0.265309 0.859402 0.298663
O O4 0.018974 0.839135 0.447224
O O5 0.156929 0.156668 0.382567
O O6 0.000000 0.128511 0.250000
O O7 0.911453 0.049990 0.391322
O O8 0.213689 0.019510 0.284778
O O9 0.648770 0.814832 0.502912
O O10 0.784702 0.947092 0.509927
O O11 0.413966 0.068870 0.036506
O O12 0.500000 0.415952 0.250000
O O13 0.802730 0.441715 0.139435
#
# Coordination Sequence:
#
# PCOD9267167 Si02
#       6
#     8   8   8   8   8   8
#     4  11  22  43  64  89 141 173 208 272 330 389
#     4   9  18  34  62  88 120 162 215 264 314 365
#     4  12  20  39  68  91 125 176 218 257 327 399
#     4  11  25  37  64 103 127 169 219 271 328 384
#     4   9  18  37  67  88 118 180 217 254 328 382
#     4  10  19  38  66  94 126 165 226 268 314 388
#
# _framework density 24.504622000000001
#
# number of rings (size 3 to 8) (size 9 to 14) (size 15 to 20)
#    0.000    2.000    5.000    2.500    0.000    0.000 
#    0.000   10.833    0.000    0.000    0.000    0.000 
#    0.000    0.000    0.000    0.000    0.000    0.000 
#
# Total GULP energy -134094.498934 kJ/mol
# GULP energy per Si atom -5587.270789 kJ/mol
# Density = 2.444885 g / cm^3
# Si number density = 24.504622 Si / 1000 Ang^3
#
#
#
# Elastic Constant Matrix: (Units=GPa)
#
#
# Indices 1 2 3 4 5 6 
#
# 1 123.0470 25.8335 29.3651 0.0000 18.9936 0.0000
# 2 25.8335 101.5734 32.3027 0.0000 9.8755 0.0000
# 3 29.3651 32.3027 106.4268 0.0000 21.7651 0.0000
# 4 0.0000 0.0000 0.0000 34.0884 0.0000 0.3799
# 5 18.9936 9.8755 21.7651 0.0000 27.9676 0.0000
# 6 0.0000 0.0000 0.0000 0.3799 0.0000 37.0731
#
#
#
# Elastic Compliance Matrix: (Units=1/GPa)
#
#
# Indices 1 2 3 4 5 6 
#
# 1 0.009499 -0.001572 -0.001116 0.000000 -0.005028 0.000000
# 2 -0.001572 0.011211 -0.002828 0.000000 -0.000690 0.000000
# 3 -0.001116 -0.002828 0.012134 0.000000 -0.007687 0.000000
# 4 0.000000 0.000000 0.000000 0.029339 0.000000 -0.000301
# 5 -0.005028 -0.000690 -0.007687 0.000000 0.045396 0.000000
# 6 0.000000 0.000000 0.000000 -0.000301 0.000000 0.026977
#
#
# Mechanical properties :
#
#
# Convention : Reuss Voigt Hill
#
# Bulk Modulus (GPa) = 45.84309 56.22774 51.03541
# Shear Modulus (GPa) = 32.70963 36.06220 34.38592
#
# Velocity S-wave (km/s) = 3.65750 3.84037 3.75005
# Velocity P-wave (km/s) = 6.04855 6.53148 6.29465
#
# Compressibility (1/GPa) = 0.02181354
#
# Stress axis : x y z
#
# Youngs Moduli (GPa) = 105.26927 89.19446 82.41078
#
# Poissons Ratio (x) = 0.14025 0.09193
# Poissons Ratio (y) = 0.16553 0.23305
# Poissons Ratio (z) = 0.11743 0.25223
#
# Static dielectric constant tensor:
#      x y z
#    x 2.002210 0.000000 -0.039930 
#    y 0.000000 2.052150 0.000000 
#    z -0.039930 0.000000 1.965950 
# 
# From -- ./inp_files/134840.got.cif
#   From: 2010.05.17/outbox.cif.g08.bks.cpg/sg15_68_cif.got.tgz:134840.got - 2010.06.03 18:47:42.
