data_PCOD9267477
_publ_section_title
;
Structure prediction by ZEFSAII (Michael W. Deem and Ramdas Pophale) SiO2 
 PCOD9267477
Probable space group: C 2/C
;
_chemical_formula_sum "Si O2"
_cell_formula_units_Z 48
_cell_length_a 29.429443
_cell_length_b 13.961279
_cell_length_c 12.499340
_cell_angle_alpha 90.000000
_cell_angle_beta 155.983808
_cell_angle_gamma 90.000000
_cell_volume 2090.177597
_symmetry_space_group_name_H-M "C 2/C"
_symmetry_group_IT_number 15
_symmetry_cell_setting 'monoclinic'
loop_
_space_group_symop_operation_xyz
x,y,z
-x,y,1/2-z
-x,-y,-z
x,-y,1/2+z
1/2+x,1/2+y,z
1/2-x,1/2+y,1/2-z
1/2-x,1/2-y,-z
1/2+x,1/2-y,1/2+z
loop_
_atom_site_type_symbol
_atom_site_label
_atom_site_fract_x
_atom_site_fract_y
_atom_site_fract_z
Si Si1 0.374552 0.967479 0.254730
Si Si2 0.709289 0.451489 0.229643
Si Si3 0.379464 0.832898 0.447214
Si Si4 0.129039 0.198089 0.727463
Si Si5 0.843143 0.142891 0.476889
Si Si6 0.604009 0.131178 0.042368
O O1 0.341826 0.046016 0.273282
O O2 0.500000 0.000000 0.500000
O O3 0.367922 0.866998 0.300540
O O4 0.296986 0.986098 0.987783
O O5 0.782824 0.382821 0.311121
O O6 0.641516 0.386964 0.168686
O O7 0.641081 0.532315 0.019810
O O8 0.500000 0.868252 0.750000
O O9 0.379245 0.719819 0.466756
O O10 0.060118 0.283884 0.524842
O O11 0.250000 0.250000 0.000000
O O12 0.101763 0.166602 0.789059
O O13 0.709949 0.164494 0.202617
O O14 0.500000 0.097347 0.750000
#
# Coordination Sequence:
#
# PCOD9267477 Si02
#       6
#     8   8   8   8   8   8
#     4  12  22  34  61  98 127 156 214 282 332 374
#     4  12  20  39  64  89 125 167 214 267 324 380
#     4  12  23  38  63  94 127 172 212 270 324 382
#     4  10  19  39  64  87 119 172 209 259 320 390
#     4  11  23  40  62  93 132 166 214 263 328 388
#     4  11  20  36  62  97 124 164 215 267 321 387
#
# _framework density 22.964556000000002
#
# number of rings (size 3 to 8) (size 9 to 14) (size 15 to 20)
#    0.000    0.667   10.000    1.500    0.000    0.667 
#    0.000    0.833    0.000    2.000    0.000    0.000 
#    0.000    0.000    0.000    0.000    0.000    0.000 
#
# Total GULP energy -134135.687422 kJ/mol
# GULP energy per Si atom -5588.986976 kJ/mol
# Density = 2.291229 g / cm^3
# Si number density = 22.964556 Si / 1000 Ang^3
#
#
#
# Elastic Constant Matrix: (Units=GPa)
#
#
# Indices 1 2 3 4 5 6 
#
# 1 69.7738 35.1431 -1.6125 0.0000 1.6206 0.0000
# 2 35.1431 128.5031 -11.0844 0.0000 -3.4821 0.0000
# 3 -1.6125 -11.0844 17.4361 0.0000 -1.5662 0.0000
# 4 0.0000 0.0000 0.0000 19.8644 0.0000 -18.3206
# 5 1.6206 -3.4821 -1.5662 0.0000 23.0677 0.0000
# 6 0.0000 0.0000 0.0000 -18.3206 0.0000 52.3351
#
#
#
# Elastic Compliance Matrix: (Units=1/GPa)
#
#
# Indices 1 2 3 4 5 6 
#
# 1 0.016747 -0.004778 -0.001670 0.000000 -0.002011 0.000000
# 2 -0.004778 0.009657 0.005894 0.000000 0.002194 0.000000
# 3 -0.001670 0.005894 0.061410 0.000000 0.005176 0.000000
# 4 0.000000 0.000000 0.000000 0.074344 0.000000 0.026025
# 5 -0.002011 0.002194 0.005176 0.000000 0.044175 0.000000
# 6 0.000000 0.000000 0.000000 0.026025 0.000000 0.028218
#
#
# Mechanical properties :
#
#
# Convention : Reuss Voigt Hill
#
# Bulk Modulus (GPa) = 11.53337 28.95616 20.24476
# Shear Modulus (GPa) = 18.89931 31.93789 25.41860
#
# Velocity S-wave (km/s) = 2.87187 3.73332 3.33056
# Velocity P-wave (km/s) = 4.00375 5.58748 4.86055
#
# Compressibility (1/GPa) = 0.08670492
#
# Stress axis : x y z
#
# Youngs Moduli (GPa) = 59.71244 103.55639 16.28405
#
# Poissons Ratio (x) = 0.49484 0.02719
# Poissons Ratio (y) = 0.28533 -0.09598
# Poissons Ratio (z) = 0.09970 -0.61036
#
# Static dielectric constant tensor:
#      x y z
#    x 2.004870 0.000000 0.016400 
#    y 0.000000 1.943320 0.000000 
#    z 0.016400 0.000000 1.831180 
# 
# From -- ./inp_files/96378.got.cif
#   From: 2010.05.17/outbox.cif.g08.bks.cpg/sg15_49_cif.got.tgz:96378.got - 2010.06.03 18:47:42.
