data_PCOD9267829
_publ_section_title
;
Structure prediction by ZEFSAII (Michael W. Deem and Ramdas Pophale) SiO2 
 PCOD9267829
Probable space group: C 2/C
;
_chemical_formula_sum "Si O2"
_cell_formula_units_Z 56
_cell_length_a 6.013528
_cell_length_b 19.021833
_cell_length_c 20.245747
_cell_angle_alpha 90.000000
_cell_angle_beta 97.355043
_cell_angle_gamma 90.000000
_cell_volume 2296.821864
_symmetry_space_group_name_H-M "C 2/C"
_symmetry_group_IT_number 15
_symmetry_cell_setting 'monoclinic'
loop_
_space_group_symop_operation_xyz
x,y,z
-x,y,1/2-z
-x,-y,-z
x,-y,1/2+z
1/2+x,1/2+y,z
1/2-x,1/2+y,1/2-z
1/2-x,1/2-y,-z
1/2+x,1/2-y,1/2+z
loop_
_atom_site_type_symbol
_atom_site_label
_atom_site_fract_x
_atom_site_fract_y
_atom_site_fract_z
Si Si1 0.143711 0.679084 0.813783
Si Si2 0.000000 0.081102 0.750000
Si Si3 0.987944 0.560958 0.111789
Si Si4 0.122747 0.139222 0.317972
Si Si5 0.152090 0.179599 0.073870
Si Si6 0.500000 0.120438 0.250000
Si Si7 0.198860 0.423041 0.125142
Si Si8 0.006179 0.807258 0.431622
O O1 0.324321 0.630284 0.782516
O O2 0.291978 0.710155 0.878910
O O3 0.000000 0.716638 0.750000
O O4 0.961833 0.632083 0.844834
O O5 0.853575 0.042550 0.688827
O O6 0.236579 0.594806 0.123135
O O7 0.921534 0.568653 0.187652
O O8 0.033378 0.482261 0.090315
O O9 0.803891 0.609416 0.070413
O O10 0.948876 0.179263 0.356733
O O11 0.668445 0.170401 0.216074
O O12 0.000000 0.104232 0.250000
O O13 0.318461 0.244858 0.073649
O O14 0.971585 0.186004 0.008641
O O15 0.368478 0.379104 0.086245
#
# Coordination Sequence:
#
# PCOD9267829 Si02
#       8
#     8   4   8   8   8   4   8   8
#     4   9  19  40  64  95 129 174 225 288 345 403
#     4   8  18  32  59  90 128 169 212 276 354 406
#     4  10  22  36  64  98 132 173 231 285 345 417
#     4  10  19  40  66  99 130 178 223 290 343 409
#     4  11  23  45  66  91 139 191 234 285 348 417
#     4   8  20  36  63 100 132 165 226 282 346 412
#     4  10  21  38  62  98 134 175 229 290 348 417
#     4  10  25  44  65  94 137 190 237 281 347 426
#
# _framework density 24.381515
#
# number of rings (size 3 to 8) (size 9 to 14) (size 15 to 20)
#    0.857    1.429    1.429    0.000    4.000    5.143 
#    0.000   21.429    0.000    0.000    0.000    0.000 
#    0.000    0.000    0.000    0.143    0.000    0.000 
#
# Total GULP energy -156000.452579 kJ/mol
# GULP energy per Si atom -5571.444735 kJ/mol
# Density = 2.432602 g / cm^3
# Si number density = 24.381515 Si / 1000 Ang^3
#
#
#
# Elastic Constant Matrix: (Units=GPa)
#
#
# Indices 1 2 3 4 5 6 
#
# 1 74.9942 19.1828 47.8350 0.0000 0.6027 0.0000
# 2 19.1828 77.6839 31.2805 0.0000 2.3390 0.0000
# 3 47.8350 31.2805 137.1581 0.0000 17.3060 0.0000
# 4 0.0000 0.0000 0.0000 8.6827 0.0000 4.4136
# 5 0.6027 2.3390 17.3060 0.0000 41.6182 0.0000
# 6 0.0000 0.0000 0.0000 4.4136 0.0000 32.4077
#
#
#
# Elastic Compliance Matrix: (Units=1/GPa)
#
#
# Indices 1 2 3 4 5 6 
#
# 1 0.017654 -0.002017 -0.005994 0.000000 0.002350 0.000000
# 2 -0.002017 0.014418 -0.002624 0.000000 0.000310 0.000000
# 3 -0.005994 -0.002624 0.010501 0.000000 -0.004132 0.000000
# 4 0.000000 0.000000 0.000000 0.123738 0.000000 -0.016852
# 5 0.002350 0.000310 -0.004132 0.000000 0.025695 0.000000
# 6 0.000000 0.000000 0.000000 -0.016852 0.000000 0.033152
#
#
# Mechanical properties :
#
#
# Convention : Reuss Voigt Hill
#
# Bulk Modulus (GPa) = 46.93826 54.04806 50.49316
# Shear Modulus (GPa) = 19.72167 29.31091 24.51629
#
# Velocity S-wave (km/s) = 2.84716 3.47100 3.17445
# Velocity P-wave (km/s) = 5.48651 6.18705 5.84728
#
# Compressibility (1/GPa) = 0.02130458
#
# Stress axis : x y z
#
# Youngs Moduli (GPa) = 56.64303 69.35815 95.22891
#
# Poissons Ratio (x) = 0.13988 0.57077
# Poissons Ratio (y) = 0.11424 0.24987
# Poissons Ratio (z) = 0.33950 0.18199
#
# Static dielectric constant tensor:
#      x y z
#    x 1.945220 0.000000 0.055280 
#    y 0.000000 2.001340 0.000000 
#    z 0.055280 0.000000 1.968060 
# 
# From -- ./inp_files/261425.got.cif
#   From: 2010.05.17/outbox.cif.g08.bks.cpg/sg15_131_cif.got.tgz:261425.got - 2010.06.03 18:47:42.
