data_PCOD9267937
_publ_section_title
;
Structure prediction by ZEFSAII (Michael W. Deem and Ramdas Pophale) SiO2 
 PCOD9267937
Probable space group: C 2/C
;
_chemical_formula_sum "Si O2"
_cell_formula_units_Z 52
_cell_length_a 8.059046
_cell_length_b 17.448469
_cell_length_c 14.147628
_cell_angle_alpha 90.000000
_cell_angle_beta 72.722607
_cell_angle_gamma 90.000000
_cell_volume 1899.645255
_symmetry_space_group_name_H-M "C 2/C"
_symmetry_group_IT_number 15
_symmetry_cell_setting 'monoclinic'
loop_
_space_group_symop_operation_xyz
x,y,z
-x,y,1/2-z
-x,-y,-z
x,-y,1/2+z
1/2+x,1/2+y,z
1/2-x,1/2+y,1/2-z
1/2-x,1/2-y,-z
1/2+x,1/2-y,1/2+z
loop_
_atom_site_type_symbol
_atom_site_label
_atom_site_fract_x
_atom_site_fract_y
_atom_site_fract_z
Si Si1 0.137874 0.228247 0.311766
Si Si2 0.269796 0.572744 0.555140
Si Si3 0.568904 0.725970 0.954792
Si Si4 0.198962 0.858535 0.122785
Si Si5 0.992550 0.986050 0.651130
Si Si6 0.000000 0.627649 0.250000
Si Si7 0.518644 0.896595 0.949484
O O1 0.034605 0.218786 0.428879
O O2 0.204896 0.316580 0.308462
O O3 0.314767 0.175548 0.284940
O O4 0.000000 0.220009 0.250000
O O5 0.282089 0.662307 0.577319
O O6 0.316412 0.520201 0.636301
O O7 0.420595 0.558284 0.450712
O O8 0.101745 0.556989 0.521492
O O9 0.441101 0.701005 0.892714
O O10 0.618767 0.813806 0.931066
O O11 0.110753 0.939630 0.153591
O O12 0.328280 0.873575 0.014418
O O13 0.000000 0.943123 0.750000
O O14 0.980034 0.578529 0.158159
#
# Coordination Sequence:
#
# PCOD9267937 Si02
#       7
#     8   8   8   8   8   4   8
#     4  11  22  35  59  97 130 167 218 271 330 405
#     4  10  23  41  66  95 125 173 226 275 323 405
#     4  10  19  41  60  87 134 167 196 270 343 384
#     4  10  21  41  61  83 136 168 210 272 329 384
#     4  10  24  44  66  89 128 182 224 273 332 387
#     4  12  22  36  62 104 136 174 218 268 348 404
#     4  11  21  38  64  96 132 168 214 271 344 394
#
# _framework density 27.373531
#
# number of rings (size 3 to 8) (size 9 to 14) (size 15 to 20)
#    0.000    1.538    3.077    2.308    1.077    6.154 
#    2.769    0.000    1.692    0.000    0.000    0.000 
#    0.000    0.000    0.000    0.000    0.000    0.000 
#
# Total GULP energy -145565.560261 kJ/mol
# GULP energy per Si atom -5598.675395 kJ/mol
# Density = 2.731123 g / cm^3
# Si number density = 27.373531 Si / 1000 Ang^3
#
#
#
# Elastic Constant Matrix: (Units=GPa)
#
#
# Indices 1 2 3 4 5 6 
#
# 1 130.0078 29.0321 36.0055 0.0000 40.5782 0.0000
# 2 29.0321 87.0618 20.7353 0.0000 13.6528 0.0000
# 3 36.0055 20.7353 170.1908 0.0000 33.2933 0.0000
# 4 0.0000 0.0000 0.0000 17.8499 0.0000 0.6061
# 5 40.5782 13.6528 33.2933 0.0000 42.3922 0.0000
# 6 0.0000 0.0000 0.0000 0.6061 0.0000 12.3048
#
#
#
# Elastic Compliance Matrix: (Units=1/GPa)
#
#
# Indices 1 2 3 4 5 6 
#
# 1 0.011357 -0.002172 -0.000175 0.000000 -0.010034 0.000000
# 2 -0.002172 0.012615 -0.000815 0.000000 -0.001344 0.000000
# 3 -0.000175 -0.000815 0.007004 0.000000 -0.005071 0.000000
# 4 0.000000 0.000000 0.000000 0.056117 0.000000 -0.002764
# 5 -0.010034 -0.001344 -0.005071 0.000000 0.037609 0.000000
# 6 0.000000 0.000000 0.000000 -0.002764 0.000000 0.081405
#
#
# Mechanical properties :
#
#
# Convention : Reuss Voigt Hill
#
# Bulk Modulus (GPa) = 40.56309 62.08957 51.32633
# Shear Modulus (GPa) = 22.66048 34.60855 28.63452
#
# Velocity S-wave (km/s) = 2.88032 3.55957 3.23780
# Velocity P-wave (km/s) = 5.09040 6.29489 5.72441
#
# Compressibility (1/GPa) = 0.02465296
#
# Stress axis : x y z
#
# Youngs Moduli (GPa) = 88.04934 79.26975 142.77555
#
# Poissons Ratio (x) = 0.17217 0.02501
# Poissons Ratio (y) = 0.19124 0.11630
# Poissons Ratio (z) = 0.01543 0.06457
#
# Static dielectric constant tensor:
#      x y z
#    x 2.199110 0.000000 0.004900 
#    y 0.000000 2.174840 0.000000 
#    z 0.004900 0.000000 2.167720 
# 
# From -- ./inp_files/135977.got.cif
#   From: 2010.05.17/outbox.cif.g08.bks.cpg/sg15_68_cif.got.tgz:135977.got - 2010.06.03 18:47:42.
