data_PCOD9267697
_publ_section_title
;
Structure prediction by ZEFSAII (Michael W. Deem and Ramdas Pophale) SiO2 
 PCOD9267697
Probable space group: C 2/C
;
_chemical_formula_sum "Si O2"
_cell_formula_units_Z 48
_cell_length_a 17.164975
_cell_length_b 12.191831
_cell_length_c 14.874809
_cell_angle_alpha 90.000000
_cell_angle_beta 47.551369
_cell_angle_gamma 90.000000
_cell_volume 2296.946409
_symmetry_space_group_name_H-M "C 2/C"
_symmetry_group_IT_number 15
_symmetry_cell_setting 'monoclinic'
loop_
_space_group_symop_operation_xyz
x,y,z
-x,y,1/2-z
-x,-y,-z
x,-y,1/2+z
1/2+x,1/2+y,z
1/2-x,1/2+y,1/2-z
1/2-x,1/2-y,-z
1/2+x,1/2-y,1/2+z
loop_
_atom_site_type_symbol
_atom_site_label
_atom_site_fract_x
_atom_site_fract_y
_atom_site_fract_z
Si Si1 0.000000 0.381490 0.750000
Si Si2 0.509132 0.854885 0.934185
Si Si3 0.172362 0.044384 0.849765
Si Si4 0.468165 0.340155 0.576834
Si Si5 0.000000 0.235709 0.250000
Si Si6 0.327583 0.024836 0.090108
Si Si7 0.827646 0.572950 0.894037
O O1 0.005135 0.310059 0.836306
O O2 0.900734 0.465159 0.821906
O O3 0.626194 0.883782 0.877887
O O4 0.452827 0.782032 0.052906
O O5 0.436394 0.962733 0.980659
O O6 0.240797 0.066964 0.884832
O O7 0.125729 0.921574 0.875196
O O8 0.247174 0.053314 0.704742
O O9 0.069993 0.119596 0.941101
O O10 0.491205 0.333957 0.665194
O O11 0.099997 0.318660 0.168714
O O12 0.283939 0.068991 0.030056
#
# Coordination Sequence:
#
# PCOD9267697 Si02
#       7
#     4   8   8   8   4   8   8
#     4   9  18  36  65  88 124 152 201 262 321 378
#     4  10  19  40  61  95 119 161 209 268 319 376
#     4  11  25  43  57  89 134 172 201 262 327 387
#     4  11  26  42  58  91 134 170 212 263 322 384
#     4  11  22  42  73  98 124 162 231 278 315 380
#     4  10  20  38  68  90 123 159 210 269 319 379
#     4  10  20  39  68  96 117 162 211 270 325 368
#
# _framework density 20.897310000000001
#
# number of rings (size 3 to 8) (size 9 to 14) (size 15 to 20)
#    0.000    1.667    3.333    1.000    2.333    3.333 
#    3.000    1.667    0.000    0.000    0.000    0.000 
#    0.000    0.000    0.000    0.000    0.000    0.000 
#
# Total GULP energy -133863.531982 kJ/mol
# GULP energy per Si atom -5577.647166 kJ/mol
# Density = 2.084975 g / cm^3
# Si number density = 20.897310 Si / 1000 Ang^3
#
#
#
# Elastic Constant Matrix: (Units=GPa)
#
#
# Indices 1 2 3 4 5 6 
#
# 1 86.8268 3.1832 33.8000 0.0000 7.4645 0.0000
# 2 3.1832 27.3722 -8.5255 0.0000 -1.5392 0.0000
# 3 33.8000 -8.5255 90.4216 0.0000 17.3488 0.0000
# 4 0.0000 0.0000 0.0000 22.6496 0.0000 0.0367
# 5 7.4645 -1.5392 17.3488 0.0000 36.8963 0.0000
# 6 0.0000 0.0000 0.0000 0.0367 0.0000 9.7423
#
#
#
# Elastic Compliance Matrix: (Units=1/GPa)
#
#
# Indices 1 2 3 4 5 6 
#
# 1 0.013767 -0.003299 -0.005382 0.000000 -0.000392 0.000000
# 2 -0.003299 0.038430 0.004859 0.000000 -0.000014 0.000000
# 3 -0.005382 0.004859 0.014599 0.000000 -0.005573 0.000000
# 4 0.000000 0.000000 0.000000 0.044151 0.000000 -0.000166
# 5 -0.000392 -0.000014 -0.005573 0.000000 0.029802 0.000000
# 6 0.000000 0.000000 0.000000 -0.000166 0.000000 0.102645
#
#
# Mechanical properties :
#
#
# Convention : Reuss Voigt Hill
#
# Bulk Modulus (GPa) = 16.90571 29.05953 22.98262
# Shear Modulus (GPa) = 18.46689 25.60185 22.03437
#
# Velocity S-wave (km/s) = 2.97593 3.50398 3.25069
# Velocity P-wave (km/s) = 4.46270 5.50514 5.01110
#
# Compressibility (1/GPa) = 0.05915162
#
# Stress axis : x y z
#
# Youngs Moduli (GPa) = 72.63772 26.02140 68.50016
#
# Poissons Ratio (x) = 0.08585 0.36867
# Poissons Ratio (y) = 0.23966 -0.33287
# Poissons Ratio (z) = 0.39093 -0.12645
#
# Static dielectric constant tensor:
#      x y z
#    x 1.765350 0.000000 0.018940 
#    y 0.000000 1.757820 0.000000 
#    z 0.018940 0.000000 1.790170 
# 
# From -- ./inp_files/153824.got.cif
#   From: 2010.05.17/outbox.cif.g08.bks.cpg/sg15_77_cif.got.tgz:153824.got - 2010.06.03 18:47:42.
