data_PCOD9267558
_publ_section_title
;
Structure prediction by ZEFSAII (Michael W. Deem and Ramdas Pophale) SiO2 
 PCOD9267558
Probable space group: C 2/C
;
_chemical_formula_sum "Si O2"
_cell_formula_units_Z 52
_cell_length_a 12.173508
_cell_length_b 13.551565
_cell_length_c 16.529240
_cell_angle_alpha 90.000000
_cell_angle_beta 115.971263
_cell_angle_gamma 90.000000
_cell_volume 2451.457916
_symmetry_space_group_name_H-M "C 2/C"
_symmetry_group_IT_number 15
_symmetry_cell_setting 'monoclinic'
loop_
_space_group_symop_operation_xyz
x,y,z
-x,y,1/2-z
-x,-y,-z
x,-y,1/2+z
1/2+x,1/2+y,z
1/2-x,1/2+y,1/2-z
1/2-x,1/2-y,-z
1/2+x,1/2-y,1/2+z
loop_
_atom_site_type_symbol
_atom_site_label
_atom_site_fract_x
_atom_site_fract_y
_atom_site_fract_z
Si Si1 0.242897 0.838987 0.933242
Si Si2 0.130923 0.696390 0.198630
Si Si3 0.224450 0.534648 0.915716
Si Si4 0.000000 0.520895 0.250000
Si Si5 0.473835 0.361352 0.431254
Si Si6 0.177498 0.157276 0.119914
Si Si7 0.994536 0.042539 0.159536
O O1 0.305565 0.819866 0.868085
O O2 0.104098 0.870870 0.872160
O O3 0.250000 0.750000 0.000000
O O4 0.299353 0.930394 0.001187
O O5 0.063380 0.597175 0.206938
O O6 0.042492 0.786343 0.147741
O O7 0.227846 0.724636 0.300819
O O8 0.342075 0.597657 0.920959
O O9 0.249273 0.418241 0.913476
O O10 0.104285 0.547194 0.822671
O O11 0.559072 0.313718 0.528495
O O12 0.535930 0.460423 0.416707
O O13 0.122243 0.088687 0.173406
O O14 0.000000 0.998486 0.250000
#
# Coordination Sequence:
#
# PCOD9267558 Si02
#       7
#     8   8   8   4   8   8   8
#     4  12  21  39  64  98 124 160 217 268 309 373
#     4  11  24  41  63  94 130 164 213 263 317 382
#     4  10  20  41  63  88 128 170 202 257 322 377
#     4  10  26  46  58  86 138 174 198 256 332 388
#     4  11  21  41  66  95 125 166 211 267 319 377
#     4  10  19  39  66  88 127 169 204 261 325 369
#     4  11  20  35  65  96 122 160 211 264 314 378
#
# _framework density 21.211869
#
# number of rings (size 3 to 8) (size 9 to 14) (size 15 to 20)
#    0.000    1.231    6.154    0.923    1.077    0.615 
#    6.923    4.615    0.000    0.000    0.000    0.000 
#    0.000    0.000    0.000    0.000    0.000    0.000 
#
# Total GULP energy -144921.780460 kJ/mol
# GULP energy per Si atom -5573.914633 kJ/mol
# Density = 2.116359 g / cm^3
# Si number density = 21.211869 Si / 1000 Ang^3
#
#
#
# Elastic Constant Matrix: (Units=GPa)
#
#
# Indices 1 2 3 4 5 6 
#
# 1 62.6158 12.2589 36.3613 0.0000 3.7843 0.0000
# 2 12.2589 38.5190 27.5721 0.0000 -6.2331 0.0000
# 3 36.3613 27.5721 137.4658 0.0000 22.4459 0.0000
# 4 0.0000 0.0000 0.0000 43.4527 0.0000 -0.3608
# 5 3.7843 -6.2331 22.4459 0.0000 41.6993 0.0000
# 6 0.0000 0.0000 0.0000 -0.3608 0.0000 14.7641
#
#
#
# Elastic Compliance Matrix: (Units=1/GPa)
#
#
# Indices 1 2 3 4 5 6 
#
# 1 0.019142 -0.002785 -0.004553 0.000000 0.000298 0.000000
# 2 -0.002785 0.033784 -0.007571 0.000000 0.009378 0.000000
# 3 -0.004553 -0.007571 0.011089 0.000000 -0.006688 0.000000
# 4 0.000000 0.000000 0.000000 0.023018 0.000000 0.000563
# 5 0.000298 0.009378 -0.006688 0.000000 0.028956 0.000000
# 6 0.000000 0.000000 0.000000 0.000563 0.000000 0.067746
#
#
# Mechanical properties :
#
#
# Convention : Reuss Voigt Hill
#
# Bulk Modulus (GPa) = 29.24159 43.44279 36.34219
# Shear Modulus (GPa) = 22.22693 30.81043 26.51868
#
# Velocity S-wave (km/s) = 3.24057 3.81531 3.53963
# Velocity P-wave (km/s) = 5.27419 6.31931 5.82026
#
# Compressibility (1/GPa) = 0.03419787
#
# Stress axis : x y z
#
# Youngs Moduli (GPa) = 52.24197 29.59951 90.17552
#
# Poissons Ratio (x) = 0.08242 0.41060
# Poissons Ratio (y) = 0.14547 0.68272
# Poissons Ratio (z) = 0.23787 0.22410
#
# Static dielectric constant tensor:
#      x y z
#    x 1.816880 0.000000 0.029390 
#    y 0.000000 1.794120 0.000000 
#    z 0.029390 0.000000 1.809100 
# 
# From -- ./inp_files/144329.got.cif
#   From: 2010.05.17/outbox.cif.g08.bks.cpg/sg15_73_cif.got.tgz:144329.got - 2010.06.03 18:47:42.
