data_PCOD9267723
_publ_section_title
;
Structure prediction by ZEFSAII (Michael W. Deem and Ramdas Pophale) SiO2 
 PCOD9267723
Probable space group: C 2/C
;
_chemical_formula_sum "Si O2"
_cell_formula_units_Z 56
_cell_length_a 21.757050
_cell_length_b 9.596699
_cell_length_c 11.998300
_cell_angle_alpha 90.000000
_cell_angle_beta 115.287601
_cell_angle_gamma 90.000000
_cell_volume 2265.135046
_symmetry_space_group_name_H-M "C 2/C"
_symmetry_group_IT_number 15
_symmetry_cell_setting 'monoclinic'
loop_
_space_group_symop_operation_xyz
x,y,z
-x,y,1/2-z
-x,-y,-z
x,-y,1/2+z
1/2+x,1/2+y,z
1/2-x,1/2+y,1/2-z
1/2-x,1/2-y,-z
1/2+x,1/2-y,1/2+z
loop_
_atom_site_type_symbol
_atom_site_label
_atom_site_fract_x
_atom_site_fract_y
_atom_site_fract_z
Si Si1 0.849876 0.339056 0.526044
Si Si2 0.981117 0.839723 0.109282
Si Si3 0.719166 0.776819 0.797337
Si Si4 0.894907 0.754426 0.731655
Si Si5 0.460248 0.327335 0.565066
Si Si6 0.207059 0.604399 0.960079
Si Si7 0.204425 0.017200 0.295227
O O1 0.917090 0.260405 0.540740
O O2 0.790586 0.266716 0.409165
O O3 0.831352 0.316660 0.642270
O O4 0.848521 0.506924 0.516547
O O5 0.000000 0.815808 0.250000
O O6 0.039411 0.803104 0.065803
O O7 0.965575 0.005095 0.085959
O O8 0.738250 0.892954 0.723283
O O9 0.694840 0.629848 0.729534
O O10 0.970250 0.750215 0.838902
O O11 0.836662 0.635845 0.687293
O O12 0.863443 0.894057 0.758016
O O13 0.902433 0.776822 0.603685
O O14 0.250000 0.750000 0.000000
O O15 0.270882 0.507291 0.055384
#
# Coordination Sequence:
#
# PCOD9267723 Si02
#       7
#     8   8   8   8   8   8   8
#     4  10  22  42  59  92 131 172 211 281 336 394
#     4  11  22  41  63  93 129 166 223 274 326 391
#     4  10  22  37  63  91 131 167 216 265 340 401
#     4  10  19  40  62  91 128 169 220 271 322 387
#     4  10  22  39  66  92 124 173 222 268 323 389
#     4   9  21  39  64  89 127 170 214 268 331 405
#     4  10  21  37  61  98 127 169 218 267 334 408
#
# _framework density 24.722587000000001
#
# number of rings (size 3 to 8) (size 9 to 14) (size 15 to 20)
#    0.000    2.000    1.429    1.714    4.000    2.286 
#    5.143    0.714    0.000    0.000    0.000    0.000 
#    0.000    0.000    0.000    0.000    0.000    0.000 
#
# Total GULP energy -155876.743648 kJ/mol
# GULP energy per Si atom -5567.026559 kJ/mol
# Density = 2.466632 g / cm^3
# Si number density = 24.722587 Si / 1000 Ang^3
#
#
#
# Elastic Constant Matrix: (Units=GPa)
#
#
# Indices 1 2 3 4 5 6 
#
# 1 106.7066 28.5217 30.4532 0.0000 -21.6253 0.0000
# 2 28.5217 117.8817 33.8400 0.0000 -4.4946 0.0000
# 3 30.4532 33.8400 59.0448 0.0000 -12.1755 0.0000
# 4 0.0000 0.0000 0.0000 28.4937 0.0000 -2.3842
# 5 -21.6253 -4.4946 -12.1755 0.0000 46.1176 0.0000
# 6 0.0000 0.0000 0.0000 -2.3842 0.0000 30.6804
#
#
#
# Elastic Compliance Matrix: (Units=1/GPa)
#
#
# Indices 1 2 3 4 5 6 
#
# 1 0.011884 -0.001443 -0.004423 0.000000 0.004264 0.000000
# 2 -0.001443 0.010343 -0.005410 0.000000 -0.001097 0.000000
# 3 -0.004423 -0.005410 0.023036 0.000000 0.003480 0.000000
# 4 0.000000 0.000000 0.000000 0.035325 0.000000 0.002745
# 5 0.004264 -0.001097 0.003480 0.000000 0.024495 0.000000
# 6 0.000000 0.000000 0.000000 0.002745 0.000000 0.032807
#
#
# Mechanical properties :
#
#
# Convention : Reuss Voigt Hill
#
# Bulk Modulus (GPa) = 44.03136 52.14033 48.08585
# Shear Modulus (GPa) = 29.75967 33.77955 31.76961
#
# Velocity S-wave (km/s) = 3.47327 3.70042 3.58864
# Velocity P-wave (km/s) = 5.82526 6.27642 6.05504
#
# Compressibility (1/GPa) = 0.02271108
#
# Stress axis : x y z
#
# Youngs Moduli (GPa) = 84.14948 96.67966 43.41082
#
# Poissons Ratio (x) = 0.13951 0.19200
# Poissons Ratio (y) = 0.12143 0.23485
# Poissons Ratio (z) = 0.37218 0.52304
#
# Static dielectric constant tensor:
#      x y z
#    x 1.997140 0.000000 -0.049350 
#    y 0.000000 2.077970 0.000000 
#    z -0.049350 0.000000 2.143840 
# 
# From -- ./inp_files/172482.got.cif
#   From: 2010.05.17/outbox.cif.g08.bks.cpg/sg15_87_cif.got.tgz:172482.got - 2010.06.03 18:47:42.
