data_PCOD9267308
_publ_section_title
;
Structure prediction by ZEFSAII (Michael W. Deem and Ramdas Pophale) SiO2 
 PCOD9267308
Probable space group: C 2/C
;
_chemical_formula_sum "Si O2"
_cell_formula_units_Z 48
_cell_length_a 12.418295
_cell_length_b 23.387386
_cell_length_c 8.389279
_cell_angle_alpha 90.000000
_cell_angle_beta 89.489656
_cell_angle_gamma 90.000000
_cell_volume 2436.413884
_symmetry_space_group_name_H-M "C 2/C"
_symmetry_group_IT_number 15
_symmetry_cell_setting 'monoclinic'
loop_
_space_group_symop_operation_xyz
x,y,z
-x,y,1/2-z
-x,-y,-z
x,-y,1/2+z
1/2+x,1/2+y,z
1/2-x,1/2+y,1/2-z
1/2-x,1/2-y,-z
1/2+x,1/2-y,1/2+z
loop_
_atom_site_type_symbol
_atom_site_label
_atom_site_fract_x
_atom_site_fract_y
_atom_site_fract_z
Si Si1 0.714137 0.281809 0.660568
Si Si2 0.615263 0.397819 0.683795
Si Si3 0.685605 0.872485 0.628439
Si Si4 0.127574 0.666027 0.777015
Si Si5 0.723010 0.934670 0.077706
Si Si6 0.387207 0.982559 0.719065
O O1 0.750000 0.250000 0.500000
O O2 0.623872 0.330673 0.634025
O O3 0.808255 0.317649 0.751757
O O4 0.666159 0.231347 0.767165
O O5 0.500000 0.415123 0.750000
O O6 0.302880 0.399315 0.666768
O O7 0.670175 0.429633 0.532359
O O8 0.661102 0.856285 0.450012
O O9 0.609177 0.924070 0.680159
O O10 0.187270 0.627163 0.642979
O O11 0.000000 0.662400 0.750000
O O12 0.711771 0.977205 0.226356
O O13 0.635625 0.961531 0.957870
O O14 0.500000 0.013588 0.750000
#
# Coordination Sequence:
#
# PCOD9267308 Si02
#       6
#     8   8   8   8   8   8
#     4  10  19  39  59  82 122 154 200 249 302 347
#     4   9  20  40  60  79 118 160 203 252 300 348
#     4   9  22  36  58  88 123 155 205 240 300 365
#     4  12  21  36  61  91 122 162 194 245 306 366
#     4  11  22  36  59  87 120 157 201 247 305 361
#     4  11  20  37  57  88 124 157 191 251 308 367
#
# _framework density 19.701086
#
# number of rings (size 3 to 8) (size 9 to 14) (size 15 to 20)
#    1.000    0.667    1.667    4.000    0.000    0.000 
#    0.000    4.167    0.000    0.000    0.000    0.000 
#    0.000    0.000    0.000    0.000    0.000    0.000 
#
# Total GULP energy -133605.513484 kJ/mol
# GULP energy per Si atom -5566.896395 kJ/mol
# Density = 1.965625 g / cm^3
# Si number density = 19.701086 Si / 1000 Ang^3
#
#
#
# Elastic Constant Matrix: (Units=GPa)
#
#
# Indices 1 2 3 4 5 6 
#
# 1 79.8628 17.4142 28.6343 0.0000 -21.8719 0.0000
# 2 17.4142 91.7793 23.5291 0.0000 -12.2758 0.0000
# 3 28.6343 23.5291 88.0273 0.0000 -9.0780 0.0000
# 4 0.0000 0.0000 0.0000 36.9715 0.0000 -9.4149
# 5 -21.8719 -12.2758 -9.0780 0.0000 29.6077 0.0000
# 6 0.0000 0.0000 0.0000 -9.4149 0.0000 13.0421
#
#
#
# Elastic Compliance Matrix: (Units=1/GPa)
#
#
# Indices 1 2 3 4 5 6 
#
# 1 0.017261 -0.000686 -0.004281 0.000000 0.011154 0.000000
# 2 -0.000686 0.012207 -0.002654 0.000000 0.003741 0.000000
# 3 -0.004281 -0.002654 0.013448 0.000000 -0.000140 0.000000
# 4 0.000000 0.000000 0.000000 0.033140 0.000000 0.023923
# 5 0.011154 0.003741 -0.000140 0.000000 0.043523 0.000000
# 6 0.000000 0.000000 0.000000 0.023923 0.000000 0.093944
#
#
# Mechanical properties :
#
#
# Convention : Reuss Voigt Hill
#
# Bulk Modulus (GPa) = 36.13568 44.31384 40.22476
# Shear Modulus (GPa) = 21.00947 28.59705 24.80326
#
# Velocity S-wave (km/s) = 3.26914 3.81405 3.55206
# Velocity P-wave (km/s) = 5.71240 6.47595 6.10612
#
# Compressibility (1/GPa) = 0.02767348
#
# Stress axis : x y z
#
# Youngs Moduli (GPa) = 57.93524 81.92343 74.36220
#
# Poissons Ratio (x) = 0.05617 0.31836
# Poissons Ratio (y) = 0.03972 0.19735
# Poissons Ratio (z) = 0.24803 0.21742
#
# Static dielectric constant tensor:
#      x y z
#    x 1.715260 0.000000 -0.042740 
#    y 0.000000 1.742810 0.000000 
#    z -0.042740 0.000000 1.749420 
# 
# From -- ./inp_files/31892.got.cif
#   From: 2010.05.17/outbox.cif.g08.bks.cpg/sg15_16_cif.got.tgz:31892.got - 2010.06.03 18:47:42.
