data_PCOD9267832
_publ_section_title
;
Structure prediction by ZEFSAII (Michael W. Deem and Ramdas Pophale) SiO2 
 PCOD9267832
Probable space group: C 2/C
;
_chemical_formula_sum "Si O2"
_cell_formula_units_Z 44
_cell_length_a 13.821162
_cell_length_b 12.793597
_cell_length_c 19.768078
_cell_angle_alpha 90.000000
_cell_angle_beta 151.729654
_cell_angle_gamma 90.000000
_cell_volume 1655.553102
_symmetry_space_group_name_H-M "C 2/C"
_symmetry_group_IT_number 15
_symmetry_cell_setting 'monoclinic'
loop_
_space_group_symop_operation_xyz
x,y,z
-x,y,1/2-z
-x,-y,-z
x,-y,1/2+z
1/2+x,1/2+y,z
1/2-x,1/2+y,1/2-z
1/2-x,1/2-y,-z
1/2+x,1/2-y,1/2+z
loop_
_atom_site_type_symbol
_atom_site_label
_atom_site_fract_x
_atom_site_fract_y
_atom_site_fract_z
Si Si1 0.500000 0.301206 0.250000
Si Si2 0.302393 0.592946 0.952748
Si Si3 0.221924 0.213657 0.761227
Si Si4 0.812614 0.691986 0.407775
Si Si5 0.304058 0.015507 0.972406
Si Si6 0.234699 0.995118 0.713104
O O1 0.417518 0.239907 0.264672
O O2 0.317124 0.378547 0.115266
O O3 0.242021 0.536137 0.983693
O O4 0.549471 0.586237 0.096919
O O5 0.232034 0.713378 0.905658
O O6 0.223163 0.533160 0.837568
O O7 0.222361 0.269529 0.689494
O O8 0.143735 0.096557 0.695530
O O9 0.447303 0.192896 0.927832
O O10 0.737728 0.576299 0.379345
O O11 0.548046 0.032106 0.120467
#
# Coordination Sequence:
#
# PCOD9267832 Si02
#       6
#     4   8   8   8   8   8
#     4  12  26  42  68  94 142 176 238 270 334 410
#     4  10  19  40  67 102 136 177 221 287 335 411
#     4  10  23  44  62  98 133 182 221 290 335 411
#     4  10  24  41  70  96 140 171 228 285 355 378
#     4  11  23  40  67 103 132 184 230 277 329 417
#     4   9  20  39  66  97 143 174 219 279 349 398
#
# _framework density 26.577221000000002
#
# number of rings (size 3 to 8) (size 9 to 14) (size 15 to 20)
#    0.000    1.818    1.818    1.091    2.545    5.091 
#    3.273    0.000    0.000    0.000    0.000    0.000 
#    0.000    0.000    0.000    0.000    0.000    0.000 
#
# Total GULP energy -123402.271056 kJ/mol
# GULP energy per Si atom -5609.194139 kJ/mol
# Density = 2.651673 g / cm^3
# Si number density = 26.577221 Si / 1000 Ang^3
#
#
#
# Elastic Constant Matrix: (Units=GPa)
#
#
# Indices 1 2 3 4 5 6 
#
# 1 133.5388 -5.4523 19.6671 0.0061 -21.6328 0.0000
# 2 -5.4523 56.9874 10.7522 0.0134 -4.2888 -0.0004
# 3 19.6671 10.7522 142.0171 0.0156 -5.7778 0.0045
# 4 0.0061 0.0134 0.0156 25.1835 0.0035 -6.9756
# 5 -21.6328 -4.2888 -5.7778 0.0035 44.4814 0.0011
# 6 0.0000 -0.0004 0.0045 -6.9756 0.0011 28.3847
#
#
#
# Elastic Compliance Matrix: (Units=1/GPa)
#
#
# Indices 1 2 3 4 5 6 
#
# 1 0.008359 0.001311 -0.001092 -0.000003 0.004050 -0.000001
# 2 0.001311 0.018114 -0.001464 -0.000010 0.002194 -0.000002
# 3 -0.001092 -0.001464 0.007315 -0.000004 0.000278 -0.000002
# 4 -0.000003 -0.000010 -0.000004 0.042609 -0.000006 0.010471
# 5 0.004050 0.002194 0.000278 -0.000006 0.024698 -0.000003
# 6 -0.000001 -0.000002 -0.000002 0.010471 -0.000003 0.037804
#
#
# Mechanical properties :
#
#
# Convention : Reuss Voigt Hill
#
# Bulk Modulus (GPa) = 31.95125 42.49747 37.22436
# Shear Modulus (GPa) = 32.93331 40.11498 36.52414
#
# Velocity S-wave (km/s) = 3.52398 3.88928 3.71113
# Velocity P-wave (km/s) = 5.34847 6.01611 5.69208
#
# Compressibility (1/GPa) = 0.03129768
#
# Stress axis : x y z
#
# Youngs Moduli (GPa) = 119.63381 55.20467 136.70987
#
# Poissons Ratio (x) = -0.07235 0.14929
# Poissons Ratio (y) = -0.15679 0.20010
# Poissons Ratio (z) = 0.13064 0.08080
#
# Static dielectric constant tensor:
#      x y z
#    x 2.075210 0.000000 0.010580 
#    y 0.000000 2.154840 0.000000 
#    z 0.010580 0.000000 2.034940 
# 
# From -- ./inp_files/168401.got.cif
#   From: 2010.05.17/outbox.cif.g08.bks.cpg/sg15_85_cif.got.tgz:168401.got - 2010.06.03 18:47:42.
