data_PCOD9267670
_publ_section_title
;
Structure prediction by ZEFSAII (Michael W. Deem and Ramdas Pophale) SiO2 
 PCOD9267670
Probable space group: C 2/C
;
_chemical_formula_sum "Si O2"
_cell_formula_units_Z 44
_cell_length_a 14.800805
_cell_length_b 29.329645
_cell_length_c 7.615991
_cell_angle_alpha 90.000000
_cell_angle_beta 140.461537
_cell_angle_gamma 90.000000
_cell_volume 2104.662780
_symmetry_space_group_name_H-M "C 2/C"
_symmetry_group_IT_number 15
_symmetry_cell_setting 'monoclinic'
loop_
_space_group_symop_operation_xyz
x,y,z
-x,y,1/2-z
-x,-y,-z
x,-y,1/2+z
1/2+x,1/2+y,z
1/2-x,1/2+y,1/2-z
1/2-x,1/2-y,-z
1/2+x,1/2-y,1/2+z
loop_
_atom_site_type_symbol
_atom_site_label
_atom_site_fract_x
_atom_site_fract_y
_atom_site_fract_z
Si Si1 0.380125 0.892008 0.922588
Si Si2 0.500000 0.864413 0.750000
Si Si3 0.832789 0.294135 0.953059
Si Si4 0.500000 0.512564 0.750000
Si Si5 0.643202 0.560336 0.267489
Si Si6 0.742971 0.302540 0.219903
Si Si7 0.500000 0.358981 0.750000
O O1 0.446965 0.895775 0.830894
O O2 0.276732 0.930414 0.843088
O O3 0.500000 0.888258 0.250000
O O4 0.312466 0.841278 0.820061
O O5 0.373223 0.831340 0.492342
O O6 0.761218 0.300431 0.035328
O O7 0.000000 0.286208 0.250000
O O8 0.772398 0.250731 0.758557
O O9 0.476806 0.544269 0.548237
O O10 0.368367 0.478887 0.601039
O O11 0.605328 0.607277 0.305238
O O12 0.594403 0.328604 0.021649
#
# Coordination Sequence:
#
# PCOD9267670 Si02
#       7
#     8   4   8   4   8   8   4
#     4  11  22  43  63  91 131 172 204 268 316 378
#     4  12  24  38  63  94 123 173 224 257 312 370
#     4  10  19  40  59  80 131 177 211 259 313 354
#     4   9  22  42  65  92 120 154 198 277 322 391
#     4  10  21  41  65  92 124 155 207 260 331 380
#     4  11  22  36  60  93 127 176 219 260 309 368
#     4  11  20  36  66  96 125 173 208 258 324 383
#
# _framework density 20.90596
#
# number of rings (size 3 to 8) (size 9 to 14) (size 15 to 20)
#    0.000    1.455    6.364    0.000    2.545    0.727 
#    3.273    1.818    0.000    0.000    0.000    0.000 
#    0.000    0.000    0.000    0.000    0.000    0.000 
#
# Total GULP energy -122656.603174 kJ/mol
# GULP energy per Si atom -5575.300144 kJ/mol
# Density = 2.085838 g / cm^3
# Si number density = 20.905960 Si / 1000 Ang^3
#
#
#
# Elastic Constant Matrix: (Units=GPa)
#
#
# Indices 1 2 3 4 5 6 
#
# 1 101.9388 14.2913 -0.7777 0.0000 -14.3390 0.0000
# 2 14.2913 68.2507 13.2337 0.0000 1.9343 0.0000
# 3 -0.7777 13.2337 51.5592 0.0000 4.2627 0.0000
# 4 0.0000 0.0000 0.0000 21.3054 0.0000 23.9536
# 5 -14.3390 1.9343 4.2627 0.0000 28.8807 0.0000
# 6 0.0000 0.0000 0.0000 23.9536 0.0000 24.5714
#
#
#
# Elastic Compliance Matrix: (Units=1/GPa)
#
#
# Indices 1 2 3 4 5 6 
#
# 1 0.010946 -0.002518 0.000352 0.000000 0.005551 0.000000
# 2 -0.002518 0.016004 -0.004003 0.000000 -0.001731 0.000000
# 3 0.000352 -0.004003 0.020643 0.000000 -0.002604 0.000000
# 4 0.000000 0.000000 0.000000 -0.488748 0.000000 0.476460
# 5 0.005551 -0.001731 -0.002604 0.000000 0.037882 0.000000
# 6 0.000000 0.000000 0.000000 0.476460 0.000000 -0.423783
#
#
# Mechanical properties :
#
#
# Convention : Reuss Voigt Hill
#
# Bulk Modulus (GPa) = 28.36266 30.58260 29.47263
# Shear Modulus (GPa) = -6.22690 27.95158 10.86234
#
# Velocity S-wave (km/s) = -1.72771 3.66049 2.28190
# Velocity P-wave (km/s) = 3.10101 5.70315 4.59033
#
# Compressibility (1/GPa) = 0.03525762
#
# Stress axis : x y z
#
# Youngs Moduli (GPa) = 91.35464 62.48342 48.44228
#
# Poissons Ratio (x) = 0.15732 -0.01707
# Poissons Ratio (y) = 0.23001 0.19390
# Poissons Ratio (z) = -0.03219 0.25010
#
# Static dielectric constant tensor:
#      x y z
#    x 1.879710 0.000000 0.010220 
#    y 0.000000 1.790350 0.000000 
#    z 0.010220 0.000000 1.766130 
# 
# From -- ./inp_files/43734.got.cif
#   From: 2010.05.17/outbox.cif.g08.bks.cpg/sg15_22_cif.got.tgz:43734.got - 2010.06.03 18:47:42.
