data_PCOD9267401
_publ_section_title
;
Structure prediction by ZEFSAII (Michael W. Deem and Ramdas Pophale) SiO2 
 PCOD9267401
Probable space group: C 2/C
;
_chemical_formula_sum "Si O2"
_cell_formula_units_Z 56
_cell_length_a 25.002225
_cell_length_b 10.832314
_cell_length_c 30.948958
_cell_angle_alpha 90.000000
_cell_angle_beta 16.990524
_cell_angle_gamma 90.000000
_cell_volume 2449.324163
_symmetry_space_group_name_H-M "C 2/C"
_symmetry_group_IT_number 15
_symmetry_cell_setting 'monoclinic'
loop_
_space_group_symop_operation_xyz
x,y,z
-x,y,1/2-z
-x,-y,-z
x,-y,1/2+z
1/2+x,1/2+y,z
1/2-x,1/2+y,1/2-z
1/2-x,1/2-y,-z
1/2+x,1/2-y,1/2+z
loop_
_atom_site_type_symbol
_atom_site_label
_atom_site_fract_x
_atom_site_fract_y
_atom_site_fract_z
Si Si1 0.284232 0.384979 0.307462
Si Si2 0.000000 0.040028 0.250000
Si Si3 0.655615 0.935101 0.972685
Si Si4 0.180059 0.879655 0.036892
Si Si5 0.481232 0.747860 0.494109
Si Si6 0.500000 0.954275 0.250000
Si Si7 0.636164 0.359008 0.795307
Si Si8 0.555210 0.794401 0.129436
O O1 0.192647 0.431855 0.423355
O O2 0.495223 0.356358 0.152709
O O3 0.160369 0.280720 0.382641
O O4 0.285303 0.506429 0.276171
O O5 0.117893 0.958242 0.126584
O O6 0.140267 0.112192 0.171851
O O7 0.563794 0.854317 0.006596
O O8 0.556845 0.908361 0.093465
O O9 0.250000 0.750000 0.000000
O O10 0.332073 0.958310 0.894063
O O11 0.530914 0.639569 0.422214
O O12 0.304954 0.760107 0.661585
O O13 0.449985 0.862327 0.249502
O O14 0.509441 0.314572 0.853140
O O15 0.750000 0.750000 0.000000
#
# Coordination Sequence:
#
# PCOD9267401 Si02
#       8
#     8   4   8   8   8   4   8   8
#     4  10  22  44  69  88 130 179 227 274 337 412
#     4  10  19  39  62  90 124 174 215 269 332 396
#     4   9  19  36  62  89 125 172 217 260 329 405
#     4  11  24  44  66  93 133 176 229 279 344 408
#     4  10  22  42  64  96 124 174 223 273 336 404
#     4  12  25  41  66 104 142 170 229 289 340 410
#     4  10  22  40  66  94 134 167 222 276 335 410
#     4  11  24  35  63 105 141 174 216 277 356 405
#
# _framework density 22.86345
#
# number of rings (size 3 to 8) (size 9 to 14) (size 15 to 20)
#    0.000    1.714    1.429    3.000   12.000    0.000 
#   10.286    0.714    0.000    0.000    0.000    0.000 
#    0.000    0.000    0.000    0.000    0.000    0.000 
#
# Total GULP energy -156184.778451 kJ/mol
# GULP energy per Si atom -5578.027802 kJ/mol
# Density = 2.281141 g / cm^3
# Si number density = 22.863450 Si / 1000 Ang^3
#
#
#
# Elastic Constant Matrix: (Units=GPa)
#
#
# Indices 1 2 3 4 5 6 
#
# 1 71.1915 11.6258 15.3758 -0.0029 -6.9752 0.0102
# 2 11.6258 55.2457 19.0846 -0.0092 3.1813 0.0136
# 3 15.3758 19.0846 80.7220 -0.0186 2.0820 0.0194
# 4 -0.0029 -0.0092 -0.0186 19.3739 -0.0192 -4.3684
# 5 -6.9752 3.1813 2.0820 -0.0192 45.0879 -0.0011
# 6 0.0102 0.0136 0.0194 -4.3684 -0.0011 19.5660
#
#
#
# Elastic Compliance Matrix: (Units=1/GPa)
#
#
# Indices 1 2 3 4 5 6 
#
# 1 0.015232 -0.002539 -0.002369 0.000001 0.002645 -0.000004
# 2 -0.002539 0.020197 -0.004249 0.000002 -0.001622 -0.000008
# 3 -0.002369 -0.004249 0.013862 0.000009 -0.000707 -0.000008
# 4 0.000001 0.000002 0.000009 0.054352 0.000023 0.012135
# 5 0.002645 -0.001622 -0.000707 0.000023 0.022735 0.000007
# 6 -0.000004 -0.000008 -0.000008 0.012135 0.000007 0.053818
#
#
# Mechanical properties :
#
#
# Convention : Reuss Voigt Hill
#
# Bulk Modulus (GPa) = 32.28389 33.25907 32.77148
# Shear Modulus (GPa) = 23.94198 27.54374 25.74286
#
# Velocity S-wave (km/s) = 3.23952 3.47465 3.35914
# Velocity P-wave (km/s) = 5.30505 5.53859 5.42308
#
# Compressibility (1/GPa) = 0.03097520
#
# Stress axis : x y z
#
# Youngs Moduli (GPa) = 65.65057 49.51309 72.13749
#
# Poissons Ratio (x) = 0.12573 0.17091
# Poissons Ratio (y) = 0.16670 0.30655
# Poissons Ratio (z) = 0.15554 0.21040
#
# Static dielectric constant tensor:
#      x y z
#    x 1.899650 0.000050 0.067490 
#    y 0.000050 1.885610 0.000160 
#    z 0.067490 0.000160 2.031660 
# 
# From -- ./inp_files/318788.got.cif
#   From: 2010.05.17/outbox.cif.g08.bks.cpg/sg15_160_cif.got.tgz:318788.got - 2010.06.03 18:47:42.
