data_PCOD9267403
_publ_section_title
;
Structure prediction by ZEFSAII (Michael W. Deem and Ramdas Pophale) SiO2 
 PCOD9267403
Probable space group: C 2/C
;
_chemical_formula_sum "Si O2"
_cell_formula_units_Z 60
_cell_length_a 15.259685
_cell_length_b 11.992465
_cell_length_c 22.403315
_cell_angle_alpha 90.000000
_cell_angle_beta 133.786405
_cell_angle_gamma 90.000000
_cell_volume 2959.770634
_symmetry_space_group_name_H-M "C 2/C"
_symmetry_group_IT_number 15
_symmetry_cell_setting 'monoclinic'
loop_
_space_group_symop_operation_xyz
x,y,z
-x,y,1/2-z
-x,-y,-z
x,-y,1/2+z
1/2+x,1/2+y,z
1/2-x,1/2+y,1/2-z
1/2-x,1/2-y,-z
1/2+x,1/2-y,1/2+z
loop_
_atom_site_type_symbol
_atom_site_label
_atom_site_fract_x
_atom_site_fract_y
_atom_site_fract_z
Si Si1 0.563998 0.946530 0.184802
Si Si2 0.000000 0.371091 0.750000
Si Si3 0.131157 0.464843 0.083198
Si Si4 0.615952 0.740134 0.409935
Si Si5 0.759398 0.744212 0.164049
Si Si6 0.211537 0.842734 0.835096
Si Si7 0.087367 0.082265 0.151280
Si Si8 0.815156 0.845597 0.319546
O O1 0.515475 0.047895 0.200544
O O2 0.622302 0.984426 0.150168
O O3 0.679892 0.891309 0.271653
O O4 0.464607 0.852364 0.123377
O O5 0.121667 0.298252 0.813470
O O6 0.177498 0.339562 0.095198
O O7 0.230817 0.549683 0.106378
O O8 0.000000 0.500000 0.000000
O O9 0.750000 0.750000 0.500000
O O10 0.628864 0.713533 0.345923
O O11 0.542699 0.641599 0.408658
O O12 0.673271 0.643391 0.143769
O O13 0.807185 0.797523 0.248832
O O14 0.142172 0.884248 0.742666
O O15 0.320944 0.759430 0.866605
O O16 0.095549 0.950937 0.141069
#
# Coordination Sequence:
#
# PCOD9267403 Si02
#       8
#     8   4   8   8   8   8   8   8
#     4  11  20  39  61  88 123 165 204 247 316 366
#     4  12  22  36  66  98 118 148 216 272 304 352
#     4  11  22  42  63  85 126 172 198 237 319 389
#     4  12  25  38  59  94 130 162 206 257 306 375
#     4  10  21  36  61  92 121 153 200 257 305 355
#     4  11  21  37  63  94 115 162 210 253 306 362
#     4  11  20  40  63  90 123 156 208 257 306 362
#     4  10  19  39  62  91 115 157 206 260 302 365
#
# _framework density 20.271841999999999
#
# number of rings (size 3 to 8) (size 9 to 14) (size 15 to 20)
#    0.000    1.067    8.000    2.800    0.000    1.067 
#    0.000    2.667    0.000    0.000    0.000    0.000 
#    0.000    0.000    0.000    0.000    0.000    0.000 
#
# Total GULP energy -167434.896405 kJ/mol
# GULP energy per Si atom -5581.163213 kJ/mol
# Density = 2.022570 g / cm^3
# Si number density = 20.271842 Si / 1000 Ang^3
#
#
#
# Elastic Constant Matrix: (Units=GPa)
#
#
# Indices 1 2 3 4 5 6 
#
# 1 76.7175 9.4310 -1.7283 0.0000 10.3442 0.0000
# 2 9.4310 75.7597 -9.8102 0.0000 2.4884 0.0000
# 3 -1.7283 -9.8102 23.1972 0.0000 17.3939 0.0000
# 4 0.0000 0.0000 0.0000 11.3374 0.0000 9.0907
# 5 10.3442 2.4884 17.3939 0.0000 26.6103 0.0000
# 6 0.0000 0.0000 0.0000 9.0907 0.0000 46.4072
#
#
#
# Elastic Compliance Matrix: (Units=1/GPa)
#
#
# Indices 1 2 3 4 5 6 
#
# 1 0.015015 -0.000059 0.010720 0.000000 -0.012838 0.000000
# 2 -0.000059 0.015512 0.014957 0.000000 -0.011204 0.000000
# 3 0.010720 0.014957 0.106705 0.000000 -0.075314 0.000000
# 4 0.000000 0.000000 0.000000 0.104640 0.000000 -0.020498
# 5 -0.012838 -0.011204 -0.075314 0.000000 0.092847 0.000000
# 6 0.000000 0.000000 0.000000 -0.020498 0.000000 0.025564
#
#
# Mechanical properties :
#
#
# Convention : Reuss Voigt Hill
#
# Bulk Modulus (GPa) = 5.30599 19.05105 12.17852
# Shear Modulus (GPa) = 13.44559 28.72309 21.08434
#
# Velocity S-wave (km/s) = 2.57819 3.76825 3.22853
# Velocity P-wave (km/s) = 3.38907 5.32458 4.46301
#
# Compressibility (1/GPa) = 0.18846621
#
# Stress axis : x y z
#
# Youngs Moduli (GPa) = 66.60152 64.46722 9.37164
#
# Poissons Ratio (x) = 0.00382 -0.10047
# Poissons Ratio (y) = 0.00395 -0.14017
# Poissons Ratio (z) = -0.71398 -0.96421
#
# Static dielectric constant tensor:
#      x y z
#    x 1.693970 0.000000 -0.005400 
#    y 0.000000 1.789270 0.000000 
#    z -0.005400 0.000000 1.774630 
# 
# From -- ./inp_files/273873.got.cif
#   From: 2010.05.17/outbox.cif.g08.bks.cpg/sg15_137_cif.got.tgz:273873.got - 2010.06.03 18:47:42.
