data_PCOD9267976
_publ_section_title
;
Structure prediction by ZEFSAII (Michael W. Deem and Ramdas Pophale) SiO2 
 PCOD9267976
Probable space group: C 2/C
;
_chemical_formula_sum "Si O2"
_cell_formula_units_Z 60
_cell_length_a 9.978999
_cell_length_b 11.435785
_cell_length_c 23.723316
_cell_angle_alpha 90.000000
_cell_angle_beta 111.651204
_cell_angle_gamma 90.000000
_cell_volume 2516.245697
_symmetry_space_group_name_H-M "C 2/C"
_symmetry_group_IT_number 15
_symmetry_cell_setting 'monoclinic'
loop_
_space_group_symop_operation_xyz
x,y,z
-x,y,1/2-z
-x,-y,-z
x,-y,1/2+z
1/2+x,1/2+y,z
1/2-x,1/2+y,1/2-z
1/2-x,1/2-y,-z
1/2+x,1/2-y,1/2+z
loop_
_atom_site_type_symbol
_atom_site_label
_atom_site_fract_x
_atom_site_fract_y
_atom_site_fract_z
Si Si1 0.636506 0.661867 0.037995
Si Si2 0.336953 0.422017 0.504720
Si Si3 0.533118 0.222711 0.691843
Si Si4 0.775211 0.539325 0.730282
Si Si5 0.687566 0.808238 0.829714
Si Si6 0.000000 0.106552 0.750000
Si Si7 0.716973 0.709880 0.618455
Si Si8 0.446135 0.126477 0.471971
O O1 0.671520 0.562165 0.997970
O O2 0.772414 0.675276 0.099259
O O3 0.496573 0.611019 0.049854
O O4 0.573476 0.783504 0.006370
O O5 0.332613 0.376160 0.439335
O O6 0.202392 0.365151 0.515095
O O7 0.500000 0.267667 0.750000
O O8 0.596125 0.092388 0.712175
O O9 0.663833 0.276708 0.678815
O O10 0.385781 0.234342 0.635487
O O11 0.837876 0.431281 0.705124
O O12 0.629089 0.528206 0.744354
O O13 0.723392 0.640106 0.678014
O O14 0.578377 0.700907 0.803627
O O15 0.617433 0.825767 0.597870
O O16 0.500000 0.000000 0.500000
#
# Coordination Sequence:
#
# PCOD9267976 Si02
#       8
#     8   8   8   8   8   4   8   8
#     4  10  21  39  62  91 118 165 216 247 319 386
#     4  10  20  38  65  88 120 164 209 261 301 381
#     4   9  20  36  60  91 115 160 214 250 308 389
#     4  10  22  40  64  91 125 162 207 262 321 372
#     4  11  21  40  63  88 127 166 201 265 323 368
#     4  10  26  42  58  98 128 154 214 268 302 396
#     4  10  19  41  64  88 120 167 216 252 314 390
#     4  11  24  40  60  94 132 163 206 270 318 379
#
# _framework density 23.845046
#
# number of rings (size 3 to 8) (size 9 to 14) (size 15 to 20)
#    0.000    1.867    1.333    3.200    3.733    1.600 
#    4.800    4.000    0.000    0.000    0.000    0.000 
#    0.000    0.000    0.000    0.000    0.000    0.000 
#
# Total GULP energy -167342.642968 kJ/mol
# GULP energy per Si atom -5578.088099 kJ/mol
# Density = 2.379077 g / cm^3
# Si number density = 23.845046 Si / 1000 Ang^3
#
#
#
# Elastic Constant Matrix: (Units=GPa)
#
#
# Indices 1 2 3 4 5 6 
#
# 1 83.9539 15.0593 4.3166 0.0000 14.4815 0.0000
# 2 15.0593 116.1103 19.6354 0.0000 19.6899 0.0000
# 3 4.3166 19.6354 51.6852 0.0000 34.5682 0.0000
# 4 0.0000 0.0000 0.0000 10.8893 0.0000 6.4556
# 5 14.4815 19.6899 34.5682 0.0000 36.2522 0.0000
# 6 0.0000 0.0000 0.0000 6.4556 0.0000 24.0878
#
#
#
# Elastic Compliance Matrix: (Units=1/GPa)
#
#
# Indices 1 2 3 4 5 6 
#
# 1 0.013735 -0.000995 0.007009 0.000000 -0.011630 0.000000
# 2 -0.000995 0.009562 -0.000944 0.000000 -0.003896 0.000000
# 3 0.007009 -0.000944 0.057008 0.000000 -0.056647 0.000000
# 4 0.000000 0.000000 0.000000 0.109180 0.000000 -0.029261
# 5 -0.011630 -0.003896 -0.056647 0.000000 0.088362 0.000000
# 6 0.000000 0.000000 0.000000 -0.029261 0.000000 0.049357
#
#
# Mechanical properties :
#
#
# Convention : Reuss Voigt Hill
#
# Bulk Modulus (GPa) = 11.05617 36.64135 23.84876
# Shear Modulus (GPa) = 14.40048 28.42839 21.41444
#
# Velocity S-wave (km/s) = 2.46014 3.45659 3.00003
# Velocity P-wave (km/s) = 3.56602 5.59736 4.69292
#
# Compressibility (1/GPa) = 0.09044721
#
# Stress axis : x y z
#
# Youngs Moduli (GPa) = 72.80432 104.58287 17.54153
#
# Poissons Ratio (x) = 0.10401 -0.12295
# Poissons Ratio (y) = 0.07241 0.01655
# Poissons Ratio (z) = -0.51031 0.09868
#
# Static dielectric constant tensor:
#      x y z
#    x 1.868580 0.000000 -0.165050 
#    y 0.000000 1.985740 0.000000 
#    z -0.165050 0.000000 1.461540 
# 
# From -- ./inp_files/292275.got.cif
#   From: 2010.05.17/outbox.cif.g08.bks.cpg/sg15_147_cif.got.tgz:292275.got - 2010.06.03 18:47:42.
