data_PCOD9267712
_publ_section_title
;
Structure prediction by ZEFSAII (Michael W. Deem and Ramdas Pophale) SiO2 
 PCOD9267712
Probable space group: C 2/C
;
_chemical_formula_sum "Si O2"
_cell_formula_units_Z 48
_cell_length_a 7.718934
_cell_length_b 22.759333
_cell_length_c 12.594752
_cell_angle_alpha 90.000000
_cell_angle_beta 100.396760
_cell_angle_gamma 90.000000
_cell_volume 2176.290709
_symmetry_space_group_name_H-M "C 2/C"
_symmetry_group_IT_number 15
_symmetry_cell_setting 'monoclinic'
loop_
_space_group_symop_operation_xyz
x,y,z
-x,y,1/2-z
-x,-y,-z
x,-y,1/2+z
1/2+x,1/2+y,z
1/2-x,1/2+y,1/2-z
1/2-x,1/2-y,-z
1/2+x,1/2-y,1/2+z
loop_
_atom_site_type_symbol
_atom_site_label
_atom_site_fract_x
_atom_site_fract_y
_atom_site_fract_z
Si Si1 0.098591 0.693631 0.436408
Si Si2 0.202626 0.716462 0.666326
Si Si3 0.000000 0.392338 0.750000
Si Si4 0.965405 0.877564 0.960922
Si Si5 0.662831 0.525239 0.184715
Si Si6 0.830341 0.891902 0.307300
Si Si7 0.500000 0.686222 0.250000
O O1 0.060622 0.707778 0.555044
O O2 0.130146 0.754651 0.376856
O O3 0.286454 0.658541 0.464315
O O4 0.989170 0.649593 0.351991
O O5 0.218073 0.657068 0.734075
O O6 0.154931 0.769216 0.739031
O O7 0.174648 0.432068 0.769200
O O8 0.911435 0.945059 0.931514
O O9 0.033441 0.852209 0.857124
O O10 0.102276 0.871928 0.070403
O O11 0.500000 0.526087 0.250000
O O12 0.734372 0.458784 0.187097
O O13 0.000000 0.896294 0.250000
#
# Coordination Sequence:
#
# PCOD9267712 Si02
#       7
#     8   8   4   8   8   8   4
#     4   9  20  37  64  85 127 163 221 260 307 393
#     4  10  21  38  57  94 127 165 211 266 316 385
#     4  10  22  41  68  95 122 180 212 262 332 368
#     4  10  19  40  62  89 121 170 214 260 318 382
#     4  10  22  42  66  96 131 163 221 269 313 384
#     4  11  22  37  65  90 122 172 215 257 325 379
#     4  10  22  37  58  89 132 164 204 274 320 374
#
# _framework density 22.055876999999999
#
# number of rings (size 3 to 8) (size 9 to 14) (size 15 to 20)
#    0.000    2.000    2.500    0.500    1.167    1.333 
#    3.000    0.833    0.000    0.000    0.000    0.000 
#    0.000    0.000    0.000    0.000    0.000    0.000 
#
# Total GULP energy -133901.975242 kJ/mol
# GULP energy per Si atom -5579.248968 kJ/mol
# Density = 2.200568 g / cm^3
# Si number density = 22.055877 Si / 1000 Ang^3
#
#
#
# Elastic Constant Matrix: (Units=GPa)
#
#
# Indices 1 2 3 4 5 6 
#
# 1 41.0881 15.6525 17.0709 0.0000 4.2733 0.0000
# 2 15.6525 175.0722 68.8410 0.0000 9.0565 0.0000
# 3 17.0709 68.8410 137.9399 0.0000 4.9292 0.0000
# 4 0.0000 0.0000 0.0000 27.0242 0.0000 10.2141
# 5 4.2733 9.0565 4.9292 0.0000 20.3642 0.0000
# 6 0.0000 0.0000 0.0000 10.2141 0.0000 21.8430
#
#
#
# Elastic Compliance Matrix: (Units=1/GPa)
#
#
# Indices 1 2 3 4 5 6 
#
# 1 0.026277 -0.001126 -0.002533 0.000000 -0.004400 0.000000
# 2 -0.001126 0.007265 -0.003409 0.000000 -0.002170 0.000000
# 3 -0.002533 -0.003409 0.009271 0.000000 -0.000197 0.000000
# 4 0.000000 0.000000 0.000000 0.044948 0.000000 -0.021018
# 5 -0.004400 -0.002170 -0.000197 0.000000 0.051042 0.000000
# 6 0.000000 0.000000 0.000000 -0.021018 0.000000 0.055610
#
#
# Mechanical properties :
#
#
# Convention : Reuss Voigt Hill
#
# Bulk Modulus (GPa) = 34.86962 61.91431 48.39196
# Shear Modulus (GPa) = 22.92448 30.68199 26.80324
#
# Velocity S-wave (km/s) = 3.22744 3.73380 3.48981
# Velocity P-wave (km/s) = 5.45275 6.83526 6.18277
#
# Compressibility (1/GPa) = 0.02867826
#
# Stress axis : x y z
#
# Youngs Moduli (GPa) = 38.05639 137.64085 107.85942
#
# Poissons Ratio (x) = 0.15494 0.27319
# Poissons Ratio (y) = 0.04284 0.36769
# Poissons Ratio (z) = 0.09639 0.46922
#
# Static dielectric constant tensor:
#      x y z
#    x 1.884110 0.000000 -0.003910 
#    y 0.000000 1.848170 0.000000 
#    z -0.003910 0.000000 1.924530 
# 
# From -- ./inp_files/79817.got.cif
#   From: 2010.05.17/outbox.cif.g08.bks.cpg/sg15_40_cif.got.tgz:79817.got - 2010.06.03 18:47:42.
