data_PCOD9267961
_publ_section_title
;
Structure prediction by ZEFSAII (Michael W. Deem and Ramdas Pophale) SiO2 
 PCOD9267961
Probable space group: C 2/C
;
_chemical_formula_sum "Si O2"
_cell_formula_units_Z 60
_cell_length_a 15.032242
_cell_length_b 16.814711
_cell_length_c 20.458639
_cell_angle_alpha 90.000000
_cell_angle_beta 37.793166
_cell_angle_gamma 90.000000
_cell_volume 3168.967135
_symmetry_space_group_name_H-M "C 2/C"
_symmetry_group_IT_number 15
_symmetry_cell_setting 'monoclinic'
loop_
_space_group_symop_operation_xyz
x,y,z
-x,y,1/2-z
-x,-y,-z
x,-y,1/2+z
1/2+x,1/2+y,z
1/2-x,1/2+y,1/2-z
1/2-x,1/2-y,-z
1/2+x,1/2-y,1/2+z
loop_
_atom_site_type_symbol
_atom_site_label
_atom_site_fract_x
_atom_site_fract_y
_atom_site_fract_z
Si Si1 0.062930 0.102682 0.911446
Si Si2 0.754196 0.108679 0.307549
Si Si3 0.000000 0.782340 0.250000
Si Si4 0.787519 0.381623 0.070301
Si Si5 0.043059 0.275418 0.864604
Si Si6 0.950157 0.935607 0.931826
Si Si7 0.356930 0.061164 0.673825
Si Si8 0.308803 0.936795 0.511505
O O1 0.024643 0.186516 0.902222
O O2 0.231494 0.083563 0.797496
O O3 0.037323 0.102185 0.003685
O O4 0.973655 0.030096 0.930737
O O5 0.685874 0.185080 0.312683
O O6 0.733430 0.109586 0.397486
O O7 0.918929 0.093322 0.190361
O O8 0.664839 0.031495 0.333143
O O9 0.866124 0.838592 0.346899
O O10 0.952502 0.730117 0.215946
O O11 0.826045 0.391112 0.124702
O O12 0.785280 0.470202 0.042778
O O13 0.909037 0.329148 0.965085
O O14 0.798579 0.917681 0.985106
O O15 0.520987 0.075267 0.600763
#
# Coordination Sequence:
#
# PCOD9267961 Si02
#       8
#     8   8   4   8   8   8   8   8
#     4  10  23  41  63  86 130 165 194 261 323 361
#     4  10  21  39  62  89 122 160 207 252 310 356
#     4  12  26  36  62  96 130 160 196 250 328 384
#     4  11  22  40  62  97 121 161 206 254 314 369
#     4  12  23  42  60  93 128 163 195 258 318 377
#     4  10  23  40  63  92 118 166 212 252 305 371
#     4  10  19  41  63  86 121 165 207 249 304 364
#     4  11  20  39  69  91 116 162 220 260 285 377
#
# _framework density 18.933613999999999
#
# number of rings (size 3 to 8) (size 9 to 14) (size 15 to 20)
#    0.000    1.333    4.000    2.400    5.600    0.533 
#    4.800    0.667    2.933    0.000    0.000    0.000 
#    0.000    0.000    0.000    0.000    0.000    0.000 
#
# Total GULP energy -167671.036302 kJ/mol
# GULP energy per Si atom -5589.034543 kJ/mol
# Density = 1.889052 g / cm^3
# Si number density = 18.933614 Si / 1000 Ang^3
#
#
#
# Elastic Constant Matrix: (Units=GPa)
#
#
# Indices 1 2 3 4 5 6 
#
# 1 90.5743 15.5760 9.6774 -0.0001 -8.2656 0.0001
# 2 15.5760 45.3407 -9.1837 -0.0001 17.3135 0.0001
# 3 9.6774 -9.1837 36.3776 -0.0003 3.3147 0.0002
# 4 -0.0001 -0.0001 -0.0003 13.9324 0.0001 3.4673
# 5 -8.2656 17.3135 3.3147 0.0001 25.3901 -0.0001
# 6 0.0001 0.0001 0.0002 3.4673 -0.0001 14.8374
#
#
#
# Elastic Compliance Matrix: (Units=1/GPa)
#
#
# Indices 1 2 3 4 5 6 
#
# 1 0.015538 -0.012807 -0.008727 0.000000 0.014930 0.000000
# 2 -0.012807 0.044010 0.017844 0.000001 -0.036509 -0.000001
# 3 -0.008727 0.017844 0.036113 0.000001 -0.019724 -0.000001
# 4 0.000000 0.000001 0.000001 0.076207 -0.000001 -0.017808
# 5 0.014930 -0.036509 -0.019724 -0.000001 0.071716 0.000001
# 6 0.000000 -0.000001 -0.000001 -0.017808 0.000001 0.071559
#
#
# Mechanical properties :
#
#
# Convention : Reuss Voigt Hill
#
# Bulk Modulus (GPa) = 11.32733 22.71467 17.02100
# Shear Modulus (GPa) = 14.20657 21.24685 17.72671
#
# Velocity S-wave (km/s) = 2.74220 3.35352 3.06315
# Velocity P-wave (km/s) = 4.00273 5.19787 4.63895
#
# Compressibility (1/GPa) = 0.08828206
#
# Stress axis : x y z
#
# Youngs Moduli (GPa) = 64.35850 22.72207 27.69076
#
# Poissons Ratio (x) = 0.29099 0.24166
# Poissons Ratio (y) = 0.82422 -0.49412
# Poissons Ratio (z) = 0.56166 -0.40546
#
# Static dielectric constant tensor:
#      x y z
#    x 1.640110 0.000000 -0.003010 
#    y 0.000000 1.644530 0.000000 
#    z -0.003010 0.000000 1.648890 
# 
# From -- ./inp_files/244698.got.cif
#   From: 2010.05.17/outbox.cif.g08.bks.cpg/sg15_123_cif.got.tgz:244698.got - 2010.06.03 18:47:42.
