data_PCOD9267509
_publ_section_title
;
Structure prediction by ZEFSAII (Michael W. Deem and Ramdas Pophale) SiO2 
 PCOD9267509
Probable space group: C 2/C
;
_chemical_formula_sum "Si O2"
_cell_formula_units_Z 56
_cell_length_a 10.358975
_cell_length_b 16.339162
_cell_length_c 20.691386
_cell_angle_alpha 90.000000
_cell_angle_beta 38.689157
_cell_angle_gamma 90.000000
_cell_volume 2189.183357
_symmetry_space_group_name_H-M "C 2/C"
_symmetry_group_IT_number 15
_symmetry_cell_setting 'monoclinic'
loop_
_space_group_symop_operation_xyz
x,y,z
-x,y,1/2-z
-x,-y,-z
x,-y,1/2+z
1/2+x,1/2+y,z
1/2-x,1/2+y,1/2-z
1/2-x,1/2-y,-z
1/2+x,1/2-y,1/2+z
loop_
_atom_site_type_symbol
_atom_site_label
_atom_site_fract_x
_atom_site_fract_y
_atom_site_fract_z
Si Si1 0.817514 0.366389 0.175329
Si Si2 0.194962 0.191182 0.347902
Si Si3 0.293852 0.571287 0.647558
Si Si4 0.536266 0.609813 0.162179
Si Si5 0.807117 0.544359 0.546332
Si Si6 0.275185 0.074884 0.420307
Si Si7 0.282781 0.206573 0.914685
O O1 0.726161 0.274972 0.212605
O O2 0.739388 0.426479 0.262374
O O3 0.759368 0.396450 0.125630
O O4 0.058234 0.345894 0.101682
O O5 0.311848 0.154274 0.362798
O O6 0.852177 0.199309 0.380254
O O7 0.954504 0.202774 0.467560
O O8 0.336796 0.375554 0.695661
O O9 0.533658 0.571296 0.534630
O O10 0.215910 0.659519 0.653373
O O11 0.500000 0.588730 0.250000
O O12 0.655973 0.531232 0.089096
O O13 0.876231 0.581067 0.450842
O O14 0.000000 0.500000 0.500000
O O15 0.305645 0.997347 0.360666
#
# Coordination Sequence:
#
# PCOD9267509 Si02
#       7
#     8   8   8   8   8   8   8
#     4  11  22  35  63  95 133 159 225 269 323 384
#     4  10  21  41  65  90 126 178 215 265 327 401
#     4  10  20  38  63  95 124 172 213 269 321 392
#     4  11  22  35  63  94 128 159 219 277 322 377
#     4  12  25  40  60  95 129 171 216 280 333 392
#     4  10  23  40  64  85 132 172 215 255 340 397
#     4  10  19  39  64  94 127 170 218 269 329 392
#
# _framework density 25.580314000000001
#
# number of rings (size 3 to 8) (size 9 to 14) (size 15 to 20)
#    0.000    1.429    0.000    9.000    4.000    0.571 
#    0.000    0.000    0.000    3.429    0.000    0.000 
#    0.000    0.000    0.000    0.000    0.000    0.000 
#
# Total GULP energy -156422.816142 kJ/mol
# GULP energy per Si atom -5586.529148 kJ/mol
# Density = 2.552209 g / cm^3
# Si number density = 25.580314 Si / 1000 Ang^3
#
#
#
# Elastic Constant Matrix: (Units=GPa)
#
#
# Indices 1 2 3 4 5 6 
#
# 1 111.5581 46.0951 31.6925 0.0007 47.4293 -0.0007
# 2 46.0951 119.2400 29.6933 0.0013 22.8356 -0.0007
# 3 31.6925 29.6933 112.8035 0.0008 23.3083 -0.0010
# 4 0.0007 0.0013 0.0008 41.1402 -0.0008 22.1311
# 5 47.4293 22.8356 23.3083 -0.0008 60.7707 0.0009
# 6 -0.0007 -0.0007 -0.0010 22.1311 0.0009 40.7093
#
#
#
# Elastic Compliance Matrix: (Units=1/GPa)
#
#
# Indices 1 2 3 4 5 6 
#
# 1 0.015003 -0.003602 -0.001224 -0.000001 -0.009887 0.000001
# 2 -0.003602 0.010260 -0.001600 0.000000 -0.000431 0.000000
# 3 -0.001224 -0.001600 0.010110 0.000000 -0.002321 0.000000
# 4 -0.000001 0.000000 0.000000 0.034354 0.000002 -0.018676
# 5 -0.009887 -0.000431 -0.002321 0.000002 0.025223 -0.000002
# 6 0.000001 0.000000 0.000000 -0.018676 -0.000002 0.034717
#
#
# Mechanical properties :
#
#
# Convention : Reuss Voigt Hill
#
# Bulk Modulus (GPa) = 44.40294 62.06259 53.23276
# Shear Modulus (GPa) = 33.32772 44.26541 38.79656
#
# Velocity S-wave (km/s) = 3.61344 4.16438 3.89865
# Velocity P-wave (km/s) = 5.89959 6.88747 6.41258
#
# Compressibility (1/GPa) = 0.02252103
#
# Stress axis : x y z
#
# Youngs Moduli (GPa) = 66.65243 97.46972 98.91586
#
# Poissons Ratio (x) = 0.35105 0.12110
# Poissons Ratio (y) = 0.24006 0.15824
# Poissons Ratio (z) = 0.08160 0.15593
#
# Static dielectric constant tensor:
#      x y z
#    x 2.002550 0.000000 -0.086250 
#    y 0.000000 2.027070 0.000030 
#    z -0.086250 0.000030 2.259410 
# 
# From -- ./inp_files/239493.got.cif
#   From: 2010.05.17/outbox.cif.g08.bks.cpg/sg15_120_cif.got.tgz:239493.got - 2010.06.03 18:47:42.
