data_PCOD9267357
_publ_section_title
;
Structure prediction by ZEFSAII (Michael W. Deem and Ramdas Pophale) SiO2 
 PCOD9267357
Probable space group: C 2/C
;
_chemical_formula_sum "Si O2"
_cell_formula_units_Z 48
_cell_length_a 8.370242
_cell_length_b 16.847345
_cell_length_c 26.083032
_cell_angle_alpha 90.000000
_cell_angle_beta 39.981671
_cell_angle_gamma 90.000000
_cell_volume 2363.357542
_symmetry_space_group_name_H-M "C 2/C"
_symmetry_group_IT_number 15
_symmetry_cell_setting 'monoclinic'
loop_
_space_group_symop_operation_xyz
x,y,z
-x,y,1/2-z
-x,-y,-z
x,-y,1/2+z
1/2+x,1/2+y,z
1/2-x,1/2+y,1/2-z
1/2-x,1/2-y,-z
1/2+x,1/2-y,1/2+z
loop_
_atom_site_type_symbol
_atom_site_label
_atom_site_fract_x
_atom_site_fract_y
_atom_site_fract_z
Si Si1 0.874517 0.149960 0.355577
Si Si2 0.735464 0.735495 0.584583
Si Si3 0.545691 0.920035 0.021958
Si Si4 0.906020 0.376688 0.682468
Si Si5 0.729401 0.974493 0.085694
Si Si6 0.136718 0.191564 0.915521
O O1 0.771842 0.119374 0.434676
O O2 0.683790 0.126617 0.355860
O O3 0.859171 0.245358 0.359134
O O4 0.148024 0.120221 0.276052
O O5 0.563381 0.797635 0.657400
O O6 0.556242 0.710453 0.581922
O O7 0.843079 0.650898 0.575686
O O8 0.970401 0.787645 0.506584
O O9 0.595015 0.946411 0.067152
O O10 0.500000 0.000000 0.000000
O O11 0.078609 0.453013 0.646641
O O12 0.768397 0.897277 0.110567
O O13 0.000000 0.000000 0.000000
#
# Coordination Sequence:
#
# PCOD9267357 Si02
#       6
#     8   8   8   8   8   8
#     4   9  20  38  61  83 120 160 198 235 306 355
#     4   9  18  36  62  81 114 154 196 230 293 361
#     4  11  21  37  61  91 113 157 203 244 284 359
#     4  10  19  39  61  86 120 160 192 249 301 354
#     4  12  22  36  63  91 120 150 204 251 294 345
#     4   9  18  35  59  87 111 154 193 237 286 362
#
# _framework density 20.310086999999999
#
# number of rings (size 3 to 8) (size 9 to 14) (size 15 to 20)
#    0.000    2.000    3.333    2.000    0.000    2.667 
#    3.000    0.833    3.667    0.000    0.000    0.000 
#    0.000    0.000    0.000    0.000    0.000    0.000 
#
# Total GULP energy -133841.673902 kJ/mol
# GULP energy per Si atom -5576.736413 kJ/mol
# Density = 2.026386 g / cm^3
# Si number density = 20.310087 Si / 1000 Ang^3
#
#
#
# Elastic Constant Matrix: (Units=GPa)
#
#
# Indices 1 2 3 4 5 6 
#
# 1 20.4782 31.0536 20.4594 -0.0021 -14.1959 -0.0009
# 2 31.0536 172.5505 47.0963 -0.0017 -30.5388 0.0010
# 3 20.4594 47.0963 62.4913 -0.0078 -24.0052 0.0033
# 4 -0.0021 -0.0017 -0.0078 24.9368 0.0032 -10.8433
# 5 -14.1959 -30.5388 -24.0052 0.0032 25.1297 -0.0006
# 6 -0.0009 0.0010 0.0033 -10.8433 -0.0006 40.8751
#
#
#
# Elastic Compliance Matrix: (Units=1/GPa)
#
#
# Indices 1 2 3 4 5 6 
#
# 1 0.096520 -0.008094 -0.013165 0.000001 0.032113 0.000004
# 2 -0.008094 0.008533 -0.002455 -0.000002 0.003453 -0.000001
# 3 -0.013165 -0.002455 0.028686 0.000005 0.016982 -0.000001
# 4 0.000001 -0.000002 0.000005 0.045330 -0.000002 0.012025
# 5 0.032113 0.003453 0.016982 -0.000002 0.078353 0.000000
# 6 0.000004 -0.000001 -0.000001 0.012025 0.000000 0.027655
#
#
# Mechanical properties :
#
#
# Convention : Reuss Voigt Hill
#
# Bulk Modulus (GPa) = 11.58578 50.30430 30.94504
# Shear Modulus (GPa) = 13.83989 28.64902 21.24445
#
# Velocity S-wave (km/s) = 2.61325 3.75984 3.23771
# Velocity P-wave (km/s) = 3.84997 6.60836 5.40799
#
# Compressibility (1/GPa) = 0.08631271
#
# Stress axis : x y z
#
# Youngs Moduli (GPa) = 10.36051 117.19042 34.86039
#
# Poissons Ratio (x) = 0.94852 0.45893
# Poissons Ratio (y) = 0.08386 0.08557
# Poissons Ratio (z) = 0.13639 0.28767
#
# Static dielectric constant tensor:
#      x y z
#    x 1.755080 0.000000 0.001120 
#    y 0.000000 1.765320 0.000000 
#    z 0.001120 0.000000 1.677970 
# 
# From -- ./inp_files/307920.got.cif
#   From: 2010.05.17/outbox.cif.g08.bks.cpg/sg15_154_cif.got.tgz:307920.got - 2010.06.03 18:47:42.
