data_PCOD9267269
_publ_section_title
;
Structure prediction by ZEFSAII (Michael W. Deem and Ramdas Pophale) SiO2 
 PCOD9267269
Probable space group: C 2/C
;
_chemical_formula_sum "Si O2"
_cell_formula_units_Z 56
_cell_length_a 22.495210
_cell_length_b 15.063724
_cell_length_c 7.444771
_cell_angle_alpha 90.000000
_cell_angle_beta 83.309808
_cell_angle_gamma 90.000000
_cell_volume 2505.568894
_symmetry_space_group_name_H-M "C 2/C"
_symmetry_group_IT_number 15
_symmetry_cell_setting 'monoclinic'
loop_
_space_group_symop_operation_xyz
x,y,z
-x,y,1/2-z
-x,-y,-z
x,-y,1/2+z
1/2+x,1/2+y,z
1/2-x,1/2+y,1/2-z
1/2-x,1/2-y,-z
1/2+x,1/2-y,1/2+z
loop_
_atom_site_type_symbol
_atom_site_label
_atom_site_fract_x
_atom_site_fract_y
_atom_site_fract_z
Si Si1 0.826027 0.118468 0.771769
Si Si2 0.061673 0.615885 0.535961
Si Si3 0.808503 0.630744 0.626602
Si Si4 0.184666 0.428965 0.963497
Si Si5 0.500000 0.028779 0.250000
Si Si6 0.107722 0.796930 0.951886
Si Si7 0.500000 0.730642 0.250000
Si Si8 0.815283 0.909671 0.854551
O O1 0.761900 0.157266 0.863961
O O2 0.827930 0.120305 0.554802
O O3 0.826555 0.014716 0.828526
O O4 0.880298 0.166094 0.853303
O O5 0.123230 0.608389 0.409640
O O6 0.054754 0.538155 0.688072
O O7 0.048617 0.707541 0.633708
O O8 0.009859 0.590295 0.416351
O O9 0.816017 0.535434 0.529284
O O10 0.860486 0.700138 0.561988
O O11 0.813790 0.608967 0.836367
O O12 0.244503 0.398244 0.845214
O O13 0.040766 0.808867 0.895472
O O14 0.147538 0.855451 0.801521
#
# Coordination Sequence:
#
# PCOD9267269 Si02
#       8
#     8   8   8   8   4   8   4   8
#     4  10  21  43  71  99 129 167 211 272 347 393
#     4  10  19  39  55  86 128 171 219 253 310 379
#     4  10  22  38  61 102 131 168 208 264 319 398
#     4  10  20  37  63  93 133 168 209 254 330 397
#     4   9  20  30  60  80 117 182 220 241 292 396
#     4  12  24  46  65  95 137 168 225 276 322 384
#     4  11  26  44  56  86 133 176 214 289 308 364
#     4  10  22  42  72  99 126 168 212 278 342 393
#
# _framework density 22.350213
#
# number of rings (size 3 to 8) (size 9 to 14) (size 15 to 20)
#    0.000    1.714    2.857    1.286    6.000    2.286 
#    5.143    0.714    0.000    0.000    0.000    0.000 
#    0.000    0.000    0.000    0.000    0.000    0.000 
#
# Total GULP energy -156413.739892 kJ/mol
# GULP energy per Si atom -5586.204996 kJ/mol
# Density = 2.229934 g / cm^3
# Si number density = 22.350213 Si / 1000 Ang^3
#
#
#
# Elastic Constant Matrix: (Units=GPa)
#
#
# Indices 1 2 3 4 5 6 
#
# 1 82.7823 14.2651 3.4524 0.0000 24.3928 0.0000
# 2 14.2651 31.7195 3.0694 0.0000 1.7423 0.0000
# 3 3.4524 3.0694 56.1355 0.0000 8.1419 0.0000
# 4 0.0000 0.0000 0.0000 22.8904 0.0000 13.6093
# 5 24.3928 1.7423 8.1419 0.0000 21.5015 0.0000
# 6 0.0000 0.0000 0.0000 13.6093 0.0000 13.7635
#
#
#
# Elastic Compliance Matrix: (Units=1/GPa)
#
#
# Indices 1 2 3 4 5 6 
#
# 1 0.020213 -0.008062 0.002570 0.000000 -0.023251 0.000000
# 2 -0.008062 0.034993 -0.002468 0.000000 0.007245 0.000000
# 3 0.002570 -0.002468 0.019242 0.000000 -0.010002 0.000000
# 4 0.000000 0.000000 0.000000 0.106004 0.000000 -0.104816
# 5 -0.023251 0.007245 -0.010002 0.000000 0.076087 0.000000
# 6 0.000000 0.000000 0.000000 -0.104816 0.000000 0.176297
#
#
# Mechanical properties :
#
#
# Convention : Reuss Voigt Hill
#
# Bulk Modulus (GPa) = 17.08610 23.57900 20.33255
# Shear Modulus (GPa) = 10.67769 21.62110 16.14940
#
# Velocity S-wave (km/s) = 2.18811 3.11364 2.69097
# Velocity P-wave (km/s) = 3.74767 4.84758 4.33267
#
# Compressibility (1/GPa) = 0.05852711
#
# Stress axis : x y z
#
# Youngs Moduli (GPa) = 49.47251 28.57722 51.97077
#
# Poissons Ratio (x) = 0.23039 -0.13357
# Poissons Ratio (y) = 0.39885 0.12828
# Poissons Ratio (z) = -0.12715 0.07054
#
# Static dielectric constant tensor:
#      x y z
#    x 1.906230 0.000000 0.030630 
#    y 0.000000 1.813590 0.000000 
#    z 0.030630 0.000000 1.888120 
# 
# From -- ./inp_files/55676.got.cif
#   From: 2010.05.17/outbox.cif.g08.bks.cpg/sg15_28_cif.got.tgz:55676.got - 2010.06.03 18:47:42.
