data_PCOD9267879
_publ_section_title
;
Structure prediction by ZEFSAII (Michael W. Deem and Ramdas Pophale) SiO2 
 PCOD9267879
Probable space group: C 2/C
;
_chemical_formula_sum "Si O2"
_cell_formula_units_Z 24
_cell_length_a 9.588455
_cell_length_b 9.417955
_cell_length_c 24.285952
_cell_angle_alpha 90.000000
_cell_angle_beta 155.944585
_cell_angle_gamma 90.000000
_cell_volume 893.955444
_symmetry_space_group_name_H-M "C 2/C"
_symmetry_group_IT_number 15
_symmetry_cell_setting 'monoclinic'
loop_
_space_group_symop_operation_xyz
x,y,z
-x,y,1/2-z
-x,-y,-z
x,-y,1/2+z
1/2+x,1/2+y,z
1/2-x,1/2+y,1/2-z
1/2-x,1/2-y,-z
1/2+x,1/2-y,1/2+z
loop_
_atom_site_type_symbol
_atom_site_label
_atom_site_fract_x
_atom_site_fract_y
_atom_site_fract_z
Si Si1 0.952526 0.365509 0.902485
Si Si2 0.151184 0.583900 0.360241
Si Si3 0.884077 0.328268 0.993665
O O1 0.889982 0.416688 0.816882
O O2 0.099600 0.509789 0.982328
O O3 0.250000 0.250000 0.000000
O O4 0.731574 0.312604 0.876164
O O5 0.500000 0.500000 0.500000
O O6 0.257181 0.746543 0.386204
O O7 0.000000 0.521846 0.250000
O O8 0.750000 0.250000 0.000000
#
# Coordination Sequence:
#
# PCOD9267879 Si02
#       3
#     8   8   8
#     4   9  20  39  66  97 134 175 230 288 352 427
#     4  11  23  44  67  98 144 187 238 296 355 422
#     4  10  19  40  68  97 133 177 230 290 357 419
#
# _framework density 26.846975
#
# number of rings (size 3 to 8) (size 9 to 14) (size 15 to 20)
#    0.000    2.000    3.333    0.000    0.000    0.000 
#   18.000    1.667    0.000    2.000    0.000    0.000 
#    0.000    0.000    0.000    0.000    0.000    0.000 
#
# Total GULP energy -66877.417383 kJ/mol
# GULP energy per Si atom -5573.118115 kJ/mol
# Density = 2.678587 g / cm^3
# Si number density = 26.846975 Si / 1000 Ang^3
#
#
#
# Elastic Constant Matrix: (Units=GPa)
#
#
# Indices 1 2 3 4 5 6 
#
# 1 369.4129 23.3545 79.2038 0.0009 -47.9461 -0.0001
# 2 23.3545 162.3012 11.2960 0.0010 -1.7822 0.0001
# 3 79.2038 11.2960 98.2933 0.0188 -32.9550 -0.0002
# 4 0.0009 0.0010 0.0188 10.8670 -0.0001 2.0750
# 5 -47.9461 -1.7822 -32.9550 -0.0001 67.3974 -0.0006
# 6 -0.0001 0.0001 -0.0002 2.0750 -0.0006 57.6314
#
#
#
# Elastic Compliance Matrix: (Units=1/GPa)
#
#
# Indices 1 2 3 4 5 6 
#
# 1 0.003378 -0.000315 -0.002252 0.000004 0.001293 0.000000
# 2 -0.000315 0.006243 -0.000578 0.000000 -0.000342 0.000000
# 3 -0.002252 -0.000578 0.013770 -0.000024 0.005116 0.000001
# 4 0.000004 0.000000 -0.000024 0.092659 -0.000009 -0.003336
# 5 0.001293 -0.000342 0.005116 -0.000009 0.018250 0.000001
# 6 0.000000 0.000000 0.000001 -0.003336 0.000001 0.017472
#
#
# Mechanical properties :
#
#
# Convention : Reuss Voigt Hill
#
# Bulk Modulus (GPa) = 58.47803 95.30179 76.88991
# Shear Modulus (GPa) = 30.53222 61.58934 46.06078
#
# Velocity S-wave (km/s) = 3.37600 4.79486 4.14657
# Velocity P-wave (km/s) = 6.08488 8.13815 7.18524
#
# Compressibility (1/GPa) = 0.01710044
#
# Stress axis : x y z
#
# Youngs Moduli (GPa) = 296.06984 160.17396 72.62326
#
# Poissons Ratio (x) = 0.05047 0.16353
# Poissons Ratio (y) = 0.09329 0.04199
# Poissons Ratio (z) = 0.66668 0.09261
#
# Static dielectric constant tensor:
#      x y z
#    x 2.226970 0.000290 -0.117580 
#    y 0.000290 3.758760 -0.001570 
#    z -0.117580 -0.001570 1.647460 
# 
# From -- ./inp_files/74762.got.cif
#   From: 2010.05.17/outbox.cif.g08.bks.cpg/sg15_38_cif.got.tgz:74762.got - 2010.06.03 18:47:42.
