data_PCOD9267780
_publ_section_title
;
Structure prediction by ZEFSAII (Michael W. Deem and Ramdas Pophale) SiO2 
 PCOD9267780
Probable space group: C 2/C
;
_chemical_formula_sum "Si O2"
_cell_formula_units_Z 56
_cell_length_a 19.651987
_cell_length_b 17.886091
_cell_length_c 14.260504
_cell_angle_alpha 90.000000
_cell_angle_beta 32.885088
_cell_angle_gamma 90.000000
_cell_volume 2721.581493
_symmetry_space_group_name_H-M "C 2/C"
_symmetry_group_IT_number 15
_symmetry_cell_setting 'monoclinic'
loop_
_space_group_symop_operation_xyz
x,y,z
-x,y,1/2-z
-x,-y,-z
x,-y,1/2+z
1/2+x,1/2+y,z
1/2-x,1/2+y,1/2-z
1/2-x,1/2-y,-z
1/2+x,1/2-y,1/2+z
loop_
_atom_site_type_symbol
_atom_site_label
_atom_site_fract_x
_atom_site_fract_y
_atom_site_fract_z
Si Si1 0.098124 0.064242 0.357031
Si Si2 0.935311 0.312226 0.550785
Si Si3 0.393317 0.658093 0.667319
Si Si4 0.126980 0.965509 0.156725
Si Si5 0.142376 0.768821 0.547841
Si Si6 0.801295 0.624135 0.756954
Si Si7 0.802637 0.452633 0.780603
O O1 0.198503 0.064304 0.322392
O O2 0.011885 0.137136 0.462645
O O3 0.155346 0.034222 0.194374
O O4 0.000000 0.000000 0.500000
O O5 0.899085 0.246678 0.664848
O O6 0.865589 0.288305 0.533648
O O7 0.902442 0.390174 0.638910
O O8 0.083293 0.320131 0.361719
O O9 0.403931 0.609150 0.747935
O O10 0.263975 0.632779 0.768479
O O11 0.000000 0.986476 0.250000
O O12 0.237210 0.947645 0.957203
O O13 0.250000 0.750000 0.500000
O O14 0.189758 0.848766 0.454062
O O15 0.000000 0.771295 0.750000
O O16 0.840888 0.539026 0.726593
#
# Coordination Sequence:
#
# PCOD9267780 Si02
#       7
#     8   8   8   8   8   8   8
#     4  10  19  40  64  97 131 162 232 295 341 402
#     4  11  27  42  67  93 146 185 218 287 353 425
#     4  10  22  41  66  96 129 173 227 290 345 407
#     4  11  20  38  69 101 126 167 231 290 347 407
#     4  11  24  47  73 109 137 182 242 293 356 415
#     4  11  23  44  66  94 143 178 224 281 353 419
#     4  12  24  41  67 100 135 183 225 288 356 421
#
# _framework density 20.576270999999998
#
# number of rings (size 3 to 8) (size 9 to 14) (size 15 to 20)
#    0.000    1.143    7.143    0.429    4.000    4.571 
#    0.000    0.714    0.000    0.000    0.000    0.000 
#    0.000    0.000    0.000    0.000    0.000    0.000 
#
# Total GULP energy -156191.441912 kJ/mol
# GULP energy per Si atom -5578.265783 kJ/mol
# Density = 2.052944 g / cm^3
# Si number density = 20.576271 Si / 1000 Ang^3
#
#
#
# Elastic Constant Matrix: (Units=GPa)
#
#
# Indices 1 2 3 4 5 6 
#
# 1 87.0427 8.3006 25.3026 0.0000 5.1337 0.0000
# 2 8.3006 111.9146 30.8819 0.0000 10.3378 0.0000
# 3 25.3026 30.8819 98.9682 0.0000 10.4254 0.0000
# 4 0.0000 0.0000 0.0000 30.7120 0.0000 -7.5345
# 5 5.1337 10.3378 10.4254 0.0000 23.1027 0.0000
# 6 0.0000 0.0000 0.0000 -7.5345 0.0000 19.4959
#
#
#
# Elastic Compliance Matrix: (Units=1/GPa)
#
#
# Indices 1 2 3 4 5 6 
#
# 1 0.012454 0.000049 -0.003050 0.000000 -0.001413 0.000000
# 2 0.000049 0.010000 -0.002793 0.000000 -0.003225 0.000000
# 3 -0.003050 -0.002793 0.012129 0.000000 -0.003546 0.000000
# 4 0.000000 0.000000 0.000000 0.035971 0.000000 0.013902
# 5 -0.001413 -0.003225 -0.003546 0.000000 0.046642 0.000000
# 6 0.000000 0.000000 0.000000 0.013902 0.000000 0.056665
#
#
# Mechanical properties :
#
#
# Convention : Reuss Voigt Hill
#
# Bulk Modulus (GPa) = 43.49037 47.43286 45.46161
# Shear Modulus (GPa) = 25.89105 30.22482 28.05794
#
# Velocity S-wave (km/s) = 3.55110 3.83680 3.69671
# Velocity P-wave (km/s) = 6.16407 6.53684 6.35319
#
# Compressibility (1/GPa) = 0.02299360
#
# Stress axis : x y z
#
# Youngs Moduli (GPa) = 80.29537 99.99536 82.44548
#
# Poissons Ratio (x) = -0.00485 0.25149
# Poissons Ratio (y) = -0.00390 0.23029
# Poissons Ratio (z) = 0.24493 0.27931
#
# Static dielectric constant tensor:
#      x y z
#    x 1.778960 0.000000 0.028160 
#    y 0.000000 1.731090 0.000000 
#    z 0.028160 0.000000 1.712520 
# 
# From -- ./inp_files/169131.got.cif
#   From: 2010.05.17/outbox.cif.g08.bks.cpg/sg15_85_cif.got.tgz:169131.got - 2010.06.03 18:47:42.
