data_PCOD9267344
_publ_section_title
;
Structure prediction by ZEFSAII (Michael W. Deem and Ramdas Pophale) SiO2 
 PCOD9267344
Probable space group: C 2/C
;
_chemical_formula_sum "Si O2"
_cell_formula_units_Z 56
_cell_length_a 9.720332
_cell_length_b 10.715343
_cell_length_c 32.905043
_cell_angle_alpha 90.000000
_cell_angle_beta 51.963715
_cell_angle_gamma 90.000000
_cell_volume 2699.397002
_symmetry_space_group_name_H-M "C 2/C"
_symmetry_group_IT_number 15
_symmetry_cell_setting 'monoclinic'
loop_
_space_group_symop_operation_xyz
x,y,z
-x,y,1/2-z
-x,-y,-z
x,-y,1/2+z
1/2+x,1/2+y,z
1/2-x,1/2+y,1/2-z
1/2-x,1/2-y,-z
1/2+x,1/2-y,1/2+z
loop_
_atom_site_type_symbol
_atom_site_label
_atom_site_fract_x
_atom_site_fract_y
_atom_site_fract_z
Si Si1 0.038338 0.781023 0.861006
Si Si2 0.907287 0.615952 0.310673
Si Si3 0.673193 0.496647 0.592424
Si Si4 0.074029 0.375256 0.279829
Si Si5 0.527333 0.390632 0.294244
Si Si6 0.993686 0.354784 0.444752
Si Si7 0.908381 0.066735 0.478621
O O1 0.200798 0.867578 0.844355
O O2 0.072861 0.741967 0.809239
O O3 0.051625 0.661360 0.887420
O O4 0.850655 0.846113 0.900991
O O5 0.000000 0.603813 0.250000
O O6 0.961993 0.486348 0.320624
O O7 0.984428 0.745820 0.312547
O O8 0.578132 0.536837 0.651662
O O9 0.861461 0.561743 0.559187
O O10 0.579808 0.515114 0.565426
O O11 0.270250 0.419886 0.237570
O O12 0.000000 0.338755 0.250000
O O13 0.500000 0.406899 0.250000
O O14 0.984936 0.208890 0.460729
O O15 0.800694 0.412130 0.480098
O O16 0.000000 0.000000 0.500000
#
# Coordination Sequence:
#
# PCOD9267344 Si02
#       7
#     8   8   8   8   8   8   8
#     4  11  22  41  62  91 130 168 212 266 324 378
#     4  10  19  39  61  80 128 173 207 263 322 366
#     4  11  22  40  69  96 127 169 219 264 319 388
#     4  11  23  38  60  94 129 173 222 263 311 381
#     4  11  21  40  65  91 129 176 212 259 321 374
#     4  10  22  44  66  94 127 165 209 267 328 387
#     4  10  24  44  70  93 129 167 206 270 334 384
#
# _framework density 20.745374999999999
#
# number of rings (size 3 to 8) (size 9 to 14) (size 15 to 20)
#    0.000    1.429    4.286    2.143    0.000    4.571 
#    2.571    1.429    0.000    0.000    0.000    0.000 
#    0.000    0.000    0.000    0.000    0.000    0.000 
#
# Total GULP energy -155951.797758 kJ/mol
# GULP energy per Si atom -5569.707063 kJ/mol
# Density = 2.069816 g / cm^3
# Si number density = 20.745375 Si / 1000 Ang^3
#
#
#
# Elastic Constant Matrix: (Units=GPa)
#
#
# Indices 1 2 3 4 5 6 
#
# 1 142.6072 56.3049 64.0847 0.0000 4.1997 0.0000
# 2 56.3049 69.4046 19.8726 0.0000 -3.5546 0.0000
# 3 64.0847 19.8726 92.6590 0.0000 6.1438 0.0000
# 4 0.0000 0.0000 0.0000 25.1775 0.0000 -2.7161
# 5 4.1997 -3.5546 6.1438 0.0000 26.8374 0.0000
# 6 0.0000 0.0000 0.0000 -2.7161 0.0000 40.5669
#
#
#
# Elastic Compliance Matrix: (Units=1/GPa)
#
#
# Indices 1 2 3 4 5 6 
#
# 1 0.014265 -0.009448 -0.007726 0.000000 -0.001715 0.000000
# 2 -0.009448 0.021824 0.001589 0.000000 0.004005 0.000000
# 3 -0.007726 0.001589 0.015943 0.000000 -0.002230 0.000000
# 4 0.000000 0.000000 0.000000 0.040007 0.000000 0.002679
# 5 -0.001715 0.004005 -0.002230 0.000000 0.038571 0.000000
# 6 0.000000 0.000000 0.000000 0.002679 0.000000 0.024830
#
#
# Mechanical properties :
#
#
# Convention : Reuss Voigt Hill
#
# Bulk Modulus (GPa) = 47.93833 65.02168 56.48000
# Shear Modulus (GPa) = 25.83126 29.47694 27.65410
#
# Velocity S-wave (km/s) = 3.53251 3.77356 3.65502
# Velocity P-wave (km/s) = 6.30843 7.09909 6.71541
#
# Compressibility (1/GPa) = 0.02086014
#
# Stress axis : x y z
#
# Youngs Moduli (GPa) = 70.10148 45.82206 62.72424
#
# Poissons Ratio (x) = 0.43294 0.48460
# Poissons Ratio (y) = 0.66234 -0.09964
# Poissons Ratio (z) = 0.54159 -0.07279
#
# Static dielectric constant tensor:
#      x y z
#    x 1.741230 0.000000 -0.002120 
#    y 0.000000 1.830710 0.000000 
#    z -0.002120 0.000000 1.812030 
# 
# From -- ./inp_files/307409.got.cif
#   From: 2010.05.17/outbox.cif.g08.bks.cpg/sg15_154_cif.got.tgz:307409.got - 2010.06.03 18:47:42.
