data_PCOD9267923
_publ_section_title
;
Structure prediction by ZEFSAII (Michael W. Deem and Ramdas Pophale) SiO2 
 PCOD9267923
Probable space group: C 2/C
;
_chemical_formula_sum "Si O2"
_cell_formula_units_Z 48
_cell_length_a 10.390446
_cell_length_b 16.661840
_cell_length_c 18.166074
_cell_angle_alpha 90.000000
_cell_angle_beta 135.889327
_cell_angle_gamma 90.000000
_cell_volume 2189.054214
_symmetry_space_group_name_H-M "C 2/C"
_symmetry_group_IT_number 15
_symmetry_cell_setting 'monoclinic'
loop_
_space_group_symop_operation_xyz
x,y,z
-x,y,1/2-z
-x,-y,-z
x,-y,1/2+z
1/2+x,1/2+y,z
1/2-x,1/2+y,1/2-z
1/2-x,1/2-y,-z
1/2+x,1/2-y,1/2+z
loop_
_atom_site_type_symbol
_atom_site_label
_atom_site_fract_x
_atom_site_fract_y
_atom_site_fract_z
Si Si1 0.987170 0.679393 0.033283
Si Si2 0.094860 0.835615 0.423214
Si Si3 0.000000 0.280432 0.750000
Si Si4 0.064584 0.298708 0.402659
Si Si5 0.802555 0.151988 0.272513
Si Si6 0.106145 0.993539 0.121738
Si Si7 0.500000 0.074791 0.750000
O O1 0.172407 0.647800 0.147632
O O2 0.967771 0.776436 0.036529
O O3 0.986259 0.664235 0.946494
O O4 0.812163 0.645366 0.006880
O O5 0.061025 0.778584 0.339789
O O6 0.976885 0.915028 0.374066
O O7 0.165253 0.332458 0.785111
O O8 0.250000 0.250000 0.500000
O O9 0.075175 0.367548 0.346067
O O10 0.924767 0.231233 0.315995
O O11 0.917474 0.073344 0.339551
O O12 0.324490 0.977642 0.201847
O O13 0.000000 0.000000 0.000000
#
# Coordination Sequence:
#
# PCOD9267923 Si02
#       7
#     8   8   4   8   8   8   4
#     4  10  22  40  72  99 130 180 234 282 326 411
#     4  10  21  40  68 104 132 172 233 284 334 399
#     4  10  19  40  73  96 126 174 238 280 315 406
#     4  12  23  45  72 101 136 182 232 280 336 423
#     4  11  23  41  68 102 132 176 226 279 348 398
#     4  12  27  43  66 102 142 182 222 291 355 414
#     4  12  27  46  71  98 142 184 234 276 355 422
#
# _framework density 21.927278999999999
#
# number of rings (size 3 to 8) (size 9 to 14) (size 15 to 20)
#    0.000    1.000    1.667    6.500    7.000    0.000 
#    0.000    5.000    0.000    0.000    0.000    0.000 
#    0.000    0.000    0.000    0.000    0.000    0.000 
#
# Total GULP energy -134291.591057 kJ/mol
# GULP energy per Si atom -5595.482961 kJ/mol
# Density = 2.187737 g / cm^3
# Si number density = 21.927279 Si / 1000 Ang^3
#
#
#
# Elastic Constant Matrix: (Units=GPa)
#
#
# Indices 1 2 3 4 5 6 
#
# 1 37.5960 2.0882 -1.1690 0.0000 -5.7694 0.0000
# 2 2.0882 75.7163 5.5663 0.0000 -5.6873 0.0000
# 3 -1.1690 5.5663 94.9588 0.0000 -3.1477 0.0000
# 4 0.0000 0.0000 0.0000 30.2589 0.0000 9.1375
# 5 -5.7694 -5.6873 -3.1477 0.0000 45.1122 0.0000
# 6 0.0000 0.0000 0.0000 9.1375 0.0000 15.7336
#
#
#
# Elastic Compliance Matrix: (Units=1/GPa)
#
#
# Indices 1 2 3 4 5 6 
#
# 1 0.027171 -0.000526 0.000479 0.000000 0.003442 0.000000
# 2 -0.000526 0.013394 -0.000740 0.000000 0.001570 0.000000
# 3 0.000479 -0.000740 0.010604 0.000000 0.000708 0.000000
# 4 0.000000 0.000000 0.000000 0.040077 0.000000 -0.023275
# 5 0.003442 0.001570 0.000708 0.000000 0.022854 0.000000
# 6 0.000000 0.000000 0.000000 -0.023275 0.000000 0.077076
#
#
# Mechanical properties :
#
#
# Convention : Reuss Voigt Hill
#
# Bulk Modulus (GPa) = 20.16287 24.58244 22.37266
# Shear Modulus (GPa) = 23.89147 31.67332 27.78240
#
# Velocity S-wave (km/s) = 3.30446 3.80474 3.56339
# Velocity P-wave (km/s) = 4.87591 5.52600 5.21110
#
# Compressibility (1/GPa) = 0.04959611
#
# Stress axis : x y z
#
# Youngs Moduli (GPa) = 36.80405 74.66046 94.30760
#
# Poissons Ratio (x) = 0.03927 -0.04521
# Poissons Ratio (y) = 0.01936 0.06975
# Poissons Ratio (z) = -0.01764 0.05522
#
# Static dielectric constant tensor:
#      x y z
#    x 1.839690 0.000000 0.006150 
#    y 0.000000 1.753270 0.000000 
#    z 0.006150 0.000000 1.889960 
# 
# From -- ./inp_files/144428.got.cif
#   From: 2010.05.17/outbox.cif.g08.bks.cpg/sg15_73_cif.got.tgz:144428.got - 2010.06.03 18:47:42.
