data_PCOD9267915
_publ_section_title
;
Structure prediction by ZEFSAII (Michael W. Deem and Ramdas Pophale) SiO2 
 PCOD9267915
Probable space group: C 2/C
;
_chemical_formula_sum "Si O2"
_cell_formula_units_Z 56
_cell_length_a 14.523090
_cell_length_b 12.933047
_cell_length_c 25.009909
_cell_angle_alpha 90.000000
_cell_angle_beta 27.919270
_cell_angle_gamma 90.000000
_cell_volume 2199.522800
_symmetry_space_group_name_H-M "C 2/C"
_symmetry_group_IT_number 15
_symmetry_cell_setting 'monoclinic'
loop_
_space_group_symop_operation_xyz
x,y,z
-x,y,1/2-z
-x,-y,-z
x,-y,1/2+z
1/2+x,1/2+y,z
1/2-x,1/2+y,1/2-z
1/2-x,1/2-y,-z
1/2+x,1/2-y,1/2+z
loop_
_atom_site_type_symbol
_atom_site_label
_atom_site_fract_x
_atom_site_fract_y
_atom_site_fract_z
Si Si1 0.951031 0.672068 0.037330
Si Si2 0.135769 0.588777 0.629464
Si Si3 0.536647 0.458039 0.896757
Si Si4 0.521984 0.015966 0.570011
Si Si5 0.942043 0.215980 0.196373
Si Si6 0.182299 0.689701 0.189931
Si Si7 0.332010 0.363275 0.229837
O O1 0.740558 0.704185 0.169480
O O2 0.050178 0.597140 0.031357
O O3 0.900285 0.600766 0.011864
O O4 0.120302 0.756091 0.936144
O O5 0.357614 0.559842 0.528467
O O6 0.083665 0.531601 0.599935
O O7 0.000000 0.571407 0.750000
O O8 0.115212 0.711371 0.628269
O O9 0.490931 0.387977 0.867339
O O10 0.732120 0.404425 0.818864
O O11 0.545818 0.578740 0.877730
O O12 0.287682 0.040120 0.684986
O O13 0.838438 0.290177 0.205849
O O14 0.075319 0.785420 0.276310
O O15 0.000000 0.648425 0.250000
#
# Coordination Sequence:
#
# PCOD9267915 Si02
#       7
#     8   8   8   8   8   8   8
#     4  10  19  40  71  98 138 182 231 303 353 410
#     4  11  24  41  66 101 142 186 238 286 361 432
#     4  11  22  43  69  99 146 188 233 304 356 425
#     4   9  20  40  67 100 135 179 238 291 351 424
#     4  10  21  40  69 100 138 183 233 289 360 419
#     4  10  23  41  67 103 141 184 246 292 354 433
#     4   9  20  41  66  95 140 183 231 290 352 429
#
# _framework density 25.460068
#
# number of rings (size 3 to 8) (size 9 to 14) (size 15 to 20)
#    0.000    2.000    1.429    2.143    2.000    1.143 
#    0.000   15.714    0.000    0.000    0.000    0.000 
#    0.000    0.000    0.000    0.000    0.000    0.000 
#
# Total GULP energy -156417.093491 kJ/mol
# GULP energy per Si atom -5586.324768 kJ/mol
# Density = 2.540212 g / cm^3
# Si number density = 25.460068 Si / 1000 Ang^3
#
#
#
# Elastic Constant Matrix: (Units=GPa)
#
#
# Indices 1 2 3 4 5 6 
#
# 1 105.6988 25.0045 12.5108 -0.0041 13.8086 0.0028
# 2 25.0045 84.7874 19.0766 -0.0069 9.5134 0.0018
# 3 12.5108 19.0766 109.5925 -0.0162 7.7485 0.0046
# 4 -0.0041 -0.0069 -0.0162 48.6028 0.0040 0.9066
# 5 13.8086 9.5134 7.7485 0.0040 34.2290 -0.0023
# 6 0.0028 0.0018 0.0046 0.9066 -0.0023 18.6010
#
#
#
# Elastic Compliance Matrix: (Units=1/GPa)
#
#
# Indices 1 2 3 4 5 6 
#
# 1 0.010590 -0.002624 -0.000510 0.000001 -0.003427 -0.000002
# 2 -0.002624 0.013231 -0.001848 0.000001 -0.002200 -0.000001
# 3 -0.000510 -0.001848 0.009607 0.000003 -0.001456 -0.000002
# 4 0.000001 0.000001 0.000003 0.020594 -0.000004 -0.001004
# 5 -0.003427 -0.002200 -0.001456 -0.000004 0.031539 0.000005
# 6 -0.000002 -0.000001 -0.000002 -0.001004 0.000005 0.053809
#
#
# Mechanical properties :
#
#
# Convention : Reuss Voigt Hill
#
# Bulk Modulus (GPa) = 42.61705 45.91806 44.26756
# Shear Modulus (GPa) = 31.81588 36.51902 34.16745
#
# Velocity S-wave (km/s) = 3.53886 3.79141 3.66731
# Velocity P-wave (km/s) = 5.78560 6.10253 5.94618
#
# Compressibility (1/GPa) = 0.02346479
#
# Stress axis : x y z
#
# Youngs Moduli (GPa) = 94.43197 75.58225 104.08540
#
# Poissons Ratio (x) = 0.19830 0.05307
# Poissons Ratio (y) = 0.24776 0.19234
# Poissons Ratio (z) = 0.04815 0.13967
#
# Static dielectric constant tensor:
#      x y z
#    x 2.135360 0.000000 0.104040 
#    y 0.000000 2.048780 0.000000 
#    z 0.104040 0.000000 2.113830 
# 
# From -- ./inp_files/274473.got.cif
#   From: 2010.05.17/outbox.cif.g08.bks.cpg/sg15_138_cif.got.tgz:274473.got - 2010.06.03 18:47:42.
