data_PCOD9267439
_publ_section_title
;
Structure prediction by ZEFSAII (Michael W. Deem and Ramdas Pophale) SiO2 
 PCOD9267439
Probable space group: C 2/C
;
_chemical_formula_sum "Si O2"
_cell_formula_units_Z 44
_cell_length_a 20.873119
_cell_length_b 9.572710
_cell_length_c 10.529301
_cell_angle_alpha 90.000000
_cell_angle_beta 51.312043
_cell_angle_gamma 90.000000
_cell_volume 1642.211509
_symmetry_space_group_name_H-M "C 2/C"
_symmetry_group_IT_number 15
_symmetry_cell_setting 'monoclinic'
loop_
_space_group_symop_operation_xyz
x,y,z
-x,y,1/2-z
-x,-y,-z
x,-y,1/2+z
1/2+x,1/2+y,z
1/2-x,1/2+y,1/2-z
1/2-x,1/2-y,-z
1/2+x,1/2-y,1/2+z
loop_
_atom_site_type_symbol
_atom_site_label
_atom_site_fract_x
_atom_site_fract_y
_atom_site_fract_z
Si Si1 0.737451 0.582648 0.500007
Si Si2 0.632363 0.352939 0.926285
Si Si3 0.097601 0.504921 0.335479
Si Si4 0.500000 0.820895 0.750000
Si Si5 0.799944 0.644389 0.094894
Si Si6 0.579192 0.291760 0.741039
O O1 0.750000 0.750000 0.500000
O O2 0.659732 0.546639 0.508289
O O3 0.811564 0.521486 0.328440
O O4 0.752298 0.495170 0.607623
O O5 0.722860 0.289997 0.770004
O O6 0.591187 0.399534 0.844245
O O7 0.570377 0.260879 0.087046
O O8 0.116028 0.581267 0.445828
O O9 0.070735 0.347787 0.340493
O O10 0.042714 0.592024 0.307565
O O11 0.839862 0.749712 0.942512
O O12 0.500000 0.315073 0.750000
#
# Coordination Sequence:
#
# PCOD9267439 Si02
#       6
#     8   8   8   4   8   8
#     4  10  19  39  63  90 122 167 219 261 320 384
#     4  11  24  40  65  91 129 177 218 265 320 395
#     4  10  21  35  63 100 132 162 208 269 331 395
#     4  12  22  38  64  98 138 174 212 262 336 390
#     4  10  23  40  63  97 130 172 218 267 325 394
#     4  11  22  38  66  99 135 164 208 277 341 385
#
# _framework density 26.793137999999999
#
# number of rings (size 3 to 8) (size 9 to 14) (size 15 to 20)
#    0.000    1.455    2.727    2.727    2.545    1.455 
#    0.000    0.909    2.000    0.000    0.000    0.000 
#    0.000    0.000    0.000    0.000    0.000    0.000 
#
# Total GULP energy -122564.746590 kJ/mol
# GULP energy per Si atom -5571.124845 kJ/mol
# Density = 2.673216 g / cm^3
# Si number density = 26.793138 Si / 1000 Ang^3
#
#
#
# Elastic Constant Matrix: (Units=GPa)
#
#
# Indices 1 2 3 4 5 6 
#
# 1 217.2032 43.9993 20.4213 0.0000 6.3302 0.0000
# 2 43.9993 81.0034 20.8711 0.0000 13.5260 0.0000
# 3 20.4213 20.8711 124.2955 0.0000 -6.9877 0.0000
# 4 0.0000 0.0000 0.0000 16.4444 0.0000 3.6706
# 5 6.3302 13.5260 -6.9877 0.0000 48.1907 0.0000
# 6 0.0000 0.0000 0.0000 3.6706 0.0000 38.4708
#
#
#
# Elastic Compliance Matrix: (Units=1/GPa)
#
#
# Indices 1 2 3 4 5 6 
#
# 1 0.005192 -0.002723 -0.000394 0.000000 0.000025 0.000000
# 2 -0.002723 0.015130 -0.002331 0.000000 -0.004227 0.000000
# 3 -0.000394 -0.002331 0.008611 0.000000 0.001955 0.000000
# 4 0.000000 0.000000 0.000000 0.062134 0.000000 -0.005928
# 5 0.000025 -0.004227 0.001955 0.000000 0.022218 0.000000
# 6 0.000000 0.000000 0.000000 -0.005928 0.000000 0.026559
#
#
# Mechanical properties :
#
#
# Convention : Reuss Voigt Hill
#
# Bulk Modulus (GPa) = 55.43941 65.89840 60.66891
# Shear Modulus (GPa) = 31.89716 43.10186 37.49951
#
# Velocity S-wave (km/s) = 3.45410 4.01520 3.74517
# Velocity P-wave (km/s) = 6.05346 6.79297 6.43385
#
# Compressibility (1/GPa) = 0.01803771
#
# Stress axis : x y z
#
# Youngs Moduli (GPa) = 192.60864 66.09172 116.12461
#
# Poissons Ratio (x) = 0.17995 0.04580
# Poissons Ratio (y) = 0.52441 0.27068
# Poissons Ratio (z) = 0.07597 0.15406
#
# Static dielectric constant tensor:
#      x y z
#    x 2.423960 0.000000 0.142390 
#    y 0.000000 2.195170 0.000000 
#    z 0.142390 0.000000 2.340900 
# 
# From -- ./inp_files/110825.got.cif
#   From: 2010.05.17/outbox.cif.g08.bks.cpg/sg15_56_cif.got.tgz:110825.got - 2010.06.03 18:47:42.
