data_PCOD9267332
_publ_section_title
;
Structure prediction by ZEFSAII (Michael W. Deem and Ramdas Pophale) SiO2 
 PCOD9267332
Probable space group: C 2/C
;
_chemical_formula_sum "Si O2"
_cell_formula_units_Z 64
_cell_length_a 18.196348
_cell_length_b 10.047068
_cell_length_c 33.322270
_cell_angle_alpha 90.000000
_cell_angle_beta 145.072919
_cell_angle_gamma 90.000000
_cell_volume 3487.859842
_symmetry_space_group_name_H-M "C 2/C"
_symmetry_group_IT_number 15
_symmetry_cell_setting 'monoclinic'
loop_
_space_group_symop_operation_xyz
x,y,z
-x,y,1/2-z
-x,-y,-z
x,-y,1/2+z
1/2+x,1/2+y,z
1/2-x,1/2+y,1/2-z
1/2-x,1/2-y,-z
1/2+x,1/2-y,1/2+z
loop_
_atom_site_type_symbol
_atom_site_label
_atom_site_fract_x
_atom_site_fract_y
_atom_site_fract_z
Si Si1 0.789903 0.638033 0.461802
Si Si2 0.749245 0.634011 0.051796
Si Si3 0.701292 0.536110 0.195526
Si Si4 0.093081 0.896108 0.946921
Si Si5 0.647947 0.028871 0.320570
Si Si6 0.187496 0.277639 0.686141
Si Si7 0.092211 0.620086 0.454264
Si Si8 0.647587 0.713834 0.319600
O O1 0.861668 0.774938 0.504770
O O2 0.672891 0.620510 0.441277
O O3 0.888876 0.519417 0.515156
O O4 0.728976 0.641276 0.390474
O O5 0.787672 0.606953 0.114248
O O6 0.867128 0.605693 0.074260
O O7 0.639846 0.531509 0.988733
O O8 0.696356 0.780460 0.020070
O O9 0.557860 0.594714 0.127854
O O10 0.774721 0.546345 0.185980
O O11 0.776037 0.621816 0.262026
O O12 0.692325 0.377835 0.201140
O O13 0.500000 0.070043 0.250000
O O14 0.647468 0.871175 0.330743
O O15 0.286606 0.296618 0.694107
O O16 0.047209 0.315842 0.606929
O O17 0.500000 0.669304 0.250000
#
# Coordination Sequence:
#
# PCOD9267332 Si02
#       8
#     8   8   8   8   8   8   8   8
#     4  10  21  37  61  92 116 155 196 236 290 349
#     4  10  19  39  60  86 119 153 192 239 290 346
#     4  11  24  40  61  87 117 155 197 244 293 346
#     4  10  20  37  63  88 116 154 198 235 285 352
#     4  10  21  38  62  87 114 154 200 241 286 348
#     4  11  24  41  60  85 119 156 194 243 294 347
#     4  10  22  37  60  87 123 154 186 241 297 341
#     4  10  21  39  61  86 117 152 196 245 288 342
#
# _framework density 18.349360999999998
#
# number of rings (size 3 to 8) (size 9 to 14) (size 15 to 20)
#    0.000    1.750    2.500    1.500    1.750    2.000 
#    2.250    0.625    0.000    0.000    0.000    0.000 
#    0.000    0.000    0.000    0.000    0.000    0.000 
#
# Total GULP energy -178697.242091 kJ/mol
# GULP energy per Si atom -5584.288815 kJ/mol
# Density = 1.830760 g / cm^3
# Si number density = 18.349361 Si / 1000 Ang^3
#
#
#
# Elastic Constant Matrix: (Units=GPa)
#
#
# Indices 1 2 3 4 5 6 
#
# 1 52.8465 22.3714 37.9475 0.0000 4.8905 0.0000
# 2 22.3714 68.9644 18.9626 0.0000 -11.7756 0.0000
# 3 37.9475 18.9626 72.4468 0.0000 -4.1002 0.0000
# 4 0.0000 0.0000 0.0000 21.8218 0.0000 1.9993
# 5 4.8905 -11.7756 -4.1002 0.0000 34.2545 0.0000
# 6 0.0000 0.0000 0.0000 1.9993 0.0000 40.5810
#
#
#
# Elastic Compliance Matrix: (Units=1/GPa)
#
#
# Indices 1 2 3 4 5 6 
#
# 1 0.035749 -0.008639 -0.017036 0.000000 -0.010113 0.000000
# 2 -0.008639 0.018580 0.000094 0.000000 0.007632 0.000000
# 3 -0.017036 0.000094 0.022998 0.000000 0.005217 0.000000
# 4 0.000000 0.000000 0.000000 0.046034 0.000000 -0.002268
# 5 -0.010113 0.007632 0.005217 0.000000 0.033885 0.000000
# 6 0.000000 0.000000 0.000000 -0.002268 0.000000 0.024754
#
#
# Mechanical properties :
#
#
# Convention : Reuss Voigt Hill
#
# Bulk Modulus (GPa) = 38.22140 39.20233 38.71186
# Shear Modulus (GPa) = 20.67109 26.99653 23.83381
#
# Velocity S-wave (km/s) = 3.36002 3.83985 3.60792
# Velocity P-wave (km/s) = 5.99400 6.40859 6.20476
#
# Compressibility (1/GPa) = 0.02616335
#
# Stress axis : x y z
#
# Youngs Moduli (GPa) = 27.97272 53.82130 43.48282
#
# Poissons Ratio (x) = 0.46497 0.74079
# Poissons Ratio (y) = 0.24166 -0.00408
# Poissons Ratio (z) = 0.47656 -0.00505
#
# Static dielectric constant tensor:
#      x y z
#    x 1.624380 0.000000 0.014530 
#    y 0.000000 1.621330 0.000000 
#    z 0.014530 0.000000 1.611790 
# 
# From -- ./inp_files/315746.got.cif
#   From: 2010.05.17/outbox.cif.g08.bks.cpg/sg15_158_cif.got.tgz:315746.got - 2010.06.03 18:47:42.
