data_PCOD9267226
_publ_section_title
;
Structure prediction by ZEFSAII (Michael W. Deem and Ramdas Pophale) SiO2 
 PCOD9267226
Probable space group: C 2/C
;
_chemical_formula_sum "Si O2"
_cell_formula_units_Z 48
_cell_length_a 19.605554
_cell_length_b 17.929048
_cell_length_c 9.962162
_cell_angle_alpha 90.000000
_cell_angle_beta 146.510219
_cell_angle_gamma 90.000000
_cell_volume 1932.245905
_symmetry_space_group_name_H-M "C 2/C"
_symmetry_group_IT_number 15
_symmetry_cell_setting 'monoclinic'
loop_
_space_group_symop_operation_xyz
x,y,z
-x,y,1/2-z
-x,-y,-z
x,-y,1/2+z
1/2+x,1/2+y,z
1/2-x,1/2+y,1/2-z
1/2-x,1/2-y,-z
1/2+x,1/2-y,1/2+z
loop_
_atom_site_type_symbol
_atom_site_label
_atom_site_fract_x
_atom_site_fract_y
_atom_site_fract_z
Si Si1 0.558178 0.376973 0.587088
Si Si2 0.759528 0.144869 0.887679
Si Si3 0.646920 0.734709 0.717957
Si Si4 0.497833 0.122617 0.938933
Si Si5 0.109435 0.480910 0.832715
Si Si6 0.856290 0.980801 0.392010
O O1 0.460256 0.314325 0.387670
O O2 0.477324 0.434091 0.548298
O O3 0.612214 0.431755 0.561949
O O4 0.663645 0.338304 0.851555
O O5 0.805879 0.188786 0.833378
O O6 0.613831 0.155228 0.655870
O O7 0.795041 0.057582 0.920515
O O8 0.585864 0.808867 0.553767
O O9 0.750000 0.750000 0.000000
O O10 0.413996 0.069860 0.706718
O O11 0.582980 0.061158 0.151337
O O12 0.000000 0.451255 0.750000
O O13 0.246559 0.466752 0.106010
#
# Coordination Sequence:
#
# PCOD9267226 Si02
#       6
#     8   8   8   8   8   8
#     4  10  22  41  68  96 132 176 221 277 326 393
#     4  11  22  44  72  93 137 181 213 283 337 391
#     4  11  25  43  65  93 133 180 228 273 331 397
#     4  11  24  41  66  97 129 173 223 267 337 399
#     4  11  22  40  67  97 131 169 213 279 328 393
#     4  10  19  38  68  97 126 168 222 262 335 396
#
# _framework density 24.841559
#
# number of rings (size 3 to 8) (size 9 to 14) (size 15 to 20)
#    0.000    1.333    3.333    4.000    0.000    2.000 
#    3.000    0.000    7.333    0.000    0.000    0.000 
#    0.000    0.000    0.000    0.000    0.000    0.000 
#
# Total GULP energy -134093.806474 kJ/mol
# GULP energy per Si atom -5587.241936 kJ/mol
# Density = 2.478502 g / cm^3
# Si number density = 24.841559 Si / 1000 Ang^3
#
#
#
# Elastic Constant Matrix: (Units=GPa)
#
#
# Indices 1 2 3 4 5 6 
#
# 1 44.9116 22.1039 6.9854 0.0000 13.9551 0.0000
# 2 22.1039 112.7070 43.5029 0.0000 6.4294 0.0000
# 3 6.9854 43.5029 167.7705 0.0000 14.8694 0.0000
# 4 0.0000 0.0000 0.0000 46.6308 0.0000 5.5221
# 5 13.9551 6.4294 14.8694 0.0000 23.6422 0.0000
# 6 0.0000 0.0000 0.0000 5.5221 0.0000 37.2370
#
#
#
# Elastic Compliance Matrix: (Units=1/GPa)
#
#
# Indices 1 2 3 4 5 6 
#
# 1 0.030142 -0.005590 0.001733 0.000000 -0.017362 0.000000
# 2 -0.005590 0.010925 -0.002784 0.000000 0.002080 0.000000
# 3 0.001733 -0.002784 0.007026 0.000000 -0.004684 0.000000
# 4 0.000000 0.000000 0.000000 0.021828 0.000000 -0.003237
# 5 -0.017362 0.002080 -0.004684 0.000000 0.054926 0.000000
# 6 0.000000 0.000000 0.000000 -0.003237 0.000000 0.027335
#
#
# Mechanical properties :
#
#
# Convention : Reuss Voigt Hill
#
# Bulk Modulus (GPa) = 28.72704 52.28593 40.50649
# Shear Modulus (GPa) = 28.23771 38.35513 33.29642
#
# Velocity S-wave (km/s) = 3.37517 3.93363 3.66505
# Velocity P-wave (km/s) = 5.17477 6.45947 5.85248
#
# Compressibility (1/GPa) = 0.03481041
#
# Stress axis : x y z
#
# Youngs Moduli (GPa) = 33.17594 91.53347 142.33782
#
# Poissons Ratio (x) = 0.51168 -0.24671
# Poissons Ratio (y) = 0.18545 0.39633
# Poissons Ratio (z) = -0.05750 0.25487
#
# Static dielectric constant tensor:
#      x y z
#    x 2.070240 0.000000 -0.018900 
#    y 0.000000 2.009590 0.000000 
#    z -0.018900 0.000000 1.930640 
# 
# From -- ./inp_files/119484.got.cif
#   From: 2010.05.17/outbox.cif.g08.bks.cpg/sg15_60_cif.got.tgz:119484.got - 2010.06.03 18:47:42.
