data_PCOD9267255
_publ_section_title
;
Structure prediction by ZEFSAII (Michael W. Deem and Ramdas Pophale) SiO2 
 PCOD9267255
Probable space group: C 2/C
;
_chemical_formula_sum "Si O2"
_cell_formula_units_Z 44
_cell_length_a 11.540308
_cell_length_b 10.016015
_cell_length_c 17.385717
_cell_angle_alpha 90.000000
_cell_angle_beta 61.261209
_cell_angle_gamma 90.000000
_cell_volume 1762.040288
_symmetry_space_group_name_H-M "C 2/C"
_symmetry_group_IT_number 15
_symmetry_cell_setting 'monoclinic'
loop_
_space_group_symop_operation_xyz
x,y,z
-x,y,1/2-z
-x,-y,-z
x,-y,1/2+z
1/2+x,1/2+y,z
1/2-x,1/2+y,1/2-z
1/2-x,1/2-y,-z
1/2+x,1/2-y,1/2+z
loop_
_atom_site_type_symbol
_atom_site_label
_atom_site_fract_x
_atom_site_fract_y
_atom_site_fract_z
Si Si1 0.337236 0.535222 0.975462
Si Si2 0.470611 0.676807 0.170331
Si Si3 0.127047 0.652144 0.513696
Si Si4 0.792950 0.024438 0.666609
Si Si5 0.500000 0.967494 0.750000
Si Si6 0.524498 0.235908 0.381084
O O1 0.432490 0.437898 0.895810
O O2 0.391334 0.681458 0.942317
O O3 0.188777 0.494655 0.000362
O O4 0.346810 0.499247 0.062685
O O5 0.500000 0.689733 0.250000
O O6 0.508726 0.806683 0.108458
O O7 0.328105 0.610939 0.200855
O O8 0.250000 0.750000 0.500000
O O9 0.083361 0.679107 0.441343
O O10 0.868642 0.150363 0.677642
O O11 0.637585 0.046032 0.709499
O O12 0.500161 0.871067 0.676184
#
# Coordination Sequence:
#
# PCOD9267255 Si02
#       6
#     8   8   8   8   4   8
#     4  10  21  42  72  97 135 184 231 279 356 413
#     4  10  20  36  73 105 133 185 233 281 352 412
#     4  10  19  38  72 103 128 184 231 279 347 422
#     4  11  23  48  65 100 145 180 233 293 342 417
#     4  12  32  42  68 110 142 184 242 292 336 422
#     4  11  23  48  70  95 143 188 227 290 355 406
#
# _framework density 24.971052
#
# number of rings (size 3 to 8) (size 9 to 14) (size 15 to 20)
#    0.000    1.455    5.455    1.091   10.182    0.727 
#    4.909    0.909    0.000    0.000    0.000    0.000 
#    0.000    0.000    0.000    0.000    0.000    0.000 
#
# Total GULP energy -123281.406409 kJ/mol
# GULP energy per Si atom -5603.700291 kJ/mol
# Density = 2.491422 g / cm^3
# Si number density = 24.971052 Si / 1000 Ang^3
#
#
#
# Elastic Constant Matrix: (Units=GPa)
#
#
# Indices 1 2 3 4 5 6 
#
# 1 138.4593 56.9396 36.1640 0.0000 -3.9587 0.0000
# 2 56.9396 89.5301 31.4055 0.0000 2.5051 0.0000
# 3 36.1640 31.4055 102.3685 0.0000 14.3362 0.0000
# 4 0.0000 0.0000 0.0000 35.3147 0.0000 -12.0251
# 5 -3.9587 2.5051 14.3362 0.0000 47.1650 0.0000
# 6 0.0000 0.0000 0.0000 -12.0251 0.0000 48.8493
#
#
#
# Elastic Compliance Matrix: (Units=1/GPa)
#
#
# Indices 1 2 3 4 5 6 
#
# 1 0.010206 -0.005814 -0.002073 0.000000 0.001796 0.000000
# 2 -0.005814 0.015841 -0.002736 0.000000 -0.000498 0.000000
# 3 -0.002073 -0.002736 0.011849 0.000000 -0.003630 0.000000
# 4 0.000000 0.000000 0.000000 0.030908 0.000000 0.007608
# 5 0.001796 -0.000498 -0.003630 0.000000 0.022483 0.000000
# 6 0.000000 0.000000 0.000000 0.007608 0.000000 0.022344
#
#
# Mechanical properties :
#
#
# Convention : Reuss Voigt Hill
#
# Bulk Modulus (GPa) = 60.06406 64.37512 62.21959
# Shear Modulus (GPa) = 35.60580 39.98904 37.79742
#
# Velocity S-wave (km/s) = 3.78018 4.00611 3.89479
# Velocity P-wave (km/s) = 6.56953 6.87273 6.72284
#
# Compressibility (1/GPa) = 0.01664889
#
# Stress axis : x y z
#
# Youngs Moduli (GPa) = 97.98072 63.12869 84.39582
#
# Poissons Ratio (x) = 0.36702 0.17499
# Poissons Ratio (y) = 0.56964 0.23092
# Poissons Ratio (z) = 0.20315 0.17273
#
# Static dielectric constant tensor:
#      x y z
#    x 2.020070 0.000000 -0.080510 
#    y 0.000000 2.051280 0.000000 
#    z -0.080510 0.000000 1.943430 
# 
# From -- ./inp_files/195956.got.cif
#   From: 2010.05.17/outbox.cif.g08.bks.cpg/sg15_98_cif.got.tgz:195956.got - 2010.06.03 18:47:42.
