data_PCOD9267963
_publ_section_title
;
Structure prediction by ZEFSAII (Michael W. Deem and Ramdas Pophale) SiO2 
 PCOD9267963
Probable space group: C 2/C
;
_chemical_formula_sum "Si O2"
_cell_formula_units_Z 52
_cell_length_a 9.419187
_cell_length_b 16.421992
_cell_length_c 22.609867
_cell_angle_alpha 90.000000
_cell_angle_beta 138.263836
_cell_angle_gamma 90.000000
_cell_volume 2328.181260
_symmetry_space_group_name_H-M "C 2/C"
_symmetry_group_IT_number 15
_symmetry_cell_setting 'monoclinic'
loop_
_space_group_symop_operation_xyz
x,y,z
-x,y,1/2-z
-x,-y,-z
x,-y,1/2+z
1/2+x,1/2+y,z
1/2-x,1/2+y,1/2-z
1/2-x,1/2-y,-z
1/2+x,1/2-y,1/2+z
loop_
_atom_site_type_symbol
_atom_site_label
_atom_site_fract_x
_atom_site_fract_y
_atom_site_fract_z
Si Si1 0.088739 0.182189 0.065600
Si Si2 0.481227 0.354963 0.655734
Si Si3 0.358729 0.981296 0.899360
Si Si4 0.525596 0.860290 0.658223
Si Si5 0.542658 0.321316 0.110146
Si Si6 0.303525 0.348599 0.149028
Si Si7 0.500000 0.208862 0.750000
O O1 0.945586 0.150126 0.074559
O O2 0.326714 0.143673 0.140207
O O3 0.127889 0.278416 0.089125
O O4 0.008873 0.167581 0.974387
O O5 0.336399 0.422680 0.641670
O O6 0.441810 0.269621 0.677617
O O7 0.734829 0.367898 0.742887
O O8 0.495806 0.933122 0.894272
O O9 0.275717 0.067068 0.849350
O O10 0.500000 0.000000 0.000000
O O11 0.515345 0.774138 0.619602
O O12 0.392245 0.365403 0.110587
O O13 0.789324 0.340992 0.198725
O O14 0.500000 0.316956 0.250000
#
# Coordination Sequence:
#
# PCOD9267963 Si02
#       7
#     8   8   8   8   8   8   4
#     4  11  22  38  68  94 120 155 213 259 304 362
#     4  11  21  39  65  90 120 167 214 242 305 387
#     4  12  23  40  63  90 123 166 209 252 305 369
#     4  10  19  41  63  88 122 171 202 250 307 379
#     4  10  20  38  59  92 128 160 200 258 306 363
#     4  11  22  38  63  94 121 156 207 257 309 355
#     4  10  20  38  64  84 130 168 208 246 310 374
#
# _framework density 22.335031000000001
#
# number of rings (size 3 to 8) (size 9 to 14) (size 15 to 20)
#    0.000    1.231    3.077    7.846    0.000    0.615 
#    2.769    3.077    3.385    0.000    0.000    0.000 
#    0.000    0.000    0.000    0.000    0.000    0.000 
#
# Total GULP energy -145428.823254 kJ/mol
# GULP energy per Si atom -5593.416279 kJ/mol
# Density = 2.228420 g / cm^3
# Si number density = 22.335031 Si / 1000 Ang^3
#
#
#
# Elastic Constant Matrix: (Units=GPa)
#
#
# Indices 1 2 3 4 5 6 
#
# 1 91.0463 25.2563 2.0695 0.0000 -13.9884 0.0000
# 2 25.2563 43.9901 -1.8772 0.0000 5.7137 0.0000
# 3 2.0695 -1.8772 66.2993 0.0000 -13.7852 0.0000
# 4 0.0000 0.0000 0.0000 20.9506 0.0000 -1.0769
# 5 -13.9884 5.7137 -13.7852 0.0000 44.5659 0.0000
# 6 0.0000 0.0000 0.0000 -1.0769 0.0000 18.4910
#
#
#
# Elastic Compliance Matrix: (Units=1/GPa)
#
#
# Indices 1 2 3 4 5 6 
#
# 1 0.014355 -0.008975 0.000506 0.000000 0.005813 0.000000
# 2 -0.008975 0.028729 -0.000276 0.000000 -0.006586 0.000000
# 3 0.000506 -0.000276 0.016138 0.000000 0.005186 0.000000
# 4 0.000000 0.000000 0.000000 0.047875 0.000000 0.002788
# 5 0.005813 -0.006586 0.005186 0.000000 0.026712 0.000000
# 6 0.000000 0.000000 0.000000 0.002788 0.000000 0.054243
#
#
# Mechanical properties :
#
#
# Convention : Reuss Voigt Hill
#
# Bulk Modulus (GPa) = 23.96188 28.02588 25.99388
# Shear Modulus (GPa) = 22.78425 28.52731 25.65578
#
# Velocity S-wave (km/s) = 3.19739 3.57773 3.39289
# Velocity P-wave (km/s) = 4.93789 5.44446 5.19735
#
# Compressibility (1/GPa) = 0.04173295
#
# Stress axis : x y z
#
# Youngs Moduli (GPa) = 69.66373 34.80819 61.96624
#
# Poissons Ratio (x) = 0.31240 -0.03138
# Poissons Ratio (y) = 0.62523 0.01708
# Poissons Ratio (z) = -0.03528 0.00960
#
# Static dielectric constant tensor:
#      x y z
#    x 1.833210 0.000000 0.022160 
#    y 0.000000 1.818430 0.000000 
#    z 0.022160 0.000000 1.898580 
# 
# From -- ./inp_files/233131.got.cif
#   From: 2010.05.17/outbox.cif.g08.bks.cpg/sg15_117_cif.got.tgz:233131.got - 2010.06.03 18:47:42.
