data_PCOD9267525
_publ_section_title
;
Structure prediction by ZEFSAII (Michael W. Deem and Ramdas Pophale) SiO2 
 PCOD9267525
Probable space group: C 2/C
;
_chemical_formula_sum "Si O2"
_cell_formula_units_Z 52
_cell_length_a 10.315765
_cell_length_b 11.633242
_cell_length_c 22.958037
_cell_angle_alpha 90.000000
_cell_angle_beta 108.547755
_cell_angle_gamma 90.000000
_cell_volume 2611.994478
_symmetry_space_group_name_H-M "C 2/C"
_symmetry_group_IT_number 15
_symmetry_cell_setting 'monoclinic'
loop_
_space_group_symop_operation_xyz
x,y,z
-x,y,1/2-z
-x,-y,-z
x,-y,1/2+z
1/2+x,1/2+y,z
1/2-x,1/2+y,1/2-z
1/2-x,1/2-y,-z
1/2+x,1/2-y,1/2+z
loop_
_atom_site_type_symbol
_atom_site_label
_atom_site_fract_x
_atom_site_fract_y
_atom_site_fract_z
Si Si1 0.170200 0.636551 0.191969
Si Si2 0.500000 0.703683 0.750000
Si Si3 0.817470 0.794451 0.602150
Si Si4 0.425105 0.695211 0.297875
Si Si5 0.769457 0.393527 0.342489
Si Si6 0.335676 0.145787 0.982497
Si Si7 0.634206 0.894131 0.476070
O O1 0.056114 0.709261 0.208539
O O2 0.216714 0.708330 0.142274
O O3 0.298500 0.623742 0.254857
O O4 0.151760 0.509587 0.164104
O O5 0.378810 0.624757 0.707618
O O6 0.752044 0.858060 0.538128
O O7 0.848211 0.667567 0.582966
O O8 0.953089 0.856856 0.646235
O O9 0.500000 0.741577 0.250000
O O10 0.357448 0.790867 0.328189
O O11 0.761396 0.384981 0.410940
O O12 0.493900 0.158841 0.983388
O O13 0.250000 0.250000 0.000000
O O14 0.354421 0.031800 0.024864
#
# Coordination Sequence:
#
# PCOD9267525 Si02
#       7
#     8   4   8   8   8   8   8
#     4  10  22  40  65  90 126 166 203 267 319 378
#     4  10  26  40  62 100 124 160 218 258 320 398
#     4  10  19  39  65  88 124 163 211 255 315 379
#     4   9  20  38  62  89 117 159 205 250 314 379
#     4  11  22  41  62  90 127 164 202 265 319 371
#     4  11  24  41  63  91 127 167 213 265 320 376
#     4  10  22  40  64  90 122 169 210 260 315 375
#
# _framework density 19.908158
#
# number of rings (size 3 to 8) (size 9 to 14) (size 15 to 20)
#    0.000    1.846    3.077    0.000    6.462    0.000 
#    0.000    7.692    0.000    0.000    0.000    0.000 
#    0.000    0.000    0.000    0.000    0.000    0.000 
#
# Total GULP energy -144824.346342 kJ/mol
# GULP energy per Si atom -5570.167167 kJ/mol
# Density = 1.986285 g / cm^3
# Si number density = 19.908158 Si / 1000 Ang^3
#
#
#
# Elastic Constant Matrix: (Units=GPa)
#
#
# Indices 1 2 3 4 5 6 
#
# 1 41.4290 14.6614 -9.7345 0.0000 3.3132 0.0000
# 2 14.6614 81.6737 9.4316 0.0000 -15.9492 0.0000
# 3 -9.7345 9.4316 57.6229 0.0000 11.3044 0.0000
# 4 0.0000 0.0000 0.0000 21.3822 0.0000 -10.8497
# 5 3.3132 -15.9492 11.3044 0.0000 31.1049 0.0000
# 6 0.0000 0.0000 0.0000 -10.8497 0.0000 25.1044
#
#
#
# Elastic Compliance Matrix: (Units=1/GPa)
#
#
# Indices 1 2 3 4 5 6 
#
# 1 0.029978 -0.008440 0.008529 0.000000 -0.010621 0.000000
# 2 -0.008440 0.016835 -0.006516 0.000000 0.011899 0.000000
# 3 0.008529 -0.006516 0.022284 0.000000 -0.012348 0.000000
# 4 0.000000 0.000000 0.000000 0.059905 0.000000 0.025890
# 5 -0.010621 0.011899 -0.012348 0.000000 0.043870 0.000000
# 6 0.000000 0.000000 0.000000 0.025890 0.000000 0.051023
#
#
# Mechanical properties :
#
#
# Convention : Reuss Voigt Hill
#
# Bulk Modulus (GPa) = 17.77975 23.27142 20.52558
# Shear Modulus (GPa) = 19.56973 26.60942 23.08958
#
# Velocity S-wave (km/s) = 3.13869 3.65993 3.40929
# Velocity P-wave (km/s) = 4.69951 5.43828 5.08234
#
# Compressibility (1/GPa) = 0.05624377
#
# Stress axis : x y z
#
# Youngs Moduli (GPa) = 33.35754 59.39951 44.87510
#
# Poissons Ratio (x) = 0.50136 -0.38276
# Poissons Ratio (y) = 0.28155 0.29240
# Poissons Ratio (z) = -0.28452 0.38704
#
# Static dielectric constant tensor:
#      x y z
#    x 1.737580 0.000000 0.049320 
#    y 0.000000 1.710360 0.000000 
#    z 0.049320 0.000000 1.728670 
# 
# From -- ./inp_files/237208.got.cif
#   From: 2010.05.17/outbox.cif.g08.bks.cpg/sg15_119_cif.got.tgz:237208.got - 2010.06.03 18:47:42.
