data_PCOD9267250
_publ_section_title
;
Structure prediction by ZEFSAII (Michael W. Deem and Ramdas Pophale) SiO2 
 PCOD9267250
Probable space group: C 2/C
;
_chemical_formula_sum "Si O2"
_cell_formula_units_Z 40
_cell_length_a 25.166414
_cell_length_b 18.538722
_cell_length_c 10.949402
_cell_angle_alpha 90.000000
_cell_angle_beta 21.358147
_cell_angle_gamma 90.000000
_cell_volume 1860.490207
_symmetry_space_group_name_H-M "C 2/C"
_symmetry_group_IT_number 15
_symmetry_cell_setting 'monoclinic'
loop_
_space_group_symop_operation_xyz
x,y,z
-x,y,1/2-z
-x,-y,-z
x,-y,1/2+z
1/2+x,1/2+y,z
1/2-x,1/2+y,1/2-z
1/2-x,1/2-y,-z
1/2+x,1/2-y,1/2+z
loop_
_atom_site_type_symbol
_atom_site_label
_atom_site_fract_x
_atom_site_fract_y
_atom_site_fract_z
Si Si1 0.000000 0.867087 0.250000
Si Si2 0.784002 0.535679 0.118095
Si Si3 0.000000 0.569244 0.250000
Si Si4 0.571599 0.309777 0.839640
Si Si5 0.939252 0.050592 0.519344
Si Si6 0.402516 0.149566 0.688117
O O1 0.854354 0.915712 0.544589
O O2 0.972919 0.818758 0.424528
O O3 0.722865 0.478917 0.149561
O O4 0.888833 0.590305 0.822998
O O5 0.862499 0.485367 0.047868
O O6 0.998913 0.618863 0.371921
O O7 0.554451 0.226239 0.846064
O O8 0.740856 0.335470 0.475021
O O9 0.473553 0.367518 0.979440
O O10 0.000000 0.000000 0.500000
O O11 0.000000 0.043085 0.250000
#
# Coordination Sequence:
#
# PCOD9267250 Si02
#       6
#     4   8   4   8   8   8
#     4  10  19  38  70  97 116 176 230 280 317 404
#     4  11  23  39  68  97 129 176 232 281 334 408
#     4  12  25  42  64  91 142 178 220 274 367 406
#     4  10  21  39  68  95 132 166 232 276 343 393
#     4  12  21  39  69 103 128 171 236 287 321 400
#     4  10  22  40  60  96 133 177 212 281 346 409
#
# _framework density 21.499711000000001
#
# number of rings (size 3 to 8) (size 9 to 14) (size 15 to 20)
#    0.000    1.200    5.000    2.400    2.800    0.000 
#    1.800    1.000    0.000    0.000    0.000    0.000 
#    0.000    0.000    0.000    0.000    0.000    0.000 
#
# Total GULP energy -111559.493393 kJ/mol
# GULP energy per Si atom -5577.974670 kJ/mol
# Density = 2.145078 g / cm^3
# Si number density = 21.499711 Si / 1000 Ang^3
#
#
#
# Elastic Constant Matrix: (Units=GPa)
#
#
# Indices 1 2 3 4 5 6 
#
# 1 51.8182 29.8972 3.6139 -0.0001 6.9536 0.0002
# 2 29.8972 161.4133 18.4256 -0.0004 4.1442 0.0002
# 3 3.6139 18.4256 56.6566 -0.0007 21.9568 0.0000
# 4 -0.0001 -0.0004 -0.0007 15.9879 0.0002 -0.1261
# 5 6.9536 4.1442 21.9568 0.0002 35.0902 -0.0001
# 6 0.0002 0.0002 0.0000 -0.1261 -0.0001 23.4964
#
#
#
# Elastic Compliance Matrix: (Units=1/GPa)
#
#
# Indices 1 2 3 4 5 6 
#
# 1 0.022285 -0.004217 0.001938 0.000000 -0.005131 0.000000
# 2 -0.004217 0.007246 -0.002746 0.000000 0.001698 0.000000
# 3 0.001938 -0.002746 0.024347 0.000001 -0.015294 0.000000
# 4 0.000000 0.000000 0.000001 0.062550 -0.000001 0.000336
# 5 -0.005131 0.001698 -0.015294 -0.000001 0.038884 0.000000
# 6 0.000000 0.000000 0.000000 0.000336 0.000000 0.042562
#
#
# Mechanical properties :
#
#
# Convention : Reuss Voigt Hill
#
# Bulk Modulus (GPa) = 22.81597 41.52906 32.17252
# Shear Modulus (GPa) = 22.46877 29.44499 25.95688
#
# Velocity S-wave (km/s) = 3.23627 3.70476 3.47841
# Velocity P-wave (km/s) = 4.95982 6.13664 5.57935
#
# Compressibility (1/GPa) = 0.04382895
#
# Stress axis : x y z
#
# Youngs Moduli (GPa) = 44.87376 138.00327 41.07362
#
# Poissons Ratio (x) = 0.58198 -0.07962
# Poissons Ratio (y) = 0.18924 0.11277
# Poissons Ratio (z) = -0.08699 0.37890
#
# Static dielectric constant tensor:
#      x y z
#    x 1.766050 0.000000 -0.028480 
#    y 0.000000 1.779070 0.000000 
#    z -0.028480 0.000000 1.833490 
# 
# From -- ./inp_files/127205.got.cif
#   From: 2010.05.17/outbox.cif.g08.bks.cpg/sg15_64_cif.got.tgz:127205.got - 2010.06.03 18:47:42.
