data_PCOD9267199
_publ_section_title
;
Structure prediction by ZEFSAII (Michael W. Deem and Ramdas Pophale) SiO2 
 PCOD9267199
Probable space group: C 2/C
;
_chemical_formula_sum "Si O2"
_cell_formula_units_Z 60
_cell_length_a 16.344291
_cell_length_b 9.464290
_cell_length_c 17.444207
_cell_angle_alpha 90.000000
_cell_angle_beta 71.586644
_cell_angle_gamma 90.000000
_cell_volume 2560.242686
_symmetry_space_group_name_H-M "C 2/C"
_symmetry_group_IT_number 15
_symmetry_cell_setting 'monoclinic'
loop_
_space_group_symop_operation_xyz
x,y,z
-x,y,1/2-z
-x,-y,-z
x,-y,1/2+z
1/2+x,1/2+y,z
1/2-x,1/2+y,1/2-z
1/2-x,1/2-y,-z
1/2+x,1/2-y,1/2+z
loop_
_atom_site_type_symbol
_atom_site_label
_atom_site_fract_x
_atom_site_fract_y
_atom_site_fract_z
Si Si1 0.500000 0.117667 0.250000
Si Si2 0.290297 0.727926 0.212283
Si Si3 0.133811 0.379327 0.162901
Si Si4 0.747605 0.017302 0.999491
Si Si5 0.094433 0.915276 0.641527
Si Si6 0.516480 0.667329 0.888251
Si Si7 0.163885 0.940598 0.265796
Si Si8 0.873509 0.255008 0.036319
O O1 0.491838 0.221457 0.179285
O O2 0.579201 0.012364 0.208716
O O3 0.315890 0.803559 0.282811
O O4 0.208203 0.813935 0.206913
O O5 0.271395 0.564804 0.231011
O O6 0.366327 0.741316 0.129074
O O7 0.200075 0.427102 0.078095
O O8 0.073729 0.250189 0.150049
O O9 0.810580 0.133297 0.020414
O O10 0.671827 0.100712 0.977391
O O11 0.809876 0.932004 0.923813
O O12 0.033730 0.020984 0.613087
O O13 0.100232 0.980693 0.725599
O O14 0.615760 0.621542 0.854015
O O15 0.468824 0.734536 0.974650
#
# Coordination Sequence:
#
# PCOD9267199 Si02
#       8
#     4   8   8   8   8   8   8   8
#     4  12  24  38  68  92 124 166 224 266 306 388
#     4  11  25  41  64  93 136 166 210 265 333 388
#     4  11  25  39  64  99 126 167 210 275 324 377
#     4  10  19  38  67  94 123 169 224 262 307 388
#     4  10  21  39  66  94 126 160 219 271 315 363
#     4  11  23  40  67  92 122 170 222 265 311 383
#     4  11  23  39  64  91 128 171 210 261 325 386
#     4  10  21  39  65  95 125 172 217 265 313 387
#
# _framework density 23.435279999999999
#
# number of rings (size 3 to 8) (size 9 to 14) (size 15 to 20)
#    0.000    1.333    4.000    1.200    7.467    0.533 
#    0.000    0.667    5.867    0.000    0.000    0.000 
#    0.000    0.000    0.000    0.000    0.000    0.000 
#
# Total GULP energy -167785.634066 kJ/mol
# GULP energy per Si atom -5592.854469 kJ/mol
# Density = 2.338194 g / cm^3
# Si number density = 23.435280 Si / 1000 Ang^3
#
#
#
# Elastic Constant Matrix: (Units=GPa)
#
#
# Indices 1 2 3 4 5 6 
#
# 1 27.4914 25.1530 5.5712 0.0000 -11.4819 0.0000
# 2 25.1530 132.4889 30.8238 0.0000 -14.7529 0.0000
# 3 5.5712 30.8238 143.3588 0.0000 -23.9386 0.0000
# 4 0.0000 0.0000 0.0000 39.3397 0.0000 -5.6746
# 5 -11.4819 -14.7529 -23.9386 0.0000 28.8015 0.0000
# 6 0.0000 0.0000 0.0000 -5.6746 0.0000 12.1318
#
#
#
# Elastic Compliance Matrix: (Units=1/GPa)
#
#
# Indices 1 2 3 4 5 6 
#
# 1 0.051140 -0.008319 0.002896 0.000000 0.018533 0.000000
# 2 -0.008319 0.009540 -0.001702 0.000000 0.000156 0.000000
# 3 0.002896 -0.001702 0.008449 0.000000 0.007305 0.000000
# 4 0.000000 0.000000 0.000000 0.027259 0.000000 0.012750
# 5 0.018533 0.000156 0.007305 0.000000 0.048260 0.000000
# 6 0.000000 0.000000 0.000000 0.012750 0.000000 0.088392
#
#
# Mechanical properties :
#
#
# Convention : Reuss Voigt Hill
#
# Bulk Modulus (GPa) = 18.22179 47.38168 32.80173
# Shear Modulus (GPa) = 18.82647 32.17401 25.50024
#
# Velocity S-wave (km/s) = 2.83740 3.70927 3.30223
# Velocity P-wave (km/s) = 4.30426 6.21345 5.34479
#
# Compressibility (1/GPa) = 0.05487936
#
# Stress axis : x y z
#
# Youngs Moduli (GPa) = 19.55414 104.81646 118.36116
#
# Poissons Ratio (x) = 0.87197 -0.34278
# Poissons Ratio (y) = 0.16267 0.20145
# Poissons Ratio (z) = -0.05663 0.17840
#
# Static dielectric constant tensor:
#      x y z
#    x 1.931600 0.000000 -0.009610 
#    y 0.000000 1.885510 0.000000 
#    z -0.009610 0.000000 1.863120 
# 
# From -- ./inp_files/247835.got.cif
#   From: 2010.05.17/outbox.cif.g08.bks.cpg/sg15_124_cif.got.tgz:247835.got - 2010.06.03 18:47:42.
