data_PCOD9267815
_publ_section_title
;
Structure prediction by ZEFSAII (Michael W. Deem and Ramdas Pophale) SiO2 
 PCOD9267815
Probable space group: C 2/C
;
_chemical_formula_sum "Si O2"
_cell_formula_units_Z 24
_cell_length_a 10.199878
_cell_length_b 9.865405
_cell_length_c 17.834737
_cell_angle_alpha 90.000000
_cell_angle_beta 151.198824
_cell_angle_gamma 90.000000
_cell_volume 864.605223
_symmetry_space_group_name_H-M "C 2/C"
_symmetry_group_IT_number 15
_symmetry_cell_setting 'monoclinic'
loop_
_space_group_symop_operation_xyz
x,y,z
-x,y,1/2-z
-x,-y,-z
x,-y,1/2+z
1/2+x,1/2+y,z
1/2-x,1/2+y,1/2-z
1/2-x,1/2-y,-z
1/2+x,1/2-y,1/2+z
loop_
_atom_site_type_symbol
_atom_site_label
_atom_site_fract_x
_atom_site_fract_y
_atom_site_fract_z
Si Si1 0.404445 0.696883 0.473935
Si Si2 0.640545 0.654078 0.224102
Si Si3 0.183991 0.466576 0.992426
O O1 0.378653 0.688270 0.373000
O O2 0.711415 0.724910 0.657700
O O3 0.275964 0.570094 0.453962
O O4 0.248999 0.830017 0.427835
O O5 0.349265 0.596231 0.101502
O O6 0.860304 0.530804 0.338975
#
# Coordination Sequence:
#
# PCOD9267815 Si02
#       3
#     8   8   8
#     4   9  20  35  67  89 128 170 213 258 334 381
#     4  10  19  40  66  89 127 173 212 264 326 385
#     4   9  20  35  69  88 127 173 213 256 336 381
#
# _framework density 27.758333
#
# number of rings (size 3 to 8) (size 9 to 14) (size 15 to 20)
#    2.000    0.667    0.000    2.000    0.000    0.000 
#    0.000    3.333   14.667    0.000    0.000    0.000 
#    0.000    0.000    0.000    0.000    0.000    0.000 
#
# Total GULP energy -67221.374226 kJ/mol
# GULP energy per Si atom -5601.781185 kJ/mol
# Density = 2.769515 g / cm^3
# Si number density = 27.758333 Si / 1000 Ang^3
#
#
#
# Elastic Constant Matrix: (Units=GPa)
#
#
# Indices 1 2 3 4 5 6 
#
# 1 110.2953 26.9977 54.6801 0.0019 -3.3936 0.0011
# 2 26.9977 46.4219 18.3299 0.0009 9.1709 0.0000
# 3 54.6801 18.3299 142.4172 0.0058 -5.7854 0.0029
# 4 0.0019 0.0009 0.0058 46.2668 0.0026 14.0262
# 5 -3.3936 9.1709 -5.7854 0.0026 46.2684 0.0012
# 6 0.0011 0.0000 0.0029 14.0262 0.0012 45.9709
#
#
#
# Elastic Compliance Matrix: (Units=1/GPa)
#
#
# Indices 1 2 3 4 5 6 
#
# 1 0.012574 -0.006062 -0.003982 0.000000 0.001626 0.000000
# 2 -0.006062 0.026773 -0.001359 0.000000 -0.005921 0.000000
# 3 -0.003982 -0.001359 0.008769 -0.000001 0.001074 0.000000
# 4 0.000000 0.000000 -0.000001 0.023817 -0.000001 -0.007267
# 5 0.001626 -0.005921 0.001074 -0.000001 0.023040 0.000000
# 6 0.000000 0.000000 0.000000 -0.007267 0.000000 0.023970
#
#
# Mechanical properties :
#
#
# Convention : Reuss Voigt Hill
#
# Bulk Modulus (GPa) = 39.50763 55.46110 47.48437
# Shear Modulus (GPa) = 33.29209 40.97633 37.13421
#
# Velocity S-wave (km/s) = 3.46693 3.84628 3.66152
# Velocity P-wave (km/s) = 5.50361 6.30464 5.91769
#
# Compressibility (1/GPa) = 0.02531156
#
# Stress axis : x y z
#
# Youngs Moduli (GPa) = 79.52710 37.35048 114.04003
#
# Poissons Ratio (x) = 0.22642 0.45406
# Poissons Ratio (y) = 0.48209 0.15498
# Poissons Ratio (z) = 0.31664 0.05076
#
# Static dielectric constant tensor:
#      x y z
#    x 2.159290 0.000000 -0.007810 
#    y 0.000000 2.151830 0.000000 
#    z -0.007810 0.000000 2.163080 
# 
# From -- ./inp_files/26845.got.cif
#   From: 2010.05.17/outbox.cif.g08.bks.cpg/sg15_14_cif.got.tgz:26845.got - 2010.06.03 18:47:42.
