data_PCOD9267818
_publ_section_title
;
Structure prediction by ZEFSAII (Michael W. Deem and Ramdas Pophale) SiO2 
 PCOD9267818
Probable space group: C 2/C
;
_chemical_formula_sum "Si O2"
_cell_formula_units_Z 44
_cell_length_a 10.701401
_cell_length_b 10.366084
_cell_length_c 14.794096
_cell_angle_alpha 90.000000
_cell_angle_beta 88.996145
_cell_angle_gamma 90.000000
_cell_volume 1640.881177
_symmetry_space_group_name_H-M "C 2/C"
_symmetry_group_IT_number 15
_symmetry_cell_setting 'monoclinic'
loop_
_space_group_symop_operation_xyz
x,y,z
-x,y,1/2-z
-x,-y,-z
x,-y,1/2+z
1/2+x,1/2+y,z
1/2-x,1/2+y,1/2-z
1/2-x,1/2-y,-z
1/2+x,1/2-y,1/2+z
loop_
_atom_site_type_symbol
_atom_site_label
_atom_site_fract_x
_atom_site_fract_y
_atom_site_fract_z
Si Si1 0.798759 0.465873 0.445980
Si Si2 0.961802 0.575100 0.122386
Si Si3 0.395209 0.786313 0.146389
Si Si4 0.000000 0.791721 0.250000
Si Si5 0.664060 0.574701 0.594112
Si Si6 0.160743 0.791846 0.652721
O O1 0.893093 0.419699 0.526105
O O2 0.671689 0.526940 0.488766
O O3 0.775347 0.336029 0.389911
O O4 0.887265 0.570244 0.395345
O O5 0.940333 0.433283 0.161932
O O6 0.923241 0.688743 0.190069
O O7 0.272818 0.817667 0.091314
O O8 0.355334 0.727325 0.241157
O O9 0.518755 0.713817 0.111858
O O10 0.064935 0.874104 0.169179
O O11 0.703240 0.437045 0.636655
#
# Coordination Sequence:
#
# PCOD9267818 Si02
#       6
#     8   8   8   4   8   8
#     4   9  19  39  65  86 117 166 217 251 311 380
#     4   9  19  38  63  90 118 166 217 250 306 395
#     4   9  20  38  64  88 120 172 213 249 313 373
#     4  12  24  38  58  94 136 154 198 274 316 370
#     4  11  24  37  61  97 125 163 209 262 319 383
#     4  10  19  40  66  90 125 166 213 263 305 382
#
# _framework density 26.814861000000001
#
# number of rings (size 3 to 8) (size 9 to 14) (size 15 to 20)
#    0.000    2.182    0.000    4.909    5.091    0.727 
#    0.000    0.909    4.000    0.000    0.000    0.000 
#    0.000    0.000    0.000    0.000    0.000    0.000 
#
# Total GULP energy -122660.353083 kJ/mol
# GULP energy per Si atom -5575.470595 kJ/mol
# Density = 2.675383 g / cm^3
# Si number density = 26.814861 Si / 1000 Ang^3
#
#
#
# Elastic Constant Matrix: (Units=GPa)
#
#
# Indices 1 2 3 4 5 6 
#
# 1 46.8431 36.4446 20.5292 0.0000 -14.3290 0.0000
# 2 36.4446 89.4224 26.8134 0.0000 -3.3110 0.0000
# 3 20.5292 26.8134 85.9494 0.0000 -27.5868 0.0000
# 4 0.0000 0.0000 0.0000 38.5419 0.0000 -16.7800
# 5 -14.3290 -3.3110 -27.5868 0.0000 47.2348 0.0000
# 6 0.0000 0.0000 0.0000 -16.7800 0.0000 34.1917
#
#
#
# Elastic Compliance Matrix: (Units=1/GPa)
#
#
# Indices 1 2 3 4 5 6 
#
# 1 0.035296 -0.013669 -0.001276 0.000000 0.009004 0.000000
# 2 -0.013669 0.017743 -0.003941 0.000000 -0.005204 0.000000
# 3 -0.001276 -0.003941 0.015945 0.000000 0.008649 0.000000
# 4 0.000000 0.000000 0.000000 0.032996 0.000000 0.016193
# 5 0.009004 -0.005204 0.008649 0.000000 0.028589 0.000000
# 6 0.000000 0.000000 0.000000 0.016193 0.000000 0.037194
#
#
# Mechanical properties :
#
#
# Convention : Reuss Voigt Hill
#
# Bulk Modulus (GPa) = 32.03934 43.30991 37.67462
# Shear Modulus (GPa) = 23.15477 33.22220 28.18849
#
# Velocity S-wave (km/s) = 2.94173 3.52369 3.24578
# Velocity P-wave (km/s) = 4.84899 5.72203 5.30351
#
# Compressibility (1/GPa) = 0.03121163
#
# Stress axis : x y z
#
# Youngs Moduli (GPa) = 28.33173 56.36122 62.71547
#
# Poissons Ratio (x) = 0.77040 0.08005
# Poissons Ratio (y) = 0.38727 0.24714
# Poissons Ratio (z) = 0.03616 0.22210
#
# Static dielectric constant tensor:
#      x y z
#    x 2.428160 0.000000 -0.029420 
#    y 0.000000 2.040140 0.000000 
#    z -0.029420 0.000000 2.228860 
# 
# From -- ./inp_files/202547.got.cif
#   From: 2010.05.17/outbox.cif.g08.bks.cpg/sg15_102_cif.got.tgz:202547.got - 2010.06.03 18:47:42.
