data_PCOD9267714
_publ_section_title
;
Structure prediction by ZEFSAII (Michael W. Deem and Ramdas Pophale) SiO2 
 PCOD9267714
Probable space group: C 2/C
;
_chemical_formula_sum "Si O2"
_cell_formula_units_Z 52
_cell_length_a 11.651981
_cell_length_b 9.436338
_cell_length_c 24.510664
_cell_angle_alpha 90.000000
_cell_angle_beta 70.562920
_cell_angle_gamma 90.000000
_cell_volume 2541.402647
_symmetry_space_group_name_H-M "C 2/C"
_symmetry_group_IT_number 15
_symmetry_cell_setting 'monoclinic'
loop_
_space_group_symop_operation_xyz
x,y,z
-x,y,1/2-z
-x,-y,-z
x,-y,1/2+z
1/2+x,1/2+y,z
1/2-x,1/2+y,1/2-z
1/2-x,1/2-y,-z
1/2+x,1/2-y,1/2+z
loop_
_atom_site_type_symbol
_atom_site_label
_atom_site_fract_x
_atom_site_fract_y
_atom_site_fract_z
Si Si1 0.387236 0.254897 0.500450
Si Si2 0.500000 0.182721 0.750000
Si Si3 0.096698 0.956782 0.691389
Si Si4 0.162097 0.404517 0.314073
Si Si5 0.478568 0.602015 0.612163
Si Si6 0.033133 0.409416 0.605590
Si Si7 0.210148 0.864050 0.874041
O O1 0.250000 0.250000 0.500000
O O2 0.461924 0.377583 0.456972
O O3 0.442813 0.114708 0.462854
O O4 0.371960 0.288227 0.565880
O O5 0.559594 0.291771 0.697006
O O6 0.393598 0.098512 0.737507
O O7 0.228737 0.987421 0.693503
O O8 0.075812 0.029121 0.636815
O O9 0.000000 0.020600 0.750000
O O10 0.211045 0.250664 0.325316
O O11 0.048217 0.457387 0.368010
O O12 0.462107 0.764458 0.633383
O O13 0.359923 0.506141 0.631439
O O14 0.159452 0.400531 0.619539
#
# Coordination Sequence:
#
# PCOD9267714 Si02
#       7
#     8   4   8   8   8   8   8
#     4   8  17  36  61  94 124 164 205 239 300 373
#     4  10  26  42  58  92 114 158 210 254 304 368
#     4  10  22  42  61  84 117 159 202 255 309 357
#     4  12  23  42  64  89 120 161 203 260 306 365
#     4  10  19  40  62  89 123 164 199 249 305 362
#     4   9  23  36  59  95 120 160 203 247 296 369
#     4  11  19  39  67  88 131 163 197 249 308 362
#
# _framework density 20.461141000000001
#
# number of rings (size 3 to 8) (size 9 to 14) (size 15 to 20)
#    1.385    0.615    3.077    0.462    0.000    5.538 
#    1.385    0.000    0.000    3.692    0.000    0.000 
#    0.000    0.000    0.000    0.000    0.000    0.000 
#
# Total GULP energy -144747.013058 kJ/mol
# GULP energy per Si atom -5567.192810 kJ/mol
# Density = 2.041457 g / cm^3
# Si number density = 20.461141 Si / 1000 Ang^3
#
#
#
# Elastic Constant Matrix: (Units=GPa)
#
#
# Indices 1 2 3 4 5 6 
#
# 1 114.1803 40.6449 12.0399 0.0000 10.2134 0.0000
# 2 40.6449 57.4296 -11.1157 0.0000 3.8840 0.0000
# 3 12.0399 -11.1157 30.7514 0.0000 7.2827 0.0000
# 4 0.0000 0.0000 0.0000 12.0376 0.0000 17.7643
# 5 10.2134 3.8840 7.2827 0.0000 30.2074 0.0000
# 6 0.0000 0.0000 0.0000 17.7643 0.0000 20.5225
#
#
#
# Elastic Compliance Matrix: (Units=1/GPa)
#
#
# Indices 1 2 3 4 5 6 
#
# 1 0.013999 -0.011678 -0.009478 0.000000 -0.000947 0.000000
# 2 -0.011678 0.029002 0.015912 0.000000 -0.003617 0.000000
# 3 -0.009478 0.015912 0.044233 0.000000 -0.009505 0.000000
# 4 0.000000 0.000000 0.000000 -0.299481 0.000000 0.259230
# 5 -0.000947 -0.003617 -0.009505 0.000000 0.036181 0.000000
# 6 0.000000 0.000000 0.000000 0.259230 0.000000 -0.175662
#
#
# Mechanical properties :
#
#
# Convention : Reuss Voigt Hill
#
# Bulk Modulus (GPa) = 13.03001 31.72216 22.37608
# Shear Modulus (GPa) = -15.84000 23.27298 3.71649
#
# Velocity S-wave (km/s) = -2.78537 3.37623 1.34919
# Velocity P-wave (km/s) = 1.99058 5.54399 3.65879
#
# Compressibility (1/GPa) = 0.07674593
#
# Stress axis : x y z
#
# Youngs Moduli (GPa) = 71.43180 34.48002 22.60766
#
# Poissons Ratio (x) = 0.40267 0.21428
# Poissons Ratio (y) = 0.83421 -0.35974
# Poissons Ratio (z) = 0.67705 -0.54866
#
# Static dielectric constant tensor:
#      x y z
#    x 1.722740 0.000000 -0.010260 
#    y 0.000000 1.732850 0.000000 
#    z -0.010260 0.000000 1.778960 
# 
# From -- ./inp_files/291159.got.cif
#   From: 2010.05.17/outbox.cif.g08.bks.cpg/sg15_146_cif.got.tgz:291159.got - 2010.06.03 18:47:42.
