data_PCOD9267021
_publ_section_title
;
Structure prediction by ZEFSAII (Michael W. Deem and Ramdas Pophale) SiO2 
 PCOD9267021
Probable space group: C 2/C
;
_chemical_formula_sum "Si O2"
_cell_formula_units_Z 56
_cell_length_a 12.111546
_cell_length_b 9.306510
_cell_length_c 27.181969
_cell_angle_alpha 90.000000
_cell_angle_beta 55.012776
_cell_angle_gamma 90.000000
_cell_volume 2510.149892
_symmetry_space_group_name_H-M "C 2/C"
_symmetry_group_IT_number 15
_symmetry_cell_setting 'monoclinic'
loop_
_space_group_symop_operation_xyz
x,y,z
-x,y,1/2-z
-x,-y,-z
x,-y,1/2+z
1/2+x,1/2+y,z
1/2-x,1/2+y,1/2-z
1/2-x,1/2-y,-z
1/2+x,1/2-y,1/2+z
loop_
_atom_site_type_symbol
_atom_site_label
_atom_site_fract_x
_atom_site_fract_y
_atom_site_fract_z
Si Si1 0.154202 0.301502 0.068173
Si Si2 0.528224 0.218117 0.114071
Si Si3 0.853435 0.488134 0.347901
Si Si4 0.159792 0.386890 0.253416
Si Si5 0.390106 0.049808 0.489712
Si Si6 0.885990 0.987170 0.881279
Si Si7 0.268284 0.417876 0.804730
O O1 0.224819 0.372926 0.097782
O O2 0.085301 0.437575 0.061197
O O3 0.070085 0.165028 0.107004
O O4 0.250000 0.250000 0.000000
O O5 0.589259 0.199715 0.043590
O O6 0.515445 0.381018 0.135194
O O7 0.382676 0.143523 0.148481
O O8 0.626266 0.138851 0.129156
O O9 0.804118 0.479448 0.304848
O O10 0.005754 0.426135 0.305660
O O11 0.251934 0.443641 0.274093
O O12 0.164244 0.218953 0.239187
O O13 0.247864 0.031955 0.553139
O O14 0.500000 0.000000 0.500000
O O15 0.841760 0.958884 0.836554
#
# Coordination Sequence:
#
# PCOD9267021 Si02
#       7
#     8   8   8   8   8   8   8
#     4   9  19  35  62  87 119 156 193 247 309 362
#     4  10  22  38  61  89 119 157 204 248 307 373
#     4   9  19  40  59  78 119 161 194 248 311 364
#     4  10  22  38  59  83 118 159 206 249 311 363
#     4  10  19  38  64  87 123 162 194 245 311 372
#     4  11  21  38  62  89 123 158 201 253 306 365
#     4  11  23  40  59  89 121 157 209 261 302 372
#
# _framework density 22.309424
#
# number of rings (size 3 to 8) (size 9 to 14) (size 15 to 20)
#    0.000    2.000    2.857    0.429    2.000    1.143 
#    0.000    2.143    0.000    0.000    0.000    0.000 
#    0.000    0.000    0.000    0.000    0.000    0.000 
#
# Total GULP energy -156230.817433 kJ/mol
# GULP energy per Si atom -5579.672051 kJ/mol
# Density = 2.225865 g / cm^3
# Si number density = 22.309424 Si / 1000 Ang^3
#
#
#
# Elastic Constant Matrix: (Units=GPa)
#
#
# Indices 1 2 3 4 5 6 
#
# 1 41.8799 4.8805 20.2742 0.0000 17.9510 0.0000
# 2 4.8805 81.7558 16.8615 0.0000 23.3241 0.0000
# 3 20.2742 16.8615 98.6932 0.0000 25.6658 0.0000
# 4 0.0000 0.0000 0.0000 31.8320 0.0000 4.2825
# 5 17.9510 23.3241 25.6658 0.0000 37.5072 0.0000
# 6 0.0000 0.0000 0.0000 4.2825 0.0000 25.6570
#
#
#
# Elastic Compliance Matrix: (Units=1/GPa)
#
#
# Indices 1 2 3 4 5 6 
#
# 1 0.031350 0.002970 -0.003121 0.000000 -0.014716 0.000000
# 2 0.002970 0.015153 -0.000461 0.000000 -0.010529 0.000000
# 3 -0.003121 -0.000461 0.012638 0.000000 -0.006868 0.000000
# 4 0.000000 0.000000 0.000000 0.032137 0.000000 -0.005364
# 5 -0.014716 -0.010529 -0.006868 0.000000 0.044952 0.000000
# 6 0.000000 0.000000 0.000000 -0.005364 0.000000 0.039871
#
#
# Mechanical properties :
#
#
# Convention : Reuss Voigt Hill
#
# Bulk Modulus (GPa) = 17.26534 34.04014 25.65274
# Shear Modulus (GPa) = 25.42847 31.02010 28.22429
#
# Velocity S-wave (km/s) = 3.37977 3.73292 3.56072
# Velocity P-wave (km/s) = 4.79440 5.81987 5.33185
#
# Compressibility (1/GPa) = 0.05791950
#
# Stress axis : x y z
#
# Youngs Moduli (GPa) = 31.89787 65.99262 79.12457
#
# Poissons Ratio (x) = -0.19603 0.24692
# Poissons Ratio (y) = -0.09475 0.03647
# Poissons Ratio (z) = 0.09954 0.03041
#
# Static dielectric constant tensor:
#      x y z
#    x 1.718550 0.000000 -0.110410 
#    y 0.000000 1.923310 0.000000 
#    z -0.110410 0.000000 1.774150 
# 
# From -- ./inp_files/294781.got.cif
#   From: 2010.05.17/outbox.cif.g08.bks.cpg/sg15_148_cif.got.tgz:294781.got - 2010.06.03 18:47:42.
