data_PCOD9267602
_publ_section_title
;
Structure prediction by ZEFSAII (Michael W. Deem and Ramdas Pophale) SiO2 
 PCOD9267602
Probable space group: C 2/C
;
_chemical_formula_sum "Si O2"
_cell_formula_units_Z 56
_cell_length_a 17.030207
_cell_length_b 7.852937
_cell_length_c 25.329262
_cell_angle_alpha 90.000000
_cell_angle_beta 46.221181
_cell_angle_gamma 90.000000
_cell_volume 2445.802742
_symmetry_space_group_name_H-M "C 2/C"
_symmetry_group_IT_number 15
_symmetry_cell_setting 'monoclinic'
loop_
_space_group_symop_operation_xyz
x,y,z
-x,y,1/2-z
-x,-y,-z
x,-y,1/2+z
1/2+x,1/2+y,z
1/2-x,1/2+y,1/2-z
1/2-x,1/2-y,-z
1/2+x,1/2-y,1/2+z
loop_
_atom_site_type_symbol
_atom_site_label
_atom_site_fract_x
_atom_site_fract_y
_atom_site_fract_z
Si Si1 0.888494 0.631904 0.952582
Si Si2 0.320993 0.520293 0.964892
Si Si3 0.645285 0.180401 0.414059
Si Si4 0.398047 0.049287 0.175784
Si Si5 0.063105 0.244948 0.671250
Si Si6 0.273370 0.970417 0.839364
Si Si7 0.576858 0.659927 0.478383
O O1 0.867160 0.827269 0.946287
O O2 0.012376 0.589024 0.883349
O O3 0.806001 0.502842 0.963061
O O4 0.844166 0.604255 0.032837
O O5 0.355962 0.616615 0.895827
O O6 0.370607 0.625403 0.989918
O O7 0.666348 0.100765 0.347147
O O8 0.715819 0.354541 0.384295
O O9 0.513439 0.198181 0.474348
O O10 0.474146 0.192839 0.169270
O O11 0.316047 0.001124 0.260571
O O12 0.127869 0.398049 0.671153
O O13 0.000000 0.159159 0.750000
O O14 0.174708 0.833639 0.891224
O O15 0.500000 0.500000 0.500000
#
# Coordination Sequence:
#
# PCOD9267602 Si02
#       7
#     8   8   8   8   8   8   8
#     4  11  25  41  65 102 129 169 225 279 331 392
#     4  11  22  43  66  96 131 173 223 268 331 393
#     4  11  23  45  64  99 132 173 223 271 329 401
#     4  11  24  43  69  97 135 173 223 275 339 388
#     4  10  23  44  67  99 129 177 226 266 330 405
#     4  10  23  42  65  99 133 173 216 279 332 398
#     4  10  19  39  68  87 124 173 218 257 317 396
#
# _framework density 22.896367999999999
#
# number of rings (size 3 to 8) (size 9 to 14) (size 15 to 20)
#    0.000    1.429    4.286    1.286    4.000    2.286 
#    7.714    0.000    0.000    0.000    0.000    0.000 
#    0.000    0.000    0.000    0.000    0.000    0.000 
#
# Total GULP energy -156300.501154 kJ/mol
# GULP energy per Si atom -5582.160755 kJ/mol
# Density = 2.284426 g / cm^3
# Si number density = 22.896368 Si / 1000 Ang^3
#
#
#
# Elastic Constant Matrix: (Units=GPa)
#
#
# Indices 1 2 3 4 5 6 
#
# 1 74.7435 20.0883 28.9654 0.0001 16.1990 0.0006
# 2 20.0883 56.9553 26.1578 0.0003 7.7223 0.0013
# 3 28.9654 26.1578 165.7828 0.0000 21.6839 0.0000
# 4 0.0001 0.0003 0.0000 32.7059 0.0000 -1.5055
# 5 16.1990 7.7223 21.6839 0.0000 43.1516 0.0001
# 6 0.0006 0.0013 0.0000 -1.5055 0.0001 37.6593
#
#
#
# Elastic Compliance Matrix: (Units=1/GPa)
#
#
# Indices 1 2 3 4 5 6 
#
# 1 0.016125 -0.004371 -0.001539 0.000000 -0.004498 0.000000
# 2 -0.004371 0.020280 -0.002329 0.000000 -0.000818 -0.000001
# 3 -0.001539 -0.002329 0.006998 0.000000 -0.002522 0.000000
# 4 0.000000 0.000000 0.000000 0.030632 0.000000 0.001225
# 5 -0.004498 -0.000818 -0.002522 0.000000 0.026276 0.000000
# 6 0.000000 -0.000001 0.000000 0.001225 0.000000 0.026603
#
#
# Mechanical properties :
#
#
# Convention : Reuss Voigt Hill
#
# Bulk Modulus (GPa) = 37.14051 49.76717 43.45384
# Shear Modulus (GPa) = 32.81544 37.52139 35.16841
#
# Velocity S-wave (km/s) = 3.78989 4.05254 3.92341
# Velocity P-wave (km/s) = 5.95041 6.60912 6.28839
#
# Compressibility (1/GPa) = 0.02692478
#
# Stress axis : x y z
#
# Youngs Moduli (GPa) = 62.01525 49.31026 142.89112
#
# Poissons Ratio (x) = 0.21551 0.21998
# Poissons Ratio (y) = 0.27104 0.33282
# Poissons Ratio (z) = 0.09547 0.11485
#
# Static dielectric constant tensor:
#      x y z
#    x 1.928690 0.000000 0.036290 
#    y 0.000000 1.916650 0.000000 
#    z 0.036290 0.000000 1.893790 
# 
# From -- ./inp_files/298499.got.cif
#   From: 2010.05.17/outbox.cif.g08.bks.cpg/sg15_150_cif.got.tgz:298499.got - 2010.06.03 18:47:42.
