data_PCOD9267695
_publ_section_title
;
Structure prediction by ZEFSAII (Michael W. Deem and Ramdas Pophale) SiO2 
 PCOD9267695
Probable space group: C 2/C
;
_chemical_formula_sum "Si O2"
_cell_formula_units_Z 64
_cell_length_a 14.728390
_cell_length_b 12.142468
_cell_length_c 15.972938
_cell_angle_alpha 90.000000
_cell_angle_beta 86.089187
_cell_angle_gamma 90.000000
_cell_volume 2849.932556
_symmetry_space_group_name_H-M "C 2/C"
_symmetry_group_IT_number 15
_symmetry_cell_setting 'monoclinic'
loop_
_space_group_symop_operation_xyz
x,y,z
-x,y,1/2-z
-x,-y,-z
x,-y,1/2+z
1/2+x,1/2+y,z
1/2-x,1/2+y,1/2-z
1/2-x,1/2-y,-z
1/2+x,1/2-y,1/2+z
loop_
_atom_site_type_symbol
_atom_site_label
_atom_site_fract_x
_atom_site_fract_y
_atom_site_fract_z
Si Si1 0.466475 0.570701 0.081699
Si Si2 0.202111 0.455534 0.385100
Si Si3 0.662170 0.622299 0.070438
Si Si4 0.717603 0.287750 0.910071
Si Si5 0.545932 0.109242 0.338713
Si Si6 0.637416 0.038381 0.082236
Si Si7 0.246038 0.156972 0.882292
Si Si8 0.573394 0.353755 0.316855
O O1 0.556364 0.641230 0.094681
O O2 0.375635 0.642615 0.077390
O O3 0.449624 0.474163 0.148055
O O4 0.500000 0.500000 0.000000
O O5 0.302160 0.509356 0.389792
O O6 0.202855 0.326751 0.362738
O O7 0.135934 0.534446 0.336499
O O8 0.163336 0.463729 0.482825
O O9 0.721013 0.720148 0.105366
O O10 0.685974 0.622630 0.969170
O O11 0.800195 0.367241 0.877459
O O12 0.750000 0.250000 0.000000
O O13 0.500000 0.106390 0.250000
O O14 0.468026 0.060994 0.402519
O O15 0.562826 0.235983 0.365731
O O16 0.669093 0.924332 0.120543
O O17 0.182723 0.142566 0.805538
O O18 0.500000 0.338171 0.250000
#
# Coordination Sequence:
#
# PCOD9267695 Si02
#       8
#     8   8   8   8   8   8   8   8
#     4  12  22  38  66  95 125 163 214 263 309 373
#     4  10  21  39  62  95 125 159 208 257 318 370
#     4  10  21  35  65  96 125 156 206 270 311 361
#     4  10  22  37  61  99 128 155 203 263 324 363
#     4  11  25  43  61  90 128 172 211 251 313 387
#     4  10  21  38  66  89 123 161 205 264 312 360
#     4  10  19  40  61  92 126 159 210 258 310 372
#     4  11  24  43  62  89 129 168 214 255 312 384
#
# _framework density 22.456669999999999
#
# number of rings (size 3 to 8) (size 9 to 14) (size 15 to 20)
#    0.000    1.500    3.750    1.875    7.000    0.000 
#    2.250    0.625    0.000    0.000    0.000    0.000 
#    0.000    0.000    0.000    0.000    0.000    0.000 
#
# Total GULP energy -178598.673101 kJ/mol
# GULP energy per Si atom -5581.208534 kJ/mol
# Density = 2.240556 g / cm^3
# Si number density = 22.456670 Si / 1000 Ang^3
#
#
#
# Elastic Constant Matrix: (Units=GPa)
#
#
# Indices 1 2 3 4 5 6 
#
# 1 108.0790 33.7414 19.9901 0.0000 21.2243 0.0000
# 2 33.7414 124.7421 18.3678 0.0000 16.1221 0.0000
# 3 19.9901 18.3678 32.5760 0.0000 13.7036 0.0000
# 4 0.0000 0.0000 0.0000 18.0011 0.0000 16.1041
# 5 21.2243 16.1221 13.7036 0.0000 26.6258 0.0000
# 6 0.0000 0.0000 0.0000 16.1041 0.0000 46.7810
#
#
#
# Elastic Compliance Matrix: (Units=1/GPa)
#
#
# Indices 1 2 3 4 5 6 
#
# 1 0.011732 -0.001830 -0.003446 0.000000 -0.006470 0.000000
# 2 -0.001830 0.009294 -0.003017 0.000000 -0.002616 0.000000
# 3 -0.003446 -0.003017 0.041594 0.000000 -0.016834 0.000000
# 4 0.000000 0.000000 0.000000 0.080274 0.000000 -0.027634
# 5 -0.006470 -0.002616 -0.016834 0.000000 0.052964 0.000000
# 6 0.000000 0.000000 0.000000 -0.027634 0.000000 0.030889
#
#
# Mechanical properties :
#
#
# Convention : Reuss Voigt Hill
#
# Bulk Modulus (GPa) = 21.72231 45.51063 33.61647
# Shear Modulus (GPa) = 19.32922 31.16811 25.24866
#
# Velocity S-wave (km/s) = 2.93701 3.72952 3.35674
# Velocity P-wave (km/s) = 4.60384 6.23344 5.47956
#
# Compressibility (1/GPa) = 0.04603563
#
# Stress axis : x y z
#
# Youngs Moduli (GPa) = 85.23965 107.59840 24.04165
#
# Poissons Ratio (x) = 0.19687 0.08284
# Poissons Ratio (y) = 0.15596 0.07253
# Poissons Ratio (z) = 0.29370 0.32462
#
# Static dielectric constant tensor:
#      x y z
#    x 1.824320 0.000000 -0.001840 
#    y 0.000000 1.790490 0.000000 
#    z -0.001840 0.000000 1.966710 
# 
# From -- ./inp_files/204481.got.cif
#   From: 2010.05.17/outbox.cif.g08.bks.cpg/sg15_103_cif.got.tgz:204481.got - 2010.06.03 18:47:42.
