data_PCOD9267079
_publ_section_title
;
Structure prediction by ZEFSAII (Michael W. Deem and Ramdas Pophale) SiO2 
 PCOD9267079
Probable space group: C 2/C
;
_chemical_formula_sum "Si O2"
_cell_formula_units_Z 44
_cell_length_a 9.081869
_cell_length_b 10.105524
_cell_length_c 25.476716
_cell_angle_alpha 90.000000
_cell_angle_beta 121.069674
_cell_angle_gamma 90.000000
_cell_volume 2002.743581
_symmetry_space_group_name_H-M "C 2/C"
_symmetry_group_IT_number 15
_symmetry_cell_setting 'monoclinic'
loop_
_space_group_symop_operation_xyz
x,y,z
-x,y,1/2-z
-x,-y,-z
x,-y,1/2+z
1/2+x,1/2+y,z
1/2-x,1/2+y,1/2-z
1/2-x,1/2-y,-z
1/2+x,1/2-y,1/2+z
loop_
_atom_site_type_symbol
_atom_site_label
_atom_site_fract_x
_atom_site_fract_y
_atom_site_fract_z
Si Si1 0.367446 0.076294 0.839335
Si Si2 0.882394 0.662098 0.953811
Si Si3 0.744048 0.933580 0.503368
Si Si4 0.529917 0.621504 0.143049
Si Si5 0.214421 0.440754 0.892336
Si Si6 0.500000 0.502989 0.750000
O O1 0.337769 0.067864 0.896355
O O2 0.447377 0.221413 0.848048
O O3 0.182148 0.076409 0.778582
O O4 0.509966 0.967216 0.850800
O O5 0.831746 0.579137 0.995189
O O6 0.780542 0.797470 0.925404
O O7 0.089670 0.668827 0.987861
O O8 0.779558 0.951921 0.447837
O O9 0.895812 0.910227 0.571943
O O10 0.701072 0.553860 0.149817
O O11 0.485098 0.575177 0.192804
#
# Coordination Sequence:
#
# PCOD9267079 Si02
#       6
#     8   8   8   8   8   4
#     4  10  24  45  65  94 126 166 220 265 317 379
#     4   9  19  38  67  98 134 169 202 258 321 389
#     4  10  19  38  65 101 133 166 207 253 327 383
#     4  11  25  42  66  95 127 171 213 266 313 380
#     4  10  22  39  65 102 129 162 210 266 320 382
#     4  12  26  48  66  84 128 180 214 268 320 368
#
# _framework density 21.969861999999999
#
# number of rings (size 3 to 8) (size 9 to 14) (size 15 to 20)
#    0.000    1.818    1.818    1.091    0.000   13.091 
#    3.273    0.000    0.000    0.000    0.000    0.000 
#    0.000    0.000    0.000    0.000    0.000    0.000 
#
# Total GULP energy -122659.598116 kJ/mol
# GULP energy per Si atom -5575.436278 kJ/mol
# Density = 2.191986 g / cm^3
# Si number density = 21.969862 Si / 1000 Ang^3
#
#
#
# Elastic Constant Matrix: (Units=GPa)
#
#
# Indices 1 2 3 4 5 6 
#
# 1 110.2015 51.3378 39.4311 0.0000 9.4434 0.0000
# 2 51.3378 70.1178 15.6407 0.0000 8.1692 0.0000
# 3 39.4311 15.6407 80.1909 0.0000 12.5517 0.0000
# 4 0.0000 0.0000 0.0000 13.2598 0.0000 -8.5402
# 5 9.4434 8.1692 12.5517 0.0000 59.4959 0.0000
# 6 0.0000 0.0000 0.0000 -8.5402 0.0000 24.6371
#
#
#
# Elastic Compliance Matrix: (Units=1/GPa)
#
#
# Indices 1 2 3 4 5 6 
#
# 1 0.016025 -0.010440 -0.005863 0.000000 0.000127 0.000000
# 2 -0.010440 0.021839 0.001121 0.000000 -0.001578 0.000000
# 3 -0.005863 0.001121 0.015526 0.000000 -0.002499 0.000000
# 4 0.000000 0.000000 0.000000 0.097093 0.000000 0.033656
# 5 0.000127 -0.001578 -0.002499 0.000000 0.017532 0.000000
# 6 0.000000 0.000000 0.000000 0.033656 0.000000 0.052256
#
#
# Mechanical properties :
#
#
# Convention : Reuss Voigt Hill
#
# Bulk Modulus (GPa) = 43.43044 52.59217 48.01131
# Shear Modulus (GPa) = 19.35665 29.75190 24.55427
#
# Velocity S-wave (km/s) = 2.97148 3.68396 3.34673
# Velocity P-wave (km/s) = 5.61996 6.48735 6.06917
#
# Compressibility (1/GPa) = 0.02302532
#
# Stress axis : x y z
#
# Youngs Moduli (GPa) = 62.40368 45.78937 64.40887
#
# Poissons Ratio (x) = 0.47802 0.37765
# Poissons Ratio (y) = 0.65147 -0.07219
# Poissons Ratio (z) = 0.36589 -0.05132
#
# Static dielectric constant tensor:
#      x y z
#    x 1.920150 0.000000 0.016570 
#    y 0.000000 1.827030 0.000000 
#    z 0.016570 0.000000 1.824980 
# 
# From -- ./inp_files/263611.got.cif
#   From: 2010.05.17/outbox.cif.g08.bks.cpg/sg15_132_cif.got.tgz:263611.got - 2010.06.03 18:47:42.
