data_PCOD9267784
_publ_section_title
;
Structure prediction by ZEFSAII (Michael W. Deem and Ramdas Pophale) SiO2 
 PCOD9267784
Probable space group: C 2/C
;
_chemical_formula_sum "Si O2"
_cell_formula_units_Z 60
_cell_length_a 12.308279
_cell_length_b 29.636372
_cell_length_c 12.944660
_cell_angle_alpha 90.000000
_cell_angle_beta 34.675485
_cell_angle_gamma 90.000000
_cell_volume 2686.396412
_symmetry_space_group_name_H-M "C 2/C"
_symmetry_group_IT_number 15
_symmetry_cell_setting 'monoclinic'
loop_
_space_group_symop_operation_xyz
x,y,z
-x,y,1/2-z
-x,-y,-z
x,-y,1/2+z
1/2+x,1/2+y,z
1/2-x,1/2+y,1/2-z
1/2-x,1/2-y,-z
1/2+x,1/2-y,1/2+z
loop_
_atom_site_type_symbol
_atom_site_label
_atom_site_fract_x
_atom_site_fract_y
_atom_site_fract_z
Si Si1 0.444633 0.613081 0.893809
Si Si2 0.355961 0.065693 0.220750
Si Si3 0.778184 0.176783 0.456372
Si Si4 0.333259 0.215719 0.155290
Si Si5 0.098380 0.346174 0.566782
Si Si6 0.581537 0.313865 0.431403
Si Si7 0.500000 0.012634 0.750000
Si Si8 0.272795 0.575193 0.411251
O O1 0.500000 0.583369 0.750000
O O2 0.312815 0.585101 0.074754
O O3 0.314502 0.649389 0.933438
O O4 0.584860 0.641855 0.857212
O O5 0.521399 0.103698 0.099714
O O6 0.283999 0.061841 0.160520
O O7 0.428790 0.019754 0.213823
O O8 0.676809 0.212847 0.461791
O O9 0.710311 0.127104 0.476889
O O10 0.000000 0.179677 0.250000
O O11 0.781555 0.180831 0.576457
O O12 0.514664 0.186797 0.047861
O O13 0.139282 0.193570 0.354880
O O14 0.360642 0.267122 0.166862
O O15 0.000000 0.331217 0.750000
O O16 0.667448 0.043706 0.575183
O O17 0.500000 0.573504 0.250000
#
# Coordination Sequence:
#
# PCOD9267784 Si02
#       8
#     8   8   8   8   8   8   4   8
#     4  11  23  40  66  99 125 175 234 275 331 402
#     4  11  21  49  71  91 138 180 213 268 352 408
#     4   9  19  42  65  85 130 181 214 264 337 401
#     4  11  21  38  62  90 128 174 219 269 332 391
#     4  10  19  40  65  83 123 179 211 263 338 391
#     4  11  23  38  60  95 129 170 226 274 324 390
#     4  12  26  44  72 112 132 172 228 278 342 418
#     4  11  24  46  73 102 139 177 223 280 341 406
#
# _framework density 22.334752999999999
#
# number of rings (size 3 to 8) (size 9 to 14) (size 15 to 20)
#    0.000    1.333    6.000    2.400    1.867    2.133 
#    7.200    0.000    0.000    0.000    0.000    0.000 
#    0.000    0.000    0.000    0.000    0.000    0.000 
#
# Total GULP energy -167629.930566 kJ/mol
# GULP energy per Si atom -5587.664352 kJ/mol
# Density = 2.228392 g / cm^3
# Si number density = 22.334753 Si / 1000 Ang^3
#
#
#
# Elastic Constant Matrix: (Units=GPa)
#
#
# Indices 1 2 3 4 5 6 
#
# 1 99.3014 7.6628 12.6531 0.0000 12.1087 0.0000
# 2 7.6628 64.9104 13.7625 0.0000 -9.4478 0.0000
# 3 12.6531 13.7625 64.3018 0.0000 4.3405 0.0000
# 4 0.0000 0.0000 0.0000 16.8003 0.0000 16.6249
# 5 12.1087 -9.4478 4.3405 0.0000 20.1838 0.0000
# 6 0.0000 0.0000 0.0000 16.6249 0.0000 11.5231
#
#
#
# Elastic Compliance Matrix: (Units=1/GPa)
#
#
# Indices 1 2 3 4 5 6 
#
# 1 0.011316 -0.002166 -0.001255 0.000000 -0.007533 0.000000
# 2 -0.002166 0.018098 -0.004167 0.000000 0.010667 0.000000
# 3 -0.001255 -0.004167 0.017018 0.000000 -0.004858 0.000000
# 4 0.000000 0.000000 0.000000 -0.139173 0.000000 0.200791
# 5 -0.007533 0.010667 -0.004858 0.000000 0.060102 0.000000
# 6 0.000000 0.000000 0.000000 0.200791 0.000000 -0.202910
#
#
# Mechanical properties :
#
#
# Convention : Reuss Voigt Hill
#
# Bulk Modulus (GPa) = 31.99402 32.96337 32.47870
# Shear Modulus (GPa) = -23.81476 22.66379 -0.57549
#
# Velocity S-wave (km/s) = -3.26891 3.18894 -0.50816
# Velocity P-wave (km/s) = 0.32885 5.32447 3.77214
#
# Compressibility (1/GPa) = 0.03125584
#
# Stress axis : x y z
#
# Youngs Moduli (GPa) = 88.37096 55.25547 58.76009
#
# Poissons Ratio (x) = 0.11970 0.07372
# Poissons Ratio (y) = 0.19144 0.24487
# Poissons Ratio (z) = 0.11087 0.23026
#
# Static dielectric constant tensor:
#      x y z
#    x 1.827570 0.000000 0.011480 
#    y 0.000000 1.779550 0.000000 
#    z 0.011480 0.000000 2.050440 
# 
# From -- ./inp_files/92592.got.cif
#   From: 2010.05.17/outbox.cif.g08.bks.cpg/sg15_47_cif.got.tgz:92592.got - 2010.06.03 18:47:42.
