data_PCOD9267724
_publ_section_title
;
Structure prediction by ZEFSAII (Michael W. Deem and Ramdas Pophale) SiO2 
 PCOD9267724
Probable space group: C 2/C
;
_chemical_formula_sum "Si O2"
_cell_formula_units_Z 56
_cell_length_a 17.711435
_cell_length_b 11.192193
_cell_length_c 15.156835
_cell_angle_alpha 90.000000
_cell_angle_beta 45.320129
_cell_angle_gamma 90.000000
_cell_volume 2136.365192
_symmetry_space_group_name_H-M "C 2/C"
_symmetry_group_IT_number 15
_symmetry_cell_setting 'monoclinic'
loop_
_space_group_symop_operation_xyz
x,y,z
-x,y,1/2-z
-x,-y,-z
x,-y,1/2+z
1/2+x,1/2+y,z
1/2-x,1/2+y,1/2-z
1/2-x,1/2-y,-z
1/2+x,1/2-y,1/2+z
loop_
_atom_site_type_symbol
_atom_site_label
_atom_site_fract_x
_atom_site_fract_y
_atom_site_fract_z
Si Si1 0.252700 0.093862 0.067880
Si Si2 0.374050 0.269215 0.399635
Si Si3 0.947569 0.686350 0.160360
Si Si4 0.253327 0.447074 0.727891
Si Si5 0.399569 0.521952 0.459389
Si Si6 0.055207 0.780569 0.903452
Si Si7 0.886545 0.681715 0.809256
O O1 0.261164 0.029218 0.155400
O O2 0.215172 0.230002 0.117244
O O3 0.349491 0.095277 0.918618
O O4 0.154453 0.055137 0.088251
O O5 0.250000 0.250000 0.500000
O O6 0.404073 0.274732 0.272264
O O7 0.437240 0.158677 0.392060
O O8 0.411057 0.381405 0.428434
O O9 0.858455 0.587076 0.223069
O O10 0.972414 0.738798 0.044486
O O11 0.317625 0.533943 0.609258
O O12 0.330728 0.330401 0.660595
O O13 0.499578 0.397139 0.598580
O O14 0.080388 0.668567 0.819733
O O15 0.000000 0.732173 0.750000
#
# Coordination Sequence:
#
# PCOD9267724 Si02
#       7
#     8   8   8   8   8   8   8
#     4  10  24  39  65 100 136 188 227 293 361 424
#     4  11  24  45  68  99 137 191 236 300 355 436
#     4  11  23  41  70  98 134 187 241 282 375 419
#     4  11  24  42  65 102 142 181 236 299 354 433
#     4  12  24  43  65 107 143 182 240 306 356 417
#     4  11  23  38  66 103 137 178 237 304 351 426
#     4  10  19  40  62  91 136 174 226 282 359 415
#
# _framework density 26.212745999999999
#
# number of rings (size 3 to 8) (size 9 to 14) (size 15 to 20)
#    0.000    1.143    4.286    1.286    6.000    3.429 
#    0.000    1.429    0.000    2.571    0.000    0.000 
#    0.000    0.000    0.000    0.000    0.000    0.000 
#
# Total GULP energy -156125.601490 kJ/mol
# GULP energy per Si atom -5575.914339 kJ/mol
# Density = 2.615308 g / cm^3
# Si number density = 26.212746 Si / 1000 Ang^3
#
#
#
# Elastic Constant Matrix: (Units=GPa)
#
#
# Indices 1 2 3 4 5 6 
#
# 1 119.5273 33.4663 55.0389 0.0000 -20.2004 0.0000
# 2 33.4663 77.4775 41.9720 0.0000 -3.1429 0.0000
# 3 55.0389 41.9720 190.9259 0.0000 29.0762 0.0000
# 4 0.0000 0.0000 0.0000 19.0128 0.0000 0.5379
# 5 -20.2004 -3.1429 29.0762 0.0000 61.0363 0.0000
# 6 0.0000 0.0000 0.0000 0.5379 0.0000 18.8382
#
#
#
# Elastic Compliance Matrix: (Units=1/GPa)
#
#
# Indices 1 2 3 4 5 6 
#
# 1 0.011748 -0.002918 -0.003574 0.000000 0.005440 0.000000
# 2 -0.002918 0.015730 -0.002796 0.000000 0.001176 0.000000
# 3 -0.003574 -0.002796 0.007639 0.000000 -0.004966 0.000000
# 4 0.000000 0.000000 0.000000 0.052639 0.000000 -0.001503
# 5 0.005440 0.001176 -0.004966 0.000000 0.020610 0.000000
# 6 0.000000 0.000000 0.000000 -0.001503 0.000000 0.053127
#
#
# Mechanical properties :
#
#
# Convention : Reuss Voigt Hill
#
# Bulk Modulus (GPa) = 60.45389 72.09836 66.27612
# Shear Modulus (GPa) = 26.94235 36.94102 31.94169
#
# Velocity S-wave (km/s) = 3.20946 3.75811 3.49457
# Velocity P-wave (km/s) = 6.07018 6.81146 6.45147
#
# Compressibility (1/GPa) = 0.01654153
#
# Stress axis : x y z
#
# Youngs Moduli (GPa) = 85.11818 63.57401 130.91198
#
# Poissons Ratio (x) = 0.18551 0.46785
# Poissons Ratio (y) = 0.24837 0.36601
# Poissons Ratio (z) = 0.30420 0.17774
#
# Static dielectric constant tensor:
#      x y z
#    x 2.109320 0.000000 0.031250 
#    y 0.000000 2.326440 0.000000 
#    z 0.031250 0.000000 2.113110 
# 
# From -- ./inp_files/162195.got.cif
#   From: 2010.05.17/outbox.cif.g08.bks.cpg/sg15_82_cif.got.tgz:162195.got - 2010.06.03 18:47:42.
