data_PCOD9267141
_publ_section_title
;
Structure prediction by ZEFSAII (Michael W. Deem and Ramdas Pophale) SiO2 
 PCOD9267141
Probable space group: C 2/C
;
_chemical_formula_sum "Si O2"
_cell_formula_units_Z 52
_cell_length_a 28.716809
_cell_length_b 13.550055
_cell_length_c 8.826596
_cell_angle_alpha 90.000000
_cell_angle_beta 135.301997
_cell_angle_gamma 90.000000
_cell_volume 2415.762766
_symmetry_space_group_name_H-M "C 2/C"
_symmetry_group_IT_number 15
_symmetry_cell_setting 'monoclinic'
loop_
_space_group_symop_operation_xyz
x,y,z
-x,y,1/2-z
-x,-y,-z
x,-y,1/2+z
1/2+x,1/2+y,z
1/2-x,1/2+y,1/2-z
1/2-x,1/2-y,-z
1/2+x,1/2-y,1/2+z
loop_
_atom_site_type_symbol
_atom_site_label
_atom_site_fract_x
_atom_site_fract_y
_atom_site_fract_z
Si Si1 0.000000 0.535766 0.750000
Si Si2 0.212592 0.553392 0.559578
Si Si3 0.000000 0.213745 0.750000
Si Si4 0.103985 0.055423 0.035110
Si Si5 0.128504 0.410801 0.140576
Si Si6 0.806127 0.044145 0.527383
Si Si7 0.465947 0.792001 0.399456
Si Si8 0.000000 0.880310 0.750000
O O1 0.019662 0.610144 0.661744
O O2 0.936422 0.472592 0.556784
O O3 0.170538 0.479258 0.354969
O O4 0.167169 0.612980 0.573331
O O5 0.263789 0.602843 0.557084
O O6 0.256483 0.493910 0.783549
O O7 0.020758 0.280434 0.658160
O O8 0.947385 0.141196 0.554767
O O9 0.060719 0.953951 0.931550
O O10 0.134601 0.082127 0.941554
O O11 0.159279 0.041082 0.291018
O O12 0.102754 0.316383 0.173709
O O13 0.472348 0.696088 0.310156
#
# Coordination Sequence:
#
# PCOD9267141 Si02
#       8
#     4   8   4   8   8   8   8   4
#     4  11  23  37  57  86 118 164 191 237 307 355
#     4   9  20  34  60  90 109 156 218 234 282 345
#     4  11  23  35  59 100 118 154 191 249 311 365
#     4  10  19  38  66  87 122 150 201 247 308 357
#     4  11  20  38  58  86 121 158 196 246 285 363
#     4   9  18  35  62  89 107 155 214 244 277 355
#     4  11  23  35  54  91 127 149 191 234 306 356
#     4  10  22  38  58  96 122 158 186 250 312 364
#
# _framework density 21.525292
#
# number of rings (size 3 to 8) (size 9 to 14) (size 15 to 20)
#    0.000    1.846    1.538    2.769    2.154    2.462 
#    0.000    0.000    0.000   35.077    0.000    0.000 
#    0.000    0.000    0.000    0.000    0.000    0.000 
#
# Total GULP energy -144766.657205 kJ/mol
# GULP energy per Si atom -5567.948354 kJ/mol
# Density = 2.147630 g / cm^3
# Si number density = 21.525292 Si / 1000 Ang^3
#
#
#
# Elastic Constant Matrix: (Units=GPa)
#
#
# Indices 1 2 3 4 5 6 
#
# 1 164.0430 36.5035 28.4581 0.0000 -21.2882 0.0000
# 2 36.5035 73.6118 30.4063 0.0000 -4.7519 0.0000
# 3 28.4581 30.4063 126.1142 0.0000 -11.9070 0.0000
# 4 0.0000 0.0000 0.0000 1.7864 0.0000 -5.4824
# 5 -21.2882 -4.7519 -11.9070 0.0000 36.4836 0.0000
# 6 0.0000 0.0000 0.0000 -5.4824 0.0000 -15.6070
#
#
#
# Elastic Compliance Matrix: (Units=1/GPa)
#
#
# Indices 1 2 3 4 5 6 
#
# 1 0.007384 -0.003197 -0.000545 0.000000 0.003714 0.000000
# 2 -0.003197 0.016494 -0.003331 0.000000 -0.000804 0.000000
# 3 -0.000545 -0.003331 0.009064 0.000000 0.002206 0.000000
# 4 0.000000 0.000000 0.000000 0.269383 0.000000 -0.094628
# 5 0.003714 -0.000804 0.002206 0.000000 0.030192 0.000000
# 6 0.000000 0.000000 0.000000 -0.094628 0.000000 -0.030833
#
#
# Mechanical properties :
#
#
# Convention : Reuss Voigt Hill
#
# Bulk Modulus (GPa) = 53.20279 61.61162 57.40721
# Shear Modulus (GPa) = 15.52338 22.42600 18.97469
#
# Velocity S-wave (km/s) = 2.68837 3.23126 2.97224
# Velocity P-wave (km/s) = 5.86571 6.52736 6.20536
#
# Compressibility (1/GPa) = 0.01879601
#
# Stress axis : x y z
#
# Youngs Moduli (GPa) = 135.43087 60.62745 110.32967
#
# Poissons Ratio (x) = 0.19381 0.06010
# Poissons Ratio (y) = 0.43295 0.36754
# Poissons Ratio (z) = 0.07378 0.20197
#
# Static dielectric constant tensor:
#      x y z
#    x 1.916030 0.000000 0.007300 
#    y 0.000000 1.748740 0.000000 
#    z 0.007300 0.000000 1.844470 
# 
# From -- ./inp_files/55326.got.cif
#   From: 2010.05.17/outbox.cif.g08.bks.cpg/sg15_28_cif.got.tgz:55326.got - 2010.06.03 18:47:42.
