data_PCOD9267932
_publ_section_title
;
Structure prediction by ZEFSAII (Michael W. Deem and Ramdas Pophale) SiO2 
 PCOD9267932
Probable space group: C 2/C
;
_chemical_formula_sum "Si O2"
_cell_formula_units_Z 48
_cell_length_a 9.168898
_cell_length_b 10.290991
_cell_length_c 19.295830
_cell_angle_alpha 90.000000
_cell_angle_beta 89.339099
_cell_angle_gamma 90.000000
_cell_volume 1820.576410
_symmetry_space_group_name_H-M "C 2/C"
_symmetry_group_IT_number 15
_symmetry_cell_setting 'monoclinic'
loop_
_space_group_symop_operation_xyz
x,y,z
-x,y,1/2-z
-x,-y,-z
x,-y,1/2+z
1/2+x,1/2+y,z
1/2-x,1/2+y,1/2-z
1/2-x,1/2-y,-z
1/2+x,1/2-y,1/2+z
loop_
_atom_site_type_symbol
_atom_site_label
_atom_site_fract_x
_atom_site_fract_y
_atom_site_fract_z
Si Si1 0.351817 0.777412 0.125362
Si Si2 0.121001 0.463348 0.803519
Si Si3 0.573252 0.963712 0.089164
Si Si4 0.692887 0.394845 0.508479
Si Si5 0.329319 0.503909 0.190588
Si Si6 0.061567 0.910148 0.102553
O O1 0.367990 0.631445 0.146510
O O2 0.188107 0.803403 0.100778
O O3 0.370381 0.878942 0.188970
O O4 0.479590 0.833124 0.076570
O O5 0.275367 0.441390 0.764990
O O6 0.000000 0.416029 0.750000
O O7 0.045991 0.434639 0.878924
O O8 0.687875 0.943609 0.152285
O O9 0.678635 0.986773 0.024397
O O10 0.750000 0.250000 0.500000
O O11 0.555512 0.397933 0.457539
O O12 0.648224 0.456958 0.581868
O O13 0.467388 0.413045 0.173703
#
# Coordination Sequence:
#
# PCOD9267932 Si02
#       6
#     8   8   8   8   8   8
#     4  10  21  39  61  89 117 159 199 244 304 347
#     4   8  18  40  57  84 119 153 197 242 293 361
#     4   8  19  38  58  85 120 155 199 240 290 365
#     4  10  20  40  63  86 126 163 194 252 310 349
#     4  10  19  41  59  82 129 152 188 255 297 346
#     4  10  23  38  59  96 117 149 216 244 283 376
#
# _framework density 26.365276999999999
#
# number of rings (size 3 to 8) (size 9 to 14) (size 15 to 20)
#    1.000    1.667    0.000    1.000    0.000    2.667 
#   12.000   11.667    0.000    0.000    0.000    0.000 
#    0.000    0.000    0.000    0.000    0.000    0.000 
#
# Total GULP energy -133766.100051 kJ/mol
# GULP energy per Si atom -5573.587502 kJ/mol
# Density = 2.630527 g / cm^3
# Si number density = 26.365277 Si / 1000 Ang^3
#
#
#
# Elastic Constant Matrix: (Units=GPa)
#
#
# Indices 1 2 3 4 5 6 
#
# 1 161.0968 8.4388 48.9036 0.0000 -32.4420 0.0000
# 2 8.4388 54.8747 -4.3390 0.0000 3.2671 0.0000
# 3 48.9036 -4.3390 135.9157 0.0000 -32.1983 0.0000
# 4 0.0000 0.0000 0.0000 16.5682 0.0000 -4.3031
# 5 -32.4420 3.2671 -32.1983 0.0000 48.3510 0.0000
# 6 0.0000 0.0000 0.0000 -4.3031 0.0000 28.2642
#
#
#
# Elastic Compliance Matrix: (Units=1/GPa)
#
#
# Indices 1 2 3 4 5 6 
#
# 1 0.007660 -0.001564 -0.001856 0.000000 0.004009 0.000000
# 2 -0.001564 0.018630 0.000725 0.000000 -0.001825 0.000000
# 3 -0.001856 0.000725 0.009192 0.000000 0.004827 0.000000
# 4 0.000000 0.000000 0.000000 0.062842 0.000000 0.009567
# 5 0.004009 -0.001825 0.004827 0.000000 0.026710 0.000000
# 6 0.000000 0.000000 0.000000 0.009567 0.000000 0.036837
#
#
# Mechanical properties :
#
#
# Convention : Reuss Voigt Hill
#
# Bulk Modulus (GPa) = 33.23124 50.87712 42.05418
# Shear Modulus (GPa) = 28.20221 38.56227 33.38224
#
# Velocity S-wave (km/s) = 3.27413 3.82856 3.56215
# Velocity P-wave (km/s) = 5.18891 6.23561 5.73618
#
# Compressibility (1/GPa) = 0.03009217
#
# Stress axis : x y z
#
# Youngs Moduli (GPa) = 130.54376 53.67757 108.79013
#
# Poissons Ratio (x) = 0.08392 0.20195
# Poissons Ratio (y) = 0.20411 -0.07886
# Poissons Ratio (z) = 0.24234 -0.03891
#
# Static dielectric constant tensor:
#      x y z
#    x 2.165390 0.000000 -0.031230 
#    y 0.000000 2.020190 0.000000 
#    z -0.031230 0.000000 2.213040 
# 
# From -- ./inp_files/263092.got.cif
#   From: 2010.05.17/outbox.cif.g08.bks.cpg/sg15_132_cif.got.tgz:263092.got - 2010.06.03 18:47:42.
