data_PCOD9267865
_publ_section_title
;
Structure prediction by ZEFSAII (Michael W. Deem and Ramdas Pophale) SiO2 
 PCOD9267865
Probable space group: C 2/C
;
_chemical_formula_sum "Si O2"
_cell_formula_units_Z 56
_cell_length_a 8.947690
_cell_length_b 21.346372
_cell_length_c 17.227303
_cell_angle_alpha 90.000000
_cell_angle_beta 120.050615
_cell_angle_gamma 90.000000
_cell_volume 2848.139109
_symmetry_space_group_name_H-M "C 2/C"
_symmetry_group_IT_number 15
_symmetry_cell_setting 'monoclinic'
loop_
_space_group_symop_operation_xyz
x,y,z
-x,y,1/2-z
-x,-y,-z
x,-y,1/2+z
1/2+x,1/2+y,z
1/2-x,1/2+y,1/2-z
1/2-x,1/2-y,-z
1/2+x,1/2-y,1/2+z
loop_
_atom_site_type_symbol
_atom_site_label
_atom_site_fract_x
_atom_site_fract_y
_atom_site_fract_z
Si Si1 0.685804 0.756143 0.777447
Si Si2 0.483998 0.910615 0.517838
Si Si3 0.636022 0.620623 0.842023
Si Si4 0.032753 0.921790 0.056214
Si Si5 0.477727 0.316415 0.565294
Si Si6 0.784012 0.512780 0.535937
Si Si7 0.831670 0.715778 0.405171
O O1 0.500000 0.784420 0.750000
O O2 0.680633 0.686014 0.811806
O O3 0.704753 0.758829 0.689888
O O4 0.839352 0.792763 0.857788
O O5 0.319159 0.907354 0.416449
O O6 0.639814 0.940858 0.509261
O O7 0.533849 0.842007 0.559656
O O8 0.423873 0.956834 0.571253
O O9 0.500000 0.585400 0.750000
O O10 0.521112 0.625927 0.890067
O O11 0.226106 0.949335 0.097773
O O12 0.007123 0.884354 0.969463
O O13 0.895279 0.977765 0.032119
O O14 0.341522 0.310542 0.599655
O O15 0.405933 0.269734 0.480135
#
# Coordination Sequence:
#
# PCOD9267865 Si02
#       7
#     8   8   8   8   8   8   8
#     4  11  24  37  58  96 129 158 206 251 314 385
#     4  10  19  40  68  88 124 161 209 256 309 373
#     4  10  21  38  60  92 124 162 203 255 313 376
#     4  10  20  38  67  87 124 161 210 255 311 374
#     4  11  22  39  63  92 125 166 204 256 327 371
#     4   9  20  37  66  92 113 164 216 250 302 375
#     4  11  23  39  64  95 125 165 204 259 325 372
#
# _framework density 19.661961000000002
#
# number of rings (size 3 to 8) (size 9 to 14) (size 15 to 20)
#    0.000    1.714    2.857    2.143    4.000    1.143 
#    0.000    0.714   31.429    0.000    0.000    0.000 
#    0.000    0.000    0.000    0.000    0.000    0.000 
#
# Total GULP energy -155949.541178 kJ/mol
# GULP energy per Si atom -5569.626471 kJ/mol
# Density = 1.961721 g / cm^3
# Si number density = 19.661961 Si / 1000 Ang^3
#
#
#
# Elastic Constant Matrix: (Units=GPa)
#
#
# Indices 1 2 3 4 5 6 
#
# 1 139.8839 40.1631 56.2302 0.0000 -14.8070 0.0000
# 2 40.1631 86.3324 25.1388 0.0000 -8.9273 0.0000
# 3 56.2302 25.1388 84.7490 0.0000 -9.7620 0.0000
# 4 0.0000 0.0000 0.0000 7.3773 0.0000 -3.7316
# 5 -14.8070 -8.9273 -9.7620 0.0000 38.3964 0.0000
# 6 0.0000 0.0000 0.0000 -3.7316 0.0000 32.4880
#
#
#
# Elastic Compliance Matrix: (Units=1/GPa)
#
#
# Indices 1 2 3 4 5 6 
#
# 1 0.010591 -0.003009 -0.005918 0.000000 0.001880 0.000000
# 2 -0.003009 0.013692 -0.001887 0.000000 0.001543 0.000000
# 3 -0.005918 -0.001887 0.016454 0.000000 0.001463 0.000000
# 4 0.000000 0.000000 0.000000 0.143912 0.000000 0.016530
# 5 0.001880 0.001543 0.001463 0.000000 0.027500 0.000000
# 6 0.000000 0.000000 0.000000 0.016530 0.000000 0.032679
#
#
# Mechanical properties :
#
#
# Convention : Reuss Voigt Hill
#
# Bulk Modulus (GPa) = 52.33168 61.55883 56.94526
# Shear Modulus (GPa) = 18.32675 28.28123 23.30399
#
# Velocity S-wave (km/s) = 3.05633 3.79670 3.44646
# Velocity P-wave (km/s) = 6.25527 7.11312 6.69794
#
# Compressibility (1/GPa) = 0.01910888
#
# Stress axis : x y z
#
# Youngs Moduli (GPa) = 94.42401 73.03433 60.77555
#
# Poissons Ratio (x) = 0.21979 0.35964
# Poissons Ratio (y) = 0.28416 0.11468
# Poissons Ratio (z) = 0.55876 0.13782
#
# Static dielectric constant tensor:
#      x y z
#    x 1.715060 0.000000 -0.019850 
#    y 0.000000 1.743230 0.000000 
#    z -0.019850 0.000000 1.697670 
# 
# From -- ./inp_files/137457.got.cif
#   From: 2010.05.17/outbox.cif.g08.bks.cpg/sg15_69_cif.got.tgz:137457.got - 2010.06.03 18:47:42.
