data_PCOD9267299
_publ_section_title
;
Structure prediction by ZEFSAII (Michael W. Deem and Ramdas Pophale) SiO2 
 PCOD9267299
Probable space group: C 2/C
;
_chemical_formula_sum "Si O2"
_cell_formula_units_Z 52
_cell_length_a 9.617116
_cell_length_b 13.788056
_cell_length_c 20.884285
_cell_angle_alpha 90.000000
_cell_angle_beta 52.955117
_cell_angle_gamma 90.000000
_cell_volume 2210.342362
_symmetry_space_group_name_H-M "C 2/C"
_symmetry_group_IT_number 15
_symmetry_cell_setting 'monoclinic'
loop_
_space_group_symop_operation_xyz
x,y,z
-x,y,1/2-z
-x,-y,-z
x,-y,1/2+z
1/2+x,1/2+y,z
1/2-x,1/2+y,1/2-z
1/2-x,1/2-y,-z
1/2+x,1/2-y,1/2+z
loop_
_atom_site_type_symbol
_atom_site_label
_atom_site_fract_x
_atom_site_fract_y
_atom_site_fract_z
Si Si1 0.540688 0.300283 0.458727
Si Si2 0.451023 0.180267 0.833568
Si Si3 0.526981 0.887851 0.882894
Si Si4 0.000000 0.326388 0.750000
Si Si5 0.315079 0.812584 0.120863
Si Si6 0.593922 0.405163 0.663379
Si Si7 0.806746 0.049364 0.960064
O O1 0.744998 0.324435 0.404454
O O2 0.491901 0.224117 0.414942
O O3 0.464081 0.247982 0.542159
O O4 0.432592 0.394906 0.472788
O O5 0.500000 0.142216 0.750000
O O6 0.582896 0.138222 0.848931
O O7 0.482980 0.297360 0.822615
O O8 0.535494 0.887972 0.804208
O O9 0.706941 0.903440 0.869155
O O10 0.377351 0.956134 0.952939
O O11 0.834626 0.257913 0.811104
O O12 0.234046 0.886614 0.092217
O O13 0.500000 0.454591 0.750000
O O14 0.598145 0.455894 0.593939
#
# Coordination Sequence:
#
# PCOD9267299 Si02
#       7
#     8   8   8   4   8   8   8
#     4  10  19  39  58  91 118 149 201 248 293 353
#     4  10  22  39  59  83 122 162 198 233 296 367
#     4  10  20  37  58  88 116 159 199 244 287 370
#     4  12  18  32  64  88 118 152 216 242 290 350
#     4  11  21  34  63  90 113 155 199 252 292 346
#     4  10  22  37  58  83 122 158 197 238 302 355
#     4  11  21  38  63  92 116 148 204 254 295 341
#
# _framework density 23.525766000000001
#
# number of rings (size 3 to 8) (size 9 to 14) (size 15 to 20)
#    0.000    1.538    3.077    4.615    1.077    0.000 
#    0.000    0.769    8.462    0.000    0.000    0.000 
#    0.000    0.000    0.000    0.000    0.000    0.000 
#
# Total GULP energy -145508.783785 kJ/mol
# GULP energy per Si atom -5596.491684 kJ/mol
# Density = 2.347222 g / cm^3
# Si number density = 23.525766 Si / 1000 Ang^3
#
#
#
# Elastic Constant Matrix: (Units=GPa)
#
#
# Indices 1 2 3 4 5 6 
#
# 1 61.2244 -9.7868 0.5318 0.0000 13.4592 0.0000
# 2 -9.7868 24.0193 -4.0581 0.0000 2.3655 0.0000
# 3 0.5318 -4.0581 101.7780 0.0000 0.9859 0.0000
# 4 0.0000 0.0000 0.0000 12.2676 0.0000 -5.3051
# 5 13.4592 2.3655 0.9859 0.0000 45.6412 0.0000
# 6 0.0000 0.0000 0.0000 -5.3051 0.0000 4.7077
#
#
#
# Elastic Compliance Matrix: (Units=1/GPa)
#
#
# Indices 1 2 3 4 5 6 
#
# 1 0.019000 0.008386 0.000294 0.000000 -0.006044 0.000000
# 2 0.008386 0.045841 0.001831 0.000000 -0.004888 0.000000
# 3 0.000294 0.001831 0.009901 0.000000 -0.000395 0.000000
# 4 0.000000 0.000000 0.000000 0.159000 0.000000 0.179175
# 5 -0.006044 -0.004888 -0.000395 0.000000 0.023954 0.000000
# 6 0.000000 0.000000 0.000000 0.179175 0.000000 0.414326
#
#
# Mechanical properties :
#
#
# Convention : Reuss Voigt Hill
#
# Bulk Modulus (GPa) = 10.44226 17.82173 14.13199
# Shear Modulus (GPa) = 7.32149 25.87896 16.60022
#
# Velocity S-wave (km/s) = 1.76603 3.32026 2.65923
# Velocity P-wave (km/s) = 2.93373 4.72130 3.93049
#
# Compressibility (1/GPa) = 0.09576472
#
# Stress axis : x y z
#
# Youngs Moduli (GPa) = 52.63137 21.81448 101.00376
#
# Poissons Ratio (x) = -0.18295 -0.02966
# Poissons Ratio (y) = -0.44139 -0.18497
# Poissons Ratio (z) = -0.01546 -0.03995
#
# Static dielectric constant tensor:
#      x y z
#    x 1.865630 0.000000 -0.042160 
#    y 0.000000 1.976880 0.000000 
#    z -0.042160 0.000000 2.025530 
# 
# From -- ./inp_files/182893.got.cif
#   From: 2010.05.17/outbox.cif.g08.bks.cpg/sg15_92_cif.got.tgz:182893.got - 2010.06.03 18:47:42.
