data_PCOD9267555
_publ_section_title
;
Structure prediction by ZEFSAII (Michael W. Deem and Ramdas Pophale) SiO2 
 PCOD9267555
Probable space group: C 2/C
;
_chemical_formula_sum "Si O2"
_cell_formula_units_Z 64
_cell_length_a 15.542708
_cell_length_b 14.512406
_cell_length_c 20.200186
_cell_angle_alpha 90.000000
_cell_angle_beta 32.651116
_cell_angle_gamma 90.000000
_cell_volume 2458.276683
_symmetry_space_group_name_H-M "C 2/C"
_symmetry_group_IT_number 15
_symmetry_cell_setting 'monoclinic'
loop_
_space_group_symop_operation_xyz
x,y,z
-x,y,1/2-z
-x,-y,-z
x,-y,1/2+z
1/2+x,1/2+y,z
1/2-x,1/2+y,1/2-z
1/2-x,1/2-y,-z
1/2+x,1/2-y,1/2+z
loop_
_atom_site_type_symbol
_atom_site_label
_atom_site_fract_x
_atom_site_fract_y
_atom_site_fract_z
Si Si1 0.784844 0.376342 0.319767
Si Si2 0.032933 0.226185 0.475758
Si Si3 0.431073 0.566049 0.718841
Si Si4 0.200549 0.939908 0.518363
Si Si5 0.616589 0.226713 0.236473
Si Si6 0.440083 0.302684 0.696933
Si Si7 0.487975 0.036745 0.176252
Si Si8 0.136852 0.422177 0.914402
O O1 0.619569 0.333247 0.403282
O O2 0.764296 0.396092 0.410296
O O3 0.930077 0.305338 0.217438
O O4 0.840314 0.472566 0.253474
O O5 0.201373 0.208389 0.402427
O O6 0.066904 0.192689 0.378299
O O7 0.992154 0.333979 0.502169
O O8 0.500000 0.561620 0.750000
O O9 0.576193 0.521392 0.583697
O O10 0.393400 0.671727 0.727774
O O11 0.280812 0.500400 0.810350
O O12 0.095172 0.859170 0.618834
O O13 0.352659 0.987441 0.455150
O O14 0.500000 0.229516 0.250000
O O15 0.551758 0.139922 0.321007
O O16 0.280652 0.345140 0.829621
O O17 0.500000 0.039297 0.250000
O O18 0.000000 0.500000 0.000000
#
# Coordination Sequence:
#
# PCOD9267555 Si02
#       8
#     8   8   8   8   8   8   8   8
#     4   9  19  38  62  87 117 161 200 249 308 360
#     4  10  20  39  61  92 124 155 201 258 305 360
#     4  10  21  38  61  95 123 160 206 250 308 363
#     4   9  19  38  61  85 125 158 200 249 305 364
#     4  10  21  39  61  86 123 162 205 247 300 367
#     4   9  20  37  60  93 121 152 206 253 310 363
#     4   9  19  37  58  86 119 165 209 244 296 362
#     4  10  19  39  66  85 122 165 199 254 302 364
#
# _framework density 26.034497999999999
#
# number of rings (size 3 to 8) (size 9 to 14) (size 15 to 20)
#    0.000    2.500    1.250    0.000    0.000    2.500 
#    4.500   26.875    0.000    0.000    0.000    0.000 
#    0.000    0.000    0.000    0.000    0.000    0.000 
#
# Total GULP energy -178192.032212 kJ/mol
# GULP energy per Si atom -5568.501007 kJ/mol
# Density = 2.597524 g / cm^3
# Si number density = 26.034498 Si / 1000 Ang^3
#
#
#
# Elastic Constant Matrix: (Units=GPa)
#
#
# Indices 1 2 3 4 5 6 
#
# 1 85.0312 17.2039 38.9280 -0.0007 -16.5122 0.0001
# 2 17.2039 138.6449 15.4290 0.0051 -28.9647 0.0004
# 3 38.9280 15.4290 113.4126 0.0052 -48.4959 0.0008
# 4 -0.0007 0.0051 0.0052 44.2957 -0.0001 -26.0708
# 5 -16.5122 -28.9647 -48.4959 -0.0001 33.2985 -0.0002
# 6 0.0001 0.0004 0.0008 -26.0708 -0.0002 2.3923
#
#
#
# Elastic Compliance Matrix: (Units=1/GPa)
#
#
# Indices 1 2 3 4 5 6 
#
# 1 0.014257 -0.001790 -0.006078 0.000000 -0.003340 -0.000003
# 2 -0.001790 0.010564 0.007229 0.000001 0.018830 0.000005
# 3 -0.006078 0.007229 0.030008 0.000002 0.046979 0.000010
# 4 0.000000 0.000001 0.000002 -0.004170 0.000003 -0.045442
# 5 -0.003340 0.018830 0.046979 0.000003 0.113174 0.000017
# 6 -0.000003 0.000005 0.000010 -0.045442 0.000017 -0.077208
#
#
# Mechanical properties :
#
#
# Convention : Reuss Voigt Hill
#
# Bulk Modulus (GPa) = 18.67385 53.35673 36.01529
# Shear Modulus (GPa) = 47.27927 33.69914 40.48920
#
# Velocity S-wave (km/s) = 4.26611 3.60168 3.94790
# Velocity P-wave (km/s) = 5.60843 6.15104 5.88599
#
# Compressibility (1/GPa) = 0.05355081
#
# Stress axis : x y z
#
# Youngs Moduli (GPa) = 70.14271 94.65965 33.32401
#
# Poissons Ratio (x) = 0.16948 0.20254
# Poissons Ratio (y) = 0.12558 -0.24090
# Poissons Ratio (z) = 0.42633 -0.68431
#
# Static dielectric constant tensor:
#      x y z
#    x 2.025920 0.000000 0.056650 
#    y 0.000000 2.043720 0.000000 
#    z 0.056650 0.000000 2.001820 
# 
# From -- ./inp_files/317992.got.cif
#   From: 2010.05.17/outbox.cif.g08.bks.cpg/sg15_159_cif.got.tgz:317992.got - 2010.06.03 18:47:42.
