data_PCOD9267461
_publ_section_title
;
Structure prediction by ZEFSAII (Michael W. Deem and Ramdas Pophale) SiO2 
 PCOD9267461
Probable space group: C 2/C
;
_chemical_formula_sum "Si O2"
_cell_formula_units_Z 44
_cell_length_a 9.618672
_cell_length_b 11.456148
_cell_length_c 19.481331
_cell_angle_alpha 90.000000
_cell_angle_beta 120.023553
_cell_angle_gamma 90.000000
_cell_volume 1858.659627
_symmetry_space_group_name_H-M "C 2/C"
_symmetry_group_IT_number 15
_symmetry_cell_setting 'monoclinic'
loop_
_space_group_symop_operation_xyz
x,y,z
-x,y,1/2-z
-x,-y,-z
x,-y,1/2+z
1/2+x,1/2+y,z
1/2-x,1/2+y,1/2-z
1/2-x,1/2-y,-z
1/2+x,1/2-y,1/2+z
loop_
_atom_site_type_symbol
_atom_site_label
_atom_site_fract_x
_atom_site_fract_y
_atom_site_fract_z
Si Si1 0.298914 0.444851 0.150716
Si Si2 0.000000 0.764418 0.250000
Si Si3 0.227326 0.803393 0.890962
Si Si4 0.190041 0.384337 0.907266
Si Si5 0.961755 0.824615 0.059180
Si Si6 0.938082 0.376958 0.073911
O O1 0.362305 0.363749 0.228545
O O2 0.308205 0.583561 0.163548
O O3 0.397699 0.403666 0.106740
O O4 0.114973 0.410484 0.095068
O O5 0.895158 0.677331 0.177636
O O6 0.350367 0.704812 0.893507
O O7 0.072486 0.737207 0.881219
O O8 0.323300 0.854647 0.980616
O O9 0.111494 0.305077 0.947848
O O10 0.133386 0.514550 0.902313
O O11 0.380522 0.372463 0.969258
#
# Coordination Sequence:
#
# PCOD9267461 Si02
#       6
#     8   4   8   8   8   8
#     4  11  22  46  63  95 129 174 209 270 310 389
#     4  10  24  40  64  88 130 176 220 248 330 380
#     4  11  22  39  66 106 123 163 210 273 323 377
#     4  10  19  39  63  95 123 176 207 265 316 386
#     4  10  20  38  73  92 126 166 217 258 326 370
#     4  11  22  39  68  97 135 157 212 273 323 373
#
# _framework density 23.672972000000001
#
# number of rings (size 3 to 8) (size 9 to 14) (size 15 to 20)
#    0.000    1.455    3.636    3.818    0.000    0.727 
#    9.818    2.727    0.000    0.000    0.000    0.000 
#    0.000    0.000    0.000    0.000    0.000    0.000 
#
# Total GULP energy -122623.171594 kJ/mol
# GULP energy per Si atom -5573.780527 kJ/mol
# Density = 2.361909 g / cm^3
# Si number density = 23.672972 Si / 1000 Ang^3
#
#
#
# Elastic Constant Matrix: (Units=GPa)
#
#
# Indices 1 2 3 4 5 6 
#
# 1 78.9936 66.7823 12.7043 0.0000 -0.6632 0.0000
# 2 66.7823 107.1882 43.3225 0.0000 4.6357 0.0000
# 3 12.7043 43.3225 87.5774 0.0000 8.1825 0.0000
# 4 0.0000 0.0000 0.0000 9.5714 0.0000 -4.8217
# 5 -0.6632 4.6357 8.1825 0.0000 8.1377 0.0000
# 6 0.0000 0.0000 0.0000 -4.8217 0.0000 30.3275
#
#
#
# Elastic Compliance Matrix: (Units=1/GPa)
#
#
# Indices 1 2 3 4 5 6 
#
# 1 0.029607 -0.020948 0.005218 0.000000 0.009100 0.000000
# 2 -0.020948 0.026489 -0.009376 0.000000 -0.007369 0.000000
# 3 0.005218 -0.009376 0.016292 0.000000 -0.010615 0.000000
# 4 0.000000 0.000000 0.000000 0.113575 0.000000 0.018057
# 5 0.009100 -0.007369 -0.010615 0.000000 0.138497 0.000000
# 6 0.000000 0.000000 0.000000 0.018057 0.000000 0.035844
#
#
# Mechanical properties :
#
#
# Convention : Reuss Voigt Hill
#
# Bulk Modulus (GPa) = 45.09914 57.70862 51.40388
# Shear Modulus (GPa) = 11.96433 19.67065 15.81749
#
# Velocity S-wave (km/s) = 2.25055 2.88572 2.58770
# Velocity P-wave (km/s) = 5.08385 5.96100 5.53981
#
# Compressibility (1/GPa) = 0.02217337
#
# Stress axis : x y z
#
# Youngs Moduli (GPa) = 33.77628 37.75094 61.38133
#
# Poissons Ratio (x) = 0.79082 -0.32027
# Poissons Ratio (y) = 0.70756 0.57553
# Poissons Ratio (z) = -0.17623 0.35397
#
# Static dielectric constant tensor:
#      x y z
#    x 2.019570 0.000000 -0.001610 
#    y 0.000000 1.894990 0.000000 
#    z -0.001610 0.000000 2.033310 
# 
# From -- ./inp_files/268273.got.cif
#   From: 2010.05.17/outbox.cif.g08.bks.cpg/sg15_135_cif.got.tgz:268273.got - 2010.06.03 18:47:42.
