data_PCOD9267561
_publ_section_title
;
Structure prediction by ZEFSAII (Michael W. Deem and Ramdas Pophale) SiO2 
 PCOD9267561
Probable space group: C 2/C
;
_chemical_formula_sum "Si O2"
_cell_formula_units_Z 52
_cell_length_a 31.185664
_cell_length_b 19.220502
_cell_length_c 14.946112
_cell_angle_alpha 90.000000
_cell_angle_beta 17.877513
_cell_angle_gamma 90.000000
_cell_volume 2750.188423
_symmetry_space_group_name_H-M "C 2/C"
_symmetry_group_IT_number 15
_symmetry_cell_setting 'monoclinic'
loop_
_space_group_symop_operation_xyz
x,y,z
-x,y,1/2-z
-x,-y,-z
x,-y,1/2+z
1/2+x,1/2+y,z
1/2-x,1/2+y,1/2-z
1/2-x,1/2-y,-z
1/2+x,1/2-y,1/2+z
loop_
_atom_site_type_symbol
_atom_site_label
_atom_site_fract_x
_atom_site_fract_y
_atom_site_fract_z
Si Si1 0.887599 0.479590 0.296138
Si Si2 0.500000 0.604490 0.250000
Si Si3 0.912557 0.056413 0.617619
Si Si4 0.707798 0.158470 0.784670
Si Si5 0.500000 0.960186 0.750000
Si Si6 0.472619 0.306149 0.509312
Si Si7 0.650122 0.825450 0.190248
Si Si8 0.500000 0.724889 0.750000
O O1 0.746215 0.526169 0.565928
O O2 0.956639 0.494872 0.253108
O O3 0.874348 0.397453 0.310650
O O4 0.000000 0.500000 0.000000
O O5 0.462100 0.561743 0.415471
O O6 0.368551 0.651957 0.487190
O O7 0.951302 0.131577 0.587099
O O8 0.000000 0.000000 0.500000
O O9 0.680081 0.158714 0.734568
O O10 0.630073 0.090329 0.974106
O O11 0.633720 0.224704 0.974969
O O12 0.478147 0.230552 0.549808
O O13 0.512629 0.309723 0.324015
O O14 0.302645 0.306789 0.847738
#
# Coordination Sequence:
#
# PCOD9267561 Si02
#       8
#     8   4   8   8   4   8   8   4
#     4  12  24  42  65  97 134 173 220 276 324 401
#     4  12  22  39  65  99 127 170 222 272 318 403
#     4  12  25  42  68 101 129 171 228 279 329 392
#     4  10  19  39  66  91 125 177 217 259 328 400
#     4  11  22  38  65  93 129 174 214 264 333 382
#     4  10  21  41  68  94 129 176 214 267 337 397
#     4  10  20  41  68  91 134 174 214 267 341 391
#     4   9  22  39  66  92 132 170 212 264 337 401
#
# _framework density 18.907796000000001
#
# number of rings (size 3 to 8) (size 9 to 14) (size 15 to 20)
#    0.000    1.231    6.154    0.000    0.000    0.615 
#    2.769    3.846    0.000    0.000    0.000    0.000 
#    0.000    0.000    0.000    0.000    0.000    0.000 
#
# Total GULP energy -144737.394431 kJ/mol
# GULP energy per Si atom -5566.822863 kJ/mol
# Density = 1.886476 g / cm^3
# Si number density = 18.907796 Si / 1000 Ang^3
#
#
#
# Elastic Constant Matrix: (Units=GPa)
#
#
# Indices 1 2 3 4 5 6 
#
# 1 140.1245 56.6557 42.7646 0.0002 22.7597 0.0000
# 2 56.6557 97.5530 24.1191 0.0002 2.2368 0.0001
# 3 42.7646 24.1191 97.1897 0.0001 5.6857 0.0002
# 4 0.0002 0.0002 0.0001 61.4184 0.0000 10.6254
# 5 22.7597 2.2368 5.6857 0.0000 41.2552 0.0000
# 6 0.0000 0.0001 0.0002 10.6254 0.0000 22.0943
#
#
#
# Elastic Compliance Matrix: (Units=1/GPa)
#
#
# Indices 1 2 3 4 5 6 
#
# 1 0.011295 -0.005630 -0.003252 0.000000 -0.005478 0.000000
# 2 -0.005630 0.013729 -0.001077 0.000000 0.002510 0.000000
# 3 -0.003252 -0.001077 0.011976 0.000000 0.000202 0.000000
# 4 0.000000 0.000000 0.000000 0.017759 0.000000 -0.008541
# 5 -0.005478 0.002510 0.000202 0.000000 0.027097 0.000000
# 6 0.000000 0.000000 0.000000 -0.008541 0.000000 0.049368
#
#
# Mechanical properties :
#
#
# Convention : Reuss Voigt Hill
#
# Bulk Modulus (GPa) = 58.54193 64.66068 61.60131
# Shear Modulus (GPa) = 31.88019 39.04209 35.46114
#
# Velocity S-wave (km/s) = 4.11065 4.54901 4.33538
# Velocity P-wave (km/s) = 7.31840 7.86533 7.59679
#
# Compressibility (1/GPa) = 0.01708177
#
# Stress axis : x y z
#
# Youngs Moduli (GPa) = 88.53253 72.83685 83.50321
#
# Poissons Ratio (x) = 0.41009 0.27158
# Poissons Ratio (y) = 0.49846 0.08990
# Poissons Ratio (z) = 0.28794 0.07842
#
# Static dielectric constant tensor:
#      x y z
#    x 1.641560 0.000000 0.034790 
#    y 0.000000 1.799220 0.000000 
#    z 0.034790 0.000000 1.671140 
# 
# From -- ./inp_files/183022.got.cif
#   From: 2010.05.17/outbox.cif.g08.bks.cpg/sg15_92_cif.got.tgz:183022.got - 2010.06.03 18:47:42.
