data_PCOD9267176
_publ_section_title
;
Structure prediction by ZEFSAII (Michael W. Deem and Ramdas Pophale) SiO2 
 PCOD9267176
Probable space group: C 2/C
;
_chemical_formula_sum "Si O2"
_cell_formula_units_Z 52
_cell_length_a 29.564521
_cell_length_b 9.199506
_cell_length_c 15.117174
_cell_angle_alpha 90.000000
_cell_angle_beta 31.888561
_cell_angle_gamma 90.000000
_cell_volume 2172.005652
_symmetry_space_group_name_H-M "C 2/C"
_symmetry_group_IT_number 15
_symmetry_cell_setting 'monoclinic'
loop_
_space_group_symop_operation_xyz
x,y,z
-x,y,1/2-z
-x,-y,-z
x,-y,1/2+z
1/2+x,1/2+y,z
1/2-x,1/2+y,1/2-z
1/2-x,1/2-y,-z
1/2+x,1/2-y,1/2+z
loop_
_atom_site_type_symbol
_atom_site_label
_atom_site_fract_x
_atom_site_fract_y
_atom_site_fract_z
Si Si1 0.000000 0.322355 0.250000
Si Si2 0.730497 0.193855 0.738530
Si Si3 0.870732 0.424577 0.923883
Si Si4 0.140819 0.499701 0.241855
Si Si5 0.500000 0.500000 0.500000
Si Si6 0.138130 0.987841 0.908882
Si Si7 0.500000 0.307554 0.250000
Si Si8 0.982872 0.706839 0.969858
O O1 0.918800 0.431232 0.378295
O O2 0.994130 0.236241 0.350802
O O3 0.693940 0.111379 0.713040
O O4 0.711378 0.365778 0.767178
O O5 0.822641 0.122606 0.602165
O O6 0.680727 0.141089 0.909203
O O7 0.819886 0.451619 0.917275
O O8 0.944048 0.302668 0.782866
O O9 0.107543 0.634398 0.355829
O O10 0.053495 0.421218 0.356033
O O11 0.408262 0.538634 0.603237
O O12 0.482188 0.327055 0.521870
O O13 0.065197 0.907492 0.087807
#
# Coordination Sequence:
#
# PCOD9267176 Si02
#       8
#     4   8   8   8   4   8   4   8
#     4   9  16  31  60  98 130 178 224 290 334 430
#     4  11  23  45  65 103 137 180 224 300 351 411
#     4   9  18  35  69  99 134 172 239 283 346 412
#     4  10  19  38  66  97 129 183 229 284 344 421
#     4  12  24  42  62  98 134 188 226 284 336 432
#     4  11  26  45  70  97 142 179 233 284 358 405
#     4   9  20  45  64  98 134 188 234 284 336 436
#     4  10  20  34  64  95 133 179 239 275 346 420
#
# _framework density 23.941006000000002
#
# number of rings (size 3 to 8) (size 9 to 14) (size 15 to 20)
#    0.000    1.846    3.077    0.923    6.462    0.615 
#    2.769    3.846    0.000    0.923    0.000    0.000 
#    0.000    0.000    0.000    0.000    0.000    0.000 
#
# Total GULP energy -144788.721986 kJ/mol
# GULP energy per Si atom -5568.796999 kJ/mol
# Density = 2.388651 g / cm^3
# Si number density = 23.941006 Si / 1000 Ang^3
#
#
#
# Elastic Constant Matrix: (Units=GPa)
#
#
# Indices 1 2 3 4 5 6 
#
# 1 116.7790 4.8225 24.7975 0.0000 5.5281 0.0000
# 2 4.8225 76.5086 9.9726 0.0000 -0.3841 0.0000
# 3 24.7975 9.9726 45.5792 0.0000 2.9578 0.0000
# 4 0.0000 0.0000 0.0000 23.6183 0.0000 -9.1452
# 5 5.5281 -0.3841 2.9578 0.0000 33.3093 0.0000
# 6 0.0000 0.0000 0.0000 -9.1452 0.0000 28.5162
#
#
#
# Elastic Compliance Matrix: (Units=1/GPa)
#
#
# Indices 1 2 3 4 5 6 
#
# 1 0.009726 0.000063 -0.005230 0.000000 -0.001149 0.000000
# 2 0.000063 0.013460 -0.003006 0.000000 0.000412 0.000000
# 3 -0.005230 -0.003006 0.025536 0.000000 -0.001434 0.000000
# 4 0.000000 0.000000 0.000000 0.048343 0.000000 0.015504
# 5 -0.001149 0.000412 -0.001434 0.000000 0.030344 0.000000
# 6 0.000000 0.000000 0.000000 0.015504 0.000000 0.040040
#
#
# Mechanical properties :
#
#
# Convention : Reuss Voigt Hill
#
# Bulk Modulus (GPa) = 30.88791 35.33911 33.11351
# Shear Modulus (GPa) = 25.69525 30.37371 28.03448
#
# Velocity S-wave (km/s) = 3.27964 3.56573 3.42567
# Velocity P-wave (km/s) = 5.22217 5.63432 5.43215
#
# Compressibility (1/GPa) = 0.03237513
#
# Stress axis : x y z
#
# Youngs Moduli (GPa) = 102.82108 74.29231 39.16003
#
# Poissons Ratio (x) = -0.00468 0.20483
# Poissons Ratio (y) = -0.00647 0.11772
# Poissons Ratio (z) = 0.53780 0.22333
#
# Static dielectric constant tensor:
#      x y z
#    x 1.556630 0.000000 0.069490 
#    y 0.000000 1.980310 0.000000 
#    z 0.069490 0.000000 1.986280 
# 
# From -- ./inp_files/181113.got.cif
#   From: 2010.05.17/outbox.cif.g08.bks.cpg/sg15_91_cif.got.tgz:181113.got - 2010.06.03 18:47:42.
