data_PCOD9267487
_publ_section_title
;
Structure prediction by ZEFSAII (Michael W. Deem and Ramdas Pophale) SiO2 
 PCOD9267487
Probable space group: C 2/C
;
_chemical_formula_sum "Si O2"
_cell_formula_units_Z 44
_cell_length_a 12.082479
_cell_length_b 12.449828
_cell_length_c 14.431920
_cell_angle_alpha 90.000000
_cell_angle_beta 69.209416
_cell_angle_gamma 90.000000
_cell_volume 2029.556989
_symmetry_space_group_name_H-M "C 2/C"
_symmetry_group_IT_number 15
_symmetry_cell_setting 'monoclinic'
loop_
_space_group_symop_operation_xyz
x,y,z
-x,y,1/2-z
-x,-y,-z
x,-y,1/2+z
1/2+x,1/2+y,z
1/2-x,1/2+y,1/2-z
1/2-x,1/2-y,-z
1/2+x,1/2-y,1/2+z
loop_
_atom_site_type_symbol
_atom_site_label
_atom_site_fract_x
_atom_site_fract_y
_atom_site_fract_z
Si Si1 0.101682 0.347283 0.644930
Si Si2 0.452479 0.396452 0.960222
Si Si3 0.292770 0.039464 0.952392
Si Si4 0.025371 0.340870 0.457436
Si Si5 0.721412 0.380262 0.140014
Si Si6 0.000000 0.993309 0.750000
O O1 0.175496 0.456686 0.638845
O O2 0.045038 0.367661 0.560147
O O3 0.179470 0.238993 0.623052
O O4 0.000000 0.334676 0.750000
O O5 0.518259 0.286951 0.960739
O O6 0.471803 0.421199 0.846602
O O7 0.500000 0.500000 0.000000
O O8 0.316202 0.381533 0.031575
O O9 0.407786 0.103419 0.953239
O O10 0.237265 0.959329 0.047106
O O11 0.143450 0.373590 0.365569
O O12 0.615547 0.431438 0.231137
#
# Coordination Sequence:
#
# PCOD9267487 Si02
#       6
#     8   8   8   8   8   4
#     4  11  21  38  65  97 123 167 228 259 311 388
#     4  11  23  44  68  91 130 173 216 262 328 393
#     4  10  22  42  62  89 133 164 206 269 336 384
#     4  11  22  42  63  94 132 171 203 276 333 372
#     4  10  19  39  64  89 125 163 220 268 307 383
#     4  10  22  42  62  96 120 168 214 262 318 386
#
# _framework density 21.679606
#
# number of rings (size 3 to 8) (size 9 to 14) (size 15 to 20)
#    0.000    1.455    0.909    8.182    0.000    0.000 
#   21.273    0.000    0.000    0.000    0.000    0.000 
#    0.000    0.000    0.000    0.000    0.000    0.000 
#
# Total GULP energy -122793.114957 kJ/mol
# GULP energy per Si atom -5581.505225 kJ/mol
# Density = 2.163026 g / cm^3
# Si number density = 21.679606 Si / 1000 Ang^3
#
#
#
# Elastic Constant Matrix: (Units=GPa)
#
#
# Indices 1 2 3 4 5 6 
#
# 1 87.8980 1.9272 31.3288 0.0000 -37.9014 0.0000
# 2 1.9272 71.4284 16.5983 0.0000 -9.0442 0.0000
# 3 31.3288 16.5983 74.0164 0.0000 -29.9735 0.0000
# 4 0.0000 0.0000 0.0000 8.6356 0.0000 -7.5336
# 5 -37.9014 -9.0442 -29.9735 0.0000 39.0101 0.0000
# 6 0.0000 0.0000 0.0000 -7.5336 0.0000 46.8002
#
#
#
# Elastic Compliance Matrix: (Units=1/GPa)
#
#
# Indices 1 2 3 4 5 6 
#
# 1 0.019923 0.002148 -0.001269 0.000000 0.018880 0.000000
# 2 0.002148 0.015045 -0.002940 0.000000 0.003316 0.000000
# 3 -0.001269 -0.002940 0.020225 0.000000 0.013625 0.000000
# 4 0.000000 0.000000 0.000000 0.134718 0.000000 0.021686
# 5 0.018880 0.003316 0.013625 0.000000 0.055215 0.000000
# 6 0.000000 0.000000 0.000000 0.021686 0.000000 0.024858
#
#
# Mechanical properties :
#
#
# Convention : Reuss Voigt Hill
#
# Bulk Modulus (GPa) = 19.58101 37.00570 28.29336
# Shear Modulus (GPa) = 17.17446 31.12174 24.14810
#
# Velocity S-wave (km/s) = 2.81765 3.79295 3.34108
# Velocity P-wave (km/s) = 4.43138 6.02398 5.28798
#
# Compressibility (1/GPa) = 0.05106988
#
# Stress axis : x y z
#
# Youngs Moduli (GPa) = 50.19359 66.46654 49.44483
#
# Poissons Ratio (x) = -0.14276 0.06274
# Poissons Ratio (y) = -0.10781 0.14538
# Poissons Ratio (z) = 0.06369 0.19543
#
# Static dielectric constant tensor:
#      x y z
#    x 1.875840 0.000000 -0.034880 
#    y 0.000000 1.805290 0.000000 
#    z -0.034880 0.000000 1.838110 
# 
# From -- ./inp_files/196440.got.cif
#   From: 2010.05.17/outbox.cif.g08.bks.cpg/sg15_99_cif.got.tgz:196440.got - 2010.06.03 18:47:42.
