data_PCOD9267839
_publ_section_title
;
Structure prediction by ZEFSAII (Michael W. Deem and Ramdas Pophale) SiO2 
 PCOD9267839
Probable space group: C 2/C
;
_chemical_formula_sum "Si O2"
_cell_formula_units_Z 52
_cell_length_a 21.475326
_cell_length_b 8.566525
_cell_length_c 29.512021
_cell_angle_alpha 90.000000
_cell_angle_beta 157.462604
_cell_angle_gamma 90.000000
_cell_volume 2080.974497
_symmetry_space_group_name_H-M "C 2/C"
_symmetry_group_IT_number 15
_symmetry_cell_setting 'monoclinic'
loop_
_space_group_symop_operation_xyz
x,y,z
-x,y,1/2-z
-x,-y,-z
x,-y,1/2+z
1/2+x,1/2+y,z
1/2-x,1/2+y,1/2-z
1/2-x,1/2-y,-z
1/2+x,1/2-y,1/2+z
loop_
_atom_site_type_symbol
_atom_site_label
_atom_site_fract_x
_atom_site_fract_y
_atom_site_fract_z
Si Si1 0.757793 0.540634 0.306200
Si Si2 0.299818 0.966375 0.933721
Si Si3 0.823663 0.329817 0.656631
Si Si4 0.662858 0.796879 0.733343
Si Si5 0.401757 0.444366 0.065447
Si Si6 0.368730 0.102465 0.572878
Si Si7 0.500000 0.235151 0.750000
O O1 0.840709 0.580276 0.409468
O O2 0.775765 0.356563 0.309706
O O3 0.815721 0.628549 0.300901
O O4 0.558376 0.556832 0.176313
O O5 0.150233 0.852313 0.844938
O O6 0.240457 0.147952 0.889940
O O7 0.423316 0.925921 0.058022
O O8 0.814618 0.377752 0.703371
O O9 0.701282 0.448940 0.549543
O O10 0.000000 0.326371 0.750000
O O11 0.485449 0.722404 0.620974
O O12 0.263635 0.464605 0.009442
O O13 0.250000 0.250000 0.500000
O O14 0.483549 0.130665 0.693335
#
# Coordination Sequence:
#
# PCOD9267839 Si02
#       7
#     8   8   8   8   8   8   4
#     4   9  20  44  67  95 133 181 242 283 340 418
#     4  10  19  40  67  90 136 185 222 281 349 420
#     4  11  22  40  69  99 138 179 224 293 352 418
#     4   9  22  44  68  95 138 181 235 292 345 411
#     4  10  23  41  66 101 131 177 238 275 357 404
#     4  10  21  38  63 100 139 175 223 283 348 417
#     4  10  20  38  60 100 138 172 228 272 352 406
#
# _framework density 24.988292000000001
#
# number of rings (size 3 to 8) (size 9 to 14) (size 15 to 20)
#    0.923    1.231    0.769    2.769    1.077    3.077 
#    5.538    9.231    0.000    0.000    0.000    0.000 
#    0.000    0.000    0.000    0.000    0.000    0.000 
#
# Total GULP energy -145016.319820 kJ/mol
# GULP energy per Si atom -5577.550762 kJ/mol
# Density = 2.493142 g / cm^3
# Si number density = 24.988292 Si / 1000 Ang^3
#
#
#
# Elastic Constant Matrix: (Units=GPa)
#
#
# Indices 1 2 3 4 5 6 
#
# 1 189.0977 45.9890 52.1457 -0.0034 -57.8517 0.0013
# 2 45.9890 65.7971 9.6104 -0.0008 -7.8786 -0.0007
# 3 52.1457 9.6104 99.0407 -0.0142 -27.4815 -0.0002
# 4 -0.0034 -0.0008 -0.0142 30.6927 -0.0002 -3.2003
# 5 -57.8517 -7.8786 -27.4815 -0.0002 55.4976 -0.0004
# 6 0.0013 -0.0007 -0.0002 -3.2003 -0.0004 39.1221
#
#
#
# Elastic Compliance Matrix: (Units=1/GPa)
#
#
# Indices 1 2 3 4 5 6 
#
# 1 0.009810 -0.005524 -0.002329 0.000000 0.008288 0.000000
# 2 -0.005524 0.018663 0.000272 0.000000 -0.002974 0.000001
# 3 -0.002329 0.000272 0.012328 0.000006 0.003715 0.000001
# 4 0.000000 0.000000 0.000006 0.032861 0.000003 0.002688
# 5 0.008288 -0.002974 0.003715 0.000003 0.028076 0.000000
# 6 0.000000 0.000001 0.000001 0.002688 0.000000 0.025781
#
#
# Mechanical properties :
#
#
# Convention : Reuss Voigt Hill
#
# Bulk Modulus (GPa) = 39.00295 63.26955 51.13625
# Shear Modulus (GPa) = 33.06298 41.47518 37.26908
#
# Velocity S-wave (km/s) = 3.64144 4.07846 3.86613
# Velocity P-wave (km/s) = 5.77257 6.89588 6.35908
#
# Compressibility (1/GPa) = 0.02563909
#
# Stress axis : x y z
#
# Youngs Moduli (GPa) = 101.94108 53.58118 81.11882
#
# Poissons Ratio (x) = 0.29597 0.18893
# Poissons Ratio (y) = 0.56310 -0.02208
# Poissons Ratio (z) = 0.23742 -0.01458
#
# Static dielectric constant tensor:
#      x y z
#    x 2.007730 0.000000 -0.100550 
#    y 0.000000 2.058380 -0.000010 
#    z -0.100550 -0.000010 2.231310 
# 
# From -- ./inp_files/298890.got.cif
#   From: 2010.05.17/outbox.cif.g08.bks.cpg/sg15_150_cif.got.tgz:298890.got - 2010.06.03 18:47:42.
