data_PCOD9267816
_publ_section_title
;
Structure prediction by ZEFSAII (Michael W. Deem and Ramdas Pophale) SiO2 
 PCOD9267816
Probable space group: C 2/C
;
_chemical_formula_sum "Si O2"
_cell_formula_units_Z 40
_cell_length_a 9.602930
_cell_length_b 11.361997
_cell_length_c 17.334642
_cell_angle_alpha 90.000000
_cell_angle_beta 103.076204
_cell_angle_gamma 90.000000
_cell_volume 1842.313291
_symmetry_space_group_name_H-M "C 2/C"
_symmetry_group_IT_number 15
_symmetry_cell_setting 'monoclinic'
loop_
_space_group_symop_operation_xyz
x,y,z
-x,y,1/2-z
-x,-y,-z
x,-y,1/2+z
1/2+x,1/2+y,z
1/2-x,1/2+y,1/2-z
1/2-x,1/2-y,-z
1/2+x,1/2-y,1/2+z
loop_
_atom_site_type_symbol
_atom_site_label
_atom_site_fract_x
_atom_site_fract_y
_atom_site_fract_z
Si Si1 0.424790 0.508288 0.322666
Si Si2 0.124109 0.498883 0.704262
Si Si3 0.169911 0.847112 0.060141
Si Si4 0.980859 0.261629 0.156950
Si Si5 0.624205 0.909056 0.537761
O O1 0.500000 0.479950 0.250000
O O2 0.261816 0.509892 0.274405
O O3 0.427753 0.412389 0.390604
O O4 0.473531 0.632672 0.365402
O O5 0.084855 0.625673 0.660652
O O6 0.146217 0.419183 0.631981
O O7 0.000000 0.469993 0.750000
O O8 0.318553 0.801691 0.119362
O O9 0.091756 0.729471 0.019824
O O10 0.236636 0.926124 0.999316
O O11 0.000000 0.240951 0.250000
O O12 0.500000 0.000000 0.500000
#
# Coordination Sequence:
#
# PCOD9267816 Si02
#       5
#     8   8   8   8   8
#     4  11  23  41  67 101 126 167 222 268 319 383
#     4  11  21  41  70  94 128 170 216 267 324 385
#     4  11  23  43  64  92 133 172 212 265 327 380
#     4  10  19  40  66  89 132 168 209 269 327 366
#     4  11  22  40  67  93 129 176 211 261 325 383
#
# _framework density 21.711835000000001
#
# number of rings (size 3 to 8) (size 9 to 14) (size 15 to 20)
#    0.000    1.200    6.000    2.400    0.000    0.800 
#    3.600   10.000    0.000    0.000    0.000    0.000 
#    0.000    0.000    0.000    0.000    0.000    0.000 
#
# Total GULP energy -111461.200432 kJ/mol
# GULP energy per Si atom -5573.060022 kJ/mol
# Density = 2.166242 g / cm^3
# Si number density = 21.711835 Si / 1000 Ang^3
#
#
#
# Elastic Constant Matrix: (Units=GPa)
#
#
# Indices 1 2 3 4 5 6 
#
# 1 98.6114 37.2873 17.8204 0.0000 -7.8573 0.0000
# 2 37.2873 114.1303 34.9998 0.0000 -16.1541 0.0000
# 3 17.8204 34.9998 93.4531 0.0000 -29.6745 0.0000
# 4 0.0000 0.0000 0.0000 339.1942 0.0000 -64.7956
# 5 -7.8573 -16.1541 -29.6745 0.0000 50.4501 0.0000
# 6 0.0000 0.0000 0.0000 -64.7956 0.0000 57.9550
#
#
#
# Elastic Compliance Matrix: (Units=1/GPa)
#
#
# Indices 1 2 3 4 5 6 
#
# 1 0.011638 -0.003517 -0.000841 0.000000 0.000192 0.000000
# 2 -0.003517 0.011023 -0.003087 0.000000 0.001166 0.000000
# 3 -0.000841 -0.003087 0.014340 0.000000 0.007315 0.000000
# 4 0.000000 0.000000 0.000000 0.003749 0.000000 0.004191
# 5 0.000192 0.001166 0.007315 0.000000 0.024527 0.000000
# 6 0.000000 0.000000 0.000000 0.004191 0.000000 0.021941
#
#
# Mechanical properties :
#
#
# Convention : Reuss Voigt Hill
#
# Bulk Modulus (GPa) = 45.22959 54.04556 49.63757
# Shear Modulus (GPa) = 45.67081 103.92568 74.79824
#
# Velocity S-wave (km/s) = 4.59137 6.92603 5.87582
# Velocity P-wave (km/s) = 6.99889 9.42900 8.30333
#
# Compressibility (1/GPa) = 0.02210942
#
# Stress axis : x y z
#
# Youngs Moduli (GPa) = 85.92537 90.72111 69.73476
#
# Poissons Ratio (x) = 0.31908 0.05866
# Poissons Ratio (y) = 0.30221 0.21530
# Poissons Ratio (z) = 0.07228 0.28009
#
# Static dielectric constant tensor:
#      x y z
#    x 1.413030 0.000000 0.250910 
#    y 0.000000 1.918580 0.000000 
#    z 0.250910 0.000000 1.743120 
# 
# From -- ./inp_files/187889.got.cif
#   From: 2010.05.17/outbox.cif.g08.bks.cpg/sg15_94_cif.got.tgz:187889.got - 2010.06.03 18:47:42.
