data_PCOD9267951
_publ_section_title
;
Structure prediction by ZEFSAII (Michael W. Deem and Ramdas Pophale) SiO2 
 PCOD9267951
Probable space group: C 2/C
;
_chemical_formula_sum "Si O2"
_cell_formula_units_Z 28
_cell_length_a 11.699146
_cell_length_b 7.108427
_cell_length_c 20.884245
_cell_angle_alpha 90.000000
_cell_angle_beta 141.102173
_cell_angle_gamma 90.000000
_cell_volume 1090.586531
_symmetry_space_group_name_H-M "C 2/C"
_symmetry_group_IT_number 15
_symmetry_cell_setting 'monoclinic'
loop_
_space_group_symop_operation_xyz
x,y,z
-x,y,1/2-z
-x,-y,-z
x,-y,1/2+z
1/2+x,1/2+y,z
1/2-x,1/2+y,1/2-z
1/2-x,1/2-y,-z
1/2+x,1/2-y,1/2+z
loop_
_atom_site_type_symbol
_atom_site_label
_atom_site_fract_x
_atom_site_fract_y
_atom_site_fract_z
Si Si1 0.991252 0.321054 0.126744
Si Si2 0.399945 0.612602 0.839085
Si Si3 0.000000 0.113656 0.750000
Si Si4 0.689627 0.822268 0.580030
O O1 0.182355 0.394126 0.234989
O O2 0.831343 0.325724 0.109141
O O3 0.022576 0.097351 0.127398
O O4 0.925072 0.398560 0.029846
O O5 0.481730 0.711194 0.810853
O O6 0.427152 0.718301 0.917266
O O7 0.822235 0.979708 0.667744
#
# Coordination Sequence:
#
# PCOD9267951 Si02
#       4
#     8   8   4   8
#     4  10  22  36  68  87 117 157 203 236 305 344
#     4  11  19  41  57  89 122 154 195 251 284 359
#     4  10  22  38  60  88 126 152 200 238 298 348
#     4  10  19  41  62  87 117 164 191 245 294 355
#
# _framework density 25.67426
#
# number of rings (size 3 to 8) (size 9 to 14) (size 15 to 20)
#    0.000    1.714    5.714    0.857    0.000    1.143 
#    5.143    1.429    0.000    0.000    0.000    0.000 
#    0.000    0.000    0.000    0.000    0.000    0.000 
#
# Total GULP energy -78414.867789 kJ/mol
# GULP energy per Si atom -5601.061985 kJ/mol
# Density = 2.561582 g / cm^3
# Si number density = 25.674260 Si / 1000 Ang^3
#
#
#
# Elastic Constant Matrix: (Units=GPa)
#
#
# Indices 1 2 3 4 5 6 
#
# 1 161.7606 45.7586 7.5842 0.0000 -45.0890 0.0000
# 2 45.7586 65.7535 -3.6156 0.0000 -1.4050 0.0000
# 3 7.5842 -3.6156 77.9831 0.0000 -11.3959 0.0000
# 4 0.0000 0.0000 0.0000 30.3067 0.0000 2.6961
# 5 -45.0890 -1.4050 -11.3959 0.0000 53.4420 0.0000
# 6 0.0000 0.0000 0.0000 2.6961 0.0000 20.3281
#
#
#
# Elastic Compliance Matrix: (Units=1/GPa)
#
#
# Indices 1 2 3 4 5 6 
#
# 1 0.010697 -0.007261 -0.000089 0.000000 0.008816 0.000000
# 2 -0.007261 0.020192 0.000851 0.000000 -0.005414 0.000000
# 3 -0.000089 0.000851 0.013277 0.000000 0.002779 0.000000
# 4 0.000000 0.000000 0.000000 0.033390 0.000000 -0.004428
# 5 0.008816 -0.005414 0.002779 0.000000 0.026600 0.000000
# 6 0.000000 0.000000 0.000000 -0.004428 0.000000 0.049780
#
#
# Mechanical properties :
#
#
# Convention : Reuss Voigt Hill
#
# Bulk Modulus (GPa) = 32.08181 44.99462 38.53822
# Shear Modulus (GPa) = 28.19695 37.86669 33.03182
#
# Velocity S-wave (km/s) = 3.31759 3.84460 3.59077
# Velocity P-wave (km/s) = 5.21518 6.10501 5.67755
#
# Compressibility (1/GPa) = 0.03117031
#
# Stress axis : x y z
#
# Youngs Moduli (GPa) = 93.48139 49.52358 75.31565
#
# Poissons Ratio (x) = 0.35959 0.00669
# Poissons Ratio (y) = 0.67876 -0.06411
# Poissons Ratio (z) = 0.00830 -0.04216
#
# Static dielectric constant tensor:
#      x y z
#    x 2.067170 0.000000 -0.033900 
#    y 0.000000 2.054020 0.000000 
#    z -0.033900 0.000000 1.984240 
# 
# From -- ./inp_files/131831.got.cif
#   From: 2010.05.17/outbox.cif.g08.bks.cpg/sg15_66_cif.got.tgz:131831.got - 2010.06.03 18:47:42.
