data_PCOD9267701
_publ_section_title
;
Structure prediction by ZEFSAII (Michael W. Deem and Ramdas Pophale) SiO2 
 PCOD9267701
Probable space group: C 2/C
;
_chemical_formula_sum "Si O2"
_cell_formula_units_Z 48
_cell_length_a 11.162277
_cell_length_b 11.875189
_cell_length_c 22.242859
_cell_angle_alpha 90.000000
_cell_angle_beta 49.396914
_cell_angle_gamma 90.000000
_cell_volume 2238.519455
_symmetry_space_group_name_H-M "C 2/C"
_symmetry_group_IT_number 15
_symmetry_cell_setting 'monoclinic'
loop_
_space_group_symop_operation_xyz
x,y,z
-x,y,1/2-z
-x,-y,-z
x,-y,1/2+z
1/2+x,1/2+y,z
1/2-x,1/2+y,1/2-z
1/2-x,1/2-y,-z
1/2+x,1/2-y,1/2+z
loop_
_atom_site_type_symbol
_atom_site_label
_atom_site_fract_x
_atom_site_fract_y
_atom_site_fract_z
Si Si1 0.656712 0.673427 0.110146
Si Si2 0.417311 0.647993 0.842617
Si Si3 0.665496 0.917138 0.058965
Si Si4 0.365266 0.466794 0.696842
Si Si5 0.843167 0.396803 0.840728
Si Si6 0.156633 0.488846 0.880554
O O1 0.128472 0.304444 0.109012
O O2 0.497954 0.612458 0.182858
O O3 0.800089 0.633567 0.106281
O O4 0.699123 0.620394 0.031148
O O5 0.500000 0.641342 0.750000
O O6 0.541168 0.584331 0.845399
O O7 0.376377 0.778286 0.862718
O O8 0.258998 0.575170 0.887489
O O9 0.519091 0.965471 0.068084
O O10 0.700779 0.013001 0.095076
O O11 0.295283 0.400880 0.663176
O O12 0.228455 0.489711 0.789747
O O13 0.000000 0.424420 0.750000
#
# Coordination Sequence:
#
# PCOD9267701 Si02
#       6
#     8   8   8   8   8   8
#     4  10  23  40  60  85 121 164 199 244 302 362
#     4   8  18  34  56  81 112 148 191 249 298 342
#     4  11  23  38  57  90 125 155 198 248 303 364
#     4  10  20  39  61  86 114 156 205 245 299 361
#     4  11  21  36  56  89 119 150 195 253 302 351
#     4  10  19  40  62  83 114 159 205 247 294 359
#
# _framework density 21.442744999999999
#
# number of rings (size 3 to 8) (size 9 to 14) (size 15 to 20)
#    0.000    2.000    1.667    3.000    0.000    3.333 
#    3.000    3.333    0.000    0.000    0.000    0.000 
#    0.000    0.000    0.000    0.000    0.000    0.000 
#
# Total GULP energy -133918.376095 kJ/mol
# GULP energy per Si atom -5579.932337 kJ/mol
# Density = 2.139394 g / cm^3
# Si number density = 21.442745 Si / 1000 Ang^3
#
#
#
# Elastic Constant Matrix: (Units=GPa)
#
#
# Indices 1 2 3 4 5 6 
#
# 1 71.4449 18.3618 4.5729 0.0000 -3.0462 0.0000
# 2 18.3618 110.3262 12.7740 0.0000 10.7760 0.0000
# 3 4.5729 12.7740 28.7888 0.0000 -8.2560 0.0000
# 4 0.0000 0.0000 0.0000 28.7034 0.0000 11.5754
# 5 -3.0462 10.7760 -8.2560 0.0000 18.9691 0.0000
# 6 0.0000 0.0000 0.0000 11.5754 0.0000 21.8928
#
#
#
# Elastic Compliance Matrix: (Units=1/GPa)
#
#
# Indices 1 2 3 4 5 6 
#
# 1 0.014907 -0.002888 0.000080 0.000000 0.004070 0.000000
# 2 -0.002888 0.011417 -0.007542 0.000000 -0.010232 0.000000
# 3 0.000080 -0.007542 0.044907 0.000000 0.023842 0.000000
# 4 0.000000 0.000000 0.000000 0.044281 0.000000 -0.023412
# 5 0.004070 -0.010232 0.023842 0.000000 0.069560 0.000000
# 6 0.000000 0.000000 0.000000 -0.023412 0.000000 0.058056
#
#
# Mechanical properties :
#
#
# Convention : Reuss Voigt Hill
#
# Bulk Modulus (GPa) = 19.78896 31.33082 25.55989
# Shear Modulus (GPa) = 17.81451 25.56982 21.69217
#
# Velocity S-wave (km/s) = 2.88548 3.45696 3.18407
# Velocity P-wave (km/s) = 4.51111 5.52967 5.04615
#
# Compressibility (1/GPa) = 0.05053324
#
# Stress axis : x y z
#
# Youngs Moduli (GPa) = 67.08091 87.58674 22.26847
#
# Poissons Ratio (x) = 0.25294 -0.00179
# Poissons Ratio (y) = 0.19372 0.16794
# Poissons Ratio (z) = -0.00540 0.66054
#
# Static dielectric constant tensor:
#      x y z
#    x 1.806240 0.000000 0.002820 
#    y 0.000000 1.804270 0.000000 
#    z 0.002820 0.000000 1.782280 
# 
# From -- ./inp_files/264940.got.cif
#   From: 2010.05.17/outbox.cif.g08.bks.cpg/sg15_133_cif.got.tgz:264940.got - 2010.06.03 18:47:42.
