data_PCOD9267024
_publ_section_title
;
Structure prediction by ZEFSAII (Michael W. Deem and Ramdas Pophale) SiO2 
 PCOD9267024
Probable space group: C 2/C
;
_chemical_formula_sum "Si O2"
_cell_formula_units_Z 40
_cell_length_a 6.020754
_cell_length_b 15.277306
_cell_length_c 21.318506
_cell_angle_alpha 90.000000
_cell_angle_beta 77.170875
_cell_angle_gamma 90.000000
_cell_volume 1911.944796
_symmetry_space_group_name_H-M "C 2/C"
_symmetry_group_IT_number 15
_symmetry_cell_setting 'monoclinic'
loop_
_space_group_symop_operation_xyz
x,y,z
-x,y,1/2-z
-x,-y,-z
x,-y,1/2+z
1/2+x,1/2+y,z
1/2-x,1/2+y,1/2-z
1/2-x,1/2-y,-z
1/2+x,1/2-y,1/2+z
loop_
_atom_site_type_symbol
_atom_site_label
_atom_site_fract_x
_atom_site_fract_y
_atom_site_fract_z
Si Si1 0.155502 0.831164 0.298566
Si Si2 0.151687 0.452115 0.542618
Si Si3 0.000000 0.818925 0.750000
Si Si4 0.747620 0.439310 0.651772
Si Si5 0.000000 0.524726 0.750000
Si Si6 0.512126 0.414827 0.079699
O O1 0.282210 0.744620 0.266978
O O2 0.038326 0.830692 0.373818
O O3 0.000000 0.858655 0.250000
O O4 0.337010 0.908663 0.296692
O O5 0.334597 0.396536 0.491308
O O6 0.297997 0.527334 0.568859
O O7 0.000000 0.500000 0.500000
O O8 0.967352 0.405746 0.599085
O O9 0.040677 0.876221 0.684912
O O10 0.647454 0.520075 0.618596
O O11 0.852433 0.469264 0.711354
#
# Coordination Sequence:
#
# PCOD9267024 Si02
#       6
#     8   8   4   8   4   8
#     4  11  22  39  57  88 122 158 194 243 296 358
#     4   9  20  34  63  91 113 145 202 256 291 339
#     4  11  28  34  54  91 130 160 188 239 306 352
#     4  11  21  38  58  92 119 151 200 248 292 347
#     4  11  20  34  64  87 110 156 202 249 290 342
#     4  10  19  38  64  88 113 154 203 245 294 347
#
# _framework density 20.921105000000001
#
# number of rings (size 3 to 8) (size 9 to 14) (size 15 to 20)
#    0.000    1.600    4.000    1.200    1.400    0.000 
#    0.000    1.000    0.000   12.000    0.000    0.000 
#    0.000    0.000    0.000    0.000    0.000    0.000 
#
# Total GULP energy -111426.037499 kJ/mol
# GULP energy per Si atom -5571.301875 kJ/mol
# Density = 2.087349 g / cm^3
# Si number density = 20.921105 Si / 1000 Ang^3
#
#
#
# Elastic Constant Matrix: (Units=GPa)
#
#
# Indices 1 2 3 4 5 6 
#
# 1 70.8470 10.4135 24.0366 0.0000 2.3203 0.0000
# 2 10.4135 45.0751 41.6027 0.0000 -16.7095 0.0000
# 3 24.0366 41.6027 142.3984 0.0000 -38.0501 0.0000
# 4 0.0000 0.0000 0.0000 15.7080 0.0000 -13.9679
# 5 2.3203 -16.7095 -38.0501 0.0000 50.5432 0.0000
# 6 0.0000 0.0000 0.0000 -13.9679 0.0000 11.0560
#
#
#
# Elastic Compliance Matrix: (Units=1/GPa)
#
#
# Indices 1 2 3 4 5 6 
#
# 1 0.015567 -0.002229 -0.002960 0.000000 -0.003680 0.000000
# 2 -0.002229 0.031427 -0.007513 0.000000 0.004836 0.000000
# 3 -0.002960 -0.007513 0.011379 0.000000 0.006218 0.000000
# 4 0.000000 0.000000 0.000000 -0.515780 0.000000 -0.651625
# 5 -0.003680 0.004836 0.006218 0.000000 0.026234 0.000000
# 6 0.000000 0.000000 0.000000 -0.651625 0.000000 -0.732801
#
#
# Mechanical properties :
#
#
# Convention : Reuss Voigt Hill
#
# Bulk Modulus (GPa) = 30.33090 45.60289 37.96689
# Shear Modulus (GPa) = -4.43427 27.61261 11.58917
#
# Velocity S-wave (km/s) = -1.45744 3.63691 2.35616
# Velocity P-wave (km/s) = 3.42010 6.28339 5.05856
#
# Compressibility (1/GPa) = 0.03296968
#
# Stress axis : x y z
#
# Youngs Moduli (GPa) = 64.23753 31.81944 87.88273
#
# Poissons Ratio (x) = 0.07091 0.26012
# Poissons Ratio (y) = 0.14316 0.66029
# Poissons Ratio (z) = 0.19013 0.23907
#
# Static dielectric constant tensor:
#      x y z
#    x 1.775730 0.000000 -0.087170 
#    y 0.000000 1.761390 0.000000 
#    z -0.087170 0.000000 1.854360 
# 
# From -- ./inp_files/226749.got.cif
#   From: 2010.05.17/outbox.cif.g08.bks.cpg/sg15_114_cif.got.tgz:226749.got - 2010.06.03 18:47:42.
