data_PCOD9267777
_publ_section_title
;
Structure prediction by ZEFSAII (Michael W. Deem and Ramdas Pophale) SiO2 
 PCOD9267777
Probable space group: C 2/C
;
_chemical_formula_sum "Si O2"
_cell_formula_units_Z 52
_cell_length_a 15.887433
_cell_length_b 30.636545
_cell_length_c 5.311314
_cell_angle_alpha 90.000000
_cell_angle_beta 107.247368
_cell_angle_gamma 90.000000
_cell_volume 2468.960442
_symmetry_space_group_name_H-M "C 2/C"
_symmetry_group_IT_number 15
_symmetry_cell_setting 'monoclinic'
loop_
_space_group_symop_operation_xyz
x,y,z
-x,y,1/2-z
-x,-y,-z
x,-y,1/2+z
1/2+x,1/2+y,z
1/2-x,1/2+y,1/2-z
1/2-x,1/2-y,-z
1/2+x,1/2-y,1/2+z
loop_
_atom_site_type_symbol
_atom_site_label
_atom_site_fract_x
_atom_site_fract_y
_atom_site_fract_z
Si Si1 0.500000 0.887357 0.750000
Si Si2 0.500000 0.416232 0.250000
Si Si3 0.500000 0.735346 0.750000
Si Si4 0.570767 0.194093 0.620169
Si Si5 0.849884 0.972752 0.896800
Si Si6 0.770335 0.645386 0.541050
Si Si7 0.305487 0.907478 0.580602
Si Si8 0.075767 0.156649 0.507621
O O1 0.471530 0.852024 0.510816
O O2 0.411115 0.915659 0.701711
O O3 0.558870 0.446497 0.481637
O O4 0.427520 0.382988 0.297966
O O5 0.426090 0.769133 0.588252
O O6 0.545549 0.702028 0.599010
O O7 0.500000 0.212618 0.750000
O O8 0.663077 0.183379 0.823746
O O9 0.763541 0.944119 0.891429
O O10 0.848244 0.989587 0.609199
O O11 0.791556 0.630023 0.278361
O O12 0.669751 0.659240 0.465444
O O13 0.785556 0.608961 0.777526
O O14 0.000000 0.143378 0.250000
#
# Coordination Sequence:
#
# PCOD9267777 Si02
#       8
#     4   4   4   8   8   8   8   8
#     4   9  20  37  70  94 126 170 220 264 322 379
#     4  11  24  43  66  90 128 176 230 258 318 395
#     4  10  24  40  58  96 138 172 216 274 330 378
#     4  10  19  40  64  95 128 168 220 272 317 383
#     4  12  26  43  65  99 135 169 212 272 332 386
#     4  11  23  40  71  95 127 175 225 264 320 380
#     4  11  22  43  66 102 129 166 221 270 317 399
#     4  11  24  42  65  92 130 180 218 274 325 382
#
# _framework density 21.061496000000002
#
# number of rings (size 3 to 8) (size 9 to 14) (size 15 to 20)
#    0.000    1.231    3.077    2.769    4.308    0.615 
#    0.000    3.846    0.000    0.000    0.000    0.000 
#    0.000    0.000    0.000    0.000    0.000    0.000 
#
# Total GULP energy -145087.754185 kJ/mol
# GULP energy per Si atom -5580.298238 kJ/mol
# Density = 2.101356 g / cm^3
# Si number density = 21.061496 Si / 1000 Ang^3
#
#
#
# Elastic Constant Matrix: (Units=GPa)
#
#
# Indices 1 2 3 4 5 6 
#
# 1 111.4114 3.4342 -6.7395 0.0000 29.4362 0.0000
# 2 3.4342 50.1763 -3.8277 0.0000 11.4279 0.0000
# 3 -6.7395 -3.8277 40.3638 0.0000 6.2022 0.0000
# 4 0.0000 0.0000 0.0000 20.8684 0.0000 8.1341
# 5 29.4362 11.4279 6.2022 0.0000 36.5028 0.0000
# 6 0.0000 0.0000 0.0000 8.1341 0.0000 -38.8880
#
#
#
# Elastic Compliance Matrix: (Units=1/GPa)
#
#
# Indices 1 2 3 4 5 6 
#
# 1 0.012057 0.001978 0.003892 0.000000 -0.011004 0.000000
# 2 0.001978 0.022181 0.003846 0.000000 -0.009193 0.000000
# 3 0.003892 0.003846 0.027166 0.000000 -0.008958 0.000000
# 4 0.000000 0.000000 0.000000 0.044307 0.000000 0.009268
# 5 -0.011004 -0.009193 -0.008958 0.000000 0.040669 0.000000
# 6 0.000000 0.000000 0.000000 0.009268 0.000000 -0.023776
#
#
# Mechanical properties :
#
#
# Convention : Reuss Voigt Hill
#
# Bulk Modulus (GPa) = 12.37080 20.85394 16.61237
# Shear Modulus (GPa) = 38.42669 17.63560 28.03115
#
# Velocity S-wave (km/s) = 4.27605 2.89682 3.65213
# Velocity P-wave (km/s) = 5.50144 4.59475 5.06841
#
# Compressibility (1/GPa) = 0.08083552
#
# Stress axis : x y z
#
# Youngs Moduli (GPa) = 82.93610 45.08272 36.81121
#
# Poissons Ratio (x) = -0.08916 -0.14325
# Poissons Ratio (y) = -0.16403 -0.14158
# Poissons Ratio (z) = -0.32275 -0.17340
#
# Static dielectric constant tensor:
#      x y z
#    x 1.745530 0.000000 -0.043660 
#    y 0.000000 1.744240 0.000000 
#    z -0.043660 0.000000 1.845290 
# 
# From -- ./inp_files/9147.got.cif
#   From: 2010.05.17/outbox.cif.g08.bks.cpg/sg15_5_cif.got.tgz:9147.got - 2010.06.03 18:47:42.
