data_PCOD9267399
_publ_section_title
;
Structure prediction by ZEFSAII (Michael W. Deem and Ramdas Pophale) SiO2 
 PCOD9267399
Probable space group: C 2/C
;
_chemical_formula_sum "Si O2"
_cell_formula_units_Z 40
_cell_length_a 29.745195
_cell_length_b 13.322961
_cell_length_c 9.842478
_cell_angle_alpha 90.000000
_cell_angle_beta 151.808345
_cell_angle_gamma 90.000000
_cell_volume 1842.690986
_symmetry_space_group_name_H-M "C 2/C"
_symmetry_group_IT_number 15
_symmetry_cell_setting 'monoclinic'
loop_
_space_group_symop_operation_xyz
x,y,z
-x,y,1/2-z
-x,-y,-z
x,-y,1/2+z
1/2+x,1/2+y,z
1/2-x,1/2+y,1/2-z
1/2-x,1/2-y,-z
1/2+x,1/2-y,1/2+z
loop_
_atom_site_type_symbol
_atom_site_label
_atom_site_fract_x
_atom_site_fract_y
_atom_site_fract_z
Si Si1 0.701225 0.764805 0.641277
Si Si2 0.223658 0.943273 0.816002
Si Si3 0.106160 0.969969 0.245837
Si Si4 0.491298 0.729761 0.067720
Si Si5 0.160335 0.623166 0.316931
O O1 0.752097 0.829380 0.659205
O O2 0.600577 0.724627 0.313127
O O3 0.676884 0.839067 0.705311
O O4 0.765056 0.680535 0.884747
O O5 0.179376 0.987434 0.560443
O O6 0.145290 0.971980 0.719877
O O7 0.316227 0.006592 0.105850
O O8 0.089541 0.849911 0.189804
O O9 0.000000 0.000000 0.000000
O O10 0.500000 0.708049 0.250000
O O11 0.444189 0.838352 0.922037
#
# Coordination Sequence:
#
# PCOD9267399 Si02
#       5
#     8   8   8   8   8
#     4  10  20  38  65  93 126 175 219 266 317 393
#     4  12  22  39  66  95 127 168 217 275 319 384
#     4  12  23  39  64  96 127 166 221 270 325 381
#     4  10  20  38  65  92 121 174 222 256 311 400
#     4  10  19  39  62  89 132 171 216 257 327 396
#
# _framework density 21.707384999999999
#
# number of rings (size 3 to 8) (size 9 to 14) (size 15 to 20)
#    0.000    1.200    4.000    5.400    0.000    0.800 
#    0.000    4.000    0.000    0.000    0.000    0.000 
#    0.000    0.000    0.000    0.000    0.000    0.000 
#
# Total GULP energy -111556.211567 kJ/mol
# GULP energy per Si atom -5577.810578 kJ/mol
# Density = 2.165798 g / cm^3
# Si number density = 21.707385 Si / 1000 Ang^3
#
#
#
# Elastic Constant Matrix: (Units=GPa)
#
#
# Indices 1 2 3 4 5 6 
#
# 1 81.2196 37.6573 17.5440 0.0000 7.9325 0.0000
# 2 37.6573 49.8039 10.0075 0.0000 -1.7534 0.0000
# 3 17.5440 10.0075 68.5937 0.0000 2.9085 0.0000
# 4 0.0000 0.0000 0.0000 46.8480 0.0000 4.9274
# 5 7.9325 -1.7534 2.9085 0.0000 30.5391 0.0000
# 6 0.0000 0.0000 0.0000 4.9274 0.0000 23.2884
#
#
#
# Elastic Compliance Matrix: (Units=1/GPa)
#
#
# Indices 1 2 3 4 5 6 
#
# 1 0.020528 -0.015171 -0.002785 0.000000 -0.005938 0.000000
# 2 -0.015171 0.031964 -0.001032 0.000000 0.005874 0.000000
# 3 -0.002785 -0.001032 0.015476 0.000000 -0.000810 0.000000
# 4 0.000000 0.000000 0.000000 0.021831 0.000000 -0.004619
# 5 -0.005938 0.005874 -0.000810 0.000000 0.034702 0.000000
# 6 0.000000 0.000000 0.000000 -0.004619 0.000000 0.043917
#
#
# Mechanical properties :
#
#
# Convention : Reuss Voigt Hill
#
# Bulk Modulus (GPa) = 33.34328 36.67052 35.00690
# Shear Modulus (GPa) = 23.10638 29.09568 26.10103
#
# Velocity S-wave (km/s) = 3.26613 3.66506 3.47133
# Velocity P-wave (km/s) = 5.44216 5.90254 5.67702
#
# Compressibility (1/GPa) = 0.02999105
#
# Stress axis : x y z
#
# Youngs Moduli (GPa) = 48.71473 31.28556 64.61665
#
# Poissons Ratio (x) = 0.47462 0.17997
# Poissons Ratio (y) = 0.73903 0.06670
# Poissons Ratio (z) = 0.13568 0.03230
#
# Static dielectric constant tensor:
#      x y z
#    x 1.827470 0.000000 0.045320 
#    y 0.000000 2.059750 0.000000 
#    z 0.045320 0.000000 1.788750 
# 
# From -- ./inp_files/38075.got.cif
#   From: 2010.05.17/outbox.cif.g08.bks.cpg/sg15_20_cif.got.tgz:38075.got - 2010.06.03 18:47:42.
