data_PCOD9267374
_publ_section_title
;
Structure prediction by ZEFSAII (Michael W. Deem and Ramdas Pophale) SiO2 
 PCOD9267374
Probable space group: C 2/C
;
_chemical_formula_sum "Si O2"
_cell_formula_units_Z 64
_cell_length_a 14.323293
_cell_length_b 11.093883
_cell_length_c 22.631279
_cell_angle_alpha 90.000000
_cell_angle_beta 134.431208
_cell_angle_gamma 90.000000
_cell_volume 2567.966815
_symmetry_space_group_name_H-M "C 2/C"
_symmetry_group_IT_number 15
_symmetry_cell_setting 'monoclinic'
loop_
_space_group_symop_operation_xyz
x,y,z
-x,y,1/2-z
-x,-y,-z
x,-y,1/2+z
1/2+x,1/2+y,z
1/2-x,1/2+y,1/2-z
1/2-x,1/2-y,-z
1/2+x,1/2-y,1/2+z
loop_
_atom_site_type_symbol
_atom_site_label
_atom_site_fract_x
_atom_site_fract_y
_atom_site_fract_z
Si Si1 0.750697 0.470659 0.423643
Si Si2 0.522917 0.069495 0.102988
Si Si3 0.515491 0.667203 0.052490
Si Si4 0.278643 0.782877 0.891444
Si Si5 0.634295 0.564926 0.994025
Si Si6 0.698553 0.854326 0.180605
Si Si7 0.424022 0.788162 0.773155
Si Si8 0.656699 0.971449 0.321141
O O1 0.698700 0.605323 0.384664
O O2 0.672258 0.412166 0.443247
O O3 0.763066 0.394917 0.369231
O O4 0.901186 0.479477 0.512790
O O5 0.610663 0.960209 0.166650
O O6 0.625599 0.147201 0.111010
O O7 0.479081 0.153217 0.137110
O O8 0.376647 0.731896 0.984387
O O9 0.583395 0.665616 0.017313
O O10 0.484758 0.531472 0.057606
O O11 0.603850 0.740680 0.135793
O O12 0.208964 0.665423 0.832521
O O13 0.759359 0.504068 0.082579
O O14 0.837054 0.812502 0.265904
O O15 0.500000 0.742496 0.750000
O O16 0.332500 0.900236 0.709771
O O17 0.500000 0.958763 0.250000
#
# Coordination Sequence:
#
# PCOD9267374 Si02
#       8
#     8   8   8   8   8   8   8   8
#     4  11  21  41  66  98 121 161 216 264 314 369
#     4  11  23  41  66  92 126 168 211 257 322 375
#     4  10  19  39  61  92 130 156 207 266 314 360
#     4  10  21  40  64  93 127 162 214 264 316 371
#     4  10  22  36  61  96 128 163 208 263 315 367
#     4  11  22  43  65  92 127 165 208 264 312 376
#     4  11  25  43  61  91 129 172 213 255 313 390
#     4  10  21  39  59  87 131 170 208 255 311 381
#
# _framework density 24.922440000000002
#
# number of rings (size 3 to 8) (size 9 to 14) (size 15 to 20)
#    0.000    1.500    3.750    2.250    1.750    3.500 
#    4.500    3.750    0.000    0.000    0.000    0.000 
#    0.000    0.000    0.000    0.000    0.000    0.000 
#
# Total GULP energy -178625.520038 kJ/mol
# GULP energy per Si atom -5582.047501 kJ/mol
# Density = 2.486572 g / cm^3
# Si number density = 24.922440 Si / 1000 Ang^3
#
#
#
# Elastic Constant Matrix: (Units=GPa)
#
#
# Indices 1 2 3 4 5 6 
#
# 1 70.6314 -9.2099 6.4838 0.0000 -0.7642 0.0000
# 2 -9.2099 77.1642 21.8587 0.0000 26.1345 0.0000
# 3 6.4838 21.8587 39.2269 0.0000 13.5987 0.0000
# 4 0.0000 0.0000 0.0000 32.6815 0.0000 13.4486
# 5 -0.7642 26.1345 13.5987 0.0000 28.8123 0.0000
# 6 0.0000 0.0000 0.0000 13.4486 0.0000 26.7841
#
#
#
# Elastic Compliance Matrix: (Units=1/GPa)
#
#
# Indices 1 2 3 4 5 6 
#
# 1 0.014924 0.003092 -0.004011 0.000000 -0.000516 0.000000
# 2 0.003092 0.020367 -0.006557 0.000000 -0.015297 0.000000
# 3 -0.004011 -0.006557 0.033220 0.000000 -0.009838 0.000000
# 4 0.000000 0.000000 0.000000 0.038567 0.000000 -0.019365
# 5 -0.000516 -0.015297 -0.009838 0.000000 0.053212 0.000000
# 6 0.000000 0.000000 0.000000 -0.019365 0.000000 0.047059
#
#
# Mechanical properties :
#
#
# Convention : Reuss Voigt Hill
#
# Bulk Modulus (GPa) = 18.67117 25.03197 21.85157
# Shear Modulus (GPa) = 20.81996 28.84825 24.83410
#
# Velocity S-wave (km/s) = 2.89345 3.40593 3.16009
# Velocity P-wave (km/s) = 4.32096 5.05301 4.70125
#
# Compressibility (1/GPa) = 0.05355850
#
# Stress axis : x y z
#
# Youngs Moduli (GPa) = 67.00691 49.09938 30.10231
#
# Poissons Ratio (x) = -0.15182 0.12074
# Poissons Ratio (y) = -0.20720 0.19739
# Poissons Ratio (z) = 0.26877 0.32196
#
# Static dielectric constant tensor:
#      x y z
#    x 2.028120 0.000000 -0.033550 
#    y 0.000000 1.989740 0.000000 
#    z -0.033550 0.000000 1.933190 
# 
# From -- ./inp_files/296174.got.cif
#   From: 2010.05.17/outbox.cif.g08.bks.cpg/sg15_149_cif.got.tgz:296174.got - 2010.06.03 18:47:42.
