data_PCOD9267868
_publ_section_title
;
Structure prediction by ZEFSAII (Michael W. Deem and Ramdas Pophale) SiO2 
 PCOD9267868
Probable space group: C 2/C
;
_chemical_formula_sum "Si O2"
_cell_formula_units_Z 60
_cell_length_a 21.956083
_cell_length_b 24.300550
_cell_length_c 8.114381
_cell_angle_alpha 90.000000
_cell_angle_beta 42.847793
_cell_angle_gamma 90.000000
_cell_volume 2944.212760
_symmetry_space_group_name_H-M "C 2/C"
_symmetry_group_IT_number 15
_symmetry_cell_setting 'monoclinic'
loop_
_space_group_symop_operation_xyz
x,y,z
-x,y,1/2-z
-x,-y,-z
x,-y,1/2+z
1/2+x,1/2+y,z
1/2-x,1/2+y,1/2-z
1/2-x,1/2-y,-z
1/2+x,1/2-y,1/2+z
loop_
_atom_site_type_symbol
_atom_site_label
_atom_site_fract_x
_atom_site_fract_y
_atom_site_fract_z
Si Si1 0.710640 0.498682 0.352805
Si Si2 0.238388 0.322228 0.913500
Si Si3 0.213933 0.885184 0.010194
Si Si4 0.909274 0.249531 0.184113
Si Si5 0.500000 0.166974 0.250000
Si Si6 0.811534 0.610430 0.651504
Si Si7 0.083147 0.957681 0.832874
Si Si8 0.987623 0.845529 0.088598
O O1 0.722235 0.549765 0.454652
O O2 0.791846 0.455494 0.195062
O O3 0.625540 0.460308 0.569237
O O4 0.668724 0.528157 0.276525
O O5 0.248427 0.356722 0.728090
O O6 0.327061 0.283784 0.755870
O O7 0.149333 0.285002 0.074016
O O8 0.223110 0.359051 0.111388
O O9 0.259876 0.870088 0.090423
O O10 0.111811 0.866892 0.232741
O O11 0.968334 0.292034 0.959424
O O12 0.976829 0.201578 0.101388
O O13 0.413345 0.127720 0.412559
O O14 0.049412 0.898778 0.951566
O O15 0.000000 0.000000 0.000000
O O16 0.000000 0.823455 0.250000
#
# Coordination Sequence:
#
# PCOD9267868 Si02
#       8
#     8   8   8   8   4   8   8   8
#     4  12  21  37  58  90 130 168 207 256 313 383
#     4  10  22  41  67  94 129 169 213 269 320 375
#     4  12  23  40  66  94 134 167 213 261 321 391
#     4  10  19  40  68  90 125 176 213 262 330 369
#     4  10  22  46  68  86 128 168 224 280 314 370
#     4  11  25  43  65  95 126 171 218 266 325 378
#     4  12  21  34  58  93 133 170 200 247 313 389
#     4  12  19  35  63  95 128 171 207 248 321 390
#
# _framework density 20.378962000000001
#
# number of rings (size 3 to 8) (size 9 to 14) (size 15 to 20)
#    0.000    0.800    6.000    2.000    0.000    0.000 
#    0.000   17.333    0.000    0.000    0.000    0.000 
#    0.000    0.000    0.000    0.000    0.000    0.000 
#
# Total GULP energy -167250.198800 kJ/mol
# GULP energy per Si atom -5575.006627 kJ/mol
# Density = 2.033258 g / cm^3
# Si number density = 20.378962 Si / 1000 Ang^3
#
#
#
# Elastic Constant Matrix: (Units=GPa)
#
#
# Indices 1 2 3 4 5 6 
#
# 1 69.7275 38.0699 36.9448 0.0000 4.9807 0.0000
# 2 38.0699 134.7795 75.1805 0.0000 -18.5134 0.0000
# 3 36.9448 75.1805 137.2193 0.0000 -11.2404 0.0000
# 4 0.0000 0.0000 0.0000 48.1201 0.0000 -2.3394
# 5 4.9807 -18.5134 -11.2404 0.0000 27.7428 0.0000
# 6 0.0000 0.0000 0.0000 -2.3394 0.0000 10.3234
#
#
#
# Elastic Compliance Matrix: (Units=1/GPa)
#
#
# Indices 1 2 3 4 5 6 
#
# 1 0.019185 -0.004696 -0.003239 0.000000 -0.007891 0.000000
# 2 -0.004696 0.012526 -0.005011 0.000000 0.007172 0.000000
# 3 -0.003239 -0.005011 0.011045 0.000000 0.001713 0.000000
# 4 0.000000 0.000000 0.000000 0.021013 0.000000 0.004762
# 5 -0.007891 0.007172 0.001713 0.000000 0.042942 0.000000
# 6 0.000000 0.000000 0.000000 0.004762 0.000000 0.097947
#
#
# Mechanical properties :
#
#
# Convention : Reuss Voigt Hill
#
# Bulk Modulus (GPa) = 59.29531 71.34632 65.32081
# Shear Modulus (GPa) = 21.17093 30.00597 25.58845
#
# Velocity S-wave (km/s) = 3.22664 3.84135 3.54733
# Velocity P-wave (km/s) = 6.56057 7.40003 6.99291
#
# Compressibility (1/GPa) = 0.01686474
#
# Stress axis : x y z
#
# Youngs Moduli (GPa) = 52.12303 79.83111 90.53536
#
# Poissons Ratio (x) = 0.37492 0.29322
# Poissons Ratio (y) = 0.24479 0.45368
# Poissons Ratio (z) = 0.16881 0.40004
#
# Static dielectric constant tensor:
#      x y z
#    x 1.768970 0.000000 0.033610 
#    y 0.000000 1.830010 0.000000 
#    z 0.033610 0.000000 1.768600 
# 
# From -- ./inp_files/58751.got.cif
#   From: 2010.05.17/outbox.cif.g08.bks.cpg/sg15_30_cif.got.tgz:58751.got - 2010.06.03 18:47:42.
