data_PCOD9267389
_publ_section_title
;
Structure prediction by ZEFSAII (Michael W. Deem and Ramdas Pophale) SiO2 
 PCOD9267389
Probable space group: C 2/C
;
_chemical_formula_sum "Si O2"
_cell_formula_units_Z 48
_cell_length_a 19.447976
_cell_length_b 12.960039
_cell_length_c 9.854938
_cell_angle_alpha 90.000000
_cell_angle_beta 100.609311
_cell_angle_gamma 90.000000
_cell_volume 2441.441680
_symmetry_space_group_name_H-M "C 2/C"
_symmetry_group_IT_number 15
_symmetry_cell_setting 'monoclinic'
loop_
_space_group_symop_operation_xyz
x,y,z
-x,y,1/2-z
-x,-y,-z
x,-y,1/2+z
1/2+x,1/2+y,z
1/2-x,1/2+y,1/2-z
1/2-x,1/2-y,-z
1/2+x,1/2-y,1/2+z
loop_
_atom_site_type_symbol
_atom_site_label
_atom_site_fract_x
_atom_site_fract_y
_atom_site_fract_z
Si Si1 0.933898 0.710413 0.628449
Si Si2 0.314258 0.375330 0.576292
Si Si3 0.284834 0.730285 0.786949
Si Si4 0.358276 0.005257 0.701317
Si Si5 0.733804 0.067839 0.577806
Si Si6 0.060561 0.681927 0.179678
O O1 0.887622 0.815260 0.616128
O O2 0.883558 0.615096 0.652019
O O3 0.958990 0.687053 0.485077
O O4 0.000000 0.716124 0.750000
O O5 0.288551 0.351386 0.413349
O O6 0.262040 0.319888 0.664005
O O7 0.303315 0.496525 0.595507
O O8 0.252356 0.679683 0.641874
O O9 0.363648 0.764492 0.786526
O O10 0.308434 0.946463 0.576374
O O11 0.423675 0.932790 0.760182
O O12 0.317311 0.022879 0.825451
O O13 0.000000 0.729014 0.250000
#
# Coordination Sequence:
#
# PCOD9267389 Si02
#       6
#     8   8   8   8   8   8
#     4  11  24  41  61  85 123 166 195 238 306 361
#     4  10  19  39  62  85 120 159 198 242 298 354
#     4  10  20  39  62  85 122 158 196 247 296 350
#     4  12  22  37  63  93 122 155 195 250 304 356
#     4  12  21  38  65  94 118 154 201 249 300 347
#     4  11  25  41  58  89 125 159 199 244 295 360
#
# _framework density 19.660515
#
# number of rings (size 3 to 8) (size 9 to 14) (size 15 to 20)
#    0.000    1.000    6.667    1.500    2.333    2.000 
#    3.000    0.833    0.000    4.000    0.000    0.000 
#    0.000    0.000    0.000    0.000    0.000    0.000 
#
# Total GULP energy -134032.030775 kJ/mol
# GULP energy per Si atom -5584.667949 kJ/mol
# Density = 1.961577 g / cm^3
# Si number density = 19.660515 Si / 1000 Ang^3
#
#
#
# Elastic Constant Matrix: (Units=GPa)
#
#
# Indices 1 2 3 4 5 6 
#
# 1 83.4867 14.7256 47.7913 0.0000 4.7210 0.0000
# 2 14.7256 26.8858 20.4002 0.0000 -4.8646 0.0000
# 3 47.7913 20.4002 108.5339 0.0000 6.4413 0.0000
# 4 0.0000 0.0000 0.0000 20.4023 0.0000 6.4711
# 5 4.7210 -4.8646 6.4413 0.0000 38.8416 0.0000
# 6 0.0000 0.0000 0.0000 6.4711 0.0000 12.2719
#
#
#
# Elastic Compliance Matrix: (Units=1/GPa)
#
#
# Indices 1 2 3 4 5 6 
#
# 1 0.016475 -0.004505 -0.006318 0.000000 -0.001519 0.000000
# 2 -0.004505 0.046498 -0.007205 0.000000 0.007566 0.000000
# 3 -0.006318 -0.007205 0.013491 0.000000 -0.002372 0.000000
# 4 0.000000 0.000000 0.000000 0.058858 0.000000 -0.031036
# 5 -0.001519 0.007566 -0.002372 0.000000 0.027271 0.000000
# 6 0.000000 0.000000 0.000000 -0.031036 0.000000 0.097853
#
#
# Mechanical properties :
#
#
# Convention : Reuss Voigt Hill
#
# Bulk Modulus (GPa) = 24.74743 42.74894 33.74818
# Shear Modulus (GPa) = 16.13062 23.36911 19.74986
#
# Velocity S-wave (km/s) = 2.86747 3.45139 3.17289
# Velocity P-wave (km/s) = 4.85571 6.13788 5.53405
#
# Compressibility (1/GPa) = 0.04040824
#
# Stress axis : x y z
#
# Youngs Moduli (GPa) = 60.69859 21.50644 74.12535
#
# Poissons Ratio (x) = 0.09688 0.46830
# Poissons Ratio (y) = 0.27342 0.53409
# Poissons Ratio (z) = 0.38347 0.15496
#
# Static dielectric constant tensor:
#      x y z
#    x 1.671740 0.000000 0.004630 
#    y 0.000000 1.733400 0.000000 
#    z 0.004630 0.000000 1.682110 
# 
# From -- ./inp_files/47466.got.cif
#   From: 2010.05.17/outbox.cif.g08.bks.cpg/sg15_24_cif.got.tgz:47466.got - 2010.06.03 18:47:42.
