data_PCOD9267952
_publ_section_title
;
Structure prediction by ZEFSAII (Michael W. Deem and Ramdas Pophale) SiO2 
 PCOD9267952
Probable space group: C 2/C
;
_chemical_formula_sum "Si O2"
_cell_formula_units_Z 52
_cell_length_a 16.974452
_cell_length_b 8.670503
_cell_length_c 14.682183
_cell_angle_alpha 90.000000
_cell_angle_beta 63.657483
_cell_angle_gamma 90.000000
_cell_volume 1936.488768
_symmetry_space_group_name_H-M "C 2/C"
_symmetry_group_IT_number 15
_symmetry_cell_setting 'monoclinic'
loop_
_space_group_symop_operation_xyz
x,y,z
-x,y,1/2-z
-x,-y,-z
x,-y,1/2+z
1/2+x,1/2+y,z
1/2-x,1/2+y,1/2-z
1/2-x,1/2-y,-z
1/2+x,1/2-y,1/2+z
loop_
_atom_site_type_symbol
_atom_site_label
_atom_site_fract_x
_atom_site_fract_y
_atom_site_fract_z
Si Si1 0.258732 0.096451 0.379117
Si Si2 0.254539 0.913067 0.546191
Si Si3 0.450100 0.459320 0.866007
Si Si4 0.263949 0.270797 0.208327
Si Si5 0.500000 0.089876 0.250000
Si Si6 0.062526 0.332475 0.351913
Si Si7 0.418590 0.249843 0.462898
O O1 0.301910 0.216875 0.286017
O O2 0.179841 0.196127 0.462483
O O3 0.301396 0.020395 0.447974
O O4 0.223880 0.943638 0.339549
O O5 0.250000 0.750000 0.500000
O O6 0.153216 0.962566 0.604002
O O7 0.292121 0.865817 0.624435
O O8 0.500000 0.504328 0.750000
O O9 0.485153 0.289611 0.871394
O O10 0.468172 0.584540 0.934515
O O11 0.158019 0.261140 0.277576
O O12 0.444964 0.186753 0.351071
O O13 0.553799 0.976185 0.289429
O O14 0.058061 0.355242 0.462750
#
# Coordination Sequence:
#
# PCOD9267952 Si02
#       7
#     8   8   8   8   4   8   8
#     4   9  21  39  62  89 120 164 209 256 309 374
#     4   9  18  35  60  89 122 162 204 253 312 369
#     4  11  18  37  64  92 122 167 210 253 307 372
#     4  10  19  41  62  87 127 166 209 261 311 372
#     4  12  22  40  62  92 132 160 202 264 316 374
#     4  11  22  39  64  91 125 170 208 258 319 371
#     4  10  23  40  61  93 129 163 212 257 310 378
#
# _framework density 26.852725
#
# number of rings (size 3 to 8) (size 9 to 14) (size 15 to 20)
#    0.000    1.846    3.077    0.923    0.000    0.000 
#    0.000   30.769    0.000    0.000    0.000    0.000 
#    0.000    0.000    0.000    0.000    0.000    0.000 
#
# Total GULP energy -145312.242548 kJ/mol
# GULP energy per Si atom -5588.932406 kJ/mol
# Density = 2.679161 g / cm^3
# Si number density = 26.852725 Si / 1000 Ang^3
#
#
#
# Elastic Constant Matrix: (Units=GPa)
#
#
# Indices 1 2 3 4 5 6 
#
# 1 46.2249 34.1722 41.8222 0.0000 10.7103 0.0000
# 2 34.1722 140.4015 82.5108 0.0000 12.3004 0.0000
# 3 41.8222 82.5108 226.1768 0.0000 35.2388 0.0000
# 4 0.0000 0.0000 0.0000 75.9847 0.0000 3.7695
# 5 10.7103 12.3004 35.2388 0.0000 34.5838 0.0000
# 6 0.0000 0.0000 0.0000 3.7695 0.0000 36.2880
#
#
#
# Elastic Compliance Matrix: (Units=1/GPa)
#
#
# Indices 1 2 3 4 5 6 
#
# 1 0.028889 -0.004975 -0.002863 0.000000 -0.004260 0.000000
# 2 -0.004975 0.009924 -0.002842 0.000000 0.000907 0.000000
# 3 -0.002863 -0.002842 0.006766 0.000000 -0.004997 0.000000
# 4 0.000000 0.000000 0.000000 0.013229 0.000000 -0.001374
# 5 -0.004260 0.000907 -0.004997 0.000000 0.035003 0.000000
# 6 0.000000 0.000000 0.000000 -0.001374 0.000000 0.027700
#
#
# Mechanical properties :
#
#
# Convention : Reuss Voigt Hill
#
# Bulk Modulus (GPa) = 41.29086 81.09038 61.19062
# Shear Modulus (GPa) = 33.12494 46.32450 39.72472
#
# Velocity S-wave (km/s) = 3.51604 4.15798 3.85041
# Velocity P-wave (km/s) = 5.64744 7.30174 6.52721
#
# Compressibility (1/GPa) = 0.02421844
#
# Stress axis : x y z
#
# Youngs Moduli (GPa) = 34.61539 100.76693 147.80161
#
# Poissons Ratio (x) = 0.50136 0.42316
# Poissons Ratio (y) = 0.17223 0.41998
# Poissons Ratio (z) = 0.09911 0.28633
#
# Static dielectric constant tensor:
#      x y z
#    x 1.981250 0.000000 0.020450 
#    y 0.000000 2.100580 0.000000 
#    z 0.020450 0.000000 2.112670 
# 
# From -- ./inp_files/171755.got.cif
#   From: 2010.05.17/outbox.cif.g08.bks.cpg/sg15_86_cif.got.tgz:171755.got - 2010.06.03 18:47:42.
