data_PCOD9267496
_publ_section_title
;
Structure prediction by ZEFSAII (Michael W. Deem and Ramdas Pophale) SiO2 
 PCOD9267496
Probable space group: C 2/C
;
_chemical_formula_sum "Si O2"
_cell_formula_units_Z 64
_cell_length_a 22.226459
_cell_length_b 18.846399
_cell_length_c 13.878089
_cell_angle_alpha 90.000000
_cell_angle_beta 147.378046
_cell_angle_gamma 90.000000
_cell_volume 3133.952878
_symmetry_space_group_name_H-M "C 2/C"
_symmetry_group_IT_number 15
_symmetry_cell_setting 'monoclinic'
loop_
_space_group_symop_operation_xyz
x,y,z
-x,y,1/2-z
-x,-y,-z
x,-y,1/2+z
1/2+x,1/2+y,z
1/2-x,1/2+y,1/2-z
1/2-x,1/2-y,-z
1/2+x,1/2-y,1/2+z
loop_
_atom_site_type_symbol
_atom_site_label
_atom_site_fract_x
_atom_site_fract_y
_atom_site_fract_z
Si Si1 0.902016 0.178767 0.039748
Si Si2 0.591533 0.667242 0.789167
Si Si3 0.299208 0.914660 0.661078
Si Si4 0.541954 0.031101 0.701498
Si Si5 0.157810 0.345613 0.239249
Si Si6 0.086474 0.062154 0.608941
Si Si7 0.301792 0.977834 0.323105
Si Si8 0.431812 0.780371 0.900471
O O1 0.000000 0.187961 0.250000
O O2 0.782218 0.178856 0.931638
O O3 0.918773 0.106537 0.998762
O O4 0.896207 0.238751 0.948722
O O5 0.500000 0.673499 0.750000
O O6 0.558827 0.614480 0.658711
O O7 0.603398 0.740229 0.745186
O O8 0.703233 0.632282 0.983131
O O9 0.249491 0.973467 0.667753
O O10 0.377791 0.858004 0.821615
O O11 0.376851 0.962856 0.696424
O O12 0.500000 0.048441 0.750000
O O13 0.604441 0.098945 0.742397
O O14 0.425406 0.009533 0.495288
O O15 0.176770 0.395834 0.172617
O O16 0.065887 0.287487 0.089843
O O17 0.210149 0.027190 0.782532
O O18 0.000000 0.000000 0.500000
#
# Coordination Sequence:
#
# PCOD9267496 Si02
#       8
#     8   8   8   8   8   8   8   8
#     4  10  25  43  65  92 128 173 216 261 326 387
#     4  11  25  40  60  97 129 173 220 253 322 393
#     4  11  21  40  62  93 131 163 212 273 321 386
#     4  11  21  36  64 100 122 162 218 272 336 380
#     4  10  21  43  64  88 129 165 211 269 325 375
#     4  10  22  41  65  93 131 166 212 271 326 387
#     4  10  19  39  64  92 125 165 210 272 334 373
#     4  11  23  43  64  91 131 173 215 264 319 385
#
# _framework density 20.421493999999999
#
# number of rings (size 3 to 8) (size 9 to 14) (size 15 to 20)
#    0.000    1.500    2.500    2.625    1.750    6.000 
#    2.250    0.000    0.000    0.000    0.000    0.000 
#    0.000    0.000    0.000    0.000    0.000    0.000 
#
# Total GULP energy -178401.091052 kJ/mol
# GULP energy per Si atom -5575.034095 kJ/mol
# Density = 2.037501 g / cm^3
# Si number density = 20.421494 Si / 1000 Ang^3
#
#
#
# Elastic Constant Matrix: (Units=GPa)
#
#
# Indices 1 2 3 4 5 6 
#
# 1 89.9902 13.1431 13.5506 0.0000 14.0616 0.0000
# 2 13.1431 35.4725 3.1142 0.0000 11.1164 0.0000
# 3 13.5506 3.1142 71.6095 0.0000 4.7914 0.0000
# 4 0.0000 0.0000 0.0000 27.9709 0.0000 8.2881
# 5 14.0616 11.1164 4.7914 0.0000 23.0789 0.0000
# 6 0.0000 0.0000 0.0000 8.2881 0.0000 5.5416
#
#
#
# Elastic Compliance Matrix: (Units=1/GPa)
#
#
# Indices 1 2 3 4 5 6 
#
# 1 0.012735 -0.002643 -0.001887 0.000000 -0.006094 0.000000
# 2 -0.002643 0.033761 0.000012 0.000000 -0.014654 0.000000
# 3 -0.001887 0.000012 0.014445 0.000000 -0.001855 0.000000
# 4 0.000000 0.000000 0.000000 0.064204 0.000000 -0.096024
# 5 -0.006094 -0.014654 -0.001855 0.000000 0.054486 0.000000
# 6 0.000000 0.000000 0.000000 -0.096024 0.000000 0.324067
#
#
# Mechanical properties :
#
#
# Convention : Reuss Voigt Hill
#
# Bulk Modulus (GPa) = 19.26557 28.52090 23.89324
# Shear Modulus (GPa) = 9.43332 22.46926 15.95129
#
# Velocity S-wave (km/s) = 2.15159 3.32064 2.79785
# Velocity P-wave (km/s) = 3.95309 5.35711 4.70773
#
# Compressibility (1/GPa) = 0.05190606
#
# Stress axis : x y z
#
# Youngs Moduli (GPa) = 78.52539 29.61978 69.22665
#
# Poissons Ratio (x) = 0.07828 0.13064
# Poissons Ratio (y) = 0.20754 -0.00086
# Poissons Ratio (z) = 0.14818 -0.00037
#
# Static dielectric constant tensor:
#      x y z
#    x 1.727160 0.000000 -0.001310 
#    y 0.000000 1.743300 0.000000 
#    z -0.001310 0.000000 1.671060 
# 
# From -- ./inp_files/174255.got.cif
#   From: 2010.05.17/outbox.cif.g08.bks.cpg/sg15_88_cif.got.tgz:174255.got - 2010.06.03 18:47:42.
