data_PCOD9267096
_publ_section_title
;
Structure prediction by ZEFSAII (Michael W. Deem and Ramdas Pophale) SiO2 
 PCOD9267096
Probable space group: C 2/C
;
_chemical_formula_sum "Si O2"
_cell_formula_units_Z 56
_cell_length_a 20.596160
_cell_length_b 14.724699
_cell_length_c 19.351766
_cell_angle_alpha 90.000000
_cell_angle_beta 29.837911
_cell_angle_gamma 90.000000
_cell_volume 2920.036607
_symmetry_space_group_name_H-M "C 2/C"
_symmetry_group_IT_number 15
_symmetry_cell_setting 'monoclinic'
loop_
_space_group_symop_operation_xyz
x,y,z
-x,y,1/2-z
-x,-y,-z
x,-y,1/2+z
1/2+x,1/2+y,z
1/2-x,1/2+y,1/2-z
1/2-x,1/2-y,-z
1/2+x,1/2-y,1/2+z
loop_
_atom_site_type_symbol
_atom_site_label
_atom_site_fract_x
_atom_site_fract_y
_atom_site_fract_z
Si Si1 0.118319 0.701053 0.605667
Si Si2 0.837132 0.493940 0.363169
Si Si3 0.602418 0.631298 0.373092
Si Si4 0.604002 0.168994 0.921877
Si Si5 0.889880 0.441991 0.952386
Si Si6 0.356090 0.128347 0.062243
Si Si7 0.314311 0.558248 0.632810
O O1 0.250000 0.750000 0.500000
O O2 0.130125 0.602776 0.631492
O O3 0.094033 0.688830 0.547324
O O4 0.000000 0.752540 0.750000
O O5 0.805149 0.555081 0.460141
O O6 0.738430 0.469755 0.393633
O O7 0.962683 0.539171 0.210281
O O8 0.612338 0.722690 0.408429
O O9 0.706676 0.651350 0.216526
O O10 0.450394 0.612239 0.499163
O O11 0.656107 0.537438 0.356474
O O12 0.708907 0.117392 0.774539
O O13 0.622528 0.141017 0.984247
O O14 0.459429 0.138995 0.028701
O O15 0.857448 0.526911 0.031540
#
# Coordination Sequence:
#
# PCOD9267096 Si02
#       7
#     8   8   8   8   8   8   8
#     4  11  23  35  54  89 128 159 203 248 307 385
#     4  10  20  40  62  87 120 167 205 257 314 358
#     4  11  26  38  61  97 127 163 208 259 329 371
#     4  12  22  39  68  92 120 165 220 260 307 375
#     4  10  19  38  65  90 117 160 219 259 298 369
#     4  11  21  38  60  88 122 162 209 252 303 376
#     4  11  23  43  61  88 137 161 200 273 316 376
#
# _framework density 19.177841999999998
#
# number of rings (size 3 to 8) (size 9 to 14) (size 15 to 20)
#    0.000    1.143    5.714    2.143    6.000    0.000 
#    0.000    2.857    0.000    0.000    0.000    0.000 
#    0.000    0.000    0.000    0.000    0.000    0.000 
#
# Total GULP energy -156147.753167 kJ/mol
# GULP energy per Si atom -5576.705470 kJ/mol
# Density = 1.913419 g / cm^3
# Si number density = 19.177842 Si / 1000 Ang^3
#
#
#
# Elastic Constant Matrix: (Units=GPa)
#
#
# Indices 1 2 3 4 5 6 
#
# 1 102.9854 23.0370 44.7250 -0.0001 5.7256 0.0000
# 2 23.0370 83.7255 34.5755 -0.0002 3.7179 0.0001
# 3 44.7250 34.5755 117.7001 -0.0002 -2.7921 0.0000
# 4 -0.0001 -0.0002 -0.0002 4.4864 0.0001 -1.7221
# 5 5.7256 3.7179 -2.7921 0.0001 27.6524 0.0000
# 6 0.0000 0.0001 0.0000 -1.7221 0.0000 24.0257
#
#
#
# Elastic Compliance Matrix: (Units=1/GPa)
#
#
# Indices 1 2 3 4 5 6 
#
# 1 0.012010 -0.001448 -0.004203 0.000000 -0.002716 0.000000
# 2 -0.001448 0.013907 -0.003581 0.000001 -0.001931 0.000000
# 3 -0.004203 -0.003581 0.011204 0.000000 0.002483 0.000000
# 4 0.000000 0.000001 0.000000 0.229203 -0.000001 0.016429
# 5 -0.002716 -0.001931 0.002483 -0.000001 0.037236 0.000000
# 6 0.000000 0.000000 0.000000 0.016429 0.000000 0.042800
#
#
# Mechanical properties :
#
#
# Convention : Reuss Voigt Hill
#
# Bulk Modulus (GPa) = 53.59830 56.56512 55.08171
# Shear Modulus (GPa) = 13.47554 24.70447 19.09001
#
# Velocity S-wave (km/s) = 2.65365 3.59301 3.15845
# Velocity P-wave (km/s) = 6.11538 6.83901 6.48729
#
# Compressibility (1/GPa) = 0.01865731
#
# Stress axis : x y z
#
# Youngs Moduli (GPa) = 83.26157 71.90741 89.25422
#
# Poissons Ratio (x) = 0.10415 0.37512
# Poissons Ratio (y) = 0.12060 0.31959
# Poissons Ratio (z) = 0.34993 0.25748
#
# Static dielectric constant tensor:
#      x y z
#    x 1.691950 0.000000 0.011450 
#    y 0.000000 1.689160 0.000000 
#    z 0.011450 0.000000 1.730600 
# 
# From -- ./inp_files/215696.got.cif
#   From: 2010.05.17/outbox.cif.g08.bks.cpg/sg15_108_cif.got.tgz:215696.got - 2010.06.03 18:47:42.
