data_PCOD9267463
_publ_section_title
;
Structure prediction by ZEFSAII (Michael W. Deem and Ramdas Pophale) SiO2 
 PCOD9267463
Probable space group: C 2/C
;
_chemical_formula_sum "Si O2"
_cell_formula_units_Z 56
_cell_length_a 5.429444
_cell_length_b 29.477892
_cell_length_c 19.087459
_cell_angle_alpha 90.000000
_cell_angle_beta 116.312283
_cell_angle_gamma 90.000000
_cell_volume 2738.404450
_symmetry_space_group_name_H-M "C 2/C"
_symmetry_group_IT_number 15
_symmetry_cell_setting 'monoclinic'
loop_
_space_group_symop_operation_xyz
x,y,z
-x,y,1/2-z
-x,-y,-z
x,-y,1/2+z
1/2+x,1/2+y,z
1/2-x,1/2+y,1/2-z
1/2-x,1/2-y,-z
1/2+x,1/2-y,1/2+z
loop_
_atom_site_type_symbol
_atom_site_label
_atom_site_fract_x
_atom_site_fract_y
_atom_site_fract_z
Si Si1 0.657278 0.857127 0.837202
Si Si2 0.091027 0.611912 0.579461
Si Si3 0.287458 0.477156 0.059377
Si Si4 0.012824 0.225037 0.090372
Si Si5 0.966940 0.932723 0.549529
Si Si6 0.926664 0.314742 0.537143
Si Si7 0.166715 0.686880 0.698363
O O1 0.500000 0.872638 0.750000
O O2 0.838787 0.812823 0.842069
O O3 0.849173 0.895503 0.891815
O O4 0.474867 0.841948 0.880869
O O5 0.808423 0.593098 0.510285
O O6 0.187010 0.649446 0.534013
O O7 0.260376 0.565100 0.608054
O O8 0.081194 0.639902 0.649723
O O9 0.446537 0.523166 0.097215
O O10 0.407120 0.453275 0.005423
O O11 0.000000 0.500000 0.000000
O O12 0.075142 0.272807 0.134153
O O13 0.693135 0.211978 0.043460
O O14 0.180072 0.214756 0.039636
O O15 0.500000 0.688341 0.750000
O O16 0.000000 0.692074 0.750000
#
# Coordination Sequence:
#
# PCOD9267463 Si02
#       7
#     8   8   8   8   8   8   8
#     4  10  21  35  62  95 138 169 209 273 332 404
#     4  11  22  42  68  93 132 169 227 288 320 401
#     4   9  19  36  69  90 125 166 223 272 330 404
#     4  10  22  40  61  91 134 170 223 257 320 402
#     4  10  19  39  64 100 124 173 223 264 346 400
#     4  10  21  38  65  97 125 170 221 264 334 378
#     4  12  29  45  67  96 133 187 230 267 337 393
#
# _framework density 20.449866
#
# number of rings (size 3 to 8) (size 9 to 14) (size 15 to 20)
#    0.857    0.857    2.857    1.286    4.000    1.143 
#    0.000    0.000    9.429    0.000    0.000    0.000 
#    0.000    0.000    0.000    0.000    0.000    0.000 
#
# Total GULP energy -156001.847113 kJ/mol
# GULP energy per Si atom -5571.494540 kJ/mol
# Density = 2.040332 g / cm^3
# Si number density = 20.449866 Si / 1000 Ang^3
#
#
#
# Elastic Constant Matrix: (Units=GPa)
#
#
# Indices 1 2 3 4 5 6 
#
# 1 106.1291 50.2122 25.6054 0.0000 -9.4336 0.0000
# 2 50.2122 164.9114 32.8995 0.0000 -6.2517 0.0000
# 3 25.6054 32.8995 54.3981 0.0000 -2.2133 0.0000
# 4 0.0000 0.0000 0.0000 7.5936 0.0000 -10.9458
# 5 -9.4336 -6.2517 -2.2133 0.0000 24.9626 0.0000
# 6 0.0000 0.0000 0.0000 -10.9458 0.0000 31.6294
#
#
#
# Elastic Compliance Matrix: (Units=1/GPa)
#
#
# Indices 1 2 3 4 5 6 
#
# 1 0.011954 -0.002744 -0.003825 0.000000 0.003491 0.000000
# 2 -0.002744 0.007572 -0.003265 0.000000 0.000570 0.000000
# 3 -0.003825 -0.003265 0.022146 0.000000 -0.000300 0.000000
# 4 0.000000 0.000000 0.000000 0.262771 0.000000 0.090936
# 5 0.003491 0.000570 -0.000300 0.000000 0.041495 0.000000
# 6 0.000000 0.000000 0.000000 0.090936 0.000000 0.063086
#
#
# Mechanical properties :
#
#
# Convention : Reuss Voigt Hill
#
# Bulk Modulus (GPa) = 45.44637 60.31921 52.88279
# Shear Modulus (GPa) = 11.46718 27.28522 19.37620
#
# Velocity S-wave (km/s) = 2.37058 3.65670 3.08148
# Velocity P-wave (km/s) = 5.45568 6.88395 6.21101
#
# Compressibility (1/GPa) = 0.02200396
#
# Stress axis : x y z
#
# Youngs Moduli (GPa) = 83.65358 132.05895 45.15538
#
# Poissons Ratio (x) = 0.36242 0.17272
# Poissons Ratio (y) = 0.22957 0.14742
# Poissons Ratio (z) = 0.31998 0.43114
#
# Static dielectric constant tensor:
#      x y z
#    x 1.810750 0.000000 -0.024770 
#    y 0.000000 1.674340 0.000000 
#    z -0.024770 0.000000 1.721000 
# 
# From -- ./inp_files/186217.got.cif
#   From: 2010.05.17/outbox.cif.g08.bks.cpg/sg15_94_cif.got.tgz:186217.got - 2010.06.03 18:47:42.
