data_PCOD9267494
_publ_section_title
;
Structure prediction by ZEFSAII (Michael W. Deem and Ramdas Pophale) SiO2 
 PCOD9267494
Probable space group: C 2/C
;
_chemical_formula_sum "Si O2"
_cell_formula_units_Z 64
_cell_length_a 7.217794
_cell_length_b 15.065047
_cell_length_c 23.957343
_cell_angle_alpha 90.000000
_cell_angle_beta 83.658639
_cell_angle_gamma 90.000000
_cell_volume 2589.096413
_symmetry_space_group_name_H-M "C 2/C"
_symmetry_group_IT_number 15
_symmetry_cell_setting 'monoclinic'
loop_
_space_group_symop_operation_xyz
x,y,z
-x,y,1/2-z
-x,-y,-z
x,-y,1/2+z
1/2+x,1/2+y,z
1/2-x,1/2+y,1/2-z
1/2-x,1/2-y,-z
1/2+x,1/2-y,1/2+z
loop_
_atom_site_type_symbol
_atom_site_label
_atom_site_fract_x
_atom_site_fract_y
_atom_site_fract_z
Si Si1 0.528172 0.172755 0.315094
Si Si2 0.778829 0.445159 0.261428
Si Si3 0.138417 0.366698 0.465163
Si Si4 0.156325 0.280585 0.159578
Si Si5 0.746142 0.603686 0.944133
Si Si6 0.062112 0.842808 0.959670
Si Si7 0.230670 0.158892 0.657549
Si Si8 0.205286 0.056461 0.361733
O O1 0.500000 0.161135 0.250000
O O2 0.742251 0.190830 0.324278
O O3 0.419115 0.263728 0.333579
O O4 0.414755 0.097454 0.352052
O O5 0.775741 0.355196 0.298291
O O6 0.703401 0.418066 0.203712
O O7 0.677688 0.521524 0.299942
O O8 0.000000 0.466879 0.250000
O O9 0.083144 0.262158 0.467234
O O10 0.256489 0.384244 0.515920
O O11 0.261422 0.377729 0.405367
O O12 0.948469 0.417511 0.461993
O O13 0.231811 0.309144 0.096052
O O14 0.933859 0.297704 0.165103
O O15 0.690554 0.527600 0.902841
O O16 0.609775 0.621485 0.999535
O O17 0.072121 0.871571 0.895143
#
# Coordination Sequence:
#
# PCOD9267494 Si02
#       8
#     8   8   8   8   8   8   8   8
#     4  12  22  36  64  97 126 163 213 273 328 375
#     4   9  18  38  64  88 123 170 213 258 326 393
#     4  10  22  39  68 100 124 173 224 272 319 394
#     4   9  20  36  63  92 118 167 220 257 316 394
#     4  10  22  42  66  90 129 182 212 260 338 390
#     4  11  22  41  65  97 137 161 228 274 318 390
#     4  10  19  39  64  92 124 168 220 260 319 398
#     4  11  24  40  61 100 136 170 210 280 333 375
#
# _framework density 24.719048000000001
#
# number of rings (size 3 to 8) (size 9 to 14) (size 15 to 20)
#    0.000    1.750    2.500    2.625    1.750    0.500 
#    0.000    1.250    0.000   16.500    0.000    0.000 
#    0.000    0.000    0.000    0.000    0.000    0.000 
#
# Total GULP energy -179093.622580 kJ/mol
# GULP energy per Si atom -5596.675706 kJ/mol
# Density = 2.466279 g / cm^3
# Si number density = 24.719048 Si / 1000 Ang^3
#
#
#
# Elastic Constant Matrix: (Units=GPa)
#
#
# Indices 1 2 3 4 5 6 
#
# 1 71.3046 16.9046 25.3744 0.0000 -4.5465 0.0000
# 2 16.9046 45.6926 42.8565 0.0000 -5.7397 0.0000
# 3 25.3744 42.8565 141.9144 0.0000 -18.6952 0.0000
# 4 0.0000 0.0000 0.0000 37.1527 0.0000 -6.5753
# 5 -4.5465 -5.7397 -18.6952 0.0000 37.9036 0.0000
# 6 0.0000 0.0000 0.0000 -6.5753 0.0000 19.1906
#
#
#
# Elastic Compliance Matrix: (Units=1/GPa)
#
#
# Indices 1 2 3 4 5 6 
#
# 1 0.015596 -0.004399 -0.001392 0.000000 0.000518 0.000000
# 2 -0.004399 0.031775 -0.008818 0.000000 -0.000065 0.000000
# 3 -0.001392 -0.008818 0.010439 0.000000 0.003646 0.000000
# 4 0.000000 0.000000 0.000000 0.028653 0.000000 0.009818
# 5 0.000518 -0.000065 0.003646 0.000000 0.028234 0.000000
# 6 0.000000 0.000000 0.000000 0.009818 0.000000 0.055473
#
#
# Mechanical properties :
#
#
# Convention : Reuss Voigt Hill
#
# Bulk Modulus (GPa) = 34.97515 47.68695 41.33105
# Shear Modulus (GPa) = 23.93292 30.43445 27.18368
#
# Velocity S-wave (km/s) = 3.11496 3.51267 3.31978
# Velocity P-wave (km/s) = 5.20741 5.98208 5.60814
#
# Compressibility (1/GPa) = 0.02859173
#
# Stress axis : x y z
#
# Youngs Moduli (GPa) = 64.12064 31.47108 95.79879
#
# Poissons Ratio (x) = 0.13845 0.13332
# Poissons Ratio (y) = 0.28209 0.84473
# Poissons Ratio (z) = 0.08924 0.27750
#
# Static dielectric constant tensor:
#      x y z
#    x 1.962910 0.000000 -0.007400 
#    y 0.000000 1.988840 0.000000 
#    z -0.007400 0.000000 1.928070 
# 
# From -- ./inp_files/288711.got.cif
#   From: 2010.05.17/outbox.cif.g08.bks.cpg/sg15_145_cif.got.tgz:288711.got - 2010.06.03 18:47:42.
