data_PCOD9267775
_publ_section_title
;
Structure prediction by ZEFSAII (Michael W. Deem and Ramdas Pophale) SiO2 
 PCOD9267775
Probable space group: C 2/C
;
_chemical_formula_sum "Si O2"
_cell_formula_units_Z 56
_cell_length_a 11.109359
_cell_length_b 13.943029
_cell_length_c 17.583779
_cell_angle_alpha 90.000000
_cell_angle_beta 73.410848
_cell_angle_gamma 90.000000
_cell_volume 2610.324932
_symmetry_space_group_name_H-M "C 2/C"
_symmetry_group_IT_number 15
_symmetry_cell_setting 'monoclinic'
loop_
_space_group_symop_operation_xyz
x,y,z
-x,y,1/2-z
-x,-y,-z
x,-y,1/2+z
1/2+x,1/2+y,z
1/2-x,1/2+y,1/2-z
1/2-x,1/2-y,-z
1/2+x,1/2-y,1/2+z
loop_
_atom_site_type_symbol
_atom_site_label
_atom_site_fract_x
_atom_site_fract_y
_atom_site_fract_z
Si Si1 0.997663 0.790015 0.043553
Si Si2 0.133596 0.038696 0.505798
Si Si3 0.567877 0.916286 0.942784
Si Si4 0.803602 0.022491 0.331883
Si Si5 0.381365 0.663169 0.724681
Si Si6 0.253095 0.136859 0.955157
Si Si7 0.858368 0.244144 0.295615
O O1 0.014180 0.677965 0.058061
O O2 0.937615 0.838231 0.129747
O O3 0.885242 0.818209 0.005569
O O4 0.122290 0.847420 0.999442
O O5 0.156524 0.013933 0.590686
O O6 0.232982 0.976297 0.440522
O O7 0.000000 0.000000 0.500000
O O8 0.652160 0.962049 0.861355
O O9 0.669503 0.870073 0.981806
O O10 0.500000 0.000000 0.000000
O O11 0.854672 0.129211 0.307241
O O12 0.848230 0.941154 0.265187
O O13 0.500000 0.703811 0.750000
O O14 0.252750 0.724600 0.742977
O O15 0.319919 0.196714 0.877935
O O16 0.000000 0.271680 0.250000
#
# Coordination Sequence:
#
# PCOD9267775 Si02
#       7
#     8   8   8   8   8   8   8
#     4  10  19  40  64  94 126 176 221 273 337 398
#     4   9  19  33  67  96 124 162 225 279 326 397
#     4  11  23  39  66  95 135 171 219 284 349 390
#     4  11  22  41  66  97 132 179 227 278 338 408
#     4  11  22  42  68  94 137 178 221 275 337 409
#     4   9  20  39  61  94 125 171 218 276 330 402
#     4  11  25  42  68  98 132 179 232 277 341 412
#
# _framework density 21.453268999999999
#
# number of rings (size 3 to 8) (size 9 to 14) (size 15 to 20)
#    0.000    1.714    4.286    0.857    6.000    0.000 
#    0.000    6.429    3.143    0.000    0.000    0.000 
#    0.000    0.000    0.000    0.000    0.000    0.000 
#
# Total GULP energy -155939.835440 kJ/mol
# GULP energy per Si atom -5569.279837 kJ/mol
# Density = 2.140444 g / cm^3
# Si number density = 21.453269 Si / 1000 Ang^3
#
#
#
# Elastic Constant Matrix: (Units=GPa)
#
#
# Indices 1 2 3 4 5 6 
#
# 1 78.4845 38.1118 12.6738 0.0000 -3.0468 0.0000
# 2 38.1118 157.6094 44.7821 0.0000 -19.0398 0.0000
# 3 12.6738 44.7821 48.8709 0.0000 -1.1046 0.0000
# 4 0.0000 0.0000 0.0000 31.7984 0.0000 -10.4664
# 5 -3.0468 -19.0398 -1.1046 0.0000 34.8241 0.0000
# 6 0.0000 0.0000 0.0000 -10.4664 0.0000 29.6988
#
#
#
# Elastic Compliance Matrix: (Units=1/GPa)
#
#
# Indices 1 2 3 4 5 6 
#
# 1 0.014468 -0.003382 -0.000666 0.000000 -0.000605 0.000000
# 2 -0.003382 0.010116 -0.008280 0.000000 0.004972 0.000000
# 3 -0.000666 -0.008280 0.028139 0.000000 -0.003693 0.000000
# 4 0.000000 0.000000 0.000000 0.035575 0.000000 0.012537
# 5 -0.000605 0.004972 -0.003693 0.000000 0.031264 0.000000
# 6 0.000000 0.000000 0.000000 0.012537 0.000000 0.038090
#
#
# Mechanical properties :
#
#
# Convention : Reuss Voigt Hill
#
# Bulk Modulus (GPa) = 35.63133 52.89999 44.26566
# Shear Modulus (GPa) = 26.08733 31.89074 28.98904
#
# Velocity S-wave (km/s) = 3.49091 3.85973 3.67994
# Velocity P-wave (km/s) = 5.73529 6.67646 6.22369
#
# Compressibility (1/GPa) = 0.02806519
#
# Stress axis : x y z
#
# Youngs Moduli (GPa) = 69.11862 98.85356 35.53812
#
# Poissons Ratio (x) = 0.33434 0.02368
# Poissons Ratio (y) = 0.23377 0.29426
# Poissons Ratio (z) = 0.04606 0.81852
#
# Static dielectric constant tensor:
#      x y z
#    x 1.891000 0.000000 0.034980 
#    y 0.000000 1.900560 0.000000 
#    z 0.034980 0.000000 1.830790 
# 
# From -- ./inp_files/236986.got.cif
#   From: 2010.05.17/outbox.cif.g08.bks.cpg/sg15_119_cif.got.tgz:236986.got - 2010.06.03 18:47:42.
