data_PCOD9267131
_publ_section_title
;
Structure prediction by ZEFSAII (Michael W. Deem and Ramdas Pophale) SiO2 
 PCOD9267131
Probable space group: C 2/C
;
_chemical_formula_sum "Si O2"
_cell_formula_units_Z 56
_cell_length_a 9.376321
_cell_length_b 18.119026
_cell_length_c 16.234412
_cell_angle_alpha 90.000000
_cell_angle_beta 72.707483
_cell_angle_gamma 90.000000
_cell_volume 2633.395690
_symmetry_space_group_name_H-M "C 2/C"
_symmetry_group_IT_number 15
_symmetry_cell_setting 'monoclinic'
loop_
_space_group_symop_operation_xyz
x,y,z
-x,y,1/2-z
-x,-y,-z
x,-y,1/2+z
1/2+x,1/2+y,z
1/2-x,1/2+y,1/2-z
1/2-x,1/2-y,-z
1/2+x,1/2-y,1/2+z
loop_
_atom_site_type_symbol
_atom_site_label
_atom_site_fract_x
_atom_site_fract_y
_atom_site_fract_z
Si Si1 0.839144 0.839044 0.237695
Si Si2 0.076138 0.709268 0.479434
Si Si3 0.972331 0.628072 0.661054
Si Si4 0.764496 0.947784 0.106339
Si Si5 0.384684 0.428508 0.705059
Si Si6 0.114342 0.667799 0.301972
Si Si7 0.601883 0.352900 0.548866
O O1 0.705784 0.875314 0.314041
O O2 0.816235 0.879962 0.155328
O O3 0.824266 0.750741 0.227712
O O4 0.000000 0.851120 0.250000
O O5 0.023819 0.673525 0.403373
O O6 0.253248 0.691081 0.443107
O O7 0.037021 0.795015 0.493860
O O8 0.024710 0.675599 0.574642
O O9 0.000000 0.657955 0.750000
O O10 0.083494 0.557701 0.636104
O O11 0.821902 0.018388 0.144869
O O12 0.837113 0.927128 0.005974
O O13 0.500000 0.465090 0.750000
O O14 0.248645 0.390366 0.776165
O O15 0.484250 0.368769 0.639590
O O16 0.000000 0.648047 0.250000
#
# Coordination Sequence:
#
# PCOD9267131 Si02
#       7
#     8   8   8   8   8   8   8
#     4  10  20  39  61  93 124 165 217 267 317 386
#     4  10  19  38  65  97 130 171 216 273 326 384
#     4   9  20  36  65  91 125 169 211 262 328 392
#     4  10  21  39  62  90 127 169 211 272 325 386
#     4  12  24  40  65  95 130 174 221 269 328 391
#     4  11  24  41  61  93 138 170 218 274 326 385
#     4  10  20  36  65  95 127 164 224 274 322 389
#
# _framework density 21.265319999999999
#
# number of rings (size 3 to 8) (size 9 to 14) (size 15 to 20)
#    0.000    1.714    2.857    1.714    2.000    4.000 
#    2.571    2.143    3.143    5.143    0.000    0.000 
#    0.000    0.000    0.000    0.000    0.000    0.000 
#
# Total GULP energy -156081.117602 kJ/mol
# GULP energy per Si atom -5574.325629 kJ/mol
# Density = 2.121692 g / cm^3
# Si number density = 21.265320 Si / 1000 Ang^3
#
#
#
# Elastic Constant Matrix: (Units=GPa)
#
#
# Indices 1 2 3 4 5 6 
#
# 1 90.8717 8.4362 11.3237 0.0000 -5.7907 0.0000
# 2 8.4362 36.6453 0.5670 0.0000 2.7679 0.0000
# 3 11.3237 0.5670 115.8057 0.0000 -4.3666 0.0000
# 4 0.0000 0.0000 0.0000 21.4925 0.0000 9.9657
# 5 -5.7907 2.7679 -4.3666 0.0000 23.5818 0.0000
# 6 0.0000 0.0000 0.0000 9.9657 0.0000 19.0471
#
#
#
# Elastic Compliance Matrix: (Units=1/GPa)
#
#
# Indices 1 2 3 4 5 6 
#
# 1 0.011588 -0.002879 -0.001006 0.000000 0.002997 0.000000
# 2 -0.002879 0.028255 -0.000009 0.000000 -0.004025 0.000000
# 3 -0.001006 -0.000009 0.008786 0.000000 0.001381 0.000000
# 4 0.000000 0.000000 0.000000 0.061431 0.000000 -0.032141
# 5 0.002997 -0.004025 0.001381 0.000000 0.043870 0.000000
# 6 0.000000 0.000000 0.000000 -0.032141 0.000000 0.069318
#
#
# Mechanical properties :
#
#
# Convention : Reuss Voigt Hill
#
# Bulk Modulus (GPa) = 24.48410 31.55296 28.01853
# Shear Modulus (GPa) = 20.43746 27.69067 24.06406
#
# Velocity S-wave (km/s) = 3.10348 3.61245 3.36759
# Velocity P-wave (km/s) = 4.93768 5.68064 5.32214
#
# Compressibility (1/GPa) = 0.04084283
#
# Stress axis : x y z
#
# Youngs Moduli (GPa) = 86.29542 35.39136 113.82226
#
# Poissons Ratio (x) = 0.10188 0.11451
# Poissons Ratio (y) = 0.24841 0.00098
# Poissons Ratio (z) = 0.08681 0.00031
#
# Static dielectric constant tensor:
#      x y z
#    x 1.813280 0.000000 0.028930 
#    y 0.000000 1.796780 0.000000 
#    z 0.028930 0.000000 1.829140 
# 
# From -- ./inp_files/190940.got.cif
#   From: 2010.05.17/outbox.cif.g08.bks.cpg/sg15_96_cif.got.tgz:190940.got - 2010.06.03 18:47:42.
