data_PCOD9267652
_publ_section_title
;
Structure prediction by ZEFSAII (Michael W. Deem and Ramdas Pophale) SiO2 
 PCOD9267652
Probable space group: C 2/C
;
_chemical_formula_sum "Si O2"
_cell_formula_units_Z 56
_cell_length_a 12.041003
_cell_length_b 8.818974
_cell_length_c 24.333064
_cell_angle_alpha 90.000000
_cell_angle_beta 112.301984
_cell_angle_gamma 90.000000
_cell_volume 2390.625475
_symmetry_space_group_name_H-M "C 2/C"
_symmetry_group_IT_number 15
_symmetry_cell_setting 'monoclinic'
loop_
_space_group_symop_operation_xyz
x,y,z
-x,y,1/2-z
-x,-y,-z
x,-y,1/2+z
1/2+x,1/2+y,z
1/2-x,1/2+y,1/2-z
1/2-x,1/2-y,-z
1/2+x,1/2-y,1/2+z
loop_
_atom_site_type_symbol
_atom_site_label
_atom_site_fract_x
_atom_site_fract_y
_atom_site_fract_z
Si Si1 0.967487 0.803050 0.957975
Si Si2 0.089911 0.547829 0.842467
Si Si3 0.136032 0.755649 0.280708
Si Si4 0.289334 0.261370 0.329132
Si Si5 0.365337 0.063400 0.864602
Si Si6 0.508221 0.593982 0.914612
Si Si7 0.203524 0.325204 0.934433
O O1 0.940652 0.638904 0.928420
O O2 0.830062 0.861816 0.930184
O O3 0.041247 0.919788 0.933754
O O4 0.008199 0.827243 0.028145
O O5 0.113996 0.402591 0.808266
O O6 0.163782 0.684628 0.830252
O O7 0.136177 0.483036 0.910446
O O8 0.951119 0.581220 0.827415
O O9 0.195196 0.726652 0.232162
O O10 0.238355 0.855702 0.329380
O O11 0.000000 0.822754 0.250000
O O12 0.385196 0.393692 0.358914
O O13 0.337498 0.111779 0.368424
O O14 0.605974 0.695436 0.901616
O O15 0.250000 0.250000 0.000000
#
# Coordination Sequence:
#
# PCOD9267652 Si02
#       7
#     8   8   8   8   8   8   8
#     4  10  22  40  70 102 140 182 238 287 344 431
#     4  12  25  50  69 103 147 183 235 303 349 429
#     4  12  25  49  75  96 137 187 233 293 360 421
#     4  12  25  42  72 102 140 186 232 290 359 415
#     4  12  26  46  69 109 137 186 239 296 360 427
#     4  10  20  41  70 100 140 190 229 285 356 415
#     4  10  19  39  72  97 134 189 232 282 352 416
#
# _framework density 23.424831000000001
#
# number of rings (size 3 to 8) (size 9 to 14) (size 15 to 20)
#    0.000    0.857    5.714    0.857    0.000    1.714 
#    5.143    0.714    0.000    0.000    0.000    0.000 
#    0.000    0.000    0.000    0.000    0.000    0.000 
#
# Total GULP energy -156072.948369 kJ/mol
# GULP energy per Si atom -5574.033870 kJ/mol
# Density = 2.337151 g / cm^3
# Si number density = 23.424831 Si / 1000 Ang^3
#
#
#
# Elastic Constant Matrix: (Units=GPa)
#
#
# Indices 1 2 3 4 5 6 
#
# 1 150.0765 30.7121 7.8908 0.0000 -1.4062 0.0000
# 2 30.7121 65.9671 21.0401 0.0000 -23.6166 0.0000
# 3 7.8908 21.0401 67.7259 0.0000 -7.0195 0.0000
# 4 0.0000 0.0000 0.0000 30.3122 0.0000 -4.1596
# 5 -1.4062 -23.6166 -7.0195 0.0000 23.8688 0.0000
# 6 0.0000 0.0000 0.0000 -4.1596 0.0000 49.5831
#
#
#
# Elastic Compliance Matrix: (Units=1/GPa)
#
#
# Indices 1 2 3 4 5 6 
#
# 1 0.007708 -0.005398 0.000281 0.000000 -0.004805 0.000000
# 2 -0.005398 0.029050 -0.005621 0.000000 0.026771 0.000000
# 3 0.000281 -0.005621 0.016404 0.000000 -0.000721 0.000000
# 4 0.000000 0.000000 0.000000 0.033374 0.000000 0.002800
# 5 -0.004805 0.026771 -0.000721 0.000000 0.067889 0.000000
# 6 0.000000 0.000000 0.000000 0.002800 0.000000 0.020403
#
#
# Mechanical properties :
#
#
# Convention : Reuss Voigt Hill
#
# Bulk Modulus (GPa) = 31.56039 44.78395 38.17217
# Shear Modulus (GPa) = 24.17013 35.69458 29.93235
#
# Velocity S-wave (km/s) = 3.21567 3.90781 3.57852
# Velocity P-wave (km/s) = 5.22396 6.28657 5.77974
#
# Compressibility (1/GPa) = 0.03168529
#
# Stress axis : x y z
#
# Youngs Moduli (GPa) = 129.73158 34.42394 60.96000
#
# Poissons Ratio (x) = 0.18583 -0.01713
# Poissons Ratio (y) = 0.70034 0.34265
# Poissons Ratio (z) = -0.03646 0.19350
#
# Static dielectric constant tensor:
#      x y z
#    x 1.905190 0.000000 -0.036120 
#    y 0.000000 1.914400 0.000000 
#    z -0.036120 0.000000 2.012500 
# 
# From -- ./inp_files/291620.got.cif
#   From: 2010.05.17/outbox.cif.g08.bks.cpg/sg15_146_cif.got.tgz:291620.got - 2010.06.03 18:47:42.
