data_PCOD9267980
_publ_section_title
;
Structure prediction by ZEFSAII (Michael W. Deem and Ramdas Pophale) SiO2 
 PCOD9267980
Probable space group: C 2/C
;
_chemical_formula_sum "Si O2"
_cell_formula_units_Z 40
_cell_length_a 22.860576
_cell_length_b 11.376549
_cell_length_c 18.185523
_cell_angle_alpha 90.000000
_cell_angle_beta 160.772228
_cell_angle_gamma 90.000000
_cell_volume 1557.569240
_symmetry_space_group_name_H-M "C 2/C"
_symmetry_group_IT_number 15
_symmetry_cell_setting 'monoclinic'
loop_
_space_group_symop_operation_xyz
x,y,z
-x,y,1/2-z
-x,-y,-z
x,-y,1/2+z
1/2+x,1/2+y,z
1/2-x,1/2+y,1/2-z
1/2-x,1/2-y,-z
1/2+x,1/2-y,1/2+z
loop_
_atom_site_type_symbol
_atom_site_label
_atom_site_fract_x
_atom_site_fract_y
_atom_site_fract_z
Si Si1 0.114393 0.992362 0.455510
Si Si2 0.647031 0.628977 0.255236
Si Si3 0.125967 0.709887 0.464303
Si Si4 0.020605 0.733975 0.067810
Si Si5 0.515920 0.123224 0.626239
O O1 0.315252 0.038925 0.684401
O O2 0.000000 0.033426 0.250000
O O3 0.001268 0.042183 0.389179
O O4 0.118962 0.851834 0.457493
O O5 0.609131 0.750430 0.254919
O O6 0.855323 0.596383 0.492674
O O7 0.590059 0.668222 0.105922
O O8 0.335914 0.700046 0.710716
O O9 0.000000 0.665950 0.250000
O O10 0.085468 0.662055 0.497212
O O11 0.066599 0.650092 0.053528
#
# Coordination Sequence:
#
# PCOD9267980 Si02
#       5
#     8   8   8   8   8
#     4  11  25  40  58  97 133 159 212 258 305 377
#     4  10  19  41  64  90 121 168 208 253 310 364
#     4  11  23  40  64  91 125 165 204 264 317 369
#     4  10  19  44  61  86 122 156 216 254 307 374
#     4  10  19  41  64  90 121 168 208 253 310 364
#
# _framework density 25.681039999999999
#
# number of rings (size 3 to 8) (size 9 to 14) (size 15 to 20)
#    1.200    0.400    4.000    1.800    0.000    3.200 
#    3.600    0.000    0.000    0.000    0.000    0.000 
#    0.000    0.000    0.000    0.000    0.000    0.000 
#
# Total GULP energy -111493.810169 kJ/mol
# GULP energy per Si atom -5574.690508 kJ/mol
# Density = 2.562259 g / cm^3
# Si number density = 25.681040 Si / 1000 Ang^3
#
#
#
# Elastic Constant Matrix: (Units=GPa)
#
#
# Indices 1 2 3 4 5 6 
#
# 1 41.8691 11.0326 36.4760 0.0004 9.3238 0.0003
# 2 11.0326 51.1214 38.1555 0.0002 21.2779 0.0001
# 3 36.4760 38.1555 170.7889 0.0004 23.9206 0.0004
# 4 0.0004 0.0002 0.0004 32.4904 0.0001 -1.3725
# 5 9.3238 21.2779 23.9206 0.0001 58.5258 0.0001
# 6 0.0003 0.0001 0.0004 -1.3725 0.0001 11.0738
#
#
#
# Elastic Compliance Matrix: (Units=1/GPa)
#
#
# Indices 1 2 3 4 5 6 
#
# 1 0.029688 -0.001302 -0.005785 0.000000 -0.001892 -0.000001
# 2 -0.001302 0.026376 -0.004562 0.000000 -0.007517 0.000000
# 3 -0.005785 -0.004562 0.008219 0.000000 -0.000779 0.000000
# 4 0.000000 0.000000 0.000000 0.030940 0.000000 0.003835
# 5 -0.001892 -0.007517 -0.000779 0.000000 0.020439 0.000000
# 6 -0.000001 0.000000 0.000000 0.003835 0.000000 0.090779
#
#
# Mechanical properties :
#
#
# Convention : Reuss Voigt Hill
#
# Bulk Modulus (GPa) = 24.39853 48.34527 36.37190
# Shear Modulus (GPa) = 20.54233 32.29235 26.41734
#
# Velocity S-wave (km/s) = 2.83132 3.54989 3.21077
# Velocity P-wave (km/s) = 4.49553 5.97230 5.28574
#
# Compressibility (1/GPa) = 0.04098607
#
# Stress axis : x y z
#
# Youngs Moduli (GPa) = 33.68372 37.91350 121.67128
#
# Poissons Ratio (x) = 0.04936 0.70383
# Poissons Ratio (y) = 0.04386 0.55501
# Poissons Ratio (z) = 0.19485 0.17295
#
# Static dielectric constant tensor:
#      x y z
#    x 2.206140 0.000000 0.050420 
#    y 0.000000 2.073820 0.000000 
#    z 0.050420 0.000000 2.062290 
# 
# From -- ./inp_files/255514.got.cif
#   From: 2010.05.17/outbox.cif.g08.bks.cpg/sg15_128_cif.got.tgz:255514.got - 2010.06.03 18:47:42.
