data_PCOD9267428
_publ_section_title
;
Structure prediction by ZEFSAII (Michael W. Deem and Ramdas Pophale) SiO2 
 PCOD9267428
Probable space group: C 2/C
;
_chemical_formula_sum "Si O2"
_cell_formula_units_Z 52
_cell_length_a 10.762711
_cell_length_b 15.436694
_cell_length_c 17.673900
_cell_angle_alpha 90.000000
_cell_angle_beta 75.417343
_cell_angle_gamma 90.000000
_cell_volume 2841.760315
_symmetry_space_group_name_H-M "C 2/C"
_symmetry_group_IT_number 15
_symmetry_cell_setting 'monoclinic'
loop_
_space_group_symop_operation_xyz
x,y,z
-x,y,1/2-z
-x,-y,-z
x,-y,1/2+z
1/2+x,1/2+y,z
1/2-x,1/2+y,1/2-z
1/2-x,1/2-y,-z
1/2+x,1/2-y,1/2+z
loop_
_atom_site_type_symbol
_atom_site_label
_atom_site_fract_x
_atom_site_fract_y
_atom_site_fract_z
Si Si1 0.093727 0.661815 0.838311
Si Si2 0.440831 0.404825 0.513858
Si Si3 0.357591 0.665755 0.267967
Si Si4 0.814434 0.206882 0.916107
Si Si5 0.307597 0.884818 0.842845
Si Si6 0.869233 0.227689 0.429807
Si Si7 0.500000 0.985872 0.250000
O O1 0.122415 0.743376 0.779262
O O2 0.204014 0.660473 0.884321
O O3 0.085142 0.577466 0.788653
O O4 0.957420 0.688765 0.896400
O O5 0.500000 0.500000 0.500000
O O6 0.414344 0.360873 0.436081
O O7 0.306637 0.407374 0.581028
O O8 0.534981 0.340333 0.544850
O O9 0.500000 0.623997 0.250000
O O10 0.257586 0.617647 0.230216
O O11 0.319676 0.686493 0.359037
O O12 0.859051 0.289527 0.859464
O O13 0.750000 0.250000 0.000000
O O14 0.418478 0.954511 0.818889
O O15 0.750000 0.250000 0.500000
#
# Coordination Sequence:
#
# PCOD9267428 Si02
#       7
#     8   8   8   8   8   8   4
#     4  10  19  39  63  87 122 169 198 254 309 371
#     4  11  23  39  63  92 122 157 211 267 300 366
#     4   9  16  39  63  77 114 170 202 234 309 369
#     4   9  18  42  64  79 120 171 193 239 326 366
#     4  10  22  40  60  83 127 165 202 249 314 375
#     4  11  21  35  64  95 121 162 206 249 318 364
#     4  12  24  36  62  98 122 154 216 260 296 362
#
# _framework density 18.298517
#
# number of rings (size 3 to 8) (size 9 to 14) (size 15 to 20)
#    0.000    1.846    8.462    0.000    2.154    2.462 
#    0.000    4.615    0.000    0.000    0.000    0.000 
#    0.000    0.000    0.000    0.000    0.000    0.000 
#
# Total GULP energy -144941.264447 kJ/mol
# GULP energy per Si atom -5574.664017 kJ/mol
# Density = 1.825687 g / cm^3
# Si number density = 18.298517 Si / 1000 Ang^3
#
#
#
# Elastic Constant Matrix: (Units=GPa)
#
#
# Indices 1 2 3 4 5 6 
#
# 1 37.7571 28.5716 23.9095 0.0000 12.4964 0.0000
# 2 28.5716 72.1214 8.3670 0.0000 1.0466 0.0000
# 3 23.9095 8.3670 80.0202 0.0000 10.8168 0.0000
# 4 0.0000 0.0000 0.0000 25.8077 0.0000 3.3713
# 5 12.4964 1.0466 10.8168 0.0000 48.4731 0.0000
# 6 0.0000 0.0000 0.0000 3.3713 0.0000 30.3827
#
#
#
# Elastic Compliance Matrix: (Units=1/GPa)
#
#
# Indices 1 2 3 4 5 6 
#
# 1 0.051989 -0.019037 -0.012154 0.000000 -0.010280 0.000000
# 2 -0.019037 0.021007 0.002979 0.000000 0.003789 0.000000
# 3 -0.012154 0.002979 0.015881 0.000000 -0.000475 0.000000
# 4 0.000000 0.000000 0.000000 0.039318 0.000000 -0.004363
# 5 -0.010280 0.003789 -0.000475 0.000000 0.023304 0.000000
# 6 0.000000 0.000000 0.000000 -0.004363 0.000000 0.033398
#
#
# Mechanical properties :
#
#
# Convention : Reuss Voigt Hill
#
# Bulk Modulus (GPa) = 30.81285 34.62164 32.71724
# Shear Modulus (GPa) = 19.83042 29.53608 24.68325
#
# Velocity S-wave (km/s) = 3.29556 4.02197 3.67675
# Velocity P-wave (km/s) = 5.59969 6.36631 5.99526
#
# Compressibility (1/GPa) = 0.03245400
#
# Stress axis : x y z
#
# Youngs Moduli (GPa) = 19.23468 47.60427 62.96819
#
# Poissons Ratio (x) = 0.90624 0.76532
# Poissons Ratio (y) = 0.36617 -0.18761
# Poissons Ratio (z) = 0.23378 -0.14183
#
# Static dielectric constant tensor:
#      x y z
#    x 1.610640 0.000000 0.003590 
#    y 0.000000 1.625900 0.000000 
#    z 0.003590 0.000000 1.635890 
# 
# From -- ./inp_files/197279.got.cif
#   From: 2010.05.17/outbox.cif.g08.bks.cpg/sg15_99_cif.got.tgz:197279.got - 2010.06.03 18:47:42.
