data_PCOD9267872
_publ_section_title
;
Structure prediction by ZEFSAII (Michael W. Deem and Ramdas Pophale) SiO2 
 PCOD9267872
Probable space group: C 2/C
;
_chemical_formula_sum "Si O2"
_cell_formula_units_Z 40
_cell_length_a 14.417672
_cell_length_b 11.761903
_cell_length_c 10.902227
_cell_angle_alpha 90.000000
_cell_angle_beta 80.874697
_cell_angle_gamma 90.000000
_cell_volume 1825.393026
_symmetry_space_group_name_H-M "C 2/C"
_symmetry_group_IT_number 15
_symmetry_cell_setting 'monoclinic'
loop_
_space_group_symop_operation_xyz
x,y,z
-x,y,1/2-z
-x,-y,-z
x,-y,1/2+z
1/2+x,1/2+y,z
1/2-x,1/2+y,1/2-z
1/2-x,1/2-y,-z
1/2+x,1/2-y,1/2+z
loop_
_atom_site_type_symbol
_atom_site_label
_atom_site_fract_x
_atom_site_fract_y
_atom_site_fract_z
Si Si1 0.646283 0.734330 0.791778
Si Si2 0.644160 0.287940 0.015004
Si Si3 0.327911 0.263267 0.875450
Si Si4 0.106184 0.961950 0.487013
Si Si5 0.474131 0.131992 0.986393
O O1 0.609425 0.721101 0.663258
O O2 0.759155 0.758991 0.773819
O O3 0.588010 0.826434 0.883290
O O4 0.631736 0.616814 0.867383
O O5 0.655829 0.418474 0.975521
O O6 0.567448 0.211383 0.959678
O O7 0.750000 0.250000 0.000000
O O8 0.374738 0.384407 0.896877
O O9 0.250000 0.250000 0.000000
O O10 0.406027 0.166589 0.885813
O O11 0.000000 0.000000 0.500000
O O12 0.500000 0.000000 0.000000
#
# Coordination Sequence:
#
# PCOD9267872 Si02
#       5
#     8   8   8   8   8
#     4  10  23  44  67  91 130 177 203 262 329 366
#     4  12  26  40  64 102 128 163 222 263 309 381
#     4   8  18  38  65  87 124 170 206 252 320 376
#     4  10  19  40  68  92 125 164 215 267 315 380
#     4  10  21  41  66  89 131 169 211 261 313 381
#
# _framework density 21.913087999999998
#
# number of rings (size 3 to 8) (size 9 to 14) (size 15 to 20)
#    0.000    2.400    4.000    0.600    8.400    1.600 
#    0.000    3.000    0.000    0.000    0.000    0.000 
#    0.000    0.000    0.000    0.000    0.000    0.000 
#
# Total GULP energy -111520.537621 kJ/mol
# GULP energy per Si atom -5576.026881 kJ/mol
# Density = 2.186321 g / cm^3
# Si number density = 21.913088 Si / 1000 Ang^3
#
#
#
# Elastic Constant Matrix: (Units=GPa)
#
#
# Indices 1 2 3 4 5 6 
#
# 1 150.8938 70.2062 3.0924 0.0000 8.8662 0.0000
# 2 70.2062 192.9928 4.2614 0.0000 0.5417 0.0000
# 3 3.0924 4.2614 35.5423 0.0000 2.7869 0.0000
# 4 0.0000 0.0000 0.0000 5.4057 0.0000 -3.1552
# 5 8.8662 0.5417 2.7869 0.0000 25.6465 0.0000
# 6 0.0000 0.0000 0.0000 -3.1552 0.0000 55.3078
#
#
#
# Elastic Compliance Matrix: (Units=1/GPa)
#
#
# Indices 1 2 3 4 5 6 
#
# 1 0.008169 -0.002961 -0.000140 0.000000 -0.002746 0.000000
# 2 -0.002961 0.006269 -0.000569 0.000000 0.000953 0.000000
# 3 -0.000140 -0.000569 0.028454 0.000000 -0.003031 0.000000
# 4 0.000000 0.000000 0.000000 0.191363 0.000000 0.010917
# 5 -0.002746 0.000953 -0.003031 0.000000 0.040250 0.000000
# 6 0.000000 0.000000 0.000000 0.010917 0.000000 0.018703
#
#
# Mechanical properties :
#
#
# Convention : Reuss Voigt Hill
#
# Bulk Modulus (GPa) = 28.12844 59.39432 43.76138
# Shear Modulus (GPa) = 16.00518 37.39657 26.70088
#
# Velocity S-wave (km/s) = 2.70551 4.13557 3.49447
# Velocity P-wave (km/s) = 4.75646 7.06875 6.02458
#
# Compressibility (1/GPa) = 0.03555121
#
# Stress axis : x y z
#
# Youngs Moduli (GPa) = 122.41349 159.52719 35.14491
#
# Poissons Ratio (x) = 0.47234 0.00493
# Poissons Ratio (y) = 0.36245 0.01999
# Poissons Ratio (z) = 0.01719 0.09072
#
# Static dielectric constant tensor:
#      x y z
#    x 1.732260 0.000000 -0.038290 
#    y 0.000000 1.656430 0.000000 
#    z -0.038290 0.000000 1.920730 
# 
# From -- ./inp_files/94522.got.cif
#   From: 2010.05.17/outbox.cif.g08.bks.cpg/sg15_48_cif.got.tgz:94522.got - 2010.06.03 18:47:42.
