data_PCOD9267013
_publ_section_title
;
Structure prediction by ZEFSAII (Michael W. Deem and Ramdas Pophale) SiO2 
 PCOD9267013
Probable space group: C 2/C
;
_chemical_formula_sum "Si O2"
_cell_formula_units_Z 48
_cell_length_a 17.047614
_cell_length_b 9.218418
_cell_length_c 15.380788
_cell_angle_alpha 90.000000
_cell_angle_beta 107.329406
_cell_angle_gamma 90.000000
_cell_volume 2307.404203
_symmetry_space_group_name_H-M "C 2/C"
_symmetry_group_IT_number 15
_symmetry_cell_setting 'monoclinic'
loop_
_space_group_symop_operation_xyz
x,y,z
-x,y,1/2-z
-x,-y,-z
x,-y,1/2+z
1/2+x,1/2+y,z
1/2-x,1/2+y,1/2-z
1/2-x,1/2-y,-z
1/2+x,1/2-y,1/2+z
loop_
_atom_site_type_symbol
_atom_site_label
_atom_site_fract_x
_atom_site_fract_y
_atom_site_fract_z
Si Si1 0.059058 0.496974 0.646795
Si Si2 0.440478 0.399016 0.581576
Si Si3 0.227613 0.980459 0.542990
Si Si4 0.487963 0.705476 0.573546
Si Si5 0.830530 0.313895 0.444425
Si Si6 0.102991 0.616814 0.849832
O O1 0.120522 0.584917 0.605775
O O2 0.084503 0.542227 0.752036
O O3 0.051776 0.324991 0.628255
O O4 0.964550 0.551138 0.605697
O O5 0.354928 0.433861 0.504418
O O6 0.482893 0.551210 0.620115
O O7 0.495025 0.330288 0.522384
O O8 0.419091 0.286824 0.650622
O O9 0.205335 0.842361 0.597330
O O10 0.258787 0.905725 0.464482
O O11 0.303327 0.079981 0.597132
O O12 0.396117 0.770315 0.541164
#
# Coordination Sequence:
#
# PCOD9267013 Si02
#       6
#     8   8   8   8   8   8
#     4  11  22  38  63  86 124 169 203 244 316 379
#     4  10  21  37  66  93 120 152 214 266 302 361
#     4  10  21  37  63  91 120 154 211 255 306 359
#     4  10  19  38  67  90 113 162 216 252 300 374
#     4  10  19  38  64  87 117 160 205 257 290 369
#     4  11  22  39  59  92 125 162 201 254 313 379
#
# _framework density 20.802596999999999
#
# number of rings (size 3 to 8) (size 9 to 14) (size 15 to 20)
#    0.000    1.667    3.333    2.000    0.000    0.000 
#    6.000    3.333    0.000    0.000    0.000    0.000 
#    0.000    0.000    0.000    0.000    0.000    0.000 
#
# Total GULP energy -133793.206987 kJ/mol
# GULP energy per Si atom -5574.716958 kJ/mol
# Density = 2.075525 g / cm^3
# Si number density = 20.802597 Si / 1000 Ang^3
#
#
#
# Elastic Constant Matrix: (Units=GPa)
#
#
# Indices 1 2 3 4 5 6 
#
# 1 108.0421 31.8731 8.4876 0.0000 -4.7893 0.0000
# 2 31.8731 156.3645 32.8680 0.0000 -9.0893 0.0000
# 3 8.4876 32.8680 27.3763 0.0000 -6.7236 0.0000
# 4 0.0000 0.0000 0.0000 19.7828 0.0000 -0.9697
# 5 -4.7893 -9.0893 -6.7236 0.0000 18.5581 0.0000
# 6 0.0000 0.0000 0.0000 -0.9697 0.0000 36.4052
#
#
#
# Elastic Compliance Matrix: (Units=1/GPa)
#
#
# Indices 1 2 3 4 5 6 
#
# 1 0.009900 -0.001823 -0.000518 0.000000 0.001474 0.000000
# 2 -0.001823 0.008894 -0.010054 0.000000 0.000243 0.000000
# 3 -0.000518 -0.010054 0.052158 0.000000 0.013839 0.000000
# 4 0.000000 0.000000 0.000000 0.050615 0.000000 0.001348
# 5 0.001474 0.000243 0.013839 0.000000 0.059399 0.000000
# 6 0.000000 0.000000 0.000000 0.001348 0.000000 0.027504
#
#
# Mechanical properties :
#
#
# Convention : Reuss Voigt Hill
#
# Bulk Modulus (GPa) = 21.66292 48.69335 35.17814
# Shear Modulus (GPa) = 20.10882 29.51950 24.81416
#
# Velocity S-wave (km/s) = 3.11247 3.77109 3.45750
# Velocity P-wave (km/s) = 4.83247 6.51304 5.73465
#
# Compressibility (1/GPa) = 0.04616183
#
# Stress axis : x y z
#
# Youngs Moduli (GPa) = 101.01436 112.43048 19.17260
#
# Poissons Ratio (x) = 0.20500 0.00993
# Poissons Ratio (y) = 0.18418 0.19275
# Poissons Ratio (z) = 0.05233 1.13033
#
# Static dielectric constant tensor:
#      x y z
#    x 1.739420 0.000000 -0.008470 
#    y 0.000000 1.838900 0.000000 
#    z -0.008470 0.000000 1.741530 
# 
# From -- ./inp_files/208706.got.cif
#   From: 2010.05.17/outbox.cif.g08.bks.cpg/sg15_105_cif.got.tgz:208706.got - 2010.06.03 18:47:42.
