data_PCOD9267658
_publ_section_title
;
Structure prediction by ZEFSAII (Michael W. Deem and Ramdas Pophale) SiO2 
 PCOD9267658
Probable space group: C 2/C
;
_chemical_formula_sum "Si O2"
_cell_formula_units_Z 52
_cell_length_a 10.445865
_cell_length_b 17.223244
_cell_length_c 13.957181
_cell_angle_alpha 90.000000
_cell_angle_beta 119.836203
_cell_angle_gamma 90.000000
_cell_volume 2178.222082
_symmetry_space_group_name_H-M "C 2/C"
_symmetry_group_IT_number 15
_symmetry_cell_setting 'monoclinic'
loop_
_space_group_symop_operation_xyz
x,y,z
-x,y,1/2-z
-x,-y,-z
x,-y,1/2+z
1/2+x,1/2+y,z
1/2-x,1/2+y,1/2-z
1/2-x,1/2-y,-z
1/2+x,1/2-y,1/2+z
loop_
_atom_site_type_symbol
_atom_site_label
_atom_site_fract_x
_atom_site_fract_y
_atom_site_fract_z
Si Si1 0.000000 0.436156 0.750000
Si Si2 0.696390 0.807239 0.565206
Si Si3 0.178324 0.950571 0.311475
Si Si4 0.339181 0.955496 0.038187
Si Si5 0.293716 0.393991 0.772186
Si Si6 0.534495 0.409799 0.008172
Si Si7 0.910891 0.806031 0.307758
O O1 0.941930 0.493269 0.643950
O O2 0.863409 0.383082 0.734498
O O3 0.750000 0.750000 0.500000
O O4 0.594040 0.879202 0.490268
O O5 0.811404 0.856668 0.673718
O O6 0.634512 0.753585 0.627473
O O7 0.210179 0.863565 0.286251
O O8 0.000000 0.958533 0.250000
O O9 0.263851 0.984158 0.435335
O O10 0.213887 0.013320 0.243659
O O11 0.206679 0.911548 0.045517
O O12 0.430303 0.372609 0.889223
O O13 0.500000 0.500000 0.000000
O O14 0.497844 0.366880 0.092689
O O15 0.000000 0.776354 0.250000
#
# Coordination Sequence:
#
# PCOD9267658 Si02
#       7
#     4   8   8   8   8   8   8
#     4  12  26  44  72 112 150 188 238 310 378 428
#     4  11  26  48  70 105 154 194 237 295 369 450
#     4  10  19  39  76 108 132 183 256 307 344 414
#     4  11  23  44  77 106 147 190 249 296 368 434
#     4  11  25  42  75 108 146 190 245 304 360 437
#     4  12  19  43  77 110 134 187 258 303 347 423
#     4  11  23  41  72 108 144 185 242 307 364 423
#
# _framework density 23.872681
#
# number of rings (size 3 to 8) (size 9 to 14) (size 15 to 20)
#    0.000    0.923    6.154    0.923    1.077    2.462 
#    2.769    2.308    0.000    0.000    0.000    0.000 
#    0.000    0.000    0.000    0.000    0.000    0.000 
#
# Total GULP energy -144970.633654 kJ/mol
# GULP energy per Si atom -5575.793602 kJ/mol
# Density = 2.381835 g / cm^3
# Si number density = 23.872681 Si / 1000 Ang^3
#
#
#
# Elastic Constant Matrix: (Units=GPa)
#
#
# Indices 1 2 3 4 5 6 
#
# 1 102.1542 30.8342 38.7659 0.0000 -20.2741 0.0000
# 2 30.8342 135.7815 54.5580 0.0000 -22.2313 0.0000
# 3 38.7659 54.5580 187.6634 0.0000 -16.8573 0.0000
# 4 0.0000 0.0000 0.0000 34.0040 0.0000 -33.6015
# 5 -20.2741 -22.2313 -16.8573 0.0000 40.5928 0.0000
# 6 0.0000 0.0000 0.0000 -33.6015 0.0000 31.7409
#
#
#
# Elastic Compliance Matrix: (Units=1/GPa)
#
#
# Indices 1 2 3 4 5 6 
#
# 1 0.011679 -0.001261 -0.001645 0.000000 0.004459 0.000000
# 2 -0.001261 0.009046 -0.002058 0.000000 0.003470 0.000000
# 3 -0.001645 -0.002058 0.006328 0.000000 0.000679 0.000000
# 4 0.000000 0.000000 0.000000 -0.638086 0.000000 -0.675489
# 5 0.004459 0.003470 0.000679 0.000000 0.029044 0.000000
# 6 0.000000 0.000000 0.000000 -0.675489 0.000000 -0.683580
#
#
# Mechanical properties :
#
#
# Convention : Reuss Voigt Hill
#
# Bulk Modulus (GPa) = 58.39466 74.87945 66.63706
# Shear Modulus (GPa) = -4.00022 41.36359 18.68169
#
# Velocity S-wave (km/s) = -1.29587 4.16706 2.80045
# Velocity P-wave (km/s) = 4.71963 7.38828 6.19926
#
# Compressibility (1/GPa) = 0.01712485
#
# Stress axis : x y z
#
# Youngs Moduli (GPa) = 85.62264 110.54549 158.03248
#
# Poissons Ratio (x) = 0.13939 0.26003
# Poissons Ratio (y) = 0.10796 0.32519
# Poissons Ratio (z) = 0.14089 0.22747
#
# Static dielectric constant tensor:
#      x y z
#    x 0.206150 0.000000 -0.201160 
#    y 0.000000 2.085000 0.000000 
#    z -0.201160 0.000000 1.927540 
# 
# From -- ./inp_files/145803.got.cif
#   From: 2010.05.17/outbox.cif.g08.bks.cpg/sg15_73_cif.got.tgz:145803.got - 2010.06.03 18:47:42.
