data_PCOD9267329
_publ_section_title
;
Structure prediction by ZEFSAII (Michael W. Deem and Ramdas Pophale) SiO2 
 PCOD9267329
Probable space group: C 2/C
;
_chemical_formula_sum "Si O2"
_cell_formula_units_Z 44
_cell_length_a 7.233199
_cell_length_b 19.959002
_cell_length_c 11.058386
_cell_angle_alpha 90.000000
_cell_angle_beta 88.292503
_cell_angle_gamma 90.000000
_cell_volume 1595.761922
_symmetry_space_group_name_H-M "C 2/C"
_symmetry_group_IT_number 15
_symmetry_cell_setting 'monoclinic'
loop_
_space_group_symop_operation_xyz
x,y,z
-x,y,1/2-z
-x,-y,-z
x,-y,1/2+z
1/2+x,1/2+y,z
1/2-x,1/2+y,1/2-z
1/2-x,1/2-y,-z
1/2+x,1/2-y,1/2+z
loop_
_atom_site_type_symbol
_atom_site_label
_atom_site_fract_x
_atom_site_fract_y
_atom_site_fract_z
Si Si1 0.250130 0.263744 0.699373
Si Si2 0.500000 0.005166 0.750000
Si Si3 0.744007 0.940724 0.556409
Si Si4 0.726191 0.417332 0.414859
Si Si5 0.000000 0.876048 0.750000
Si Si6 0.469820 0.820530 0.011847
Si Si7 0.000000 0.853734 0.250000
O O1 0.330098 0.324448 0.775516
O O2 0.413979 0.237448 0.606924
O O3 0.084925 0.290838 0.617034
O O4 0.173215 0.196157 0.756403
O O5 0.664503 0.056821 0.709044
O O6 0.556333 0.953941 0.641637
O O7 0.674777 0.881972 0.472610
O O8 0.910473 0.918706 0.642839
O O9 0.778764 0.015045 0.505656
O O10 0.527091 0.397735 0.368810
O O11 0.835672 0.356099 0.471132
#
# Coordination Sequence:
#
# PCOD9267329 Si02
#       7
#     8   4   8   8   4   8   4
#     4  10  23  37  62  86 117 169 187 246 286 352
#     4   8  20  34  62  88 112 156 192 228 310 328
#     4   9  20  37  63  90 116 156 192 248 293 351
#     4  10  20  37  61  88 117 155 192 253 284 353
#     4  10  19  39  60  84 122 148 206 236 288 352
#     4  10  20  40  60  85 125 150 200 241 305 335
#     4  12  23  39  60  90 120 152 216 220 294 364
#
# _framework density 27.573034
#
# number of rings (size 3 to 8) (size 9 to 14) (size 15 to 20)
#    1.091    1.091    0.000    3.273    0.000    3.636 
#    0.000    6.364    0.000    0.000    0.000    0.000 
#    0.000    0.000    0.000    0.000    0.000    0.000 
#
# Total GULP energy -122711.151159 kJ/mol
# GULP energy per Si atom -5577.779598 kJ/mol
# Density = 2.751028 g / cm^3
# Si number density = 27.573034 Si / 1000 Ang^3
#
#
#
# Elastic Constant Matrix: (Units=GPa)
#
#
# Indices 1 2 3 4 5 6 
#
# 1 80.2815 27.2304 40.1454 0.0000 10.2559 0.0000
# 2 27.2304 133.5344 50.1329 0.0000 23.7311 0.0000
# 3 40.1454 50.1329 92.3302 0.0000 33.3485 0.0000
# 4 0.0000 0.0000 0.0000 34.2187 0.0000 17.2535
# 5 10.2559 23.7311 33.3485 0.0000 50.9308 0.0000
# 6 0.0000 0.0000 0.0000 17.2535 0.0000 24.5034
#
#
#
# Elastic Compliance Matrix: (Units=1/GPa)
#
#
# Indices 1 2 3 4 5 6 
#
# 1 0.016125 -0.000924 -0.007193 0.000000 0.001894 0.000000
# 2 -0.000924 0.009532 -0.004239 0.000000 -0.001479 0.000000
# 3 -0.007193 -0.004239 0.019677 0.000000 -0.009460 0.000000
# 4 0.000000 0.000000 0.000000 0.045310 0.000000 -0.031904
# 5 0.001894 -0.001479 -0.009460 0.000000 0.026137 0.000000
# 6 0.000000 0.000000 0.000000 -0.031904 0.000000 0.063275
#
#
# Mechanical properties :
#
#
# Convention : Reuss Voigt Hill
#
# Bulk Modulus (GPa) = 48.49609 60.12927 54.31268
# Shear Modulus (GPa) = 23.62475 34.50640 29.06557
#
# Velocity S-wave (km/s) = 2.93030 3.54143 3.25026
# Velocity P-wave (km/s) = 5.39215 6.21103 5.81602
#
# Compressibility (1/GPa) = 0.02062022
#
# Stress axis : x y z
#
# Youngs Moduli (GPa) = 62.01643 104.91399 50.82039
#
# Poissons Ratio (x) = 0.09695 0.36556
# Poissons Ratio (y) = 0.05731 0.21544
# Poissons Ratio (z) = 0.44610 0.44476
#
# Static dielectric constant tensor:
#      x y z
#    x 2.182690 0.000000 -0.044690 
#    y 0.000000 2.098610 0.000000 
#    z -0.044690 0.000000 2.175350 
# 
# From -- ./inp_files/135610.got.cif
#   From: 2010.05.17/outbox.cif.g08.bks.cpg/sg15_68_cif.got.tgz:135610.got - 2010.06.03 18:47:42.
