data_PCOD9267691
_publ_section_title
;
Structure prediction by ZEFSAII (Michael W. Deem and Ramdas Pophale) SiO2 
 PCOD9267691
Probable space group: C 2/C
;
_chemical_formula_sum "Si O2"
_cell_formula_units_Z 56
_cell_length_a 16.505313
_cell_length_b 9.511305
_cell_length_c 23.752873
_cell_angle_alpha 90.000000
_cell_angle_beta 132.089922
_cell_angle_gamma 90.000000
_cell_volume 2767.188829
_symmetry_space_group_name_H-M "C 2/C"
_symmetry_group_IT_number 15
_symmetry_cell_setting 'monoclinic'
loop_
_space_group_symop_operation_xyz
x,y,z
-x,y,1/2-z
-x,-y,-z
x,-y,1/2+z
1/2+x,1/2+y,z
1/2-x,1/2+y,1/2-z
1/2-x,1/2-y,-z
1/2+x,1/2-y,1/2+z
loop_
_atom_site_type_symbol
_atom_site_label
_atom_site_fract_x
_atom_site_fract_y
_atom_site_fract_z
Si Si1 0.412278 0.223747 0.877451
Si Si2 0.303840 0.372574 0.592145
Si Si3 0.386008 0.906475 0.087853
Si Si4 0.022210 0.984105 0.144876
Si Si5 0.690997 0.595028 0.815950
Si Si6 0.791346 0.684262 0.078180
Si Si7 0.448487 0.637253 0.503036
O O1 0.494898 0.135991 0.877773
O O2 0.413426 0.382878 0.852936
O O3 0.294079 0.155037 0.829471
O O4 0.460947 0.238201 0.963912
O O5 0.340039 0.210196 0.609899
O O6 0.198001 0.392902 0.503849
O O7 0.405820 0.450727 0.609148
O O8 0.284916 0.445971 0.642858
O O9 0.377413 0.062839 0.106932
O O10 0.088357 0.925977 0.228137
O O11 0.999945 0.861692 0.088909
O O12 0.672510 0.700926 0.859670
O O13 0.750000 0.750000 0.000000
O O14 0.680831 0.615958 0.051220
O O15 0.500000 0.500000 0.500000
#
# Coordination Sequence:
#
# PCOD9267691 Si02
#       7
#     8   8   8   8   8   8   8
#     4   9  22  39  60  93 125 156 213 259 303 366
#     4  10  20  36  66  92 114 164 208 252 306 374
#     4  10  20  39  64  93 121 155 212 257 300 361
#     4  10  19  40  61  87 128 165 205 250 316 377
#     4  11  22  39  61  92 127 168 200 254 321 364
#     4  11  20  38  60  93 124 158 207 258 297 367
#     4   9  18  36  61  86 117 160 202 250 299 365
#
# _framework density 20.237144000000001
#
# number of rings (size 3 to 8) (size 9 to 14) (size 15 to 20)
#    0.000    2.000    2.857    0.429    2.000    0.571 
#    2.571    2.857    0.000    8.571    0.000    0.000 
#    0.000    0.000    0.000    0.000    0.000    0.000 
#
# Total GULP energy -156291.472451 kJ/mol
# GULP energy per Si atom -5581.838302 kJ/mol
# Density = 2.019108 g / cm^3
# Si number density = 20.237144 Si / 1000 Ang^3
#
#
#
# Elastic Constant Matrix: (Units=GPa)
#
#
# Indices 1 2 3 4 5 6 
#
# 1 58.8090 28.8674 1.0782 0.0000 2.4656 0.0000
# 2 28.8674 80.1931 28.4121 0.0000 -2.7771 0.0000
# 3 1.0782 28.4121 77.8922 0.0000 -18.2406 0.0000
# 4 0.0000 0.0000 0.0000 20.6117 0.0000 -2.9391
# 5 2.4656 -2.7771 -18.2406 0.0000 19.8731 0.0000
# 6 0.0000 0.0000 0.0000 -2.9391 0.0000 36.2754
#
#
#
# Elastic Compliance Matrix: (Units=1/GPa)
#
#
# Indices 1 2 3 4 5 6 
#
# 1 0.021232 -0.008570 0.002465 0.000000 -0.001570 0.000000
# 2 -0.008570 0.017980 -0.007136 0.000000 -0.002974 0.000000
# 3 0.002465 -0.007136 0.019237 0.000000 0.016354 0.000000
# 4 0.000000 0.000000 0.000000 0.049083 0.000000 0.003977
# 5 -0.001570 -0.002974 0.016354 0.000000 0.065109 0.000000
# 6 0.000000 0.000000 0.000000 0.003977 0.000000 0.027889
#
#
# Mechanical properties :
#
#
# Convention : Reuss Voigt Hill
#
# Bulk Modulus (GPa) = 31.28447 37.06775 34.17611
# Shear Modulus (GPa) = 21.03763 25.92116 23.47940
#
# Velocity S-wave (km/s) = 3.22771 3.58281 3.40989
# Velocity P-wave (km/s) = 5.42064 5.95582 5.69452
#
# Compressibility (1/GPa) = 0.03196474
#
# Stress axis : x y z
#
# Youngs Moduli (GPa) = 47.09924 55.61594 51.98340
#
# Poissons Ratio (x) = 0.47665 -0.12813
# Poissons Ratio (y) = 0.40366 0.37098
# Poissons Ratio (z) = -0.11609 0.39690
#
# Static dielectric constant tensor:
#      x y z
#    x 1.759790 0.000000 -0.044820 
#    y 0.000000 1.767870 0.000000 
#    z -0.044820 0.000000 1.770100 
# 
# From -- ./inp_files/298591.got.cif
#   From: 2010.05.17/outbox.cif.g08.bks.cpg/sg15_150_cif.got.tgz:298591.got - 2010.06.03 18:47:42.
