data_PCOD9267605
_publ_section_title
;
Structure prediction by ZEFSAII (Michael W. Deem and Ramdas Pophale) SiO2 
 PCOD9267605
Probable space group: C 2/C
;
_chemical_formula_sum "Si O2"
_cell_formula_units_Z 64
_cell_length_a 8.667011
_cell_length_b 20.017706
_cell_length_c 21.768412
_cell_angle_alpha 90.000000
_cell_angle_beta 123.726323
_cell_angle_gamma 90.000000
_cell_volume 3141.063006
_symmetry_space_group_name_H-M "C 2/C"
_symmetry_group_IT_number 15
_symmetry_cell_setting 'monoclinic'
loop_
_space_group_symop_operation_xyz
x,y,z
-x,y,1/2-z
-x,-y,-z
x,-y,1/2+z
1/2+x,1/2+y,z
1/2-x,1/2+y,1/2-z
1/2-x,1/2-y,-z
1/2+x,1/2-y,1/2+z
loop_
_atom_site_type_symbol
_atom_site_label
_atom_site_fract_x
_atom_site_fract_y
_atom_site_fract_z
Si Si1 0.773701 0.343170 0.553695
Si Si2 0.929253 0.424577 0.480262
Si Si3 0.721740 0.421134 0.310663
Si Si4 0.947753 0.223422 0.919402
Si Si5 0.814403 0.702386 0.749708
Si Si6 0.304764 0.661958 0.325440
Si Si7 0.740747 0.658628 0.419055
Si Si8 0.222567 0.927638 0.793150
O O1 0.842911 0.403049 0.526286
O O2 0.563344 0.327695 0.485885
O O3 0.787466 0.348655 0.629450
O O4 0.902920 0.280192 0.565324
O O5 0.777284 0.412354 0.394052
O O6 0.000000 0.500000 0.500000
O O7 0.107700 0.377782 0.505446
O O8 0.500000 0.416429 0.250000
O O9 0.817865 0.364602 0.290675
O O10 0.789769 0.496463 0.310911
O O11 0.852050 0.197375 0.836542
O O12 0.793398 0.264022 0.923456
O O13 0.784058 0.765506 0.788505
O O14 0.000000 0.713513 0.750000
O O15 0.525293 0.651322 0.384978
O O16 0.234583 0.608765 0.260536
O O17 0.773012 0.620994 0.360583
O O18 0.000000 0.932415 0.750000
#
# Coordination Sequence:
#
# PCOD9267605 Si02
#       8
#     8   8   8   8   8   8   8   8
#     4  10  25  39  63  99 129 166 225 274 327 383
#     4  11  23  45  66  92 128 179 220 264 333 399
#     4  11  25  42  69  92 129 174 217 269 331 394
#     4  10  21  42  60  89 135 170 210 275 323 398
#     4  12  24  41  63  99 134 169 215 271 340 388
#     4  11  22  40  68 100 126 172 223 273 323 388
#     4  10  19  39  68  90 126 174 215 264 322 403
#     4   9  18  40  64  90 122 172 218 255 321 396
#
# _framework density 20.375267000000001
#
# number of rings (size 3 to 8) (size 9 to 14) (size 15 to 20)
#    0.000    1.500    3.750    1.125    7.000    1.500 
#    2.250    0.625    0.000    0.000    0.000    0.000 
#    0.000    0.000    0.000    0.000    0.000    0.000 
#
# Total GULP energy -178709.796837 kJ/mol
# GULP energy per Si atom -5584.681151 kJ/mol
# Density = 2.032889 g / cm^3
# Si number density = 20.375267 Si / 1000 Ang^3
#
#
#
# Elastic Constant Matrix: (Units=GPa)
#
#
# Indices 1 2 3 4 5 6 
#
# 1 45.8006 13.1003 30.5836 0.0000 -11.6924 0.0000
# 2 13.1003 77.3460 13.5981 0.0000 -18.4346 0.0000
# 3 30.5836 13.5981 103.2861 0.0000 -1.5324 0.0000
# 4 0.0000 0.0000 0.0000 24.1713 0.0000 6.3041
# 5 -11.6924 -18.4346 -1.5324 0.0000 37.9274 0.0000
# 6 0.0000 0.0000 0.0000 6.3041 0.0000 12.2341
#
#
#
# Elastic Compliance Matrix: (Units=1/GPa)
#
#
# Indices 1 2 3 4 5 6 
#
# 1 0.030111 -0.001654 -0.008578 0.000000 0.008132 0.000000
# 2 -0.001654 0.015064 -0.001393 0.000000 0.006756 0.000000
# 3 -0.008578 -0.001393 0.012363 0.000000 -0.002822 0.000000
# 4 0.000000 0.000000 0.000000 0.047794 0.000000 -0.024628
# 5 0.008132 0.006756 -0.002822 0.000000 0.032043 0.000000
# 6 0.000000 0.000000 0.000000 -0.024628 0.000000 0.094429
#
#
# Mechanical properties :
#
#
# Convention : Reuss Voigt Hill
#
# Bulk Modulus (GPa) = 29.16403 37.88852 33.52627
# Shear Modulus (GPa) = 18.76292 26.14328 22.45310
#
# Velocity S-wave (km/s) = 3.03787 3.58591 3.32321
# Velocity P-wave (km/s) = 5.16231 5.98170 5.58704
#
# Compressibility (1/GPa) = 0.03428882
#
# Stress axis : x y z
#
# Youngs Moduli (GPa) = 33.21099 66.38280 80.88468
#
# Poissons Ratio (x) = 0.10977 0.69379
# Poissons Ratio (y) = 0.05492 0.11270
# Poissons Ratio (z) = 0.28487 0.09250
#
# Static dielectric constant tensor:
#      x y z
#    x 1.742150 0.000000 0.030350 
#    y 0.000000 1.715780 0.000000 
#    z 0.030350 0.000000 1.750860 
# 
# From -- ./inp_files/233890.got.cif
#   From: 2010.05.17/outbox.cif.g08.bks.cpg/sg15_117_cif.got.tgz:233890.got - 2010.06.03 18:47:42.
