data_PCOD9267666
_publ_section_title
;
Structure prediction by ZEFSAII (Michael W. Deem and Ramdas Pophale) SiO2 
 PCOD9267666
Probable space group: C 2/C
;
_chemical_formula_sum "Si O2"
_cell_formula_units_Z 40
_cell_length_a 12.287396
_cell_length_b 20.135344
_cell_length_c 6.911980
_cell_angle_alpha 90.000000
_cell_angle_beta 63.441924
_cell_angle_gamma 90.000000
_cell_volume 1529.652590
_symmetry_space_group_name_H-M "C 2/C"
_symmetry_group_IT_number 15
_symmetry_cell_setting 'monoclinic'
loop_
_space_group_symop_operation_xyz
x,y,z
-x,y,1/2-z
-x,-y,-z
x,-y,1/2+z
1/2+x,1/2+y,z
1/2-x,1/2+y,1/2-z
1/2-x,1/2-y,-z
1/2+x,1/2-y,1/2+z
loop_
_atom_site_type_symbol
_atom_site_label
_atom_site_fract_x
_atom_site_fract_y
_atom_site_fract_z
Si Si1 0.500000 0.175550 0.750000
Si Si2 0.878745 0.904527 0.217405
Si Si3 0.000000 0.084477 0.250000
Si Si4 0.272086 0.623102 0.174672
Si Si5 0.327492 0.254346 0.134727
Si Si6 0.982808 0.422778 0.542442
O O1 0.548072 0.222952 0.543536
O O2 0.433373 0.121243 0.664992
O O3 0.781155 0.917277 0.465309
O O4 0.850613 0.828860 0.178745
O O5 0.000000 0.906357 0.250000
O O6 0.913059 0.944525 0.993509
O O7 0.896127 0.119875 0.201734
O O8 0.235657 0.700423 0.175632
O O9 0.159046 0.594190 0.384324
O O10 0.250000 0.250000 0.000000
O O11 0.000000 0.403431 0.750000
O O12 0.000000 0.500000 0.500000
#
# Coordination Sequence:
#
# PCOD9267666 Si02
#       6
#     4   8   4   8   8   8
#     4  10  25  40  58  96 128 174 216 273 330 386
#     4  10  21  36  58  89 133 180 219 261 319 397
#     4  10  19  40  58  90 132 168 214 263 330 390
#     4  10  23  37  63  95 126 178 219 275 327 393
#     4  11  21  34  58  87 134 176 215 257 322 391
#     4  11  24  45  70  95 126 170 224 286 342 385
#
# _framework density 26.149729000000001
#
# number of rings (size 3 to 8) (size 9 to 14) (size 15 to 20)
#    0.000    1.600    3.000    1.200    5.600    3.200 
#    0.000    0.000    0.000    1.200    0.000    0.000 
#    0.000    0.000    0.000    0.000    0.000    0.000 
#
# Total GULP energy -111426.414532 kJ/mol
# GULP energy per Si atom -5571.320727 kJ/mol
# Density = 2.609021 g / cm^3
# Si number density = 26.149729 Si / 1000 Ang^3
#
#
#
# Elastic Constant Matrix: (Units=GPa)
#
#
# Indices 1 2 3 4 5 6 
#
# 1 63.6350 18.8449 16.6060 0.0000 -10.6588 0.0000
# 2 18.8449 110.6193 13.3401 0.0000 -3.2387 0.0000
# 3 16.6060 13.3401 204.7990 0.0000 -1.7369 0.0000
# 4 0.0000 0.0000 0.0000 0.5727 0.0000 7.7825
# 5 -10.6588 -3.2387 -1.7369 0.0000 33.5264 0.0000
# 6 0.0000 0.0000 0.0000 7.7825 0.0000 24.8949
#
#
#
# Elastic Compliance Matrix: (Units=1/GPa)
#
#
# Indices 1 2 3 4 5 6 
#
# 1 0.017726 -0.002718 -0.001215 0.000000 0.005310 0.000000
# 2 -0.002718 0.009553 -0.000402 0.000000 0.000038 0.000000
# 3 -0.001215 -0.000402 0.005006 0.000000 -0.000166 0.000000
# 4 0.000000 0.000000 0.000000 -0.537556 0.000000 0.168049
# 5 0.005310 0.000038 -0.000166 0.000000 0.031510 0.000000
# 6 0.000000 0.000000 0.000000 0.168049 0.000000 -0.012366
#
#
# Mechanical properties :
#
#
# Convention : Reuss Voigt Hill
#
# Bulk Modulus (GPa) = 42.34492 52.95951 47.65222
# Shear Modulus (GPa) = -10.64768 33.81627 11.58429
#
# Velocity S-wave (km/s) = -2.02006 3.59998 2.10704
# Velocity P-wave (km/s) = 3.28444 6.12994 4.91751
#
# Compressibility (1/GPa) = 0.02361558
#
# Stress axis : x y z
#
# Youngs Moduli (GPa) = 56.41432 104.68422 199.75541
#
# Poissons Ratio (x) = 0.28451 0.24275
# Poissons Ratio (y) = 0.15332 0.08021
# Poissons Ratio (z) = 0.06856 0.04203
#
# Static dielectric constant tensor:
#      x y z
#    x 2.176200 0.000000 -0.110080 
#    y 0.000000 2.005550 0.000000 
#    z -0.110080 0.000000 2.163120 
# 
# From -- ./inp_files/7530.got.cif
#   From: 2010.05.17/outbox.cif.g08.bks.cpg/sg15_4_cif.got.tgz:7530.got - 2010.06.03 18:47:42.
