data_PCOD9267546
_publ_section_title
;
Structure prediction by ZEFSAII (Michael W. Deem and Ramdas Pophale) SiO2 
 PCOD9267546
Probable space group: C 2/C
;
_chemical_formula_sum "Si O2"
_cell_formula_units_Z 44
_cell_length_a 8.476478
_cell_length_b 22.667951
_cell_length_c 12.704666
_cell_angle_alpha 90.000000
_cell_angle_beta 110.915514
_cell_angle_gamma 90.000000
_cell_volume 2280.278941
_symmetry_space_group_name_H-M "C 2/C"
_symmetry_group_IT_number 15
_symmetry_cell_setting 'monoclinic'
loop_
_space_group_symop_operation_xyz
x,y,z
-x,y,1/2-z
-x,-y,-z
x,-y,1/2+z
1/2+x,1/2+y,z
1/2-x,1/2+y,1/2-z
1/2-x,1/2-y,-z
1/2+x,1/2-y,1/2+z
loop_
_atom_site_type_symbol
_atom_site_label
_atom_site_fract_x
_atom_site_fract_y
_atom_site_fract_z
Si Si1 0.304110 0.335276 0.926655
Si Si2 0.081703 0.936824 0.990540
Si Si3 0.656358 0.984240 0.611945
Si Si4 0.187845 0.097383 0.743003
Si Si5 0.191719 0.785232 0.333787
Si Si6 0.000000 0.402360 0.750000
O O1 0.445146 0.385011 0.938805
O O2 0.304088 0.273474 0.863711
O O3 0.126191 0.364516 0.852377
O O4 0.314893 0.314432 0.050882
O O5 0.202090 0.950311 0.921542
O O6 0.180475 0.917918 0.119023
O O7 0.000000 0.000000 0.000000
O O8 0.604498 0.943719 0.696766
O O9 0.500000 0.000000 0.500000
O O10 0.721366 0.046054 0.672270
O O11 0.260425 0.162425 0.777557
O O12 0.000000 0.099469 0.750000
O O13 0.000000 0.770760 0.250000
#
# Coordination Sequence:
#
# PCOD9267546 Si02
#       6
#     8   8   8   8   8   4
#     4  11  22  38  67  98 126 177 225 266 325 398
#     4  12  22  38  66  98 131 168 221 269 335 398
#     4  12  25  41  63  96 135 170 216 277 335 396
#     4  11  20  38  65  93 125 173 216 261 327 391
#     4  10  19  39  65  95 129 174 227 262 320 401
#     4  12  26  40  62  96 136 172 216 278 342 386
#
# _framework density 19.295884000000001
#
# number of rings (size 3 to 8) (size 9 to 14) (size 15 to 20)
#    0.000    0.727    6.364    4.364    0.000    0.000 
#    0.000    0.000    0.000   26.182    0.000    0.000 
#    0.000    0.000    0.000    0.000    0.000    0.000 
#
# Total GULP energy -122887.983446 kJ/mol
# GULP energy per Si atom -5585.817429 kJ/mol
# Density = 1.925197 g / cm^3
# Si number density = 19.295884 Si / 1000 Ang^3
#
#
#
# Elastic Constant Matrix: (Units=GPa)
#
#
# Indices 1 2 3 4 5 6 
#
# 1 78.5047 57.3264 35.3351 0.0000 -7.0753 0.0000
# 2 57.3264 191.3058 61.0094 0.0000 6.2668 0.0000
# 3 35.3351 61.0094 104.4667 0.0000 12.0114 0.0000
# 4 0.0000 0.0000 0.0000 206.3541 0.0000 -141.2085
# 5 -7.0753 6.2668 12.0114 0.0000 40.5376 0.0000
# 6 0.0000 0.0000 0.0000 -141.2085 0.0000 177.5950
#
#
#
# Elastic Compliance Matrix: (Units=1/GPa)
#
#
# Indices 1 2 3 4 5 6 
#
# 1 0.018236 -0.004273 -0.004260 0.000000 0.005106 0.000000
# 2 -0.004273 0.007426 -0.002768 0.000000 -0.001074 0.000000
# 3 -0.004260 -0.002768 0.013113 0.000000 -0.004201 0.000000
# 4 0.000000 0.000000 0.000000 0.010630 0.000000 0.008452
# 5 0.005106 -0.001074 -0.004201 0.000000 0.026970 0.000000
# 6 0.000000 0.000000 0.000000 0.008452 0.000000 0.012351
#
#
# Mechanical properties :
#
#
# Convention : Reuss Voigt Hill
#
# Bulk Modulus (GPa) = 61.83185 75.73544 68.78365
# Shear Modulus (GPa) = 42.83855 99.60443 71.22149
#
# Velocity S-wave (km/s) = 4.71689 7.19247 6.08197
# Velocity P-wave (km/s) = 7.85997 10.40722 9.22196
#
# Compressibility (1/GPa) = 0.01617289
#
# Stress axis : x y z
#
# Youngs Moduli (GPa) = 54.83650 134.66870 76.26278
#
# Poissons Ratio (x) = 0.57550 0.32484
# Poissons Ratio (y) = 0.23434 0.21107
# Poissons Ratio (z) = 0.23358 0.37272
#
# Static dielectric constant tensor:
#      x y z
#    x 1.629460 0.000000 0.028980 
#    y 0.000000 1.722100 0.000000 
#    z 0.028980 0.000000 1.673300 
# 
# From -- ./inp_files/78107.got.cif
#   From: 2010.05.17/outbox.cif.g08.bks.cpg/sg15_40_cif.got.tgz:78107.got - 2010.06.03 18:47:42.
