data_PCOD9267240
_publ_section_title
;
Structure prediction by ZEFSAII (Michael W. Deem and Ramdas Pophale) SiO2 
 PCOD9267240
Probable space group: C 2/C
;
_chemical_formula_sum "Si O2"
_cell_formula_units_Z 60
_cell_length_a 18.090331
_cell_length_b 22.730408
_cell_length_c 7.257696
_cell_angle_alpha 90.000000
_cell_angle_beta 123.989232
_cell_angle_gamma 90.000000
_cell_volume 2474.467610
_symmetry_space_group_name_H-M "C 2/C"
_symmetry_group_IT_number 15
_symmetry_cell_setting 'monoclinic'
loop_
_space_group_symop_operation_xyz
x,y,z
-x,y,1/2-z
-x,-y,-z
x,-y,1/2+z
1/2+x,1/2+y,z
1/2-x,1/2+y,1/2-z
1/2-x,1/2-y,-z
1/2+x,1/2-y,1/2+z
loop_
_atom_site_type_symbol
_atom_site_label
_atom_site_fract_x
_atom_site_fract_y
_atom_site_fract_z
Si Si1 0.982378 0.812795 0.446411
Si Si2 0.109248 0.072062 0.618570
Si Si3 0.446093 0.057970 0.485866
Si Si4 0.500000 0.496009 0.250000
Si Si5 0.804654 0.686829 0.779578
Si Si6 0.186555 0.176672 0.261485
Si Si7 0.727859 0.095235 0.431116
Si Si8 0.504171 0.187056 0.039427
O O1 0.081359 0.826458 0.655785
O O2 0.953931 0.747517 0.472455
O O3 0.000000 0.816028 0.250000
O O4 0.908623 0.858807 0.403984
O O5 0.085983 0.037493 0.401735
O O6 0.201718 0.059332 0.846317
O O7 0.027255 0.047949 0.626941
O O8 0.500000 0.067326 0.750000
O O9 0.343391 0.052063 0.271044
O O10 0.453645 0.124124 0.419740
O O11 0.500000 0.000000 0.500000
O O12 0.794111 0.757331 0.793130
O O13 0.738971 0.668128 0.524931
O O14 0.802779 0.645420 0.959058
O O15 0.903459 0.681663 0.830649
O O16 0.219557 0.130070 0.156134
O O17 0.500000 0.198211 0.250000
#
# Coordination Sequence:
#
# PCOD9267240 Si02
#       8
#     8   8   8   4   8   8   8   8
#     4  10  19  38  69  95 138 181 211 271 349 412
#     4  11  23  43  65  99 130 181 224 276 338 412
#     4  12  28  48  70  94 130 182 237 295 353 418
#     4  10  24  44  64  88 144 176 218 268 334 414
#     4  10  22  38  66 100 140 178 220 279 347 411
#     4  10  21  39  63 104 143 176 218 277 344 415
#     4  12  24  41  69  99 130 176 237 290 334 408
#     4  10  20  42  66  94 132 176 217 277 349 405
#
# _framework density 24.247638999999999
#
# number of rings (size 3 to 8) (size 9 to 14) (size 15 to 20)
#    0.000    1.333    3.333    1.600    1.867    2.133 
#    1.200    0.000    0.000    0.000    0.000    0.000 
#    0.000    0.000    0.000    0.000    0.000    0.000 
#
# Total GULP energy -167269.070113 kJ/mol
# GULP energy per Si atom -5575.635670 kJ/mol
# Density = 2.419245 g / cm^3
# Si number density = 24.247639 Si / 1000 Ang^3
#
#
#
# Elastic Constant Matrix: (Units=GPa)
#
#
# Indices 1 2 3 4 5 6 
#
# 1 19.2941 20.6365 14.8954 0.0000 0.3846 0.0000
# 2 20.6365 107.6747 28.6474 0.0000 1.7972 0.0000
# 3 14.8954 28.6474 190.7036 0.0000 23.6694 0.0000
# 4 0.0000 0.0000 0.0000 37.2833 0.0000 22.9538
# 5 0.3846 1.7972 23.6694 0.0000 38.1734 0.0000
# 6 0.0000 0.0000 0.0000 22.9538 0.0000 47.1886
#
#
#
# Elastic Compliance Matrix: (Units=1/GPa)
#
#
# Indices 1 2 3 4 5 6 
#
# 1 0.067484 -0.011974 -0.003746 0.000000 0.002207 0.000000
# 2 -0.011974 0.011807 -0.000850 0.000000 0.000092 0.000000
# 3 -0.003746 -0.000850 0.006126 0.000000 -0.003721 0.000000
# 4 0.000000 0.000000 0.000000 0.038288 0.000000 -0.018624
# 5 0.002207 0.000092 -0.003721 0.000000 0.028477 0.000000
# 6 0.000000 0.000000 0.000000 -0.018624 0.000000 0.030251
#
#
# Mechanical properties :
#
#
# Convention : Reuss Voigt Hill
#
# Bulk Modulus (GPa) = 19.12882 49.55899 34.34390
# Shear Modulus (GPa) = 21.45948 41.42860 31.44404
#
# Velocity S-wave (km/s) = 2.97814 4.13796 3.60500
# Velocity P-wave (km/s) = 4.44206 6.58129 5.61450
#
# Compressibility (1/GPa) = 0.05227714
#
# Stress axis : x y z
#
# Youngs Moduli (GPa) = 14.81826 84.69819 163.24485
#
# Poissons Ratio (x) = 1.01417 0.61155
# Poissons Ratio (y) = 0.17743 0.13871
# Poissons Ratio (z) = 0.05551 0.07197
#
# Static dielectric constant tensor:
#      x y z
#    x 2.015110 0.000000 0.211600 
#    y 0.000000 1.817100 0.000000 
#    z 0.211600 0.000000 2.543010 
# 
# From -- ./inp_files/63538.got.cif
#   From: 2010.05.17/outbox.cif.g08.bks.cpg/sg15_32_cif.got.tgz:63538.got - 2010.06.03 18:47:42.
