data_PCOD9267369
_publ_section_title
;
Structure prediction by ZEFSAII (Michael W. Deem and Ramdas Pophale) SiO2 
 PCOD9267369
Probable space group: C 2/C
;
_chemical_formula_sum "Si O2"
_cell_formula_units_Z 44
_cell_length_a 8.572271
_cell_length_b 26.992741
_cell_length_c 9.080046
_cell_angle_alpha 90.000000
_cell_angle_beta 95.979667
_cell_angle_gamma 90.000000
_cell_volume 2089.591768
_symmetry_space_group_name_H-M "C 2/C"
_symmetry_group_IT_number 15
_symmetry_cell_setting 'monoclinic'
loop_
_space_group_symop_operation_xyz
x,y,z
-x,y,1/2-z
-x,-y,-z
x,-y,1/2+z
1/2+x,1/2+y,z
1/2-x,1/2+y,1/2-z
1/2-x,1/2-y,-z
1/2+x,1/2-y,1/2+z
loop_
_atom_site_type_symbol
_atom_site_label
_atom_site_fract_x
_atom_site_fract_y
_atom_site_fract_z
Si Si1 0.667466 0.608955 0.835105
Si Si2 0.696229 0.165987 0.905976
Si Si3 0.534140 0.656594 0.096576
Si Si4 0.051659 0.417584 0.593709
Si Si5 0.644554 0.019073 0.647736
Si Si6 0.500000 0.749296 0.250000
O O1 0.500000 0.620145 0.750000
O O2 0.788814 0.641730 0.754821
O O3 0.709178 0.552653 0.797537
O O4 0.648027 0.626138 0.001547
O O5 0.608400 0.217136 0.864852
O O6 0.868594 0.167868 0.998069
O O7 0.602023 0.127761 0.999058
O O8 0.500000 0.630276 0.250000
O O9 0.596459 0.710347 0.157286
O O10 0.180076 0.461698 0.622771
O O11 0.000000 0.401496 0.750000
O O12 0.917767 0.450254 0.499880
O O13 0.500000 0.021614 0.750000
#
# Coordination Sequence:
#
# PCOD9267369 Si02
#       6
#     8   8   8   8   8   4
#     4  10  21  39  64  87 125 165 198 245 309 373
#     4  11  20  40  62  89 121 164 207 246 316 364
#     4   9  23  40  57  90 123 157 201 261 302 367
#     4  10  22  34  61  92 122 156 206 258 290 358
#     4  10  19  39  61  90 123 161 205 246 303 359
#     4  10  22  40  66  86 122 160 206 262 308 366
#
# _framework density 21.056743999999998
#
# number of rings (size 3 to 8) (size 9 to 14) (size 15 to 20)
#    0.545    1.455    1.818    1.636    2.545    0.727 
#    0.000    7.273    0.000    0.000    0.000    0.000 
#    0.000    0.000    0.000    0.000    0.000    0.000 
#
# Total GULP energy -122537.932258 kJ/mol
# GULP energy per Si atom -5569.906012 kJ/mol
# Density = 2.100882 g / cm^3
# Si number density = 21.056744 Si / 1000 Ang^3
#
#
#
# Elastic Constant Matrix: (Units=GPa)
#
#
# Indices 1 2 3 4 5 6 
#
# 1 33.4568 23.8095 30.6534 0.0000 -6.5743 0.0000
# 2 23.8095 103.1600 42.2057 0.0000 -19.9835 0.0000
# 3 30.6534 42.2057 149.9860 0.0000 -25.5278 0.0000
# 4 0.0000 0.0000 0.0000 35.9958 0.0000 13.0415
# 5 -6.5743 -19.9835 -25.5278 0.0000 24.1418 0.0000
# 6 0.0000 0.0000 0.0000 13.0415 0.0000 2.6489
#
#
#
# Elastic Compliance Matrix: (Units=1/GPa)
#
#
# Indices 1 2 3 4 5 6 
#
# 1 0.040595 -0.006997 -0.006624 0.000000 -0.001741 0.000000
# 2 -0.006997 0.013253 -0.000923 0.000000 0.008089 0.000000
# 3 -0.006624 -0.000923 0.009565 0.000000 0.007547 0.000000
# 4 0.000000 0.000000 0.000000 -0.035445 0.000000 0.174510
# 5 -0.001741 0.008089 0.007547 0.000000 0.055624 0.000000
# 6 0.000000 0.000000 0.000000 0.174510 0.000000 -0.481664
#
#
# Mechanical properties :
#
#
# Convention : Reuss Voigt Hill
#
# Bulk Modulus (GPa) = 29.13181 53.32667 41.22924
# Shear Modulus (GPa) = -13.98433 25.21957 5.61762
#
# Velocity S-wave (km/s) = -2.57986 3.46453 1.63513
# Velocity P-wave (km/s) = 2.23399 6.43305 4.81533
#
# Compressibility (1/GPa) = 0.03432674
#
# Stress axis : x y z
#
# Youngs Moduli (GPa) = 24.63336 75.45475 104.54568
#
# Poissons Ratio (x) = 0.52793 0.69253
# Poissons Ratio (y) = 0.17235 0.09646
# Poissons Ratio (z) = 0.16318 0.06962
#
# Static dielectric constant tensor:
#      x y z
#    x 1.849720 0.000000 0.066840 
#    y 0.000000 1.793150 0.000000 
#    z 0.066840 0.000000 1.841810 
# 
# From -- ./inp_files/25564.got.cif
#   From: 2010.05.17/outbox.cif.g08.bks.cpg/sg15_13_cif.got.tgz:25564.got - 2010.06.03 18:47:42.
