data_PCOD9267752
_publ_section_title
;
Structure prediction by ZEFSAII (Michael W. Deem and Ramdas Pophale) SiO2 
 PCOD9267752
Probable space group: C 2/C
;
_chemical_formula_sum "Si O2"
_cell_formula_units_Z 64
_cell_length_a 19.145668
_cell_length_b 20.783959
_cell_length_c 8.822102
_cell_angle_alpha 90.000000
_cell_angle_beta 48.968976
_cell_angle_gamma 90.000000
_cell_volume 2648.172107
_symmetry_space_group_name_H-M "C 2/C"
_symmetry_group_IT_number 15
_symmetry_cell_setting 'monoclinic'
loop_
_space_group_symop_operation_xyz
x,y,z
-x,y,1/2-z
-x,-y,-z
x,-y,1/2+z
1/2+x,1/2+y,z
1/2-x,1/2+y,1/2-z
1/2-x,1/2-y,-z
1/2+x,1/2-y,1/2+z
loop_
_atom_site_type_symbol
_atom_site_label
_atom_site_fract_x
_atom_site_fract_y
_atom_site_fract_z
Si Si1 0.675920 0.747582 0.887355
Si Si2 0.367712 0.917091 0.878190
Si Si3 0.340408 0.551748 0.923414
Si Si4 0.911562 0.456450 0.474575
Si Si5 0.707281 0.423965 0.663024
Si Si6 0.362558 0.286362 0.744536
Si Si7 0.559910 0.663176 0.857442
Si Si8 0.146971 0.721938 0.124563
O O1 0.787921 0.752491 0.739423
O O2 0.635412 0.680462 0.880140
O O3 0.634274 0.796523 0.823881
O O4 0.634416 0.757153 0.111494
O O5 0.410731 0.939358 0.654395
O O6 0.382755 0.843630 0.908884
O O7 0.399068 0.966719 0.962082
O O8 0.256830 0.921282 0.005326
O O9 0.335375 0.476858 0.888572
O O10 0.422473 0.591918 0.727406
O O11 0.337689 0.564609 0.106420
O O12 0.816411 0.431666 0.534291
O O13 0.000000 0.435620 0.250000
O O14 0.689394 0.352062 0.636944
O O15 0.461941 0.312357 0.555204
O O16 0.589577 0.713377 0.683690
O O17 0.250000 0.750000 0.000000
#
# Coordination Sequence:
#
# PCOD9267752 Si02
#       8
#     8   8   8   8   8   8   8   8
#     4   9  22  40  65  89 132 168 212 277 333 376
#     4  10  19  40  63  92 128 167 217 269 329 392
#     4  10  21  41  65  96 130 179 217 271 343 397
#     4  10  21  39  64  92 128 170 219 273 332 395
#     4  10  24  40  66  96 134 174 220 281 340 393
#     4  11  22  43  63  99 131 166 227 276 329 405
#     4  10  23  40  69  89 131 176 220 268 334 405
#     4  10  20  41  66  88 128 179 210 259 339 389
#
# _framework density 24.167612999999999
#
# number of rings (size 3 to 8) (size 9 to 14) (size 15 to 20)
#    0.750    1.250    1.250    2.250    1.750    1.000 
#   11.250    3.750    0.000    0.000    0.000    0.000 
#    0.000    0.000    0.000    0.000    0.000    0.000 
#
# Total GULP energy -178530.146638 kJ/mol
# GULP energy per Si atom -5579.067082 kJ/mol
# Density = 2.411261 g / cm^3
# Si number density = 24.167613 Si / 1000 Ang^3
#
#
#
# Elastic Constant Matrix: (Units=GPa)
#
#
# Indices 1 2 3 4 5 6 
#
# 1 76.0677 10.5187 21.1855 0.0000 -9.3532 0.0000
# 2 10.5187 108.1338 17.9994 0.0000 -9.1450 0.0000
# 3 21.1855 17.9994 106.6806 0.0000 -36.5336 0.0000
# 4 0.0000 0.0000 0.0000 28.7642 0.0000 10.1703
# 5 -9.3532 -9.1450 -36.5336 0.0000 32.6535 0.0000
# 6 0.0000 0.0000 0.0000 10.1703 0.0000 10.7658
#
#
#
# Elastic Compliance Matrix: (Units=1/GPa)
#
#
# Indices 1 2 3 4 5 6 
#
# 1 0.014041 -0.000890 -0.002182 0.000000 0.001331 0.000000
# 2 -0.000890 0.009612 -0.000990 0.000000 0.001330 0.000000
# 3 -0.002182 -0.000990 0.015669 0.000000 0.016628 0.000000
# 4 0.000000 0.000000 0.000000 0.052202 0.000000 -0.049314
# 5 0.001331 0.001330 0.016628 0.000000 0.049982 0.000000
# 6 0.000000 0.000000 0.000000 -0.049314 0.000000 0.139474
#
#
# Mechanical properties :
#
#
# Convention : Reuss Voigt Hill
#
# Bulk Modulus (GPa) = 32.05447 43.36549 37.70998
# Shear Modulus (GPa) = 16.69442 30.51525 23.60484
#
# Velocity S-wave (km/s) = 2.63111 3.55723 3.12863
# Velocity P-wave (km/s) = 4.74579 5.90377 5.35617
#
# Compressibility (1/GPa) = 0.03119690
#
# Stress axis : x y z
#
# Youngs Moduli (GPa) = 71.22149 104.04146 63.82195
#
# Poissons Ratio (x) = 0.09260 0.13929
# Poissons Ratio (y) = 0.06339 0.06316
# Poissons Ratio (z) = 0.15544 0.10296
#
# Static dielectric constant tensor:
#      x y z
#    x 2.005830 0.000000 0.082980 
#    y 0.000000 1.942490 0.000000 
#    z 0.082980 0.000000 2.126790 
# 
# From -- ./inp_files/119712.got.cif
#   From: 2010.05.17/outbox.cif.g08.bks.cpg/sg15_60_cif.got.tgz:119712.got - 2010.06.03 18:47:42.
