data_PCOD9267293
_publ_section_title
;
Structure prediction by ZEFSAII (Michael W. Deem and Ramdas Pophale) SiO2 
 PCOD9267293
Probable space group: C 2/C
;
_chemical_formula_sum "Si O2"
_cell_formula_units_Z 56
_cell_length_a 12.802396
_cell_length_b 11.939636
_cell_length_c 22.698034
_cell_angle_alpha 90.000000
_cell_angle_beta 57.679857
_cell_angle_gamma 90.000000
_cell_volume 2932.008913
_symmetry_space_group_name_H-M "C 2/C"
_symmetry_group_IT_number 15
_symmetry_cell_setting 'monoclinic'
loop_
_space_group_symop_operation_xyz
x,y,z
-x,y,1/2-z
-x,-y,-z
x,-y,1/2+z
1/2+x,1/2+y,z
1/2-x,1/2+y,1/2-z
1/2-x,1/2-y,-z
1/2+x,1/2-y,1/2+z
loop_
_atom_site_type_symbol
_atom_site_label
_atom_site_fract_x
_atom_site_fract_y
_atom_site_fract_z
Si Si1 0.907952 0.841043 0.472269
Si Si2 0.128796 0.055777 0.840199
Si Si3 0.887040 0.823420 0.613488
Si Si4 0.130234 0.246019 0.744205
Si Si5 0.526952 0.907258 0.408760
Si Si6 0.609329 0.992054 0.763453
Si Si7 0.339722 0.914645 0.008594
O O1 0.880220 0.868179 0.548773
O O2 0.804916 0.899876 0.462050
O O3 0.894823 0.706162 0.471472
O O4 0.042347 0.881789 0.412698
O O5 0.129648 0.134185 0.782675
O O6 0.084558 0.926414 0.851803
O O7 0.273187 0.036587 0.808148
O O8 0.754702 0.764365 0.668123
O O9 0.989175 0.726358 0.584336
O O10 0.129176 0.364198 0.779458
O O11 0.000000 0.244148 0.750000
O O12 0.620662 0.930826 0.435190
O O13 0.582796 0.936158 0.328784
O O14 0.406958 0.984041 0.454804
O O15 0.500000 0.991929 0.750000
#
# Coordination Sequence:
#
# PCOD9267293 Si02
#       7
#     8   8   8   8   8   8   8
#     4  10  21  37  63  92 122 151 213 253 302 352
#     4  11  22  37  61  90 120 157 197 256 307 350
#     4  10  22  39  57  88 127 160 195 256 301 373
#     4  10  22  37  63  90 111 155 210 252 303 348
#     4  10  19  39  58  86 124 157 200 244 304 358
#     4  10  22  38  63  86 117 159 206 246 296 368
#     4   9  21  35  66  91 115 159 203 260 294 352
#
# _framework density 19.099533999999998
#
# number of rings (size 3 to 8) (size 9 to 14) (size 15 to 20)
#    0.000    2.000    1.429    1.286   12.000    0.000 
#    0.000    1.429    9.429    0.000    0.000    0.000 
#    0.000    0.000    0.000    0.000    0.000    0.000 
#
# Total GULP energy -155955.884883 kJ/mol
# GULP energy per Si atom -5569.853032 kJ/mol
# Density = 1.905606 g / cm^3
# Si number density = 19.099534 Si / 1000 Ang^3
#
#
#
# Elastic Constant Matrix: (Units=GPa)
#
#
# Indices 1 2 3 4 5 6 
#
# 1 61.7798 46.3862 29.9228 0.0000 -7.8405 0.0000
# 2 46.3862 75.5308 35.0490 0.0000 -8.5858 0.0000
# 3 29.9228 35.0490 101.0005 0.0000 -6.1291 0.0000
# 4 0.0000 0.0000 0.0000 40.9429 0.0000 1.2862
# 5 -7.8405 -8.5858 -6.1291 0.0000 17.0925 0.0000
# 6 0.0000 0.0000 0.0000 1.2862 0.0000 19.8361
#
#
#
# Elastic Compliance Matrix: (Units=1/GPa)
#
#
# Indices 1 2 3 4 5 6 
#
# 1 0.031138 -0.017226 -0.002970 0.000000 0.004565 0.000000
# 2 -0.017226 0.025957 -0.003672 0.000000 0.003820 0.000000
# 3 -0.002970 -0.003672 0.012125 0.000000 0.001140 0.000000
# 4 0.000000 0.000000 0.000000 0.024474 0.000000 -0.001587
# 5 0.004565 0.003820 0.001140 0.000000 0.062927 0.000000
# 6 0.000000 0.000000 0.000000 -0.001587 0.000000 0.050516
#
#
# Mechanical properties :
#
#
# Convention : Reuss Voigt Hill
#
# Bulk Modulus (GPa) = 46.54914 51.22522 48.88718
# Shear Modulus (GPa) = 19.08140 24.03784 21.55962
#
# Velocity S-wave (km/s) = 3.16420 3.55146 3.36341
# Velocity P-wave (km/s) = 6.14609 6.61026 6.38239
#
# Compressibility (1/GPa) = 0.02148267
#
# Stress axis : x y z
#
# Youngs Moduli (GPa) = 32.11474 38.52532 82.47729
#
# Poissons Ratio (x) = 0.66363 0.24499
# Poissons Ratio (y) = 0.55320 0.30288
# Poissons Ratio (z) = 0.09539 0.14148
#
# Static dielectric constant tensor:
#      x y z
#    x 1.651560 0.000000 -0.007820 
#    y 0.000000 1.709930 0.000000 
#    z -0.007820 0.000000 1.692550 
# 
# From -- ./inp_files/268740.got.cif
#   From: 2010.05.17/outbox.cif.g08.bks.cpg/sg15_135_cif.got.tgz:268740.got - 2010.06.03 18:47:42.
