data_PCOD9267619
_publ_section_title
;
Structure prediction by ZEFSAII (Michael W. Deem and Ramdas Pophale) SiO2 
 PCOD9267619
Probable space group: C 2/C
;
_chemical_formula_sum "Si O2"
_cell_formula_units_Z 56
_cell_length_a 17.277623
_cell_length_b 17.137820
_cell_length_c 9.447546
_cell_angle_alpha 90.000000
_cell_angle_beta 114.409666
_cell_angle_gamma 90.000000
_cell_volume 2547.375030
_symmetry_space_group_name_H-M "C 2/C"
_symmetry_group_IT_number 15
_symmetry_cell_setting 'monoclinic'
loop_
_space_group_symop_operation_xyz
x,y,z
-x,y,1/2-z
-x,-y,-z
x,-y,1/2+z
1/2+x,1/2+y,z
1/2-x,1/2+y,1/2-z
1/2-x,1/2-y,-z
1/2+x,1/2-y,1/2+z
loop_
_atom_site_type_symbol
_atom_site_label
_atom_site_fract_x
_atom_site_fract_y
_atom_site_fract_z
Si Si1 0.897878 0.612573 0.652276
Si Si2 0.844337 0.562453 0.139817
Si Si3 0.176563 0.861831 0.566763
Si Si4 0.412722 0.337306 0.272982
Si Si5 0.866397 0.688426 0.918561
Si Si6 0.934121 0.324600 0.886636
Si Si7 0.506080 0.582617 0.083930
O O1 0.855473 0.527738 0.615504
O O2 0.859992 0.661130 0.752784
O O3 0.891690 0.661321 0.504686
O O4 0.000000 0.601087 0.750000
O O5 0.759418 0.587395 0.159668
O O6 0.922203 0.595259 0.292891
O O7 0.842738 0.615877 0.999264
O O8 0.152121 0.877954 0.383049
O O9 0.182933 0.768265 0.588152
O O10 0.097591 0.883640 0.607550
O O11 0.500000 0.344663 0.250000
O O12 0.391507 0.246105 0.270548
O O13 0.432999 0.368119 0.445751
O O14 0.967827 0.699887 0.021973
O O15 0.500000 0.579011 0.250000
O O16 0.500000 0.500000 0.000000
#
# Coordination Sequence:
#
# PCOD9267619 Si02
#       7
#     8   8   8   8   8   8   8
#     4  10  24  40  65  99 136 174 231 284 340 405
#     4  12  23  41  61  97 140 178 220 278 347 402
#     4  11  24  42  68  99 136 177 225 281 340 405
#     4  10  19  39  68  98 127 171 222 271 331 400
#     4  11  21  40  68  94 131 181 231 271 334 412
#     4  11  20  38  68  95 131 177 226 278 333 405
#     4  11  24  46  73 100 126 172 230 278 332 398
#
# _framework density 21.983412999999999
#
# number of rings (size 3 to 8) (size 9 to 14) (size 15 to 20)
#    0.000    1.143    4.286    3.857    2.000    2.286 
#   10.286    0.714    0.000    0.000    0.000    0.000 
#    0.000    0.000    0.000    0.000    0.000    0.000 
#
# Total GULP energy -156470.034546 kJ/mol
# GULP energy per Si atom -5588.215519 kJ/mol
# Density = 2.193338 g / cm^3
# Si number density = 21.983413 Si / 1000 Ang^3
#
#
#
# Elastic Constant Matrix: (Units=GPa)
#
#
# Indices 1 2 3 4 5 6 
#
# 1 60.7607 18.6482 32.3625 0.0000 -9.5960 0.0000
# 2 18.6482 77.6590 14.1651 0.0000 -1.8447 0.0000
# 3 32.3625 14.1651 103.6972 0.0000 -34.6195 0.0000
# 4 0.0000 0.0000 0.0000 16.9716 0.0000 -9.0396
# 5 -9.5960 -1.8447 -34.6195 0.0000 35.9808 0.0000
# 6 0.0000 0.0000 0.0000 -9.0396 0.0000 23.8416
#
#
#
# Elastic Compliance Matrix: (Units=1/GPa)
#
#
# Indices 1 2 3 4 5 6 
#
# 1 0.020847 -0.003895 -0.006165 0.000000 -0.000571 0.000000
# 2 -0.003895 0.013993 -0.001183 0.000000 -0.001460 0.000000
# 3 -0.006165 -0.001183 0.016441 0.000000 0.014114 0.000000
# 4 0.000000 0.000000 0.000000 0.073832 0.000000 0.027994
# 5 -0.000571 -0.001460 0.014114 0.000000 0.041146 0.000000
# 6 0.000000 0.000000 0.000000 0.027994 0.000000 0.052558
#
#
# Mechanical properties :
#
#
# Convention : Reuss Voigt Hill
#
# Bulk Modulus (GPa) = 34.72817 41.38540 38.05678
# Shear Modulus (GPa) = 19.92819 27.15486 23.54152
#
# Velocity S-wave (km/s) = 3.01410 3.51842 3.27598
# Velocity P-wave (km/s) = 5.28628 5.94746 5.62659
#
# Compressibility (1/GPa) = 0.02879507
#
# Stress axis : x y z
#
# Youngs Moduli (GPa) = 47.96934 71.46283 60.82326
#
# Poissons Ratio (x) = 0.27835 0.37495
# Poissons Ratio (y) = 0.18684 0.07197
# Poissons Ratio (z) = 0.29571 0.08456
#
# Static dielectric constant tensor:
#      x y z
#    x 1.849880 0.000000 0.030530 
#    y 0.000000 1.804330 0.000000 
#    z 0.030530 0.000000 1.856420 
# 
# From -- ./inp_files/56727.got.cif
#   From: 2010.05.17/outbox.cif.g08.bks.cpg/sg15_29_cif.got.tgz:56727.got - 2010.06.03 18:47:42.
