data_PCOD9267012
_publ_section_title
;
Structure prediction by ZEFSAII (Michael W. Deem and Ramdas Pophale) SiO2 
 PCOD9267012
Probable space group: C 2/C
;
_chemical_formula_sum "Si O2"
_cell_formula_units_Z 48
_cell_length_a 9.222673
_cell_length_b 17.011501
_cell_length_c 18.100348
_cell_angle_alpha 90.000000
_cell_angle_beta 53.878418
_cell_angle_gamma 90.000000
_cell_volume 2293.891941
_symmetry_space_group_name_H-M "C 2/C"
_symmetry_group_IT_number 15
_symmetry_cell_setting 'monoclinic'
loop_
_space_group_symop_operation_xyz
x,y,z
-x,y,1/2-z
-x,-y,-z
x,-y,1/2+z
1/2+x,1/2+y,z
1/2-x,1/2+y,1/2-z
1/2-x,1/2-y,-z
1/2+x,1/2-y,1/2+z
loop_
_atom_site_type_symbol
_atom_site_label
_atom_site_fract_x
_atom_site_fract_y
_atom_site_fract_z
Si Si1 0.081294 0.268590 0.144021
Si Si2 0.051914 0.330866 0.583156
Si Si3 0.817664 0.034090 0.956914
Si Si4 0.867886 0.218493 0.074385
Si Si5 0.375364 0.404133 0.053871
Si Si6 0.809226 0.105810 0.347333
O O1 0.217955 0.340605 0.102986
O O2 0.179296 0.184097 0.104858
O O3 0.000000 0.266702 0.250000
O O4 0.929070 0.267819 0.126754
O O5 0.175208 0.396617 0.506459
O O6 0.054520 0.260540 0.522673
O O7 0.159283 0.298047 0.621555
O O8 0.858593 0.369948 0.653770
O O9 0.018634 0.071284 0.903227
O O10 0.782503 0.974079 0.900807
O O11 0.803524 0.980646 0.034458
O O12 0.966886 0.134427 0.043516
O O13 0.000000 0.098891 0.250000
#
# Coordination Sequence:
#
# PCOD9267012 Si02
#       6
#     8   8   8   8   8   8
#     4  11  22  38  62  89 122 167 205 247 314 379
#     4  10  21  37  66  94 116 157 216 255 309 363
#     4  10  21  37  63  91 120 157 208 260 303 361
#     4  10  19  38  67  89 117 155 211 263 289 370
#     4  10  19  38  64  87 117 159 211 252 297 369
#     4  11  22  39  60  89 127 164 199 253 320 376
#
# _framework density 20.925136999999999
#
# number of rings (size 3 to 8) (size 9 to 14) (size 15 to 20)
#    0.000    1.667    3.333    2.000    0.000    0.000 
#    6.000    3.333    0.000    0.000    0.000    0.000 
#    0.000    0.000    0.000    0.000    0.000    0.000 
#
# Total GULP energy -133801.906206 kJ/mol
# GULP energy per Si atom -5575.079425 kJ/mol
# Density = 2.087751 g / cm^3
# Si number density = 20.925137 Si / 1000 Ang^3
#
#
#
# Elastic Constant Matrix: (Units=GPa)
#
#
# Indices 1 2 3 4 5 6 
#
# 1 162.9934 30.4130 34.0731 0.0000 -5.9439 0.0000
# 2 30.4130 108.2960 5.7905 0.0000 -4.9702 0.0000
# 3 34.0731 5.7905 28.7546 0.0000 -6.1983 0.0000
# 4 0.0000 0.0000 0.0000 13.3764 0.0000 -5.6067
# 5 -5.9439 -4.9702 -6.1983 0.0000 21.8937 0.0000
# 6 0.0000 0.0000 0.0000 -5.6067 0.0000 40.4299
#
#
#
# Elastic Compliance Matrix: (Units=1/GPa)
#
#
# Indices 1 2 3 4 5 6 
#
# 1 0.008532 -0.001908 -0.009926 0.000000 -0.000927 0.000000
# 2 -0.001908 0.009820 0.000695 0.000000 0.001908 0.000000
# 3 -0.009926 0.000695 0.048832 0.000000 0.011288 0.000000
# 4 0.000000 0.000000 0.000000 0.079372 0.000000 0.011007
# 5 -0.000927 0.001908 0.011288 0.000000 0.049052 0.000000
# 6 0.000000 0.000000 0.000000 0.011007 0.000000 0.026261
#
#
# Mechanical properties :
#
#
# Convention : Reuss Voigt Hill
#
# Bulk Modulus (GPa) = 22.26874 48.95524 35.61199
# Shear Modulus (GPa) = 19.29625 30.45785 24.87705
#
# Velocity S-wave (km/s) = 3.04000 3.81932 3.45172
# Velocity P-wave (km/s) = 4.79451 6.54949 5.73948
#
# Compressibility (1/GPa) = 0.04490601
#
# Stress axis : x y z
#
# Youngs Moduli (GPa) = 117.19949 101.83094 20.47818
#
# Poissons Ratio (x) = 0.19429 0.20327
# Poissons Ratio (y) = 0.22361 -0.01422
# Poissons Ratio (z) = 1.16335 -0.07073
#
# Static dielectric constant tensor:
#      x y z
#    x 1.863450 0.000000 -0.013810 
#    y 0.000000 1.751100 0.000000 
#    z -0.013810 0.000000 1.749440 
# 
# From -- ./inp_files/190246.got.cif
#   From: 2010.05.17/outbox.cif.g08.bks.cpg/sg15_96_cif.got.tgz:190246.got - 2010.06.03 18:47:42.
