data_PCOD9267914
_publ_section_title
;
Structure prediction by ZEFSAII (Michael W. Deem and Ramdas Pophale) SiO2 
 PCOD9267914
Probable space group: C 2/C
;
_chemical_formula_sum "Si O2"
_cell_formula_units_Z 60
_cell_length_a 24.720178
_cell_length_b 17.246498
_cell_length_c 13.887033
_cell_angle_alpha 90.000000
_cell_angle_beta 24.463693
_cell_angle_gamma 90.000000
_cell_volume 2451.797277
_symmetry_space_group_name_H-M "C 2/C"
_symmetry_group_IT_number 15
_symmetry_cell_setting 'monoclinic'
loop_
_space_group_symop_operation_xyz
x,y,z
-x,y,1/2-z
-x,-y,-z
x,-y,1/2+z
1/2+x,1/2+y,z
1/2-x,1/2+y,1/2-z
1/2-x,1/2-y,-z
1/2+x,1/2-y,1/2+z
loop_
_atom_site_type_symbol
_atom_site_label
_atom_site_fract_x
_atom_site_fract_y
_atom_site_fract_z
Si Si1 0.500000 0.427578 0.250000
Si Si2 0.424887 0.700691 0.625991
Si Si3 0.764586 0.834678 0.576841
Si Si4 0.229674 0.228954 0.144110
Si Si5 0.912287 0.033786 0.545286
Si Si6 0.274197 0.891752 0.301312
Si Si7 0.222593 0.436237 0.976587
Si Si8 0.548637 0.054528 0.335263
O O1 0.369919 0.375584 0.475473
O O2 0.515628 0.482534 0.317888
O O3 0.357014 0.691705 0.839538
O O4 0.573102 0.725156 0.405343
O O5 0.434157 0.619372 0.553585
O O6 0.330125 0.766166 0.732381
O O7 0.665980 0.895402 0.687969
O O8 0.279489 0.304430 0.118714
O O9 0.293251 0.144655 0.054295
O O10 0.250000 0.250000 0.000000
O O11 0.806501 0.049947 0.632722
O O12 0.151580 0.020970 0.270756
O O13 0.267807 0.914938 0.424978
O O14 0.421842 0.894106 0.021141
O O15 0.106602 0.498770 0.159867
O O16 0.500000 0.000000 0.500000
#
# Coordination Sequence:
#
# PCOD9267914 Si02
#       8
#     4   8   8   8   8   8   8   8
#     4  12  28  44  72 106 144 184 244 312 354 440
#     4  11  25  44  71 102 141 190 242 290 367 439
#     4  11  24  47  68 101 141 191 233 291 368 427
#     4  10  22  42  72  97 135 192 232 294 364 428
#     4  12  27  42  70 108 140 190 242 303 357 431
#     4  10  23  45  70 100 144 187 245 287 361 434
#     4  10  22  42  67 102 138 183 231 292 363 411
#     4  10  19  40  71  97 134 184 233 289 343 424
#
# _framework density 24.471844000000001
#
# number of rings (size 3 to 8) (size 9 to 14) (size 15 to 20)
#    0.000    1.333    2.667    2.400    5.600    3.733 
#    0.000    0.000    5.867    0.000    0.000    0.000 
#    0.000    0.000    0.000    0.000    0.000    0.000 
#
# Total GULP energy -167711.724008 kJ/mol
# GULP energy per Si atom -5590.390800 kJ/mol
# Density = 2.441615 g / cm^3
# Si number density = 24.471844 Si / 1000 Ang^3
#
#
#
# Elastic Constant Matrix: (Units=GPa)
#
#
# Indices 1 2 3 4 5 6 
#
# 1 77.0447 31.5122 16.2954 -0.0001 4.0839 0.0000
# 2 31.5122 167.0050 35.7109 -0.0002 6.0036 0.0002
# 3 16.2954 35.7109 103.8559 -0.0003 19.8927 0.0003
# 4 -0.0001 -0.0002 -0.0003 46.0064 0.0001 7.2274
# 5 4.0839 6.0036 19.8927 0.0001 30.8549 -0.0001
# 6 0.0000 0.0002 0.0003 7.2274 -0.0001 21.0910
#
#
#
# Elastic Compliance Matrix: (Units=1/GPa)
#
#
# Indices 1 2 3 4 5 6 
#
# 1 0.014264 -0.002392 -0.001304 0.000000 -0.000582 0.000000
# 2 -0.002392 0.006865 -0.002042 0.000000 0.000297 0.000000
# 3 -0.001304 -0.002042 0.011895 0.000000 -0.007099 0.000000
# 4 0.000000 0.000000 0.000000 0.022973 0.000000 -0.007872
# 5 -0.000582 0.000297 -0.007099 0.000000 0.037006 0.000000
# 6 0.000000 0.000000 0.000000 -0.007872 0.000000 0.050111
#
#
# Mechanical properties :
#
#
# Convention : Reuss Voigt Hill
#
# Bulk Modulus (GPa) = 46.40739 57.21584 51.81161
# Shear Modulus (GPa) = 30.90726 37.21626 34.06176
#
# Velocity S-wave (km/s) = 3.55769 3.90395 3.73483
# Velocity P-wave (km/s) = 5.99007 6.61454 6.31003
#
# Compressibility (1/GPa) = 0.02154829
#
# Stress axis : x y z
#
# Youngs Moduli (GPa) = 70.10437 145.66307 84.06604
#
# Poissons Ratio (x) = 0.34839 0.10965
# Poissons Ratio (y) = 0.16767 0.17169
# Poissons Ratio (z) = 0.09144 0.29749
#
# Static dielectric constant tensor:
#      x y z
#    x 1.965550 0.000000 -0.025890 
#    y 0.000000 1.984220 0.000000 
#    z -0.025890 0.000000 1.938850 
# 
# From -- ./inp_files/225784.got.cif
#   From: 2010.05.17/outbox.cif.g08.bks.cpg/sg15_113_cif.got.tgz:225784.got - 2010.06.03 18:47:42.
