data_PCOD9267368
_publ_section_title
;
Structure prediction by ZEFSAII (Michael W. Deem and Ramdas Pophale) SiO2 
 PCOD9267368
Probable space group: C 2/C
;
_chemical_formula_sum "Si O2"
_cell_formula_units_Z 48
_cell_length_a 8.904638
_cell_length_b 11.797372
_cell_length_c 24.058419
_cell_angle_alpha 90.000000
_cell_angle_beta 120.189367
_cell_angle_gamma 90.000000
_cell_volume 2184.577100
_symmetry_space_group_name_H-M "C 2/C"
_symmetry_group_IT_number 15
_symmetry_cell_setting 'monoclinic'
loop_
_space_group_symop_operation_xyz
x,y,z
-x,y,1/2-z
-x,-y,-z
x,-y,1/2+z
1/2+x,1/2+y,z
1/2-x,1/2+y,1/2-z
1/2-x,1/2-y,-z
1/2+x,1/2-y,1/2+z
loop_
_atom_site_type_symbol
_atom_site_label
_atom_site_fract_x
_atom_site_fract_y
_atom_site_fract_z
Si Si1 0.504349 0.409681 0.184109
Si Si2 0.915458 0.122357 0.367937
Si Si3 0.569431 0.225453 0.409126
Si Si4 0.960029 0.548134 0.179148
Si Si5 0.128051 0.688640 0.727605
Si Si6 0.451451 0.366654 0.992222
O O1 0.500000 0.418531 0.250000
O O2 0.484665 0.529793 0.150148
O O3 0.383914 0.320102 0.129148
O O4 0.696879 0.357008 0.211880
O O5 0.747590 0.055829 0.360643
O O6 0.848201 0.220162 0.315400
O O7 0.004635 0.171047 0.439875
O O8 0.466452 0.131268 0.354294
O O9 0.478496 0.292365 0.442828
O O10 0.744364 0.160142 0.461077
O O11 0.000000 0.584864 0.250000
O O12 0.034982 0.423600 0.186584
O O13 0.000000 0.737728 0.750000
O O14 0.500000 0.500000 0.000000
#
# Coordination Sequence:
#
# PCOD9267368 Si02
#       6
#     8   8   8   8   8   8
#     4  12  22  36  63  97 128 163 209 268 328 387
#     4  11  21  38  61  90 127 162 210 262 318 383
#     4  10  21  36  62  91 125 170 217 263 319 382
#     4  10  19  39  61  89 127 165 203 264 326 381
#     4  11  23  40  64  96 131 166 206 263 334 391
#     4  10  20  38  62  91 125 173 221 263 316 374
#
# _framework density 21.972217000000001
#
# number of rings (size 3 to 8) (size 9 to 14) (size 15 to 20)
#    0.000    1.333    5.000    4.000    0.000    0.000 
#    0.000    0.833    0.000    9.000    0.000    0.000 
#    0.000    0.000    0.000    0.000    0.000    0.000 
#
# Total GULP energy -133772.927544 kJ/mol
# GULP energy per Si atom -5573.871981 kJ/mol
# Density = 2.192221 g / cm^3
# Si number density = 21.972217 Si / 1000 Ang^3
#
#
#
# Elastic Constant Matrix: (Units=GPa)
#
#
# Indices 1 2 3 4 5 6 
#
# 1 52.2449 22.8436 15.6011 0.0000 -11.1608 0.0000
# 2 22.8436 125.9545 40.9134 0.0000 -7.4738 0.0000
# 3 15.6011 40.9134 83.1413 0.0000 -25.7228 0.0000
# 4 0.0000 0.0000 0.0000 -12.7805 0.0000 11.3726
# 5 -11.1608 -7.4738 -25.7228 0.0000 22.9375 0.0000
# 6 0.0000 0.0000 0.0000 11.3726 0.0000 26.3308
#
#
#
# Elastic Compliance Matrix: (Units=1/GPa)
#
#
# Indices 1 2 3 4 5 6 
#
# 1 0.022861 -0.003815 0.000987 0.000000 0.010987 0.000000
# 2 -0.003815 0.010249 -0.005924 0.000000 -0.005160 0.000000
# 3 0.000987 -0.005924 0.021912 0.000000 0.023122 0.000000
# 4 0.000000 0.000000 0.000000 -0.056521 0.000000 0.024412
# 5 0.010987 -0.005160 0.023122 0.000000 0.073191 0.000000
# 6 0.000000 0.000000 0.000000 0.024412 0.000000 0.027434
#
#
# Mechanical properties :
#
#
# Convention : Reuss Voigt Hill
#
# Bulk Modulus (GPa) = 26.65443 46.67298 36.66370
# Shear Modulus (GPa) = 38.71857 19.42973 29.07415
#
# Velocity S-wave (km/s) = 4.20236 2.97692 3.64156
# Velocity P-wave (km/s) = 5.97526 5.75361 5.86548
#
# Compressibility (1/GPa) = 0.03751722
#
# Stress axis : x y z
#
# Youngs Moduli (GPa) = 43.74251 97.56633 45.63794
#
# Poissons Ratio (x) = 0.37219 -0.04503
# Poissons Ratio (y) = 0.16687 0.27038
# Poissons Ratio (z) = -0.04316 0.57802
#
# Static dielectric constant tensor:
#      x y z
#    x 1.849350 0.000000 0.009890 
#    y 0.000000 1.816890 0.000000 
#    z 0.009890 0.000000 1.969490 
# 
# From -- ./inp_files/287774.got.cif
#   From: 2010.05.17/outbox.cif.g08.bks.cpg/sg15_144_cif.got.tgz:287774.got - 2010.06.03 18:47:42.
