data_PCOD9267950
_publ_section_title
;
Structure prediction by ZEFSAII (Michael W. Deem and Ramdas Pophale) SiO2 
 PCOD9267950
Probable space group: C 2/C
;
_chemical_formula_sum "Si O2"
_cell_formula_units_Z 56
_cell_length_a 12.123881
_cell_length_b 11.280696
_cell_length_c 16.738671
_cell_angle_alpha 90.000000
_cell_angle_beta 73.786580
_cell_angle_gamma 90.000000
_cell_volume 2198.229549
_symmetry_space_group_name_H-M "C 2/C"
_symmetry_group_IT_number 15
_symmetry_cell_setting 'monoclinic'
loop_
_space_group_symop_operation_xyz
x,y,z
-x,y,1/2-z
-x,-y,-z
x,-y,1/2+z
1/2+x,1/2+y,z
1/2-x,1/2+y,1/2-z
1/2-x,1/2-y,-z
1/2+x,1/2-y,1/2+z
loop_
_atom_site_type_symbol
_atom_site_label
_atom_site_fract_x
_atom_site_fract_y
_atom_site_fract_z
Si Si1 0.884069 0.552835 0.911570
Si Si2 0.732788 0.872021 0.272067
Si Si3 0.021594 0.229606 0.546807
Si Si4 0.456668 0.533315 0.670446
Si Si5 0.479991 0.741202 0.138750
Si Si6 0.364396 0.947136 0.588755
Si Si7 0.121312 0.665279 0.178528
O O1 0.852029 0.471861 0.843497
O O2 0.898462 0.690524 0.887738
O O3 0.013555 0.511597 0.913905
O O4 0.818696 0.534835 0.008019
O O5 0.827394 0.918777 0.192266
O O6 0.604923 0.819794 0.289698
O O7 0.791915 0.752572 0.296469
O O8 0.720202 0.986760 0.333800
O O9 0.013442 0.098392 0.583740
O O10 0.905179 0.309630 0.583740
O O11 0.056118 0.240018 0.448035
O O12 0.109154 0.289257 0.590482
O O13 0.500000 0.573983 0.750000
O O14 0.476589 0.394183 0.663936
O O15 0.000000 0.666970 0.250000
#
# Coordination Sequence:
#
# PCOD9267950 Si02
#       7
#     8   8   8   8   8   8   8
#     4   8  17  35  54  84 113 155 193 239 301 353
#     4  11  21  36  59  97 116 156 202 259 302 345
#     4  10  19  41  62  85 119 167 202 239 311 370
#     4  12  24  42  59  85 126 165 197 250 317 364
#     4  10  24  39  64  88 119 160 209 249 300 373
#     4   8  17  32  59  82 114 146 197 251 287 354
#     4  11  19  33  60  88 127 156 198 250 303 358
#
# _framework density 25.475045999999999
#
# number of rings (size 3 to 8) (size 9 to 14) (size 15 to 20)
#    0.000    2.000    2.857    3.000    2.000    4.000 
#    0.000    0.000    0.000    1.714    0.000    0.000 
#    0.000    0.000    0.000    0.000    0.000    0.000 
#
# Total GULP energy -156275.494762 kJ/mol
# GULP energy per Si atom -5581.267670 kJ/mol
# Density = 2.541706 g / cm^3
# Si number density = 25.475046 Si / 1000 Ang^3
#
#
#
# Elastic Constant Matrix: (Units=GPa)
#
#
# Indices 1 2 3 4 5 6 
#
# 1 46.6439 3.5986 4.3298 0.0000 7.0466 0.0000
# 2 3.5986 155.5799 7.1276 0.0000 -2.5283 0.0000
# 3 4.3298 7.1276 83.2653 0.0000 16.0164 0.0000
# 4 0.0000 0.0000 0.0000 29.6990 0.0000 -10.0941
# 5 7.0466 -2.5283 16.0164 0.0000 23.1463 0.0000
# 6 0.0000 0.0000 0.0000 -10.0941 0.0000 14.9307
#
#
#
# Elastic Compliance Matrix: (Units=1/GPa)
#
#
# Indices 1 2 3 4 5 6 
#
# 1 0.022539 -0.000648 0.000250 0.000000 -0.007106 0.000000
# 2 -0.000648 0.006503 -0.000805 0.000000 0.001465 0.000000
# 3 0.000250 -0.000805 0.013955 0.000000 -0.009820 0.000000
# 4 0.000000 0.000000 0.000000 0.043716 0.000000 0.029555
# 5 -0.007106 0.001465 -0.009820 0.000000 0.052322 0.000000
# 6 0.000000 0.000000 0.000000 0.029555 0.000000 0.086957
#
#
# Mechanical properties :
#
#
# Convention : Reuss Voigt Hill
#
# Bulk Modulus (GPa) = 24.63553 35.06679 29.85116
# Shear Modulus (GPa) = 20.66730 31.58409 26.12569
#
# Velocity S-wave (km/s) = 2.85138 3.52491 3.20588
# Velocity P-wave (km/s) = 4.53122 5.51014 5.04448
#
# Compressibility (1/GPa) = 0.04059178
#
# Stress axis : x y z
#
# Youngs Moduli (GPa) = 44.36694 153.76987 71.66092
#
# Poissons Ratio (x) = 0.09968 -0.01793
# Poissons Ratio (y) = 0.02876 0.05766
# Poissons Ratio (z) = -0.01110 0.12374
#
# Static dielectric constant tensor:
#      x y z
#    x 2.040870 0.000000 0.049890 
#    y 0.000000 2.131280 0.000000 
#    z 0.049890 0.000000 2.040970 
# 
# From -- ./inp_files/203961.got.cif
#   From: 2010.05.17/outbox.cif.g08.bks.cpg/sg15_102_cif.got.tgz:203961.got - 2010.06.03 18:47:42.
