data_PCOD9267649
_publ_section_title
;
Structure prediction by ZEFSAII (Michael W. Deem and Ramdas Pophale) SiO2 
 PCOD9267649
Probable space group: C 2/C
;
_chemical_formula_sum "Si O2"
_cell_formula_units_Z 48
_cell_length_a 14.777203
_cell_length_b 10.456176
_cell_length_c 15.085971
_cell_angle_alpha 90.000000
_cell_angle_beta 61.505909
_cell_angle_gamma 90.000000
_cell_volume 2048.619081
_symmetry_space_group_name_H-M "C 2/C"
_symmetry_group_IT_number 15
_symmetry_cell_setting 'monoclinic'
loop_
_space_group_symop_operation_xyz
x,y,z
-x,y,1/2-z
-x,-y,-z
x,-y,1/2+z
1/2+x,1/2+y,z
1/2-x,1/2+y,1/2-z
1/2-x,1/2-y,-z
1/2+x,1/2-y,1/2+z
loop_
_atom_site_type_symbol
_atom_site_label
_atom_site_fract_x
_atom_site_fract_y
_atom_site_fract_z
Si Si1 0.098073 0.767074 0.269954
Si Si2 0.520296 0.144997 0.471981
Si Si3 0.006810 0.200032 0.149815
Si Si4 0.395940 0.502670 0.105716
Si Si5 0.286479 0.839163 0.060382
Si Si6 0.287626 0.599311 0.485392
O O1 0.091582 0.663768 0.352901
O O2 0.208406 0.792565 0.173353
O O3 0.000000 0.746461 0.250000
O O4 0.084644 0.895098 0.331492
O O5 0.547932 0.211096 0.551466
O O6 0.405856 0.196966 0.508820
O O7 0.500000 0.000000 0.500000
O O8 0.000000 0.261934 0.250000
O O9 0.903659 0.132314 0.160599
O O10 0.100126 0.099168 0.114084
O O11 0.307533 0.457476 0.076812
O O12 0.500000 0.500000 0.000000
O O13 0.250000 0.750000 0.000000
O O14 0.274878 0.989536 0.038863
O O15 0.250000 0.750000 0.500000
#
# Coordination Sequence:
#
# PCOD9267649 Si02
#       6
#     8   8   8   8   8   8
#     4  12  23  46  76 102 148 199 246 311 377 456
#     4  12  27  50  70 110 157 193 251 326 392 453
#     4  11  23  45  72 100 142 193 249 307 370 448
#     4  10  19  39  71  99 135 188 244 296 360 441
#     4  12  26  46  76 112 147 203 258 302 388 469
#     4  11  23  43  72 107 151 189 242 312 373 451
#
# _framework density 23.430418
#
# number of rings (size 3 to 8) (size 9 to 14) (size 15 to 20)
#    0.000    0.667    5.000    5.500    0.000    2.000 
#    9.000    0.000    0.000    0.000    0.000    0.000 
#    0.000    0.000    0.000    0.000    0.000    0.000 
#
# Total GULP energy -133690.096557 kJ/mol
# GULP energy per Si atom -5570.420690 kJ/mol
# Density = 2.337709 g / cm^3
# Si number density = 23.430418 Si / 1000 Ang^3
#
#
#
# Elastic Constant Matrix: (Units=GPa)
#
#
# Indices 1 2 3 4 5 6 
#
# 1 100.6648 15.1071 23.9503 0.0000 9.5981 0.0000
# 2 15.1071 91.3046 28.6920 0.0000 14.3837 0.0000
# 3 23.9503 28.6920 140.3750 0.0000 18.4481 0.0000
# 4 0.0000 0.0000 0.0000 19.5844 0.0000 -2.1262
# 5 9.5981 14.3837 18.4481 0.0000 40.2746 0.0000
# 6 0.0000 0.0000 0.0000 -2.1262 0.0000 36.0399
#
#
#
# Elastic Compliance Matrix: (Units=1/GPa)
#
#
# Indices 1 2 3 4 5 6 
#
# 1 0.010568 -0.001077 -0.001386 0.000000 -0.001499 0.000000
# 2 -0.001077 0.012236 -0.001891 0.000000 -0.003247 0.000000
# 3 -0.001386 -0.001891 0.008102 0.000000 -0.002706 0.000000
# 4 0.000000 0.000000 0.000000 0.051390 0.000000 0.003032
# 5 -0.001499 -0.003247 -0.002706 0.000000 0.027586 0.000000
# 6 0.000000 0.000000 0.000000 0.003032 0.000000 0.027926
#
#
# Mechanical properties :
#
#
# Convention : Reuss Voigt Hill
#
# Bulk Modulus (GPa) = 45.04523 51.98260 48.51392
# Shear Modulus (GPa) = 32.48534 36.81946 34.65240
#
# Velocity S-wave (km/s) = 3.72756 3.96844 3.84988
# Velocity P-wave (km/s) = 6.14761 6.57511 6.36495
#
# Compressibility (1/GPa) = 0.02219991
#
# Stress axis : x y z
#
# Youngs Moduli (GPa) = 94.62293 81.72474 123.42243
#
# Poissons Ratio (x) = 0.08801 0.17106
# Poissons Ratio (y) = 0.10190 0.23333
# Poissons Ratio (z) = 0.13115 0.15450
#
# Static dielectric constant tensor:
#      x y z
#    x 1.860530 0.000000 0.147460 
#    y 0.000000 1.942650 0.000000 
#    z 0.147460 0.000000 1.848580 
# 
# From -- ./inp_files/152457.got.cif
#   From: 2010.05.17/outbox.cif.g08.bks.cpg/sg15_77_cif.got.tgz:152457.got - 2010.06.03 18:47:42.
