data_PCOD9267052
_publ_section_title
;
Structure prediction by ZEFSAII (Michael W. Deem and Ramdas Pophale) SiO2 
 PCOD9267052
Probable space group: C 2/C
;
_chemical_formula_sum "Si O2"
_cell_formula_units_Z 64
_cell_length_a 29.332210
_cell_length_b 17.628772
_cell_length_c 9.140277
_cell_angle_alpha 90.000000
_cell_angle_beta 141.726704
_cell_angle_gamma 90.000000
_cell_volume 2927.565774
_symmetry_space_group_name_H-M "C 2/C"
_symmetry_group_IT_number 15
_symmetry_cell_setting 'monoclinic'
loop_
_space_group_symop_operation_xyz
x,y,z
-x,y,1/2-z
-x,-y,-z
x,-y,1/2+z
1/2+x,1/2+y,z
1/2-x,1/2+y,1/2-z
1/2-x,1/2-y,-z
1/2+x,1/2-y,1/2+z
loop_
_atom_site_type_symbol
_atom_site_label
_atom_site_fract_x
_atom_site_fract_y
_atom_site_fract_z
Si Si1 0.191641 0.343466 0.877407
Si Si2 0.855187 0.513245 0.086957
Si Si3 0.574595 0.591841 0.872685
Si Si4 0.428493 0.430815 0.481553
Si Si5 0.827818 0.722833 0.634888
Si Si6 0.760273 0.898139 0.761919
Si Si7 0.333791 0.299115 0.371089
Si Si8 0.080362 0.592213 0.522704
O O1 0.141127 0.408463 0.814895
O O2 0.244870 0.385085 0.893757
O O3 0.151391 0.273647 0.695834
O O4 0.245125 0.308885 0.136553
O O5 0.910328 0.451915 0.298749
O O6 0.771644 0.479293 0.871250
O O7 0.873790 0.537643 0.969761
O O8 0.500000 0.629910 0.750000
O O9 0.583811 0.516307 0.994145
O O10 0.562353 0.572494 0.670256
O O11 0.657611 0.624848 0.079452
O O12 0.500000 0.405040 0.750000
O O13 0.368373 0.373277 0.389654
O O14 0.750000 0.750000 0.500000
O O15 0.798985 0.657479 0.455411
O O16 0.859021 0.785295 0.601266
O O17 0.884218 0.676645 0.877992
O O18 0.000000 0.596303 0.250000
#
# Coordination Sequence:
#
# PCOD9267052 Si02
#       8
#     8   8   8   8   8   8   8   8
#     4  10  19  38  64  92 122 168 215 268 328 391
#     4  11  21  40  68  98 132 168 223 277 339 398
#     4  11  23  39  63  95 128 166 215 281 336 391
#     4  11  23  41  59  88 126 170 215 262 336 398
#     4  10  23  41  63  93 131 173 225 269 324 402
#     4  10  21  37  65  97 123 167 223 270 329 393
#     4  10  21  39  62  86 128 164 219 266 318 396
#     4  11  24  43  66 102 136 173 222 283 343 399
#
# _framework density 21.861166000000001
#
# number of rings (size 3 to 8) (size 9 to 14) (size 15 to 20)
#    0.000    1.500    2.500    3.375    0.000    2.000 
#    2.250    0.625    0.000    0.750    0.000    0.000 
#    0.000    0.000    0.000    0.000    0.000    0.000 
#
# Total GULP energy -178315.448765 kJ/mol
# GULP energy per Si atom -5572.357774 kJ/mol
# Density = 2.181141 g / cm^3
# Si number density = 21.861166 Si / 1000 Ang^3
#
#
#
# Elastic Constant Matrix: (Units=GPa)
#
#
# Indices 1 2 3 4 5 6 
#
# 1 53.8795 -9.0937 0.4445 0.0000 -7.2896 0.0000
# 2 -9.0937 35.9222 -1.1488 0.0000 -3.0464 0.0000
# 3 0.4445 -1.1488 76.7208 0.0000 5.9458 0.0000
# 4 0.0000 0.0000 0.0000 11.3067 0.0000 0.8785
# 5 -7.2896 -3.0464 5.9458 0.0000 28.5471 0.0000
# 6 0.0000 0.0000 0.0000 0.8785 0.0000 19.4209
#
#
#
# Elastic Compliance Matrix: (Units=1/GPa)
#
#
# Indices 1 2 3 4 5 6 
#
# 1 0.020310 0.005625 -0.000490 0.000000 0.005889 0.000000
# 2 0.005625 0.029653 0.000056 0.000000 0.004589 0.000000
# 3 -0.000490 0.000056 0.013261 0.000000 -0.002881 0.000000
# 4 0.000000 0.000000 0.000000 0.088755 0.000000 -0.004015
# 5 0.005889 0.004589 -0.002881 0.000000 0.037623 0.000000
# 6 0.000000 0.000000 0.000000 -0.004015 0.000000 0.051673
#
#
# Mechanical properties :
#
#
# Convention : Reuss Voigt Hill
#
# Bulk Modulus (GPa) = 13.58574 16.32517 14.95546
# Shear Modulus (GPa) = 19.57498 23.60965 21.59232
#
# Velocity S-wave (km/s) = 2.99561 3.28987 3.14618
# Velocity P-wave (km/s) = 4.26532 4.68133 4.47816
#
# Compressibility (1/GPa) = 0.07360658
#
# Stress axis : x y z
#
# Youngs Moduli (GPa) = 49.23661 33.72349 75.40773
#
# Poissons Ratio (x) = -0.18970 0.03693
# Poissons Ratio (y) = -0.27697 -0.00420
# Poissons Ratio (z) = 0.02412 -0.00188
#
# Static dielectric constant tensor:
#      x y z
#    x 1.830060 0.000000 -0.023950 
#    y 0.000000 1.874120 0.000000 
#    z -0.023950 0.000000 1.924260 
# 
# From -- ./inp_files/70625.got.cif
#   From: 2010.05.17/outbox.cif.g08.bks.cpg/sg15_36_cif.got.tgz:70625.got - 2010.06.03 18:47:42.
