data_PCOD9267625
_publ_section_title
;
Structure prediction by ZEFSAII (Michael W. Deem and Ramdas Pophale) SiO2 
 PCOD9267625
Probable space group: C 2/C
;
_chemical_formula_sum "Si O2"
_cell_formula_units_Z 44
_cell_length_a 11.497735
_cell_length_b 15.362040
_cell_length_c 21.561013
_cell_angle_alpha 90.000000
_cell_angle_beta 145.128047
_cell_angle_gamma 90.000000
_cell_volume 2177.369898
_symmetry_space_group_name_H-M "C 2/C"
_symmetry_group_IT_number 15
_symmetry_cell_setting 'monoclinic'
loop_
_space_group_symop_operation_xyz
x,y,z
-x,y,1/2-z
-x,-y,-z
x,-y,1/2+z
1/2+x,1/2+y,z
1/2-x,1/2+y,1/2-z
1/2-x,1/2-y,-z
1/2+x,1/2-y,1/2+z
loop_
_atom_site_type_symbol
_atom_site_label
_atom_site_fract_x
_atom_site_fract_y
_atom_site_fract_z
Si Si1 0.000000 0.739129 0.750000
Si Si2 0.574223 0.828350 0.534749
Si Si3 0.978753 0.914286 0.310408
Si Si4 0.333955 0.224650 0.127252
Si Si5 0.513064 0.109191 0.639699
Si Si6 0.349705 0.933667 0.541453
O O1 0.790011 0.794406 0.654982
O O2 0.991974 0.677968 0.685498
O O3 0.396231 0.753413 0.455534
O O4 0.586558 0.859939 0.469012
O O5 0.487249 0.904697 0.542171
O O6 0.749483 0.905733 0.229198
O O7 0.000000 0.948446 0.250000
O O8 0.066950 0.816226 0.349082
O O9 0.129821 0.964200 0.421012
O O10 0.500000 0.192299 0.250000
O O11 0.328173 0.153065 0.072074
O O12 0.432869 0.012768 0.617910
#
# Coordination Sequence:
#
# PCOD9267625 Si02
#       6
#     4   8   8   8   8   8
#     4  12  28  44  62  94 144 172 202 260 332 394
#     4  11  23  44  69  90 126 178 222 251 314 394
#     4  10  19  40  68  89 123 167 221 264 299 381
#     4  10  19  39  69  92 121 166 222 261 308 381
#     4  12  24  44  63 100 133 166 210 271 327 374
#     4  11  23  38  68 100 124 162 221 270 325 362
#
# _framework density 20.207868000000001
#
# number of rings (size 3 to 8) (size 9 to 14) (size 15 to 20)
#    0.000    1.091    5.455    5.455    1.273    1.455 
#    3.273    1.818    0.000    0.000    0.000    0.000 
#    0.000    0.000    0.000    0.000    0.000    0.000 
#
# Total GULP energy -122771.844293 kJ/mol
# GULP energy per Si atom -5580.538377 kJ/mol
# Density = 2.016187 g / cm^3
# Si number density = 20.207868 Si / 1000 Ang^3
#
#
#
# Elastic Constant Matrix: (Units=GPa)
#
#
# Indices 1 2 3 4 5 6 
#
# 1 19.7111 10.6475 7.5881 -0.0001 -7.6480 -0.0001
# 2 10.6475 19.5316 17.8174 -0.0001 6.5754 0.0000
# 3 7.5881 17.8174 134.0442 -0.0006 4.7488 -0.0002
# 4 -0.0001 -0.0001 -0.0006 26.1235 -0.0001 -0.0027
# 5 -7.6480 6.5754 4.7488 -0.0001 30.4752 0.0000
# 6 -0.0001 0.0000 -0.0002 -0.0027 0.0000 17.6459
#
#
#
# Elastic Compliance Matrix: (Units=1/GPa)
#
#
# Indices 1 2 3 4 5 6 
#
# 1 0.106563 -0.074549 0.002373 0.000000 0.042458 0.000001
# 2 -0.074549 0.114663 -0.009534 0.000000 -0.041963 -0.000001
# 3 0.002373 -0.009534 0.008546 0.000000 0.001321 0.000000
# 4 0.000000 0.000000 0.000000 0.038280 0.000000 0.000006
# 5 0.042458 -0.041963 0.001321 0.000000 0.052317 0.000000
# 6 0.000001 -0.000001 0.000000 0.000006 0.000000 0.056670
#
#
# Mechanical properties :
#
#
# Convention : Reuss Voigt Hill
#
# Bulk Modulus (GPa) = 15.07157 27.26587 21.16872
# Shear Modulus (GPa) = 8.88764 23.99786 16.44275
#
# Velocity S-wave (km/s) = 2.09944 3.44982 2.85560
# Velocity P-wave (km/s) = 3.65395 5.42129 4.62286
#
# Compressibility (1/GPa) = 0.06635007
#
# Stress axis : x y z
#
# Youngs Moduli (GPa) = 9.38414 8.72118 117.00757
#
# Poissons Ratio (x) = 0.65016 -0.27763
# Poissons Ratio (y) = 0.69958 1.11561
# Poissons Ratio (z) = -0.02227 0.08315
#
# Static dielectric constant tensor:
#      x y z
#    x 1.729470 0.000000 -0.028610 
#    y 0.000000 1.710590 0.000000 
#    z -0.028610 0.000000 1.664230 
# 
# From -- ./inp_files/270501.got.cif
#   From: 2010.05.17/outbox.cif.g08.bks.cpg/sg15_136_cif.got.tgz:270501.got - 2010.06.03 18:47:42.
