data_PCOD9267699
_publ_section_title
;
Structure prediction by ZEFSAII (Michael W. Deem and Ramdas Pophale) SiO2 
 PCOD9267699
Probable space group: C 2/C
;
_chemical_formula_sum "Si O2"
_cell_formula_units_Z 48
_cell_length_a 26.836981
_cell_length_b 12.995815
_cell_length_c 14.275196
_cell_angle_alpha 90.000000
_cell_angle_beta 27.943839
_cell_angle_gamma 90.000000
_cell_volume 2333.065814
_symmetry_space_group_name_H-M "C 2/C"
_symmetry_group_IT_number 15
_symmetry_cell_setting 'monoclinic'
loop_
_space_group_symop_operation_xyz
x,y,z
-x,y,1/2-z
-x,-y,-z
x,-y,1/2+z
1/2+x,1/2+y,z
1/2-x,1/2+y,1/2-z
1/2-x,1/2-y,-z
1/2+x,1/2-y,1/2+z
loop_
_atom_site_type_symbol
_atom_site_label
_atom_site_fract_x
_atom_site_fract_y
_atom_site_fract_z
Si Si1 0.000000 0.622138 0.250000
Si Si2 0.332386 0.045565 0.241003
Si Si3 0.843885 0.975908 0.316941
Si Si4 0.000000 0.728924 0.750000
Si Si5 0.832146 0.558874 0.021655
Si Si6 0.960862 0.337597 0.021777
Si Si7 0.509647 0.649078 0.053320
O O1 0.902358 0.544467 0.391766
O O2 0.976161 0.680971 0.385416
O O3 0.229939 0.059489 0.475482
O O4 0.312124 0.069026 0.165780
O O5 0.430307 0.114041 0.116256
O O6 0.373169 0.927022 0.179394
O O7 0.770807 0.043789 0.369258
O O8 0.892901 0.884059 0.174242
O O9 0.940527 0.048025 0.188866
O O10 0.092791 0.653472 0.632188
O O11 0.042382 0.798209 0.595582
O O12 0.941732 0.233021 0.108632
#
# Coordination Sequence:
#
# PCOD9267699 Si02
#       7
#     4   8   8   4   8   8   8
#     4   9  18  36  65  90 126 150 207 262 307 358
#     4  10  20  38  67  90 125 156 207 265 306 363
#     4  11  25  44  59  88 133 169 205 248 311 374
#     4  11  22  42  69  90 122 156 215 262 303 370
#     4  10  20  39  66  94 115 164 205 258 316 358
#     4  10  19  40  61  95 121 163 204 260 314 356
#     4  11  26  43  59  91 130 172 203 250 308 372
#
# _framework density 20.573786999999999
#
# number of rings (size 3 to 8) (size 9 to 14) (size 15 to 20)
#    0.000    1.667    3.333    1.000    2.333    3.333 
#    6.000    0.000    0.000    0.000    0.000    0.000 
#    0.000    0.000    0.000    0.000    0.000    0.000 
#
# Total GULP energy -134128.931885 kJ/mol
# GULP energy per Si atom -5588.705495 kJ/mol
# Density = 2.052696 g / cm^3
# Si number density = 20.573787 Si / 1000 Ang^3
#
#
#
# Elastic Constant Matrix: (Units=GPa)
#
#
# Indices 1 2 3 4 5 6 
#
# 1 38.9580 -3.6407 -0.9071 0.0000 13.6915 0.0000
# 2 -3.6407 49.3141 6.1008 0.0000 13.7640 0.0000
# 3 -0.9071 6.1008 89.5490 0.0000 19.5032 0.0000
# 4 0.0000 0.0000 0.0000 6.9684 0.0000 5.5712
# 5 13.6915 13.7640 19.5032 0.0000 32.1898 0.0000
# 6 0.0000 0.0000 0.0000 5.5712 0.0000 5.2413
#
#
#
# Elastic Compliance Matrix: (Units=1/GPa)
#
#
# Indices 1 2 3 4 5 6 
#
# 1 0.033503 0.007541 0.004183 0.000000 -0.020009 0.000000
# 2 0.007541 0.024758 0.001606 0.000000 -0.014766 0.000000
# 3 0.004183 0.001606 0.013406 0.000000 -0.010589 0.000000
# 4 0.000000 0.000000 0.000000 0.955512 0.000000 -1.015648
# 5 -0.020009 -0.014766 -0.010589 0.000000 0.052305 0.000000
# 6 0.000000 0.000000 0.000000 -1.015648 0.000000 1.270358
#
#
# Mechanical properties :
#
#
# Convention : Reuss Voigt Hill
#
# Bulk Modulus (GPa) = 10.17027 20.10300 15.13663
# Shear Modulus (GPa) = 2.12228 20.63110 11.37669
#
# Velocity S-wave (km/s) = 1.01675 3.17011 2.35408
# Velocity P-wave (km/s) = 2.51643 4.81580 3.84216
#
# Compressibility (1/GPa) = 0.09832585
#
# Stress axis : x y z
#
# Youngs Moduli (GPa) = 29.84826 40.39163 74.59251
#
# Poissons Ratio (x) = -0.30457 -0.31205
# Poissons Ratio (y) = -0.22507 -0.11977
# Poissons Ratio (z) = -0.12487 -0.06486
#
# Static dielectric constant tensor:
#      x y z
#    x 1.724120 0.000000 0.006550 
#    y 0.000000 1.720060 0.000000 
#    z 0.006550 0.000000 1.734200 
# 
# From -- ./inp_files/177784.got.cif
#   From: 2010.05.17/outbox.cif.g08.bks.cpg/sg15_89_cif.got.tgz:177784.got - 2010.06.03 18:47:42.
