data_PCOD9267762
_publ_section_title
;
Structure prediction by ZEFSAII (Michael W. Deem and Ramdas Pophale) SiO2 
 PCOD9267762
Probable space group: C 2/C
;
_chemical_formula_sum "Si O2"
_cell_formula_units_Z 56
_cell_length_a 8.899281
_cell_length_b 17.050548
_cell_length_c 27.481752
_cell_angle_alpha 90.000000
_cell_angle_beta 142.117809
_cell_angle_gamma 90.000000
_cell_volume 2560.555963
_symmetry_space_group_name_H-M "C 2/C"
_symmetry_group_IT_number 15
_symmetry_cell_setting 'monoclinic'
loop_
_space_group_symop_operation_xyz
x,y,z
-x,y,1/2-z
-x,-y,-z
x,-y,1/2+z
1/2+x,1/2+y,z
1/2-x,1/2+y,1/2-z
1/2-x,1/2-y,-z
1/2+x,1/2-y,1/2+z
loop_
_atom_site_type_symbol
_atom_site_label
_atom_site_fract_x
_atom_site_fract_y
_atom_site_fract_z
Si Si1 0.878926 0.845246 0.173268
Si Si2 0.812797 0.947577 0.540665
Si Si3 0.976286 0.333441 0.903042
Si Si4 0.013212 0.121688 0.510915
Si Si5 0.786331 0.840921 0.334080
Si Si6 0.058890 0.291140 0.499173
Si Si7 0.776599 0.510886 0.379006
O O1 0.648075 0.798447 0.094101
O O2 0.000000 0.804453 0.250000
O O3 0.064385 0.858125 0.176602
O O4 0.791067 0.932094 0.166128
O O5 0.944802 0.940156 0.522105
O O6 0.758059 0.857097 0.540340
O O7 0.881169 0.981338 0.611409
O O8 0.560555 0.993543 0.465370
O O9 0.846482 0.251967 0.856923
O O10 0.790963 0.406796 0.855021
O O11 0.225595 0.355828 0.939320
O O12 0.060003 0.319420 0.980342
O O13 0.114601 0.112064 0.592399
O O14 0.146106 0.203271 0.529216
O O15 0.500000 0.853477 0.250000
#
# Coordination Sequence:
#
# PCOD9267762 Si02
#       7
#     8   8   8   8   8   8   8
#     4  11  22  40  62  81 123 166 199 245 305 375
#     4   9  19  32  58  90 117 150 196 251 295 362
#     4  10  19  40  64  86 120 156 199 259 306 353
#     4  11  19  35  64  93 120 151 205 265 303 341
#     4  11  24  39  59  91 123 158 202 254 313 369
#     4   9  17  36  58  88 117 153 200 247 301 352
#     4   9  21  39  56  84 122 157 199 238 309 369
#
# _framework density 21.870252000000001
#
# number of rings (size 3 to 8) (size 9 to 14) (size 15 to 20)
#    0.000    2.000    2.857    2.143    4.000    1.143 
#    0.000    0.000    0.000    0.000    0.000    0.000 
#    0.000    0.000    0.000    0.000    0.000    0.000 
#
# Total GULP energy -156054.370590 kJ/mol
# GULP energy per Si atom -5573.370378 kJ/mol
# Density = 2.182047 g / cm^3
# Si number density = 21.870252 Si / 1000 Ang^3
#
#
#
# Elastic Constant Matrix: (Units=GPa)
#
#
# Indices 1 2 3 4 5 6 
#
# 1 99.2090 20.7508 -0.8798 0.0001 -5.1435 0.0001
# 2 20.7508 54.9460 -9.7713 0.0002 -7.8326 0.0002
# 3 -0.8798 -9.7713 59.8273 -0.0002 -7.6165 0.0005
# 4 0.0001 0.0002 -0.0002 3.6806 0.0000 1.6652
# 5 -5.1435 -7.8326 -7.6165 0.0000 21.4403 0.0002
# 6 0.0001 0.0002 0.0005 1.6652 0.0002 37.3098
#
#
#
# Elastic Compliance Matrix: (Units=1/GPa)
#
#
# Indices 1 2 3 4 5 6 
#
# 1 0.010980 -0.004068 -0.000374 0.000000 0.001015 0.000000
# 2 -0.004068 0.021781 0.004594 -0.000001 0.008613 0.000000
# 3 -0.000374 0.004594 0.018498 0.000001 0.008160 0.000000
# 4 0.000000 -0.000001 0.000001 0.277292 -0.000001 -0.012376
# 5 0.001015 0.008613 0.008160 -0.000001 0.052930 0.000000
# 6 0.000000 0.000000 0.000000 -0.012376 0.000000 0.027355
#
#
# Mechanical properties :
#
#
# Convention : Reuss Voigt Hill
#
# Bulk Modulus (GPa) = 19.39375 26.02018 22.70697
# Shear Modulus (GPa) = 11.74478 26.07832 18.91155
#
# Velocity S-wave (km/s) = 2.31989 3.45688 2.94380
# Velocity P-wave (km/s) = 4.00783 5.27794 4.68612
#
# Compressibility (1/GPa) = 0.05156300
#
# Stress axis : x y z
#
# Youngs Moduli (GPa) = 91.07460 45.91168 54.05860
#
# Poissons Ratio (x) = 0.18679 0.02021
# Poissons Ratio (y) = 0.37053 -0.24835
# Poissons Ratio (z) = 0.03404 -0.21092
#
# Static dielectric constant tensor:
#      x y z
#    x 1.882920 0.000000 -0.020360 
#    y 0.000000 1.848190 0.000000 
#    z -0.020360 0.000000 1.783500 
# 
# From -- ./inp_files/191655.got.cif
#   From: 2010.05.17/outbox.cif.g08.bks.cpg/sg15_96_cif.got.tgz:191655.got - 2010.06.03 18:47:42.
