data_PCOD9267557
_publ_section_title
;
Structure prediction by ZEFSAII (Michael W. Deem and Ramdas Pophale) SiO2 
 PCOD9267557
Probable space group: C 2/C
;
_chemical_formula_sum "Si O2"
_cell_formula_units_Z 44
_cell_length_a 9.343881
_cell_length_b 16.361972
_cell_length_c 13.559885
_cell_angle_alpha 90.000000
_cell_angle_beta 77.910948
_cell_angle_gamma 90.000000
_cell_volume 2027.119352
_symmetry_space_group_name_H-M "C 2/C"
_symmetry_group_IT_number 15
_symmetry_cell_setting 'monoclinic'
loop_
_space_group_symop_operation_xyz
x,y,z
-x,y,1/2-z
-x,-y,-z
x,-y,1/2+z
1/2+x,1/2+y,z
1/2-x,1/2+y,1/2-z
1/2-x,1/2-y,-z
1/2+x,1/2-y,1/2+z
loop_
_atom_site_type_symbol
_atom_site_label
_atom_site_fract_x
_atom_site_fract_y
_atom_site_fract_z
Si Si1 0.278211 0.102152 0.208503
Si Si2 0.236469 0.727037 0.615012
Si Si3 0.387668 0.886597 0.908828
Si Si4 0.000000 0.380781 0.250000
Si Si5 0.735939 0.059250 0.871112
Si Si6 0.546960 0.710804 0.637469
O O1 0.223232 0.190619 0.182040
O O2 0.443403 0.096125 0.140744
O O3 0.291843 0.096842 0.324769
O O4 0.194212 0.027234 0.169193
O O5 0.250000 0.750000 0.500000
O O6 0.391984 0.684309 0.615530
O O7 0.099775 0.671948 0.662034
O O8 0.386090 0.788420 0.929250
O O9 0.335500 0.937531 0.010177
O O10 0.114290 0.426896 0.303675
O O11 0.846721 0.135716 0.858013
O O12 0.500000 0.747625 0.750000
#
# Coordination Sequence:
#
# PCOD9267557 Si02
#       6
#     8   8   8   4   8   8
#     4  10  21  40  60  93 133 161 206 275 315 372
#     4  11  24  43  67  92 128 173 214 266 321 386
#     4  10  19  39  66  88 125 176 215 247 319 394
#     4  12  22  40  64  98 122 164 228 266 306 398
#     4  12  24  37  69  98 121 169 217 265 322 377
#     4  11  20  44  65  87 131 170 204 260 323 377
#
# _framework density 21.705679
#
# number of rings (size 3 to 8) (size 9 to 14) (size 15 to 20)
#    0.000    1.091    5.455    4.364    0.000    2.909 
#    1.636    0.909    0.000    0.000    0.000    0.000 
#    0.000    0.000    0.000    0.000    0.000    0.000 
#
# Total GULP energy -122930.344738 kJ/mol
# GULP energy per Si atom -5587.742943 kJ/mol
# Density = 2.165628 g / cm^3
# Si number density = 21.705679 Si / 1000 Ang^3
#
#
#
# Elastic Constant Matrix: (Units=GPa)
#
#
# Indices 1 2 3 4 5 6 
#
# 1 59.5554 22.9973 1.8667 0.0000 7.2964 0.0000
# 2 22.9973 91.8152 -24.6291 0.0000 -7.3811 0.0000
# 3 1.8667 -24.6291 78.2722 0.0000 -0.7211 0.0000
# 4 0.0000 0.0000 0.0000 21.9716 0.0000 1.1204
# 5 7.2964 -7.3811 -0.7211 0.0000 23.5848 0.0000
# 6 0.0000 0.0000 0.0000 1.1204 0.0000 19.6447
#
#
#
# Elastic Compliance Matrix: (Units=1/GPa)
#
#
# Indices 1 2 3 4 5 6 
#
# 1 0.020411 -0.006489 -0.002606 0.000000 -0.008425 0.000000
# 2 -0.006489 0.014316 0.004721 0.000000 0.006632 0.000000
# 3 -0.002606 0.004721 0.014349 0.000000 0.002722 0.000000
# 4 0.000000 0.000000 0.000000 0.045646 0.000000 -0.002603
# 5 -0.008425 0.006632 0.002722 0.000000 0.047165 0.000000
# 6 0.000000 0.000000 0.000000 -0.002603 0.000000 0.051053
#
#
# Mechanical properties :
#
#
# Convention : Reuss Voigt Hill
#
# Bulk Modulus (GPa) = 24.79744 25.56807 25.18276
# Shear Modulus (GPa) = 23.24175 28.33407 25.78791
#
# Velocity S-wave (km/s) = 3.27581 3.61692 3.45058
# Velocity P-wave (km/s) = 5.07515 5.40812 5.24428
#
# Compressibility (1/GPa) = 0.04032674
#
# Stress axis : x y z
#
# Youngs Moduli (GPa) = 48.99435 69.85142 69.69362
#
# Poissons Ratio (x) = 0.45324 0.18163
# Poissons Ratio (y) = 0.31791 -0.32899
# Poissons Ratio (z) = 0.12768 -0.32974
#
# Static dielectric constant tensor:
#      x y z
#    x 1.796320 0.000000 0.011410 
#    y 0.000000 1.843100 0.000000 
#    z 0.011410 0.000000 1.796150 
# 
# From -- ./inp_files/134387.got.cif
#   From: 2010.05.17/outbox.cif.g08.bks.cpg/sg15_68_cif.got.tgz:134387.got - 2010.06.03 18:47:42.
