data_PCOD9267703
_publ_section_title
;
Structure prediction by ZEFSAII (Michael W. Deem and Ramdas Pophale) SiO2 
 PCOD9267703
Probable space group: C 2/C
;
_chemical_formula_sum "Si O2"
_cell_formula_units_Z 48
_cell_length_a 17.988056
_cell_length_b 9.607443
_cell_length_c 12.747228
_cell_angle_alpha 90.000000
_cell_angle_beta 81.360549
_cell_angle_gamma 90.000000
_cell_volume 2177.969385
_symmetry_space_group_name_H-M "C 2/C"
_symmetry_group_IT_number 15
_symmetry_cell_setting 'monoclinic'
loop_
_space_group_symop_operation_xyz
x,y,z
-x,y,1/2-z
-x,-y,-z
x,-y,1/2+z
1/2+x,1/2+y,z
1/2-x,1/2+y,1/2-z
1/2-x,1/2-y,-z
1/2+x,1/2-y,1/2+z
loop_
_atom_site_type_symbol
_atom_site_label
_atom_site_fract_x
_atom_site_fract_y
_atom_site_fract_z
Si Si1 0.811313 0.448719 0.991511
Si Si2 0.187487 0.809759 0.864024
Si Si3 0.704376 0.184204 0.348884
Si Si4 0.585368 0.889346 0.702463
Si Si5 0.956162 0.914093 0.360738
Si Si6 0.104514 0.065923 0.945306
O O1 0.831911 0.333646 0.074612
O O2 0.780823 0.581977 0.058206
O O3 0.749769 0.381402 0.927116
O O4 0.881586 0.477689 0.900459
O O5 0.225604 0.789854 0.743039
O O6 0.121049 0.921762 0.880359
O O7 0.640702 0.109946 0.289746
O O8 0.667392 0.325338 0.398750
O O9 0.500000 0.922650 0.750000
O O10 0.585797 0.726957 0.663893
O O11 0.000000 0.968138 0.250000
O O12 0.023596 0.875961 0.426533
O O13 0.902841 0.020704 0.432184
#
# Coordination Sequence:
#
# PCOD9267703 Si02
#       6
#     8   8   8   8   8   8
#     4  10  22  39  59  89 122 162 200 243 309 366
#     4  10  22  39  61  84 125 167 198 243 307 369
#     4  11  22  37  63  93 119 157 207 248 299 361
#     4  10  19  40  62  83 119 165 194 241 308 365
#     4  10  20  38  63  89 116 163 210 243 306 363
#     4  11  21  37  65  93 116 162 210 253 293 366
#
# _framework density 22.038878
#
# number of rings (size 3 to 8) (size 9 to 14) (size 15 to 20)
#    0.000    1.667    5.000    1.000    0.000    2.667 
#    0.000    4.167    0.000    0.000    0.000    0.000 
#    0.000    0.000    0.000    0.000    0.000    0.000 
#
# Total GULP energy -134149.414301 kJ/mol
# GULP energy per Si atom -5589.558929 kJ/mol
# Density = 2.198872 g / cm^3
# Si number density = 22.038878 Si / 1000 Ang^3
#
#
#
# Elastic Constant Matrix: (Units=GPa)
#
#
# Indices 1 2 3 4 5 6 
#
# 1 46.2589 -3.4991 19.9109 0.0000 -3.4802 0.0000
# 2 -3.4991 57.8182 30.8012 0.0000 1.7495 0.0000
# 3 19.9109 30.8012 161.6698 0.0000 -32.0014 0.0000
# 4 0.0000 0.0000 0.0000 27.9815 0.0000 2.7459
# 5 -3.4802 1.7495 -32.0014 0.0000 30.7712 0.0000
# 6 0.0000 0.0000 0.0000 2.7459 0.0000 23.2185
#
#
#
# Elastic Compliance Matrix: (Units=1/GPa)
#
#
# Indices 1 2 3 4 5 6 
#
# 1 0.023431 0.003527 -0.003869 0.000000 -0.001575 0.000000
# 2 0.003527 0.020761 -0.005723 0.000000 -0.006733 0.000000
# 3 -0.003869 -0.005723 0.009734 0.000000 0.010011 0.000000
# 4 0.000000 0.000000 0.000000 0.036157 0.000000 -0.004276
# 5 -0.001575 -0.006733 0.010011 0.000000 0.043113 0.000000
# 6 0.000000 0.000000 0.000000 -0.004276 0.000000 0.043575
#
#
# Mechanical properties :
#
#
# Convention : Reuss Voigt Hill
#
# Bulk Modulus (GPa) = 23.92545 40.01924 31.97234
# Shear Modulus (GPa) = 24.65070 30.96317 27.80694
#
# Velocity S-wave (km/s) = 3.34804 3.75231 3.55593
# Velocity P-wave (km/s) = 5.08187 6.08038 5.60341
#
# Compressibility (1/GPa) = 0.04179650
#
# Stress axis : x y z
#
# Youngs Moduli (GPa) = 42.67807 48.16657 102.73503
#
# Poissons Ratio (x) = -0.16988 0.39752
# Poissons Ratio (y) = -0.15052 0.58790
# Poissons Ratio (z) = 0.16514 0.27563
#
# Static dielectric constant tensor:
#      x y z
#    x 1.853690 0.000000 0.009080 
#    y 0.000000 1.779820 0.000000 
#    z 0.009080 0.000000 1.832110 
# 
# From -- ./inp_files/166129.got.cif
#   From: 2010.05.17/outbox.cif.g08.bks.cpg/sg15_84_cif.got.tgz:166129.got - 2010.06.03 18:47:42.
