data_PCOD9267297
_publ_section_title
;
Structure prediction by ZEFSAII (Michael W. Deem and Ramdas Pophale) SiO2 
 PCOD9267297
Probable space group: C 2/C
;
_chemical_formula_sum "Si O2"
_cell_formula_units_Z 48
_cell_length_a 27.526310
_cell_length_b 9.281945
_cell_length_c 15.460037
_cell_angle_alpha 90.000000
_cell_angle_beta 37.863000
_cell_angle_gamma 90.000000
_cell_volume 2424.415588
_symmetry_space_group_name_H-M "C 2/C"
_symmetry_group_IT_number 15
_symmetry_cell_setting 'monoclinic'
loop_
_space_group_symop_operation_xyz
x,y,z
-x,y,1/2-z
-x,-y,-z
x,-y,1/2+z
1/2+x,1/2+y,z
1/2-x,1/2+y,1/2-z
1/2-x,1/2-y,-z
1/2+x,1/2-y,1/2+z
loop_
_atom_site_type_symbol
_atom_site_label
_atom_site_fract_x
_atom_site_fract_y
_atom_site_fract_z
Si Si1 0.535815 0.160002 0.440351
Si Si2 0.860405 0.158273 0.583985
Si Si3 0.610581 0.335484 0.922453
Si Si4 0.687048 0.920842 0.631912
Si Si5 0.288477 0.813379 0.079560
Si Si6 0.263283 0.779825 0.381161
O O1 0.579541 0.222216 0.464051
O O2 0.468215 0.270809 0.507499
O O3 0.604951 0.154822 0.271346
O O4 0.500000 0.000000 0.500000
O O5 0.785187 0.151023 0.755169
O O6 0.819795 0.200726 0.551094
O O7 0.897273 0.999037 0.533971
O O8 0.640035 0.233193 0.959380
O O9 0.680353 0.325721 0.752284
O O10 0.694217 0.931227 0.518283
O O11 0.759849 0.826519 0.565777
O O12 0.691113 0.067317 0.680098
O O13 0.250000 0.750000 0.500000
#
# Coordination Sequence:
#
# PCOD9267297 Si02
#       6
#     8   8   8   8   8   8
#     4  11  23  39  63  88 126 166 195 247 311 369
#     4  10  22  40  62  92 121 159 207 249 304 363
#     4  11  21  39  63  90 125 162 200 248 311 361
#     4  10  19  39  58  90 120 152 208 247 294 362
#     4   9  20  35  65  87 116 158 202 254 294 348
#     4  11  22  37  65  91 120 157 206 257 302 351
#
# _framework density 19.798584999999999
#
# number of rings (size 3 to 8) (size 9 to 14) (size 15 to 20)
#    0.000    1.667    3.333    1.500    0.000    2.000 
#    0.000    0.833    3.667    0.000    0.000    0.000 
#    0.000    0.000    0.000    0.000    0.000    0.000 
#
# Total GULP energy -133945.290065 kJ/mol
# GULP energy per Si atom -5581.053753 kJ/mol
# Density = 1.975352 g / cm^3
# Si number density = 19.798585 Si / 1000 Ang^3
#
#
#
# Elastic Constant Matrix: (Units=GPa)
#
#
# Indices 1 2 3 4 5 6 
#
# 1 169.0176 49.3572 54.9579 0.0000 2.1311 0.0000
# 2 49.3572 78.4803 4.4556 -0.0004 -9.7524 0.0003
# 3 54.9579 4.4556 32.8727 -0.0003 -1.3102 0.0001
# 4 0.0000 -0.0004 -0.0003 25.9064 0.0001 -0.8150
# 5 2.1311 -9.7524 -1.3102 0.0001 33.8199 -0.0001
# 6 0.0000 0.0003 0.0001 -0.8150 -0.0001 28.1807
#
#
#
# Elastic Compliance Matrix: (Units=1/GPa)
#
#
# Indices 1 2 3 4 5 6 
#
# 1 0.019294 -0.011072 -0.030979 -0.000001 -0.005609 0.000000
# 2 -0.011072 0.019659 0.016125 0.000000 0.006991 0.000000
# 3 -0.030979 0.016125 0.080414 0.000001 0.009717 0.000000
# 4 -0.000001 0.000000 0.000001 0.038636 0.000000 0.001117
# 5 -0.005609 0.006991 0.009717 0.000000 0.032314 0.000000
# 6 0.000000 0.000000 0.000000 0.001117 0.000000 0.035518
#
#
# Mechanical properties :
#
#
# Convention : Reuss Voigt Hill
#
# Bulk Modulus (GPa) = 14.81167 55.32356 35.06762
# Shear Modulus (GPa) = 16.65608 29.02139 22.83874
#
# Velocity S-wave (km/s) = 2.90362 3.83277 3.40009
# Velocity P-wave (km/s) = 4.32883 6.89860 5.75888
#
# Compressibility (1/GPa) = 0.06751433
#
# Stress axis : x y z
#
# Youngs Moduli (GPa) = 51.83025 50.86773 12.43568
#
# Poissons Ratio (x) = 0.56322 0.38524
# Poissons Ratio (y) = 0.57388 -0.20053
# Poissons Ratio (z) = 1.60564 -0.82025
#
# Static dielectric constant tensor:
#      x y z
#    x 1.685510 0.000000 0.022020 
#    y 0.000000 1.826650 0.000000 
#    z 0.022020 0.000000 1.691550 
# 
# From -- ./inp_files/176869.got.cif
#   From: 2010.05.17/outbox.cif.g08.bks.cpg/sg15_89_cif.got.tgz:176869.got - 2010.06.03 18:47:42.
