data_PCOD9267955
_publ_section_title
;
Structure prediction by ZEFSAII (Michael W. Deem and Ramdas Pophale) SiO2 
 PCOD9267955
Probable space group: C 2/C
;
_chemical_formula_sum "Si O2"
_cell_formula_units_Z 48
_cell_length_a 8.813093
_cell_length_b 19.983695
_cell_length_c 17.732464
_cell_angle_alpha 90.000000
_cell_angle_beta 51.070516
_cell_angle_gamma 90.000000
_cell_volume 2429.450831
_symmetry_space_group_name_H-M "C 2/C"
_symmetry_group_IT_number 15
_symmetry_cell_setting 'monoclinic'
loop_
_space_group_symop_operation_xyz
x,y,z
-x,y,1/2-z
-x,-y,-z
x,-y,1/2+z
1/2+x,1/2+y,z
1/2-x,1/2+y,1/2-z
1/2-x,1/2-y,-z
1/2+x,1/2-y,1/2+z
loop_
_atom_site_type_symbol
_atom_site_label
_atom_site_fract_x
_atom_site_fract_y
_atom_site_fract_z
Si Si1 0.724038 0.309032 0.069412
Si Si2 0.278643 0.417433 0.040605
Si Si3 0.683362 0.249119 0.296435
Si Si4 0.221392 0.924550 0.956306
Si Si5 0.858675 0.303517 0.518322
Si Si6 0.500000 0.143281 0.250000
Si Si7 0.500000 0.152765 0.750000
O O1 0.503655 0.296263 0.161892
O O2 0.750000 0.250000 0.000000
O O3 0.745778 0.380424 0.023222
O O4 0.908030 0.300841 0.065805
O O5 0.257111 0.496747 0.037097
O O6 0.140001 0.390407 0.151623
O O7 0.505013 0.407381 0.992648
O O8 0.222696 0.374705 0.984286
O O9 0.672945 0.215753 0.383893
O O10 0.656358 0.190023 0.244769
O O11 0.867017 0.297294 0.242778
O O12 0.382395 0.899875 0.846901
O O13 0.750000 0.250000 0.500000
#
# Coordination Sequence:
#
# PCOD9267955 Si02
#       7
#     8   8   8   8   8   4   4
#     4  10  19  41  62  92 127 167 218 266 329 380
#     4  11  25  40  69  93 134 178 218 269 327 395
#     4  11  25  36  69  98 129 172 217 279 327 386
#     4  11  23  45  64  93 133 181 216 264 334 393
#     4  11  21  40  66  97 127 170 221 277 322 389
#     4  12  25  42  66  98 131 174 220 270 333 392
#     4  12  23  42  62 106 129 166 224 272 333 386
#
# _framework density 19.757553000000001
#
# number of rings (size 3 to 8) (size 9 to 14) (size 15 to 20)
#    0.000    1.000    6.667    1.500    4.667    0.667 
#    0.000    0.000    0.000    0.000    0.000    0.000 
#    0.000    0.000    0.000    0.000    0.000    0.000 
#
# Total GULP energy -134064.935527 kJ/mol
# GULP energy per Si atom -5586.038980 kJ/mol
# Density = 1.971258 g / cm^3
# Si number density = 19.757553 Si / 1000 Ang^3
#
#
#
# Elastic Constant Matrix: (Units=GPa)
#
#
# Indices 1 2 3 4 5 6 
#
# 1 145.0595 69.3378 30.3781 0.0000 -12.0765 0.0000
# 2 69.3378 117.9238 39.7347 0.0000 -7.1401 0.0000
# 3 30.3781 39.7347 66.2732 0.0000 -4.7823 0.0000
# 4 0.0000 0.0000 0.0000 24.7752 0.0000 -3.9630
# 5 -12.0765 -7.1401 -4.7823 0.0000 46.1861 0.0000
# 6 0.0000 0.0000 0.0000 -3.9630 0.0000 36.2279
#
#
#
# Elastic Compliance Matrix: (Units=1/GPa)
#
#
# Indices 1 2 3 4 5 6 
#
# 1 0.009794 -0.005247 -0.001226 0.000000 0.001623 0.000000
# 2 -0.005247 0.013483 -0.005670 0.000000 0.000125 0.000000
# 3 -0.001226 -0.005670 0.019107 0.000000 0.000781 0.000000
# 4 0.000000 0.000000 0.000000 0.041082 0.000000 0.004494
# 5 0.001623 0.000125 0.000781 0.000000 0.022176 0.000000
# 6 0.000000 0.000000 0.000000 0.004494 0.000000 0.028095
#
#
# Mechanical properties :
#
#
# Convention : Reuss Voigt Hill
#
# Bulk Modulus (GPa) = 55.25577 67.57306 61.41442
# Shear Modulus (GPa) = 30.47749 34.09156 32.28453
#
# Velocity S-wave (km/s) = 3.93182 4.15841 4.04670
# Velocity P-wave (km/s) = 6.97423 7.57179 7.27914
#
# Compressibility (1/GPa) = 0.01809766
#
# Stress axis : x y z
#
# Youngs Moduli (GPa) = 102.10621 74.16523 52.33715
#
# Poissons Ratio (x) = 0.38916 0.06417
# Poissons Ratio (y) = 0.53577 0.29674
# Poissons Ratio (z) = 0.12519 0.42051
#
# Static dielectric constant tensor:
#      x y z
#    x 1.699320 0.000000 0.012060 
#    y 0.000000 1.664280 0.000000 
#    z 0.012060 0.000000 1.722820 
# 
# From -- ./inp_files/191996.got.cif
#   From: 2010.05.17/outbox.cif.g08.bks.cpg/sg15_96_cif.got.tgz:191996.got - 2010.06.03 18:47:42.
