data_PCOD9267997
_publ_section_title
;
Structure prediction by ZEFSAII (Michael W. Deem and Ramdas Pophale) SiO2 
 PCOD9267997
Probable space group: C 2/C
;
_chemical_formula_sum "Si O2"
_cell_formula_units_Z 48
_cell_length_a 25.575069
_cell_length_b 9.388687
_cell_length_c 14.549736
_cell_angle_alpha 90.000000
_cell_angle_beta 35.689376
_cell_angle_gamma 90.000000
_cell_volume 2038.150414
_symmetry_space_group_name_H-M "C 2/C"
_symmetry_group_IT_number 15
_symmetry_cell_setting 'monoclinic'
loop_
_space_group_symop_operation_xyz
x,y,z
-x,y,1/2-z
-x,-y,-z
x,-y,1/2+z
1/2+x,1/2+y,z
1/2-x,1/2+y,1/2-z
1/2-x,1/2-y,-z
1/2+x,1/2-y,1/2+z
loop_
_atom_site_type_symbol
_atom_site_label
_atom_site_fract_x
_atom_site_fract_y
_atom_site_fract_z
Si Si1 0.417319 0.914122 0.665177
Si Si2 0.855437 0.876442 0.029145
Si Si3 0.498521 0.660266 0.033494
Si Si4 0.296111 0.129139 0.497261
Si Si5 0.757962 0.840720 0.704449
Si Si6 0.322036 0.365396 0.870159
O O1 0.454852 0.754266 0.609653
O O2 0.380188 0.937977 0.821343
O O3 0.327822 0.907613 0.729341
O O4 0.500000 0.000000 0.500000
O O5 0.785414 0.748050 0.150220
O O6 0.821517 0.023510 0.123784
O O7 0.864455 0.907210 0.908570
O O8 0.944157 0.827393 0.955171
O O9 0.397542 0.702702 0.198916
O O10 0.500000 0.500000 0.000000
O O11 0.250000 0.250000 0.500000
O O12 0.308101 0.216888 0.573762
O O13 0.224448 0.002821 0.607259
O O14 0.250000 0.250000 0.000000
#
# Coordination Sequence:
#
# PCOD9267997 Si02
#       6
#     8   8   8   8   8   8
#     4  10  20  39  64  92 122 165 212 259 318 385
#     4  11  24  42  64  96 134 167 222 267 325 389
#     4  11  25  40  65  97 130 166 214 272 320 384
#     4  10  19  41  65  90 120 171 217 251 319 383
#     4  10  23  39  66  92 128 170 214 269 316 390
#     4  12  24  40  69  98 129 172 215 268 332 385
#
# _framework density 23.550765999999999
#
# number of rings (size 3 to 8) (size 9 to 14) (size 15 to 20)
#    0.000    1.333    3.333    4.500    4.667    0.000 
#    0.000    0.000    0.000    0.000    0.000    0.000 
#    0.000    0.000    0.000    0.000    0.000    0.000 
#
# Total GULP energy -134120.810904 kJ/mol
# GULP energy per Si atom -5588.367121 kJ/mol
# Density = 2.349716 g / cm^3
# Si number density = 23.550766 Si / 1000 Ang^3
#
#
#
# Elastic Constant Matrix: (Units=GPa)
#
#
# Indices 1 2 3 4 5 6 
#
# 1 41.2454 -3.7973 20.8599 0.0000 7.0197 0.0000
# 2 -3.7973 52.4599 -5.2113 0.0000 -15.1273 0.0000
# 3 20.8599 -5.2113 132.5952 0.0000 -12.5196 0.0000
# 4 0.0000 0.0000 0.0000 50.6511 0.0000 1.3306
# 5 7.0197 -15.1273 -12.5196 0.0000 32.6788 0.0000
# 6 0.0000 0.0000 0.0000 1.3306 0.0000 27.6512
#
#
#
# Elastic Compliance Matrix: (Units=1/GPa)
#
#
# Indices 1 2 3 4 5 6 
#
# 1 0.028289 -0.000941 -0.005294 0.000000 -0.008540 0.000000
# 2 -0.000941 0.022498 0.002111 0.000000 0.011426 0.000000
# 3 -0.005294 0.002111 0.008982 0.000000 0.005556 0.000000
# 4 0.000000 0.000000 0.000000 0.019768 0.000000 -0.000951
# 5 -0.008540 0.011426 0.005556 0.000000 0.039853 0.000000
# 6 0.000000 0.000000 0.000000 -0.000951 0.000000 0.036211
#
#
# Mechanical properties :
#
#
# Convention : Reuss Voigt Hill
#
# Bulk Modulus (GPa) = 19.40897 27.77813 23.59355
# Shear Modulus (GPa) = 27.62084 36.49284 32.05684
#
# Velocity S-wave (km/s) = 3.42836 3.94069 3.69342
# Velocity P-wave (km/s) = 4.89191 5.70316 5.31304
#
# Compressibility (1/GPa) = 0.05152258
#
# Stress axis : x y z
#
# Youngs Moduli (GPa) = 35.34895 44.44747 111.33257
#
# Poissons Ratio (x) = 0.04182 0.58938
# Poissons Ratio (y) = 0.03326 -0.23503
# Poissons Ratio (z) = 0.18713 -0.09383
#
# Static dielectric constant tensor:
#      x y z
#    x 2.020980 0.000000 0.163600 
#    y 0.000000 1.913320 0.000000 
#    z 0.163600 0.000000 2.386300 
# 
# From -- ./inp_files/224511.got.cif
#   From: 2010.05.17/outbox.cif.g08.bks.cpg/sg15_113_cif.got.tgz:224511.got - 2010.06.03 18:47:42.
