data_PCOD9267130
_publ_section_title
;
Structure prediction by ZEFSAII (Michael W. Deem and Ramdas Pophale) SiO2 
 PCOD9267130
Probable space group: C 2/C
;
_chemical_formula_sum "Si O2"
_cell_formula_units_Z 64
_cell_length_a 13.292768
_cell_length_b 18.811738
_cell_length_c 11.125994
_cell_angle_alpha 90.000000
_cell_angle_beta 83.010441
_cell_angle_gamma 90.000000
_cell_volume 2761.490718
_symmetry_space_group_name_H-M "C 2/C"
_symmetry_group_IT_number 15
_symmetry_cell_setting 'monoclinic'
loop_
_space_group_symop_operation_xyz
x,y,z
-x,y,1/2-z
-x,-y,-z
x,-y,1/2+z
1/2+x,1/2+y,z
1/2-x,1/2+y,1/2-z
1/2-x,1/2-y,-z
1/2+x,1/2-y,1/2+z
loop_
_atom_site_type_symbol
_atom_site_label
_atom_site_fract_x
_atom_site_fract_y
_atom_site_fract_z
Si Si1 0.886334 0.743296 0.217443
Si Si2 0.083832 0.038563 0.830814
Si Si3 0.594575 0.908641 0.827806
Si Si4 0.865023 0.801801 0.952210
Si Si5 0.844756 0.644708 0.936037
Si Si6 0.190938 0.563175 0.795025
Si Si7 0.961796 0.107475 0.062885
Si Si8 0.779615 0.824920 0.436191
O O1 0.847427 0.661778 0.231979
O O2 0.888786 0.772983 0.082965
O O3 0.824189 0.797897 0.304058
O O4 0.000000 0.741278 0.250000
O O5 0.193178 0.055494 0.765674
O O6 0.000000 0.063775 0.750000
O O7 0.078364 0.954103 0.847136
O O8 0.045180 0.071897 0.960613
O O9 0.500000 0.917129 0.750000
O O10 0.648710 0.984704 0.827243
O O11 0.579658 0.881536 0.968646
O O12 0.767180 0.852978 0.982262
O O13 0.846095 0.726597 0.890870
O O14 0.966253 0.835431 0.886550
O O15 0.859463 0.596864 0.816674
O O16 0.195889 0.616211 0.909525
O O17 0.868308 0.139453 0.002295
O O18 0.750000 0.750000 0.500000
#
# Coordination Sequence:
#
# PCOD9267130 Si02
#       8
#     8   8   8   8   8   8   8   8
#     4  10  19  41  70  94 126 182 234 273 338 417
#     4  11  24  40  67  97 136 180 215 272 343 429
#     4  10  26  44  66  95 129 180 242 284 339 413
#     4  10  19  38  65  97 126 167 226 276 332 412
#     4  10  22  39  67  94 124 177 226 283 329 404
#     4  12  25  44  69  96 139 186 224 283 350 415
#     4  11  23  41  64 100 135 172 221 276 349 412
#     4  12  26  41  66 104 142 177 228 294 345 406
#
# _framework density 23.175888
#
# number of rings (size 3 to 8) (size 9 to 14) (size 15 to 20)
#    0.000    1.250    5.000    0.000    5.250    0.500 
#    4.500    0.000    0.000    0.000    0.000    0.000 
#    0.000    0.000    0.000    0.000    0.000    0.000 
#
# Total GULP energy -178631.053414 kJ/mol
# GULP energy per Si atom -5582.220419 kJ/mol
# Density = 2.312314 g / cm^3
# Si number density = 23.175888 Si / 1000 Ang^3
#
#
#
# Elastic Constant Matrix: (Units=GPa)
#
#
# Indices 1 2 3 4 5 6 
#
# 1 52.4671 31.7029 21.9443 0.0000 24.6827 0.0000
# 2 31.7029 146.1662 25.2647 0.0000 -4.3510 0.0000
# 3 21.9443 25.2647 46.4648 0.0000 8.2182 0.0000
# 4 0.0000 0.0000 0.0000 27.3689 0.0000 20.1414
# 5 24.6827 -4.3510 8.2182 0.0000 22.5493 0.0000
# 6 0.0000 0.0000 0.0000 20.1414 0.0000 26.8569
#
#
#
# Elastic Compliance Matrix: (Units=1/GPa)
#
#
# Indices 1 2 3 4 5 6 
#
# 1 0.065371 -0.014455 -0.010544 0.000000 -0.070502 0.000000
# 2 -0.014455 0.010964 -0.002466 0.000000 0.018837 0.000000
# 3 -0.010544 -0.002466 0.027669 0.000000 0.000981 0.000000
# 4 0.000000 0.000000 0.000000 0.081540 0.000000 -0.061151
# 5 -0.070502 0.018837 0.000981 0.000000 0.124797 0.000000
# 6 0.000000 0.000000 0.000000 -0.061151 0.000000 0.083095
#
#
# Mechanical properties :
#
#
# Convention : Reuss Voigt Hill
#
# Bulk Modulus (GPa) = 20.37767 44.76908 32.57337
# Shear Modulus (GPa) = 10.75908 26.43411 18.59659
#
# Velocity S-wave (km/s) = 2.15695 3.38092 2.83576
# Velocity P-wave (km/s) = 3.87491 5.88217 4.98070
#
# Compressibility (1/GPa) = 0.04907333
#
# Stress axis : x y z
#
# Youngs Moduli (GPa) = 15.29728 91.20928 36.14188
#
# Poissons Ratio (x) = 1.31843 0.38107
# Poissons Ratio (y) = 0.22112 0.08914
# Poissons Ratio (z) = 0.16129 0.22496
#
# Static dielectric constant tensor:
#      x y z
#    x 1.989280 0.000000 0.008060 
#    y 0.000000 1.961030 0.000000 
#    z 0.008060 0.000000 1.899370 
# 
# From -- ./inp_files/98765.got.cif
#   From: 2010.05.17/outbox.cif.g08.bks.cpg/sg15_50_cif.got.tgz:98765.got - 2010.06.03 18:47:42.
