data_PCOD9267809
_publ_section_title
;
Structure prediction by ZEFSAII (Michael W. Deem and Ramdas Pophale) SiO2 
 PCOD9267809
Probable space group: C 2/C
;
_chemical_formula_sum "Si O2"
_cell_formula_units_Z 64
_cell_length_a 13.931427
_cell_length_b 16.902467
_cell_length_c 13.674513
_cell_angle_alpha 90.000000
_cell_angle_beta 93.373046
_cell_angle_gamma 90.000000
_cell_volume 3214.434289
_symmetry_space_group_name_H-M "C 2/C"
_symmetry_group_IT_number 15
_symmetry_cell_setting 'monoclinic'
loop_
_space_group_symop_operation_xyz
x,y,z
-x,y,1/2-z
-x,-y,-z
x,-y,1/2+z
1/2+x,1/2+y,z
1/2-x,1/2+y,1/2-z
1/2-x,1/2-y,-z
1/2+x,1/2-y,1/2+z
loop_
_atom_site_type_symbol
_atom_site_label
_atom_site_fract_x
_atom_site_fract_y
_atom_site_fract_z
Si Si1 0.370385 0.712824 0.340194
Si Si2 0.966253 0.175030 0.996025
Si Si3 0.485224 0.192434 0.357760
Si Si4 0.642534 0.601535 0.347265
Si Si5 0.149718 0.551520 0.212150
Si Si6 0.574274 0.576251 0.839402
Si Si7 0.184790 0.371927 0.918284
Si Si8 0.296734 0.112327 0.853477
O O1 0.463175 0.705191 0.414003
O O2 0.383001 0.662776 0.241338
O O3 0.280396 0.673968 0.392472
O O4 0.340501 0.803810 0.325157
O O5 0.028626 0.113616 0.934661
O O6 0.932662 0.245908 0.923854
O O7 0.878006 0.136634 0.047769
O O8 0.500000 0.225443 0.250000
O O9 0.432677 0.108535 0.336522
O O10 0.590819 0.183150 0.409741
O O11 0.752721 0.579804 0.334299
O O12 0.584524 0.518970 0.341583
O O13 0.163206 0.567286 0.328750
O O14 0.144569 0.458909 0.192178
O O15 0.500000 0.596055 0.750000
O O16 0.682191 0.608031 0.825388
O O17 0.195862 0.400908 0.028972
#
# Coordination Sequence:
#
# PCOD9267809 Si02
#       8
#     8   8   8   8   8   8   8   8
#     4  11  21  39  64  92 123 160 210 259 297 375
#     4  12  21  37  63  91 119 170 204 250 312 374
#     4  10  21  39  62  90 120 158 209 259 302 357
#     4  10  24  41  58  87 134 162 197 256 319 365
#     4   9  23  42  59  91 129 161 199 263 311 361
#     4  11  23  40  62  94 122 157 212 259 304 370
#     4  10  19  40  66  85 119 162 209 253 298 363
#     4  11  21  41  67  92 118 167 210 249 312 370
#
# _framework density 19.910191000000001
#
# number of rings (size 3 to 8) (size 9 to 14) (size 15 to 20)
#    0.000    1.500    2.500    3.000    0.000    3.000 
#    9.000    2.500    0.000    0.000    0.000    0.000 
#    0.000    0.000    0.000    0.000    0.000    0.000 
#
# Total GULP energy -178677.981373 kJ/mol
# GULP energy per Si atom -5583.686918 kJ/mol
# Density = 1.986487 g / cm^3
# Si number density = 19.910191 Si / 1000 Ang^3
#
#
#
# Elastic Constant Matrix: (Units=GPa)
#
#
# Indices 1 2 3 4 5 6 
#
# 1 39.8884 3.6263 18.6794 0.0000 6.0769 0.0000
# 2 3.6263 121.7953 48.1520 0.0000 -14.7954 0.0000
# 3 18.6794 48.1520 53.2225 0.0000 0.1624 0.0000
# 4 0.0000 0.0000 0.0000 -52.0168 0.0000 -32.5141
# 5 6.0769 -14.7954 0.1624 0.0000 28.3920 0.0000
# 6 0.0000 0.0000 0.0000 -32.5141 0.0000 -4.6766
#
#
#
# Elastic Compliance Matrix: (Units=1/GPa)
#
#
# Indices 1 2 3 4 5 6 
#
# 1 0.032675 0.004692 -0.015699 0.000000 -0.004458 0.000000
# 2 0.004692 0.014885 -0.015135 0.000000 0.006839 0.000000
# 3 -0.015699 -0.015135 0.038006 0.000000 -0.004744 0.000000
# 4 0.000000 0.000000 0.000000 0.005746 0.000000 -0.039948
# 5 -0.004458 0.006839 -0.004744 0.000000 0.039766 0.000000
# 6 0.000000 0.000000 0.000000 -0.039948 0.000000 0.063910
#
#
# Mechanical properties :
#
#
# Convention : Reuss Voigt Hill
#
# Bulk Modulus (GPa) = 30.04595 39.53574 34.79084
# Shear Modulus (GPa) = 19.35235 3.96961 11.66098
#
# Velocity S-wave (km/s) = 3.12104 1.41354 2.42271
# Velocity P-wave (km/s) = 5.30202 4.75019 5.03367
#
# Compressibility (1/GPa) = 0.03328236
#
# Stress axis : x y z
#
# Youngs Moduli (GPa) = 30.60486 67.18109 26.31133
#
# Poissons Ratio (x) = -0.31524 0.41307
# Poissons Ratio (y) = -0.14361 0.39822
# Poissons Ratio (z) = 0.48048 1.01677
#
# Static dielectric constant tensor:
#      x y z
#    x 1.720250 0.000000 0.040850 
#    y 0.000000 1.732920 0.000000 
#    z 0.040850 0.000000 1.784540 
# 
# From -- ./inp_files/98780.got.cif
#   From: 2010.05.17/outbox.cif.g08.bks.cpg/sg15_50_cif.got.tgz:98780.got - 2010.06.03 18:47:42.
