data_PCOD9267593
_publ_section_title
;
Structure prediction by ZEFSAII (Michael W. Deem and Ramdas Pophale) SiO2 
 PCOD9267593
Probable space group: C 2/C
;
_chemical_formula_sum "Si O2"
_cell_formula_units_Z 56
_cell_length_a 14.268593
_cell_length_b 6.517068
_cell_length_c 24.086412
_cell_angle_alpha 90.000000
_cell_angle_beta 102.736026
_cell_angle_gamma 90.000000
_cell_volume 2184.673477
_symmetry_space_group_name_H-M "C 2/C"
_symmetry_group_IT_number 15
_symmetry_cell_setting 'monoclinic'
loop_
_space_group_symop_operation_xyz
x,y,z
-x,y,1/2-z
-x,-y,-z
x,-y,1/2+z
1/2+x,1/2+y,z
1/2-x,1/2+y,1/2-z
1/2-x,1/2-y,-z
1/2+x,1/2-y,1/2+z
loop_
_atom_site_type_symbol
_atom_site_label
_atom_site_fract_x
_atom_site_fract_y
_atom_site_fract_z
Si Si1 0.495768 0.385953 0.412730
Si Si2 0.827284 0.404966 0.890936
Si Si3 0.368186 0.355436 0.755068
Si Si4 0.869043 0.208228 0.469137
Si Si5 0.701372 0.282856 0.304653
Si Si6 0.547507 0.269873 0.847719
Si Si7 0.695150 0.978554 0.407250
O O1 0.420450 0.217950 0.381921
O O2 0.430791 0.563333 0.434408
O O3 0.569985 0.297816 0.466951
O O4 0.556398 0.502715 0.374062
O O5 0.858764 0.566079 0.942323
O O6 0.768324 0.538544 0.839585
O O7 0.756443 0.228469 0.904114
O O8 0.381104 0.593303 0.738819
O O9 0.263862 0.333638 0.767079
O O10 0.439308 0.270609 0.811426
O O11 0.392716 0.240374 0.701255
O O12 0.763987 0.100316 0.458396
O O13 0.685507 0.130549 0.353518
O O14 0.588049 0.114013 0.898944
#
# Coordination Sequence:
#
# PCOD9267593 Si02
#       7
#     8   8   8   8   8   8   8
#     4  10  21  39  65  97 137 167 223 277 330 397
#     4  10  19  39  67  94 125 173 220 275 321 408
#     4  11  24  41  65  91 128 166 228 265 333 394
#     4   9  20  39  68  97 123 183 224 261 332 412
#     4  11  23  43  69  91 121 185 223 268 328 416
#     4  11  23  42  58  97 136 163 208 290 326 388
#     4  10  21  41  66  91 134 168 220 273 333 402
#
# _framework density 25.633123000000001
#
# number of rings (size 3 to 8) (size 9 to 14) (size 15 to 20)
#    0.000    1.714    1.429    3.857    2.000    0.571 
#    5.143    2.143    0.000    0.000    0.000    0.000 
#    0.000    0.000    0.000    0.000    0.000    0.000 
#
# Total GULP energy -156618.919379 kJ/mol
# GULP energy per Si atom -5593.532835 kJ/mol
# Density = 2.557478 g / cm^3
# Si number density = 25.633123 Si / 1000 Ang^3
#
#
#
# Elastic Constant Matrix: (Units=GPa)
#
#
# Indices 1 2 3 4 5 6 
#
# 1 76.0189 38.2460 28.1447 0.0000 28.5036 0.0000
# 2 38.2460 149.5510 50.1290 0.0000 22.7623 0.0000
# 3 28.1447 50.1290 89.4645 0.0000 22.4294 0.0000
# 4 0.0000 0.0000 0.0000 51.7003 0.0000 12.1490
# 5 28.5036 22.7623 22.4294 0.0000 32.9180 0.0000
# 6 0.0000 0.0000 0.0000 12.1490 0.0000 56.8122
#
#
#
# Elastic Compliance Matrix: (Units=1/GPa)
#
#
# Indices 1 2 3 4 5 6 
#
# 1 0.020604 -0.002533 -0.001241 0.000000 -0.015244 0.000000
# 2 -0.002533 0.008811 -0.003814 0.000000 -0.001300 0.000000
# 3 -0.001241 -0.003814 0.015406 0.000000 -0.006786 0.000000
# 4 0.000000 0.000000 0.000000 0.020366 0.000000 -0.004355
# 5 -0.015244 -0.001300 -0.006786 0.000000 0.049101 0.000000
# 6 0.000000 0.000000 0.000000 -0.004355 0.000000 0.018533
#
#
# Mechanical properties :
#
#
# Convention : Reuss Voigt Hill
#
# Bulk Modulus (GPa) = 33.73174 60.89711 47.31442
# Shear Modulus (GPa) = 31.66976 41.52040 36.59508
#
# Velocity S-wave (km/s) = 3.51878 4.02903 3.78252
# Velocity P-wave (km/s) = 5.44951 6.74188 6.12985
#
# Compressibility (1/GPa) = 0.02964567
#
# Stress axis : x y z
#
# Youngs Moduli (GPa) = 48.53346 113.49595 64.90872
#
# Poissons Ratio (x) = 0.28751 0.08053
# Poissons Ratio (y) = 0.12295 0.24756
# Poissons Ratio (z) = 0.06021 0.43287
#
# Static dielectric constant tensor:
#      x y z
#    x 2.133100 0.000000 -0.006950 
#    y 0.000000 2.037400 0.000000 
#    z -0.006950 0.000000 1.996340 
# 
# From -- ./inp_files/297779.got.cif
#   From: 2010.05.17/outbox.cif.g08.bks.cpg/sg15_149_cif.got.tgz:297779.got - 2010.06.03 18:47:42.
