data_PCOD9267333
_publ_section_title
;
Structure prediction by ZEFSAII (Michael W. Deem and Ramdas Pophale) SiO2 
 PCOD9267333
Probable space group: C 2/C
;
_chemical_formula_sum "Si O2"
_cell_formula_units_Z 64
_cell_length_a 16.337199
_cell_length_b 14.908794
_cell_length_c 26.778945
_cell_angle_alpha 90.000000
_cell_angle_beta 155.276569
_cell_angle_gamma 90.000000
_cell_volume 2727.957871
_symmetry_space_group_name_H-M "C 2/C"
_symmetry_group_IT_number 15
_symmetry_cell_setting 'monoclinic'
loop_
_space_group_symop_operation_xyz
x,y,z
-x,y,1/2-z
-x,-y,-z
x,-y,1/2+z
1/2+x,1/2+y,z
1/2-x,1/2+y,1/2-z
1/2-x,1/2-y,-z
1/2+x,1/2-y,1/2+z
loop_
_atom_site_type_symbol
_atom_site_label
_atom_site_fract_x
_atom_site_fract_y
_atom_site_fract_z
Si Si1 0.160394 0.316836 0.216165
Si Si2 0.419215 0.735551 0.522681
Si Si3 0.710559 0.544629 0.056111
Si Si4 0.931771 0.744035 0.502881
Si Si5 0.005599 0.432651 0.579188
Si Si6 0.121201 0.363998 0.368770
Si Si7 0.241452 0.988357 0.689764
Si Si8 0.228335 0.068254 0.372968
O O1 0.367978 0.271426 0.334263
O O2 0.183931 0.411621 0.256541
O O3 0.972850 0.291461 0.145282
O O4 0.091117 0.311425 0.121724
O O5 0.289866 0.647863 0.464029
O O6 0.469418 0.722256 0.492423
O O7 0.376212 0.840956 0.504603
O O8 0.841068 0.470487 0.100382
O O9 0.766286 0.541690 0.146079
O O10 0.489608 0.506521 0.930159
O O11 0.838922 0.827303 0.479040
O O12 0.758022 0.674158 0.397335
O O13 0.141021 0.431972 0.703690
O O14 0.162104 0.443397 0.619934
O O15 0.852539 0.512854 0.483130
O O16 0.000000 0.359221 0.250000
O O17 0.000000 0.044103 0.250000
#
# Coordination Sequence:
#
# PCOD9267333 Si02
#       8
#     8   8   8   8   8   8   8   8
#     4  11  22  36  60  94 123 161 205 265 322 389
#     4  10  23  39  60  91 124 163 220 259 320 390
#     4  10  22  38  61  87 123 170 207 260 316 387
#     4  11  21  36  60  91 130 158 204 266 325 387
#     4  10  22  40  64  92 126 170 215 267 321 383
#     4  12  21  37  56  91 129 157 203 260 326 385
#     4  10  19  39  60  86 121 162 211 253 313 383
#     4  10  22  40  62  90 131 172 208 262 327 390
#
# _framework density 23.460773
#
# number of rings (size 3 to 8) (size 9 to 14) (size 15 to 20)
#    0.000    1.500    3.750    2.250    5.250    1.000 
#    0.000    0.625    0.000    0.750    0.000    0.000 
#    0.000    0.000    0.000    0.000    0.000    0.000 
#
# Total GULP energy -178419.219924 kJ/mol
# GULP energy per Si atom -5575.600623 kJ/mol
# Density = 2.340738 g / cm^3
# Si number density = 23.460773 Si / 1000 Ang^3
#
#
#
# Elastic Constant Matrix: (Units=GPa)
#
#
# Indices 1 2 3 4 5 6 
#
# 1 268.7271 -54.2525 -32.3214 0.0048 -110.9159 0.0008
# 2 -54.2525 124.8170 35.5301 0.0026 32.2625 0.0005
# 3 -32.3214 35.5301 135.9114 0.0061 20.1651 0.0014
# 4 0.0048 0.0026 0.0061 17.7971 -0.0023 -8.8564
# 5 -110.9159 32.2625 20.1651 -0.0023 74.0501 -0.0004
# 6 0.0008 0.0005 0.0014 -8.8564 -0.0004 8.4064
#
#
#
# Elastic Compliance Matrix: (Units=1/GPa)
#
#
# Indices 1 2 3 4 5 6 
#
# 1 0.009778 0.000510 0.000054 -0.000002 0.014409 -0.000002
# 2 0.000510 0.009525 -0.001945 -0.000003 -0.002856 -0.000004
# 3 0.000054 -0.001945 0.008067 -0.000007 -0.001268 -0.000009
# 4 -0.000002 -0.000003 -0.000007 0.118111 0.000004 0.124434
# 5 0.014409 -0.002856 -0.001268 0.000004 0.036677 0.000005
# 6 -0.000002 -0.000004 -0.000009 0.124434 0.000005 0.250051
#
#
# Mechanical properties :
#
#
# Convention : Reuss Voigt Hill
#
# Bulk Modulus (GPa) = 40.63499 47.48532 44.06016
# Shear Modulus (GPa) = 11.28226 58.75069 35.01647
#
# Velocity S-wave (km/s) = 2.19532 5.00964 3.86755
# Velocity P-wave (km/s) = 4.87687 7.33118 6.22616
#
# Compressibility (1/GPa) = 0.02460933
#
# Stress axis : x y z
#
# Youngs Moduli (GPa) = 102.27057 104.98213 123.95780
#
# Poissons Ratio (x) = -0.05357 -0.00670
# Poissons Ratio (y) = -0.05219 0.24110
# Poissons Ratio (z) = -0.00553 0.20419
#
# Static dielectric constant tensor:
#      x y z
#    x 3.090310 0.000000 0.487890 
#    y 0.000000 1.966550 0.000000 
#    z 0.487890 0.000000 2.069210 
# 
# From -- ./inp_files/318004.got.cif
#   From: 2010.05.17/outbox.cif.g08.bks.cpg/sg15_160_cif.got.tgz:318004.got - 2010.06.03 18:47:42.
