data_PCOD9267696
_publ_section_title
;
Structure prediction by ZEFSAII (Michael W. Deem and Ramdas Pophale) SiO2 
 PCOD9267696
Probable space group: C 2/C
;
_chemical_formula_sum "Si O2"
_cell_formula_units_Z 60
_cell_length_a 11.828041
_cell_length_b 16.432624
_cell_length_c 28.215686
_cell_angle_alpha 90.000000
_cell_angle_beta 33.047757
_cell_angle_gamma 90.000000
_cell_volume 2990.721879
_symmetry_space_group_name_H-M "C 2/C"
_symmetry_group_IT_number 15
_symmetry_cell_setting 'monoclinic'
loop_
_space_group_symop_operation_xyz
x,y,z
-x,y,1/2-z
-x,-y,-z
x,-y,1/2+z
1/2+x,1/2+y,z
1/2-x,1/2+y,1/2-z
1/2-x,1/2-y,-z
1/2+x,1/2-y,1/2+z
loop_
_atom_site_type_symbol
_atom_site_label
_atom_site_fract_x
_atom_site_fract_y
_atom_site_fract_z
Si Si1 0.225542 0.442566 0.261888
Si Si2 0.554287 0.214631 0.867603
Si Si3 0.000000 0.007117 0.250000
Si Si4 0.228041 0.852195 0.552562
Si Si5 0.787055 0.335722 0.852249
Si Si6 0.859994 0.571973 0.416464
Si Si7 0.425162 0.926051 0.560484
Si Si8 0.983626 0.014960 0.090256
O O1 0.156591 0.350958 0.297561
O O2 0.396580 0.458869 0.242835
O O3 0.326833 0.459195 0.175276
O O4 0.032927 0.506470 0.336750
O O5 0.460111 0.291219 0.873088
O O6 0.689911 0.254175 0.862726
O O7 0.356380 0.170677 0.960795
O O8 0.195598 0.056012 0.161163
O O9 0.391797 0.851458 0.537065
O O10 0.131014 0.940094 0.576920
O O11 0.840305 0.350452 0.888762
O O12 0.636305 0.410645 0.892024
O O13 0.000000 0.348716 0.750000
O O14 0.635048 0.531053 0.501412
O O15 0.931692 0.589889 0.444947
O O16 0.500000 0.000000 0.500000
#
# Coordination Sequence:
#
# PCOD9267696 Si02
#       8
#     8   8   4   8   8   8   8   8
#     4  11  20  37  64  99 125 166 223 275 313 393
#     4  10  23  37  65  90 134 171 214 261 343 399
#     4  10  20  30  60  94 114 150 202 270 312 352
#     4  10  19  40  61  94 123 174 209 267 334 389
#     4  11  24  42  62  93 132 177 214 269 333 402
#     4  11  22  39  67  95 123 168 225 269 322 383
#     4  11  19  35  63  95 124 153 215 272 310 377
#     4  11  20  39  69  92 127 163 224 278 318 382
#
# _framework density 20.062045999999999
#
# number of rings (size 3 to 8) (size 9 to 14) (size 15 to 20)
#    0.000    1.333    5.333    1.200    0.933    0.000 
#    0.000    0.667    2.933    0.000    0.000    0.000 
#    0.000    0.000    0.000    0.000    0.000    0.000 
#
# Total GULP energy -167227.531601 kJ/mol
# GULP energy per Si atom -5574.251053 kJ/mol
# Density = 2.001638 g / cm^3
# Si number density = 20.062046 Si / 1000 Ang^3
#
#
#
# Elastic Constant Matrix: (Units=GPa)
#
#
# Indices 1 2 3 4 5 6 
#
# 1 79.0296 14.2029 3.2173 -0.0004 7.0919 0.0006
# 2 14.2029 53.7534 15.0727 -0.0013 5.2668 -0.0002
# 3 3.2173 15.0727 85.5091 0.0017 -3.9830 -0.0045
# 4 -0.0004 -0.0013 0.0017 25.1138 -0.0019 1.3305
# 5 7.0919 5.2668 -3.9830 -0.0019 23.1982 -0.0003
# 6 0.0006 -0.0002 -0.0045 1.3305 -0.0003 20.5484
#
#
#
# Elastic Compliance Matrix: (Units=1/GPa)
#
#
# Indices 1 2 3 4 5 6 
#
# 1 0.013543 -0.003214 -0.000103 0.000000 -0.003428 -0.000001
# 2 -0.003214 0.020945 -0.003777 0.000001 -0.004421 -0.000001
# 3 -0.000103 -0.003777 0.012506 -0.000001 0.003036 0.000003
# 4 0.000000 0.000001 -0.000001 0.039956 0.000003 -0.002587
# 5 -0.003428 -0.004421 0.003036 0.000003 0.045680 0.000001
# 6 -0.000001 -0.000001 0.000003 -0.002587 0.000001 0.048833
#
#
# Mechanical properties :
#
#
# Convention : Reuss Voigt Hill
#
# Bulk Modulus (GPa) = 30.48159 31.47532 30.97845
# Shear Modulus (GPa) = 24.20315 26.15869 25.18092
#
# Velocity S-wave (km/s) = 3.47712 3.61486 3.54666
# Velocity P-wave (km/s) = 5.59885 5.75725 5.67860
#
# Compressibility (1/GPa) = 0.03280669
#
# Stress axis : x y z
#
# Youngs Moduli (GPa) = 73.83972 47.74435 79.96334
#
# Poissons Ratio (x) = 0.15343 0.00822
# Poissons Ratio (y) = 0.23729 0.30202
# Poissons Ratio (z) = 0.00759 0.18033
#
# Static dielectric constant tensor:
#      x y z
#    x 1.784610 0.000000 -0.038530 
#    y 0.000000 1.747420 -0.000020 
#    z -0.038530 -0.000020 1.550340 
# 
# From -- ./inp_files/293537.got.cif
#   From: 2010.05.17/outbox.cif.g08.bks.cpg/sg15_147_cif.got.tgz:293537.got - 2010.06.03 18:47:42.
