data_PCOD9267099
_publ_section_title
;
Structure prediction by ZEFSAII (Michael W. Deem and Ramdas Pophale) SiO2 
 PCOD9267099
Probable space group: C 2/C
;
_chemical_formula_sum "Si O2"
_cell_formula_units_Z 44
_cell_length_a 8.227741
_cell_length_b 27.846597
_cell_length_c 10.591478
_cell_angle_alpha 90.000000
_cell_angle_beta 134.164422
_cell_angle_gamma 90.000000
_cell_volume 1740.749996
_symmetry_space_group_name_H-M "C 2/C"
_symmetry_group_IT_number 15
_symmetry_cell_setting 'monoclinic'
loop_
_space_group_symop_operation_xyz
x,y,z
-x,y,1/2-z
-x,-y,-z
x,-y,1/2+z
1/2+x,1/2+y,z
1/2-x,1/2+y,1/2-z
1/2-x,1/2-y,-z
1/2+x,1/2-y,1/2+z
loop_
_atom_site_type_symbol
_atom_site_label
_atom_site_fract_x
_atom_site_fract_y
_atom_site_fract_z
Si Si1 0.623427 0.327190 0.132318
Si Si2 0.247181 0.331944 0.578397
Si Si3 0.129488 0.073342 0.979071
Si Si4 0.887646 0.425482 0.883895
Si Si5 0.271693 0.235945 0.200534
Si Si6 0.000000 0.991723 0.750000
O O1 0.753387 0.293479 0.302384
O O2 0.760353 0.329008 0.075464
O O3 0.520459 0.378197 0.117919
O O4 0.413354 0.293220 0.977507
O O5 0.500000 0.350542 0.750000
O O6 0.088508 0.373798 0.539956
O O7 0.231757 0.285198 0.658735
O O8 0.355965 0.064037 0.017996
O O9 0.233157 0.077554 0.174494
O O10 0.981488 0.027339 0.860427
O O11 0.729838 0.460053 0.883323
O O12 0.500000 0.225287 0.250000
#
# Coordination Sequence:
#
# PCOD9267099 Si02
#       6
#     8   8   8   8   8   4
#     4  11  23  41  62  94 133 181 219 281 324 398
#     4  10  19  38  65  90 126 174 228 262 331 400
#     4  11  24  41  68  97 137 171 225 275 338 396
#     4  11  21  43  71  93 129 183 216 267 345 418
#     4  11  22  38  63  92 128 173 228 268 333 390
#     4  12  24  42  68 106 130 168 226 288 330 394
#
# _framework density 25.276461999999999
#
# number of rings (size 3 to 8) (size 9 to 14) (size 15 to 20)
#    0.000    1.091    4.545    3.273    1.273    0.000 
#    0.000    0.000    0.000    0.000    0.000    0.000 
#    0.000    0.000    0.000    0.000    0.000    0.000 
#
# Total GULP energy -123066.162737 kJ/mol
# GULP energy per Si atom -5593.916488 kJ/mol
# Density = 2.521893 g / cm^3
# Si number density = 25.276462 Si / 1000 Ang^3
#
#
#
# Elastic Constant Matrix: (Units=GPa)
#
#
# Indices 1 2 3 4 5 6 
#
# 1 94.3387 35.0758 19.8722 0.0000 -12.8192 0.0000
# 2 35.0758 170.7363 23.2551 0.0000 5.0768 0.0000
# 3 19.8722 23.2551 78.3395 0.0000 -3.3383 0.0000
# 4 0.0000 0.0000 0.0000 36.7159 0.0000 2.2331
# 5 -12.8192 5.0768 -3.3383 0.0000 23.2214 0.0000
# 6 0.0000 0.0000 0.0000 2.2331 0.0000 37.0954
#
#
#
# Elastic Compliance Matrix: (Units=1/GPa)
#
#
# Indices 1 2 3 4 5 6 
#
# 1 0.013047 -0.002599 -0.002220 0.000000 0.007452 0.000000
# 2 -0.002599 0.006682 -0.001456 0.000000 -0.003105 0.000000
# 3 -0.002220 -0.001456 0.013806 0.000000 0.001077 0.000000
# 4 0.000000 0.000000 0.000000 0.027336 0.000000 -0.001646
# 5 0.007452 -0.003105 0.001077 0.000000 0.048011 0.000000
# 6 0.000000 0.000000 0.000000 -0.001646 0.000000 0.027057
#
#
# Mechanical properties :
#
#
# Convention : Reuss Voigt Hill
#
# Bulk Modulus (GPa) = 47.65867 55.53563 51.59715
# Shear Modulus (GPa) = 32.15732 37.08729 34.62230
#
# Velocity S-wave (km/s) = 3.57069 3.83465 3.70502
# Velocity P-wave (km/s) = 5.99130 6.45174 6.22578
#
# Compressibility (1/GPa) = 0.02098254
#
# Stress axis : x y z
#
# Youngs Moduli (GPa) = 76.64668 149.66219 72.43001
#
# Poissons Ratio (x) = 0.38904 0.16082
# Poissons Ratio (y) = 0.19924 0.10549
# Poissons Ratio (z) = 0.17019 0.21797
#
# Static dielectric constant tensor:
#      x y z
#    x 2.027900 0.000000 0.004910 
#    y 0.000000 1.965460 0.000000 
#    z 0.004910 0.000000 2.067080 
# 
# From -- ./inp_files/81563.got.cif
#   From: 2010.05.17/outbox.cif.g08.bks.cpg/sg15_41_cif.got.tgz:81563.got - 2010.06.03 18:47:42.
