data_PCOD9267893
_publ_section_title
;
Structure prediction by ZEFSAII (Michael W. Deem and Ramdas Pophale) SiO2 
 PCOD9267893
Probable space group: C 2/C
;
_chemical_formula_sum "Si O2"
_cell_formula_units_Z 28
_cell_length_a 7.630004
_cell_length_b 11.401491
_cell_length_c 13.810107
_cell_angle_alpha 90.000000
_cell_angle_beta 62.625143
_cell_angle_gamma 90.000000
_cell_volume 1066.853679
_symmetry_space_group_name_H-M "C 2/C"
_symmetry_group_IT_number 15
_symmetry_cell_setting 'monoclinic'
loop_
_space_group_symop_operation_xyz
x,y,z
-x,y,1/2-z
-x,-y,-z
x,-y,1/2+z
1/2+x,1/2+y,z
1/2-x,1/2+y,1/2-z
1/2-x,1/2-y,-z
1/2+x,1/2-y,1/2+z
loop_
_atom_site_type_symbol
_atom_site_label
_atom_site_fract_x
_atom_site_fract_y
_atom_site_fract_z
Si Si1 0.936584 0.208500 0.154637
Si Si2 0.156344 0.981204 0.079625
Si Si3 0.998385 0.528516 0.635351
Si Si4 0.000000 0.210250 0.750000
O O1 0.701162 0.219082 0.207439
O O2 0.000000 0.203199 0.250000
O O3 0.028540 0.093533 0.083574
O O4 0.017456 0.334445 0.097728
O O5 0.291570 0.009588 0.140525
O O6 0.322966 0.958122 0.957639
O O7 0.024904 0.873224 0.149240
O O8 0.000000 0.526228 0.750000
#
# Coordination Sequence:
#
# PCOD9267893 Si02
#       4
#     8   8   8   4
#     4  10  20  40  65 100 135 174 226 274 338 407
#     4  10  19  40  69  97 142 174 221 290 330 402
#     4   9  20  38  70 102 133 178 230 275 342 404
#     4  10  22  40  66 104 134 176 224 276 338 410
#
# _framework density 26.245398999999999
#
# number of rings (size 3 to 8) (size 9 to 14) (size 15 to 20)
#    0.000    2.286    1.429    0.857    0.000    0.000 
#    5.143   12.857    0.000   30.857    0.000    0.000 
#    0.000    0.000    0.000    0.000    0.000    0.000 
#
# Total GULP energy -78513.883466 kJ/mol
# GULP energy per Si atom -5608.134533 kJ/mol
# Density = 2.618566 g / cm^3
# Si number density = 26.245399 Si / 1000 Ang^3
#
#
#
# Elastic Constant Matrix: (Units=GPa)
#
#
# Indices 1 2 3 4 5 6 
#
# 1 153.6235 45.7605 53.1708 0.0000 -17.7319 0.0000
# 2 45.7605 125.4670 26.2860 0.0000 -12.8324 0.0000
# 3 53.1708 26.2860 92.6353 0.0000 -2.8158 0.0000
# 4 0.0000 0.0000 0.0000 22.4899 0.0000 -2.7142
# 5 -17.7319 -12.8324 -2.8158 0.0000 42.8076 0.0000
# 6 0.0000 0.0000 0.0000 -2.7142 0.0000 46.0523
#
#
#
# Elastic Compliance Matrix: (Units=1/GPa)
#
#
# Indices 1 2 3 4 5 6 
#
# 1 0.009004 -0.002053 -0.004500 0.000000 0.002818 0.000000
# 2 -0.002053 0.009193 -0.001375 0.000000 0.001815 0.000000
# 3 -0.004500 -0.001375 0.013726 0.000000 -0.001373 0.000000
# 4 0.000000 0.000000 0.000000 0.044783 0.000000 0.002639
# 5 0.002818 0.001815 -0.001373 0.000000 0.024981 0.000000
# 6 0.000000 0.000000 0.000000 0.002639 0.000000 0.021870
#
#
# Mechanical properties :
#
#
# Convention : Reuss Voigt Hill
#
# Bulk Modulus (GPa) = 62.23834 69.12891 65.68362
# Shear Modulus (GPa) = 34.53809 38.70386 36.62098
#
# Velocity S-wave (km/s) = 3.63156 3.84434 3.73946
# Velocity P-wave (km/s) = 6.43038 6.78983 6.61255
#
# Compressibility (1/GPa) = 0.01606727
#
# Stress axis : x y z
#
# Youngs Moduli (GPa) = 111.06675 108.78266 72.85337
#
# Poissons Ratio (x) = 0.22332 0.32782
# Poissons Ratio (y) = 0.22800 0.10017
# Poissons Ratio (z) = 0.49977 0.14958
#
# Static dielectric constant tensor:
#      x y z
#    x 2.028260 0.000000 0.006920 
#    y 0.000000 2.125390 0.000000 
#    z 0.006920 0.000000 2.006330 
# 
# From -- ./inp_files/131538.got.cif
#   From: 2010.05.17/outbox.cif.g08.bks.cpg/sg15_66_cif.got.tgz:131538.got - 2010.06.03 18:47:42.
