data_PCOD9267913
_publ_section_title
;
Structure prediction by ZEFSAII (Michael W. Deem and Ramdas Pophale) SiO2 
 PCOD9267913
Probable space group: C 2/C
;
_chemical_formula_sum "Si O2"
_cell_formula_units_Z 36
_cell_length_a 12.608220
_cell_length_b 8.218865
_cell_length_c 15.463860
_cell_angle_alpha 90.000000
_cell_angle_beta 53.349797
_cell_angle_gamma 90.000000
_cell_volume 1285.634401
_symmetry_space_group_name_H-M "C 2/C"
_symmetry_group_IT_number 15
_symmetry_cell_setting 'monoclinic'
loop_
_space_group_symop_operation_xyz
x,y,z
-x,y,1/2-z
-x,-y,-z
x,-y,1/2+z
1/2+x,1/2+y,z
1/2-x,1/2+y,1/2-z
1/2-x,1/2-y,-z
1/2+x,1/2-y,1/2+z
loop_
_atom_site_type_symbol
_atom_site_label
_atom_site_fract_x
_atom_site_fract_y
_atom_site_fract_z
Si Si1 0.250000 0.750000 0.000000
Si Si2 0.888208 0.657832 0.730912
Si Si3 0.658491 0.511854 0.186314
Si Si4 0.426179 0.204293 0.194751
Si Si5 0.581172 0.337007 0.960974
O O1 0.221956 0.921520 0.073904
O O2 0.455872 0.766094 0.933657
O O3 0.869081 0.472836 0.707796
O O4 0.938200 0.747495 0.618909
O O5 0.000000 0.635925 0.750000
O O6 0.795983 0.802095 0.817902
O O7 0.500000 0.533624 0.250000
O O8 0.658082 0.371709 0.262177
O O9 0.500000 0.207508 0.250000
O O10 0.231880 0.143345 0.416638
O O11 0.500000 0.500000 0.000000
#
# Coordination Sequence:
#
# PCOD9267913 Si02
#       5
#     4   8   8   8   8
#     4  12  24  42  78 110 144 214 274 324 422 492
#     4  10  21  39  70 100 142 197 251 314 400 470
#     4  10  19  43  68  96 149 193 251 327 393 475
#     4  10  19  40  71  96 144 198 244 319 397 462
#     4  12  22  42  75 106 148 208 262 336 410 489
#
# _framework density 28.001740999999999
#
# number of rings (size 3 to 8) (size 9 to 14) (size 15 to 20)
#    0.000    1.333    6.667    2.000    0.000    0.000 
#    4.000    1.111    4.889    0.000    0.000    0.000 
#    0.000    0.000    0.000    0.000    0.000    0.000 
#
# Total GULP energy -100218.436174 kJ/mol
# GULP energy per Si atom -5567.690899 kJ/mol
# Density = 2.793801 g / cm^3
# Si number density = 28.001741 Si / 1000 Ang^3
#
#
#
# Elastic Constant Matrix: (Units=GPa)
#
#
# Indices 1 2 3 4 5 6 
#
# 1 79.5357 19.3777 22.5410 0.0000 9.1937 0.0000
# 2 19.3777 183.6583 28.7277 0.0000 -19.2482 0.0000
# 3 22.5410 28.7277 145.5453 0.0000 24.1604 0.0000
# 4 0.0000 0.0000 0.0000 16.1973 0.0000 18.1138
# 5 9.1937 -19.2482 24.1604 0.0000 50.5762 0.0000
# 6 0.0000 0.0000 0.0000 18.1138 0.0000 50.0122
#
#
#
# Elastic Compliance Matrix: (Units=1/GPa)
#
#
# Indices 1 2 3 4 5 6 
#
# 1 0.013604 -0.001457 -0.001430 0.000000 -0.002344 0.000000
# 2 -0.001457 0.006195 -0.001556 0.000000 0.003366 0.000000
# 3 -0.001430 -0.001556 0.008096 0.000000 -0.004200 0.000000
# 4 0.000000 0.000000 0.000000 0.103770 0.000000 -0.037584
# 5 -0.002344 0.003366 -0.004200 0.000000 0.023485 0.000000
# 6 0.000000 0.000000 0.000000 -0.037584 0.000000 0.033608
#
#
# Mechanical properties :
#
#
# Convention : Reuss Voigt Hill
#
# Bulk Modulus (GPa) = 52.60639 61.11468 56.86054
# Shear Modulus (GPa) = 24.51200 45.89668 35.20434
#
# Velocity S-wave (km/s) = 2.96188 4.05293 3.54958
# Velocity P-wave (km/s) = 5.52491 6.61622 6.09504
#
# Compressibility (1/GPa) = 0.01900910
#
# Stress axis : x y z
#
# Youngs Moduli (GPa) = 73.50593 161.42726 123.51139
#
# Poissons Ratio (x) = 0.23526 0.17663
# Poissons Ratio (y) = 0.10713 0.19215
# Poissons Ratio (z) = 0.10512 0.25113
#
# Static dielectric constant tensor:
#      x y z
#    x 1.688560 0.000000 0.242230 
#    y 0.000000 2.258540 0.000000 
#    z 0.242230 0.000000 2.038570 
# 
# From -- ./inp_files/150412.got.cif
#   From: 2010.05.17/outbox.cif.g08.bks.cpg/sg15_76_cif.got.tgz:150412.got - 2010.06.03 18:47:42.
