data_PCOD9267041
_publ_section_title
;
Structure prediction by ZEFSAII (Michael W. Deem and Ramdas Pophale) SiO2 
 PCOD9267041
Probable space group: C 2/C
;
_chemical_formula_sum "Si O2"
_cell_formula_units_Z 32
_cell_length_a 12.005742
_cell_length_b 6.911440
_cell_length_c 15.083388
_cell_angle_alpha 90.000000
_cell_angle_beta 97.473321
_cell_angle_gamma 90.000000
_cell_volume 1240.942312
_symmetry_space_group_name_H-M "C 2/C"
_symmetry_group_IT_number 15
_symmetry_cell_setting 'monoclinic'
loop_
_space_group_symop_operation_xyz
x,y,z
-x,y,1/2-z
-x,-y,-z
x,-y,1/2+z
1/2+x,1/2+y,z
1/2-x,1/2+y,1/2-z
1/2-x,1/2-y,-z
1/2+x,1/2-y,1/2+z
loop_
_atom_site_type_symbol
_atom_site_label
_atom_site_fract_x
_atom_site_fract_y
_atom_site_fract_z
Si Si1 0.237934 0.966952 0.423793
Si Si2 0.504731 0.667056 0.647350
Si Si3 0.754292 0.078463 0.882583
Si Si4 0.098709 0.423840 0.204278
O O1 0.280127 0.982605 0.528607
O O2 0.231272 0.189787 0.388909
O O3 0.322233 0.852039 0.367261
O O4 0.112680 0.886659 0.406920
O O5 0.500000 0.613519 0.750000
O O6 0.611909 0.566476 0.615065
O O7 0.533882 0.895322 0.653222
O O8 0.687647 0.011413 0.788885
O O9 0.000000 0.317768 0.250000
#
# Coordination Sequence:
#
# PCOD9267041 Si02
#       4
#     8   8   8   8
#     4  10  21  39  67  93 127 168 210 266 316 370
#     4  10  19  38  64  90 128 168 207 261 316 370
#     4  10  21  39  63  98 127 164 217 258 314 381
#     4  10  22  39  60  92 131 163 212 261 312 381
#
# _framework density 25.786854000000002
#
# number of rings (size 3 to 8) (size 9 to 14) (size 15 to 20)
#    0.000    2.000    2.500    0.750    0.000    2.000 
#    0.000    5.000    0.000    0.000    0.000    0.000 
#    0.000    0.000    0.000    0.000    0.000    0.000 
#
# Total GULP energy -89593.229152 kJ/mol
# GULP energy per Si atom -5599.576822 kJ/mol
# Density = 2.572816 g / cm^3
# Si number density = 25.786854 Si / 1000 Ang^3
#
#
#
# Elastic Constant Matrix: (Units=GPa)
#
#
# Indices 1 2 3 4 5 6 
#
# 1 201.2275 39.8087 40.0976 0.0000 -4.0984 0.0000
# 2 39.8087 80.6502 7.9533 0.0000 24.1992 0.0000
# 3 40.0976 7.9533 110.5584 0.0000 -8.6706 0.0000
# 4 0.0000 0.0000 0.0000 13.5843 0.0000 -40.5737
# 5 -4.0984 24.1992 -8.6706 0.0000 40.3465 0.0000
# 6 0.0000 0.0000 0.0000 -40.5737 0.0000 -364.4191
#
#
#
# Elastic Compliance Matrix: (Units=1/GPa)
#
#
# Indices 1 2 3 4 5 6 
#
# 1 0.006066 -0.003526 -0.001762 0.000000 0.002353 0.000000
# 2 -0.003526 0.017543 -0.000851 0.000000 -0.011063 0.000000
# 3 -0.001762 -0.000851 0.009939 0.000000 0.002467 0.000000
# 4 0.000000 0.000000 0.000000 0.055243 0.000000 -0.006151
# 5 0.002353 -0.011063 0.002467 0.000000 0.032190 0.000000
# 6 0.000000 0.000000 0.000000 -0.006151 0.000000 -0.002059
#
#
# Mechanical properties :
#
#
# Convention : Reuss Voigt Hill
#
# Bulk Modulus (GPa) = 47.01435 63.12838 55.07137
# Shear Modulus (GPa) = 36.15587 -41.79256 -2.81834
#
# Velocity S-wave (km/s) = 3.74853 -4.03015 -1.04657
# Velocity P-wave (km/s) = 6.08332 1.69642 4.46568
#
# Compressibility (1/GPa) = 0.02127010
#
# Stress axis : x y z
#
# Youngs Moduli (GPa) = 164.85012 57.00204 100.61692
#
# Poissons Ratio (x) = 0.20101 0.17728
# Poissons Ratio (y) = 0.58132 0.08560
# Poissons Ratio (z) = 0.29045 0.04849
#
# Static dielectric constant tensor:
#      x y z
#    x 2.029090 0.000000 -0.057870 
#    y 0.000000 2.146520 0.000000 
#    z -0.057870 0.000000 1.934830 
# 
# From -- ./inp_files/140516.got.cif
#   From: 2010.05.17/outbox.cif.g08.bks.cpg/sg15_71_cif.got.tgz:140516.got - 2010.06.03 18:47:42.
