data_PCOD9267046
_publ_section_title
;
Structure prediction by ZEFSAII (Michael W. Deem and Ramdas Pophale) SiO2 
 PCOD9267046
Probable space group: C 2/C
;
_chemical_formula_sum "Si O2"
_cell_formula_units_Z 48
_cell_length_a 8.887014
_cell_length_b 29.973672
_cell_length_c 15.479774
_cell_angle_alpha 90.000000
_cell_angle_beta 143.494404
_cell_angle_gamma 90.000000
_cell_volume 2453.044041
_symmetry_space_group_name_H-M "C 2/C"
_symmetry_group_IT_number 15
_symmetry_cell_setting 'monoclinic'
loop_
_space_group_symop_operation_xyz
x,y,z
-x,y,1/2-z
-x,-y,-z
x,-y,1/2+z
1/2+x,1/2+y,z
1/2-x,1/2+y,1/2-z
1/2-x,1/2-y,-z
1/2+x,1/2-y,1/2+z
loop_
_atom_site_type_symbol
_atom_site_label
_atom_site_fract_x
_atom_site_fract_y
_atom_site_fract_z
Si Si1 0.720369 0.700575 0.582635
Si Si2 0.091335 0.617364 0.148958
Si Si3 0.592945 0.618984 0.026760
Si Si4 0.776109 0.035651 0.913027
Si Si5 0.731245 0.966488 0.595017
Si Si6 0.785552 0.698019 0.414903
O O1 0.533957 0.666940 0.544029
O O2 0.761218 0.684126 0.503256
O O3 0.613596 0.751121 0.536332
O O4 0.000000 0.700684 0.750000
O O5 0.279478 0.619253 0.318493
O O6 0.180476 0.577456 0.128386
O O7 0.087098 0.662478 0.089892
O O8 0.816280 0.609205 0.062748
O O9 0.377147 0.581683 0.919799
O O10 0.500000 0.021790 0.750000
O O11 0.751463 0.043548 0.003468
O O12 0.000000 0.000000 0.000000
O O13 0.000000 0.986058 0.750000
O O14 0.500000 0.000000 0.500000
O O15 0.500000 0.700923 0.250000
#
# Coordination Sequence:
#
# PCOD9267046 Si02
#       6
#     8   8   8   8   8   8
#     4  10  21  37  63  93 125 161 208 265 317 370
#     4  11  23  40  66  92 126 170 213 258 312 386
#     4  11  23  41  63  94 128 167 212 259 319 373
#     4  12  26  43  67  96 132 166 209 267 321 377
#     4  12  24  43  67  95 125 166 213 260 314 378
#     4  10  19  38  64  91 122 166 214 256 312 380
#
# _framework density 19.567525
#
# number of rings (size 3 to 8) (size 9 to 14) (size 15 to 20)
#    0.000    1.000    3.333    4.000    2.333    0.667 
#    0.000    2.500    0.000    0.000    0.000    0.000 
#    0.000    0.000    0.000    0.000    0.000    0.000 
#
# Total GULP energy -134084.574104 kJ/mol
# GULP energy per Si atom -5586.857254 kJ/mol
# Density = 1.952299 g / cm^3
# Si number density = 19.567525 Si / 1000 Ang^3
#
#
#
# Elastic Constant Matrix: (Units=GPa)
#
#
# Indices 1 2 3 4 5 6 
#
# 1 113.9848 44.8464 39.5683 0.0000 4.8186 0.0000
# 2 44.8464 76.2807 5.3854 0.0000 16.0439 0.0000
# 3 39.5683 5.3854 94.3803 0.0000 9.4129 0.0000
# 4 0.0000 0.0000 0.0000 30.5551 0.0000 9.2077
# 5 4.8186 16.0439 9.4129 0.0000 38.5384 0.0000
# 6 0.0000 0.0000 0.0000 9.2077 0.0000 17.6500
#
#
#
# Elastic Compliance Matrix: (Units=1/GPa)
#
#
# Indices 1 2 3 4 5 6 
#
# 1 0.013938 -0.008459 -0.005676 0.000000 0.003165 0.000000
# 2 -0.008459 0.019507 0.003216 0.000000 -0.007849 0.000000
# 3 -0.005676 0.003216 0.013175 0.000000 -0.003847 0.000000
# 4 0.000000 0.000000 0.000000 0.038833 0.000000 -0.020258
# 5 0.003165 -0.007849 -0.003847 0.000000 0.029759 0.000000
# 6 0.000000 0.000000 0.000000 -0.020258 0.000000 0.067226
#
#
# Mechanical properties :
#
#
# Convention : Reuss Voigt Hill
#
# Bulk Modulus (GPa) = 40.35365 51.58288 45.96827
# Shear Modulus (GPa) = 23.52528 30.33842 26.93185
#
# Velocity S-wave (km/s) = 3.47113 3.94184 3.71395
# Velocity P-wave (km/s) = 6.06073 6.86558 6.47567
#
# Compressibility (1/GPa) = 0.02478091
#
# Stress axis : x y z
#
# Youngs Moduli (GPa) = 71.74598 51.26478 75.89891
#
# Poissons Ratio (x) = 0.43367 0.43084
# Poissons Ratio (y) = 0.60693 -0.24411
# Poissons Ratio (z) = 0.40726 -0.16488
#
# Static dielectric constant tensor:
#      x y z
#    x 1.667970 0.000000 0.006580 
#    y 0.000000 1.710070 0.000000 
#    z 0.006580 0.000000 1.646750 
# 
# From -- ./inp_files/139025.got.cif
#   From: 2010.05.17/outbox.cif.g08.bks.cpg/sg15_70_cif.got.tgz:139025.got - 2010.06.03 18:47:42.
