data_PCOD9267446
_publ_section_title
;
Structure prediction by ZEFSAII (Michael W. Deem and Ramdas Pophale) SiO2 
 PCOD9267446
Probable space group: C 2/C
;
_chemical_formula_sum "Si O2"
_cell_formula_units_Z 56
_cell_length_a 13.845067
_cell_length_b 10.914958
_cell_length_c 14.776731
_cell_angle_alpha 90.000000
_cell_angle_beta 110.473391
_cell_angle_gamma 90.000000
_cell_volume 2091.984586
_symmetry_space_group_name_H-M "C 2/C"
_symmetry_group_IT_number 15
_symmetry_cell_setting 'monoclinic'
loop_
_space_group_symop_operation_xyz
x,y,z
-x,y,1/2-z
-x,-y,-z
x,-y,1/2+z
1/2+x,1/2+y,z
1/2-x,1/2+y,1/2-z
1/2-x,1/2-y,-z
1/2+x,1/2-y,1/2+z
loop_
_atom_site_type_symbol
_atom_site_label
_atom_site_fract_x
_atom_site_fract_y
_atom_site_fract_z
Si Si1 0.762097 0.907177 0.776047
Si Si2 0.718015 0.396062 0.067995
Si Si3 0.621424 0.133665 0.508383
Si Si4 0.831136 0.955582 0.119759
Si Si5 0.998971 0.129718 0.946826
Si Si6 0.946593 0.530667 0.353696
Si Si7 0.395616 0.785567 0.232187
O O1 0.641950 0.886659 0.717689
O O2 0.822304 0.784271 0.776942
O O3 0.774425 0.975943 0.874408
O O4 0.809065 0.999874 0.714075
O O5 0.619798 0.330916 0.081741
O O6 0.824021 0.325771 0.124585
O O7 0.693627 0.430247 0.956708
O O8 0.743551 0.140977 0.559679
O O9 0.564408 0.260273 0.511972
O O10 0.558203 0.091358 0.397919
O O11 0.595299 0.016500 0.563400
O O12 0.942192 0.902464 0.127468
O O13 0.000000 0.000000 0.000000
O O14 0.937610 0.405064 0.296333
O O15 0.500000 0.709036 0.250000
#
# Coordination Sequence:
#
# PCOD9267446 Si02
#       7
#     8   8   8   8   8   8   8
#     4  10  23  40  62  92 131 160 216 265 322 387
#     4  10  23  42  60  91 132 162 215 268 320 386
#     4  10  19  39  63  91 129 163 216 267 313 394
#     4  10  22  39  64  93 123 171 217 264 324 382
#     4  10  22  36  62  93 128 169 214 262 328 376
#     4   9  21  38  62  91 125 169 207 262 335 375
#     4  11  23  37  64  92 124 171 215 263 323 386
#
# _framework density 26.768839
#
# number of rings (size 3 to 8) (size 9 to 14) (size 15 to 20)
#    0.000    2.000    0.000    2.143    6.000    1.714 
#    2.571    0.000    9.429    0.000    0.000    0.000 
#    0.000    0.000    0.000    0.000    0.000    0.000 
#
# Total GULP energy -156569.301446 kJ/mol
# GULP energy per Si atom -5591.760766 kJ/mol
# Density = 2.670791 g / cm^3
# Si number density = 26.768839 Si / 1000 Ang^3
#
#
#
# Elastic Constant Matrix: (Units=GPa)
#
#
# Indices 1 2 3 4 5 6 
#
# 1 130.1296 5.5948 19.1536 0.0000 14.9812 0.0000
# 2 5.5948 102.2095 10.8809 0.0000 7.1510 0.0000
# 3 19.1536 10.8809 54.8383 0.0000 2.9264 0.0000
# 4 0.0000 0.0000 0.0000 15.1284 0.0000 -17.0278
# 5 14.9812 7.1510 2.9264 0.0000 33.5773 0.0000
# 6 0.0000 0.0000 0.0000 -17.0278 0.0000 14.5665
#
#
#
# Elastic Compliance Matrix: (Units=1/GPa)
#
#
# Indices 1 2 3 4 5 6 
#
# 1 0.008503 0.000082 -0.002796 0.000000 -0.003568 0.000000
# 2 0.000082 0.010126 -0.001930 0.000000 -0.002025 0.000000
# 3 -0.002796 -0.001930 0.019597 0.000000 -0.000050 0.000000
# 4 0.000000 0.000000 0.000000 -0.209354 0.000000 -0.244728
# 5 -0.003568 -0.002025 -0.000050 0.000000 0.031809 0.000000
# 6 0.000000 0.000000 0.000000 -0.244728 0.000000 -0.217429
#
#
# Mechanical properties :
#
#
# Convention : Reuss Voigt Hill
#
# Bulk Modulus (GPa) = 34.55465 39.82622 37.19044
# Shear Modulus (GPa) = -14.80114 29.42431 7.31159
#
# Velocity S-wave (km/s) = -2.35398 3.31902 1.65448
# Velocity P-wave (km/s) = 2.35547 5.44040 4.19203
#
# Compressibility (1/GPa) = 0.02893966
#
# Stress axis : x y z
#
# Youngs Moduli (GPa) = 117.60029 98.75123 51.02693
#
# Poissons Ratio (x) = -0.00808 0.14266
# Poissons Ratio (y) = -0.00962 0.09847
# Poissons Ratio (z) = 0.32879 0.19057
#
# Static dielectric constant tensor:
#      x y z
#    x 2.239350 0.000000 -0.016750 
#    y 0.000000 2.094620 0.000000 
#    z -0.016750 0.000000 2.173130 
# 
# From -- ./inp_files/204118.got.cif
#   From: 2010.05.17/outbox.cif.g08.bks.cpg/sg15_103_cif.got.tgz:204118.got - 2010.06.03 18:47:42.
