data_PCOD9267650
_publ_section_title
;
Structure prediction by ZEFSAII (Michael W. Deem and Ramdas Pophale) SiO2 
 PCOD9267650
Probable space group: C 2/C
;
_chemical_formula_sum "Si O2"
_cell_formula_units_Z 44
_cell_length_a 23.524886
_cell_length_b 7.943355
_cell_length_c 13.670138
_cell_angle_alpha 90.000000
_cell_angle_beta 45.401646
_cell_angle_gamma 90.000000
_cell_volume 1818.915744
_symmetry_space_group_name_H-M "C 2/C"
_symmetry_group_IT_number 15
_symmetry_cell_setting 'monoclinic'
loop_
_space_group_symop_operation_xyz
x,y,z
-x,y,1/2-z
-x,-y,-z
x,-y,1/2+z
1/2+x,1/2+y,z
1/2-x,1/2+y,1/2-z
1/2-x,1/2-y,-z
1/2+x,1/2-y,1/2+z
loop_
_atom_site_type_symbol
_atom_site_label
_atom_site_fract_x
_atom_site_fract_y
_atom_site_fract_z
Si Si1 0.398455 0.473553 0.509704
Si Si2 0.626142 0.602789 0.172862
Si Si3 0.220214 0.235816 0.229999
Si Si4 0.047643 0.804819 0.386522
Si Si5 0.880264 0.444034 0.571090
Si Si6 0.000000 0.633493 0.750000
O O1 0.367828 0.531513 0.443011
O O2 0.322767 0.414138 0.659898
O O3 0.463089 0.321068 0.434678
O O4 0.449622 0.608533 0.509458
O O5 0.695130 0.697152 0.148831
O O6 0.603793 0.430418 0.257566
O O7 0.557797 0.744046 0.242651
O O8 0.173860 0.395973 0.331919
O O9 0.313736 0.202216 0.130353
O O10 0.075095 0.619143 0.383410
O O11 0.939592 0.453832 0.403906
#
# Coordination Sequence:
#
# PCOD9267650 Si02
#       6
#     8   8   8   8   8   4
#     4  10  19  41  72 106 139 195 245 301 368 447
#     4  11  21  43  77 110 144 198 250 306 372 450
#     4  11  27  46  74 104 158 195 251 313 377 439
#     4  10  19  39  72 104 143 191 245 305 365 446
#     4  12  26  50  71 111 154 201 248 313 377 445
#     4  12  24  44  80 106 148 198 256 300 372 454
#
# _framework density 24.190234
#
# number of rings (size 3 to 8) (size 9 to 14) (size 15 to 20)
#    0.000    1.091    3.636    4.364    0.000    3.636 
#    6.545    1.818    0.000    0.000    0.000    0.000 
#    0.000    0.000    0.000    0.000    0.000    0.000 
#
# Total GULP energy -122616.329470 kJ/mol
# GULP energy per Si atom -5573.469521 kJ/mol
# Density = 2.413518 g / cm^3
# Si number density = 24.190234 Si / 1000 Ang^3
#
#
#
# Elastic Constant Matrix: (Units=GPa)
#
#
# Indices 1 2 3 4 5 6 
#
# 1 114.1405 48.2986 48.8489 0.0000 13.8459 0.0000
# 2 48.2986 92.9853 66.5435 0.0000 5.2756 0.0000
# 3 48.8489 66.5435 149.9842 0.0000 18.4660 0.0000
# 4 0.0000 0.0000 0.0000 39.1438 0.0000 1.0655
# 5 13.8459 5.2756 18.4660 0.0000 44.7487 0.0000
# 6 0.0000 0.0000 0.0000 1.0655 0.0000 38.7944
#
#
#
# Elastic Compliance Matrix: (Units=1/GPa)
#
#
# Indices 1 2 3 4 5 6 
#
# 1 0.011748 -0.005044 -0.001279 0.000000 -0.002513 0.000000
# 2 -0.005044 0.017973 -0.006598 0.000000 0.002164 0.000000
# 3 -0.001279 -0.006598 0.010395 0.000000 -0.003116 0.000000
# 4 0.000000 0.000000 0.000000 0.025566 0.000000 -0.000702
# 5 -0.002513 0.002164 -0.003116 0.000000 0.024155 0.000000
# 6 0.000000 0.000000 0.000000 -0.000702 0.000000 0.025796
#
#
# Mechanical properties :
#
#
# Convention : Reuss Voigt Hill
#
# Bulk Modulus (GPa) = 70.05776 76.05465 73.05621
# Shear Modulus (GPa) = 34.19203 37.43197 35.81200
#
# Velocity S-wave (km/s) = 3.76369 3.93797 3.85181
# Velocity P-wave (km/s) = 6.92179 7.22394 7.07448
#
# Compressibility (1/GPa) = 0.01427394
#
# Stress axis : x y z
#
# Youngs Moduli (GPa) = 85.12304 55.63799 96.20235
#
# Poissons Ratio (x) = 0.28065 0.12302
# Poissons Ratio (y) = 0.42939 0.63473
# Poissons Ratio (z) = 0.10886 0.36709
#
# Static dielectric constant tensor:
#      x y z
#    x 2.035980 0.000000 0.006370 
#    y 0.000000 2.168050 0.000000 
#    z 0.006370 0.000000 1.996610 
# 
# From -- ./inp_files/176452.got.cif
#   From: 2010.05.17/outbox.cif.g08.bks.cpg/sg15_89_cif.got.tgz:176452.got - 2010.06.03 18:47:42.
