data_PCOD9267354
_publ_section_title
;
Structure prediction by ZEFSAII (Michael W. Deem and Ramdas Pophale) SiO2 
 PCOD9267354
Probable space group: C 2/C
;
_chemical_formula_sum "Si O2"
_cell_formula_units_Z 56
_cell_length_a 11.851195
_cell_length_b 14.713921
_cell_length_c 19.590603
_cell_angle_alpha 90.000000
_cell_angle_beta 118.570105
_cell_angle_gamma 90.000000
_cell_volume 3000.184288
_symmetry_space_group_name_H-M "C 2/C"
_symmetry_group_IT_number 15
_symmetry_cell_setting 'monoclinic'
loop_
_space_group_symop_operation_xyz
x,y,z
-x,y,1/2-z
-x,-y,-z
x,-y,1/2+z
1/2+x,1/2+y,z
1/2-x,1/2+y,1/2-z
1/2-x,1/2-y,-z
1/2+x,1/2-y,1/2+z
loop_
_atom_site_type_symbol
_atom_site_label
_atom_site_fract_x
_atom_site_fract_y
_atom_site_fract_z
Si Si1 0.500000 0.865694 0.250000
Si Si2 0.126760 0.617114 0.511911
Si Si3 0.542754 0.940933 0.409757
Si Si4 0.310758 0.701324 0.172745
Si Si5 0.450770 0.724195 0.930750
Si Si6 0.000000 0.051402 0.250000
Si Si7 0.582468 0.444676 0.406586
Si Si8 0.325874 0.631697 0.021879
O O1 0.500926 0.923749 0.319873
O O2 0.379914 0.795951 0.210557
O O3 0.072081 0.543988 0.441427
O O4 0.278112 0.601857 0.559804
O O5 0.061822 0.594317 0.566125
O O6 0.077314 0.715824 0.476816
O O7 0.677126 0.887956 0.461577
O O8 0.159439 0.715990 0.137610
O O9 0.381851 0.619886 0.233182
O O10 0.334937 0.672417 0.100684
O O11 0.483748 0.630201 0.903834
O O12 0.390472 0.697325 0.986213
O O13 0.038618 0.987745 0.323051
O O14 0.604024 0.533777 0.459618
#
# Coordination Sequence:
#
# PCOD9267354 Si02
#       8
#     4   8   8   8   8   4   8   8
#     4  11  20  34  57  96 118 142 199 276 302 327
#     4  10  22  38  62  86 122 167 201 236 301 378
#     4  10  20  37  60  89 117 156 204 251 303 349
#     4  10  20  35  62  87 115 151 202 255 299 343
#     4  12  20  36  62  93 112 150 208 255 285 351
#     4   9  22  42  55  80 126 162 197 238 304 365
#     4  10  23  39  59  86 125 164 192 238 305 368
#     4  10  19  39  61  86 116 152 205 252 294 355
#
# _framework density 18.665519
#
# number of rings (size 3 to 8) (size 9 to 14) (size 15 to 20)
#    0.000    1.714    2.857    2.143    2.000    1.143 
#    0.000    0.714    0.000    1.714    0.000    0.000 
#    0.000    0.000    0.000    0.000    0.000    0.000 
#
# Total GULP energy -156272.620903 kJ/mol
# GULP energy per Si atom -5581.165032 kJ/mol
# Density = 1.862304 g / cm^3
# Si number density = 18.665519 Si / 1000 Ang^3
#
#
#
# Elastic Constant Matrix: (Units=GPa)
#
#
# Indices 1 2 3 4 5 6 
#
# 1 47.4891 39.0344 32.8575 0.0000 10.4412 0.0000
# 2 39.0344 99.4395 35.0060 0.0000 -0.4305 0.0000
# 3 32.8575 35.0060 94.7302 0.0000 2.4011 0.0000
# 4 0.0000 0.0000 0.0000 16.1757 0.0000 -2.4149
# 5 10.4412 -0.4305 2.4011 0.0000 23.7505 0.0000
# 6 0.0000 0.0000 0.0000 -2.4149 0.0000 32.4074
#
#
#
# Elastic Compliance Matrix: (Units=1/GPa)
#
#
# Indices 1 2 3 4 5 6 
#
# 1 0.042568 -0.013508 -0.009316 0.000000 -0.018017 0.000000
# 2 -0.013508 0.015857 -0.001335 0.000000 0.006361 0.000000
# 3 -0.009316 -0.001335 0.014214 0.000000 0.002635 0.000000
# 4 0.000000 0.000000 0.000000 0.062516 0.000000 0.004659
# 5 -0.018017 0.006361 0.002635 0.000000 0.049874 0.000000
# 6 0.000000 0.000000 0.000000 0.004659 0.000000 0.031204
#
#
# Mechanical properties :
#
#
# Convention : Reuss Voigt Hill
#
# Bulk Modulus (GPa) = 41.12021 50.60609 45.86315
# Shear Modulus (GPa) = 18.33786 23.45078 20.89432
#
# Velocity S-wave (km/s) = 3.13780 3.54837 3.34938
# Velocity P-wave (km/s) = 5.93343 6.63015 6.29144
#
# Compressibility (1/GPa) = 0.02431894
#
# Stress axis : x y z
#
# Youngs Moduli (GPa) = 23.49185 63.06543 70.35089
#
# Poissons Ratio (x) = 0.85189 0.65542
# Poissons Ratio (y) = 0.31733 0.09395
# Poissons Ratio (z) = 0.21886 0.08422
#
# Static dielectric constant tensor:
#      x y z
#    x 1.635280 0.000000 0.026460 
#    y 0.000000 1.658810 0.000000 
#    z 0.026460 0.000000 1.651700 
# 
# From -- ./inp_files/197979.got.cif
#   From: 2010.05.17/outbox.cif.g08.bks.cpg/sg15_99_cif.got.tgz:197979.got - 2010.06.03 18:47:42.
