data_PCOD9267443
_publ_section_title
;
Structure prediction by ZEFSAII (Michael W. Deem and Ramdas Pophale) SiO2 
 PCOD9267443
Probable space group: C 2/C
;
_chemical_formula_sum "Si O2"
_cell_formula_units_Z 48
_cell_length_a 13.765011
_cell_length_b 22.080500
_cell_length_c 11.852963
_cell_angle_alpha 90.000000
_cell_angle_beta 139.690480
_cell_angle_gamma 90.000000
_cell_volume 2330.561769
_symmetry_space_group_name_H-M "C 2/C"
_symmetry_group_IT_number 15
_symmetry_cell_setting 'monoclinic'
loop_
_space_group_symop_operation_xyz
x,y,z
-x,y,1/2-z
-x,-y,-z
x,-y,1/2+z
1/2+x,1/2+y,z
1/2-x,1/2+y,1/2-z
1/2-x,1/2-y,-z
1/2+x,1/2-y,1/2+z
loop_
_atom_site_type_symbol
_atom_site_label
_atom_site_fract_x
_atom_site_fract_y
_atom_site_fract_z
Si Si1 0.216774 0.101363 0.539651
Si Si2 0.975328 0.254545 0.457849
Si Si3 0.851343 0.975782 0.931872
Si Si4 0.000000 0.105172 0.750000
Si Si5 0.616220 0.626529 0.194434
Si Si6 0.000000 0.684146 0.750000
Si Si7 0.790144 0.210312 0.648557
O O1 0.164178 0.110295 0.363436
O O2 0.362665 0.143266 0.672550
O O3 0.066221 0.120140 0.473897
O O4 0.243331 0.032783 0.607027
O O5 0.872635 0.195260 0.338098
O O6 0.860867 0.300981 0.414939
O O7 0.042481 0.275705 0.397249
O O8 0.094589 0.240769 0.660970
O O9 0.793130 0.922405 0.799241
O O10 0.914211 0.938862 0.091481
O O11 0.000000 0.000000 0.000000
O O12 0.874788 0.149496 0.689205
O O13 0.750000 0.250000 0.500000
#
# Coordination Sequence:
#
# PCOD9267443 Si02
#       7
#     8   8   8   4   8   4   8
#     4  10  22  39  62  93 128 167 225 272 327 396
#     4  12  24  40  67  98 141 175 221 274 340 412
#     4  10  20  37  64  90 116 165 226 279 313 378
#     4  12  22  40  67  95 122 170 228 272 332 392
#     4  10  19  39  63  91 122 173 225 268 320 395
#     4  12  26  40  63 101 144 178 208 282 362 394
#     4  12  23  42  66  99 135 173 219 274 339 410
#
# _framework density 20.595893
#
# number of rings (size 3 to 8) (size 9 to 14) (size 15 to 20)
#    0.000    1.000    3.333    5.000    2.333    2.000 
#    0.000    0.833    7.333    0.000    0.000    0.000 
#    0.000    0.000    0.000    0.000    0.000    0.000 
#
# Total GULP energy -133785.585483 kJ/mol
# GULP energy per Si atom -5574.399395 kJ/mol
# Density = 2.054902 g / cm^3
# Si number density = 20.595893 Si / 1000 Ang^3
#
#
#
# Elastic Constant Matrix: (Units=GPa)
#
#
# Indices 1 2 3 4 5 6 
#
# 1 65.4288 30.9865 26.4997 0.0000 -21.4597 0.0000
# 2 30.9865 103.3736 22.5050 0.0000 -12.6339 0.0000
# 3 26.4997 22.5050 75.6910 0.0000 -21.5559 0.0000
# 4 0.0000 0.0000 0.0000 16.1820 0.0000 -9.4877
# 5 -21.4597 -12.6339 -21.5559 0.0000 30.4169 0.0000
# 6 0.0000 0.0000 0.0000 -9.4877 0.0000 51.5470
#
#
#
# Elastic Compliance Matrix: (Units=1/GPa)
#
#
# Indices 1 2 3 4 5 6 
#
# 1 0.022644 -0.004653 -0.003188 0.000000 0.011783 0.000000
# 2 -0.004653 0.011473 -0.001704 0.000000 0.000275 0.000000
# 3 -0.003188 -0.001704 0.017530 0.000000 0.009466 0.000000
# 4 0.000000 0.000000 0.000000 0.069273 0.000000 0.012750
# 5 0.011783 0.000275 0.009466 0.000000 0.048013 0.000000
# 6 0.000000 0.000000 0.000000 0.012750 0.000000 0.021747
#
#
# Mechanical properties :
#
#
# Convention : Reuss Voigt Hill
#
# Bulk Modulus (GPa) = 30.71619 44.94176 37.82897
# Shear Modulus (GPa) = 22.66323 30.59599 26.62961
#
# Velocity S-wave (km/s) = 3.32079 3.85845 3.59967
# Velocity P-wave (km/s) = 5.44515 6.45897 5.97361
#
# Compressibility (1/GPa) = 0.03255612
#
# Stress axis : x y z
#
# Youngs Moduli (GPa) = 44.16265 87.16115 57.04397
#
# Poissons Ratio (x) = 0.40558 0.18188
# Poissons Ratio (y) = 0.20550 0.09719
# Poissons Ratio (z) = 0.14081 0.14850
#
# Static dielectric constant tensor:
#      x y z
#    x 1.741930 0.000000 0.000300 
#    y 0.000000 1.827460 0.000000 
#    z 0.000300 0.000000 1.744060 
# 
# From -- ./inp_files/100086.got.cif
#   From: 2010.05.17/outbox.cif.g08.bks.cpg/sg15_51_cif.got.tgz:100086.got - 2010.06.03 18:47:42.
