data_PCOD9267085
_publ_section_title
;
Structure prediction by ZEFSAII (Michael W. Deem and Ramdas Pophale) SiO2 
 PCOD9267085
Probable space group: C 2/C
;
_chemical_formula_sum "Si O2"
_cell_formula_units_Z 64
_cell_length_a 14.395288
_cell_length_b 13.777670
_cell_length_c 18.648325
_cell_angle_alpha 90.000000
_cell_angle_beta 59.064112
_cell_angle_gamma 90.000000
_cell_volume 3172.438310
_symmetry_space_group_name_H-M "C 2/C"
_symmetry_group_IT_number 15
_symmetry_cell_setting 'monoclinic'
loop_
_space_group_symop_operation_xyz
x,y,z
-x,y,1/2-z
-x,-y,-z
x,-y,1/2+z
1/2+x,1/2+y,z
1/2-x,1/2+y,1/2-z
1/2-x,1/2-y,-z
1/2+x,1/2-y,1/2+z
loop_
_atom_site_type_symbol
_atom_site_label
_atom_site_fract_x
_atom_site_fract_y
_atom_site_fract_z
Si Si1 0.983203 0.297260 0.840382
Si Si2 0.805904 0.427071 0.708063
Si Si3 0.961902 0.592507 0.681403
Si Si4 0.506696 0.364121 0.047091
Si Si5 0.258203 0.391738 0.929066
Si Si6 0.662852 0.028486 0.068662
Si Si7 0.170476 0.025151 0.388208
Si Si8 0.923308 0.757687 0.938378
O O1 0.876536 0.363411 0.897408
O O2 0.000000 0.277449 0.750000
O O3 0.090959 0.357772 0.819539
O O4 0.975582 0.203394 0.892364
O O5 0.850573 0.537391 0.705511
O O6 0.760464 0.404210 0.647715
O O7 0.713669 0.413652 0.804545
O O8 0.000000 0.588805 0.750000
O O9 0.049400 0.526178 0.605477
O O10 0.983903 0.699157 0.641299
O O11 0.416324 0.445094 0.099547
O O12 0.613924 0.413611 0.973475
O O13 0.464491 0.303458 0.995657
O O14 0.369474 0.341522 0.910568
O O15 0.235377 0.497231 0.972931
O O16 0.169081 0.318941 0.999699
O O17 0.724796 0.983398 0.112510
#
# Coordination Sequence:
#
# PCOD9267085 Si02
#       8
#     8   8   8   8   8   8   8   8
#     4  11  22  41  66  94 127 158 211 272 307 371
#     4  11  21  40  64  94 122 164 212 260 313 374
#     4  10  20  34  61  94 125 157 203 264 312 368
#     4  11  25  43  62  86 128 167 208 254 317 381
#     4  10  21  35  63  92 127 157 203 257 311 376
#     4  10  19  38  65  87 124 169 201 247 324 374
#     4  11  23  45  64  83 124 177 203 247 328 380
#     4  10  21  37  59  92 123 164 200 253 319 366
#
# _framework density 20.173756999999998
#
# number of rings (size 3 to 8) (size 9 to 14) (size 15 to 20)
#    0.000    1.500    5.000    0.750    1.750    3.000 
#    4.500    0.000    0.000    0.000    0.000    0.000 
#    0.000    0.000    0.000    0.000    0.000    0.000 
#
# Total GULP energy -178383.298735 kJ/mol
# GULP energy per Si atom -5574.478085 kJ/mol
# Density = 2.012784 g / cm^3
# Si number density = 20.173757 Si / 1000 Ang^3
#
#
#
# Elastic Constant Matrix: (Units=GPa)
#
#
# Indices 1 2 3 4 5 6 
#
# 1 58.2422 23.0040 36.0428 0.0000 14.8865 0.0000
# 2 23.0040 64.8235 42.6641 0.0000 -3.1951 0.0000
# 3 36.0428 42.6641 65.1638 0.0000 14.6302 0.0000
# 4 0.0000 0.0000 0.0000 17.8913 0.0000 14.1588
# 5 14.8865 -3.1951 14.6302 0.0000 37.9499 0.0000
# 6 0.0000 0.0000 0.0000 14.1588 0.0000 15.5644
#
#
#
# Elastic Compliance Matrix: (Units=1/GPa)
#
#
# Indices 1 2 3 4 5 6 
#
# 1 0.027129 -0.001610 -0.012624 0.000000 -0.005910 0.000000
# 2 -0.001610 0.031167 -0.022165 0.000000 0.011800 0.000000
# 3 -0.012624 -0.022165 0.039573 0.000000 -0.012170 0.000000
# 4 0.000000 0.000000 0.000000 0.199555 0.000000 -0.181534
# 5 -0.005910 0.011800 -0.012170 0.000000 0.034354 0.000000
# 6 0.000000 0.000000 0.000000 -0.181534 0.000000 0.229390
#
#
# Mechanical properties :
#
#
# Convention : Reuss Voigt Hill
#
# Bulk Modulus (GPa) = 39.88692 43.51680 41.70186
# Shear Modulus (GPa) = 7.78425 20.04903 13.91664
#
# Velocity S-wave (km/s) = 1.96646 3.15591 2.62933
# Velocity P-wave (km/s) = 4.99706 5.90741 5.47120
#
# Compressibility (1/GPa) = 0.02507087
#
# Stress axis : x y z
#
# Youngs Moduli (GPa) = 36.86148 32.08477 25.26985
#
# Poissons Ratio (x) = 0.05165 0.31901
# Poissons Ratio (y) = 0.05933 0.56011
# Poissons Ratio (z) = 0.46535 0.71116
#
# Static dielectric constant tensor:
#      x y z
#    x 1.764800 0.000000 -0.032880 
#    y 0.000000 1.760510 0.000000 
#    z -0.032880 0.000000 1.727310 
# 
# From -- ./inp_files/205391.got.cif
#   From: 2010.05.17/outbox.cif.g08.bks.cpg/sg15_103_cif.got.tgz:205391.got - 2010.06.03 18:47:42.
