data_PCOD9267265
_publ_section_title
;
Structure prediction by ZEFSAII (Michael W. Deem and Ramdas Pophale) SiO2 
 PCOD9267265
Probable space group: C 2/C
;
_chemical_formula_sum "Si O2"
_cell_formula_units_Z 40
_cell_length_a 18.264961
_cell_length_b 14.460455
_cell_length_c 14.235519
_cell_angle_alpha 90.000000
_cell_angle_beta 159.086759
_cell_angle_gamma 90.000000
_cell_volume 1342.103856
_symmetry_space_group_name_H-M "C 2/C"
_symmetry_group_IT_number 15
_symmetry_cell_setting 'monoclinic'
loop_
_space_group_symop_operation_xyz
x,y,z
-x,y,1/2-z
-x,-y,-z
x,-y,1/2+z
1/2+x,1/2+y,z
1/2-x,1/2+y,1/2-z
1/2-x,1/2-y,-z
1/2+x,1/2-y,1/2+z
loop_
_atom_site_type_symbol
_atom_site_label
_atom_site_fract_x
_atom_site_fract_y
_atom_site_fract_z
Si Si1 0.664606 0.799018 0.805998
Si Si2 0.814390 0.531016 0.421360
Si Si3 0.807915 0.739026 0.478502
Si Si4 0.275738 0.489575 0.976017
Si Si5 0.726325 0.643871 0.740990
O O1 0.614983 0.722073 0.668660
O O2 0.445909 0.845997 0.555308
O O3 0.750000 0.750000 0.000000
O O4 0.802115 0.890499 0.954682
O O5 0.757816 0.637231 0.375877
O O6 0.771700 0.480182 0.469405
O O7 0.692893 0.465866 0.203004
O O8 0.055522 0.532090 0.682191
O O9 0.770801 0.819374 0.359966
O O10 0.088638 0.739856 0.789449
O O11 0.500000 0.537231 0.250000
#
# Coordination Sequence:
#
# PCOD9267265 Si02
#       5
#     8   8   8   8   8
#     4  11  20  37  70 114 158 196 251 341 414 469
#     4  10  23  47  76 112 158 205 269 333 394 490
#     4  12  27  54  77 108 160 219 266 331 403 484
#     4  10  19  38  75 116 152 202 258 325 412 472
#     4  11  24  44  73 115 155 206 270 336 397 486
#
# _framework density 29.803953
#
# number of rings (size 3 to 8) (size 9 to 14) (size 15 to 20)
#    0.000    1.200    4.000    3.000    0.000    0.800 
#    3.600    7.000    0.000    0.000    0.000    0.000 
#    0.000    0.000    0.000    0.000    0.000    0.000 
#
# Total GULP energy -111827.411560 kJ/mol
# GULP energy per Si atom -5591.370578 kJ/mol
# Density = 2.973612 g / cm^3
# Si number density = 29.803953 Si / 1000 Ang^3
#
#
#
# Elastic Constant Matrix: (Units=GPa)
#
#
# Indices 1 2 3 4 5 6 
#
# 1 176.7799 109.5910 49.3277 0.0000 3.9253 0.0000
# 2 109.5910 287.0483 54.2105 0.0000 -10.4486 0.0000
# 3 49.3277 54.2105 144.0872 0.0000 14.3619 0.0000
# 4 0.0000 0.0000 0.0000 49.5163 0.0000 4.4654
# 5 3.9253 -10.4486 14.3619 0.0000 48.4140 0.0000
# 6 0.0000 0.0000 0.0000 4.4654 0.0000 43.4208
#
#
#
# Elastic Compliance Matrix: (Units=1/GPa)
#
#
# Indices 1 2 3 4 5 6 
#
# 1 0.007789 -0.002703 -0.001575 0.000000 -0.000748 0.000000
# 2 -0.002703 0.004765 -0.001022 0.000000 0.001551 0.000000
# 3 -0.001575 -0.001022 0.008113 0.000000 -0.002500 0.000000
# 4 0.000000 0.000000 0.000000 0.020384 0.000000 -0.002096
# 5 -0.000748 0.001551 -0.002500 0.000000 0.021792 0.000000
# 6 0.000000 0.000000 0.000000 -0.002096 0.000000 0.023246
#
#
# Mechanical properties :
#
#
# Convention : Reuss Voigt Hill
#
# Bulk Modulus (GPa) = 99.33721 114.90819 107.12270
# Shear Modulus (GPa) = 49.97735 54.58930 52.28332
#
# Velocity S-wave (km/s) = 4.09940 4.28438 4.19291
# Velocity P-wave (km/s) = 7.47057 7.94436 7.71110
#
# Compressibility (1/GPa) = 0.01006672
#
# Stress axis : x y z
#
# Youngs Moduli (GPa) = 128.39091 209.84971 123.25915
#
# Poissons Ratio (x) = 0.56732 0.19411
# Poissons Ratio (y) = 0.34710 0.12596
# Poissons Ratio (z) = 0.20219 0.21445
#
# Static dielectric constant tensor:
#      x y z
#    x 2.475980 0.000000 0.397760 
#    y 0.000000 2.775700 0.000000 
#    z 0.397760 0.000000 2.819780 
# 
# From -- ./inp_files/215839.got.cif
#   From: 2010.05.17/outbox.cif.g08.bks.cpg/sg15_108_cif.got.tgz:215839.got - 2010.06.03 18:47:42.
