data_PCOD9267322
_publ_section_title
;
Structure prediction by ZEFSAII (Michael W. Deem and Ramdas Pophale) SiO2 
 PCOD9267322
Probable space group: C 2/C
;
_chemical_formula_sum "Si O2"
_cell_formula_units_Z 64
_cell_length_a 23.829115
_cell_length_b 8.935079
_cell_length_c 14.714600
_cell_angle_alpha 90.000000
_cell_angle_beta 67.449074
_cell_angle_gamma 90.000000
_cell_volume 2893.410306
_symmetry_space_group_name_H-M "C 2/C"
_symmetry_group_IT_number 15
_symmetry_cell_setting 'monoclinic'
loop_
_space_group_symop_operation_xyz
x,y,z
-x,y,1/2-z
-x,-y,-z
x,-y,1/2+z
1/2+x,1/2+y,z
1/2-x,1/2+y,1/2-z
1/2-x,1/2-y,-z
1/2+x,1/2-y,1/2+z
loop_
_atom_site_type_symbol
_atom_site_label
_atom_site_fract_x
_atom_site_fract_y
_atom_site_fract_z
Si Si1 0.910688 0.115921 0.060254
Si Si2 0.995286 0.966771 0.852098
Si Si3 0.875102 0.406088 0.983455
Si Si4 0.738685 0.988948 0.326455
Si Si5 0.681362 0.428035 0.471256
Si Si6 0.200685 0.688166 0.680472
Si Si7 0.692106 0.692081 0.594013
Si Si8 0.904716 0.297982 0.394320
O O1 0.942509 0.071778 0.134195
O O2 0.845828 0.032363 0.090962
O O3 0.899763 0.288910 0.042637
O O4 0.953959 0.055083 0.951366
O O5 0.961197 0.811012 0.853696
O O6 0.000000 0.042584 0.750000
O O7 0.858206 0.310800 0.903343
O O8 0.918059 0.539354 0.925423
O O9 0.813249 0.476591 0.063538
O O10 0.704960 0.934668 0.257039
O O11 0.785897 0.852767 0.320402
O O12 0.772478 0.148984 0.307384
O O13 0.749980 0.378297 0.420306
O O14 0.673312 0.532402 0.563808
O O15 0.639311 0.285311 0.506459
O O16 0.135828 0.696170 0.671870
O O17 0.750000 0.750000 0.500000
#
# Coordination Sequence:
#
# PCOD9267322 Si02
#       8
#     8   8   8   8   8   8   8   8
#     4   9  22  43  68  93 122 168 217 265 326 382
#     4  10  23  44  69  94 120 165 220 272 320 385
#     4  10  21  39  61  86 123 162 209 259 319 385
#     4  11  24  34  52  88 131 168 201 256 305 383
#     4  10  19  39  60  82 120 165 206 248 313 384
#     4  12  24  35  56  94 130 165 206 253 316 386
#     4   9  18  34  54  76 113 165 202 236 290 369
#     4  11  22  39  64  87 121 171 206 260 324 381
#
# _framework density 22.119228
#
# number of rings (size 3 to 8) (size 9 to 14) (size 15 to 20)
#    0.000    1.750    2.500    1.875    8.750    0.500 
#    0.000    0.625    0.000    0.000    0.000    0.000 
#    0.000    0.000    0.000    0.000    0.000    0.000 
#
# Total GULP energy -178603.882548 kJ/mol
# GULP energy per Si atom -5581.371330 kJ/mol
# Density = 2.206888 g / cm^3
# Si number density = 22.119228 Si / 1000 Ang^3
#
#
#
# Elastic Constant Matrix: (Units=GPa)
#
#
# Indices 1 2 3 4 5 6 
#
# 1 55.1538 -0.4982 9.8699 0.0000 30.8468 0.0000
# 2 -0.4982 100.6297 10.8582 0.0000 6.9768 0.0000
# 3 9.8699 10.8582 60.6483 0.0000 15.5503 0.0000
# 4 0.0000 0.0000 0.0000 22.3457 0.0000 2.7416
# 5 30.8468 6.9768 15.5503 0.0000 32.1838 0.0000
# 6 0.0000 0.0000 0.0000 2.7416 0.0000 16.6793
#
#
#
# Elastic Compliance Matrix: (Units=1/GPa)
#
#
# Indices 1 2 3 4 5 6 
#
# 1 0.040512 0.002675 0.003461 0.000000 -0.041082 0.000000
# 2 0.002675 0.010374 -0.001208 0.000000 -0.004229 0.000000
# 3 0.003461 -0.001208 0.019318 0.000000 -0.012390 0.000000
# 4 0.000000 0.000000 0.000000 0.045672 0.000000 -0.007507
# 5 -0.041082 -0.004229 -0.012390 0.000000 0.077350 0.000000
# 6 0.000000 0.000000 0.000000 -0.007507 0.000000 0.061188
#
#
# Mechanical properties :
#
#
# Convention : Reuss Voigt Hill
#
# Bulk Modulus (GPa) = 12.49033 28.54352 20.51693
# Shear Modulus (GPa) = 18.43344 27.32189 22.87767
#
# Velocity S-wave (km/s) = 2.88994 3.51837 3.21952
# Velocity P-wave (km/s) = 4.09814 5.42565 4.80793
#
# Compressibility (1/GPa) = 0.08006190
#
# Stress axis : x y z
#
# Youngs Moduli (GPa) = 24.68377 96.39229 51.76448
#
# Poissons Ratio (x) = -0.25788 -0.17918
# Poissons Ratio (y) = -0.06604 0.06255
# Poissons Ratio (z) = -0.08544 0.11648
#
# Static dielectric constant tensor:
#      x y z
#    x 1.848150 0.000000 0.012510 
#    y 0.000000 1.853850 0.000000 
#    z 0.012510 0.000000 1.887190 
# 
# From -- ./inp_files/176600.got.cif
#   From: 2010.05.17/outbox.cif.g08.bks.cpg/sg15_89_cif.got.tgz:176600.got - 2010.06.03 18:47:42.
