data_PCOD9267739
_publ_section_title
;
Structure prediction by ZEFSAII (Michael W. Deem and Ramdas Pophale) SiO2 
 PCOD9267739
Probable space group: C 2/C
;
_chemical_formula_sum "Si O2"
_cell_formula_units_Z 24
_cell_length_a 9.605975
_cell_length_b 10.268443
_cell_length_c 14.098218
_cell_angle_alpha 90.000000
_cell_angle_beta 43.402246
_cell_angle_gamma 90.000000
_cell_volume 955.521200
_symmetry_space_group_name_H-M "C 2/C"
_symmetry_group_IT_number 15
_symmetry_cell_setting 'monoclinic'
loop_
_space_group_symop_operation_xyz
x,y,z
-x,y,1/2-z
-x,-y,-z
x,-y,1/2+z
1/2+x,1/2+y,z
1/2-x,1/2+y,1/2-z
1/2-x,1/2-y,-z
1/2+x,1/2-y,1/2+z
loop_
_atom_site_type_symbol
_atom_site_label
_atom_site_fract_x
_atom_site_fract_y
_atom_site_fract_z
Si Si1 0.293681 0.665937 0.258939
Si Si2 0.206185 0.010310 0.056140
Si Si3 0.000000 0.232525 0.750000
Si Si4 0.000000 0.407491 0.250000
O O1 0.213164 0.586477 0.390137
O O2 0.500183 0.589147 0.131124
O O3 0.355133 0.809451 0.263232
O O4 0.142210 0.685738 0.248696
O O5 0.361039 0.021123 0.894701
O O6 0.139523 0.866504 0.119395
#
# Coordination Sequence:
#
# PCOD9267739 Si02
#       4
#     8   8   4   4
#     4   9  18  38  64  87 119 165 209 254 308 367
#     4   9  21  41  63  87 125 166 202 258 314 369
#     4  10  21  38  61  96 122 152 217 260 301 376
#     4  10  19  40  63  86 128 168 199 252 323 374
#
# _framework density 25.117180999999999
#
# number of rings (size 3 to 8) (size 9 to 14) (size 15 to 20)
#    0.000    3.333    0.000    4.000    0.000    2.667 
#    0.000   30.000    0.000    0.000    0.000    0.000 
#    0.000    0.000    0.000    0.000    0.000    0.000 
#
# Total GULP energy -67327.898316 kJ/mol
# GULP energy per Si atom -5610.658193 kJ/mol
# Density = 2.506001 g / cm^3
# Si number density = 25.117181 Si / 1000 Ang^3
#
#
#
# Elastic Constant Matrix: (Units=GPa)
#
#
# Indices 1 2 3 4 5 6 
#
# 1 271.1878 103.2697 95.7845 0.0000 5.9623 0.0000
# 2 103.2697 123.7141 107.9429 0.0000 8.4919 0.0000
# 3 95.7845 107.9429 244.6993 0.0000 39.5745 0.0000
# 4 0.0000 0.0000 0.0000 28.7082 0.0000 0.6697
# 5 5.9623 8.4919 39.5745 0.0000 10.8581 0.0000
# 6 0.0000 0.0000 0.0000 0.6697 0.0000 24.5908
#
#
#
# Elastic Compliance Matrix: (Units=1/GPa)
#
#
# Indices 1 2 3 4 5 6 
#
# 1 0.005460 -0.003935 -0.001009 0.000000 0.003756 0.000000
# 2 -0.003935 0.020058 -0.012471 0.000000 0.031928 0.000000
# 3 -0.001009 -0.012471 0.020255 0.000000 -0.063517 0.000000
# 4 0.000000 0.000000 0.000000 0.034855 0.000000 -0.000949
# 5 0.003756 0.031928 -0.063517 0.000000 0.296565 0.000000
# 6 0.000000 0.000000 0.000000 -0.000949 0.000000 0.040691
#
#
# Mechanical properties :
#
#
# Convention : Reuss Voigt Hill
#
# Bulk Modulus (GPa) = 91.38564 139.28835 115.33700
# Shear Modulus (GPa) = 10.95621 35.00505 22.98063
#
# Velocity S-wave (km/s) = 2.09082 3.73724 3.02807
# Velocity P-wave (km/s) = 6.50318 8.61385 7.63183
#
# Compressibility (1/GPa) = 0.01094264
#
# Stress axis : x y z
#
# Youngs Moduli (GPa) = 183.15990 49.85582 49.36995
#
# Poissons Ratio (x) = 0.19619 0.04980
# Poissons Ratio (y) = 0.72077 0.61570
# Poissons Ratio (z) = 0.18474 0.62176
#
# Static dielectric constant tensor:
#      x y z
#    x 1.981280 0.000000 -0.020980 
#    y 0.000000 1.977000 0.000000 
#    z -0.020980 0.000000 1.948440 
# 
# From -- ./inp_files/74906.got.cif
#   From: 2010.05.17/outbox.cif.g08.bks.cpg/sg15_38_cif.got.tgz:74906.got - 2010.06.03 18:47:42.
