data_PCOD9267406
_publ_section_title
;
Structure prediction by ZEFSAII (Michael W. Deem and Ramdas Pophale) SiO2 
 PCOD9267406
Probable space group: C 2/C
;
_chemical_formula_sum "Si O2"
_cell_formula_units_Z 56
_cell_length_a 18.515324
_cell_length_b 9.357272
_cell_length_c 22.703251
_cell_angle_alpha 90.000000
_cell_angle_beta 146.410389
_cell_angle_gamma 90.000000
_cell_volume 2176.118775
_symmetry_space_group_name_H-M "C 2/C"
_symmetry_group_IT_number 15
_symmetry_cell_setting 'monoclinic'
loop_
_space_group_symop_operation_xyz
x,y,z
-x,y,1/2-z
-x,-y,-z
x,-y,1/2+z
1/2+x,1/2+y,z
1/2-x,1/2+y,1/2-z
1/2-x,1/2-y,-z
1/2+x,1/2-y,1/2+z
loop_
_atom_site_type_symbol
_atom_site_label
_atom_site_fract_x
_atom_site_fract_y
_atom_site_fract_z
Si Si1 0.380559 0.955190 0.753093
Si Si2 0.034304 0.967332 0.698080
Si Si3 0.123102 0.083322 0.557318
Si Si4 0.567685 0.789195 0.409113
Si Si5 0.706068 0.978872 0.068795
Si Si6 0.102822 0.747135 0.423385
Si Si7 0.788988 0.648364 0.316269
O O1 0.250366 0.986914 0.627267
O O2 0.447233 0.105151 0.815049
O O3 0.499580 0.850383 0.816726
O O4 0.328494 0.885469 0.777715
O O5 0.944294 0.829581 0.650210
O O6 0.862521 0.033387 0.684509
O O7 0.138569 0.893715 0.724366
O O8 0.956550 0.095944 0.616169
O O9 0.087097 0.187871 0.479265
O O10 0.174748 0.190775 0.643151
O O11 0.000000 0.000000 0.500000
O O12 0.677000 0.910177 0.496155
O O13 0.651638 0.046902 0.092231
O O14 0.626488 0.836089 0.000852
O O15 0.250000 0.750000 0.500000
#
# Coordination Sequence:
#
# PCOD9267406 Si02
#       7
#     8   8   8   8   8   8   8
#     4  11  23  42  63  96 148 173 230 291 341 434
#     4  10  21  42  66  93 140 169 232 288 343 422
#     4  11  23  35  64 102 137 177 226 280 356 428
#     4  10  19  39  62  91 132 176 225 268 351 418
#     4   8  21  42  63  95 134 175 225 282 346 418
#     4  11  26  44  69  97 129 186 237 284 346 407
#     4   9  21  40  63  98 134 183 215 281 365 411
#
# _framework density 25.733889000000001
#
# number of rings (size 3 to 8) (size 9 to 14) (size 15 to 20)
#    0.857    1.143    1.429    0.857    4.000    6.857 
#    2.571    2.857    0.000    0.000    0.000    0.000 
#    0.000    0.000    0.000    0.000    0.000    0.000 
#
# Total GULP energy -156287.412693 kJ/mol
# GULP energy per Si atom -5581.693310 kJ/mol
# Density = 2.567532 g / cm^3
# Si number density = 25.733889 Si / 1000 Ang^3
#
#
#
# Elastic Constant Matrix: (Units=GPa)
#
#
# Indices 1 2 3 4 5 6 
#
# 1 41.7246 3.9867 18.5561 0.0000 8.1777 0.0000
# 2 3.9867 168.2161 75.5508 0.0000 7.6622 0.0000
# 3 18.5561 75.5508 187.2390 0.0000 17.3826 0.0000
# 4 0.0000 0.0000 0.0000 61.2051 0.0000 1.5486
# 5 8.1777 7.6622 17.3826 0.0000 43.8128 0.0000
# 6 0.0000 0.0000 0.0000 1.5486 0.0000 11.9221
#
#
#
# Elastic Compliance Matrix: (Units=1/GPa)
#
#
# Indices 1 2 3 4 5 6 
#
# 1 0.025770 0.000674 -0.002459 0.000000 -0.003952 0.000000
# 2 0.000674 0.007279 -0.002984 0.000000 -0.000215 0.000000
# 3 -0.002459 -0.002984 0.006953 0.000000 -0.001778 0.000000
# 4 0.000000 0.000000 0.000000 0.016392 0.000000 -0.002129
# 5 -0.003952 -0.000215 -0.001778 0.000000 0.024305 0.000000
# 6 0.000000 0.000000 0.000000 -0.002129 0.000000 0.084154
#
#
# Mechanical properties :
#
#
# Convention : Reuss Voigt Hill
#
# Bulk Modulus (GPa) = 32.82493 65.92967 49.37730
# Shear Modulus (GPa) = 27.09333 43.32707 35.21020
#
# Velocity S-wave (km/s) = 3.24825 4.10769 3.70299
# Velocity P-wave (km/s) = 5.18183 6.94067 6.12472
#
# Compressibility (1/GPa) = 0.03046465
#
# Stress axis : x y z
#
# Youngs Moduli (GPa) = 38.80406 137.38832 143.81357
#
# Poissons Ratio (x) = -0.09254 0.35361
# Poissons Ratio (y) = -0.02614 0.42910
# Poissons Ratio (z) = 0.09541 0.40993
#
# Static dielectric constant tensor:
#      x y z
#    x 2.161120 0.000000 0.035440 
#    y 0.000000 2.045420 0.000000 
#    z 0.035440 0.000000 2.169190 
# 
# From -- ./inp_files/317530.got.cif
#   From: 2010.05.17/outbox.cif.g08.bks.cpg/sg15_159_cif.got.tgz:317530.got - 2010.06.03 18:47:42.
