data_PCOD9267894
_publ_section_title
;
Structure prediction by ZEFSAII (Michael W. Deem and Ramdas Pophale) SiO2 
 PCOD9267894
Probable space group: C 2/C
;
_chemical_formula_sum "Si O2"
_cell_formula_units_Z 48
_cell_length_a 12.541703
_cell_length_b 8.419224
_cell_length_c 18.081214
_cell_angle_alpha 90.000000
_cell_angle_beta 110.293607
_cell_angle_gamma 90.000000
_cell_volume 1790.710981
_symmetry_space_group_name_H-M "C 2/C"
_symmetry_group_IT_number 15
_symmetry_cell_setting 'monoclinic'
loop_
_space_group_symop_operation_xyz
x,y,z
-x,y,1/2-z
-x,-y,-z
x,-y,1/2+z
1/2+x,1/2+y,z
1/2-x,1/2+y,1/2-z
1/2-x,1/2-y,-z
1/2+x,1/2-y,1/2+z
loop_
_atom_site_type_symbol
_atom_site_label
_atom_site_fract_x
_atom_site_fract_y
_atom_site_fract_z
Si Si1 0.668626 0.666493 0.636916
Si Si2 0.411878 0.344188 0.131219
Si Si3 0.140982 0.148950 0.049160
Si Si4 0.228716 0.593122 0.686792
Si Si5 0.516537 0.990306 0.332261
Si Si6 0.071272 0.655916 0.989561
O O1 0.543058 0.629976 0.641057
O O2 0.690665 0.507298 0.596485
O O3 0.746406 0.676295 0.728291
O O4 0.667049 0.801436 0.572041
O O5 0.350586 0.451095 0.178703
O O6 0.422674 0.160204 0.160538
O O7 0.347142 0.350300 0.036523
O O8 0.006736 0.186734 0.026812
O O9 0.189657 0.287813 0.112638
O O10 0.115907 0.487866 0.674350
O O11 0.500000 0.909555 0.250000
O O12 0.585225 0.887442 0.407989
O O13 0.000000 0.500000 0.000000
#
# Coordination Sequence:
#
# PCOD9267894 Si02
#       6
#     8   8   8   8   8   8
#     4  11  23  41  73 107 148 188 239 313 371 431
#     4  11  22  45  76 100 140 202 237 301 374 434
#     4  10  23  42  68 107 147 185 246 305 366 443
#     4  11  26  42  72 112 137 189 255 297 362 452
#     4  11  24  44  75 102 144 190 248 303 361 442
#     4  10  19  40  69  99 137 193 239 285 370 442
#
# _framework density 26.804995000000002
#
# number of rings (size 3 to 8) (size 9 to 14) (size 15 to 20)
#    0.000    1.333    3.333    4.000    4.667    0.000 
#    0.000   10.833    0.000    1.000    0.000    0.000 
#    0.000    0.000    0.000    0.000    0.000    0.000 
#
# Total GULP energy -133990.616341 kJ/mol
# GULP energy per Si atom -5582.942348 kJ/mol
# Density = 2.674399 g / cm^3
# Si number density = 26.804995 Si / 1000 Ang^3
#
#
#
# Elastic Constant Matrix: (Units=GPa)
#
#
# Indices 1 2 3 4 5 6 
#
# 1 131.6645 19.5872 29.1980 0.0000 4.6680 0.0000
# 2 19.5872 56.8332 12.3483 0.0000 -6.7869 0.0000
# 3 29.1980 12.3483 230.6163 0.0000 -21.3214 0.0000
# 4 0.0000 0.0000 0.0000 35.3728 0.0000 1.8525
# 5 4.6680 -6.7869 -21.3214 0.0000 23.0721 0.0000
# 6 0.0000 0.0000 0.0000 1.8525 0.0000 2.2993
#
#
#
# Elastic Compliance Matrix: (Units=1/GPa)
#
#
# Indices 1 2 3 4 5 6 
#
# 1 0.008469 -0.003098 -0.001256 0.000000 -0.003786 0.000000
# 2 -0.003098 0.019427 -0.000067 0.000000 0.006279 0.000000
# 3 -0.001256 -0.000067 0.004943 0.000000 0.004802 0.000000
# 4 0.000000 0.000000 0.000000 0.029516 0.000000 -0.023780
# 5 -0.003786 0.006279 0.004802 0.000000 0.050393 0.000000
# 6 0.000000 0.000000 0.000000 -0.023780 0.000000 0.454067
#
#
# Mechanical properties :
#
#
# Convention : Reuss Voigt Hill
#
# Bulk Modulus (GPa) = 41.67395 60.15345 50.91370
# Shear Modulus (GPa) = 8.56667 36.01422 22.29045
#
# Velocity S-wave (km/s) = 1.78965 3.66944 2.88684
# Velocity P-wave (km/s) = 4.45548 6.35948 5.49064
#
# Compressibility (1/GPa) = 0.02399580
#
# Stress axis : x y z
#
# Youngs Moduli (GPa) = 118.08139 51.47344 202.31190
#
# Poissons Ratio (x) = 0.15945 0.25417
# Poissons Ratio (y) = 0.36579 0.01365
# Poissons Ratio (z) = 0.14835 0.00347
#
# Static dielectric constant tensor:
#      x y z
#    x 2.350930 0.000000 0.063410 
#    y 0.000000 2.102560 0.000000 
#    z 0.063410 0.000000 2.101710 
# 
# From -- ./inp_files/196613.got.cif
#   From: 2010.05.17/outbox.cif.g08.bks.cpg/sg15_99_cif.got.tgz:196613.got - 2010.06.03 18:47:42.
