data_PCOD9267022
_publ_section_title
;
Structure prediction by ZEFSAII (Michael W. Deem and Ramdas Pophale) SiO2 
 PCOD9267022
Probable space group: C 2/C
;
_chemical_formula_sum "Si O2"
_cell_formula_units_Z 44
_cell_length_a 7.914518
_cell_length_b 12.811770
_cell_length_c 21.381378
_cell_angle_alpha 90.000000
_cell_angle_beta 62.778535
_cell_angle_gamma 90.000000
_cell_volume 1927.927776
_symmetry_space_group_name_H-M "C 2/C"
_symmetry_group_IT_number 15
_symmetry_cell_setting 'monoclinic'
loop_
_space_group_symop_operation_xyz
x,y,z
-x,y,1/2-z
-x,-y,-z
x,-y,1/2+z
1/2+x,1/2+y,z
1/2-x,1/2+y,1/2-z
1/2-x,1/2-y,-z
1/2+x,1/2-y,1/2+z
loop_
_atom_site_type_symbol
_atom_site_label
_atom_site_fract_x
_atom_site_fract_y
_atom_site_fract_z
Si Si1 0.211606 0.713092 0.779279
Si Si2 0.054004 0.178594 0.634866
Si Si3 0.729261 0.023289 0.396307
Si Si4 0.572242 0.126271 0.585946
Si Si5 0.000000 0.102702 0.250000
Si Si6 0.917037 0.737621 0.037035
O O1 0.341810 0.671177 0.700682
O O2 0.333264 0.717463 0.822706
O O3 0.120265 0.822596 0.775091
O O4 0.032973 0.643993 0.830776
O O5 0.045109 0.253620 0.576567
O O6 0.148684 0.070694 0.595050
O O7 0.513461 0.982310 0.424036
O O8 0.843972 0.035912 0.312346
O O9 0.719549 0.136941 0.428006
O O10 0.790805 0.157369 0.555943
O O11 0.502038 0.209555 0.544420
#
# Coordination Sequence:
#
# PCOD9267022 Si02
#       6
#     8   8   8   8   4   8
#     4  10  19  38  64  87 124 167 203 261 316 361
#     4  10  22  40  64  94 124 159 215 258 311 375
#     4  11  22  39  64  91 121 166 203 259 311 367
#     4  10  22  40  65  92 127 165 209 252 314 375
#     4  12  20  40  70  86 128 170 204 268 318 360
#     4  11  22  43  64  92 129 166 202 260 312 374
#
# _framework density 22.822433
#
# number of rings (size 3 to 8) (size 9 to 14) (size 15 to 20)
#    0.000    1.455    3.636    2.727    0.000    2.909 
#    3.273    3.636    8.000    0.000    0.000    0.000 
#    0.000    0.000    0.000    0.000    0.000    0.000 
#
# Total GULP energy -122633.773156 kJ/mol
# GULP energy per Si atom -5574.262416 kJ/mol
# Density = 2.277049 g / cm^3
# Si number density = 22.822433 Si / 1000 Ang^3
#
#
#
# Elastic Constant Matrix: (Units=GPa)
#
#
# Indices 1 2 3 4 5 6 
#
# 1 75.9654 27.9637 10.6148 0.0000 11.8446 0.0000
# 2 27.9637 77.1853 11.8743 0.0000 -0.7620 0.0000
# 3 10.6148 11.8743 78.6654 0.0000 -11.1735 0.0000
# 4 0.0000 0.0000 0.0000 40.4082 0.0000 -9.1105
# 5 11.8446 -0.7620 -11.1735 0.0000 36.2863 0.0000
# 6 0.0000 0.0000 0.0000 -9.1105 0.0000 36.8967
#
#
#
# Elastic Compliance Matrix: (Units=1/GPa)
#
#
# Indices 1 2 3 4 5 6 
#
# 1 0.016550 -0.005711 -0.002254 0.000000 -0.006216 0.000000
# 2 -0.005711 0.015239 -0.001275 0.000000 0.001791 0.000000
# 3 -0.002254 -0.001275 0.013918 0.000000 0.004995 0.000000
# 4 0.000000 0.000000 0.000000 0.026206 0.000000 0.006471
# 5 -0.006216 0.001791 0.004995 0.000000 0.031163 0.000000
# 6 0.000000 0.000000 0.000000 0.006471 0.000000 0.028700
#
#
# Mechanical properties :
#
#
# Convention : Reuss Voigt Hill
#
# Bulk Modulus (GPa) = 36.72822 36.96908 36.84865
# Shear Modulus (GPa) = 31.38082 34.80914 33.09498
#
# Velocity S-wave (km/s) = 3.71212 3.90964 3.81216
# Velocity P-wave (km/s) = 5.87376 6.05096 5.96302
#
# Compressibility (1/GPa) = 0.02722702
#
# Stress axis : x y z
#
# Youngs Moduli (GPa) = 60.42192 65.62276 71.84846
#
# Poissons Ratio (x) = 0.37475 0.16196
# Poissons Ratio (y) = 0.34505 0.09162
# Poissons Ratio (z) = 0.13620 0.08368
#
# Static dielectric constant tensor:
#      x y z
#    x 1.946280 0.000000 -0.026790 
#    y 0.000000 1.854350 0.000000 
#    z -0.026790 0.000000 1.891490 
# 
# From -- ./inp_files/230122.got.cif
#   From: 2010.05.17/outbox.cif.g08.bks.cpg/sg15_116_cif.got.tgz:230122.got - 2010.06.03 18:47:42.
