data_PCOD9267892
_publ_section_title
;
Structure prediction by ZEFSAII (Michael W. Deem and Ramdas Pophale) SiO2 
 PCOD9267892
Probable space group: C 2/C
;
_chemical_formula_sum "Si O2"
_cell_formula_units_Z 48
_cell_length_a 7.692101
_cell_length_b 16.038609
_cell_length_c 16.424758
_cell_angle_alpha 90.000000
_cell_angle_beta 94.420045
_cell_angle_gamma 90.000000
_cell_volume 2020.305641
_symmetry_space_group_name_H-M "C 2/C"
_symmetry_group_IT_number 15
_symmetry_cell_setting 'monoclinic'
loop_
_space_group_symop_operation_xyz
x,y,z
-x,y,1/2-z
-x,-y,-z
x,-y,1/2+z
1/2+x,1/2+y,z
1/2-x,1/2+y,1/2-z
1/2-x,1/2-y,-z
1/2+x,1/2-y,1/2+z
loop_
_atom_site_type_symbol
_atom_site_label
_atom_site_fract_x
_atom_site_fract_y
_atom_site_fract_z
Si Si1 0.000000 0.171623 0.750000
Si Si2 0.415056 0.569670 0.898248
Si Si3 0.680368 0.197599 0.366833
Si Si4 0.791624 0.498868 0.388977
Si Si5 0.000418 0.222134 0.481127
Si Si6 0.592281 0.894986 0.463769
Si Si7 0.500000 0.940877 0.750000
O O1 0.095777 0.116584 0.687217
O O2 0.137200 0.227443 0.803759
O O3 0.585222 0.512282 0.895166
O O4 0.220168 0.544402 0.915757
O O5 0.453296 0.637227 0.970863
O O6 0.878974 0.194469 0.402072
O O7 0.588138 0.223538 0.448786
O O8 0.606869 0.118363 0.316339
O O9 0.858270 0.577712 0.443464
O O10 0.896520 0.420825 0.432040
O O11 0.860513 0.509332 0.299881
O O12 0.121221 0.296593 0.449720
#
# Coordination Sequence:
#
# PCOD9267892 Si02
#       7
#     4   8   8   8   8   8   4
#     4   9  20  36  60  92 124 163 212 276 342 377
#     4  11  24  41  67  96 133 169 225 286 336 407
#     4   9  18  37  67  93 127 173 220 283 332 403
#     4  11  25  41  65  96 132 183 222 271 346 414
#     4  10  19  40  69  97 125 172 235 278 337 404
#     4  11  23  43  68  95 130 176 228 275 339 418
#     4  11  22  40  66  96 144 181 222 282 356 407
#
# _framework density 23.758782
#
# number of rings (size 3 to 8) (size 9 to 14) (size 15 to 20)
#    0.000    1.667    1.667    4.000    4.667    0.000 
#    0.000    0.000    0.000    0.000    0.000    0.000 
#    0.000    0.000    0.000    0.000    0.000    0.000 
#
# Total GULP energy -133984.082369 kJ/mol
# GULP energy per Si atom -5582.670099 kJ/mol
# Density = 2.370471 g / cm^3
# Si number density = 23.758782 Si / 1000 Ang^3
#
#
#
# Elastic Constant Matrix: (Units=GPa)
#
#
# Indices 1 2 3 4 5 6 
#
# 1 79.4566 22.2684 40.9785 0.0000 -3.1147 0.0000
# 2 22.2684 74.4954 31.8151 0.0000 13.5480 0.0000
# 3 40.9785 31.8151 132.5994 0.0000 9.7220 0.0000
# 4 0.0000 0.0000 0.0000 29.5800 0.0000 -3.9585
# 5 -3.1147 13.5480 9.7220 0.0000 39.6024 0.0000
# 6 0.0000 0.0000 0.0000 -3.9585 0.0000 15.1981
#
#
#
# Elastic Compliance Matrix: (Units=1/GPa)
#
#
# Indices 1 2 3 4 5 6 
#
# 1 0.015959 -0.003562 -0.004337 0.000000 0.003538 0.000000
# 2 -0.003562 0.016511 -0.002471 0.000000 -0.005322 0.000000
# 3 -0.004337 -0.002471 0.009611 0.000000 -0.001855 0.000000
# 4 0.000000 0.000000 0.000000 0.035028 0.000000 0.009123
# 5 0.003538 -0.005322 -0.001855 0.000000 0.027805 0.000000
# 6 0.000000 0.000000 0.000000 0.009123 0.000000 0.068174
#
#
# Mechanical properties :
#
#
# Convention : Reuss Voigt Hill
#
# Bulk Modulus (GPa) = 46.85513 52.96392 49.90953
# Shear Modulus (GPa) = 24.88292 29.64205 27.26249
#
# Velocity S-wave (km/s) = 3.23974 3.53601 3.39111
# Velocity P-wave (km/s) = 5.81021 6.24595 6.03201
#
# Compressibility (1/GPa) = 0.02134238
#
# Stress axis : x y z
#
# Youngs Moduli (GPa) = 62.66033 60.56401 104.05211
#
# Poissons Ratio (x) = 0.21572 0.45125
# Poissons Ratio (y) = 0.22319 0.25708
# Poissons Ratio (z) = 0.27174 0.14963
#
# Static dielectric constant tensor:
#      x y z
#    x 2.032740 0.000000 -0.058790 
#    y 0.000000 1.939390 0.000000 
#    z -0.058790 0.000000 1.896660 
# 
# From -- ./inp_files/134885.got.cif
#   From: 2010.05.17/outbox.cif.g08.bks.cpg/sg15_68_cif.got.tgz:134885.got - 2010.06.03 18:47:42.
