data_PCOD9267592
_publ_section_title
;
Structure prediction by ZEFSAII (Michael W. Deem and Ramdas Pophale) SiO2 
 PCOD9267592
Probable space group: C 2/C
;
_chemical_formula_sum "Si O2"
_cell_formula_units_Z 64
_cell_length_a 9.229759
_cell_length_b 22.925369
_cell_length_c 13.396283
_cell_angle_alpha 90.000000
_cell_angle_beta 65.347091
_cell_angle_gamma 90.000000
_cell_volume 2576.225343
_symmetry_space_group_name_H-M "C 2/C"
_symmetry_group_IT_number 15
_symmetry_cell_setting 'monoclinic'
loop_
_space_group_symop_operation_xyz
x,y,z
-x,y,1/2-z
-x,-y,-z
x,-y,1/2+z
1/2+x,1/2+y,z
1/2-x,1/2+y,1/2-z
1/2-x,1/2-y,-z
1/2+x,1/2-y,1/2+z
loop_
_atom_site_type_symbol
_atom_site_label
_atom_site_fract_x
_atom_site_fract_y
_atom_site_fract_z
Si Si1 0.660358 0.509287 0.135759
Si Si2 0.604259 0.936548 0.316133
Si Si3 0.033512 0.874878 0.623727
Si Si4 0.984808 0.754768 0.637348
Si Si5 0.388272 0.654460 0.683869
Si Si6 0.511244 0.144639 0.009754
Si Si7 0.333546 0.401475 0.513918
Si Si8 0.852958 0.712435 0.217364
O O1 0.500000 0.501769 0.250000
O O2 0.804263 0.492443 0.167392
O O3 0.656647 0.572179 0.086446
O O4 0.667776 0.462167 0.044495
O O5 0.500000 0.949066 0.250000
O O6 0.736727 0.886666 0.249337
O O7 0.503587 0.909165 0.436018
O O8 0.000000 0.866052 0.750000
O O9 0.095095 0.809856 0.577559
O O10 0.873123 0.902522 0.619051
O O11 0.984822 0.700955 0.563753
O O12 0.812840 0.786209 0.677442
O O13 0.000000 0.737496 0.750000
O O14 0.500000 0.653219 0.750000
O O15 0.501343 0.628507 0.567679
O O16 0.353687 0.721946 0.671521
O O17 0.679476 0.133990 0.020342
O O18 0.381960 0.161675 0.129633
O O19 0.000000 0.709695 0.250000
#
# Coordination Sequence:
#
# PCOD9267592 Si02
#       8
#     8   8   8   8   8   8   8   8
#     4  10  19  39  67  94 120 164 229 281 337 389
#     4  11  21  39  64  99 134 164 219 290 344 390
#     4  10  23  38  59  91 124 167 219 281 325 387
#     4  11  23  42  58  92 141 180 225 267 327 415
#     4  11  18  36  61  95 127 170 224 275 319 402
#     4  11  22  39  65  96 140 181 217 271 344 406
#     4  11  19  37  67  98 125 167 228 282 328 396
#     4  11  23  36  60  92 135 184 226 265 333 409
#
# _framework density 24.842547
#
# number of rings (size 3 to 8) (size 9 to 14) (size 15 to 20)
#    0.000    1.250    5.000    3.000    0.000    2.000 
#    4.500    0.000    0.000   16.500    0.000    0.000 
#    0.000    0.000    0.000    0.000    0.000    0.000 
#
# Total GULP energy -178965.475989 kJ/mol
# GULP energy per Si atom -5592.671125 kJ/mol
# Density = 2.478600 g / cm^3
# Si number density = 24.842547 Si / 1000 Ang^3
#
#
#
# Elastic Constant Matrix: (Units=GPa)
#
#
# Indices 1 2 3 4 5 6 
#
# 1 144.4726 34.3315 23.8410 0.0000 30.3039 0.0000
# 2 34.3315 118.6476 -1.6200 0.0000 9.1964 0.0000
# 3 23.8410 -1.6200 46.6472 0.0000 10.3086 0.0000
# 4 0.0000 0.0000 0.0000 13.4757 0.0000 6.1160
# 5 30.3039 9.1964 10.3086 0.0000 52.1785 0.0000
# 6 0.0000 0.0000 0.0000 6.1160 0.0000 12.8474
#
#
#
# Elastic Compliance Matrix: (Units=1/GPa)
#
#
# Indices 1 2 3 4 5 6 
#
# 1 0.008942 -0.002326 -0.003758 0.000000 -0.004041 0.000000
# 2 -0.002326 0.009169 0.001637 0.000000 -0.000589 0.000000
# 3 -0.003758 0.001637 0.024046 0.000000 -0.002857 0.000000
# 4 0.000000 0.000000 0.000000 0.094659 0.000000 -0.045062
# 5 -0.004041 -0.000589 -0.002857 0.000000 0.022180 0.000000
# 6 0.000000 0.000000 0.000000 -0.045062 0.000000 0.099289
#
#
# Mechanical properties :
#
#
# Convention : Reuss Voigt Hill
#
# Bulk Modulus (GPa) = 30.06172 46.98584 38.52378
# Shear Modulus (GPa) = 17.96837 32.58132 25.27484
#
# Velocity S-wave (km/s) = 2.69232 3.62541 3.19313
# Velocity P-wave (km/s) = 4.66819 6.03981 5.39774
#
# Compressibility (1/GPa) = 0.03326490
#
# Stress axis : x y z
#
# Youngs Moduli (GPa) = 111.83008 109.06036 41.58639
#
# Poissons Ratio (x) = 0.25363 0.15628
# Poissons Ratio (y) = 0.26007 -0.06808
# Poissons Ratio (z) = 0.42026 -0.17855
#
# Static dielectric constant tensor:
#      x y z
#    x 2.351650 0.000000 0.304490 
#    y 0.000000 2.016000 0.000000 
#    z 0.304490 0.000000 2.505580 
# 
# From -- ./inp_files/138576.got.cif
#   From: 2010.05.17/outbox.cif.g08.bks.cpg/sg15_70_cif.got.tgz:138576.got - 2010.06.03 18:47:42.
