data_PCOD9267764
_publ_section_title
;
Structure prediction by ZEFSAII (Michael W. Deem and Ramdas Pophale) SiO2 
 PCOD9267764
Probable space group: C 2/C
;
_chemical_formula_sum "Si O2"
_cell_formula_units_Z 56
_cell_length_a 9.427655
_cell_length_b 14.832913
_cell_length_c 23.174346
_cell_angle_alpha 90.000000
_cell_angle_beta 122.639226
_cell_angle_gamma 90.000000
_cell_volume 2728.931883
_symmetry_space_group_name_H-M "C 2/C"
_symmetry_group_IT_number 15
_symmetry_cell_setting 'monoclinic'
loop_
_space_group_symop_operation_xyz
x,y,z
-x,y,1/2-z
-x,-y,-z
x,-y,1/2+z
1/2+x,1/2+y,z
1/2-x,1/2+y,1/2-z
1/2-x,1/2-y,-z
1/2+x,1/2-y,1/2+z
loop_
_atom_site_type_symbol
_atom_site_label
_atom_site_fract_x
_atom_site_fract_y
_atom_site_fract_z
Si Si1 0.268629 0.375145 0.941573
Si Si2 0.831145 0.432485 0.132147
Si Si3 0.433887 0.744748 0.675792
Si Si4 0.192126 0.015457 0.936079
Si Si5 0.147488 0.835878 0.999422
Si Si6 0.812278 0.583213 0.849052
Si Si7 0.854690 0.927423 0.300471
O O1 0.232814 0.469794 0.902287
O O2 0.121168 0.309703 0.887623
O O3 0.445238 0.333862 0.958066
O O4 0.282433 0.403985 0.011732
O O5 0.808047 0.430676 0.195133
O O6 0.008662 0.411372 0.141972
O O7 0.704239 0.360371 0.076498
O O8 0.500000 0.789884 0.750000
O O9 0.275141 0.678928 0.655424
O O10 0.579305 0.674768 0.690625
O O11 0.317393 0.028357 0.909773
O O12 0.007729 0.022774 0.866119
O O13 0.200638 0.921610 0.971685
O O14 0.250000 0.750000 0.000000
O O15 0.690767 0.540217 0.773588
#
# Coordination Sequence:
#
# PCOD9267764 Si02
#       7
#     8   8   8   8   8   8   8
#     4  11  21  39  65  88 123 163 208 255 301 376
#     4  11  21  40  62  90 123 161 210 248 313 371
#     4   9  21  39  60  89 123 160 206 257 309 365
#     4  10  20  41  62  90 126 161 210 253 312 370
#     4  11  22  39  63  89 126 161 205 266 313 359
#     4  10  22  37  63  93 124 161 202 259 308 366
#     4  10  19  40  64  87 125 163 202 252 311 370
#
# _framework density 20.520849999999999
#
# number of rings (size 3 to 8) (size 9 to 14) (size 15 to 20)
#    0.000    1.714    2.857    3.429    0.000    5.714 
#    5.143    0.000    0.000    1.714    0.000    0.000 
#    0.000    0.000    0.000    0.000    0.000    0.000 
#
# Total GULP energy -156216.308150 kJ/mol
# GULP energy per Si atom -5579.153863 kJ/mol
# Density = 2.047414 g / cm^3
# Si number density = 20.520850 Si / 1000 Ang^3
#
#
#
# Elastic Constant Matrix: (Units=GPa)
#
#
# Indices 1 2 3 4 5 6 
#
# 1 106.5087 4.9446 24.1734 0.0000 -15.1859 0.0000
# 2 4.9446 51.3325 29.7907 0.0000 -11.7288 0.0000
# 3 24.1734 29.7907 103.1080 0.0000 -18.9752 0.0000
# 4 0.0000 0.0000 0.0000 6.7775 0.0000 1.8862
# 5 -15.1859 -11.7288 -18.9752 0.0000 35.5828 0.0000
# 6 0.0000 0.0000 0.0000 1.8862 0.0000 12.4731
#
#
#
# Elastic Compliance Matrix: (Units=1/GPa)
#
#
# Indices 1 2 3 4 5 6 
#
# 1 0.010327 0.001027 -0.002045 0.000000 0.003655 0.000000
# 2 0.001027 0.024193 -0.006301 0.000000 0.005053 0.000000
# 3 -0.002045 -0.006301 0.012702 0.000000 0.003824 0.000000
# 4 0.000000 0.000000 0.000000 0.154030 0.000000 -0.023293
# 5 0.003655 0.005053 0.003824 0.000000 0.033368 0.000000
# 6 0.000000 0.000000 0.000000 -0.023293 0.000000 0.083695
#
#
# Mechanical properties :
#
#
# Convention : Reuss Voigt Hill
#
# Bulk Modulus (GPa) = 30.68963 42.08519 36.38741
# Shear Modulus (GPa) = 14.54275 24.43605 19.48940
#
# Velocity S-wave (km/s) = 2.66500 3.45453 3.08512
# Velocity P-wave (km/s) = 4.94544 6.03860 5.51915
#
# Compressibility (1/GPa) = 0.03258429
#
# Stress axis : x y z
#
# Youngs Moduli (GPa) = 96.83797 41.33393 78.72570
#
# Poissons Ratio (x) = -0.04247 0.16101
# Poissons Ratio (y) = -0.09949 0.49605
# Poissons Ratio (z) = 0.19805 0.26045
#
# Static dielectric constant tensor:
#      x y z
#    x 1.763580 0.000000 0.008440 
#    y 0.000000 1.716450 0.000000 
#    z 0.008440 0.000000 1.782620 
# 
# From -- ./inp_files/264794.got.cif
#   From: 2010.05.17/outbox.cif.g08.bks.cpg/sg15_133_cif.got.tgz:264794.got - 2010.06.03 18:47:42.
