data_PCOD9267278
_publ_section_title
;
Structure prediction by ZEFSAII (Michael W. Deem and Ramdas Pophale) SiO2 
 PCOD9267278
Probable space group: C 2/C
;
_chemical_formula_sum "Si O2"
_cell_formula_units_Z 44
_cell_length_a 21.550742
_cell_length_b 6.582743
_cell_length_c 19.701890
_cell_angle_alpha 90.000000
_cell_angle_beta 124.808623
_cell_angle_gamma 90.000000
_cell_volume 2294.846609
_symmetry_space_group_name_H-M "C 2/C"
_symmetry_group_IT_number 15
_symmetry_cell_setting 'monoclinic'
loop_
_space_group_symop_operation_xyz
x,y,z
-x,y,1/2-z
-x,-y,-z
x,-y,1/2+z
1/2+x,1/2+y,z
1/2-x,1/2+y,1/2-z
1/2-x,1/2-y,-z
1/2+x,1/2-y,1/2+z
loop_
_atom_site_type_symbol
_atom_site_label
_atom_site_fract_x
_atom_site_fract_y
_atom_site_fract_z
Si Si1 0.000000 0.320212 0.750000
Si Si2 0.987029 0.723227 0.665860
Si Si3 0.227193 0.474393 0.147694
Si Si4 0.174666 0.635841 0.976662
Si Si5 0.352140 0.794530 0.272274
Si Si6 0.662392 0.845478 0.847341
O O1 0.009026 0.478024 0.818875
O O2 0.082452 0.224637 0.794544
O O3 0.902741 0.758652 0.586925
O O4 0.000000 0.806775 0.750000
O O5 0.060985 0.779332 0.669675
O O6 0.292791 0.618200 0.218551
O O7 0.174300 0.401732 0.175507
O O8 0.269911 0.287216 0.138554
O O9 0.181996 0.588280 0.060343
O O10 0.173789 0.433265 0.929618
O O11 0.250000 0.750000 0.000000
O O12 0.347277 0.956296 0.207070
#
# Coordination Sequence:
#
# PCOD9267278 Si02
#       6
#     4   8   8   8   8   8
#     4   6  14  32  56  78 108 144 184 234 276 342
#     4   8  16  35  60  78 117 153 188 240 293 345
#     4  12  23  35  63  86 119 156 196 245 289 355
#     4  11  20  37  63  90 115 153 196 248 292 340
#     4  11  21  38  59  85 117 160 192 236 300 346
#     4  10  19  39  57  86 115 148 199 235 289 348
#
# _framework density 19.173396
#
# number of rings (size 3 to 8) (size 9 to 14) (size 15 to 20)
#    0.545    1.455    5.455    0.545    0.000    0.727 
#    4.909    0.000    0.000    2.182    0.000    0.000 
#    0.000    0.000    0.000    0.000    0.000    0.000 
#
# Total GULP energy -122570.543508 kJ/mol
# GULP energy per Si atom -5571.388341 kJ/mol
# Density = 1.912976 g / cm^3
# Si number density = 19.173396 Si / 1000 Ang^3
#
#
#
# Elastic Constant Matrix: (Units=GPa)
#
#
# Indices 1 2 3 4 5 6 
#
# 1 154.4521 20.3529 68.9629 0.0000 18.6295 0.0000
# 2 20.3529 28.9055 16.1786 0.0000 4.6512 0.0000
# 3 68.9629 16.1786 107.3824 0.0000 12.3965 0.0000
# 4 0.0000 0.0000 0.0000 18.2145 0.0000 -2.7764
# 5 18.6295 4.6512 12.3965 0.0000 40.6031 0.0000
# 6 0.0000 0.0000 0.0000 -2.7764 0.0000 20.2553
#
#
#
# Elastic Compliance Matrix: (Units=1/GPa)
#
#
# Indices 1 2 3 4 5 6 
#
# 1 0.009612 -0.003368 -0.005391 0.000000 -0.002379 0.000000
# 2 -0.003368 0.039246 -0.003534 0.000000 -0.001871 0.000000
# 3 -0.005391 -0.003534 0.013449 0.000000 -0.001228 0.000000
# 4 0.000000 0.000000 0.000000 0.056073 0.000000 0.007686
# 5 -0.002379 -0.001871 -0.001228 0.000000 0.026309 0.000000
# 6 0.000000 0.000000 0.000000 0.007686 0.000000 0.050423
#
#
# Mechanical properties :
#
#
# Convention : Reuss Voigt Hill
#
# Bulk Modulus (GPa) = 26.51029 55.74766 41.12897
# Shear Modulus (GPa) = 21.52640 28.16429 24.84535
#
# Velocity S-wave (km/s) = 3.35434 3.83681 3.60366
# Velocity P-wave (km/s) = 5.37203 6.98333 6.22999
#
# Compressibility (1/GPa) = 0.03772120
#
# Stress axis : x y z
#
# Youngs Moduli (GPa) = 104.03229 25.48023 74.35492
#
# Poissons Ratio (x) = 0.08582 0.40086
# Poissons Ratio (y) = 0.35039 0.26276
# Poissons Ratio (z) = 0.56086 0.09004
#
# Static dielectric constant tensor:
#      x y z
#    x 1.676340 0.000000 0.037940 
#    y 0.000000 1.718500 0.000000 
#    z 0.037940 0.000000 1.682210 
# 
# From -- ./inp_files/224366.got.cif
#   From: 2010.05.17/outbox.cif.g08.bks.cpg/sg15_113_cif.got.tgz:224366.got - 2010.06.03 18:47:42.
