data_PCOD9267038
_publ_section_title
;
Structure prediction by ZEFSAII (Michael W. Deem and Ramdas Pophale) SiO2 
 PCOD9267038
Probable space group: C 2/C
;
_chemical_formula_sum "Si O2"
_cell_formula_units_Z 64
_cell_length_a 14.257793
_cell_length_b 13.415522
_cell_length_c 23.586694
_cell_angle_alpha 90.000000
_cell_angle_beta 40.536670
_cell_angle_gamma 90.000000
_cell_volume 2932.220334
_symmetry_space_group_name_H-M "C 2/C"
_symmetry_group_IT_number 15
_symmetry_cell_setting 'monoclinic'
loop_
_space_group_symop_operation_xyz
x,y,z
-x,y,1/2-z
-x,-y,-z
x,-y,1/2+z
1/2+x,1/2+y,z
1/2-x,1/2+y,1/2-z
1/2-x,1/2-y,-z
1/2+x,1/2-y,1/2+z
loop_
_atom_site_type_symbol
_atom_site_label
_atom_site_fract_x
_atom_site_fract_y
_atom_site_fract_z
Si Si1 0.354534 0.592685 0.940809
Si Si2 0.365987 0.081239 0.276393
Si Si3 0.663780 0.945514 0.356493
Si Si4 0.848071 0.693758 0.852440
Si Si5 0.171115 0.086286 0.839455
Si Si6 0.079488 0.493266 0.100114
Si Si7 0.344279 0.417388 0.851464
Si Si8 0.156627 0.796533 0.159672
O O1 0.502894 0.595216 0.906191
O O2 0.354777 0.499008 0.896553
O O3 0.341597 0.691118 0.908342
O O4 0.213745 0.566895 0.040830
O O5 0.500000 0.033312 0.250000
O O6 0.343783 0.189246 0.311332
O O7 0.220557 0.019588 0.342750
O O8 0.442700 0.064044 0.181171
O O9 0.745026 0.912020 0.260029
O O10 0.492769 0.954230 0.424792
O O11 0.710077 0.858024 0.377697
O O12 0.734361 0.042294 0.353808
O O13 0.733499 0.662870 0.856633
O O14 0.872456 0.606298 0.887640
O O15 0.813633 0.805985 0.888301
O O16 0.000000 0.698915 0.750000
O O17 0.500000 0.414841 0.750000
O O18 0.000000 0.841705 0.250000
#
# Coordination Sequence:
#
# PCOD9267038 Si02
#       8
#     8   8   8   8   8   8   8   8
#     4  11  23  41  63  91 129 162 204 258 320 357
#     4  10  20  40  63  86 120 162 208 249 299 363
#     4  10  19  38  64  90 117 162 213 246 304 365
#     4  11  21  39  62  90 124 160 211 256 306 364
#     4  11  19  37  63  89 115 167 210 246 299 377
#     4  11  23  40  63  91 132 162 201 262 316 365
#     4  10  21  38  63  93 121 157 210 264 298 368
#     4  10  20  38  65  91 120 159 210 261 293 372
#
# _framework density 21.826461999999999
#
# number of rings (size 3 to 8) (size 9 to 14) (size 15 to 20)
#    0.000    1.500    6.250    0.750    0.000    6.000 
#    0.000    3.750    2.750    0.000    0.000    0.000 
#    0.000    0.000    0.000    0.000    0.000    0.000 
#
# Total GULP energy -178360.656404 kJ/mol
# GULP energy per Si atom -5573.770513 kJ/mol
# Density = 2.177678 g / cm^3
# Si number density = 21.826462 Si / 1000 Ang^3
#
#
#
# Elastic Constant Matrix: (Units=GPa)
#
#
# Indices 1 2 3 4 5 6 
#
# 1 161.3320 33.6374 8.1000 0.0000 -22.8669 0.0000
# 2 33.6374 127.2628 14.4265 0.0000 4.5947 0.0000
# 3 8.1000 14.4265 28.4726 0.0000 -9.7973 0.0000
# 4 0.0000 0.0000 0.0000 -1.1487 0.0000 17.8815
# 5 -22.8669 4.5947 -9.7973 0.0000 21.0156 0.0000
# 6 0.0000 0.0000 0.0000 17.8815 0.0000 2.6743
#
#
#
# Elastic Compliance Matrix: (Units=1/GPa)
#
#
# Indices 1 2 3 4 5 6 
#
# 1 0.008200 -0.002887 0.002879 0.000000 0.010896 0.000000
# 2 -0.002887 0.009729 -0.007053 0.000000 -0.008557 0.000000
# 3 0.002879 -0.007053 0.047028 0.000000 0.026599 0.000000
# 4 0.000000 0.000000 0.000000 -0.008284 0.000000 0.055392
# 5 0.010896 -0.008557 0.026599 0.000000 0.073711 0.000000
# 6 0.000000 0.000000 0.000000 0.055392 0.000000 0.003558
#
#
# Mechanical properties :
#
#
# Convention : Reuss Voigt Hill
#
# Bulk Modulus (GPa) = 19.67064 47.71059 33.69061
# Shear Modulus (GPa) = 30.30129 21.90179 26.10154
#
# Velocity S-wave (km/s) = 3.73001 3.17117 3.46188
# Velocity P-wave (km/s) = 5.25190 5.94263 5.60791
#
# Compressibility (1/GPa) = 0.05083718
#
# Stress axis : x y z
#
# Youngs Moduli (GPa) = 121.94784 102.78234 21.26373
#
# Poissons Ratio (x) = 0.29676 -0.06123
# Poissons Ratio (y) = 0.35209 0.14996
# Poissons Ratio (z) = -0.35114 0.72488
#
# Static dielectric constant tensor:
#      x y z
#    x 1.901750 0.000000 0.163970 
#    y 0.000000 1.820110 0.000000 
#    z 0.163970 0.000000 2.052030 
# 
# From -- ./inp_files/274337.got.cif
#   From: 2010.05.17/outbox.cif.g08.bks.cpg/sg15_138_cif.got.tgz:274337.got - 2010.06.03 18:47:42.
