data_PCOD9267803
_publ_section_title
;
Structure prediction by ZEFSAII (Michael W. Deem and Ramdas Pophale) SiO2 
 PCOD9267803
Probable space group: C 2/C
;
_chemical_formula_sum "Si O2"
_cell_formula_units_Z 56
_cell_length_a 13.713315
_cell_length_b 21.762048
_cell_length_c 8.897293
_cell_angle_alpha 90.000000
_cell_angle_beta 60.127124
_cell_angle_gamma 90.000000
_cell_volume 2302.425790
_symmetry_space_group_name_H-M "C 2/C"
_symmetry_group_IT_number 15
_symmetry_cell_setting 'monoclinic'
loop_
_space_group_symop_operation_xyz
x,y,z
-x,y,1/2-z
-x,-y,-z
x,-y,1/2+z
1/2+x,1/2+y,z
1/2-x,1/2+y,1/2-z
1/2-x,1/2-y,-z
1/2+x,1/2-y,1/2+z
loop_
_atom_site_type_symbol
_atom_site_label
_atom_site_fract_x
_atom_site_fract_y
_atom_site_fract_z
Si Si1 0.910819 0.631541 0.932793
Si Si2 0.115318 0.586088 0.212739
Si Si3 0.138728 0.259452 0.183454
Si Si4 0.268022 0.813381 0.080708
Si Si5 0.922176 0.099021 0.637453
Si Si6 0.353169 0.536362 0.109890
Si Si7 0.649705 0.372462 0.623332
O O1 0.929982 0.704992 0.897112
O O2 0.000000 0.602498 0.750000
O O3 0.914007 0.610761 0.099422
O O4 0.782266 0.622528 0.982344
O O5 0.229993 0.547999 0.138064
O O6 0.000000 0.554455 0.250000
O O7 0.150509 0.642447 0.078187
O O8 0.170530 0.296603 0.309268
O O9 0.120071 0.188766 0.239178
O O10 0.250000 0.250000 0.000000
O O11 0.153101 0.852786 0.206038
O O12 0.250000 0.750000 0.000000
O O13 0.918007 0.130861 0.477415
O O14 0.861247 0.034946 0.642650
O O15 0.950680 0.070384 0.935069
O O16 0.369000 0.569178 0.258232
#
# Coordination Sequence:
#
# PCOD9267803 Si02
#       7
#     8   8   8   8   8   8   8
#     4  10  20  39  70  99 137 186 238 299 372 466
#     4  11  26  47  71 107 152 191 249 325 389 467
#     4  10  19  40  65  99 138 188 247 294 372 462
#     4  12  24  44  73 113 156 198 246 319 404 464
#     4  11  24  44  78 106 148 195 250 324 384 472
#     4  10  25  47  71 111 144 196 260 313 386 469
#     4  10  21  42  70  99 139 183 258 312 372 468
#
# _framework density 24.322174
#
# number of rings (size 3 to 8) (size 9 to 14) (size 15 to 20)
#    0.000    1.429    2.857    3.857    2.000    1.714 
#    5.143    1.429    0.000    0.000    0.000    0.000 
#    0.000    0.000    0.000    0.000    0.000    0.000 
#
# Total GULP energy -156054.328214 kJ/mol
# GULP energy per Si atom -5573.368865 kJ/mol
# Density = 2.426682 g / cm^3
# Si number density = 24.322174 Si / 1000 Ang^3
#
#
#
# Elastic Constant Matrix: (Units=GPa)
#
#
# Indices 1 2 3 4 5 6 
#
# 1 165.6575 44.8681 47.3120 0.0000 -16.7020 0.0000
# 2 44.8681 120.6638 55.5658 0.0000 -3.5960 0.0000
# 3 47.3120 55.5658 140.3632 0.0000 -15.0805 0.0000
# 4 0.0000 0.0000 0.0000 19.7815 0.0000 -12.5895
# 5 -16.7020 -3.5960 -15.0805 0.0000 43.6461 0.0000
# 6 0.0000 0.0000 0.0000 -12.5895 0.0000 4.8604
#
#
#
# Elastic Compliance Matrix: (Units=1/GPa)
#
#
# Indices 1 2 3 4 5 6 
#
# 1 0.007183 -0.001953 -0.001423 0.000000 0.002096 0.000000
# 2 -0.001953 0.010680 -0.003692 0.000000 -0.001143 0.000000
# 3 -0.001423 -0.003692 0.009320 0.000000 0.002372 0.000000
# 4 0.000000 0.000000 0.000000 -0.077953 0.000000 -0.201916
# 5 0.002096 -0.001143 0.002372 0.000000 0.024439 0.000000
# 6 0.000000 0.000000 0.000000 -0.201916 0.000000 -0.317264
#
#
# Mechanical properties :
#
#
# Convention : Reuss Voigt Hill
#
# Bulk Modulus (GPa) = 76.64689 80.24181 78.44435
# Shear Modulus (GPa) = -15.37949 32.25351 8.43701
#
# Velocity S-wave (km/s) = -2.51733 3.64551 1.86451
# Velocity P-wave (km/s) = 4.80960 7.12618 6.07926
#
# Compressibility (1/GPa) = 0.01304684
#
# Stress axis : x y z
#
# Youngs Moduli (GPa) = 139.21128 93.63193 107.29095
#
# Poissons Ratio (x) = 0.18290 0.15265
# Poissons Ratio (y) = 0.27194 0.39616
# Poissons Ratio (z) = 0.19806 0.34572
#
# Static dielectric constant tensor:
#      x y z
#    x 1.980700 0.000000 0.088350 
#    y 0.000000 2.082490 0.000000 
#    z 0.088350 0.000000 1.817010 
# 
# From -- ./inp_files/57451.got.cif
#   From: 2010.05.17/outbox.cif.g08.bks.cpg/sg15_29_cif.got.tgz:57451.got - 2010.06.03 18:47:42.
