data_PCOD9267175
_publ_section_title
;
Structure prediction by ZEFSAII (Michael W. Deem and Ramdas Pophale) SiO2 
 PCOD9267175
Probable space group: C 2/C
;
_chemical_formula_sum "Si O2"
_cell_formula_units_Z 40
_cell_length_a 16.039580
_cell_length_b 10.114690
_cell_length_c 27.080925
_cell_angle_alpha 90.000000
_cell_angle_beta 24.961799
_cell_angle_gamma 90.000000
_cell_volume 1854.111388
_symmetry_space_group_name_H-M "C 2/C"
_symmetry_group_IT_number 15
_symmetry_cell_setting 'monoclinic'
loop_
_space_group_symop_operation_xyz
x,y,z
-x,y,1/2-z
-x,-y,-z
x,-y,1/2+z
1/2+x,1/2+y,z
1/2-x,1/2+y,1/2-z
1/2-x,1/2-y,-z
1/2+x,1/2-y,1/2+z
loop_
_atom_site_type_symbol
_atom_site_label
_atom_site_fract_x
_atom_site_fract_y
_atom_site_fract_z
Si Si1 0.187514 0.559999 0.426337
Si Si2 0.610336 0.150517 0.045572
Si Si3 0.110427 0.810394 0.532613
Si Si4 0.797657 0.212977 0.279449
Si Si5 0.462547 0.021597 0.823649
O O1 0.230676 0.452000 0.445655
O O2 0.113148 0.696255 0.490728
O O3 0.330363 0.604938 0.305197
O O4 0.000000 0.500000 0.500000
O O5 0.434952 0.219840 0.108486
O O6 0.507983 0.064362 0.143605
O O7 0.750000 0.250000 0.000000
O O8 0.250000 0.750000 0.500000
O O9 0.231931 0.934880 0.448168
O O10 0.907493 0.829968 0.670154
O O11 0.898848 0.348207 0.244401
O O12 0.500000 0.959417 0.750000
#
# Coordination Sequence:
#
# PCOD9267175 Si02
#       5
#     8   8   8   8   8
#     4  10  20  40  68  96 131 169 230 265 324 402
#     4  11  25  46  62 100 143 171 214 283 334 394
#     4  10  19  38  66  97 125 168 226 274 314 391
#     4  10  22  41  68  96 128 180 222 270 327 395
#     4  11  22  44  68  97 130 172 226 270 332 403
#
# _framework density 21.573675999999999
#
# number of rings (size 3 to 8) (size 9 to 14) (size 15 to 20)
#    0.000    1.600    6.000    0.000    0.000    1.600 
#    7.200    2.000    0.000    0.000    0.000    0.000 
#    0.000    0.000    0.000    0.000    0.000    0.000 
#
# Total GULP energy -111537.551285 kJ/mol
# GULP energy per Si atom -5576.877564 kJ/mol
# Density = 2.152457 g / cm^3
# Si number density = 21.573676 Si / 1000 Ang^3
#
#
#
# Elastic Constant Matrix: (Units=GPa)
#
#
# Indices 1 2 3 4 5 6 
#
# 1 77.6036 29.2117 2.5490 0.0004 -5.0849 -0.0004
# 2 29.2117 60.0185 20.6864 -0.0001 -1.9306 -0.0001
# 3 2.5490 20.6864 64.1794 -0.0046 2.3793 -0.0018
# 4 0.0004 -0.0001 -0.0046 31.8642 -0.0005 1.7239
# 5 -5.0849 -1.9306 2.3793 -0.0005 38.4730 0.0004
# 6 -0.0004 -0.0001 -0.0018 1.7239 0.0004 43.7692
#
#
#
# Elastic Compliance Matrix: (Units=1/GPa)
#
#
# Indices 1 2 3 4 5 6 
#
# 1 0.016122 -0.008499 0.002041 0.000000 0.001578 0.000000
# 2 -0.008499 0.023291 -0.007188 -0.000001 0.000490 0.000000
# 3 0.002041 -0.007188 0.017861 0.000002 -0.001196 0.000001
# 4 0.000000 -0.000001 0.000002 0.031450 0.000000 -0.001239
# 5 0.001578 0.000490 -0.001196 0.000000 0.026299 0.000000
# 6 0.000000 0.000000 0.000001 -0.001239 0.000000 0.022896
#
#
# Mechanical properties :
#
#
# Convention : Reuss Voigt Hill
#
# Bulk Modulus (GPa) = 33.35379 34.07728 33.71553
# Shear Modulus (GPa) = 28.53773 32.77822 30.65797
#
# Velocity S-wave (km/s) = 3.64098 3.90213 3.77381
# Velocity P-wave (km/s) = 5.75931 6.01101 5.88650
#
# Compressibility (1/GPa) = 0.02998160
#
# Stress axis : x y z
#
# Youngs Moduli (GPa) = 62.02841 42.93435 55.98659
#
# Poissons Ratio (x) = 0.36491 -0.11425
# Poissons Ratio (y) = 0.52719 0.40243
# Poissons Ratio (z) = -0.12658 0.30861
#
# Static dielectric constant tensor:
#      x y z
#    x 1.767350 0.000000 -0.002630 
#    y 0.000000 1.783520 0.000000 
#    z -0.002630 0.000000 1.864200 
# 
# From -- ./inp_files/315309.got.cif
#   From: 2010.05.17/outbox.cif.g08.bks.cpg/sg15_158_cif.got.tgz:315309.got - 2010.06.03 18:47:42.
