data_PCOD9267779
_publ_section_title
;
Structure prediction by ZEFSAII (Michael W. Deem and Ramdas Pophale) SiO2 
 PCOD9267779
Probable space group: C 2/C
;
_chemical_formula_sum "Si O2"
_cell_formula_units_Z 56
_cell_length_a 18.269440
_cell_length_b 8.703399
_cell_length_c 33.126586
_cell_angle_alpha 90.000000
_cell_angle_beta 27.103140
_cell_angle_gamma 90.000000
_cell_volume 2399.763883
_symmetry_space_group_name_H-M "C 2/C"
_symmetry_group_IT_number 15
_symmetry_cell_setting 'monoclinic'
loop_
_space_group_symop_operation_xyz
x,y,z
-x,y,1/2-z
-x,-y,-z
x,-y,1/2+z
1/2+x,1/2+y,z
1/2-x,1/2+y,1/2-z
1/2-x,1/2-y,-z
1/2+x,1/2-y,1/2+z
loop_
_atom_site_type_symbol
_atom_site_label
_atom_site_fract_x
_atom_site_fract_y
_atom_site_fract_z
Si Si1 0.916898 0.837852 0.910150
Si Si2 0.264386 0.376178 0.336941
Si Si3 0.902677 0.101890 0.640593
Si Si4 0.488451 0.040991 0.599661
Si Si5 0.220900 0.106207 0.100749
Si Si6 0.126151 0.651271 0.277672
Si Si7 0.528368 0.319038 0.480929
O O1 0.027919 0.718274 0.878711
O O2 0.923412 0.852869 0.858696
O O3 0.750000 0.750000 0.000000
O O4 0.949845 0.001649 0.913968
O O5 0.323010 0.490562 0.342434
O O6 0.386947 0.256987 0.255727
O O7 0.173007 0.478723 0.347556
O O8 0.120429 0.275911 0.427886
O O9 0.846433 0.222441 0.701137
O O10 0.951035 0.193427 0.577047
O O11 0.762078 0.977004 0.702355
O O12 0.642744 0.026945 0.494913
O O13 0.506639 0.947963 0.632528
O O14 0.313849 0.252837 0.073941
O O15 0.500000 0.500000 0.500000
#
# Coordination Sequence:
#
# PCOD9267779 Si02
#       7
#     8   8   8   8   8   8   8
#     4  10  21  42  66  89 124 163 208 258 312 383
#     4  11  20  37  60  94 125 160 210 258 307 366
#     4  12  22  39  65  94 120 167 213 260 310 376
#     4  10  19  40  64  96 116 163 213 257 303 375
#     4  10  22  39  66  91 126 160 205 265 315 366
#     4  12  22  36  66  91 130 161 218 259 306 376
#     4  11  20  36  63  97 120 155 212 266 304 356
#
# _framework density 23.335626999999999
#
# number of rings (size 3 to 8) (size 9 to 14) (size 15 to 20)
#    0.000    1.143    4.286    5.143    0.000    0.000 
#    0.000    8.571    3.143    0.000    0.000    0.000 
#    0.000    0.000    0.000    0.000    0.000    0.000 
#
# Total GULP energy -156258.656060 kJ/mol
# GULP energy per Si atom -5580.666288 kJ/mol
# Density = 2.328251 g / cm^3
# Si number density = 23.335627 Si / 1000 Ang^3
#
#
#
# Elastic Constant Matrix: (Units=GPa)
#
#
# Indices 1 2 3 4 5 6 
#
# 1 95.6606 22.4833 25.2926 -0.0437 33.6521 0.0040
# 2 22.4833 107.9369 23.7161 -0.0720 19.1062 0.0444
# 3 25.2926 23.7161 98.1316 0.1019 26.9040 -0.0357
# 4 -0.0437 -0.0720 0.1019 30.8115 -0.0265 30.7821
# 5 33.6521 19.1062 26.9040 -0.0265 40.7134 0.0637
# 6 0.0040 0.0444 -0.0357 30.7821 0.0637 45.2632
#
#
#
# Elastic Compliance Matrix: (Units=1/GPa)
#
#
# Indices 1 2 3 4 5 6 
#
# 1 0.014853 -0.000956 -0.000433 -0.000016 -0.011543 0.000027
# 2 -0.000956 0.010324 -0.001389 0.000098 -0.003137 -0.000073
# 3 -0.000433 -0.001389 0.012654 -0.000230 -0.007353 0.000178
# 4 -0.000016 0.000098 -0.000230 0.101245 0.000293 -0.068855
# 5 -0.011543 -0.003137 -0.007353 0.000293 0.040434 -0.000258
# 6 0.000027 -0.000073 0.000178 -0.068855 -0.000258 0.068919
#
#
# Mechanical properties :
#
#
# Convention : Reuss Voigt Hill
#
# Bulk Modulus (GPa) = 30.98209 49.41257 40.19733
# Shear Modulus (GPa) = 18.88619 38.70677 28.79648
#
# Velocity S-wave (km/s) = 2.84796 4.07713 3.51666
# Velocity P-wave (km/s) = 4.91121 6.58671 5.80968
#
# Compressibility (1/GPa) = 0.03227671
#
# Stress axis : x y z
#
# Youngs Moduli (GPa) = 67.32549 96.85876 79.02813
#
# Poissons Ratio (x) = 0.09256 0.03420
# Poissons Ratio (y) = 0.06434 0.10976
# Poissons Ratio (z) = 0.02913 0.13452
#
# Static dielectric constant tensor:
#      x y z
#    x 1.969860 0.000000 -0.016270 
#    y 0.000000 1.898390 0.000000 
#    z -0.016270 0.000000 1.975660 
# 
# From -- ./inp_files/315495.got.cif
#   From: 2010.05.17/outbox.cif.g08.bks.cpg/sg15_158_cif.got.tgz:315495.got - 2010.06.03 18:47:42.
