data_PCOD9267751
_publ_section_title
;
Structure prediction by ZEFSAII (Michael W. Deem and Ramdas Pophale) SiO2 
 PCOD9267751
Probable space group: C 2/C
;
_chemical_formula_sum "Si O2"
_cell_formula_units_Z 56
_cell_length_a 19.713912
_cell_length_b 12.178005
_cell_length_c 11.806770
_cell_angle_alpha 90.000000
_cell_angle_beta 78.416103
_cell_angle_gamma 90.000000
_cell_volume 2776.789161
_symmetry_space_group_name_H-M "C 2/C"
_symmetry_group_IT_number 15
_symmetry_cell_setting 'monoclinic'
loop_
_space_group_symop_operation_xyz
x,y,z
-x,y,1/2-z
-x,-y,-z
x,-y,1/2+z
1/2+x,1/2+y,z
1/2-x,1/2+y,1/2-z
1/2-x,1/2-y,-z
1/2+x,1/2-y,1/2+z
loop_
_atom_site_type_symbol
_atom_site_label
_atom_site_fract_x
_atom_site_fract_y
_atom_site_fract_z
Si Si1 0.040651 0.613545 0.127918
Si Si2 0.696809 0.279980 0.837599
Si Si3 0.160694 0.457129 0.441390
Si Si4 0.183070 0.037929 0.528113
Si Si5 0.143467 0.784720 0.205129
Si Si6 0.401160 0.171786 0.066914
Si Si7 0.322405 0.706623 0.423696
O O1 0.085538 0.716192 0.157453
O O2 0.000000 0.566557 0.250000
O O3 0.981315 0.647788 0.060100
O O4 0.097325 0.539127 0.050123
O O5 0.662645 0.162072 0.881526
O O6 0.671869 0.379599 0.926369
O O7 0.779056 0.264428 0.834735
O O8 0.685046 0.300633 0.708979
O O9 0.234442 0.468548 0.476397
O O10 0.143996 0.566201 0.375284
O O11 0.149338 0.095953 0.648938
O O12 0.160340 0.912783 0.531581
O O13 0.121875 0.769950 0.341659
O O14 0.378879 0.207540 0.949858
O O15 0.250000 0.750000 0.500000
#
# Coordination Sequence:
#
# PCOD9267751 Si02
#       7
#     8   8   8   8   8   8   8
#     4  10  21  38  63  91 130 171 213 255 307 394
#     4  11  22  39  67  95 125 165 212 268 314 379
#     4  11  20  40  65  96 128 165 212 266 324 374
#     4  11  22  39  69  91 125 164 218 268 315 375
#     4  10  19  40  63  92 117 168 215 254 307 377
#     4  11  24  39  60  96 134 166 206 257 330 380
#     4  12  25  40  59  99 135 160 204 272 323 369
#
# _framework density 20.167178
#
# number of rings (size 3 to 8) (size 9 to 14) (size 15 to 20)
#    0.000    1.143    5.714    1.286    2.000    3.429 
#    0.000    1.429    0.000    0.000    0.000    0.000 
#    0.000    0.000    0.000    0.000    0.000    0.000 
#
# Total GULP energy -156267.804201 kJ/mol
# GULP energy per Si atom -5580.993007 kJ/mol
# Density = 2.012128 g / cm^3
# Si number density = 20.167178 Si / 1000 Ang^3
#
#
#
# Elastic Constant Matrix: (Units=GPa)
#
#
# Indices 1 2 3 4 5 6 
#
# 1 74.4164 23.2956 33.0084 0.0000 16.2499 0.0000
# 2 23.2956 133.1208 46.8149 0.0000 12.5575 0.0000
# 3 33.0084 46.8149 66.4862 0.0000 5.0299 0.0000
# 4 0.0000 0.0000 0.0000 18.7494 0.0000 2.3791
# 5 16.2499 12.5575 5.0299 0.0000 34.8713 0.0000
# 6 0.0000 0.0000 0.0000 2.3791 0.0000 11.7409
#
#
#
# Elastic Compliance Matrix: (Units=1/GPa)
#
#
# Indices 1 2 3 4 5 6 
#
# 1 0.019078 0.000691 -0.009369 0.000000 -0.007788 0.000000
# 2 0.000691 0.010250 -0.007337 0.000000 -0.002955 0.000000
# 3 -0.009369 -0.007337 0.024596 0.000000 0.003460 0.000000
# 4 0.000000 0.000000 0.000000 0.054743 0.000000 -0.011093
# 5 -0.007788 -0.002955 0.003460 0.000000 0.032871 0.000000
# 6 0.000000 0.000000 0.000000 -0.011093 0.000000 0.087420
#
#
# Mechanical properties :
#
#
# Convention : Reuss Voigt Hill
#
# Bulk Modulus (GPa) = 45.67335 53.36236 49.51786
# Shear Modulus (GPa) = 18.63685 24.46594 21.55139
#
# Velocity S-wave (km/s) = 3.04323 3.48682 3.27255
# Velocity P-wave (km/s) = 5.91987 6.53666 6.23590
#
# Compressibility (1/GPa) = 0.02189461
#
# Stress axis : x y z
#
# Youngs Moduli (GPa) = 52.41684 97.56156 40.65645
#
# Poissons Ratio (x) = -0.06740 0.38090
# Poissons Ratio (y) = -0.03621 0.29829
# Poissons Ratio (z) = 0.49109 0.71578
#
# Static dielectric constant tensor:
#      x y z
#    x 1.685290 0.000000 0.005800 
#    y 0.000000 1.753820 0.000000 
#    z 0.005800 0.000000 1.775890 
# 
# From -- ./inp_files/110975.got.cif
#   From: 2010.05.17/outbox.cif.g08.bks.cpg/sg15_56_cif.got.tgz:110975.got - 2010.06.03 18:47:42.
