data_PCOD9267231
_publ_section_title
;
Structure prediction by ZEFSAII (Michael W. Deem and Ramdas Pophale) SiO2 
 PCOD9267231
Probable space group: C 2/C
;
_chemical_formula_sum "Si O2"
_cell_formula_units_Z 60
_cell_length_a 8.805474
_cell_length_b 23.748553
_cell_length_c 19.305239
_cell_angle_alpha 90.000000
_cell_angle_beta 140.845045
_cell_angle_gamma 90.000000
_cell_volume 2549.079097
_symmetry_space_group_name_H-M "C 2/C"
_symmetry_group_IT_number 15
_symmetry_cell_setting 'monoclinic'
loop_
_space_group_symop_operation_xyz
x,y,z
-x,y,1/2-z
-x,-y,-z
x,-y,1/2+z
1/2+x,1/2+y,z
1/2-x,1/2+y,1/2-z
1/2-x,1/2-y,-z
1/2+x,1/2-y,1/2+z
loop_
_atom_site_type_symbol
_atom_site_label
_atom_site_fract_x
_atom_site_fract_y
_atom_site_fract_z
Si Si1 0.769372 0.746834 0.706435
Si Si2 0.019337 0.264006 0.067831
Si Si3 0.083620 0.390838 0.090992
Si Si4 0.736892 0.881022 0.303290
Si Si5 0.120061 0.682382 0.368457
Si Si6 0.000000 0.020422 0.750000
Si Si7 0.108463 0.038424 0.429118
Si Si8 0.682668 0.565787 0.036960
O O1 0.742091 0.684077 0.666659
O O2 0.534468 0.784080 0.629750
O O3 0.000000 0.773492 0.750000
O O4 0.834514 0.738591 0.809322
O O5 0.068361 0.327072 0.056025
O O6 0.133514 0.216260 0.059584
O O7 0.750000 0.250000 0.000000
O O8 0.179374 0.381048 0.202719
O O9 0.281938 0.438960 0.144456
O O10 0.813304 0.414741 0.988843
O O11 0.500000 0.908641 0.250000
O O12 0.959051 0.914195 0.410938
O O13 0.143815 0.618510 0.401102
O O14 0.000000 0.680408 0.250000
O O15 0.978725 0.981549 0.811948
O O16 0.913632 0.055934 0.418897
O O17 0.259651 0.990317 0.524772
#
# Coordination Sequence:
#
# PCOD9267231 Si02
#       8
#     8   8   8   8   8   4   8   8
#     4   9  21  39  63 101 142 179 223 283 350 426
#     4  10  22  40  68  99 138 187 233 284 352 430
#     4  11  23  42  70  94 138 184 234 294 354 417
#     4  10  19  38  69 102 132 174 232 286 343 429
#     4  10  23  42  67 101 146 186 232 285 359 435
#     4  12  26  44  66 100 138 184 242 298 356 422
#     4  11  25  44  69 101 134 183 242 297 358 413
#     4  11  23  43  73 102 133 183 240 291 352 432
#
# _framework density 23.537913
#
# number of rings (size 3 to 8) (size 9 to 14) (size 15 to 20)
#    0.000    1.600    2.667    1.200    8.400    1.600 
#    2.400    0.000   14.667    0.000    0.000    0.000 
#    0.000    0.000    0.000    0.000    0.000    0.000 
#
# Total GULP energy -167335.980539 kJ/mol
# GULP energy per Si atom -5577.866018 kJ/mol
# Density = 2.348434 g / cm^3
# Si number density = 23.537913 Si / 1000 Ang^3
#
#
#
# Elastic Constant Matrix: (Units=GPa)
#
#
# Indices 1 2 3 4 5 6 
#
# 1 73.9323 17.0028 14.2306 0.0000 -4.1204 0.0000
# 2 17.0028 84.4425 14.7702 0.0000 4.5762 -0.0001
# 3 14.2306 14.7702 73.5894 -0.0004 -19.5513 -0.0001
# 4 0.0000 0.0000 -0.0004 41.3453 -0.0002 5.8537
# 5 -4.1204 4.5762 -19.5513 -0.0002 30.6075 0.0000
# 6 0.0000 -0.0001 -0.0001 5.8537 0.0000 16.2420
#
#
#
# Elastic Compliance Matrix: (Units=1/GPa)
#
#
# Indices 1 2 3 4 5 6 
#
# 1 0.014579 -0.002644 -0.002002 0.000000 0.001079 0.000000
# 2 -0.002644 0.013196 -0.003320 0.000000 -0.004449 0.000000
# 3 -0.002002 -0.003320 0.017708 0.000000 0.011538 0.000000
# 4 0.000000 0.000000 0.000000 0.025487 0.000000 -0.009186
# 5 0.001079 -0.004449 0.011538 0.000000 0.040852 0.000000
# 6 0.000000 0.000000 0.000000 -0.009186 0.000000 0.064879
#
#
# Mechanical properties :
#
#
# Convention : Reuss Voigt Hill
#
# Bulk Modulus (GPa) = 33.83767 35.99681 34.91724
# Shear Modulus (GPa) = 24.69327 30.03634 27.36480
#
# Velocity S-wave (km/s) = 3.24247 3.57611 3.41337
# Velocity P-wave (km/s) = 5.33153 5.69014 5.51375
#
# Compressibility (1/GPa) = 0.02955287
#
# Stress axis : x y z
#
# Youngs Moduli (GPa) = 68.58987 75.77772 56.47245
#
# Poissons Ratio (x) = 0.20035 0.11306
# Poissons Ratio (y) = 0.18135 0.18746
# Poissons Ratio (z) = 0.13731 0.25155
#
# Static dielectric constant tensor:
#      x y z
#    x 2.062150 0.000000 -0.013570 
#    y 0.000000 1.947330 0.000000 
#    z -0.013570 0.000000 1.886250 
# 
# From -- ./inp_files/234600.got.cif
#   From: 2010.05.17/outbox.cif.g08.bks.cpg/sg15_118_cif.got.tgz:234600.got - 2010.06.03 18:47:42.
