data_PCOD9267773
_publ_section_title
;
Structure prediction by ZEFSAII (Michael W. Deem and Ramdas Pophale) SiO2 
 PCOD9267773
Probable space group: C 2/C
;
_chemical_formula_sum "Si O2"
_cell_formula_units_Z 48
_cell_length_a 9.178858
_cell_length_b 23.684113
_cell_length_c 11.613380
_cell_angle_alpha 90.000000
_cell_angle_beta 111.693335
_cell_angle_gamma 90.000000
_cell_volume 2345.860585
_symmetry_space_group_name_H-M "C 2/C"
_symmetry_group_IT_number 15
_symmetry_cell_setting 'monoclinic'
loop_
_space_group_symop_operation_xyz
x,y,z
-x,y,1/2-z
-x,-y,-z
x,-y,1/2+z
1/2+x,1/2+y,z
1/2-x,1/2+y,1/2-z
1/2-x,1/2-y,-z
1/2+x,1/2-y,1/2+z
loop_
_atom_site_type_symbol
_atom_site_label
_atom_site_fract_x
_atom_site_fract_y
_atom_site_fract_z
Si Si1 0.922086 0.150302 0.857110
Si Si2 0.139950 0.279755 0.215713
Si Si3 0.712625 0.669585 0.105477
Si Si4 0.583495 0.879283 0.031339
Si Si5 0.179518 0.958441 0.268878
Si Si6 0.853638 0.575221 0.295147
O O1 0.789829 0.197660 0.828899
O O2 0.839625 0.089052 0.835447
O O3 0.000000 0.154904 0.750000
O O4 0.055104 0.155870 0.990027
O O5 0.203010 0.233107 0.146495
O O6 0.070539 0.334967 0.131013
O O7 0.000000 0.254741 0.250000
O O8 0.745577 0.626242 0.218701
O O9 0.851694 0.657906 0.055794
O O10 0.715698 0.925454 0.104705
O O11 0.428286 0.909868 0.940864
O O12 0.000000 0.970604 0.250000
O O13 0.264059 0.016297 0.265491
O O14 0.000000 0.570467 0.250000
#
# Coordination Sequence:
#
# PCOD9267773 Si02
#       6
#     8   8   8   8   8   8
#     4  10  21  41  68  90 123 172 215 247 312 389
#     4  11  25  40  65  96 130 157 209 270 320 361
#     4  11  22  42  66  92 124 172 213 250 307 389
#     4  10  21  44  66  92 124 177 210 250 307 391
#     4  10  19  40  64  92 128 161 210 255 311 367
#     4  10  24  39  64  97 126 162 214 260 306 368
#
# _framework density 20.461575
#
# number of rings (size 3 to 8) (size 9 to 14) (size 15 to 20)
#    0.000    1.667    5.000    1.000    2.333    5.333 
#    3.000    0.000    0.000    0.000    0.000    0.000 
#    0.000    0.000    0.000    0.000    0.000    0.000 
#
# Total GULP energy -133979.223441 kJ/mol
# GULP energy per Si atom -5582.467643 kJ/mol
# Density = 2.041500 g / cm^3
# Si number density = 20.461575 Si / 1000 Ang^3
#
#
#
# Elastic Constant Matrix: (Units=GPa)
#
#
# Indices 1 2 3 4 5 6 
#
# 1 49.8935 27.7425 24.6746 0.0000 22.8315 0.0000
# 2 27.7425 102.2657 26.6517 0.0000 25.1338 0.0000
# 3 24.6746 26.6517 74.0903 0.0000 40.0474 0.0000
# 4 0.0000 0.0000 0.0000 -2.6229 0.0000 0.4041
# 5 22.8315 25.1338 40.0474 0.0000 33.4726 0.0000
# 6 0.0000 0.0000 0.0000 0.4041 0.0000 31.1367
#
#
#
# Elastic Compliance Matrix: (Units=1/GPa)
#
#
# Indices 1 2 3 4 5 6 
#
# 1 0.030501 -0.003770 0.002585 0.000000 -0.021066 0.000000
# 2 -0.003770 0.012522 0.001255 0.000000 -0.008332 0.000000
# 3 0.002585 0.001255 0.038627 0.000000 -0.048919 0.000000
# 4 0.000000 0.000000 0.000000 -0.380491 0.000000 0.004938
# 5 -0.021066 -0.008332 -0.048919 0.000000 0.109029 0.000000
# 6 0.000000 0.000000 0.000000 0.004938 0.000000 0.032052
#
#
# Mechanical properties :
#
#
# Convention : Reuss Voigt Hill
#
# Bulk Modulus (GPa) = 12.22658 42.70966 27.46812
# Shear Modulus (GPa) = -38.27403 22.20933 -8.03235
#
# Velocity S-wave (km/s) = -4.32966 3.29814 -1.98346
# Velocity P-wave (km/s) = 4.35961 5.95164 2.86495
#
# Compressibility (1/GPa) = 0.08178901
#
# Stress axis : x y z
#
# Youngs Moduli (GPa) = 32.78622 79.85923 25.88893
#
# Poissons Ratio (x) = 0.30111 -0.06693
# Poissons Ratio (y) = 0.12362 -0.03249
# Poissons Ratio (z) = -0.08476 -0.10023
#
# Static dielectric constant tensor:
#      x y z
#    x 1.740090 0.000000 -0.013070 
#    y 0.000000 1.715340 0.000000 
#    z -0.013070 0.000000 1.756270 
# 
# From -- ./inp_files/79363.got.cif
#   From: 2010.05.17/outbox.cif.g08.bks.cpg/sg15_40_cif.got.tgz:79363.got - 2010.06.03 18:47:42.
