data_PCOD9267516
_publ_section_title
;
Structure prediction by ZEFSAII (Michael W. Deem and Ramdas Pophale) SiO2 
 PCOD9267516
Probable space group: C 2/C
;
_chemical_formula_sum "Si O2"
_cell_formula_units_Z 40
_cell_length_a 12.896189
_cell_length_b 7.699183
_cell_length_c 17.576477
_cell_angle_alpha 90.000000
_cell_angle_beta 62.964039
_cell_angle_gamma 90.000000
_cell_volume 1554.460719
_symmetry_space_group_name_H-M "C 2/C"
_symmetry_group_IT_number 15
_symmetry_cell_setting 'monoclinic'
loop_
_space_group_symop_operation_xyz
x,y,z
-x,y,1/2-z
-x,-y,-z
x,-y,1/2+z
1/2+x,1/2+y,z
1/2-x,1/2+y,1/2-z
1/2-x,1/2-y,-z
1/2+x,1/2-y,1/2+z
loop_
_atom_site_type_symbol
_atom_site_label
_atom_site_fract_x
_atom_site_fract_y
_atom_site_fract_z
Si Si1 0.252556 0.369924 0.595059
Si Si2 0.683154 0.410801 0.566642
Si Si3 0.510671 0.229556 0.934624
Si Si4 0.173384 0.763905 0.368539
Si Si5 0.000021 0.593441 0.169007
O O1 0.282046 0.432748 0.499419
O O2 0.354946 0.251475 0.592267
O O3 0.267274 0.548750 0.640373
O O4 0.120951 0.303942 0.636755
O O5 0.750000 0.250000 0.500000
O O6 0.546833 0.371361 0.602670
O O7 0.735805 0.381794 0.632069
O O8 0.488861 0.046010 0.902067
O O9 0.437387 0.259234 0.036172
O O10 0.112797 0.708957 0.310603
O O11 0.000000 0.496889 0.250000
#
# Coordination Sequence:
#
# PCOD9267516 Si02
#       5
#     8   8   8   8   8
#     4  10  20  39  61  88 115 146 196 240 285 342
#     4   8  14  33  63  84 112 141 176 244 289 318
#     4  10  19  39  65  86 112 151 191 243 289 337
#     4  10  19  39  65  83 120 147 187 248 291 327
#     4  12  25  39  55  84 122 157 191 233 285 346
#
# _framework density 25.732396999999999
#
# number of rings (size 3 to 8) (size 9 to 14) (size 15 to 20)
#    0.000    2.400    6.000    3.000    0.000    2.400 
#    3.600    1.000    0.000    0.000    0.000    0.000 
#    0.000    0.000    0.000    0.000    0.000    0.000 
#
# Total GULP energy -111743.810863 kJ/mol
# GULP energy per Si atom -5587.190543 kJ/mol
# Density = 2.567383 g / cm^3
# Si number density = 25.732397 Si / 1000 Ang^3
#
#
#
# Elastic Constant Matrix: (Units=GPa)
#
#
# Indices 1 2 3 4 5 6 
#
# 1 222.9820 24.2669 23.3739 0.0000 24.1128 0.0000
# 2 24.2669 55.9153 9.9594 0.0000 14.6412 0.0000
# 3 23.3739 9.9594 26.1866 0.0000 17.2512 0.0000
# 4 0.0000 0.0000 0.0000 6.9735 0.0000 -0.8783
# 5 24.1128 14.6412 17.2512 0.0000 27.7735 0.0000
# 6 0.0000 0.0000 0.0000 -0.8783 0.0000 42.3820
#
#
#
# Elastic Compliance Matrix: (Units=1/GPa)
#
#
# Indices 1 2 3 4 5 6 
#
# 1 0.005130 -0.001181 -0.002718 0.000000 -0.002143 0.000000
# 2 -0.001181 0.021041 -0.000536 0.000000 -0.009734 0.000000
# 3 -0.002718 -0.000536 0.066142 0.000000 -0.038441 0.000000
# 4 0.000000 0.000000 0.000000 0.143775 0.000000 0.002979
# 5 -0.002143 -0.009734 -0.038441 0.000000 0.066875 0.000000
# 6 0.000000 0.000000 0.000000 0.002979 0.000000 0.023657
#
#
# Mechanical properties :
#
#
# Convention : Reuss Voigt Hill
#
# Bulk Modulus (GPa) = 11.98425 46.69826 29.34125
# Shear Modulus (GPa) = 13.76265 31.92472 22.84368
#
# Velocity S-wave (km/s) = 2.31516 3.52610 2.98273
# Velocity P-wave (km/s) = 3.43715 5.89617 4.82591
#
# Compressibility (1/GPa) = 0.08344284
#
# Stress axis : x y z
#
# Youngs Moduli (GPa) = 194.93800 47.52629 15.11909
#
# Poissons Ratio (x) = 0.05613 0.04109
# Poissons Ratio (y) = 0.23024 0.00810
# Poissons Ratio (z) = 0.52984 0.02546
#
# Static dielectric constant tensor:
#      x y z
#    x 2.104550 0.000000 0.077080 
#    y 0.000000 2.105190 0.000000 
#    z 0.077080 0.000000 2.139090 
# 
# From -- ./inp_files/235695.got.cif
#   From: 2010.05.17/outbox.cif.g08.bks.cpg/sg15_118_cif.got.tgz:235695.got - 2010.06.03 18:47:42.
