data_PCOD9267814
_publ_section_title
;
Structure prediction by ZEFSAII (Michael W. Deem and Ramdas Pophale) SiO2 
 PCOD9267814
Probable space group: C 2/C
;
_chemical_formula_sum "Si O2"
_cell_formula_units_Z 40
_cell_length_a 23.190807
_cell_length_b 15.829382
_cell_length_c 10.679971
_cell_angle_alpha 90.000000
_cell_angle_beta 156.892106
_cell_angle_gamma 90.000000
_cell_volume 1538.684385
_symmetry_space_group_name_H-M "C 2/C"
_symmetry_group_IT_number 15
_symmetry_cell_setting 'monoclinic'
loop_
_space_group_symop_operation_xyz
x,y,z
-x,y,1/2-z
-x,-y,-z
x,-y,1/2+z
1/2+x,1/2+y,z
1/2-x,1/2+y,1/2-z
1/2-x,1/2-y,-z
1/2+x,1/2-y,1/2+z
loop_
_atom_site_type_symbol
_atom_site_label
_atom_site_fract_x
_atom_site_fract_y
_atom_site_fract_z
Si Si1 0.557117 0.193190 0.064920
Si Si2 0.014186 0.861254 0.469778
Si Si3 0.761585 0.086357 0.863525
Si Si4 0.000000 0.991785 0.250000
Si Si5 0.233853 0.275415 0.666856
Si Si6 0.500000 0.000000 0.000000
O O1 0.583046 0.279072 0.195093
O O2 0.386254 0.207590 0.682218
O O3 0.649676 0.200383 0.123499
O O4 0.564194 0.098642 0.130160
O O5 0.108522 0.890501 0.777713
O O6 0.132470 0.833395 0.602316
O O7 0.946579 0.940595 0.265292
O O8 0.851753 0.045021 0.928287
O O9 0.711079 0.179335 0.720681
O O10 0.633303 0.031060 0.668021
#
# Coordination Sequence:
#
# PCOD9267814 Si02
#       6
#     8   8   8   4   8   4
#     4  10  20  36  68  92 126 166 210 261 321 380
#     4  11  21  44  60  90 130 167 210 261 314 390
#     4  11  22  41  67  94 126 168 219 260 310 387
#     4  12  26  40  64  94 130 170 214 258 326 380
#     4  10  19  40  66  89 120 176 213 245 319 396
#     4  12  20  38  64 102 122 160 216 274 310 360
#
# _framework density 25.996234000000001
#
# number of rings (size 3 to 8) (size 9 to 14) (size 15 to 20)
#    0.000    1.200    4.000    5.400    0.000    0.000 
#    0.000    8.000    0.000    0.000    0.000    0.000 
#    0.000    0.000    0.000    0.000    0.000    0.000 
#
# Total GULP energy -111378.799436 kJ/mol
# GULP energy per Si atom -5568.939972 kJ/mol
# Density = 2.593706 g / cm^3
# Si number density = 25.996234 Si / 1000 Ang^3
#
#
#
# Elastic Constant Matrix: (Units=GPa)
#
#
# Indices 1 2 3 4 5 6 
#
# 1 98.8503 38.1014 -1.0284 0.0000 36.2232 0.0000
# 2 38.1014 170.5811 0.8138 0.0000 10.7757 0.0000
# 3 -1.0284 0.8138 43.6234 0.0000 -1.0850 0.0000
# 4 0.0000 0.0000 0.0000 27.8957 0.0000 24.6879
# 5 36.2232 10.7757 -1.0850 0.0000 40.4656 0.0000
# 6 0.0000 0.0000 0.0000 24.6879 0.0000 61.0568
#
#
#
# Elastic Compliance Matrix: (Units=1/GPa)
#
#
# Indices 1 2 3 4 5 6 
#
# 1 0.016235 -0.002755 0.000091 0.000000 -0.013797 0.000000
# 2 -0.002755 0.006431 -0.000166 0.000000 0.000749 0.000000
# 3 0.000091 -0.000166 0.022943 0.000000 0.000578 0.000000
# 4 0.000000 0.000000 0.000000 0.055824 0.000000 -0.022572
# 5 -0.013797 0.000749 0.000578 0.000000 0.036879 0.000000
# 6 0.000000 0.000000 0.000000 -0.022572 0.000000 0.025505
#
#
# Mechanical properties :
#
#
# Convention : Reuss Voigt Hill
#
# Bulk Modulus (GPa) = 25.03236 43.20316 34.11776
# Shear Modulus (GPa) = 27.35314 44.22815 35.79065
#
# Velocity S-wave (km/s) = 3.24728 4.12919 3.71450
# Velocity P-wave (km/s) = 4.86928 6.27604 5.61688
#
# Compressibility (1/GPa) = 0.03994828
#
# Stress axis : x y z
#
# Youngs Moduli (GPa) = 61.59540 155.49263 43.58611
#
# Poissons Ratio (x) = 0.42841 -0.00397
# Poissons Ratio (y) = 0.16971 0.00725
# Poissons Ratio (z) = -0.00560 0.02586
#
# Static dielectric constant tensor:
#      x y z
#    x 2.029570 0.000000 -0.099230 
#    y 0.000000 2.062590 0.000000 
#    z -0.099230 0.000000 2.081220 
# 
# From -- ./inp_files/118886.got.cif
#   From: 2010.05.17/outbox.cif.g08.bks.cpg/sg15_60_cif.got.tgz:118886.got - 2010.06.03 18:47:42.
