data_PCOD9267765
_publ_section_title
;
Structure prediction by ZEFSAII (Michael W. Deem and Ramdas Pophale) SiO2 
 PCOD9267765
Probable space group: C 2/C
;
_chemical_formula_sum "Si O2"
_cell_formula_units_Z 44
_cell_length_a 14.424811
_cell_length_b 11.317463
_cell_length_c 26.685676
_cell_angle_alpha 90.000000
_cell_angle_beta 30.699747
_cell_angle_gamma 90.000000
_cell_volume 2224.162172
_symmetry_space_group_name_H-M "C 2/C"
_symmetry_group_IT_number 15
_symmetry_cell_setting 'monoclinic'
loop_
_space_group_symop_operation_xyz
x,y,z
-x,y,1/2-z
-x,-y,-z
x,-y,1/2+z
1/2+x,1/2+y,z
1/2-x,1/2+y,1/2-z
1/2-x,1/2-y,-z
1/2+x,1/2-y,1/2+z
loop_
_atom_site_type_symbol
_atom_site_label
_atom_site_fract_x
_atom_site_fract_y
_atom_site_fract_z
Si Si1 0.956716 0.230551 0.613437
Si Si2 0.500000 0.156771 0.250000
Si Si3 0.183440 0.569741 0.395941
Si Si4 0.256480 0.344937 0.303436
Si Si5 0.702568 0.086948 0.062552
Si Si6 0.171923 0.640660 0.507097
O O1 0.865352 0.317643 0.615644
O O2 0.825985 0.166792 0.714115
O O3 0.094207 0.136232 0.525612
O O4 0.084492 0.315586 0.587597
O O5 0.357294 0.244250 0.288790
O O6 0.605254 0.077933 0.160971
O O7 0.290122 0.472280 0.313854
O O8 0.265698 0.613075 0.410140
O O9 0.000000 0.500000 0.500000
O O10 0.039965 0.331653 0.404089
O O11 0.693208 0.972467 0.032668
O O12 0.250000 0.750000 0.500000
#
# Coordination Sequence:
#
# PCOD9267765 Si02
#       6
#     8   4   8   8   8   8
#     4  10  20  37  67  93 122 169 218 264 307 380
#     4  10  22  40  68  88 122 170 224 264 314 384
#     4  10  19  40  64  87 129 169 211 259 315 374
#     4  10  22  39  63  97 126 163 219 261 318 379
#     4  10  20  39  63  91 124 164 216 263 313 380
#     4  11  24  43  62  94 136 166 208 267 328 384
#
# _framework density 19.782730999999998
#
# number of rings (size 3 to 8) (size 9 to 14) (size 15 to 20)
#    0.000    1.818    3.636    2.182    5.091    1.455 
#    3.273    1.818    0.000    0.000    0.000    0.000 
#    0.000    0.000    0.000    0.000    0.000    0.000 
#
# Total GULP energy -122770.780455 kJ/mol
# GULP energy per Si atom -5580.490021 kJ/mol
# Density = 1.973770 g / cm^3
# Si number density = 19.782731 Si / 1000 Ang^3
#
#
#
# Elastic Constant Matrix: (Units=GPa)
#
#
# Indices 1 2 3 4 5 6 
#
# 1 96.5307 43.4502 48.5879 0.0000 30.7266 0.0001
# 2 43.4502 53.6009 43.7892 0.0000 13.5972 0.0000
# 3 48.5879 43.7892 89.1198 -0.0007 34.0583 0.0007
# 4 0.0000 0.0000 -0.0007 26.5898 0.0000 18.2673
# 5 30.7266 13.5972 34.0583 0.0000 39.4202 -0.0002
# 6 0.0001 0.0000 0.0007 18.2673 -0.0002 37.9012
#
#
#
# Elastic Compliance Matrix: (Units=1/GPa)
#
#
# Indices 1 2 3 4 5 6 
#
# 1 0.019799 -0.013124 -0.000266 0.000000 -0.010676 0.000000
# 2 -0.013124 0.040233 -0.016750 -0.000001 0.010824 0.000001
# 3 -0.000266 -0.016750 0.025841 0.000002 -0.016341 -0.000001
# 4 0.000000 -0.000001 0.000002 0.056225 -0.000001 -0.027099
# 5 -0.010676 0.010824 -0.016341 -0.000001 0.044074 0.000001
# 6 0.000000 0.000001 -0.000001 -0.027099 0.000001 0.039445
#
#
# Mechanical properties :
#
#
# Convention : Reuss Voigt Hill
#
# Bulk Modulus (GPa) = 39.07247 56.76735 47.91991
# Shear Modulus (GPa) = 16.98205 27.67718 22.32962
#
# Velocity S-wave (km/s) = 2.93307 3.74446 3.36332
# Velocity P-wave (km/s) = 5.59144 6.88856 6.27362
#
# Compressibility (1/GPa) = 0.02559347
#
# Stress axis : x y z
#
# Youngs Moduli (GPa) = 50.50812 24.85513 38.69832
#
# Poissons Ratio (x) = 0.32620 0.01029
# Poissons Ratio (y) = 0.66287 0.64819
# Poissons Ratio (z) = 0.01342 0.41632
#
# Static dielectric constant tensor:
#      x y z
#    x 1.701020 0.000000 0.011360 
#    y 0.000000 1.670970 0.000000 
#    z 0.011360 0.000000 1.737880 
# 
# From -- ./inp_files/152261.got.cif
#   From: 2010.05.17/outbox.cif.g08.bks.cpg/sg15_77_cif.got.tgz:152261.got - 2010.06.03 18:47:42.
