data_PCOD9267539
_publ_section_title
;
Structure prediction by ZEFSAII (Michael W. Deem and Ramdas Pophale) SiO2 
 PCOD9267539
Probable space group: C 2/C
;
_chemical_formula_sum "Si O2"
_cell_formula_units_Z 64
_cell_length_a 12.602475
_cell_length_b 22.044637
_cell_length_c 12.660797
_cell_angle_alpha 90.000000
_cell_angle_beta 66.291533
_cell_angle_gamma 90.000000
_cell_volume 3220.528424
_symmetry_space_group_name_H-M "C 2/C"
_symmetry_group_IT_number 15
_symmetry_cell_setting 'monoclinic'
loop_
_space_group_symop_operation_xyz
x,y,z
-x,y,1/2-z
-x,-y,-z
x,-y,1/2+z
1/2+x,1/2+y,z
1/2-x,1/2+y,1/2-z
1/2-x,1/2-y,-z
1/2+x,1/2-y,1/2+z
loop_
_atom_site_type_symbol
_atom_site_label
_atom_site_fract_x
_atom_site_fract_y
_atom_site_fract_z
Si Si1 0.409595 0.865980 0.193800
Si Si2 0.171864 0.202769 0.828921
Si Si3 0.872851 0.602493 0.252030
Si Si4 0.407817 0.513665 0.380890
Si Si5 0.731815 0.017604 0.787442
Si Si6 0.160270 0.277035 0.618474
Si Si7 0.449313 0.190002 0.052068
Si Si8 0.441253 0.418318 0.078426
O O1 0.500000 0.879282 0.250000
O O2 0.297823 0.828857 0.281564
O O3 0.362540 0.929287 0.164681
O O4 0.476877 0.827253 0.078906
O O5 0.158720 0.231274 0.717565
O O6 0.146829 0.257789 0.919127
O O7 0.075538 0.151751 0.890357
O O8 0.809443 0.539168 0.264808
O O9 0.812758 0.655793 0.345081
O O10 0.891059 0.631454 0.128699
O O11 0.000000 0.592614 0.250000
O O12 0.500000 0.525210 0.250000
O O13 0.283128 0.506248 0.377479
O O14 0.443695 0.450468 0.423583
O O15 0.422417 0.564585 0.464074
O O16 0.838888 0.048628 0.684028
O O17 0.250000 0.250000 0.500000
O O18 0.039911 0.285776 0.604582
#
# Coordination Sequence:
#
# PCOD9267539 Si02
#       8
#     8   8   8   8   8   8   8   8
#     4  11  24  40  60  89 124 165 215 254 306 384
#     4  10  21  40  64  88 120 160 200 258 321 365
#     4   9  20  36  57  88 124 154 199 262 305 357
#     4   9  19  38  58  86 125 159 210 253 305 373
#     4  10  21  37  60  87 120 167 208 245 316 372
#     4  10  19  39  65  93 120 150 207 259 310 369
#     4  10  22  40  61  90 121 156 208 262 308 369
#     4   9  20  39  59  89 124 159 201 264 309 370
#
# _framework density 19.872516000000001
#
# number of rings (size 3 to 8) (size 9 to 14) (size 15 to 20)
#    0.000    2.250    1.250    1.500    0.000   10.000 
#    9.000    1.875    0.000    0.000    0.000    0.000 
#    0.000    0.000    0.000    0.000    0.000    0.000 
#
# Total GULP energy -178564.326091 kJ/mol
# GULP energy per Si atom -5580.135190 kJ/mol
# Density = 1.982728 g / cm^3
# Si number density = 19.872516 Si / 1000 Ang^3
#
#
#
# Elastic Constant Matrix: (Units=GPa)
#
#
# Indices 1 2 3 4 5 6 
#
# 1 58.9519 31.5284 19.8124 0.0000 14.5004 0.0000
# 2 31.5284 106.6146 26.7097 0.0000 6.8877 0.0000
# 3 19.8124 26.7097 74.8589 0.0000 6.5691 0.0000
# 4 0.0000 0.0000 0.0000 8.8654 0.0000 -4.4875
# 5 14.5004 6.8877 6.5691 0.0000 26.8893 0.0000
# 6 0.0000 0.0000 0.0000 -4.4875 0.0000 18.5767
#
#
#
# Elastic Compliance Matrix: (Units=1/GPa)
#
#
# Indices 1 2 3 4 5 6 
#
# 1 0.023599 -0.005454 -0.003378 0.000000 -0.010504 0.000000
# 2 -0.005454 0.011645 -0.002767 0.000000 0.000634 0.000000
# 3 -0.003378 -0.002767 0.015347 0.000000 -0.001219 0.000000
# 4 0.000000 0.000000 0.000000 0.128513 0.000000 0.031044
# 5 -0.010504 0.000634 -0.001219 0.000000 0.042989 0.000000
# 6 0.000000 0.000000 0.000000 0.031044 0.000000 0.061330
#
#
# Mechanical properties :
#
#
# Convention : Reuss Voigt Hill
#
# Bulk Modulus (GPa) = 36.50672 44.05849 40.28261
# Shear Modulus (GPa) = 15.83529 21.69127 18.76328
#
# Velocity S-wave (km/s) = 2.82590 3.30740 3.07609
# Velocity P-wave (km/s) = 5.39055 6.06662 5.73855
#
# Compressibility (1/GPa) = 0.02739222
#
# Stress axis : x y z
#
# Youngs Moduli (GPa) = 42.37540 85.87645 65.16036
#
# Poissons Ratio (x) = 0.46835 0.22011
# Poissons Ratio (y) = 0.23111 0.18030
# Poissons Ratio (z) = 0.14315 0.23762
#
# Static dielectric constant tensor:
#      x y z
#    x 1.726260 0.000000 -0.013820 
#    y 0.000000 1.700870 0.000000 
#    z -0.013820 0.000000 1.716720 
# 
# From -- ./inp_files/90804.got.cif
#   From: 2010.05.17/outbox.cif.g08.bks.cpg/sg15_46_cif.got.tgz:90804.got - 2010.06.03 18:47:42.
