data_PCOD9267047
_publ_section_title
;
Structure prediction by ZEFSAII (Michael W. Deem and Ramdas Pophale) SiO2 
 PCOD9267047
Probable space group: C 2/C
;
_chemical_formula_sum "Si O2"
_cell_formula_units_Z 48
_cell_length_a 8.966064
_cell_length_b 15.223625
_cell_length_c 19.398504
_cell_angle_alpha 90.000000
_cell_angle_beta 56.533315
_cell_angle_gamma 90.000000
_cell_volume 2208.827378
_symmetry_space_group_name_H-M "C 2/C"
_symmetry_group_IT_number 15
_symmetry_cell_setting 'monoclinic'
loop_
_space_group_symop_operation_xyz
x,y,z
-x,y,1/2-z
-x,-y,-z
x,-y,1/2+z
1/2+x,1/2+y,z
1/2-x,1/2+y,1/2-z
1/2-x,1/2-y,-z
1/2+x,1/2-y,1/2+z
loop_
_atom_site_type_symbol
_atom_site_label
_atom_site_fract_x
_atom_site_fract_y
_atom_site_fract_z
Si Si1 0.500000 0.880739 0.750000
Si Si2 0.927005 0.508793 0.402061
Si Si3 0.669287 0.341734 0.994872
Si Si4 0.665585 0.278778 0.840314
Si Si5 0.716740 0.423501 0.204791
Si Si6 0.500000 0.265057 0.750000
Si Si7 0.275612 0.384081 0.143481
O O1 0.557831 0.937745 0.672191
O O2 0.345966 0.817935 0.764193
O O3 0.804489 0.576935 0.475752
O O4 0.815945 0.424561 0.401906
O O5 0.131621 0.485199 0.370036
O O6 0.633849 0.322483 0.922549
O O7 0.750000 0.250000 0.000000
O O8 0.481369 0.364291 0.077285
O O9 0.707462 0.174322 0.833459
O O10 0.525958 0.308415 0.817475
O O11 0.500000 0.430052 0.250000
O O12 0.740642 0.439397 0.281312
O O13 0.331673 0.202436 0.807657
#
# Coordination Sequence:
#
# PCOD9267047 Si02
#       7
#     4   8   8   8   8   4   8
#     4  10  19  38  64  91 122 170 216 266 317 394
#     4  11  21  42  64  91 127 172 224 262 325 403
#     4  11  26  41  66  99 137 177 214 273 341 395
#     4  10  21  39  65  96 129 168 220 271 328 383
#     4  11  20  39  69  98 127 175 227 278 321 387
#     4  10  21  38  70  95 124 166 230 272 319 382
#     4  11  20  42  67  91 130 178 217 270 336 395
#
# _framework density 21.730988
#
# number of rings (size 3 to 8) (size 9 to 14) (size 15 to 20)
#    0.000    1.333    5.833    1.500    7.000    0.667 
#    1.500    3.333    0.000    0.000    0.000    0.000 
#    0.000    0.000    0.000    0.000    0.000    0.000 
#
# Total GULP energy -133623.438063 kJ/mol
# GULP energy per Si atom -5567.643253 kJ/mol
# Density = 2.168153 g / cm^3
# Si number density = 21.730988 Si / 1000 Ang^3
#
#
#
# Elastic Constant Matrix: (Units=GPa)
#
#
# Indices 1 2 3 4 5 6 
#
# 1 88.6009 8.6359 32.8445 -0.0001 -10.5001 0.0000
# 2 8.6359 48.3076 18.9612 0.0000 -13.4180 0.0000
# 3 32.8445 18.9612 84.6276 0.0001 -23.2659 0.0000
# 4 -0.0001 0.0000 0.0001 196.3217 0.0000 -29.3705
# 5 -10.5001 -13.4180 -23.2659 0.0000 52.1266 0.0000
# 6 0.0000 0.0000 0.0000 -29.3705 0.0000 43.8037
#
#
#
# Elastic Compliance Matrix: (Units=1/GPa)
#
#
# Indices 1 2 3 4 5 6 
#
# 1 0.013196 -0.000314 -0.004950 0.000000 0.000368 0.000000
# 2 -0.000314 0.023489 -0.003985 0.000000 0.004204 0.000000
# 3 -0.004950 -0.003985 0.016043 0.000000 0.005138 0.000000
# 4 0.000000 0.000000 0.000000 0.005662 0.000000 0.003796
# 5 0.000368 0.004204 0.005138 0.000000 0.022634 0.000000
# 6 0.000000 0.000000 0.000000 0.003796 0.000000 0.025374
#
#
# Mechanical properties :
#
#
# Convention : Reuss Voigt Hill
#
# Bulk Modulus (GPa) = 29.21435 38.04657 33.63046
# Shear Modulus (GPa) = 36.68260 69.19003 52.93632
#
# Velocity S-wave (km/s) = 4.11302 5.64876 4.94092
# Velocity P-wave (km/s) = 6.00240 7.75181 6.93251
#
# Compressibility (1/GPa) = 0.03422976
#
# Stress axis : x y z
#
# Youngs Moduli (GPa) = 75.78237 42.57346 62.33315
#
# Poissons Ratio (x) = 0.01336 0.30854
# Poissons Ratio (y) = 0.02379 0.24840
# Poissons Ratio (z) = 0.37511 0.16966
#
# Static dielectric constant tensor:
#      x y z
#    x 1.914000 0.000000 0.022270 
#    y 0.000000 1.863460 0.000000 
#    z 0.022270 0.000000 1.801190 
# 
# From -- ./inp_files/232035.got.cif
#   From: 2010.05.17/outbox.cif.g08.bks.cpg/sg15_117_cif.got.tgz:232035.got - 2010.06.03 18:47:42.
