data_PCOD9267014
_publ_section_title
;
Structure prediction by ZEFSAII (Michael W. Deem and Ramdas Pophale) SiO2 
 PCOD9267014
Probable space group: C 2/C
;
_chemical_formula_sum "Si O2"
_cell_formula_units_Z 52
_cell_length_a 15.881575
_cell_length_b 9.979252
_cell_length_c 18.903310
_cell_angle_alpha 90.000000
_cell_angle_beta 129.544679
_cell_angle_gamma 90.000000
_cell_volume 2310.234575
_symmetry_space_group_name_H-M "C 2/C"
_symmetry_group_IT_number 15
_symmetry_cell_setting 'monoclinic'
loop_
_space_group_symop_operation_xyz
x,y,z
-x,y,1/2-z
-x,-y,-z
x,-y,1/2+z
1/2+x,1/2+y,z
1/2-x,1/2+y,1/2-z
1/2-x,1/2-y,-z
1/2+x,1/2-y,1/2+z
loop_
_atom_site_type_symbol
_atom_site_label
_atom_site_fract_x
_atom_site_fract_y
_atom_site_fract_z
Si Si1 0.319613 0.855105 0.134854
Si Si2 0.577584 0.170257 0.588070
Si Si3 0.861361 0.433101 0.771169
Si Si4 0.500000 0.247014 0.250000
Si Si5 0.792432 0.084206 0.638262
Si Si6 0.151126 0.140054 0.232013
Si Si7 0.649373 0.848992 0.503345
O O1 0.366299 0.741458 0.212331
O O2 0.385437 0.866078 0.096908
O O3 0.312761 0.989812 0.176362
O O4 0.204878 0.793536 0.047720
O O5 0.682731 0.170228 0.593829
O O6 0.572868 0.310762 0.628079
O O7 0.454032 0.138281 0.500111
O O8 0.607037 0.051182 0.658560
O O9 0.957805 0.344306 0.791820
O O10 0.772158 0.342399 0.763336
O O11 0.604720 0.331722 0.332478
O O12 0.843604 0.009751 0.735275
O O13 0.741267 0.961253 0.566793
#
# Coordination Sequence:
#
# PCOD9267014 Si02
#       7
#     8   8   8   4   8   8   8
#     4   9  20  37  61  87 116 159 204 245 291 360
#     4  10  19  38  64  87 117 163 200 250 303 363
#     4  10  20  37  61  88 118 157 208 248 297 350
#     4  12  22  38  62  88 120 158 204 260 296 352
#     4  10  22  36  59  91 123 156 200 249 311 354
#     4   9  19  37  62  85 116 153 212 251 287 356
#     4  10  20  37  61  89 127 154 198 245 308 370
#
# _framework density 22.508538000000001
#
# number of rings (size 3 to 8) (size 9 to 14) (size 15 to 20)
#    0.000    2.154    1.538    1.385    0.000    5.538 
#    0.000    4.615    6.769    0.000    0.000    0.000 
#    0.000    0.000    0.000    0.000    0.000    0.000 
#
# Total GULP energy -144948.437234 kJ/mol
# GULP energy per Si atom -5574.939894 kJ/mol
# Density = 2.245731 g / cm^3
# Si number density = 22.508538 Si / 1000 Ang^3
#
#
#
# Elastic Constant Matrix: (Units=GPa)
#
#
# Indices 1 2 3 4 5 6 
#
# 1 95.0217 24.0076 28.5609 0.0000 24.7295 0.0000
# 2 24.0076 57.6847 18.2115 0.0000 11.1661 0.0000
# 3 28.5609 18.2115 50.4073 0.0000 9.9894 0.0000
# 4 0.0000 0.0000 0.0000 27.4335 0.0000 7.9558
# 5 24.7295 11.1661 9.9894 0.0000 27.4774 0.0000
# 6 0.0000 0.0000 0.0000 7.9558 0.0000 35.1067
#
#
#
# Elastic Compliance Matrix: (Units=1/GPa)
#
#
# Indices 1 2 3 4 5 6 
#
# 1 0.015809 -0.002600 -0.005828 0.000000 -0.011053 0.000000
# 2 -0.002600 0.020892 -0.005233 0.000000 -0.004247 0.000000
# 3 -0.005828 -0.005233 0.025400 0.000000 -0.001863 0.000000
# 4 0.000000 0.000000 0.000000 0.039016 0.000000 -0.008842
# 5 -0.011053 -0.004247 -0.001863 0.000000 0.048744 0.000000
# 6 0.000000 0.000000 0.000000 -0.008842 0.000000 0.030488
#
#
# Mechanical properties :
#
#
# Convention : Reuss Voigt Hill
#
# Bulk Modulus (GPa) = 28.75264 38.29707 33.52486
# Shear Modulus (GPa) = 22.80355 26.82578 24.81466
#
# Velocity S-wave (km/s) = 3.18639 3.45600 3.32393
# Velocity P-wave (km/s) = 5.13218 5.74253 5.44591
#
# Compressibility (1/GPa) = 0.03477941
#
# Stress axis : x y z
#
# Youngs Moduli (GPa) = 63.25531 47.86509 39.36986
#
# Poissons Ratio (x) = 0.12446 0.22943
# Poissons Ratio (y) = 0.16448 0.20602
# Poissons Ratio (z) = 0.36863 0.25048
#
# Static dielectric constant tensor:
#      x y z
#    x 1.911710 0.000000 -0.023200 
#    y 0.000000 1.864140 0.000000 
#    z -0.023200 0.000000 1.874950 
# 
# From -- ./inp_files/243795.got.cif
#   From: 2010.05.17/outbox.cif.g08.bks.cpg/sg15_122_cif.got.tgz:243795.got - 2010.06.03 18:47:42.
