data_PCOD9267715
_publ_section_title
;
Structure prediction by ZEFSAII (Michael W. Deem and Ramdas Pophale) SiO2 
 PCOD9267715
Probable space group: C 2/C
;
_chemical_formula_sum "Si O2"
_cell_formula_units_Z 60
_cell_length_a 12.573297
_cell_length_b 19.617564
_cell_length_c 20.734332
_cell_angle_alpha 90.000000
_cell_angle_beta 37.533509
_cell_angle_gamma 90.000000
_cell_volume 3115.747386
_symmetry_space_group_name_H-M "C 2/C"
_symmetry_group_IT_number 15
_symmetry_cell_setting 'monoclinic'
loop_
_space_group_symop_operation_xyz
x,y,z
-x,y,1/2-z
-x,-y,-z
x,-y,1/2+z
1/2+x,1/2+y,z
1/2-x,1/2+y,1/2-z
1/2-x,1/2-y,-z
1/2+x,1/2-y,1/2+z
loop_
_atom_site_type_symbol
_atom_site_label
_atom_site_fract_x
_atom_site_fract_y
_atom_site_fract_z
Si Si1 0.866782 0.471998 0.254155
Si Si2 0.701051 0.063533 0.963189
Si Si3 0.436935 0.078217 0.969150
Si Si4 0.194142 0.335339 0.185898
Si Si5 0.451948 0.116035 0.197059
Si Si6 0.127705 0.263697 0.998146
Si Si7 0.742272 0.255082 0.216026
Si Si8 0.000000 0.144965 0.750000
O O1 0.736324 0.413118 0.341313
O O2 0.000000 0.481770 0.250000
O O3 0.956899 0.437490 0.148050
O O4 0.824083 0.549633 0.255850
O O5 0.565143 0.072141 0.969027
O O6 0.880255 0.099420 0.855396
O O7 0.611027 0.094850 0.071642
O O8 0.708826 0.981237 0.963480
O O9 0.369486 0.154611 0.007893
O O10 0.199738 0.299982 0.251679
O O11 0.000000 0.341161 0.250000
O O12 0.292796 0.281729 0.095504
O O13 0.500000 0.126596 0.250000
O O14 0.363456 0.186336 0.217487
O O15 0.928078 0.238765 0.095879
O O16 0.250000 0.250000 0.000000
O O17 0.628096 0.304961 0.226952
#
# Coordination Sequence:
#
# PCOD9267715 Si02
#       8
#     8   8   8   8   8   8   8   4
#     4   9  17  36  63  86 121 168 213 258 322 385
#     4  10  22  40  67  92 129 178 214 271 327 397
#     4  10  19  40  62  89 125 172 216 268 330 378
#     4  11  21  39  64  90 122 172 216 267 330 387
#     4  10  22  40  63  94 129 174 219 259 329 398
#     4  12  22  39  62  92 129 166 215 266 325 384
#     4  12  24  40  62  97 133 166 214 273 327 395
#     4  12  24  42  64 100 134 168 224 266 342 394
#
# _framework density 19.257016
#
# number of rings (size 3 to 8) (size 9 to 14) (size 15 to 20)
#    0.000    1.333    4.667    1.600    0.000    1.600 
#    1.200    4.667    0.000    0.000    0.000    0.000 
#    0.000    0.000    0.000    0.000    0.000    0.000 
#
# Total GULP energy -167042.288458 kJ/mol
# GULP energy per Si atom -5568.076282 kJ/mol
# Density = 1.921319 g / cm^3
# Si number density = 19.257016 Si / 1000 Ang^3
#
#
#
# Elastic Constant Matrix: (Units=GPa)
#
#
# Indices 1 2 3 4 5 6 
#
# 1 63.8821 -10.0320 19.2139 -0.0001 10.8542 -0.0017
# 2 -10.0320 126.3699 16.8956 -0.0059 -8.5287 -0.0018
# 3 19.2139 16.8956 65.8847 -0.0144 -1.6897 0.0004
# 4 -0.0001 -0.0059 -0.0144 32.1875 0.0017 -0.6960
# 5 10.8542 -8.5287 -1.6897 0.0017 27.0882 0.0023
# 6 -0.0017 -0.0018 0.0004 -0.6960 0.0023 28.2047
#
#
#
# Elastic Compliance Matrix: (Units=1/GPa)
#
#
# Indices 1 2 3 4 5 6 
#
# 1 0.019084 0.001845 -0.006230 -0.000002 -0.007455 0.000002
# 2 0.001845 0.008539 -0.002682 0.000000 0.001782 0.000001
# 3 -0.006230 -0.002682 0.017753 0.000007 0.002759 -0.000001
# 4 -0.000002 0.000000 0.000007 0.031085 -0.000001 0.000767
# 5 -0.007455 0.001782 0.002759 -0.000001 0.040637 -0.000004
# 6 0.000002 0.000001 -0.000001 0.000767 -0.000004 0.035474
#
#
# Mechanical properties :
#
#
# Convention : Reuss Voigt Hill
#
# Bulk Modulus (GPa) = 32.00815 34.25466 33.13141
# Shear Modulus (GPa) = 28.22968 32.83337 30.53152
#
# Velocity S-wave (km/s) = 3.83292 4.13365 3.98612
# Velocity P-wave (km/s) = 6.02046 6.37256 6.19901
#
# Compressibility (1/GPa) = 0.03124205
#
# Stress axis : x y z
#
# Youngs Moduli (GPa) = 52.40030 117.11584 56.32749
#
# Poissons Ratio (x) = -0.21605 0.35090
# Poissons Ratio (y) = -0.09667 0.15107
# Poissons Ratio (z) = 0.32644 0.31410
#
# Static dielectric constant tensor:
#      x y z
#    x 1.653450 0.000000 0.036250 
#    y 0.000000 1.736150 0.000000 
#    z 0.036250 0.000000 1.651220 
# 
# From -- ./inp_files/239955.got.cif
#   From: 2010.05.17/outbox.cif.g08.bks.cpg/sg15_120_cif.got.tgz:239955.got - 2010.06.03 18:47:42.
