data_PCOD9267833
_publ_section_title
;
Structure prediction by ZEFSAII (Michael W. Deem and Ramdas Pophale) SiO2 
 PCOD9267833
Probable space group: C 2/C
;
_chemical_formula_sum "Si O2"
_cell_formula_units_Z 48
_cell_length_a 13.703679
_cell_length_b 13.704344
_cell_length_c 13.507769
_cell_angle_alpha 90.000000
_cell_angle_beta 61.658115
_cell_angle_gamma 90.000000
_cell_volume 2232.678278
_symmetry_space_group_name_H-M "C 2/C"
_symmetry_group_IT_number 15
_symmetry_cell_setting 'monoclinic'
loop_
_space_group_symop_operation_xyz
x,y,z
-x,y,1/2-z
-x,-y,-z
x,-y,1/2+z
1/2+x,1/2+y,z
1/2-x,1/2+y,1/2-z
1/2-x,1/2-y,-z
1/2+x,1/2-y,1/2+z
loop_
_atom_site_type_symbol
_atom_site_label
_atom_site_fract_x
_atom_site_fract_y
_atom_site_fract_z
Si Si1 0.258947 0.029544 0.916567
Si Si2 0.586403 0.318904 0.415994
Si Si3 0.263736 0.192906 0.393257
Si Si4 0.080821 0.770203 0.836073
Si Si5 0.000000 0.402346 0.250000
Si Si6 0.746920 0.327858 0.592095
Si Si7 0.500000 0.266807 0.250000
O O1 0.180230 0.099113 0.888046
O O2 0.386546 0.041398 0.822497
O O3 0.225525 0.918235 0.919991
O O4 0.253266 0.069830 0.032239
O O5 0.503377 0.325427 0.550154
O O6 0.648948 0.213029 0.394997
O O7 0.522940 0.325335 0.341672
O O8 0.250000 0.250000 0.500000
O O9 0.189287 0.248247 0.349343
O O10 0.392863 0.199987 0.310509
O O11 0.022452 0.671170 0.830261
O O12 0.135303 0.819138 0.711623
O O13 0.750000 0.250000 0.500000
#
# Coordination Sequence:
#
# PCOD9267833 Si02
#       7
#     8   8   8   8   4   8   4
#     4  11  24  43  69 105 134 176 237 280 334 410
#     4  11  22  42  74 100 137 178 226 284 344 406
#     4  12  27  48  64  99 144 186 223 281 344 408
#     4  12  22  42  73  99 140 174 224 284 353 393
#     4  12  19  42  77 100 124 180 231 288 329 402
#     4  10  19  40  67 104 132 170 222 287 337 393
#     4  12  23  48  69  96 140 186 223 278 349 408
#
# _framework density 21.498843000000001
#
# number of rings (size 3 to 8) (size 9 to 14) (size 15 to 20)
#    0.000    0.667    8.333    1.500    0.000    0.667 
#    6.000    2.500    0.000    0.000    0.000    0.000 
#    0.000    0.000    0.000    0.000    0.000    0.000 
#
# Total GULP energy -133972.323804 kJ/mol
# GULP energy per Si atom -5582.180159 kJ/mol
# Density = 2.144991 g / cm^3
# Si number density = 21.498843 Si / 1000 Ang^3
#
#
#
# Elastic Constant Matrix: (Units=GPa)
#
#
# Indices 1 2 3 4 5 6 
#
# 1 127.7345 32.5536 33.3480 0.0000 10.2232 0.0000
# 2 32.5536 72.6953 20.3221 0.0000 11.0809 0.0000
# 3 33.3480 20.3221 138.1378 0.0000 -2.1425 0.0000
# 4 0.0000 0.0000 0.0000 7.6962 0.0000 -4.4627
# 5 10.2232 11.0809 -2.1425 0.0000 52.7747 0.0000
# 6 0.0000 0.0000 0.0000 -4.4627 0.0000 13.9301
#
#
#
# Elastic Compliance Matrix: (Units=1/GPa)
#
#
# Indices 1 2 3 4 5 6 
#
# 1 0.009263 -0.003489 -0.001740 0.000000 -0.001132 0.000000
# 2 -0.003489 0.016185 -0.001582 0.000000 -0.002787 0.000000
# 3 -0.001740 -0.001582 0.007907 0.000000 0.000990 0.000000
# 4 0.000000 0.000000 0.000000 0.159579 0.000000 0.051124
# 5 -0.001132 -0.002787 0.000990 0.000000 0.019793 0.000000
# 6 0.000000 0.000000 0.000000 0.051124 0.000000 0.088165
#
#
# Mechanical properties :
#
#
# Convention : Reuss Voigt Hill
#
# Bulk Modulus (GPa) = 50.67661 56.77943 53.72802
# Shear Modulus (GPa) = 15.57176 31.70313 23.63744
#
# Velocity S-wave (km/s) = 2.69421 3.84427 3.31943
# Velocity P-wave (km/s) = 5.77073 6.79503 6.30372
#
# Compressibility (1/GPa) = 0.01973297
#
# Stress axis : x y z
#
# Youngs Moduli (GPa) = 107.95738 61.78389 126.46335
#
# Poissons Ratio (x) = 0.21555 0.22011
# Poissons Ratio (y) = 0.37665 0.20008
# Poissons Ratio (z) = 0.18790 0.09775
#
# Static dielectric constant tensor:
#      x y z
#    x 1.843810 0.000000 -0.032790 
#    y 0.000000 1.744710 0.000000 
#    z -0.032790 0.000000 1.906600 
# 
# From -- ./inp_files/96904.got.cif
#   From: 2010.05.17/outbox.cif.g08.bks.cpg/sg15_49_cif.got.tgz:96904.got - 2010.06.03 18:47:42.
