data_PCOD9267091
_publ_section_title
;
Structure prediction by ZEFSAII (Michael W. Deem and Ramdas Pophale) SiO2 
 PCOD9267091
Probable space group: C 2/C
;
_chemical_formula_sum "Si O2"
_cell_formula_units_Z 56
_cell_length_a 12.933154
_cell_length_b 7.325405
_cell_length_c 27.357962
_cell_angle_alpha 90.000000
_cell_angle_beta 58.267156
_cell_angle_gamma 90.000000
_cell_volume 2204.444292
_symmetry_space_group_name_H-M "C 2/C"
_symmetry_group_IT_number 15
_symmetry_cell_setting 'monoclinic'
loop_
_space_group_symop_operation_xyz
x,y,z
-x,y,1/2-z
-x,-y,-z
x,-y,1/2+z
1/2+x,1/2+y,z
1/2-x,1/2+y,1/2-z
1/2-x,1/2-y,-z
1/2+x,1/2-y,1/2+z
loop_
_atom_site_type_symbol
_atom_site_label
_atom_site_fract_x
_atom_site_fract_y
_atom_site_fract_z
Si Si1 0.961590 0.249408 0.914796
Si Si2 0.372578 0.392951 0.529205
Si Si3 0.979112 0.329278 0.699862
Si Si4 0.765386 0.878421 0.134593
Si Si5 0.781561 0.174665 0.212866
Si Si6 0.967752 0.761843 0.832578
Si Si7 0.440454 0.146948 0.599215
O O1 0.943185 0.231451 0.861377
O O2 0.095819 0.173903 0.892428
O O3 0.986428 0.461155 0.921173
O O4 0.864884 0.161198 0.974766
O O5 0.500000 0.500000 0.500000
O O6 0.269778 0.512387 0.581530
O O7 0.396487 0.220711 0.558733
O O8 0.836293 0.293281 0.725827
O O9 0.000000 0.270981 0.750000
O O10 0.006633 0.546646 0.687530
O O11 0.666299 0.718714 0.155144
O O12 0.741273 0.017361 0.185036
O O13 0.825588 0.338526 0.165613
O O14 0.906189 0.137463 0.212030
O O15 0.971427 0.781222 0.890866
#
# Coordination Sequence:
#
# PCOD9267091 Si02
#       7
#     8   8   8   8   8   8   8
#     4  10  21  34  61  93 123 162 209 263 321 379
#     4   9  18  36  63  89 124 168 204 265 323 379
#     4  11  21  37  61  84 121 165 205 256 324 378
#     4  10  19  38  65  88 123 165 211 257 326 388
#     4   9  20  36  62  85 122 159 205 258 305 382
#     4   9  20  37  63  91 114 168 209 248 327 383
#     4   8  18  37  59  84 127 152 207 252 320 368
#
# _framework density 25.403227999999999
#
# number of rings (size 3 to 8) (size 9 to 14) (size 15 to 20)
#    0.857    1.714    1.429    0.429    2.000    0.000 
#    0.000    7.143    3.143    0.857    0.000    0.000 
#    0.000    0.000    0.000    0.000    0.000    0.000 
#
# Total GULP energy -156116.009941 kJ/mol
# GULP energy per Si atom -5575.571784 kJ/mol
# Density = 2.534541 g / cm^3
# Si number density = 25.403228 Si / 1000 Ang^3
#
#
#
# Elastic Constant Matrix: (Units=GPa)
#
#
# Indices 1 2 3 4 5 6 
#
# 1 108.6694 10.5629 36.2286 0.0000 -9.0328 0.0000
# 2 10.5629 30.4809 14.6249 0.0000 0.7389 0.0000
# 3 36.2286 14.6249 136.7756 0.0000 25.8572 0.0000
# 4 0.0000 0.0000 0.0000 21.0422 0.0000 0.9414
# 5 -9.0328 0.7389 25.8572 0.0000 39.3696 0.0000
# 6 0.0000 0.0000 0.0000 0.9414 0.0000 32.5509
#
#
#
# Elastic Compliance Matrix: (Units=1/GPa)
#
#
# Indices 1 2 3 4 5 6 
#
# 1 0.011037 -0.002206 -0.003624 0.000000 0.004954 0.000000
# 2 -0.002206 0.035165 -0.003374 0.000000 0.001050 0.000000
# 3 -0.003624 -0.003374 0.010021 0.000000 -0.007350 0.000000
# 4 0.000000 0.000000 0.000000 0.047585 0.000000 -0.001376
# 5 0.004954 0.001050 -0.007350 0.000000 0.031345 0.000000
# 6 0.000000 0.000000 0.000000 -0.001376 0.000000 0.030761
#
#
# Mechanical properties :
#
#
# Convention : Reuss Voigt Hill
#
# Bulk Modulus (GPa) = 26.44450 44.30651 35.37551
# Shear Modulus (GPa) = 25.39005 32.89317 29.14161
#
# Velocity S-wave (km/s) = 3.16489 3.60230 3.39065
# Velocity P-wave (km/s) = 4.87728 5.89756 5.41152
#
# Compressibility (1/GPa) = 0.03781505
#
# Stress axis : x y z
#
# Youngs Moduli (GPa) = 90.60783 28.43704 99.78591
#
# Poissons Ratio (x) = 0.06273 0.36162
# Poissons Ratio (y) = 0.19987 0.33671
# Poissons Ratio (z) = 0.32836 0.09596
#
# Static dielectric constant tensor:
#      x y z
#    x 2.116570 0.000000 0.070850 
#    y 0.000000 2.119540 0.000000 
#    z 0.070850 0.000000 2.037310 
# 
# From -- ./inp_files/312657.got.cif
#   From: 2010.05.17/outbox.cif.g08.bks.cpg/sg15_157_cif.got.tgz:312657.got - 2010.06.03 18:47:42.
