data_PCOD9267616
_publ_section_title
;
Structure prediction by ZEFSAII (Michael W. Deem and Ramdas Pophale) SiO2 
 PCOD9267616
Probable space group: C 2/C
;
_chemical_formula_sum "Si O2"
_cell_formula_units_Z 60
_cell_length_a 16.087617
_cell_length_b 11.469492
_cell_length_c 22.994743
_cell_angle_alpha 90.000000
_cell_angle_beta 32.485485
_cell_angle_gamma 90.000000
_cell_volume 2278.810634
_symmetry_space_group_name_H-M "C 2/C"
_symmetry_group_IT_number 15
_symmetry_cell_setting 'monoclinic'
loop_
_space_group_symop_operation_xyz
x,y,z
-x,y,1/2-z
-x,-y,-z
x,-y,1/2+z
1/2+x,1/2+y,z
1/2-x,1/2+y,1/2-z
1/2-x,1/2-y,-z
1/2+x,1/2-y,1/2+z
loop_
_atom_site_type_symbol
_atom_site_label
_atom_site_fract_x
_atom_site_fract_y
_atom_site_fract_z
Si Si1 0.985287 0.780912 0.421931
Si Si2 0.980378 0.757720 0.694206
Si Si3 0.719803 0.548378 0.052765
Si Si4 0.754577 0.187467 0.149423
Si Si5 0.180829 0.630987 0.803139
Si Si6 0.500000 0.371366 0.250000
Si Si7 0.029993 0.411318 0.662434
Si Si8 0.168730 0.596353 0.386642
O O1 0.137490 0.857407 0.320625
O O2 0.929697 0.709456 0.397642
O O3 0.041601 0.680008 0.433299
O O4 0.853765 0.848033 0.535276
O O5 0.929912 0.647197 0.686484
O O6 0.832797 0.842656 0.778075
O O7 0.000000 0.724485 0.750000
O O8 0.127051 0.835662 0.589658
O O9 0.588938 0.455910 0.152078
O O10 0.822805 0.575181 0.049344
O O11 0.832429 0.493806 0.938674
O O12 0.852560 0.250614 0.140804
O O13 0.636865 0.289929 0.195399
O O14 0.655377 0.090105 0.242063
O O15 0.157757 0.524594 0.859623
O O16 0.000000 0.413401 0.750000
#
# Coordination Sequence:
#
# PCOD9267616 Si02
#       8
#     8   8   8   8   8   4   8   8
#     4  10  23  40  62  92 135 179 230 297 346 426
#     4   9  19  38  66 102 138 181 235 286 350 423
#     4  11  20  38  64  96 131 177 236 290 340 420
#     4  11  22  37  57  95 128 167 225 290 355 401
#     4  10  20  37  64  99 133 169 232 298 348 408
#     4  12  18  36  64 100 122 170 230 300 344 390
#     4  11  24  37  56  90 131 170 212 283 364 414
#     4  10  19  39  68  96 125 183 245 289 346 416
#
# _framework density 26.329525
#
# number of rings (size 3 to 8) (size 9 to 14) (size 15 to 20)
#    0.000    1.600    5.333    0.000    0.000    6.400 
#    0.000    2.000    0.000   17.600    0.000    0.000 
#    0.000    0.000    0.000    0.000    0.000    0.800 
#
# Total GULP energy -167804.863909 kJ/mol
# GULP energy per Si atom -5593.495464 kJ/mol
# Density = 2.626960 g / cm^3
# Si number density = 26.329525 Si / 1000 Ang^3
#
#
#
# Elastic Constant Matrix: (Units=GPa)
#
#
# Indices 1 2 3 4 5 6 
#
# 1 133.7089 39.5989 27.2230 0.0001 4.5180 -0.0001
# 2 39.5989 82.8253 49.5983 0.0001 -11.3292 0.0000
# 3 27.2230 49.5983 217.9302 0.0005 15.0468 -0.0002
# 4 0.0001 0.0001 0.0005 46.8521 0.0000 -5.4472
# 5 4.5180 -11.3292 15.0468 0.0000 27.0512 0.0000
# 6 -0.0001 0.0000 -0.0002 -5.4472 0.0000 38.7608
#
#
#
# Elastic Compliance Matrix: (Units=1/GPa)
#
#
# Indices 1 2 3 4 5 6 
#
# 1 0.009029 -0.004988 0.000266 0.000000 -0.003745 0.000000
# 2 -0.004988 0.018586 -0.004370 0.000000 0.011048 0.000000
# 3 0.000266 -0.004370 0.005906 0.000000 -0.005160 0.000000
# 4 0.000000 0.000000 0.000000 0.021698 0.000000 0.003049
# 5 -0.003745 0.011048 -0.005160 0.000000 0.045089 0.000000
# 6 0.000000 0.000000 0.000000 0.003049 0.000000 0.026228
#
#
# Mechanical properties :
#
#
# Convention : Reuss Voigt Hill
#
# Bulk Modulus (GPa) = 65.20025 74.14498 69.67262
# Shear Modulus (GPa) = 33.37063 43.73578 38.55320
#
# Velocity S-wave (km/s) = 3.56395 4.08007 3.83071
# Velocity P-wave (km/s) = 6.46162 7.10053 6.78860
#
# Compressibility (1/GPa) = 0.01533736
#
# Stress axis : x y z
#
# Youngs Moduli (GPa) = 110.75930 53.80312 169.31556
#
# Poissons Ratio (x) = 0.26838 -0.04503
# Poissons Ratio (y) = 0.55248 0.73986
# Poissons Ratio (z) = -0.02946 0.23510
#
# Static dielectric constant tensor:
#      x y z
#    x 2.201350 0.000000 0.008310 
#    y 0.000000 2.090030 0.000000 
#    z 0.008310 0.000000 2.103660 
# 
# From -- ./inp_files/277552.got.cif
#   From: 2010.05.17/outbox.cif.g08.bks.cpg/sg15_139_cif.got.tgz:277552.got - 2010.06.03 18:47:42.
