data_PCOD9267197
_publ_section_title
;
Structure prediction by ZEFSAII (Michael W. Deem and Ramdas Pophale) SiO2 
 PCOD9267197
Probable space group: C 2/C
;
_chemical_formula_sum "Si O2"
_cell_formula_units_Z 44
_cell_length_a 8.355516
_cell_length_b 14.516752
_cell_length_c 16.049760
_cell_angle_alpha 90.000000
_cell_angle_beta 81.747240
_cell_angle_gamma 90.000000
_cell_volume 1926.595223
_symmetry_space_group_name_H-M "C 2/C"
_symmetry_group_IT_number 15
_symmetry_cell_setting 'monoclinic'
loop_
_space_group_symop_operation_xyz
x,y,z
-x,y,1/2-z
-x,-y,-z
x,-y,1/2+z
1/2+x,1/2+y,z
1/2-x,1/2+y,1/2-z
1/2-x,1/2-y,-z
1/2+x,1/2-y,1/2+z
loop_
_atom_site_type_symbol
_atom_site_label
_atom_site_fract_x
_atom_site_fract_y
_atom_site_fract_z
Si Si1 0.910902 0.762522 0.110752
Si Si2 0.270340 0.979800 0.704730
Si Si3 0.087038 0.902731 0.975322
Si Si4 0.920186 0.198873 0.338084
Si Si5 0.000000 0.118805 0.750000
Si Si6 0.412963 0.933395 0.876613
O O1 0.721303 0.751807 0.100460
O O2 0.900193 0.817694 0.196857
O O3 0.007950 0.668843 0.124625
O O4 0.020453 0.827003 0.044415
O O5 0.183888 0.884126 0.692103
O O6 0.329794 0.967024 0.795989
O O7 0.425617 0.995144 0.634421
O O8 0.133682 0.054438 0.698716
O O9 0.274895 0.930121 0.955909
O O10 0.044805 0.851100 0.890897
O O11 0.000000 0.000000 0.000000
O O12 0.000000 0.245778 0.250000
#
# Coordination Sequence:
#
# PCOD9267197 Si02
#       6
#     8   8   8   8   4   8
#     4  11  25  41  64  99 131 175 223 271 330 403
#     4  10  19  38  67  93 125 175 219 271 324 391
#     4  12  24  43  66  97 135 173 221 281 332 388
#     4  11  21  42  69  92 132 180 216 265 335 395
#     4  12  22  42  64 100 134 172 224 276 332 398
#     4  10  21  41  64  92 130 174 221 267 335 394
#
# _framework density 22.838215999999999
#
# number of rings (size 3 to 8) (size 9 to 14) (size 15 to 20)
#    0.000    1.091    2.727    5.455    0.000    0.000 
#    6.545   10.000    0.000    0.000    0.000    0.000 
#    0.000    0.000    0.000    0.000    0.000    0.000 
#
# Total GULP energy -122652.998557 kJ/mol
# GULP energy per Si atom -5575.136298 kJ/mol
# Density = 2.278624 g / cm^3
# Si number density = 22.838216 Si / 1000 Ang^3
#
#
#
# Elastic Constant Matrix: (Units=GPa)
#
#
# Indices 1 2 3 4 5 6 
#
# 1 93.4197 18.9999 16.5793 0.0000 -40.2111 0.0000
# 2 18.9999 54.6094 7.9838 0.0000 -18.0044 0.0000
# 3 16.5793 7.9838 68.8875 0.0000 -21.2460 0.0000
# 4 0.0000 0.0000 0.0000 38.4667 0.0000 42.8272
# 5 -40.2111 -18.0044 -21.2460 0.0000 49.5765 0.0000
# 6 0.0000 0.0000 0.0000 42.8272 0.0000 18.1658
#
#
#
# Elastic Compliance Matrix: (Units=1/GPa)
#
#
# Indices 1 2 3 4 5 6 
#
# 1 0.016558 -0.001515 0.000188 0.000000 0.012960 0.000000
# 2 -0.001515 0.020942 -0.000110 0.000000 0.006329 0.000000
# 3 0.000188 -0.000110 0.016730 0.000000 0.007282 0.000000
# 4 0.000000 0.000000 0.000000 -0.016000 0.000000 0.037720
# 5 0.012960 0.006329 0.007282 0.000000 0.036102 0.000000
# 6 0.000000 0.000000 0.000000 0.037720 0.000000 -0.033880
#
#
# Mechanical properties :
#
#
# Convention : Reuss Voigt Hill
#
# Bulk Modulus (GPa) = 19.47300 33.78248 26.62774
# Shear Modulus (GPa) = 82.71901 32.79871 57.75886
#
# Velocity S-wave (km/s) = 6.02480 3.79375 5.03442
# Velocity P-wave (km/s) = 7.54603 5.83217 6.74377
#
# Compressibility (1/GPa) = 0.05135315
#
# Stress axis : x y z
#
# Youngs Moduli (GPa) = 60.39500 47.75121 59.77335
#
# Poissons Ratio (x) = 0.07236 -0.01122
# Poissons Ratio (y) = 0.09152 0.00660
# Poissons Ratio (z) = -0.01134 0.00527
#
# Static dielectric constant tensor:
#      x y z
#    x -0.340790 0.000000 0.503700 
#    y 0.000000 1.825470 0.000000 
#    z 0.503700 0.000000 1.835080 
# 
# From -- ./inp_files/188748.got.cif
#   From: 2010.05.17/outbox.cif.g08.bks.cpg/sg15_95_cif.got.tgz:188748.got - 2010.06.03 18:47:42.
