data_PCOD9267518
_publ_section_title
;
Structure prediction by ZEFSAII (Michael W. Deem and Ramdas Pophale) SiO2 
 PCOD9267518
Probable space group: C 2/C
;
_chemical_formula_sum "Si O2"
_cell_formula_units_Z 48
_cell_length_a 19.258190
_cell_length_b 20.265801
_cell_length_c 8.592370
_cell_angle_alpha 90.000000
_cell_angle_beta 133.038029
_cell_angle_gamma 90.000000
_cell_volume 2451.041666
_symmetry_space_group_name_H-M "C 2/C"
_symmetry_group_IT_number 15
_symmetry_cell_setting 'monoclinic'
loop_
_space_group_symop_operation_xyz
x,y,z
-x,y,1/2-z
-x,-y,-z
x,-y,1/2+z
1/2+x,1/2+y,z
1/2-x,1/2+y,1/2-z
1/2-x,1/2-y,-z
1/2+x,1/2-y,1/2+z
loop_
_atom_site_type_symbol
_atom_site_label
_atom_site_fract_x
_atom_site_fract_y
_atom_site_fract_z
Si Si1 0.998680 0.348315 0.497461
Si Si2 0.000000 0.247366 0.250000
Si Si3 0.184124 0.817448 0.065325
Si Si4 0.820387 0.430983 0.251120
Si Si5 0.315584 0.307080 0.808948
Si Si6 0.324585 0.922080 0.882698
Si Si7 0.500000 0.253348 0.250000
O O1 0.077831 0.391455 0.533715
O O2 0.952289 0.298263 0.299150
O O3 0.918206 0.394396 0.448503
O O4 0.041856 0.297559 0.686789
O O5 0.078086 0.202301 0.452525
O O6 0.233128 0.886574 0.178820
O O7 0.252387 0.758986 0.227751
O O8 0.176478 0.816852 0.865134
O O9 0.812971 0.505406 0.295497
O O10 0.825496 0.428458 0.071073
O O11 0.258140 0.369989 0.784507
O O12 0.416203 0.295090 0.044086
#
# Coordination Sequence:
#
# PCOD9267518 Si02
#       7
#     8   4   8   8   8   8   4
#     4  12  22  37  62  92 124 158 200 254 310 361
#     4  12  18  40  68  92 112 166 212 244 302 366
#     4  10  19  39  65  85 120 165 205 243 301 368
#     4  11  23  41  60  88 124 164 201 248 303 365
#     4  10  20  40  61  89 125 159 200 255 300 357
#     4  11  24  40  61  87 124 164 204 244 304 366
#     4  12  24  36  64  98 124 152 204 266 304 342
#
# _framework density 19.58351
#
# number of rings (size 3 to 8) (size 9 to 14) (size 15 to 20)
#    0.000    1.000    6.667    1.500    2.333    0.667 
#    3.000    0.833    0.000    4.000    0.000    0.000 
#    0.000    0.000    0.000    0.000    0.000    0.000 
#
# Total GULP energy -134016.552013 kJ/mol
# GULP energy per Si atom -5584.023001 kJ/mol
# Density = 1.953894 g / cm^3
# Si number density = 19.583510 Si / 1000 Ang^3
#
#
#
# Elastic Constant Matrix: (Units=GPa)
#
#
# Indices 1 2 3 4 5 6 
#
# 1 41.6020 52.4377 20.3680 0.0000 18.6216 0.0000
# 2 52.4377 165.8756 50.9758 0.0000 27.6971 0.0000
# 3 20.3680 50.9758 90.3958 0.0000 30.8475 0.0000
# 4 0.0000 0.0000 0.0000 28.8547 0.0000 0.6541
# 5 18.6216 27.6971 30.8475 0.0000 30.5253 0.0000
# 6 0.0000 0.0000 0.0000 0.6541 0.0000 40.6008
#
#
#
# Elastic Compliance Matrix: (Units=1/GPa)
#
#
# Indices 1 2 3 4 5 6 
#
# 1 0.047754 -0.012657 0.003663 0.000000 -0.021349 0.000000
# 2 -0.012657 0.010941 -0.003915 0.000000 0.001751 0.000000
# 3 0.003663 -0.003915 0.018309 0.000000 -0.017185 0.000000
# 4 0.000000 0.000000 0.000000 0.034669 0.000000 -0.000559
# 5 -0.021349 0.001751 -0.017185 0.000000 0.061560 0.000000
# 6 0.000000 0.000000 0.000000 -0.000559 0.000000 0.024639
#
#
# Mechanical properties :
#
#
# Convention : Reuss Voigt Hill
#
# Bulk Modulus (GPa) = 19.53705 60.60404 40.07054
# Shear Modulus (GPa) = 20.76819 31.60229 26.18524
#
# Velocity S-wave (km/s) = 3.26005 4.02147 3.66061
# Velocity P-wave (km/s) = 4.91615 7.25097 6.19456
#
# Compressibility (1/GPa) = 0.05118481
#
# Stress axis : x y z
#
# Youngs Moduli (GPa) = 20.94077 91.40139 54.61730
#
# Poissons Ratio (x) = 1.15689 -0.20006
# Poissons Ratio (y) = 0.26505 0.21384
# Poissons Ratio (z) = -0.07671 0.35786
#
# Static dielectric constant tensor:
#      x y z
#    x 1.745880 0.000000 -0.030450 
#    y 0.000000 1.658760 0.000000 
#    z -0.030450 0.000000 1.718960 
# 
# From -- ./inp_files/40713.got.cif
#   From: 2010.05.17/outbox.cif.g08.bks.cpg/sg15_21_cif.got.tgz:40713.got - 2010.06.03 18:47:42.
