data_PCOD9267545
_publ_section_title
;
Structure prediction by ZEFSAII (Michael W. Deem and Ramdas Pophale) SiO2 
 PCOD9267545
Probable space group: C 2/C
;
_chemical_formula_sum "Si O2"
_cell_formula_units_Z 56
_cell_length_a 7.739455
_cell_length_b 20.209949
_cell_length_c 17.943175
_cell_angle_alpha 90.000000
_cell_angle_beta 106.085486
_cell_angle_gamma 90.000000
_cell_volume 2696.684882
_symmetry_space_group_name_H-M "C 2/C"
_symmetry_group_IT_number 15
_symmetry_cell_setting 'monoclinic'
loop_
_space_group_symop_operation_xyz
x,y,z
-x,y,1/2-z
-x,-y,-z
x,-y,1/2+z
1/2+x,1/2+y,z
1/2-x,1/2+y,1/2-z
1/2-x,1/2-y,-z
1/2+x,1/2-y,1/2+z
loop_
_atom_site_type_symbol
_atom_site_label
_atom_site_fract_x
_atom_site_fract_y
_atom_site_fract_z
Si Si1 0.340519 0.292401 0.097599
Si Si2 0.471693 0.951584 0.908442
Si Si3 0.323041 0.555962 0.853828
Si Si4 0.500000 0.966157 0.750000
Si Si5 0.000000 0.149023 0.750000
Si Si6 0.295056 0.864350 0.016120
Si Si7 0.488761 0.271724 0.523417
Si Si8 0.278781 0.445104 0.051213
O O1 0.373664 0.304452 0.187030
O O2 0.281471 0.365686 0.061704
O O3 0.194672 0.236141 0.068696
O O4 0.510097 0.273198 0.066896
O O5 0.390687 0.903639 0.961726
O O6 0.455004 0.928793 0.821590
O O7 0.353588 0.018578 0.905422
O O8 0.678499 0.960303 0.961047
O O9 0.173244 0.509180 0.797982
O O10 0.392529 0.604224 0.795949
O O11 0.516643 0.530572 0.910471
O O12 0.231317 0.596334 0.910619
O O13 0.101664 0.839441 0.963646
O O14 0.394797 0.794491 0.041191
#
# Coordination Sequence:
#
# PCOD9267545 Si02
#       8
#     8   8   8   4   4   8   8   8
#     4  10  19  39  65  95 124 172 211 270 312 381
#     4  11  24  40  66  92 132 163 222 264 335 379
#     4  11  23  40  67  97 130 164 220 266 331 372
#     4  12  26  40  61 100 130 171 202 290 332 382
#     4  10  20  36  61  96 132 157 208 280 320 360
#     4  11  22  40  65  95 124 173 218 260 301 404
#     4  10  21  38  66  90 125 168 222 251 305 386
#     4  10  20  42  65  93 122 171 211 267 315 402
#
# _framework density 20.766238999999999
#
# number of rings (size 3 to 8) (size 9 to 14) (size 15 to 20)
#    0.000    1.429    4.286    3.429    2.000    2.286 
#    0.000    0.714    0.000    1.714    0.000    0.000 
#    0.000    0.000    0.000    0.000    0.000    0.000 
#
# Total GULP energy -156068.809101 kJ/mol
# GULP energy per Si atom -5573.886039 kJ/mol
# Density = 2.071897 g / cm^3
# Si number density = 20.766239 Si / 1000 Ang^3
#
#
#
# Elastic Constant Matrix: (Units=GPa)
#
#
# Indices 1 2 3 4 5 6 
#
# 1 105.1207 18.3952 47.1950 0.0000 7.4201 0.0000
# 2 18.3952 36.4905 25.9599 0.0000 -1.5964 0.0000
# 3 47.1950 25.9599 146.8133 0.0000 -13.1306 0.0000
# 4 0.0000 0.0000 0.0000 24.7011 0.0000 2.6235
# 5 7.4201 -1.5964 -13.1306 0.0000 37.6493 0.0000
# 6 0.0000 0.0000 0.0000 2.6235 0.0000 38.5054
#
#
#
# Elastic Compliance Matrix: (Units=1/GPa)
#
#
# Indices 1 2 3 4 5 6 
#
# 1 0.012018 -0.003701 -0.003545 0.000000 -0.003762 0.000000
# 2 -0.003701 0.032501 -0.004510 0.000000 0.000535 0.000000
# 3 -0.003545 -0.004510 0.009077 0.000000 0.003673 0.000000
# 4 0.000000 0.000000 0.000000 0.040779 0.000000 -0.002778
# 5 -0.003762 0.000535 0.003673 0.000000 0.028606 0.000000
# 6 0.000000 0.000000 0.000000 -0.002778 0.000000 0.026160
#
#
# Mechanical properties :
#
#
# Convention : Reuss Voigt Hill
#
# Bulk Modulus (GPa) = 33.23904 52.39162 42.81533
# Shear Modulus (GPa) = 27.37022 33.29613 30.33317
#
# Velocity S-wave (km/s) = 3.63439 4.00856 3.82605
# Velocity P-wave (km/s) = 5.80110 6.83438 6.33883
#
# Compressibility (1/GPa) = 0.03008511
#
# Stress axis : x y z
#
# Youngs Moduli (GPa) = 83.21058 30.76789 110.16880
#
# Poissons Ratio (x) = 0.11386 0.39059
# Poissons Ratio (y) = 0.30793 0.49681
# Poissons Ratio (z) = 0.29501 0.13875
#
# Static dielectric constant tensor:
#      x y z
#    x 1.896100 0.000000 -0.011940 
#    y 0.000000 1.768530 0.000000 
#    z -0.011940 0.000000 1.764310 
# 
# From -- ./inp_files/191706.got.cif
#   From: 2010.05.17/outbox.cif.g08.bks.cpg/sg15_96_cif.got.tgz:191706.got - 2010.06.03 18:47:42.
