data_PCOD9267259
_publ_section_title
;
Structure prediction by ZEFSAII (Michael W. Deem and Ramdas Pophale) SiO2 
 PCOD9267259
Probable space group: C 2/C
;
_chemical_formula_sum "Si O2"
_cell_formula_units_Z 52
_cell_length_a 7.843521
_cell_length_b 21.734151
_cell_length_c 14.418663
_cell_angle_alpha 90.000000
_cell_angle_beta 75.386591
_cell_angle_gamma 90.000000
_cell_volume 2378.466858
_symmetry_space_group_name_H-M "C 2/C"
_symmetry_group_IT_number 15
_symmetry_cell_setting 'monoclinic'
loop_
_space_group_symop_operation_xyz
x,y,z
-x,y,1/2-z
-x,-y,-z
x,-y,1/2+z
1/2+x,1/2+y,z
1/2-x,1/2+y,1/2-z
1/2-x,1/2-y,-z
1/2+x,1/2-y,1/2+z
loop_
_atom_site_type_symbol
_atom_site_label
_atom_site_fract_x
_atom_site_fract_y
_atom_site_fract_z
Si Si1 0.451893 0.114152 0.120030
Si Si2 0.681329 0.107519 0.556205
Si Si3 0.786220 0.306696 0.279769
Si Si4 0.233149 0.969954 0.975618
Si Si5 0.324756 0.545465 0.218026
Si Si6 0.500000 0.211486 0.250000
Si Si7 0.214849 0.424671 0.332310
O O1 0.569313 0.056178 0.071222
O O2 0.320174 0.088863 0.215637
O O3 0.556777 0.168796 0.154919
O O4 0.355369 0.135450 0.040086
O O5 0.751877 0.158412 0.617538
O O6 0.493988 0.083582 0.623246
O O7 0.781818 0.043390 0.526144
O O8 0.663352 0.249846 0.269437
O O9 0.734142 0.358052 0.210693
O O10 0.000000 0.294600 0.250000
O O11 0.142895 0.945640 0.894849
O O12 0.194537 0.945132 0.083629
O O13 0.500000 0.555682 0.250000
O O14 0.258177 0.476226 0.250139
#
# Coordination Sequence:
#
# PCOD9267259 Si02
#       7
#     8   8   8   8   8   4   8
#     4  11  22  42  66  93 121 168 218 263 328 385
#     4  10  19  38  72  94 123 161 215 270 329 384
#     4  10  24  43  64  94 130 178 224 268 312 381
#     4  11  19  38  68  97 122 163 207 265 334 393
#     4  12  23  34  59 101 135 159 197 268 334 391
#     4  12  26  44  68  86 134 182 224 264 312 388
#     4  10  20  37  63  97 129 157 206 264 328 383
#
# _framework density 21.862824
#
# number of rings (size 3 to 8) (size 9 to 14) (size 15 to 20)
#    0.000    1.231    6.154    0.923    1.077    1.846 
#    2.769    6.923    0.000    0.000    0.000    0.000 
#    0.000    0.000    0.000    0.000    0.000    0.000 
#
# Total GULP energy -145178.200295 kJ/mol
# GULP energy per Si atom -5583.776934 kJ/mol
# Density = 2.181306 g / cm^3
# Si number density = 21.862824 Si / 1000 Ang^3
#
#
#
# Elastic Constant Matrix: (Units=GPa)
#
#
# Indices 1 2 3 4 5 6 
#
# 1 75.4203 28.5193 36.9346 0.0000 14.8770 0.0000
# 2 28.5193 88.7239 42.4637 0.0000 9.5804 0.0000
# 3 36.9346 42.4637 134.8693 0.0000 34.3628 0.0000
# 4 0.0000 0.0000 0.0000 22.7426 0.0000 5.6496
# 5 14.8770 9.5804 34.3628 0.0000 39.3481 0.0000
# 6 0.0000 0.0000 0.0000 5.6496 0.0000 -90.6185
#
#
#
# Elastic Compliance Matrix: (Units=1/GPa)
#
#
# Indices 1 2 3 4 5 6 
#
# 1 0.016545 -0.003760 -0.002555 0.000000 -0.003109 0.000000
# 2 -0.003760 0.014134 -0.003737 0.000000 0.001244 0.000000
# 3 -0.002555 -0.003737 0.011335 0.000000 -0.008023 0.000000
# 4 0.000000 0.000000 0.000000 0.043300 0.000000 0.002700
# 5 -0.003109 0.001244 -0.008023 0.000000 0.033293 0.000000
# 6 0.000000 0.000000 0.000000 0.002700 0.000000 -0.010867
#
#
# Mechanical properties :
#
#
# Convention : Reuss Voigt Hill
#
# Bulk Modulus (GPa) = 45.64197 57.20543 51.42370
# Shear Modulus (GPa) = 36.99645 7.03417 22.01531
#
# Velocity S-wave (km/s) = 4.11811 1.79566 3.17673
# Velocity P-wave (km/s) = 6.59800 5.52464 6.08503
#
# Compressibility (1/GPa) = 0.02190966
#
# Stress axis : x y z
#
# Youngs Moduli (GPa) = 60.44037 70.75220 88.22056
#
# Poissons Ratio (x) = 0.26601 0.22542
# Poissons Ratio (y) = 0.22724 0.32972
# Poissons Ratio (z) = 0.15444 0.26443
#
# Static dielectric constant tensor:
#      x y z
#    x 1.873190 0.000000 0.008170 
#    y 0.000000 1.807750 0.000000 
#    z 0.008170 0.000000 1.817770 
# 
# From -- ./inp_files/135997.got.cif
#   From: 2010.05.17/outbox.cif.g08.bks.cpg/sg15_68_cif.got.tgz:135997.got - 2010.06.03 18:47:42.
