data_PCOD9267327
_publ_section_title
;
Structure prediction by ZEFSAII (Michael W. Deem and Ramdas Pophale) SiO2 
 PCOD9267327
Probable space group: C 2/C
;
_chemical_formula_sum "Si O2"
_cell_formula_units_Z 56
_cell_length_a 11.036891
_cell_length_b 22.437219
_cell_length_c 12.276375
_cell_angle_alpha 90.000000
_cell_angle_beta 94.946643
_cell_angle_gamma 90.000000
_cell_volume 3028.763387
_symmetry_space_group_name_H-M "C 2/C"
_symmetry_group_IT_number 15
_symmetry_cell_setting 'monoclinic'
loop_
_space_group_symop_operation_xyz
x,y,z
-x,y,1/2-z
-x,-y,-z
x,-y,1/2+z
1/2+x,1/2+y,z
1/2-x,1/2+y,1/2-z
1/2-x,1/2-y,-z
1/2+x,1/2-y,1/2+z
loop_
_atom_site_type_symbol
_atom_site_label
_atom_site_fract_x
_atom_site_fract_y
_atom_site_fract_z
Si Si1 0.803668 0.492888 0.493666
Si Si2 0.658306 0.406837 0.863807
Si Si3 0.734787 0.774989 0.653877
Si Si4 0.934559 0.295103 0.043905
Si Si5 0.180907 0.775252 0.598420
Si Si6 0.614848 0.412459 0.605327
Si Si7 0.005394 0.573369 0.879099
O O1 0.754462 0.548592 0.421980
O O2 0.692965 0.458291 0.541328
O O3 0.897223 0.521337 0.587685
O O4 0.879416 0.449237 0.421197
O O5 0.701321 0.338329 0.869918
O O6 0.640514 0.421995 0.735461
O O7 0.530634 0.414995 0.916186
O O8 0.818585 0.724167 0.606993
O O9 0.605454 0.777637 0.582348
O O10 0.742664 0.767763 0.784135
O O11 0.958898 0.364893 0.059876
O O12 0.051698 0.258805 0.094624
O O13 0.250000 0.750000 0.500000
O O14 0.155998 0.845267 0.582611
O O15 0.000000 0.583742 0.750000
#
# Coordination Sequence:
#
# PCOD9267327 Si02
#       7
#     8   8   8   8   8   8   8
#     4  11  22  38  56  86 120 157 199 246 294 351
#     4  10  19  39  60  84 115 156 202 240 290 359
#     4  10  21  38  62  86 113 158 202 241 291 365
#     4  11  21  39  63  85 114 154 201 245 294 359
#     4  11  22  37  59  89 123 153 193 248 302 354
#     4  10  21  36  61  85 116 156 199 246 293 348
#     4  11  23  37  58  86 120 156 197 249 303 356
#
# _framework density 18.489394999999998
#
# number of rings (size 3 to 8) (size 9 to 14) (size 15 to 20)
#    0.000    1.429    2.857    3.429    0.000    0.571 
#    0.000    0.000    0.000    0.000    0.000    0.000 
#    0.000    0.000    0.000    0.000    0.000    0.000 
#
# Total GULP energy -156358.512863 kJ/mol
# GULP energy per Si atom -5584.232602 kJ/mol
# Density = 1.844731 g / cm^3
# Si number density = 18.489395 Si / 1000 Ang^3
#
#
#
# Elastic Constant Matrix: (Units=GPa)
#
#
# Indices 1 2 3 4 5 6 
#
# 1 51.8671 26.9490 42.7147 0.0000 -2.6839 0.0000
# 2 26.9490 64.5468 36.6664 0.0000 -10.3972 0.0000
# 3 42.7147 36.6664 101.1344 0.0000 7.3408 0.0000
# 4 0.0000 0.0000 0.0000 25.7572 0.0000 0.7444
# 5 -2.6839 -10.3972 7.3408 0.0000 28.0036 0.0000
# 6 0.0000 0.0000 0.0000 0.7444 0.0000 37.3585
#
#
#
# Elastic Compliance Matrix: (Units=1/GPa)
#
#
# Indices 1 2 3 4 5 6 
#
# 1 0.032339 -0.006255 -0.011669 0.000000 0.003836 0.000000
# 2 -0.006255 0.023410 -0.006557 0.000000 0.009811 0.000000
# 3 -0.011669 -0.006557 0.017790 0.000000 -0.008216 0.000000
# 4 0.000000 0.000000 0.000000 0.038847 0.000000 -0.000774
# 5 0.003836 0.009811 -0.008216 0.000000 0.041874 0.000000
# 6 0.000000 0.000000 0.000000 -0.000774 0.000000 0.026783
#
#
# Mechanical properties :
#
#
# Convention : Reuss Voigt Hill
#
# Bulk Modulus (GPa) = 40.69157 47.80094 44.24626
# Shear Modulus (GPa) = 20.99108 25.63838 23.31473
#
# Velocity S-wave (km/s) = 3.37308 3.72782 3.55488
# Velocity P-wave (km/s) = 6.10132 6.66619 6.39000
#
# Compressibility (1/GPa) = 0.02457511
#
# Stress axis : x y z
#
# Youngs Moduli (GPa) = 30.92289 42.71756 56.21112
#
# Poissons Ratio (x) = 0.26721 0.65593
# Poissons Ratio (y) = 0.19343 0.36860
# Poissons Ratio (z) = 0.36084 0.28012
#
# Static dielectric constant tensor:
#      x y z
#    x 1.644530 0.000000 0.024350 
#    y 0.000000 1.610860 0.000000 
#    z 0.024350 0.000000 1.635780 
# 
# From -- ./inp_files/88967.got.cif
#   From: 2010.05.17/outbox.cif.g08.bks.cpg/sg15_45_cif.got.tgz:88967.got - 2010.06.03 18:47:42.
