data_PCOD9267800
_publ_section_title
;
Structure prediction by ZEFSAII (Michael W. Deem and Ramdas Pophale) SiO2 
 PCOD9267800
Probable space group: C 2/C
;
_chemical_formula_sum "Si O2"
_cell_formula_units_Z 56
_cell_length_a 9.422486
_cell_length_b 11.498189
_cell_length_c 27.468303
_cell_angle_alpha 90.000000
_cell_angle_beta 65.313667
_cell_angle_gamma 90.000000
_cell_volume 2703.978580
_symmetry_space_group_name_H-M "C 2/C"
_symmetry_group_IT_number 15
_symmetry_cell_setting 'monoclinic'
loop_
_space_group_symop_operation_xyz
x,y,z
-x,y,1/2-z
-x,-y,-z
x,-y,1/2+z
1/2+x,1/2+y,z
1/2-x,1/2+y,1/2-z
1/2-x,1/2-y,-z
1/2+x,1/2-y,1/2+z
loop_
_atom_site_type_symbol
_atom_site_label
_atom_site_fract_x
_atom_site_fract_y
_atom_site_fract_z
Si Si1 0.861963 0.057867 0.487913
Si Si2 0.333875 0.675979 0.946234
Si Si3 0.161888 0.500941 0.201784
Si Si4 0.207838 0.848812 0.403629
Si Si5 0.959257 0.178999 0.380398
Si Si6 0.477686 0.521328 0.702672
Si Si7 0.709368 0.737268 0.658887
O O1 0.760186 0.114204 0.544989
O O2 0.936367 0.149351 0.440323
O O3 0.785949 0.957301 0.465715
O O4 0.000000 0.000000 0.500000
O O5 0.523642 0.671995 0.922093
O O6 0.292300 0.728274 0.899735
O O7 0.250000 0.750000 0.000000
O O8 0.217888 0.441667 0.143566
O O9 0.294996 0.458439 0.220481
O O10 0.157025 0.638969 0.189291
O O11 0.000000 0.468046 0.250000
O O12 0.302401 0.732028 0.381843
O O13 0.107655 0.263804 0.352266
O O14 0.984875 0.058479 0.348789
O O15 0.500000 0.454258 0.750000
O O16 0.591436 0.632807 0.689573
#
# Coordination Sequence:
#
# PCOD9267800 Si02
#       7
#     8   8   8   8   8   8   8
#     4  10  19  40  65  92 133 173 213 270 327 401
#     4  11  20  38  68  98 130 177 223 267 335 409
#     4  11  25  45  68  97 131 177 231 282 339 402
#     4  11  23  42  64  99 142 169 222 281 339 406
#     4  11  24  42  65  99 139 171 213 284 339 400
#     4  11  24  45  67  95 132 175 232 279 334 407
#     4  11  21  44  67  96 128 175 229 268 336 407
#
# _framework density 20.710222000000002
#
# number of rings (size 3 to 8) (size 9 to 14) (size 15 to 20)
#    0.000    1.143    2.857    6.000    2.000    1.714 
#    5.143    1.429    0.000    0.000    0.000    0.000 
#    0.000    0.000    0.000    0.000    0.000    0.000 
#
# Total GULP energy -156117.813519 kJ/mol
# GULP energy per Si atom -5575.636197 kJ/mol
# Density = 2.066309 g / cm^3
# Si number density = 20.710222 Si / 1000 Ang^3
#
#
#
# Elastic Constant Matrix: (Units=GPa)
#
#
# Indices 1 2 3 4 5 6 
#
# 1 75.3016 44.6202 49.4070 0.0000 -15.6576 0.0000
# 2 44.6202 64.2778 9.0899 0.0000 -14.4204 0.0000
# 3 49.4070 9.0899 118.8593 0.0000 -8.2614 0.0000
# 4 0.0000 0.0000 0.0000 -43.8404 0.0000 -19.0193
# 5 -15.6576 -14.4204 -8.2614 0.0000 36.5373 0.0000
# 6 0.0000 0.0000 0.0000 -19.0193 0.0000 30.4254
#
#
#
# Elastic Compliance Matrix: (Units=1/GPa)
#
#
# Indices 1 2 3 4 5 6 
#
# 1 0.035478 -0.022004 -0.012813 0.000000 0.003622 0.000000
# 2 -0.022004 0.030801 0.007092 0.000000 0.004330 0.000000
# 3 -0.012813 0.007092 0.013218 0.000000 0.000297 0.000000
# 4 0.000000 0.000000 0.000000 -0.017944 0.000000 -0.011217
# 5 0.003622 0.004330 0.000297 0.000000 0.030698 0.000000
# 6 0.000000 0.000000 0.000000 -0.011217 0.000000 0.025855
#
#
# Mechanical properties :
#
#
# Convention : Reuss Voigt Hill
#
# Bulk Modulus (GPa) = 41.58528 51.63035 46.60781
# Shear Modulus (GPa) = 27.53741 14.97923 21.25832
#
# Velocity S-wave (km/s) = 3.65040 2.69230 3.20733
# Velocity P-wave (km/s) = 6.15552 5.88631 6.02242
#
# Compressibility (1/GPa) = 0.02404697
#
# Stress axis : x y z
#
# Youngs Moduli (GPa) = 28.18621 32.46700 75.65647
#
# Poissons Ratio (x) = 0.71439 0.96939
# Poissons Ratio (y) = 0.62020 -0.53655
# Poissons Ratio (z) = 0.36115 -0.23025
#
# Static dielectric constant tensor:
#      x y z
#    x 1.734740 0.000000 -0.032530 
#    y 0.000000 1.772430 0.000000 
#    z -0.032530 0.000000 2.172570 
# 
# From -- ./inp_files/287951.got.cif
#   From: 2010.05.17/outbox.cif.g08.bks.cpg/sg15_144_cif.got.tgz:287951.got - 2010.06.03 18:47:42.
