data_PCOD9267429
_publ_section_title
;
Structure prediction by ZEFSAII (Michael W. Deem and Ramdas Pophale) SiO2 
 PCOD9267429
Probable space group: C 2/C
;
_chemical_formula_sum "Si O2"
_cell_formula_units_Z 44
_cell_length_a 8.687186
_cell_length_b 29.253678
_cell_length_c 9.722492
_cell_angle_alpha 90.000000
_cell_angle_beta 52.063741
_cell_angle_gamma 90.000000
_cell_volume 1948.706258
_symmetry_space_group_name_H-M "C 2/C"
_symmetry_group_IT_number 15
_symmetry_cell_setting 'monoclinic'
loop_
_space_group_symop_operation_xyz
x,y,z
-x,y,1/2-z
-x,-y,-z
x,-y,1/2+z
1/2+x,1/2+y,z
1/2-x,1/2+y,1/2-z
1/2-x,1/2-y,-z
1/2+x,1/2-y,1/2+z
loop_
_atom_site_type_symbol
_atom_site_label
_atom_site_fract_x
_atom_site_fract_y
_atom_site_fract_z
Si Si1 0.176676 0.958430 0.043222
Si Si2 0.209747 0.681605 0.306936
Si Si3 0.080149 0.766384 0.483914
Si Si4 0.500000 0.104703 0.250000
Si Si5 0.274031 0.148816 0.895124
Si Si6 0.904142 0.942019 0.942054
O O1 0.000000 0.947993 0.250000
O O2 0.217521 0.012810 0.033249
O O3 0.368479 0.926473 0.926250
O O4 0.080203 0.954790 0.945889
O O5 0.042990 0.720325 0.419704
O O6 0.145055 0.639398 0.249375
O O7 0.264169 0.660689 0.424460
O O8 0.386497 0.712815 0.155790
O O9 0.250000 0.750000 0.500000
O O10 0.169646 0.811758 0.364397
O O11 0.500000 0.153770 0.750000
O O12 0.210439 0.096992 0.913909
O O13 0.000000 0.924229 0.750000
#
# Coordination Sequence:
#
# PCOD9267429 Si02
#       6
#     8   8   8   4   8   8
#     4  10  24  44  67  94 140 182 224 282 343 411
#     4  11  24  41  62  96 127 177 215 276 347 401
#     4  10  19  39  63  87 126 159 219 281 325 387
#     4  12  26  44  66  94 146 182 222 274 348 426
#     4  11  21  34  65  96 124 162 223 277 331 394
#     4  10  21  43  66  97 129 175 229 285 335 398
#
# _framework density 22.579083000000001
#
# number of rings (size 3 to 8) (size 9 to 14) (size 15 to 20)
#    0.000    1.455    0.000    7.636    3.818    0.727 
#    3.273    3.636    0.000    0.000    0.000    0.000 
#    0.000    0.000    0.000    0.000    0.000    0.000 
#
# Total GULP energy -122645.686702 kJ/mol
# GULP energy per Si atom -5574.803941 kJ/mol
# Density = 2.252769 g / cm^3
# Si number density = 22.579083 Si / 1000 Ang^3
#
#
#
# Elastic Constant Matrix: (Units=GPa)
#
#
# Indices 1 2 3 4 5 6 
#
# 1 17.4727 9.4987 1.5587 0.0000 0.1825 0.0000
# 2 9.4987 170.0309 61.7132 0.0000 -20.9569 0.0000
# 3 1.5587 61.7132 88.3432 0.0000 -23.5330 0.0000
# 4 0.0000 0.0000 0.0000 44.4017 0.0000 -6.4359
# 5 0.1825 -20.9569 -23.5330 0.0000 23.9789 0.0000
# 6 0.0000 0.0000 0.0000 -6.4359 0.0000 24.8158
#
#
#
# Elastic Compliance Matrix: (Units=1/GPa)
#
#
# Indices 1 2 3 4 5 6 
#
# 1 0.059375 -0.004042 0.000968 0.000000 -0.003035 0.000000
# 2 -0.004042 0.008226 -0.005080 0.000000 0.002235 0.000000
# 3 0.000968 -0.005080 0.018504 0.000000 0.013713 0.000000
# 4 0.000000 0.000000 0.000000 0.023401 0.000000 0.006069
# 5 -0.003035 0.002235 0.013713 0.000000 0.057137 0.000000
# 6 0.000000 0.000000 0.000000 0.006069 0.000000 0.041871
#
#
# Mechanical properties :
#
#
# Convention : Reuss Voigt Hill
#
# Bulk Modulus (GPa) = 14.32744 46.82090 30.57417
# Shear Modulus (GPa) = 20.15404 32.17767 26.16586
#
# Velocity S-wave (km/s) = 2.99088 3.77916 3.40789
# Velocity P-wave (km/s) = 4.27626 6.31064 5.39029
#
# Compressibility (1/GPa) = 0.06979616
#
# Stress axis : x y z
#
# Youngs Moduli (GPa) = 16.84214 121.56056 54.04265
#
# Poissons Ratio (x) = 0.49138 -0.05230
# Poissons Ratio (y) = 0.06808 0.27454
# Poissons Ratio (z) = -0.01630 0.61753
#
# Static dielectric constant tensor:
#      x y z
#    x 1.862540 0.000000 -0.010360 
#    y 0.000000 1.973010 0.000000 
#    z -0.010360 0.000000 1.890100 
# 
# From -- ./inp_files/81069.got.cif
#   From: 2010.05.17/outbox.cif.g08.bks.cpg/sg15_41_cif.got.tgz:81069.got - 2010.06.03 18:47:42.
