data_PCOD9267977
_publ_section_title
;
Structure prediction by ZEFSAII (Michael W. Deem and Ramdas Pophale) SiO2 
 PCOD9267977
Probable space group: C 2/C
;
_chemical_formula_sum "Si O2"
_cell_formula_units_Z 56
_cell_length_a 20.076447
_cell_length_b 12.225316
_cell_length_c 13.785631
_cell_angle_alpha 90.000000
_cell_angle_beta 121.956850
_cell_angle_gamma 90.000000
_cell_volume 2870.769272
_symmetry_space_group_name_H-M "C 2/C"
_symmetry_group_IT_number 15
_symmetry_cell_setting 'monoclinic'
loop_
_space_group_symop_operation_xyz
x,y,z
-x,y,1/2-z
-x,-y,-z
x,-y,1/2+z
1/2+x,1/2+y,z
1/2-x,1/2+y,1/2-z
1/2-x,1/2-y,-z
1/2+x,1/2-y,1/2+z
loop_
_atom_site_type_symbol
_atom_site_label
_atom_site_fract_x
_atom_site_fract_y
_atom_site_fract_z
Si Si1 0.758592 0.574423 0.930686
Si Si2 0.661790 0.961140 0.342788
Si Si3 0.125318 0.248344 0.215151
Si Si4 0.500000 0.065773 0.250000
Si Si5 0.500000 0.379079 0.750000
Si Si6 0.715720 0.459180 0.702310
Si Si7 0.910802 0.290563 0.523706
Si Si8 0.107730 0.952540 0.447132
O O1 0.737122 0.539660 0.805780
O O2 0.677521 0.580405 0.926719
O O3 0.805724 0.479009 0.024155
O O4 0.820160 0.675015 0.979449
O O5 0.671691 0.839762 0.310730
O O6 0.571254 0.991463 0.270012
O O7 0.708996 0.045120 0.309973
O O8 0.059351 0.192714 0.231314
O O9 0.184105 0.154512 0.221299
O O10 0.086362 0.304620 0.090218
O O11 0.533837 0.138074 0.364643
O O12 0.448770 0.458947 0.642725
O O13 0.647393 0.497499 0.576137
O O14 0.930208 0.163892 0.557387
#
# Coordination Sequence:
#
# PCOD9267977 Si02
#       8
#     8   8   8   4   4   8   8   8
#     4  10  19  41  64  88 122 157 204 261 295 358
#     4  10  22  41  64  91 124 158 207 253 305 363
#     4  11  23  41  62  91 123 165 203 250 312 361
#     4  10  22  42  60  96 124 160 204 252 308 362
#     4  12  24  42  58  92 132 160 200 254 310 368
#     4  10  21  41  63  91 118 159 208 252 299 362
#     4  10  21  39  66  89 120 162 208 250 305 362
#     4  10  22  39  62  91 122 161 205 254 307 358
#
# _framework density 19.506967
#
# number of rings (size 3 to 8) (size 9 to 14) (size 15 to 20)
#    0.000    1.714    2.857    1.286    0.000    4.571 
#    5.143    0.000    0.000    0.000    0.000    0.000 
#    0.000    0.000    0.000    0.000    0.000    0.000 
#
# Total GULP energy -156197.611773 kJ/mol
# GULP energy per Si atom -5578.486135 kJ/mol
# Density = 1.946257 g / cm^3
# Si number density = 19.506967 Si / 1000 Ang^3
#
#
#
# Elastic Constant Matrix: (Units=GPa)
#
#
# Indices 1 2 3 4 5 6 
#
# 1 75.0179 28.7814 20.9811 0.0000 1.5446 0.0000
# 2 28.7814 58.4714 35.4192 0.0000 -1.3713 0.0000
# 3 20.9811 35.4192 101.1679 0.0000 -8.0337 0.0000
# 4 0.0000 0.0000 0.0000 21.8873 0.0000 -10.0031
# 5 1.5446 -1.3713 -8.0337 0.0000 24.1115 0.0000
# 6 0.0000 0.0000 0.0000 -10.0031 0.0000 21.6939
#
#
#
# Elastic Compliance Matrix: (Units=1/GPa)
#
#
# Indices 1 2 3 4 5 6 
#
# 1 0.016551 -0.007645 -0.000899 0.000000 -0.001795 0.000000
# 2 -0.007645 0.025278 -0.007305 0.000000 -0.000506 0.000000
# 3 -0.000899 -0.007305 0.012942 0.000000 0.003954 0.000000
# 4 0.000000 0.000000 0.000000 0.057888 0.000000 0.026692
# 5 -0.001795 -0.000506 0.003954 0.000000 0.042878 0.000000
# 6 0.000000 0.000000 0.000000 0.026692 0.000000 0.058404
#
#
# Mechanical properties :
#
#
# Convention : Reuss Voigt Hill
#
# Bulk Modulus (GPa) = 43.33565 45.00228 44.16897
# Shear Modulus (GPa) = 19.73711 23.50356 21.62034
#
# Velocity S-wave (km/s) = 3.18433 3.47490 3.33278
# Velocity P-wave (km/s) = 5.98194 6.26258 6.12387
#
# Compressibility (1/GPa) = 0.02307569
#
# Stress axis : x y z
#
# Youngs Moduli (GPa) = 60.41766 39.55935 77.26552
#
# Poissons Ratio (x) = 0.30243 0.06943
# Poissons Ratio (y) = 0.46189 0.56441
# Poissons Ratio (z) = 0.05429 0.28897
#
# Static dielectric constant tensor:
#      x y z
#    x 1.698780 0.000000 -0.011230 
#    y 0.000000 1.659940 0.000000 
#    z -0.011230 0.000000 1.683380 
# 
# From -- ./inp_files/105821.got.cif
#   From: 2010.05.17/outbox.cif.g08.bks.cpg/sg15_53_cif.got.tgz:105821.got - 2010.06.03 18:47:42.
