data_PCOD9267587
_publ_section_title
;
Structure prediction by ZEFSAII (Michael W. Deem and Ramdas Pophale) SiO2 
 PCOD9267587
Probable space group: C 2/C
;
_chemical_formula_sum "Si O2"
_cell_formula_units_Z 44
_cell_length_a 28.653572
_cell_length_b 13.218955
_cell_length_c 17.254261
_cell_angle_alpha 90.000000
_cell_angle_beta 161.856644
_cell_angle_gamma 90.000000
_cell_volume 2035.095197
_symmetry_space_group_name_H-M "C 2/C"
_symmetry_group_IT_number 15
_symmetry_cell_setting 'monoclinic'
loop_
_space_group_symop_operation_xyz
x,y,z
-x,y,1/2-z
-x,-y,-z
x,-y,1/2+z
1/2+x,1/2+y,z
1/2-x,1/2+y,1/2-z
1/2-x,1/2-y,-z
1/2+x,1/2-y,1/2+z
loop_
_atom_site_type_symbol
_atom_site_label
_atom_site_fract_x
_atom_site_fract_y
_atom_site_fract_z
Si Si1 0.192624 0.585425 0.268221
Si Si2 0.854952 0.654677 0.469258
Si Si3 0.500000 0.283335 0.250000
Si Si4 0.156711 0.116156 0.542525
Si Si5 0.856923 0.656717 0.145865
Si Si6 0.343015 0.529385 0.789500
O O1 0.106604 0.634432 0.060062
O O2 0.353132 0.646056 0.520168
O O3 0.231257 0.469036 0.312141
O O4 0.116007 0.601074 0.230311
O O5 0.798696 0.767605 0.396337
O O6 0.732846 0.572716 0.299854
O O7 0.000000 0.637391 0.750000
O O8 0.491664 0.208353 0.310874
O O9 0.134136 0.097175 0.598292
O O10 0.000000 0.102046 0.250000
O O11 0.750000 0.750000 0.000000
O O12 0.765162 0.585103 0.942345
O O13 0.500000 0.500000 0.000000
#
# Coordination Sequence:
#
# PCOD9267587 Si02
#       6
#     8   8   4   8   8   8
#     4  10  20  40  68  97 125 176 228 274 330 409
#     4  10  24  44  66  95 142 177 213 279 341 398
#     4  10  20  36  70  98 134 164 224 298 328 378
#     4  10  19  39  67  92 131 176 222 265 337 400
#     4  10  22  38  65 100 126 165 228 278 335 385
#     4  11  24  42  69  98 135 177 229 279 335 396
#
# _framework density 21.620611
#
# number of rings (size 3 to 8) (size 9 to 14) (size 15 to 20)
#    0.000    1.818    0.909    3.273    8.909    0.000 
#    0.000    9.091    4.000    0.000    0.000    0.000 
#    0.000    0.000    0.000    0.000    0.000    0.000 
#
# Total GULP energy -123068.508382 kJ/mol
# GULP energy per Si atom -5594.023108 kJ/mol
# Density = 2.157140 g / cm^3
# Si number density = 21.620611 Si / 1000 Ang^3
#
#
#
# Elastic Constant Matrix: (Units=GPa)
#
#
# Indices 1 2 3 4 5 6 
#
# 1 141.0712 38.7186 37.8092 0.0000 -22.8155 0.0000
# 2 38.7186 116.1061 17.6270 0.0000 -7.0896 0.0000
# 3 37.8092 17.6270 84.1065 0.0000 -21.5564 0.0000
# 4 0.0000 0.0000 0.0000 72.4461 0.0000 -4.6418
# 5 -22.8155 -7.0896 -21.5564 0.0000 44.1056 0.0000
# 6 0.0000 0.0000 0.0000 -4.6418 0.0000 24.6931
#
#
#
# Elastic Compliance Matrix: (Units=1/GPa)
#
#
# Indices 1 2 3 4 5 6 
#
# 1 0.008958 -0.002388 -0.002786 0.000000 0.002888 0.000000
# 2 -0.002388 0.009546 -0.000972 0.000000 -0.000176 0.000000
# 3 -0.002786 -0.000972 0.014789 0.000000 0.005631 0.000000
# 4 0.000000 0.000000 0.000000 0.013972 0.000000 0.002626
# 5 0.002888 -0.000176 0.005631 0.000000 0.026891 0.000000
# 6 0.000000 0.000000 0.000000 0.002626 0.000000 0.040991
#
#
# Mechanical properties :
#
#
# Convention : Reuss Voigt Hill
#
# Bulk Modulus (GPa) = 47.61870 58.84368 53.23119
# Shear Modulus (GPa) = 37.19162 44.72420 40.95791
#
# Velocity S-wave (km/s) = 4.15202 4.55311 4.35718
# Velocity P-wave (km/s) = 6.71254 7.41058 7.07018
#
# Compressibility (1/GPa) = 0.02100015
#
# Stress axis : x y z
#
# Youngs Moduli (GPa) = 111.63374 104.75615 67.61747
#
# Poissons Ratio (x) = 0.25014 0.18840
# Poissons Ratio (y) = 0.26657 0.06574
# Poissons Ratio (z) = 0.31103 0.10186
#
# Static dielectric constant tensor:
#      x y z
#    x 1.797020 0.000000 -0.055500 
#    y 0.000000 1.806580 0.000000 
#    z -0.055500 0.000000 1.412190 
# 
# From -- ./inp_files/225227.got.cif
#   From: 2010.05.17/outbox.cif.g08.bks.cpg/sg15_113_cif.got.tgz:225227.got - 2010.06.03 18:47:42.
