data_PCOD9267301
_publ_section_title
;
Structure prediction by ZEFSAII (Michael W. Deem and Ramdas Pophale) SiO2 
 PCOD9267301
Probable space group: C 2/C
;
_chemical_formula_sum "Si O2"
_cell_formula_units_Z 48
_cell_length_a 25.372134
_cell_length_b 18.391074
_cell_length_c 8.135319
_cell_angle_alpha 90.000000
_cell_angle_beta 147.511888
_cell_angle_gamma 90.000000
_cell_volume 2038.983556
_symmetry_space_group_name_H-M "C 2/C"
_symmetry_group_IT_number 15
_symmetry_cell_setting 'monoclinic'
loop_
_space_group_symop_operation_xyz
x,y,z
-x,y,1/2-z
-x,-y,-z
x,-y,1/2+z
1/2+x,1/2+y,z
1/2-x,1/2+y,1/2-z
1/2-x,1/2-y,-z
1/2+x,1/2-y,1/2+z
loop_
_atom_site_type_symbol
_atom_site_label
_atom_site_fract_x
_atom_site_fract_y
_atom_site_fract_z
Si Si1 0.599099 0.233395 0.707104
Si Si2 0.720793 0.524408 0.508021
Si Si3 0.876486 0.754170 0.107681
Si Si4 0.208164 0.843389 0.198199
Si Si5 0.228276 0.385737 0.677377
Si Si6 0.000000 0.870248 0.750000
Si Si7 0.000000 0.000000 0.000000
O O1 0.488895 0.257096 0.460496
O O2 0.610358 0.220801 0.542761
O O3 0.673775 0.297938 0.947303
O O4 0.634194 0.165116 0.906511
O O5 0.731092 0.575932 0.696014
O O6 0.766881 0.445690 0.667031
O O7 0.761771 0.567642 0.462331
O O8 0.604586 0.512839 0.175296
O O9 0.804082 0.699048 0.012678
O O10 0.820619 0.830764 0.936658
O O11 0.109261 0.835542 0.045421
O O12 0.011259 0.921538 0.620054
#
# Coordination Sequence:
#
# PCOD9267301 Si02
#       7
#     8   8   8   8   8   4   4
#     4  10  20  39  69  92 124 176 234 265 316 392
#     4  11  21  35  59  93 137 159 212 267 334 387
#     4  10  20  38  69  93 123 172 233 271 314 384
#     4  10  19  39  58  93 129 167 212 278 316 388
#     4  11  22  38  64 100 129 170 210 277 329 393
#     4  10  22  36  62  86 138 162 208 266 328 402
#     4  10  22  36  54  96 126 176 200 256 344 396
#
# _framework density 23.541141
#
# number of rings (size 3 to 8) (size 9 to 14) (size 15 to 20)
#    0.000    1.667    3.333    3.000    4.667    0.000 
#    0.000    1.667    3.667    0.000    0.000    0.000 
#    0.000    0.000    0.000    0.000    0.000    0.000 
#
# Total GULP energy -133706.922918 kJ/mol
# GULP energy per Si atom -5571.121788 kJ/mol
# Density = 2.348756 g / cm^3
# Si number density = 23.541141 Si / 1000 Ang^3
#
#
#
# Elastic Constant Matrix: (Units=GPa)
#
#
# Indices 1 2 3 4 5 6 
#
# 1 74.2847 26.2607 25.6651 0.0000 10.2487 0.0000
# 2 26.2607 146.3741 52.8495 0.0000 19.4087 0.0000
# 3 25.6651 52.8495 101.5192 0.0000 22.7464 0.0000
# 4 0.0000 0.0000 0.0000 29.7931 0.0000 -1.5844
# 5 10.2487 19.4087 22.7464 0.0000 30.3855 0.0000
# 6 0.0000 0.0000 0.0000 -1.5844 0.0000 34.4504
#
#
#
# Elastic Compliance Matrix: (Units=1/GPa)
#
#
# Indices 1 2 3 4 5 6 
#
# 1 0.015186 -0.001505 -0.002551 0.000000 -0.002251 0.000000
# 2 -0.001505 0.008726 -0.003637 0.000000 -0.002343 0.000000
# 3 -0.002551 -0.003637 0.014028 0.000000 -0.007318 0.000000
# 4 0.000000 0.000000 0.000000 0.033647 0.000000 0.001547
# 5 -0.002251 -0.002343 -0.007318 0.000000 0.040645 0.000000
# 6 0.000000 0.000000 0.000000 0.001547 0.000000 0.029098
#
#
# Mechanical properties :
#
#
# Convention : Reuss Voigt Hill
#
# Bulk Modulus (GPa) = 44.33917 59.08096 51.71007
# Shear Modulus (GPa) = 30.44433 33.41928 31.93181
#
# Velocity S-wave (km/s) = 3.60006 3.77186 3.68696
# Velocity P-wave (km/s) = 6.01301 6.64234 6.33549
#
# Compressibility (1/GPa) = 0.02255342
#
# Stress axis : x y z
#
# Youngs Moduli (GPa) = 65.85126 114.60448 71.28390
#
# Poissons Ratio (x) = 0.17245 0.18188
# Poissons Ratio (y) = 0.09909 0.25926
# Poissons Ratio (z) = 0.16801 0.41682
#
# Static dielectric constant tensor:
#      x y z
#    x 1.921970 0.000000 -0.097950 
#    y 0.000000 1.912570 0.000000 
#    z -0.097950 0.000000 2.012180 
# 
# From -- ./inp_files/70651.got.cif
#   From: 2010.05.17/outbox.cif.g08.bks.cpg/sg15_36_cif.got.tgz:70651.got - 2010.06.03 18:47:42.
