data_PCOD9267891
_publ_section_title
;
Structure prediction by ZEFSAII (Michael W. Deem and Ramdas Pophale) SiO2 
 PCOD9267891
Probable space group: C 2/C
;
_chemical_formula_sum "Si O2"
_cell_formula_units_Z 32
_cell_length_a 8.513039
_cell_length_b 17.780412
_cell_length_c 9.916621
_cell_angle_alpha 90.000000
_cell_angle_beta 103.094421
_cell_angle_gamma 90.000000
_cell_volume 1462.002913
_symmetry_space_group_name_H-M "C 2/C"
_symmetry_group_IT_number 15
_symmetry_cell_setting 'monoclinic'
loop_
_space_group_symop_operation_xyz
x,y,z
-x,y,1/2-z
-x,-y,-z
x,-y,1/2+z
1/2+x,1/2+y,z
1/2-x,1/2+y,1/2-z
1/2-x,1/2-y,-z
1/2+x,1/2-y,1/2+z
loop_
_atom_site_type_symbol
_atom_site_label
_atom_site_fract_x
_atom_site_fract_y
_atom_site_fract_z
Si Si1 0.075828 0.083287 0.056651
Si Si2 0.352041 0.938306 0.823481
Si Si3 0.748610 0.162566 0.968132
Si Si4 0.694448 0.595530 0.810312
O O1 0.192412 0.078966 0.204998
O O2 0.920901 0.132413 0.049042
O O3 0.178082 0.124494 0.958614
O O4 0.000000 0.000000 0.000000
O O5 0.500000 0.933162 0.750000
O O6 0.369280 0.885882 0.958439
O O7 0.310927 0.024154 0.852070
O O8 0.750000 0.250000 0.000000
O O9 0.743656 0.141613 0.807435
O O10 0.500000 0.578584 0.750000
#
# Coordination Sequence:
#
# PCOD9267891 Si02
#       4
#     8   8   8   8
#     4  11  20  43  74  94 126 185 240 276 337 421
#     4  12  23  39  66 103 135 174 236 286 337 412
#     4  11  24  42  67 100 139 172 231 295 349 396
#     4  10  19  40  69  96 127 180 234 271 340 417
#
# _framework density 21.887781
#
# number of rings (size 3 to 8) (size 9 to 14) (size 15 to 20)
#    0.000    1.000    7.500    0.750    0.000    7.000 
#    0.000   10.000    0.000    0.000    0.000    0.000 
#    0.000    0.000    0.000    0.000    0.000    0.000 
#
# Total GULP energy -89162.979150 kJ/mol
# GULP energy per Si atom -5572.686197 kJ/mol
# Density = 2.183796 g / cm^3
# Si number density = 21.887781 Si / 1000 Ang^3
#
#
#
# Elastic Constant Matrix: (Units=GPa)
#
#
# Indices 1 2 3 4 5 6 
#
# 1 63.1405 49.5551 25.3281 0.0000 -36.4021 0.0000
# 2 49.5551 129.8244 24.7771 0.0000 -17.9692 0.0000
# 3 25.3281 24.7771 111.0175 0.0000 -37.6819 0.0000
# 4 0.0000 0.0000 0.0000 21.3866 0.0000 -6.3145
# 5 -36.4021 -17.9692 -37.6819 0.0000 51.9842 0.0000
# 6 0.0000 0.0000 0.0000 -6.3145 0.0000 20.5162
#
#
#
# Elastic Compliance Matrix: (Units=1/GPa)
#
#
# Indices 1 2 3 4 5 6 
#
# 1 0.037967 -0.011556 0.002103 0.000000 0.024117 0.000000
# 2 -0.011556 0.011716 -0.001791 0.000000 -0.005340 0.000000
# 3 0.002103 -0.001791 0.012225 0.000000 0.009715 0.000000
# 4 0.000000 0.000000 0.000000 0.051432 0.000000 0.015830
# 5 0.024117 -0.005340 0.009715 0.000000 0.041320 0.000000
# 6 0.000000 0.000000 0.000000 0.015830 0.000000 0.053614
#
#
# Mechanical properties :
#
#
# Convention : Reuss Voigt Hill
#
# Bulk Modulus (GPa) = 25.36760 55.92255 40.64508
# Shear Modulus (GPa) = 20.49988 32.39890 26.44939
#
# Velocity S-wave (km/s) = 3.06370 3.85155 3.47999
# Velocity P-wave (km/s) = 4.91223 6.73679 5.89552
#
# Compressibility (1/GPa) = 0.03942036
#
# Stress axis : x y z
#
# Youngs Moduli (GPa) = 26.33835 85.35098 81.79911
#
# Poissons Ratio (x) = 0.98630 -0.17200
# Poissons Ratio (y) = 0.30436 0.14651
# Poissons Ratio (z) = -0.05538 0.15287
#
# Static dielectric constant tensor:
#      x y z
#    x 1.809690 0.000000 0.002290 
#    y 0.000000 1.718320 0.000000 
#    z 0.002290 0.000000 1.897380 
# 
# From -- ./inp_files/75590.got.cif
#   From: 2010.05.17/outbox.cif.g08.bks.cpg/sg15_38_cif.got.tgz:75590.got - 2010.06.03 18:47:42.
