data_PCOD9267869
_publ_section_title
;
Structure prediction by ZEFSAII (Michael W. Deem and Ramdas Pophale) SiO2 
 PCOD9267869
Probable space group: C 2/C
;
_chemical_formula_sum "Si O2"
_cell_formula_units_Z 48
_cell_length_a 9.141506
_cell_length_b 18.197001
_cell_length_c 18.243521
_cell_angle_alpha 90.000000
_cell_angle_beta 129.380695
_cell_angle_gamma 90.000000
_cell_volume 2345.719971
_symmetry_space_group_name_H-M "C 2/C"
_symmetry_group_IT_number 15
_symmetry_cell_setting 'monoclinic'
loop_
_space_group_symop_operation_xyz
x,y,z
-x,y,1/2-z
-x,-y,-z
x,-y,1/2+z
1/2+x,1/2+y,z
1/2-x,1/2+y,1/2-z
1/2-x,1/2-y,-z
1/2+x,1/2-y,1/2+z
loop_
_atom_site_type_symbol
_atom_site_label
_atom_site_fract_x
_atom_site_fract_y
_atom_site_fract_z
Si Si1 0.798841 0.556987 0.643502
Si Si2 0.904203 0.701078 0.006671
Si Si3 0.049793 0.537326 0.437355
Si Si4 0.176916 0.003940 0.755578
Si Si5 0.783982 0.829857 0.196590
Si Si6 0.709027 0.776391 0.333692
O O1 0.817316 0.511107 0.574284
O O2 0.658069 0.523069 0.662079
O O3 0.783389 0.644485 0.621331
O O4 0.000000 0.551523 0.750000
O O5 0.870046 0.617553 0.021012
O O6 0.121360 0.724814 0.086585
O O7 0.750000 0.750000 0.000000
O O8 0.854556 0.705313 0.905441
O O9 0.000000 0.500000 0.500000
O O10 0.854651 0.547429 0.329322
O O11 0.000000 0.980627 0.750000
O O12 0.237220 0.082503 0.809307
O O13 0.756434 0.803321 0.268339
O O14 0.000000 0.812418 0.250000
O O15 0.500000 0.744438 0.250000
#
# Coordination Sequence:
#
# PCOD9267869 Si02
#       6
#     8   8   8   8   8   8
#     4   8  18  39  65  91 125 175 220 263 330 402
#     4  12  25  42  67 100 132 178 223 268 341 402
#     4  11  22  40  64  93 130 166 219 276 325 391
#     4   9  18  37  67  91 123 173 221 267 331 393
#     4  10  19  40  68  90 131 183 219 257 331 418
#     4  10  22  41  68  96 134 173 221 276 336 390
#
# _framework density 20.462800000000001
#
# number of rings (size 3 to 8) (size 9 to 14) (size 15 to 20)
#    0.000    2.000    3.333    1.000    0.000    1.333 
#    9.000    3.333    0.000    0.000    0.000    0.000 
#    0.000    0.000    0.000    0.000    0.000    0.000 
#
# Total GULP energy -133685.702435 kJ/mol
# GULP energy per Si atom -5570.237601 kJ/mol
# Density = 2.041623 g / cm^3
# Si number density = 20.462800 Si / 1000 Ang^3
#
#
#
# Elastic Constant Matrix: (Units=GPa)
#
#
# Indices 1 2 3 4 5 6 
#
# 1 95.0705 28.8267 22.3729 0.0000 -15.8603 0.0000
# 2 28.8267 85.2677 43.5222 0.0000 -18.1255 0.0000
# 3 22.3729 43.5222 87.9817 0.0000 -12.6578 0.0000
# 4 0.0000 0.0000 0.0000 27.6567 0.0000 -3.0296
# 5 -15.8603 -18.1255 -12.6578 0.0000 56.3594 0.0000
# 6 0.0000 0.0000 0.0000 -3.0296 0.0000 29.6496
#
#
#
# Elastic Compliance Matrix: (Units=1/GPa)
#
#
# Indices 1 2 3 4 5 6 
#
# 1 0.012082 -0.002965 -0.001295 0.000000 0.002155 0.000000
# 2 -0.002965 0.017079 -0.007259 0.000000 0.003028 0.000000
# 3 -0.001295 -0.007259 0.015395 0.000000 0.000759 0.000000
# 4 0.000000 0.000000 0.000000 0.036567 0.000000 0.003736
# 5 0.002155 0.003028 0.000759 0.000000 0.019494 0.000000
# 6 0.000000 0.000000 0.000000 0.003736 0.000000 0.034109
#
#
# Mechanical properties :
#
#
# Convention : Reuss Voigt Hill
#
# Bulk Modulus (GPa) = 46.47415 50.86261 48.66838
# Shear Modulus (GPa) = 30.31448 34.30635 32.31042
#
# Velocity S-wave (km/s) = 3.85313 4.09898 3.97795
# Velocity P-wave (km/s) = 6.52352 6.87839 6.70330
#
# Compressibility (1/GPa) = 0.02151734
#
# Stress axis : x y z
#
# Youngs Moduli (GPa) = 82.76745 58.55170 64.95483
#
# Poissons Ratio (x) = 0.17362 0.08414
# Poissons Ratio (y) = 0.24542 0.47150
# Poissons Ratio (z) = 0.10722 0.42502
#
# Static dielectric constant tensor:
#      x y z
#    x 1.962000 0.000000 0.054900 
#    y 0.000000 1.755830 0.000000 
#    z 0.054900 0.000000 1.728210 
# 
# From -- ./inp_files/190613.got.cif
#   From: 2010.05.17/outbox.cif.g08.bks.cpg/sg15_96_cif.got.tgz:190613.got - 2010.06.03 18:47:42.
