data_PCOD9267455
_publ_section_title
;
Structure prediction by ZEFSAII (Michael W. Deem and Ramdas Pophale) SiO2 
 PCOD9267455
Probable space group: C 2/C
;
_chemical_formula_sum "Si O2"
_cell_formula_units_Z 40
_cell_length_a 19.109907
_cell_length_b 5.479755
_cell_length_c 21.813295
_cell_angle_alpha 90.000000
_cell_angle_beta 52.637527
_cell_angle_gamma 90.000000
_cell_volume 1815.538851
_symmetry_space_group_name_H-M "C 2/C"
_symmetry_group_IT_number 15
_symmetry_cell_setting 'monoclinic'
loop_
_space_group_symop_operation_xyz
x,y,z
-x,y,1/2-z
-x,-y,-z
x,-y,1/2+z
1/2+x,1/2+y,z
1/2-x,1/2+y,1/2-z
1/2-x,1/2-y,-z
1/2+x,1/2-y,1/2+z
loop_
_atom_site_type_symbol
_atom_site_label
_atom_site_fract_x
_atom_site_fract_y
_atom_site_fract_z
Si Si1 0.868267 0.488731 0.441598
Si Si2 0.115670 0.862250 0.977230
Si Si3 0.967966 0.752293 0.593341
Si Si4 0.705570 0.431078 0.750611
Si Si5 0.260228 0.214753 0.894690
O O1 0.853001 0.760980 0.473924
O O2 0.804154 0.343364 0.522155
O O3 0.840050 0.408238 0.389427
O O4 0.970397 0.437068 0.403680
O O5 0.080227 0.672707 0.944644
O O6 0.036853 0.041931 0.035977
O O7 0.196599 0.002175 0.903290
O O8 0.892976 0.869750 0.674989
O O9 0.736384 0.702997 0.753168
O O10 0.712116 0.393775 0.673834
#
# Coordination Sequence:
#
# PCOD9267455 Si02
#       5
#     8   8   8   8   8
#     4  10  21  38  65  91 129 166 224 269 332 385
#     4  10  19  39  63  93 123 170 217 271 315 399
#     4  10  22  36  63  94 125 168 218 268 320 391
#     4  12  26  44  67  96 133 173 218 271 336 396
#     4  10  22  39  62  95 126 171 217 274 329 397
#
# _framework density 22.032025999999998
#
# number of rings (size 3 to 8) (size 9 to 14) (size 15 to 20)
#    0.000    1.600    2.000    2.400    2.800    0.800 
#    0.000    0.000    0.000    0.000    0.000    0.000 
#    0.000    0.000    0.000    0.000    0.000    0.000 
#
# Total GULP energy -111582.206289 kJ/mol
# GULP energy per Si atom -5579.110314 kJ/mol
# Density = 2.198188 g / cm^3
# Si number density = 22.032026 Si / 1000 Ang^3
#
#
#
# Elastic Constant Matrix: (Units=GPa)
#
#
# Indices 1 2 3 4 5 6 
#
# 1 83.4547 -1.8997 27.1774 -0.0052 0.1081 -0.0750
# 2 -1.8997 36.8473 -10.0067 -0.0255 2.0364 -0.0806
# 3 27.1774 -10.0067 38.3055 0.0023 11.9398 -0.0020
# 4 -0.0052 -0.0255 0.0023 17.8823 0.0016 9.9881
# 5 0.1081 2.0364 11.9398 0.0016 22.5766 0.0026
# 6 -0.0750 -0.0806 -0.0020 9.9881 0.0026 18.8542
#
#
#
# Elastic Compliance Matrix: (Units=1/GPa)
#
#
# Indices 1 2 3 4 5 6 
#
# 1 0.017020 -0.003882 -0.015773 -0.000037 0.008611 0.000068
# 2 -0.003882 0.031352 0.014153 -0.000036 -0.010294 0.000140
# 3 -0.015773 0.014153 0.049534 0.000011 -0.027398 0.000001
# 4 -0.000037 -0.000036 0.000011 0.079421 -0.000003 -0.042074
# 5 0.008611 -0.010294 -0.027398 -0.000003 0.059670 -0.000019
# 6 0.000068 0.000140 0.000001 -0.042074 -0.000019 0.075329
#
#
# Mechanical properties :
#
#
# Convention : Reuss Voigt Hill
#
# Bulk Modulus (GPa) = 11.50735 21.01660 16.26197
# Shear Modulus (GPa) = 14.19256 21.41838 17.80547
#
# Velocity S-wave (km/s) = 2.54082 3.12131 2.84590
# Velocity P-wave (km/s) = 3.72049 4.74868 4.26568
#
# Compressibility (1/GPa) = 0.08690098
#
# Stress axis : x y z
#
# Youngs Moduli (GPa) = 58.75528 31.89624 20.18816
#
# Poissons Ratio (x) = 0.12382 0.31843
# Poissons Ratio (y) = 0.22808 -0.28572
# Poissons Ratio (z) = 0.92677 -0.45143
#
# Static dielectric constant tensor:
#      x y z
#    x 1.866350 -0.000020 0.029160 
#    y -0.000020 1.887150 0.000000 
#    z 0.029160 0.000000 1.773270 
# 
# From -- ./inp_files/207978.got.cif
#   From: 2010.05.17/outbox.cif.g08.bks.cpg/sg15_104_cif.got.tgz:207978.got - 2010.06.03 18:47:42.
