data_PCOD9267109
_publ_section_title
;
Structure prediction by ZEFSAII (Michael W. Deem and Ramdas Pophale) SiO2 
 PCOD9267109
Probable space group: C 2/C
;
_chemical_formula_sum "Si O2"
_cell_formula_units_Z 56
_cell_length_a 14.329133
_cell_length_b 14.812646
_cell_length_c 12.282176
_cell_angle_alpha 90.000000
_cell_angle_beta 108.549357
_cell_angle_gamma 90.000000
_cell_volume 2471.491380
_symmetry_space_group_name_H-M "C 2/C"
_symmetry_group_IT_number 15
_symmetry_cell_setting 'monoclinic'
loop_
_space_group_symop_operation_xyz
x,y,z
-x,y,1/2-z
-x,-y,-z
x,-y,1/2+z
1/2+x,1/2+y,z
1/2-x,1/2+y,1/2-z
1/2-x,1/2-y,-z
1/2+x,1/2-y,1/2+z
loop_
_atom_site_type_symbol
_atom_site_label
_atom_site_fract_x
_atom_site_fract_y
_atom_site_fract_z
Si Si1 0.728270 0.877260 0.614955
Si Si2 0.918676 0.159747 0.059612
Si Si3 0.169899 0.090803 0.689643
Si Si4 0.500000 0.138838 0.250000
Si Si5 0.699023 0.092667 0.579731
Si Si6 0.000000 0.988479 0.750000
Si Si7 0.005775 0.679500 0.009664
Si Si8 0.783713 0.416849 0.654191
O O1 0.816129 0.828178 0.585379
O O2 0.618660 0.851408 0.538319
O O3 0.745834 0.861674 0.749907
O O4 0.726323 0.986318 0.598355
O O5 0.999243 0.237919 0.076385
O O6 0.966075 0.074485 0.137462
O O7 0.884881 0.145255 0.923203
O O8 0.245227 0.138823 0.799333
O O9 0.230135 0.012586 0.648056
O O10 0.088183 0.047638 0.737296
O O11 0.503087 0.195854 0.362737
O O12 0.597850 0.077696 0.288451
O O13 0.582296 0.109597 0.545601
O O14 0.733895 0.122062 0.472327
#
# Coordination Sequence:
#
# PCOD9267109 Si02
#       8
#     8   8   8   4   8   4   8   8
#     4  10  19  38  65  92 133 181 221 267 327 405
#     4  12  24  42  62  96 135 168 218 280 336 387
#     4  11  22  41  66  94 124 168 230 277 319 393
#     4   8  18  35  64  87 126 176 212 268 328 393
#     4  10  19  39  65  98 127 171 231 276 316 400
#     4  12  24  45  68  91 124 180 226 264 326 399
#     4  10  22  39  62  96 138 175 215 270 349 394
#     4   9  16  35  62  92 121 161 225 274 315 379
#
# _framework density 22.658384999999999
#
# number of rings (size 3 to 8) (size 9 to 14) (size 15 to 20)
#    0.000    1.714    4.286    1.286    0.000    1.714 
#    5.143    0.000    0.000    5.143    0.000    0.000 
#    0.000    0.000    0.000    0.000    0.000    0.000 
#
# Total GULP energy -156264.211253 kJ/mol
# GULP energy per Si atom -5580.864688 kJ/mol
# Density = 2.260681 g / cm^3
# Si number density = 22.658385 Si / 1000 Ang^3
#
#
#
# Elastic Constant Matrix: (Units=GPa)
#
#
# Indices 1 2 3 4 5 6 
#
# 1 115.2972 31.8537 18.8228 0.0000 -8.7930 0.0000
# 2 31.8537 38.1639 10.0622 0.0000 -12.2038 0.0000
# 3 18.8228 10.0622 84.3312 0.0000 18.5987 0.0000
# 4 0.0000 0.0000 0.0000 3.7429 0.0000 -23.9592
# 5 -8.7930 -12.2038 18.5987 0.0000 18.6689 0.0000
# 6 0.0000 0.0000 0.0000 -23.9592 0.0000 -9.4941
#
#
#
# Elastic Compliance Matrix: (Units=1/GPa)
#
#
# Indices 1 2 3 4 5 6 
#
# 1 0.011473 -0.008493 -0.001941 0.000000 0.001786 0.000000
# 2 -0.008493 0.050373 -0.013450 0.000000 0.042328 0.000000
# 3 -0.001941 -0.013450 0.020552 0.000000 -0.030182 0.000000
# 4 0.000000 0.000000 0.000000 0.015575 0.000000 -0.039305
# 5 0.001786 0.042328 -0.030182 0.000000 0.112144 0.000000
# 6 0.000000 0.000000 0.000000 -0.039305 0.000000 -0.006140
#
#
# Mechanical properties :
#
#
# Convention : Reuss Voigt Hill
#
# Bulk Modulus (GPa) = 28.87666 39.91886 34.39776
# Shear Modulus (GPa) = 18.99064 14.38711 16.68887
#
# Velocity S-wave (km/s) = 2.89819 2.52257 2.71688
# Velocity P-wave (km/s) = 4.89605 5.11277 5.00558
#
# Compressibility (1/GPa) = 0.03463005
#
# Stress axis : x y z
#
# Youngs Moduli (GPa) = 87.16340 19.85199 48.65604
#
# Poissons Ratio (x) = 0.16860 0.09445
# Poissons Ratio (y) = 0.74027 0.65442
# Poissons Ratio (z) = 0.16920 0.26701
#
# Static dielectric constant tensor:
#      x y z
#    x 1.837520 0.000000 0.017880 
#    y 0.000000 1.891050 0.000000 
#    z 0.017880 0.000000 1.890030 
# 
# From -- ./inp_files/98418.got.cif
#   From: 2010.05.17/outbox.cif.g08.bks.cpg/sg15_50_cif.got.tgz:98418.got - 2010.06.03 18:47:42.
