data_PCOD9267812
_publ_section_title
;
Structure prediction by ZEFSAII (Michael W. Deem and Ramdas Pophale) SiO2 
 PCOD9267812
Probable space group: C 2/C
;
_chemical_formula_sum "Si O2"
_cell_formula_units_Z 48
_cell_length_a 9.217752
_cell_length_b 16.097368
_cell_length_c 28.198903
_cell_angle_alpha 90.000000
_cell_angle_beta 30.834708
_cell_angle_gamma 90.000000
_cell_volume 2144.664904
_symmetry_space_group_name_H-M "C 2/C"
_symmetry_group_IT_number 15
_symmetry_cell_setting 'monoclinic'
loop_
_space_group_symop_operation_xyz
x,y,z
-x,y,1/2-z
-x,-y,-z
x,-y,1/2+z
1/2+x,1/2+y,z
1/2-x,1/2+y,1/2-z
1/2-x,1/2-y,-z
1/2+x,1/2-y,1/2+z
loop_
_atom_site_type_symbol
_atom_site_label
_atom_site_fract_x
_atom_site_fract_y
_atom_site_fract_z
Si Si1 0.877608 0.995948 0.230821
Si Si2 0.780418 0.748356 0.047486
Si Si3 0.313601 0.006219 0.932696
Si Si4 0.147485 0.812219 0.760510
Si Si5 0.922730 0.581394 0.550224
Si Si6 0.714643 0.181891 0.051335
O O1 0.545527 0.977659 0.326592
O O2 0.000000 0.998281 0.250000
O O3 0.895618 0.092220 0.209768
O O4 0.082711 0.928429 0.149716
O O5 0.500514 0.742883 0.157823
O O6 0.750000 0.750000 0.000000
O O7 0.963358 0.664527 0.004941
O O8 0.980935 0.821102 0.009281
O O9 0.370244 0.912554 0.937845
O O10 0.408623 0.068943 0.947393
O O11 0.000000 0.000000 0.000000
O O12 0.525748 0.793936 0.842815
O O13 0.000000 0.803439 0.750000
O O14 0.000000 0.500000 0.500000
O O15 0.750000 0.250000 0.000000
#
# Coordination Sequence:
#
# PCOD9267812 Si02
#       6
#     8   8   8   8   8   8
#     4   8  17  35  63  87 112 166 219 249 295 389
#     4  12  25  40  62 101 134 159 207 282 332 364
#     4  10  21  40  63  87 127 165 207 265 326 377
#     4  10  19  40  66  87 122 173 217 250 313 396
#     4  11  20  39  66  90 119 165 220 255 309 390
#     4  11  22  41  67  91 122 174 218 253 318 393
#
# _framework density 22.381119999999999
#
# number of rings (size 3 to 8) (size 9 to 14) (size 15 to 20)
#    0.000    1.667    3.333    3.000    0.000    0.667 
#   12.000    0.833    0.000    0.000    0.000    0.000 
#    0.000    0.000    0.000    0.000    0.000    0.000 
#
# Total GULP energy -133893.376149 kJ/mol
# GULP energy per Si atom -5578.890673 kJ/mol
# Density = 2.233018 g / cm^3
# Si number density = 22.381120 Si / 1000 Ang^3
#
#
#
# Elastic Constant Matrix: (Units=GPa)
#
#
# Indices 1 2 3 4 5 6 
#
# 1 65.1667 -5.6398 22.5507 -0.0043 -2.6843 -0.0086
# 2 -5.6398 81.3640 22.8864 -0.0226 9.9629 0.0005
# 3 22.5507 22.8864 170.7888 -0.1050 -13.6470 -0.0046
# 4 -0.0043 -0.0226 -0.1050 34.0254 0.0242 -0.1750
# 5 -2.6843 9.9629 -13.6470 0.0242 34.2805 0.0176
# 6 -0.0086 0.0005 -0.0046 -0.1750 0.0176 26.8572
#
#
#
# Elastic Compliance Matrix: (Units=1/GPa)
#
#
# Indices 1 2 3 4 5 6 
#
# 1 0.016333 0.001840 -0.002421 -0.000004 -0.000219 0.000005
# 2 0.001840 0.013701 -0.002464 0.000005 -0.004819 0.000003
# 3 -0.002421 -0.002464 0.006762 0.000017 0.003219 -0.000002
# 4 -0.000004 0.000005 0.000017 0.029391 -0.000016 0.000192
# 5 -0.000219 -0.004819 0.003219 -0.000016 0.031836 -0.000020
# 6 0.000005 0.000003 -0.000002 0.000192 -0.000020 0.037235
#
#
# Mechanical properties :
#
#
# Convention : Reuss Voigt Hill
#
# Bulk Modulus (GPa) = 32.56598 44.10158 38.33378
# Shear Modulus (GPa) = 32.98512 37.53409 35.25960
#
# Velocity S-wave (km/s) = 3.84316 4.09961 3.97346
# Velocity P-wave (km/s) = 5.85452 6.49282 6.18192
#
# Compressibility (1/GPa) = 0.03070689
#
# Stress axis : x y z
#
# Youngs Moduli (GPa) = 61.22524 72.98674 147.88117
#
# Poissons Ratio (x) = -0.13429 0.35798
# Poissons Ratio (y) = -0.11265 0.36438
# Poissons Ratio (z) = 0.14821 0.17984
#
# Static dielectric constant tensor:
#      x y z
#    x 1.800130 -0.001940 -0.039830 
#    y -0.001940 1.798110 -0.001870 
#    z -0.039830 -0.001870 1.873160 
# 
# From -- ./inp_files/308705.got.cif
#   From: 2010.05.17/outbox.cif.g08.bks.cpg/sg15_155_cif.got.tgz:308705.got - 2010.06.03 18:47:42.
