data_PCOD9267360
_publ_section_title
;
Structure prediction by ZEFSAII (Michael W. Deem and Ramdas Pophale) SiO2 
 PCOD9267360
Probable space group: C 2/C
;
_chemical_formula_sum "Si O2"
_cell_formula_units_Z 60
_cell_length_a 11.559365
_cell_length_b 26.929949
_cell_length_c 17.510226
_cell_angle_alpha 90.000000
_cell_angle_beta 147.052637
_cell_angle_gamma 90.000000
_cell_volume 2964.524393
_symmetry_space_group_name_H-M "C 2/C"
_symmetry_group_IT_number 15
_symmetry_cell_setting 'monoclinic'
loop_
_space_group_symop_operation_xyz
x,y,z
-x,y,1/2-z
-x,-y,-z
x,-y,1/2+z
1/2+x,1/2+y,z
1/2-x,1/2+y,1/2-z
1/2-x,1/2-y,-z
1/2+x,1/2-y,1/2+z
loop_
_atom_site_type_symbol
_atom_site_label
_atom_site_fract_x
_atom_site_fract_y
_atom_site_fract_z
Si Si1 0.627557 0.856805 0.742785
Si Si2 0.493671 0.323226 0.036737
Si Si3 0.051373 0.564190 0.608776
Si Si4 0.032595 0.547614 0.419545
Si Si5 0.529324 0.599268 0.851382
Si Si6 0.472663 0.167862 0.851273
Si Si7 0.000000 0.746605 0.750000
Si Si8 0.942361 0.710619 0.440241
O O1 0.500000 0.844852 0.750000
O O2 0.596312 0.914331 0.704462
O O3 0.548800 0.825243 0.626981
O O4 0.871555 0.842622 0.895049
O O5 0.408103 0.356256 0.058756
O O6 0.745183 0.333000 0.182722
O O7 0.461873 0.264487 0.025398
O O8 0.009516 0.509963 0.618826
O O9 0.304156 0.575508 0.749554
O O10 0.947647 0.611447 0.594395
O O11 0.984713 0.560474 0.482349
O O12 0.280972 0.559886 0.545040
O O13 0.500000 0.619224 0.750000
O O14 0.588540 0.210237 0.866372
O O15 0.448528 0.187435 0.924431
O O16 0.195161 0.778751 0.825972
#
# Coordination Sequence:
#
# PCOD9267360 Si02
#       8
#     8   8   8   8   8   8   4   8
#     4  12  24  39  60  95 132 164 207 265 318 369
#     4  10  21  36  58  87 123 161 200 257 306 370
#     4   9  19  37  66  87 116 163 212 257 308 382
#     4  10  19  39  61  86 126 163 203 260 315 375
#     4   9  18  35  59  86 118 161 210 253 314 377
#     4  10  20  40  63  90 121 163 216 255 310 378
#     4  10  22  40  66  92 124 160 214 274 312 362
#     4  11  23  42  64  90 127 171 212 253 317 379
#
# _framework density 20.239333999999999
#
# number of rings (size 3 to 8) (size 9 to 14) (size 15 to 20)
#    0.000    1.867    2.667    2.000    0.000    2.133 
#    1.200    6.667    0.000    0.000    0.000    0.000 
#    0.000    0.000    0.000    0.000    0.000    0.000 
#
# Total GULP energy -167398.808747 kJ/mol
# GULP energy per Si atom -5579.960292 kJ/mol
# Density = 2.019327 g / cm^3
# Si number density = 20.239334 Si / 1000 Ang^3
#
#
#
# Elastic Constant Matrix: (Units=GPa)
#
#
# Indices 1 2 3 4 5 6 
#
# 1 64.2380 16.7944 11.5341 0.0000 -8.5699 0.0000
# 2 16.7944 94.2666 8.4699 -0.0001 -12.1200 0.0000
# 3 11.5341 8.4699 72.1867 -0.0003 -16.7605 0.0001
# 4 0.0000 -0.0001 -0.0003 19.0643 -0.0001 -5.0760
# 5 -8.5699 -12.1200 -16.7605 -0.0001 25.7151 0.0001
# 6 0.0000 0.0000 0.0001 -5.0760 0.0001 26.8258
#
#
#
# Elastic Compliance Matrix: (Units=1/GPa)
#
#
# Indices 1 2 3 4 5 6 
#
# 1 0.016954 -0.002432 -0.001624 0.000000 0.003446 0.000000
# 2 -0.002432 0.011642 0.000128 0.000000 0.004760 0.000000
# 3 -0.001624 0.000128 0.016480 0.000000 0.010260 0.000000
# 4 0.000000 0.000000 0.000000 0.055237 0.000000 0.010452
# 5 0.003446 0.004760 0.010260 0.000000 0.048967 0.000000
# 6 0.000000 0.000000 0.000000 0.010452 0.000000 0.039255
#
#
# Mechanical properties :
#
#
# Convention : Reuss Voigt Hill
#
# Bulk Modulus (GPa) = 26.86678 33.80980 30.33829
# Shear Modulus (GPa) = 23.94680 27.24725 25.59702
#
# Velocity S-wave (km/s) = 3.44347 3.67311 3.56014
# Velocity P-wave (km/s) = 5.39568 5.89324 5.64994
#
# Compressibility (1/GPa) = 0.03722069
#
# Stress axis : x y z
#
# Youngs Moduli (GPa) = 58.98299 85.89638 60.68101
#
# Poissons Ratio (x) = 0.20886 0.09852
# Poissons Ratio (y) = 0.14342 -0.00775
# Poissons Ratio (z) = 0.09576 -0.01097
#
# Static dielectric constant tensor:
#      x y z
#    x 1.759220 0.000000 0.016710 
#    y 0.000000 1.708650 0.000000 
#    z 0.016710 0.000000 1.742110 
# 
# From -- ./inp_files/201260.got.cif
#   From: 2010.05.17/outbox.cif.g08.bks.cpg/sg15_101_cif.got.tgz:201260.got - 2010.06.03 18:47:42.
