data_PCOD9267968
_publ_section_title
;
Structure prediction by ZEFSAII (Michael W. Deem and Ramdas Pophale) SiO2 
 PCOD9267968
Probable space group: C 2/C
;
_chemical_formula_sum "Si O2"
_cell_formula_units_Z 36
_cell_length_a 10.957920
_cell_length_b 14.349728
_cell_length_c 13.383159
_cell_angle_alpha 90.000000
_cell_angle_beta 140.616436
_cell_angle_gamma 90.000000
_cell_volume 1335.266935
_symmetry_space_group_name_H-M "C 2/C"
_symmetry_group_IT_number 15
_symmetry_cell_setting 'monoclinic'
loop_
_space_group_symop_operation_xyz
x,y,z
-x,y,1/2-z
-x,-y,-z
x,-y,1/2+z
1/2+x,1/2+y,z
1/2-x,1/2+y,1/2-z
1/2-x,1/2-y,-z
1/2+x,1/2-y,1/2+z
loop_
_atom_site_type_symbol
_atom_site_label
_atom_site_fract_x
_atom_site_fract_y
_atom_site_fract_z
Si Si1 0.696156 0.220681 0.580823
Si Si2 0.702510 0.874214 0.372263
Si Si3 0.502033 0.389219 0.414035
Si Si4 0.500000 0.480966 0.750000
Si Si5 0.277475 0.834432 0.880420
O O1 0.750000 0.250000 0.500000
O O2 0.633799 0.325921 0.569622
O O3 0.865718 0.174354 0.751895
O O4 0.494744 0.165438 0.474551
O O5 0.500000 0.923744 0.250000
O O6 0.847342 0.928928 0.393728
O O7 0.739268 0.850369 0.510082
O O8 0.691986 0.770056 0.314463
O O9 0.606017 0.454167 0.399153
O O10 0.642650 0.421522 0.771207
#
# Coordination Sequence:
#
# PCOD9267968 Si02
#       5
#     8   8   8   4   8
#     4  11  21  43  66 100 125 190 223 281 324 438
#     4  10  19  41  63  94 120 183 230 273 324 433
#     4  11  24  40  73  96 143 172 243 277 356 401
#     4  12  24  44  62 108 140 182 214 314 348 398
#     4  10  23  37  71  91 137 174 237 274 354 398
#
# _framework density 26.960901
#
# number of rings (size 3 to 8) (size 9 to 14) (size 15 to 20)
#    0.000    1.333    5.556    0.000    0.000    1.778 
#    0.000    0.000    0.000    0.000    0.000    0.000 
#    0.000    0.000    0.000    0.000    0.000    0.000 
#
# Total GULP energy -100274.734085 kJ/mol
# GULP energy per Si atom -5570.818560 kJ/mol
# Density = 2.689954 g / cm^3
# Si number density = 26.960901 Si / 1000 Ang^3
#
#
#
# Elastic Constant Matrix: (Units=GPa)
#
#
# Indices 1 2 3 4 5 6 
#
# 1 205.7721 36.8747 25.9865 0.0001 -1.9268 0.0000
# 2 36.8747 64.1000 20.1682 0.0001 -2.4548 0.0000
# 3 25.9865 20.1682 58.8618 0.0001 2.0757 0.0001
# 4 0.0001 0.0001 0.0001 30.7567 0.0001 -17.6420
# 5 -1.9268 -2.4548 2.0757 0.0001 56.4350 0.0000
# 6 0.0000 0.0000 0.0001 -17.6420 0.0000 61.7556
#
#
#
# Elastic Compliance Matrix: (Units=1/GPa)
#
#
# Indices 1 2 3 4 5 6 
#
# 1 0.005537 -0.002701 -0.001524 0.000000 0.000128 0.000000
# 2 -0.002701 0.018858 -0.005301 0.000000 0.000923 0.000000
# 3 -0.001524 -0.005301 0.019513 0.000000 -0.001000 0.000000
# 4 0.000000 0.000000 0.000000 0.038885 0.000000 0.011108
# 5 0.000128 0.000923 -0.001000 0.000000 0.017801 0.000000
# 6 0.000000 0.000000 0.000000 0.011108 0.000000 0.019366
#
#
# Mechanical properties :
#
#
# Convention : Reuss Voigt Hill
#
# Bulk Modulus (GPa) = 40.23153 54.97696 47.60425
# Shear Modulus (GPa) = 33.94462 46.16974 40.05718
#
# Velocity S-wave (km/s) = 3.55213 4.14269 3.85873
# Velocity P-wave (km/s) = 5.63721 6.58165 6.12765
#
# Compressibility (1/GPa) = 0.02485612
#
# Stress axis : x y z
#
# Youngs Moduli (GPa) = 180.58945 53.02816 51.24699
#
# Poissons Ratio (x) = 0.14324 0.07808
# Poissons Ratio (y) = 0.48781 0.27168
# Poissons Ratio (z) = 0.27515 0.28112
#
# Static dielectric constant tensor:
#      x y z
#    x 2.167170 0.000000 -0.025080 
#    y 0.000000 2.314180 0.000000 
#    z -0.025080 0.000000 2.307980 
# 
# From -- ./inp_files/85079.got.cif
#   From: 2010.05.17/outbox.cif.g08.bks.cpg/sg15_43_cif.got.tgz:85079.got - 2010.06.03 18:47:42.
