data_PCOD9267335
_publ_section_title
;
Structure prediction by ZEFSAII (Michael W. Deem and Ramdas Pophale) SiO2 
 PCOD9267335
Probable space group: C 2/C
;
_chemical_formula_sum "Si O2"
_cell_formula_units_Z 60
_cell_length_a 17.617363
_cell_length_b 8.321023
_cell_length_c 20.569485
_cell_angle_alpha 90.000000
_cell_angle_beta 103.491552
_cell_angle_gamma 90.000000
_cell_volume 2932.161776
_symmetry_space_group_name_H-M "C 2/C"
_symmetry_group_IT_number 15
_symmetry_cell_setting 'monoclinic'
loop_
_space_group_symop_operation_xyz
x,y,z
-x,y,1/2-z
-x,-y,-z
x,-y,1/2+z
1/2+x,1/2+y,z
1/2-x,1/2+y,1/2-z
1/2-x,1/2-y,-z
1/2+x,1/2-y,1/2+z
loop_
_atom_site_type_symbol
_atom_site_label
_atom_site_fract_x
_atom_site_fract_y
_atom_site_fract_z
Si Si1 0.642339 0.490133 0.698604
Si Si2 0.319149 0.413908 0.517436
Si Si3 0.424765 0.418504 0.951730
Si Si4 0.197555 0.631184 0.088869
Si Si5 0.419178 0.803057 0.138829
Si Si6 0.960125 0.446833 0.425729
Si Si7 0.207654 0.292276 0.285149
Si Si8 0.000000 0.054230 0.250000
O O1 0.604538 0.505376 0.619834
O O2 0.721835 0.591240 0.718976
O O3 0.665202 0.304502 0.719227
O O4 0.575442 0.536974 0.737288
O O5 0.361907 0.565381 0.496114
O O6 0.244514 0.468710 0.543836
O O7 0.304669 0.299286 0.451973
O O8 0.372582 0.298778 0.574250
O O9 0.437878 0.237682 0.932983
O O10 0.500000 0.500000 0.000000
O O11 0.115877 0.558717 0.095330
O O12 0.251921 0.656733 0.161659
O O13 0.475235 0.936104 0.118262
O O14 0.357565 0.867565 0.179912
O O15 0.470709 0.670872 0.186699
O O16 0.000000 0.500000 0.500000
#
# Coordination Sequence:
#
# PCOD9267335 Si02
#       8
#     8   8   8   8   8   8   8   4
#     4  11  23  41  67  92 120 168 213 260 314 382
#     4  10  19  39  60  87 122 168 201 247 324 378
#     4  12  22  38  66  93 125 166 216 262 315 375
#     4  10  21  37  62  87 124 161 200 256 317 374
#     4  10  20  39  63  89 121 170 208 249 314 388
#     4  12  23  36  61  95 125 157 215 265 310 369
#     4  10  24  41  65  87 126 165 210 254 319 381
#     4  10  20  40  64  88 118 170 216 250 312 390
#
# _framework density 20.462717999999999
#
# number of rings (size 3 to 8) (size 9 to 14) (size 15 to 20)
#    0.000    1.333    5.333    0.000    1.867    0.533 
#    0.000    1.333    2.933    0.000    0.000    0.000 
#    0.000    0.000    0.000    0.000    0.000    0.000 
#
# Total GULP energy -167283.028678 kJ/mol
# GULP energy per Si atom -5576.100956 kJ/mol
# Density = 2.041614 g / cm^3
# Si number density = 20.462718 Si / 1000 Ang^3
#
#
#
# Elastic Constant Matrix: (Units=GPa)
#
#
# Indices 1 2 3 4 5 6 
#
# 1 173.5782 32.0952 41.1923 0.0000 -38.3540 0.0000
# 2 32.0952 24.0892 12.0386 0.0000 -12.7381 0.0000
# 3 41.1923 12.0386 99.2785 0.0000 0.8245 0.0000
# 4 0.0000 0.0000 0.0000 21.5506 0.0000 -6.0125
# 5 -38.3540 -12.7381 0.8245 0.0000 44.1746 0.0000
# 6 0.0000 0.0000 0.0000 -6.0125 0.0000 47.6238
#
#
#
# Elastic Compliance Matrix: (Units=1/GPa)
#
#
# Indices 1 2 3 4 5 6 
#
# 1 0.009150 -0.007676 -0.002914 0.000000 0.005786 0.000000
# 2 -0.007676 0.059355 -0.004100 0.000000 0.010528 0.000000
# 3 -0.002914 -0.004100 0.011812 0.000000 -0.003933 0.000000
# 4 0.000000 0.000000 0.000000 0.048097 0.000000 0.006072
# 5 0.005786 0.010528 -0.003933 0.000000 0.030770 0.000000
# 6 0.000000 0.000000 0.000000 0.006072 0.000000 0.021765
#
#
# Mechanical properties :
#
#
# Convention : Reuss Voigt Hill
#
# Bulk Modulus (GPa) = 19.63194 51.95534 35.79364
# Shear Modulus (GPa) = 21.99676 36.77777 29.38727
#
# Velocity S-wave (km/s) = 3.28223 4.24406 3.79375
# Velocity P-wave (km/s) = 4.89682 7.03289 6.05972
#
# Compressibility (1/GPa) = 0.05093740
#
# Stress axis : x y z
#
# Youngs Moduli (GPa) = 109.28644 16.84779 84.66305
#
# Poissons Ratio (x) = 0.12932 0.24670
# Poissons Ratio (y) = 0.83885 0.34712
# Poissons Ratio (z) = 0.31845 0.06908
#
# Static dielectric constant tensor:
#      x y z
#    x 1.876300 0.000000 0.012270 
#    y 0.000000 1.842780 0.000000 
#    z 0.012270 0.000000 1.768250 
# 
# From -- ./inp_files/247499.got.cif
#   From: 2010.05.17/outbox.cif.g08.bks.cpg/sg15_124_cif.got.tgz:247499.got - 2010.06.03 18:47:42.
