data_PCOD9267282
_publ_section_title
;
Structure prediction by ZEFSAII (Michael W. Deem and Ramdas Pophale) SiO2 
 PCOD9267282
Probable space group: C 2/C
;
_chemical_formula_sum "Si O2"
_cell_formula_units_Z 40
_cell_length_a 29.852312
_cell_length_b 8.871592
_cell_length_c 12.807358
_cell_angle_alpha 90.000000
_cell_angle_beta 33.162232
_cell_angle_gamma 90.000000
_cell_volume 1855.391498
_symmetry_space_group_name_H-M "C 2/C"
_symmetry_group_IT_number 15
_symmetry_cell_setting 'monoclinic'
loop_
_space_group_symop_operation_xyz
x,y,z
-x,y,1/2-z
-x,-y,-z
x,-y,1/2+z
1/2+x,1/2+y,z
1/2-x,1/2+y,1/2-z
1/2-x,1/2-y,-z
1/2+x,1/2-y,1/2+z
loop_
_atom_site_type_symbol
_atom_site_label
_atom_site_fract_x
_atom_site_fract_y
_atom_site_fract_z
Si Si1 0.813337 0.176036 0.573040
Si Si2 0.435636 0.151603 0.970617
Si Si3 0.937622 0.165189 0.150772
Si Si4 0.423755 0.417026 0.330619
Si Si5 0.880619 0.684719 0.558835
O O1 0.853766 0.265643 0.589967
O O2 0.862084 0.226185 0.372481
O O3 0.717094 0.185916 0.751541
O O4 0.842344 0.002758 0.528281
O O5 0.500000 0.159126 0.750000
O O6 0.483080 0.238686 0.969521
O O7 0.413599 0.977447 0.028844
O O8 0.914481 0.196654 0.077456
O O9 0.937689 0.990909 0.190417
O O10 0.500000 0.477070 0.250000
O O11 0.412100 0.243539 0.383989
#
# Coordination Sequence:
#
# PCOD9267282 Si02
#       5
#     8   8   8   8   8
#     4   9  19  39  55  79 123 149 174 242 297 318
#     4  10  19  39  58  77 121 152 185 234 287 337
#     4   9  20  39  58  81 122 151 184 235 291 332
#     4  10  20  39  54  78 121 152 177 237 291 329
#     4  12  21  31  66  91  99 155 207 224 274 352
#
# _framework density 21.558793999999999
#
# number of rings (size 3 to 8) (size 9 to 14) (size 15 to 20)
#    1.200    0.800    2.000    3.000    0.000    0.800 
#    0.000    0.000    0.000    2.400    0.000    0.000 
#    0.000    0.000    0.000    0.000    0.000    0.000 
#
# Total GULP energy -111490.637850 kJ/mol
# GULP energy per Si atom -5574.531893 kJ/mol
# Density = 2.150972 g / cm^3
# Si number density = 21.558794 Si / 1000 Ang^3
#
#
#
# Elastic Constant Matrix: (Units=GPa)
#
#
# Indices 1 2 3 4 5 6 
#
# 1 94.9856 40.8752 63.4896 0.0000 -22.4071 0.0000
# 2 40.8752 119.9584 44.8927 0.0000 -9.9742 0.0000
# 3 63.4896 44.8927 91.1927 0.0000 -21.1665 0.0000
# 4 0.0000 0.0000 0.0000 27.8280 0.0000 6.6694
# 5 -22.4071 -9.9742 -21.1665 0.0000 36.5591 0.0000
# 6 0.0000 0.0000 0.0000 6.6694 0.0000 30.8143
#
#
#
# Elastic Compliance Matrix: (Units=1/GPa)
#
#
# Indices 1 2 3 4 5 6 
#
# 1 0.020852 -0.002073 -0.012317 0.000000 0.005084 0.000000
# 2 -0.002073 0.010426 -0.003840 0.000000 -0.000649 0.000000
# 3 -0.012317 -0.003840 0.022453 0.000000 0.004403 0.000000
# 4 0.000000 0.000000 0.000000 0.037901 0.000000 -0.008203
# 5 0.005084 -0.000649 0.004403 0.000000 0.032841 0.000000
# 6 0.000000 0.000000 0.000000 -0.008203 0.000000 0.034228
#
#
# Mechanical properties :
#
#
# Convention : Reuss Voigt Hill
#
# Bulk Modulus (GPa) = 57.89978 67.18351 62.54165
# Shear Modulus (GPa) = 24.88582 29.49890 27.19236
#
# Velocity S-wave (km/s) = 3.40122 3.70307 3.55535
# Velocity P-wave (km/s) = 6.50687 7.03663 6.77693
#
# Compressibility (1/GPa) = 0.01727122
#
# Stress axis : x y z
#
# Youngs Moduli (GPa) = 47.95673 95.91771 44.53683
#
# Poissons Ratio (x) = 0.19885 0.54856
# Poissons Ratio (y) = 0.09942 0.17101
# Poissons Ratio (z) = 0.59069 0.36830
#
# Static dielectric constant tensor:
#      x y z
#    x 1.753050 0.000000 0.044300 
#    y 0.000000 1.859150 0.000000 
#    z 0.044300 0.000000 1.833420 
# 
# From -- ./inp_files/181007.got.cif
#   From: 2010.05.17/outbox.cif.g08.bks.cpg/sg15_91_cif.got.tgz:181007.got - 2010.06.03 18:47:42.
