data_PCOD9267366
_publ_section_title
;
Structure prediction by ZEFSAII (Michael W. Deem and Ramdas Pophale) SiO2 
 PCOD9267366
Probable space group: C 2/C
;
_chemical_formula_sum "Si O2"
_cell_formula_units_Z 52
_cell_length_a 21.842895
_cell_length_b 8.086889
_cell_length_c 20.864580
_cell_angle_alpha 90.000000
_cell_angle_beta 39.161771
_cell_angle_gamma 90.000000
_cell_volume 2327.464174
_symmetry_space_group_name_H-M "C 2/C"
_symmetry_group_IT_number 15
_symmetry_cell_setting 'monoclinic'
loop_
_space_group_symop_operation_xyz
x,y,z
-x,y,1/2-z
-x,-y,-z
x,-y,1/2+z
1/2+x,1/2+y,z
1/2-x,1/2+y,1/2-z
1/2-x,1/2-y,-z
1/2+x,1/2-y,1/2+z
loop_
_atom_site_type_symbol
_atom_site_label
_atom_site_fract_x
_atom_site_fract_y
_atom_site_fract_z
Si Si1 0.944617 0.211365 0.531408
Si Si2 0.124654 0.461332 0.745908
Si Si3 0.500000 0.130275 0.750000
Si Si4 0.669361 0.618817 0.124669
Si Si5 0.146353 0.098024 0.766276
Si Si6 0.369979 0.916920 0.116481
Si Si7 0.184210 0.096110 0.975241
O O1 0.902734 0.098007 0.623408
O O2 0.898133 0.398560 0.568735
O O3 0.909558 0.122942 0.494016
O O4 0.054838 0.268135 0.457280
O O5 0.031175 0.522418 0.784104
O O6 0.110067 0.269595 0.767912
O O7 0.128740 0.560482 0.808431
O O8 0.228423 0.496181 0.629187
O O9 0.408776 0.245972 0.832946
O O10 0.636006 0.537905 0.218678
O O11 0.768296 0.719963 0.055436
O O12 0.673364 0.516913 0.055090
O O13 0.261462 0.117625 0.683276
#
# Coordination Sequence:
#
# PCOD9267366 Si02
#       7
#     8   8   4   8   8   8   8
#     4  10  20  37  67  94 135 179 222 265 345 402
#     4  10  22  38  65  89 134 173 220 279 335 397
#     4  10  22  42  60  88 122 178 224 268 330 414
#     4  10  22  38  65  89 128 175 226 277 326 399
#     4  11  22  40  63 102 136 170 221 294 331 393
#     4  10  20  38  64 100 131 176 220 277 332 413
#     4  10  19  39  61  89 124 182 218 264 335 406
#
# _framework density 22.341913999999999
#
# number of rings (size 3 to 8) (size 9 to 14) (size 15 to 20)
#    0.000    1.846    3.077    0.923    0.000    1.231 
#    5.538    0.769    0.000    0.000    0.000    0.000 
#    0.000    0.000    0.000    0.000    0.000    0.000 
#
# Total GULP energy -145010.504590 kJ/mol
# GULP energy per Si atom -5577.327100 kJ/mol
# Density = 2.229106 g / cm^3
# Si number density = 22.341914 Si / 1000 Ang^3
#
#
#
# Elastic Constant Matrix: (Units=GPa)
#
#
# Indices 1 2 3 4 5 6 
#
# 1 80.3006 27.3371 -46.9104 -0.0005 -11.1531 0.0019
# 2 27.3371 40.5500 30.8625 -0.0002 0.9823 0.0007
# 3 -46.9104 30.8625 -46.9930 -0.0007 -3.2874 0.0029
# 4 -0.0005 -0.0002 -0.0007 31.5754 0.0001 5.1419
# 5 -11.1531 0.9823 -3.2874 0.0001 29.8382 -0.0001
# 6 0.0019 0.0007 0.0029 5.1419 -0.0001 26.1884
#
#
#
# Elastic Compliance Matrix: (Units=1/GPa)
#
#
# Indices 1 2 3 4 5 6 
#
# 1 0.008011 0.000498 -0.007818 0.000000 0.002117 0.000000
# 2 0.000498 0.016486 0.010275 0.000001 0.000776 -0.000002
# 3 -0.007818 0.010275 -0.006450 0.000000 -0.003971 0.000001
# 4 0.000000 0.000001 0.000000 0.032716 0.000000 -0.006424
# 5 0.002117 0.000776 -0.003971 0.000000 0.033842 0.000000
# 6 0.000000 -0.000002 0.000001 -0.006424 0.000000 0.039446
#
#
# Mechanical properties :
#
#
# Convention : Reuss Voigt Hill
#
# Bulk Modulus (GPa) = 41.73862 10.71511 26.22686
# Shear Modulus (GPa) = 39.64310 21.69163 30.66736
#
# Velocity S-wave (km/s) = 4.21691 3.11930 3.70893
# Velocity P-wave (km/s) = 6.51399 4.21660 5.48689
#
# Compressibility (1/GPa) = 0.02395862
#
# Stress axis : x y z
#
# Youngs Moduli (GPa) = 124.83306 60.65855 -155.04274
#
# Poissons Ratio (x) = -0.03022 -1.21205
# Poissons Ratio (y) = -0.06219 1.59313
# Poissons Ratio (z) = 0.97589 -0.62329
#
# Static dielectric constant tensor:
#      x y z
#    x 1.929770 0.000000 -0.007230 
#    y 0.000000 1.875220 0.000000 
#    z -0.007230 0.000000 2.037510 
# 
# From -- ./inp_files/171767.got.cif
#   From: 2010.05.17/outbox.cif.g08.bks.cpg/sg15_86_cif.got.tgz:171767.got - 2010.06.03 18:47:42.
