data_PCOD9267271
_publ_section_title
;
Structure prediction by ZEFSAII (Michael W. Deem and Ramdas Pophale) SiO2 
 PCOD9267271
Probable space group: C 2/C
;
_chemical_formula_sum "Si O2"
_cell_formula_units_Z 64
_cell_length_a 20.892030
_cell_length_b 11.025692
_cell_length_c 17.768342
_cell_angle_alpha 90.000000
_cell_angle_beta 133.304205
_cell_angle_gamma 90.000000
_cell_volume 2978.510660
_symmetry_space_group_name_H-M "C 2/C"
_symmetry_group_IT_number 15
_symmetry_cell_setting 'monoclinic'
loop_
_space_group_symop_operation_xyz
x,y,z
-x,y,1/2-z
-x,-y,-z
x,-y,1/2+z
1/2+x,1/2+y,z
1/2-x,1/2+y,1/2-z
1/2-x,1/2-y,-z
1/2+x,1/2-y,1/2+z
loop_
_atom_site_type_symbol
_atom_site_label
_atom_site_fract_x
_atom_site_fract_y
_atom_site_fract_z
Si Si1 0.403401 0.886508 0.991186
Si Si2 0.081502 0.273017 0.944656
Si Si3 0.239983 0.857543 0.328295
Si Si4 0.656382 0.148689 0.352563
Si Si5 0.933931 0.458209 0.855691
Si Si6 0.722193 0.400033 0.893440
Si Si7 0.790259 0.175429 0.869969
Si Si8 0.164084 0.030397 0.986085
O O1 0.384629 0.954822 0.896006
O O2 0.328483 0.916009 0.992930
O O3 0.382038 0.748269 0.954972
O O4 0.498897 0.929547 0.091569
O O5 0.092415 0.326303 0.869619
O O6 0.087756 0.127340 0.940672
O O7 0.995679 0.337881 0.907625
O O8 0.165185 0.318219 0.061101
O O9 0.172271 0.769364 0.316850
O O10 0.237268 0.830699 0.238101
O O11 0.209349 0.994200 0.321999
O O12 0.622935 0.051195 0.264938
O O13 0.750532 0.112549 0.463163
O O14 0.722070 0.263537 0.860649
O O15 0.662461 0.434076 0.916237
O O16 0.808390 0.045435 0.919174
#
# Coordination Sequence:
#
# PCOD9267271 Si02
#       8
#     8   8   8   8   8   8   8   8
#     4   9  21  36  56  84 118 159 188 255 298 357
#     4  11  21  35  56  90 118 150 199 252 300 354
#     4  11  19  36  57  87 120 144 198 257 297 346
#     4  11  20  35  59  91 113 152 204 251 297 355
#     4  11  20  37  58  84 120 158 201 245 308 354
#     4  10  19  39  56  84 120 152 191 256 292 354
#     4  10  23  34  60  88 117 157 196 244 308 366
#     4  11  21  36  61  89 120 155 201 255 309 354
#
# _framework density 21.487248000000001
#
# number of rings (size 3 to 8) (size 9 to 14) (size 15 to 20)
#    0.750    0.750    5.000    1.500    5.250    0.000 
#    0.000    0.625    0.000    0.000    3.250    0.000 
#    0.000    0.000    0.000    0.000    0.000    0.000 
#
# Total GULP energy -178380.110563 kJ/mol
# GULP energy per Si atom -5574.378455 kJ/mol
# Density = 2.143834 g / cm^3
# Si number density = 21.487248 Si / 1000 Ang^3
#
#
#
# Elastic Constant Matrix: (Units=GPa)
#
#
# Indices 1 2 3 4 5 6 
#
# 1 54.8525 5.6959 10.8895 0.0000 -13.0118 0.0000
# 2 5.6959 40.5946 13.5836 0.0000 -1.4616 0.0000
# 3 10.8895 13.5836 73.1193 0.0000 -12.3029 0.0000
# 4 0.0000 0.0000 0.0000 34.9590 0.0000 -0.4604
# 5 -13.0118 -1.4616 -12.3029 0.0000 27.0900 0.0000
# 6 0.0000 0.0000 0.0000 -0.4604 0.0000 36.3074
#
#
#
# Elastic Compliance Matrix: (Units=1/GPa)
#
#
# Indices 1 2 3 4 5 6 
#
# 1 0.020918 -0.002222 -0.001118 0.000000 0.009420 0.000000
# 2 -0.002222 0.026521 -0.004910 0.000000 -0.001866 0.000000
# 3 -0.001118 -0.004910 0.015830 0.000000 0.006387 0.000000
# 4 0.000000 0.000000 0.000000 0.028610 0.000000 0.000363
# 5 0.009420 -0.001866 0.006387 0.000000 0.044239 0.000000
# 6 0.000000 0.000000 0.000000 0.000363 0.000000 0.027547
#
#
# Mechanical properties :
#
#
# Convention : Reuss Voigt Hill
#
# Bulk Modulus (GPa) = 21.38130 25.43380 23.40755
# Shear Modulus (GPa) = 25.54238 28.89778 27.22008
#
# Velocity S-wave (km/s) = 3.45153 3.67124 3.56308
# Velocity P-wave (km/s) = 5.08491 5.46196 5.27681
#
# Compressibility (1/GPa) = 0.04676985
#
# Stress axis : x y z
#
# Youngs Moduli (GPa) = 47.80620 37.70544 63.17288
#
# Poissons Ratio (x) = 0.08378 0.07060
# Poissons Ratio (y) = 0.10622 0.31018
# Poissons Ratio (z) = 0.05342 0.18514
#
# Static dielectric constant tensor:
#      x y z
#    x 1.796340 0.000000 0.012830 
#    y 0.000000 1.835300 0.000000 
#    z 0.012830 0.000000 1.779550 
# 
# From -- ./inp_files/219154.got.cif
#   From: 2010.05.17/outbox.cif.g08.bks.cpg/sg15_110_cif.got.tgz:219154.got - 2010.06.03 18:47:42.
