data_PCOD9267640
_publ_section_title
;
Structure prediction by ZEFSAII (Michael W. Deem and Ramdas Pophale) SiO2 
 PCOD9267640
Probable space group: C 2/C
;
_chemical_formula_sum "Si O2"
_cell_formula_units_Z 56
_cell_length_a 11.973013
_cell_length_b 28.141492
_cell_length_c 15.404590
_cell_angle_alpha 90.000000
_cell_angle_beta 29.589208
_cell_angle_gamma 90.000000
_cell_volume 2562.905107
_symmetry_space_group_name_H-M "C 2/C"
_symmetry_group_IT_number 15
_symmetry_cell_setting 'monoclinic'
loop_
_space_group_symop_operation_xyz
x,y,z
-x,y,1/2-z
-x,-y,-z
x,-y,1/2+z
1/2+x,1/2+y,z
1/2-x,1/2+y,1/2-z
1/2-x,1/2-y,-z
1/2+x,1/2-y,1/2+z
loop_
_atom_site_type_symbol
_atom_site_label
_atom_site_fract_x
_atom_site_fract_y
_atom_site_fract_z
Si Si1 0.075195 0.444914 0.939596
Si Si2 0.435333 0.462581 0.970097
Si Si3 0.774241 0.632461 0.439906
Si Si4 0.117815 0.385799 0.264140
Si Si5 0.206854 0.959397 0.051608
Si Si6 0.163596 0.283844 0.479584
Si Si7 0.399005 0.699082 0.642471
O O1 0.339536 0.445253 0.733639
O O2 0.000000 0.500000 0.000000
O O3 0.012425 0.412450 0.066501
O O4 0.910845 0.436284 0.968409
O O5 0.260182 0.493817 0.029135
O O6 0.500000 0.500000 0.000000
O O7 0.321769 0.419845 0.097533
O O8 0.614621 0.588086 0.567314
O O9 0.868806 0.666164 0.452245
O O10 0.629699 0.668432 0.478562
O O11 0.000000 0.610145 0.250000
O O12 0.205775 0.333820 0.233053
O O13 0.000000 0.380533 0.250000
O O14 0.000000 0.975535 0.250000
O O15 0.250000 0.250000 0.500000
O O16 0.334472 0.295206 0.287096
O O17 0.959699 0.253108 0.575302
#
# Coordination Sequence:
#
# PCOD9267640 Si02
#       7
#     8   8   8   8   8   8   8
#     4  12  24  44  68  98 134 195 249 300 368 419
#     4  12  26  43  69 101 147 195 247 303 363 441
#     4  11  22  34  63 103 138 176 222 283 364 438
#     4  12  28  48  71  99 145 195 251 310 358 435
#     4  12  24  40  65  99 144 186 242 298 354 439
#     4  10  19  39  70  96 137 171 212 289 369 432
#     4  11  23  44  65 103 135 178 231 290 371 445
#
# _framework density 21.850203
#
# number of rings (size 3 to 8) (size 9 to 14) (size 15 to 20)
#    0.000    0.571    2.857    7.714    4.000    0.000 
#    2.571    0.714    0.000    0.000    0.000    0.000 
#    0.000    0.000    0.000    0.000    0.000    0.000 
#
# Total GULP energy -155963.358140 kJ/mol
# GULP energy per Si atom -5570.119934 kJ/mol
# Density = 2.180047 g / cm^3
# Si number density = 21.850203 Si / 1000 Ang^3
#
#
#
# Elastic Constant Matrix: (Units=GPa)
#
#
# Indices 1 2 3 4 5 6 
#
# 1 119.6087 48.1239 44.1836 -0.0006 2.9606 0.0000
# 2 48.1239 110.9890 24.6052 0.0000 4.0685 0.0000
# 3 44.1836 24.6052 112.0430 -0.0009 13.3984 0.0000
# 4 -0.0006 0.0000 -0.0009 17.5530 0.0007 -3.1379
# 5 2.9606 4.0685 13.3984 0.0007 21.2088 0.0000
# 6 0.0000 0.0000 0.0000 -3.1379 0.0000 41.1707
#
#
#
# Elastic Compliance Matrix: (Units=1/GPa)
#
#
# Indices 1 2 3 4 5 6 
#
# 1 0.011387 -0.004160 -0.003766 0.000000 0.001588 0.000000
# 2 -0.004160 0.010997 -0.000640 0.000000 -0.001125 0.000000
# 3 -0.003766 -0.000640 0.011329 0.000001 -0.006509 0.000000
# 4 0.000000 0.000000 0.000001 0.057757 -0.000002 0.004402
# 5 0.001588 -0.001125 -0.006509 -0.000002 0.051256 0.000000
# 6 0.000000 0.000000 0.000000 0.004402 0.000000 0.024625
#
#
# Mechanical properties :
#
#
# Convention : Reuss Voigt Hill
#
# Bulk Modulus (GPa) = 60.31629 64.05177 62.18403
# Shear Modulus (GPa) = 26.31435 31.03505 28.67470
#
# Velocity S-wave (km/s) = 3.47408 3.77285 3.62654
# Velocity P-wave (km/s) = 6.61488 6.95391 6.78651
#
# Compressibility (1/GPa) = 0.01657927
#
# Stress axis : x y z
#
# Youngs Moduli (GPa) = 87.82328 90.93510 88.26693
#
# Poissons Ratio (x) = 0.37832 0.33246
# Poissons Ratio (y) = 0.36537 0.05648
# Poissons Ratio (z) = 0.33078 0.05819
#
# Static dielectric constant tensor:
#      x y z
#    x 2.056260 0.000000 0.008480 
#    y 0.000000 2.229510 0.000000 
#    z 0.008480 0.000000 1.898790 
# 
# From -- ./inp_files/149272.got.cif
#   From: 2010.05.17/outbox.cif.g08.bks.cpg/sg15_75_cif.got.tgz:149272.got - 2010.06.03 18:47:42.
