data_PCOD9267489
_publ_section_title
;
Structure prediction by ZEFSAII (Michael W. Deem and Ramdas Pophale) SiO2 
 PCOD9267489
Probable space group: C 2/C
;
_chemical_formula_sum "Si O2"
_cell_formula_units_Z 40
_cell_length_a 7.596127
_cell_length_b 12.874372
_cell_length_c 22.935149
_cell_angle_alpha 90.000000
_cell_angle_beta 39.318280
_cell_angle_gamma 90.000000
_cell_volume 1421.196119
_symmetry_space_group_name_H-M "C 2/C"
_symmetry_group_IT_number 15
_symmetry_cell_setting 'monoclinic'
loop_
_space_group_symop_operation_xyz
x,y,z
-x,y,1/2-z
-x,-y,-z
x,-y,1/2+z
1/2+x,1/2+y,z
1/2-x,1/2+y,1/2-z
1/2-x,1/2-y,-z
1/2+x,1/2-y,1/2+z
loop_
_atom_site_type_symbol
_atom_site_label
_atom_site_fract_x
_atom_site_fract_y
_atom_site_fract_z
Si Si1 0.246090 0.274882 0.570956
Si Si2 0.602038 0.590793 0.855878
Si Si3 0.873188 0.688549 0.897084
Si Si4 0.498873 0.602663 0.180797
Si Si5 0.424724 0.028938 0.434816
O O1 0.250000 0.250000 0.500000
O O2 0.052324 0.181499 0.641494
O O3 0.570209 0.282013 0.501583
O O4 0.110245 0.388317 0.609345
O O5 0.808999 0.646014 0.847798
O O6 0.677492 0.495243 0.795410
O O7 0.372615 0.538414 0.957926
O O8 0.050425 0.792087 0.841941
O O9 0.983515 0.588102 0.901750
O O10 0.500000 0.618286 0.250000
O O11 0.826229 0.571357 0.089226
#
# Coordination Sequence:
#
# PCOD9267489 Si02
#       5
#     8   8   8   8   8
#     4   8  14  33  63  85 112 142 176 244 303 327
#     4  10  19  39  66  84 122 148 191 254 295 334
#     4  10  20  39  64  88 115 148 190 252 300 341
#     4  12  25  39  55  84 123 164 195 233 294 353
#     4  10  19  39  64  90 115 148 199 248 292 344
#
# _framework density 28.145305
#
# number of rings (size 3 to 8) (size 9 to 14) (size 15 to 20)
#    0.000    2.400    6.000    3.000    0.000    2.400 
#    3.600    0.000    0.000    0.000    0.000    0.000 
#    0.000    0.000    0.000    0.000    0.000    0.000 
#
# Total GULP energy -112023.776455 kJ/mol
# GULP energy per Si atom -5601.188823 kJ/mol
# Density = 2.808124 g / cm^3
# Si number density = 28.145305 Si / 1000 Ang^3
#
#
#
# Elastic Constant Matrix: (Units=GPa)
#
#
# Indices 1 2 3 4 5 6 
#
# 1 80.5605 33.9712 -7.8644 -0.0043 -2.3079 0.0012
# 2 33.9712 264.7389 32.0495 -0.0016 12.7951 0.0004
# 3 -7.8644 32.0495 86.9585 -0.0082 13.9754 0.0035
# 4 -0.0043 -0.0016 -0.0082 36.4758 0.0050 7.2994
# 5 -2.3079 12.7951 13.9754 0.0050 25.9286 -0.0016
# 6 0.0012 0.0004 0.0035 7.2994 -0.0016 52.6510
#
#
#
# Elastic Compliance Matrix: (Units=1/GPa)
#
#
# Indices 1 2 3 4 5 6 
#
# 1 0.013463 -0.002000 0.001756 0.000002 0.001239 -0.000001
# 2 -0.002000 0.004290 -0.001525 0.000000 -0.001473 0.000000
# 3 0.001756 -0.001525 0.013220 0.000004 -0.006216 -0.000002
# 4 0.000002 0.000000 0.000004 0.028198 -0.000008 -0.003909
# 5 0.001239 -0.001473 -0.006216 -0.000008 0.042755 0.000003
# 6 -0.000001 0.000000 -0.000002 -0.003909 0.000003 0.019535
#
#
# Mechanical properties :
#
#
# Convention : Reuss Voigt Hill
#
# Bulk Modulus (GPa) = 36.45178 60.95228 48.70203
# Shear Modulus (GPa) = 37.27325 47.95118 42.61222
#
# Velocity S-wave (km/s) = 3.64306 4.13207 3.89525
# Velocity P-wave (km/s) = 5.53853 6.66848 6.12960
#
# Compressibility (1/GPa) = 0.02743350
#
# Stress axis : x y z
#
# Youngs Moduli (GPa) = 74.27599 233.11238 75.64459
#
# Poissons Ratio (x) = 0.46623 -0.13280
# Poissons Ratio (y) = 0.14855 0.11537
# Poissons Ratio (z) = -0.13040 0.35555
#
# Static dielectric constant tensor:
#      x y z
#    x 2.226240 -0.000010 0.011730 
#    y -0.000010 2.204320 0.000010 
#    z 0.011730 0.000010 2.294300 
# 
# From -- ./inp_files/287495.got.cif
#   From: 2010.05.17/outbox.cif.g08.bks.cpg/sg15_144_cif.got.tgz:287495.got - 2010.06.03 18:47:42.
