data_PCOD9267969
_publ_section_title
;
Structure prediction by ZEFSAII (Michael W. Deem and Ramdas Pophale) SiO2 
 PCOD9267969
Probable space group: C 2/C
;
_chemical_formula_sum "Si O2"
_cell_formula_units_Z 36
_cell_length_a 14.665484
_cell_length_b 5.119523
_cell_length_c 17.793573
_cell_angle_alpha 90.000000
_cell_angle_beta 90.176212
_cell_angle_gamma 90.000000
_cell_volume 1335.940172
_symmetry_space_group_name_H-M "C 2/C"
_symmetry_group_IT_number 15
_symmetry_cell_setting 'monoclinic'
loop_
_space_group_symop_operation_xyz
x,y,z
-x,y,1/2-z
-x,-y,-z
x,-y,1/2+z
1/2+x,1/2+y,z
1/2-x,1/2+y,1/2-z
1/2-x,1/2-y,-z
1/2+x,1/2-y,1/2+z
loop_
_atom_site_type_symbol
_atom_site_label
_atom_site_fract_x
_atom_site_fract_y
_atom_site_fract_z
Si Si1 0.341381 0.806827 0.397648
Si Si2 0.627933 0.701021 0.512091
Si Si3 0.995423 0.377828 0.620653
Si Si4 0.500000 0.498138 0.250000
Si Si5 0.342536 0.533926 0.650112
O O1 0.334132 0.523818 0.433254
O O2 0.263204 0.899509 0.340076
O O3 0.329953 0.021019 0.464601
O O4 0.445698 0.860063 0.371330
O O5 0.524049 0.755119 0.540304
O O6 0.639437 0.623667 0.426731
O O7 0.037900 0.192982 0.684849
O O8 0.890712 0.317551 0.635035
O O9 0.594031 0.603413 0.286819
#
# Coordination Sequence:
#
# PCOD9267969 Si02
#       5
#     8   8   8   4   8
#     4  10  22  40  66  95 123 163 217 270 318 376
#     4  10  21  41  67  95 123 163 220 269 318 377
#     4   8  21  40  62  94 125 165 217 250 333 365
#     4   8  20  42  58  92 126 176 200 266 324 394
#     4  10  19  41  63  95 130 166 214 267 322 386
#
# _framework density 26.947313000000001
#
# number of rings (size 3 to 8) (size 9 to 14) (size 15 to 20)
#    2.667    0.000    0.000    2.000    0.000    0.889 
#    8.000    1.111    4.889    0.000    0.000    0.000 
#    0.000    0.000    0.000    0.000    0.000    0.000 
#
# Total GULP energy -100314.528725 kJ/mol
# GULP energy per Si atom -5573.029374 kJ/mol
# Density = 2.688598 g / cm^3
# Si number density = 26.947313 Si / 1000 Ang^3
#
#
#
# Elastic Constant Matrix: (Units=GPa)
#
#
# Indices 1 2 3 4 5 6 
#
# 1 115.9489 23.9000 8.4965 0.0000 17.2856 0.0000
# 2 23.9000 98.5327 17.0835 0.0000 -3.0598 0.0000
# 3 8.4965 17.0835 84.0724 0.0000 27.8823 0.0000
# 4 0.0000 0.0000 0.0000 28.2677 0.0000 3.5488
# 5 17.2856 -3.0598 27.8823 0.0000 38.2921 0.0000
# 6 0.0000 0.0000 0.0000 3.5488 0.0000 7.1737
#
#
#
# Elastic Compliance Matrix: (Units=1/GPa)
#
#
# Indices 1 2 3 4 5 6 
#
# 1 0.009973 -0.002861 0.001506 0.000000 -0.005827 0.000000
# 2 -0.002861 0.011639 -0.003708 0.000000 0.004921 0.000000
# 3 0.001506 -0.003708 0.016901 0.000000 -0.013282 0.000000
# 4 0.000000 0.000000 0.000000 0.037719 0.000000 -0.018659
# 5 -0.005827 0.004921 -0.013282 0.000000 0.038810 0.000000
# 6 0.000000 0.000000 0.000000 -0.018659 0.000000 0.148629
#
#
# Mechanical properties :
#
#
# Convention : Reuss Voigt Hill
#
# Bulk Modulus (GPa) = 35.22867 44.16821 39.69844
# Shear Modulus (GPa) = 17.65178 31.35163 24.50170
#
# Velocity S-wave (km/s) = 2.56217 3.41463 3.01864
# Velocity P-wave (km/s) = 4.67488 5.65441 5.18782
#
# Compressibility (1/GPa) = 0.02838597
#
# Stress axis : x y z
#
# Youngs Moduli (GPa) = 100.27545 85.92105 59.16868
#
# Poissons Ratio (x) = 0.24582 -0.08911
# Poissons Ratio (y) = 0.28689 0.21940
# Poissons Ratio (z) = -0.15101 0.31860
#
# Static dielectric constant tensor:
#      x y z
#    x 2.198190 0.000000 -0.005750 
#    y 0.000000 2.167370 0.000000 
#    z -0.005750 0.000000 2.151390 
# 
# From -- ./inp_files/246104.got.cif
#   From: 2010.05.17/outbox.cif.g08.bks.cpg/sg15_124_cif.got.tgz:246104.got - 2010.06.03 18:47:42.
