data_PCOD9267224
_publ_section_title
;
Structure prediction by ZEFSAII (Michael W. Deem and Ramdas Pophale) SiO2 
 PCOD9267224
Probable space group: C 2/C
;
_chemical_formula_sum "Si O2"
_cell_formula_units_Z 56
_cell_length_a 8.649248
_cell_length_b 28.242913
_cell_length_c 17.387870
_cell_angle_alpha 90.000000
_cell_angle_beta 143.432142
_cell_angle_gamma 90.000000
_cell_volume 2530.556688
_symmetry_space_group_name_H-M "C 2/C"
_symmetry_group_IT_number 15
_symmetry_cell_setting 'monoclinic'
loop_
_space_group_symop_operation_xyz
x,y,z
-x,y,1/2-z
-x,-y,-z
x,-y,1/2+z
1/2+x,1/2+y,z
1/2-x,1/2+y,1/2-z
1/2-x,1/2-y,-z
1/2+x,1/2-y,1/2+z
loop_
_atom_site_type_symbol
_atom_site_label
_atom_site_fract_x
_atom_site_fract_y
_atom_site_fract_z
Si Si1 0.443851 0.277535 0.320018
Si Si2 0.565038 0.852625 0.133744
Si Si3 0.485316 0.530913 0.139426
Si Si4 0.997697 0.316555 0.936860
Si Si5 0.473352 0.421135 0.140513
Si Si6 0.745500 0.071827 0.898575
Si Si7 0.868609 0.415515 0.874539
O O1 0.500000 0.267821 0.250000
O O2 0.187061 0.308280 0.225873
O O3 0.688333 0.310117 0.443754
O O4 0.416865 0.231567 0.362303
O O5 0.352964 0.882475 0.093952
O O6 0.813644 0.889075 0.229764
O O7 0.466353 0.829862 0.014705
O O8 0.516290 0.476542 0.174053
O O9 0.295339 0.561419 0.120198
O O10 0.767698 0.554039 0.262808
O O11 0.359436 0.535683 0.005674
O O12 0.841243 0.360738 0.839515
O O13 0.164696 0.416188 0.019866
O O14 0.544730 0.413485 0.079873
O O15 0.500000 0.054106 0.750000
#
# Coordination Sequence:
#
# PCOD9267224 Si02
#       7
#     8   8   8   8   8   8   8
#     4   9  19  37  66 106 134 177 238 291 361 420
#     4  10  20  40  71  99 139 186 239 290 344 430
#     4  11  25  43  65 103 141 178 237 286 347 422
#     4  10  19  38  68  96 140 179 229 299 350 422
#     4  11  24  41  68  99 139 188 231 285 347 420
#     4  10  23  43  67  92 142 183 231 283 341 410
#     4  11  24  41  67  99 137 177 230 298 344 417
#
# _framework density 22.129517
#
# number of rings (size 3 to 8) (size 9 to 14) (size 15 to 20)
#    0.000    1.714    2.857    0.857    4.000    2.857 
#    2.571    1.429    9.429    8.571    0.000    0.000 
#    0.000    0.000    0.000    0.000    0.000    0.000 
#
# Total GULP energy -156043.904904 kJ/mol
# GULP energy per Si atom -5572.996604 kJ/mol
# Density = 2.207915 g / cm^3
# Si number density = 22.129517 Si / 1000 Ang^3
#
#
#
# Elastic Constant Matrix: (Units=GPa)
#
#
# Indices 1 2 3 4 5 6 
#
# 1 88.5256 32.4216 20.2884 0.0000 -1.7371 0.0000
# 2 32.4216 147.0637 44.4868 0.0000 -7.0609 0.0000
# 3 20.2884 44.4868 113.5695 0.0000 -21.5120 0.0000
# 4 0.0000 0.0000 0.0000 -0.3771 0.0000 12.6864
# 5 -1.7371 -7.0609 -21.5120 0.0000 26.5416 0.0000
# 6 0.0000 0.0000 0.0000 12.6864 0.0000 27.3398
#
#
#
# Elastic Compliance Matrix: (Units=1/GPa)
#
#
# Indices 1 2 3 4 5 6 
#
# 1 0.012480 -0.002345 -0.001505 0.000000 -0.001027 0.000000
# 2 -0.002345 0.008159 -0.002830 0.000000 -0.000276 0.000000
# 3 -0.001505 -0.002830 0.011839 0.000000 0.008744 0.000000
# 4 0.000000 0.000000 0.000000 -0.159643 0.000000 0.074079
# 5 -0.001027 -0.000276 0.008744 0.000000 0.044623 0.000000
# 6 0.000000 0.000000 0.000000 0.074079 0.000000 0.002202
#
#
# Mechanical properties :
#
#
# Convention : Reuss Voigt Hill
#
# Bulk Modulus (GPa) = 52.30708 60.39469 56.35088
# Shear Modulus (GPa) = -82.49892 27.49833 -27.50030
#
# Velocity S-wave (km/s) = -6.11236 3.52889 -3.52902
# Velocity P-wave (km/s) = 5.11141 6.62984 2.98565
#
# Compressibility (1/GPa) = 0.01911787
#
# Stress axis : x y z
#
# Youngs Moduli (GPa) = 80.12858 122.55675 84.46857
#
# Poissons Ratio (x) = 0.28743 0.12715
# Poissons Ratio (y) = 0.18792 0.23901
# Poissons Ratio (z) = 0.12062 0.34678
#
# Static dielectric constant tensor:
#      x y z
#    x 1.889600 0.000000 -0.032910 
#    y 0.000000 1.866970 0.000000 
#    z -0.032910 0.000000 1.842340 
# 
# From -- ./inp_files/240795.got.cif
#   From: 2010.05.17/outbox.cif.g08.bks.cpg/sg15_121_cif.got.tgz:240795.got - 2010.06.03 18:47:42.
