data_PCOD9267902
_publ_section_title
;
Structure prediction by ZEFSAII (Michael W. Deem and Ramdas Pophale) SiO2 
 PCOD9267902
Probable space group: C 2/C
;
_chemical_formula_sum "Si O2"
_cell_formula_units_Z 48
_cell_length_a 20.868698
_cell_length_b 20.821144
_cell_length_c 5.337383
_cell_angle_alpha 90.000000
_cell_angle_beta 124.268959
_cell_angle_gamma 90.000000
_cell_volume 1916.551280
_symmetry_space_group_name_H-M "C 2/C"
_symmetry_group_IT_number 15
_symmetry_cell_setting 'monoclinic'
loop_
_space_group_symop_operation_xyz
x,y,z
-x,y,1/2-z
-x,-y,-z
x,-y,1/2+z
1/2+x,1/2+y,z
1/2-x,1/2+y,1/2-z
1/2-x,1/2-y,-z
1/2+x,1/2-y,1/2+z
loop_
_atom_site_type_symbol
_atom_site_label
_atom_site_fract_x
_atom_site_fract_y
_atom_site_fract_z
Si Si1 0.081035 0.542275 0.444426
Si Si2 0.107952 0.158351 0.845947
Si Si3 0.500000 0.456590 0.250000
Si Si4 0.261495 0.458410 0.400189
Si Si5 0.134024 0.271681 0.252633
Si Si6 0.267690 0.675714 0.754719
Si Si7 0.500000 0.253984 0.750000
O O1 0.077266 0.496598 0.677867
O O2 0.170812 0.561116 0.669692
O O3 0.000000 0.582260 0.250000
O O4 0.196017 0.157582 0.933742
O O5 0.055225 0.196531 0.524847
O O6 0.071166 0.091500 0.846687
O O7 0.103570 0.206870 0.063009
O O8 0.500000 0.500000 0.500000
O O9 0.278141 0.498593 0.688767
O O10 0.297885 0.387294 0.472910
O O11 0.178684 0.310824 0.137055
O O12 0.195510 0.244539 0.588919
O O13 0.057935 0.293947 0.227974
#
# Coordination Sequence:
#
# PCOD9267902 Si02
#       7
#     8   8   4   8   8   8   4
#     4   8  14  28  52  74 103 150 198 242 304 371
#     4  11  22  42  67  92 140 181 223 301 349 418
#     4  12  27  42  68 106 142 191 244 282 356 434
#     4  10  22  40  61  90 133 175 217 276 338 407
#     4  10  21  42  68  97 129 179 230 296 360 418
#     4  10  24  39  66  98 133 177 239 284 358 426
#     4  10  19  40  70  96 130 175 228 290 368 406
#
# _framework density 25.044985
#
# number of rings (size 3 to 8) (size 9 to 14) (size 15 to 20)
#    0.000    2.000    1.667    1.000    4.667    1.333 
#    0.000    1.667   14.667    0.000    0.000    0.000 
#    0.000    0.000    0.000    0.000    0.000    0.000 
#
# Total GULP energy -133641.872983 kJ/mol
# GULP energy per Si atom -5568.411374 kJ/mol
# Density = 2.498798 g / cm^3
# Si number density = 25.044985 Si / 1000 Ang^3
#
#
#
# Elastic Constant Matrix: (Units=GPa)
#
#
# Indices 1 2 3 4 5 6 
#
# 1 192.9770 40.2775 31.9128 0.0000 -24.5403 0.0000
# 2 40.2775 83.3048 27.3511 0.0000 3.4199 0.0000
# 3 31.9128 27.3511 96.6307 0.0000 -11.5563 0.0000
# 4 0.0000 0.0000 0.0000 24.7586 0.0000 11.2036
# 5 -24.5403 3.4199 -11.5563 0.0000 30.9009 0.0000
# 6 0.0000 0.0000 0.0000 11.2036 0.0000 19.8809
#
#
#
# Elastic Compliance Matrix: (Units=1/GPa)
#
#
# Indices 1 2 3 4 5 6 
#
# 1 0.006647 -0.003226 -0.000636 0.000000 0.005398 0.000000
# 2 -0.003226 0.015071 -0.003880 0.000000 -0.005681 0.000000
# 3 -0.000636 -0.003880 0.012193 0.000000 0.004484 0.000000
# 4 0.000000 0.000000 0.000000 0.054215 0.000000 -0.030552
# 5 0.005398 -0.005681 0.004484 0.000000 0.038954 0.000000
# 6 0.000000 0.000000 0.000000 -0.030552 0.000000 0.067517
#
#
# Mechanical properties :
#
#
# Convention : Reuss Voigt Hill
#
# Bulk Modulus (GPa) = 54.27052 63.55502 58.91277
# Shear Modulus (GPa) = 23.12410 33.33283 28.22847
#
# Velocity S-wave (km/s) = 3.04189 3.65213 3.36089
# Velocity P-wave (km/s) = 5.83555 6.57385 6.21567
#
# Compressibility (1/GPa) = 0.01842621
#
# Stress axis : x y z
#
# Youngs Moduli (GPa) = 150.44233 66.35210 82.01251
#
# Poissons Ratio (x) = 0.21408 0.05220
# Poissons Ratio (y) = 0.48540 0.31818
# Poissons Ratio (z) = 0.09575 0.25743
#
# Static dielectric constant tensor:
#      x y z
#    x 2.083450 0.000000 0.071780 
#    y 0.000000 1.959720 0.000000 
#    z 0.071780 0.000000 2.110470 
# 
# From -- ./inp_files/15758.got.cif
#   From: 2010.05.17/outbox.cif.g08.bks.cpg/sg15_8_cif.got.tgz:15758.got - 2010.06.03 18:47:42.
