data_PCOD9267324
_publ_section_title
;
Structure prediction by ZEFSAII (Michael W. Deem and Ramdas Pophale) SiO2 
 PCOD9267324
Probable space group: C 2/C
;
_chemical_formula_sum "Si O2"
_cell_formula_units_Z 48
_cell_length_a 12.552620
_cell_length_b 18.987081
_cell_length_c 13.373162
_cell_angle_alpha 90.000000
_cell_angle_beta 62.427303
_cell_angle_gamma 90.000000
_cell_volume 2825.324399
_symmetry_space_group_name_H-M "C 2/C"
_symmetry_group_IT_number 15
_symmetry_cell_setting 'monoclinic'
loop_
_space_group_symop_operation_xyz
x,y,z
-x,y,1/2-z
-x,-y,-z
x,-y,1/2+z
1/2+x,1/2+y,z
1/2-x,1/2+y,1/2-z
1/2-x,1/2-y,-z
1/2+x,1/2-y,1/2+z
loop_
_atom_site_type_symbol
_atom_site_label
_atom_site_fract_x
_atom_site_fract_y
_atom_site_fract_z
Si Si1 0.824755 0.658485 0.055464
Si Si2 0.376585 0.010916 0.115369
Si Si3 0.570549 0.810270 0.567995
Si Si4 0.741771 0.859670 0.328672
Si Si5 0.000000 0.426904 0.750000
Si Si6 0.000000 0.189582 0.750000
Si Si7 0.641136 0.782474 0.177927
O O1 0.808861 0.577797 0.096277
O O2 0.719867 0.711262 0.135901
O O3 0.950585 0.679237 0.053591
O O4 0.839075 0.671934 0.931312
O O5 0.302747 0.939425 0.142062
O O6 0.416442 0.028777 0.211711
O O7 0.500000 0.000000 0.000000
O O8 0.683340 0.815837 0.445887
O O9 0.574668 0.874687 0.645294
O O10 0.548423 0.740286 0.640894
O O11 0.884915 0.853870 0.265305
O O12 0.687616 0.826042 0.252146
O O13 0.500000 0.767132 0.250000
#
# Coordination Sequence:
#
# PCOD9267324 Si02
#       7
#     8   8   8   8   4   4   8
#     4  10  21  38  58  88 120 146 191 246 290 342
#     4  11  21  37  60  87 116 150 197 240 293 340
#     4  10  19  39  60  83 114 154 193 244 289 338
#     4  12  23  36  64  87 115 157 195 247 290 350
#     4   9  20  34  60  86 113 148 192 244 287 340
#     4  11  24  40  54  86 121 152 200 240 291 356
#     4  11  21  37  64  87 115 152 196 237 294 350
#
# _framework density 16.9892
#
# number of rings (size 3 to 8) (size 9 to 14) (size 15 to 20)
#    0.000    1.333    6.667    0.500    3.500    0.000 
#    1.500    0.000    0.000    2.000    0.000    0.000 
#    0.000    0.000    0.000    0.000    0.000    0.000 
#
# Total GULP energy -133954.840522 kJ/mol
# GULP energy per Si atom -5581.451688 kJ/mol
# Density = 1.695053 g / cm^3
# Si number density = 16.989200 Si / 1000 Ang^3
#
#
#
# Elastic Constant Matrix: (Units=GPa)
#
#
# Indices 1 2 3 4 5 6 
#
# 1 119.2457 62.0383 52.6588 0.0000 -13.6576 0.0000
# 2 62.0383 125.8581 58.9340 0.0000 -4.5748 0.0000
# 3 52.6588 58.9340 104.6915 0.0000 9.3413 0.0000
# 4 0.0000 0.0000 0.0000 16.1995 0.0000 6.6972
# 5 -13.6576 -4.5748 9.3413 0.0000 27.6670 0.0000
# 6 0.0000 0.0000 0.0000 6.6972 0.0000 14.5010
#
#
#
# Elastic Compliance Matrix: (Units=1/GPa)
#
#
# Indices 1 2 3 4 5 6 
#
# 1 0.013735 -0.003958 -0.005390 0.000000 0.007946 0.000000
# 2 -0.003958 0.012366 -0.005133 0.000000 0.001824 0.000000
# 3 -0.005390 -0.005133 0.015946 0.000000 -0.008893 0.000000
# 4 0.000000 0.000000 0.000000 0.076299 0.000000 -0.035238
# 5 0.007946 0.001824 -0.008893 0.000000 0.043371 0.000000
# 6 0.000000 0.000000 0.000000 -0.035238 0.000000 0.085235
#
#
# Mechanical properties :
#
#
# Convention : Reuss Voigt Hill
#
# Bulk Modulus (GPa) = 76.41828 77.45084 76.93456
# Shear Modulus (GPa) = 17.83953 23.41776 20.62864
#
# Velocity S-wave (km/s) = 3.24396 3.71670 3.48835
# Velocity P-wave (km/s) = 7.68825 8.00660 7.84904
#
# Compressibility (1/GPa) = 0.01308587
#
# Stress axis : x y z
#
# Youngs Moduli (GPa) = 72.80538 80.86378 62.71108
#
# Poissons Ratio (x) = 0.32005 0.33799
# Poissons Ratio (y) = 0.28815 0.32193
# Poissons Ratio (z) = 0.39240 0.41511
#
# Static dielectric constant tensor:
#      x y z
#    x 1.550990 0.000000 0.011760 
#    y 0.000000 1.578600 0.000000 
#    z 0.011760 0.000000 1.583920 
# 
# From -- ./inp_files/87838.got.cif
#   From: 2010.05.17/outbox.cif.g08.bks.cpg/sg15_44_cif.got.tgz:87838.got - 2010.06.03 18:47:42.
