data_PCOD9267958
_publ_section_title
;
Structure prediction by ZEFSAII (Michael W. Deem and Ramdas Pophale) SiO2 
 PCOD9267958
Probable space group: C 2/C
;
_chemical_formula_sum "Si O2"
_cell_formula_units_Z 56
_cell_length_a 27.104000
_cell_length_b 8.662631
_cell_length_c 17.283161
_cell_angle_alpha 90.000000
_cell_angle_beta 143.038573
_cell_angle_gamma 90.000000
_cell_volume 2439.951161
_symmetry_space_group_name_H-M "C 2/C"
_symmetry_group_IT_number 15
_symmetry_cell_setting 'monoclinic'
loop_
_space_group_symop_operation_xyz
x,y,z
-x,y,1/2-z
-x,-y,-z
x,-y,1/2+z
1/2+x,1/2+y,z
1/2-x,1/2+y,1/2-z
1/2-x,1/2-y,-z
1/2+x,1/2-y,1/2+z
loop_
_atom_site_type_symbol
_atom_site_label
_atom_site_fract_x
_atom_site_fract_y
_atom_site_fract_z
Si Si1 0.156095 0.280425 0.192933
Si Si2 0.363604 0.268958 0.648000
Si Si3 0.693723 0.216184 0.325437
Si Si4 0.304937 0.497140 0.863219
Si Si5 0.485282 0.264401 0.440759
Si Si6 0.727048 0.993730 0.005622
Si Si7 0.983161 0.068450 0.103981
O O1 0.151583 0.285330 0.280720
O O2 0.234543 0.376434 0.263153
O O3 0.166836 0.105036 0.175190
O O4 0.069106 0.334367 0.047042
O O5 0.297365 0.403840 0.552809
O O6 0.453090 0.342892 0.762378
O O7 0.341903 0.124154 0.565920
O O8 0.763285 0.125680 0.367263
O O9 0.604863 0.194215 0.176422
O O10 0.687978 0.135287 0.401677
O O11 0.723915 0.392093 0.370864
O O12 0.387164 0.569031 0.002451
O O13 0.490489 0.390942 0.378420
O O14 0.489936 0.351006 0.528652
#
# Coordination Sequence:
#
# PCOD9267958 Si02
#       7
#     8   8   8   8   8   8   8
#     4  10  22  37  61  91 118 154 201 255 316 352
#     4  10  19  41  63  85 113 161 217 235 287 377
#     4  11  21  38  59  91 120 155 203 245 306 353
#     4  11  22  36  58  95 123 153 190 264 325 353
#     4   9  18  35  61  86 118 152 199 244 297 367
#     4  10  22  36  64  83 116 163 206 243 273 369
#     4   9  18  35  61  88 112 156 192 251 307 355
#
# _framework density 22.951277999999999
#
# number of rings (size 3 to 8) (size 9 to 14) (size 15 to 20)
#    0.000    2.000    2.857    1.714    2.000    0.571 
#    2.571    0.714    0.000    3.429    0.000    0.000 
#    0.000    0.000    0.000    0.000    0.000    0.000 
#
# Total GULP energy -156340.898207 kJ/mol
# GULP energy per Si atom -5583.603507 kJ/mol
# Density = 2.289904 g / cm^3
# Si number density = 22.951278 Si / 1000 Ang^3
#
#
#
# Elastic Constant Matrix: (Units=GPa)
#
#
# Indices 1 2 3 4 5 6 
#
# 1 47.6913 6.5541 28.3626 0.0000 20.7363 0.0000
# 2 6.5541 93.3665 64.3838 0.0000 10.8804 0.0000
# 3 28.3626 64.3838 173.5662 0.0000 43.9013 0.0000
# 4 0.0000 0.0000 0.0000 107.8628 0.0000 14.5502
# 5 20.7363 10.8804 43.9013 0.0000 36.4835 0.0000
# 6 0.0000 0.0000 0.0000 14.5502 0.0000 28.6754
#
#
#
# Elastic Compliance Matrix: (Units=1/GPa)
#
#
# Indices 1 2 3 4 5 6 
#
# 1 0.027939 0.000441 -0.000977 0.000000 -0.014836 0.000000
# 2 0.000441 0.014641 -0.006232 0.000000 0.002882 0.000000
# 3 -0.000977 -0.006232 0.010957 0.000000 -0.010772 0.000000
# 4 0.000000 0.000000 0.000000 0.009952 0.000000 -0.005050
# 5 -0.014836 0.002882 -0.010772 0.000000 0.047944 0.000000
# 6 0.000000 0.000000 0.000000 -0.005050 0.000000 0.037436
#
#
# Mechanical properties :
#
#
# Convention : Reuss Voigt Hill
#
# Bulk Modulus (GPa) = 24.99839 57.02500 41.01169
# Shear Modulus (GPa) = 28.45117 48.95922 38.70520
#
# Velocity S-wave (km/s) = 3.52466 4.62365 4.11104
# Velocity P-wave (km/s) = 5.24213 7.30782 6.35941
#
# Compressibility (1/GPa) = 0.04000258
#
# Stress axis : x y z
#
# Youngs Moduli (GPa) = 35.79198 68.30008 91.26220
#
# Poissons Ratio (x) = -0.03013 0.08912
# Poissons Ratio (y) = -0.01579 0.56877
# Poissons Ratio (z) = 0.03495 0.42566
#
# Static dielectric constant tensor:
#      x y z
#    x 1.892330 0.000000 -0.016290 
#    y 0.000000 1.898530 0.000000 
#    z -0.016290 0.000000 1.895230 
# 
# From -- ./inp_files/259007.got.cif
#   From: 2010.05.17/outbox.cif.g08.bks.cpg/sg15_130_cif.got.tgz:259007.got - 2010.06.03 18:47:42.
