data_PCOD9267200
_publ_section_title
;
Structure prediction by ZEFSAII (Michael W. Deem and Ramdas Pophale) SiO2 
 PCOD9267200
Probable space group: C 2/C
;
_chemical_formula_sum "Si O2"
_cell_formula_units_Z 48
_cell_length_a 11.237297
_cell_length_b 15.589057
_cell_length_c 20.453472
_cell_angle_alpha 90.000000
_cell_angle_beta 136.420725
_cell_angle_gamma 90.000000
_cell_volume 2469.979122
_symmetry_space_group_name_H-M "C 2/C"
_symmetry_group_IT_number 15
_symmetry_cell_setting 'monoclinic'
loop_
_space_group_symop_operation_xyz
x,y,z
-x,y,1/2-z
-x,-y,-z
x,-y,1/2+z
1/2+x,1/2+y,z
1/2-x,1/2+y,1/2-z
1/2-x,1/2-y,-z
1/2+x,1/2-y,1/2+z
loop_
_atom_site_type_symbol
_atom_site_label
_atom_site_fract_x
_atom_site_fract_y
_atom_site_fract_z
Si Si1 0.620816 0.735514 0.660045
Si Si2 0.664336 0.125119 0.851729
Si Si3 0.010920 0.344721 0.496403
Si Si4 0.196426 0.942184 0.959937
Si Si5 0.516473 0.726521 0.135827
Si Si6 0.383323 0.612268 0.641148
O O1 0.698193 0.658550 0.646021
O O2 0.561612 0.810584 0.587833
O O3 0.781874 0.766341 0.767822
O O4 0.467442 0.696093 0.641646
O O5 0.500000 0.083242 0.750000
O O6 0.583597 0.210716 0.853750
O O7 0.743697 0.068921 0.941287
O O8 0.026621 0.265544 0.452030
O O9 0.812821 0.372088 0.415654
O O10 0.139037 0.417204 0.519881
O O11 0.056852 0.868449 0.889268
O O12 0.124174 0.034144 0.912636
O O13 0.500000 0.589331 0.750000
#
# Coordination Sequence:
#
# PCOD9267200 Si02
#       6
#     8   8   8   8   8   8
#     4  11  21  39  66  86 125 166 200 243 302 376
#     4   9  18  35  64  91 113 157 208 253 294 353
#     4  11  21  43  65  87 121 166 209 242 295 375
#     4  11  22  40  66  96 120 153 209 262 297 355
#     4  10  19  38  67  95 114 153 216 253 287 363
#     4  12  27  40  57  93 135 159 190 256 324 351
#
# _framework density 19.433361999999999
#
# number of rings (size 3 to 8) (size 9 to 14) (size 15 to 20)
#    0.000    1.333    5.000    2.000    2.333    0.667 
#    0.000    0.000    0.000    0.000    0.000    0.000 
#    0.000    0.000    0.000    0.000    0.000    0.000 
#
# Total GULP energy -134112.426806 kJ/mol
# GULP energy per Si atom -5588.017784 kJ/mol
# Density = 1.938913 g / cm^3
# Si number density = 19.433362 Si / 1000 Ang^3
#
#
#
# Elastic Constant Matrix: (Units=GPa)
#
#
# Indices 1 2 3 4 5 6 
#
# 1 38.7690 13.4308 10.3799 0.0000 13.0219 0.0000
# 2 13.4308 19.0977 19.3163 0.0000 9.5311 0.0000
# 3 10.3799 19.3163 121.8423 0.0000 0.4658 0.0000
# 4 0.0000 0.0000 0.0000 12.0242 0.0000 -3.5362
# 5 13.0219 9.5311 0.4658 0.0000 31.3922 0.0000
# 6 0.0000 0.0000 0.0000 -3.5362 0.0000 12.8379
#
#
#
# Elastic Compliance Matrix: (Units=1/GPa)
#
#
# Indices 1 2 3 4 5 6 
#
# 1 0.035953 -0.021469 0.000373 0.000000 -0.008401 0.000000
# 2 -0.021469 0.088658 -0.012158 0.000000 -0.017832 0.000000
# 3 0.000373 -0.012158 0.010090 0.000000 0.003387 0.000000
# 4 0.000000 0.000000 0.000000 0.090497 0.000000 0.024927
# 5 -0.008401 -0.017832 0.003387 0.000000 0.040704 0.000000
# 6 0.000000 0.000000 0.000000 0.024927 0.000000 0.084761
#
#
# Mechanical properties :
#
#
# Convention : Reuss Voigt Hill
#
# Bulk Modulus (GPa) = 14.66452 29.55146 22.10799
# Shear Modulus (GPa) = 11.36617 20.35631 15.86124
#
# Velocity S-wave (km/s) = 2.42105 3.24001 2.86000
# Velocity P-wave (km/s) = 3.92145 5.40708 4.72304
#
# Compressibility (1/GPa) = 0.06819179
#
# Stress axis : x y z
#
# Youngs Moduli (GPa) = 27.81378 11.27934 99.10678
#
# Poissons Ratio (x) = 0.24216 -0.03695
# Poissons Ratio (y) = 0.59714 1.20496
# Poissons Ratio (z) = -0.01037 0.13714
#
# Static dielectric constant tensor:
#      x y z
#    x 1.687680 0.000000 -0.006310 
#    y 0.000000 1.637710 0.000000 
#    z -0.006310 0.000000 1.686800 
# 
# From -- ./inp_files/143447.got.cif
#   From: 2010.05.17/outbox.cif.g08.bks.cpg/sg15_72_cif.got.tgz:143447.got - 2010.06.03 18:47:42.
