data_PCOD9267118
_publ_section_title
;
Structure prediction by ZEFSAII (Michael W. Deem and Ramdas Pophale) SiO2 
 PCOD9267118
Probable space group: C 2/C
;
_chemical_formula_sum "Si O2"
_cell_formula_units_Z 48
_cell_length_a 11.369159
_cell_length_b 19.253728
_cell_length_c 12.756965
_cell_angle_alpha 90.000000
_cell_angle_beta 133.423329
_cell_angle_gamma 90.000000
_cell_volume 2028.166017
_symmetry_space_group_name_H-M "C 2/C"
_symmetry_group_IT_number 15
_symmetry_cell_setting 'monoclinic'
loop_
_space_group_symop_operation_xyz
x,y,z
-x,y,1/2-z
-x,-y,-z
x,-y,1/2+z
1/2+x,1/2+y,z
1/2-x,1/2+y,1/2-z
1/2-x,1/2-y,-z
1/2+x,1/2-y,1/2+z
loop_
_atom_site_type_symbol
_atom_site_label
_atom_site_fract_x
_atom_site_fract_y
_atom_site_fract_z
Si Si1 0.613464 0.071211 0.178763
Si Si2 0.157271 0.001714 0.523504
Si Si3 0.528912 0.790988 0.541140
Si Si4 0.749864 0.038331 0.626292
Si Si5 0.781408 0.824041 0.266751
Si Si6 0.656999 0.860486 0.401435
O O1 0.602569 0.153636 0.168233
O O2 0.690487 0.036165 0.327334
O O3 0.733626 0.037846 0.165905
O O4 0.432279 0.051096 0.030748
O O5 0.207916 0.079481 0.518259
O O6 0.134216 0.960139 0.401689
O O7 0.000000 0.000000 0.500000
O O8 0.341025 0.795513 0.395252
O O9 0.555852 0.717264 0.613561
O O10 0.611546 0.820904 0.481103
O O11 0.784549 0.095157 0.737066
O O12 0.705242 0.809827 0.335865
O O13 0.500000 0.895567 0.250000
#
# Coordination Sequence:
#
# PCOD9267118 Si02
#       6
#     8   8   8   8   8   8
#     4  10  20  39  66  92 126 171 221 265 329 399
#     4  12  24  37  61 100 137 168 214 282 341 378
#     4  10  21  38  64  96 131 173 221 272 331 395
#     4  10  20  40  67  91 128 175 221 267 321 407
#     4  10  21  38  65  97 130 171 221 273 335 393
#     4  10  19  38  65  94 128 174 221 269 329 402
#
# _framework density 23.666702000000001
#
# number of rings (size 3 to 8) (size 9 to 14) (size 15 to 20)
#    0.000    1.667    3.333    2.000    0.000    2.000 
#    0.000    2.500    0.000    4.000    0.000    3.500 
#    0.000    0.000    0.000    0.000    0.000    0.000 
#
# Total GULP energy -133650.104300 kJ/mol
# GULP energy per Si atom -5568.754346 kJ/mol
# Density = 2.361284 g / cm^3
# Si number density = 23.666702 Si / 1000 Ang^3
#
#
#
# Elastic Constant Matrix: (Units=GPa)
#
#
# Indices 1 2 3 4 5 6 
#
# 1 68.3089 0.3309 10.7801 0.0000 -11.0977 0.0000
# 2 0.3309 31.1335 42.5727 0.0000 5.1932 0.0000
# 3 10.7801 42.5727 104.9048 0.0000 4.7838 0.0000
# 4 0.0000 0.0000 0.0000 37.3197 0.0000 12.3094
# 5 -11.0977 5.1932 4.7838 0.0000 31.0607 0.0000
# 6 0.0000 0.0000 0.0000 12.3094 0.0000 4.7387
#
#
#
# Elastic Compliance Matrix: (Units=1/GPa)
#
#
# Indices 1 2 3 4 5 6 
#
# 1 0.016062 0.003354 -0.003271 0.000000 0.005682 0.000000
# 2 0.003354 0.074699 -0.030358 0.000000 -0.006615 0.000000
# 3 -0.003271 -0.030358 0.022166 0.000000 0.000493 0.000000
# 4 0.000000 0.000000 0.000000 0.187126 0.000000 -0.486089
# 5 0.005682 -0.006615 0.000493 0.000000 0.035255 0.000000
# 6 0.000000 0.000000 0.000000 -0.486089 0.000000 1.473722
#
#
# Mechanical properties :
#
#
# Convention : Reuss Voigt Hill
#
# Bulk Modulus (GPa) = 19.09164 34.63496 26.86330
# Shear Modulus (GPa) = 2.64965 24.66805 13.65885
#
# Velocity S-wave (km/s) = 1.05925 3.23199 2.40497
# Velocity P-wave (km/s) = 3.09522 5.34732 4.36888
#
# Compressibility (1/GPa) = 0.05237895
#
# Stress axis : x y z
#
# Youngs Moduli (GPa) = 62.25715 13.38698 45.11430
#
# Poissons Ratio (x) = -0.04490 0.14756
# Poissons Ratio (y) = -0.20882 1.36957
# Poissons Ratio (z) = 0.20364 0.40640
#
# Static dielectric constant tensor:
#      x y z
#    x 2.075540 0.000000 -0.003680 
#    y 0.000000 1.936150 0.000000 
#    z -0.003680 0.000000 2.038160 
# 
# From -- ./inp_files/89783.got.cif
#   From: 2010.05.17/outbox.cif.g08.bks.cpg/sg15_45_cif.got.tgz:89783.got - 2010.06.03 18:47:42.
