data_PCOD9267994
_publ_section_title
;
Structure prediction by ZEFSAII (Michael W. Deem and Ramdas Pophale) SiO2 
 PCOD9267994
Probable space group: C 2/C
;
_chemical_formula_sum "Si O2"
_cell_formula_units_Z 52
_cell_length_a 25.756669
_cell_length_b 13.786803
_cell_length_c 12.581059
_cell_angle_alpha 90.000000
_cell_angle_beta 145.259314
_cell_angle_gamma 90.000000
_cell_volume 2545.898407
_symmetry_space_group_name_H-M "C 2/C"
_symmetry_group_IT_number 15
_symmetry_cell_setting 'monoclinic'
loop_
_space_group_symop_operation_xyz
x,y,z
-x,y,1/2-z
-x,-y,-z
x,-y,1/2+z
1/2+x,1/2+y,z
1/2-x,1/2+y,1/2-z
1/2-x,1/2-y,-z
1/2+x,1/2-y,1/2+z
loop_
_atom_site_type_symbol
_atom_site_label
_atom_site_fract_x
_atom_site_fract_y
_atom_site_fract_z
Si Si1 0.883466 0.985964 0.377106
Si Si2 0.129699 0.838765 0.786874
Si Si3 0.787548 0.464172 0.771178
Si Si4 0.906409 0.501607 0.145473
Si Si5 0.000000 0.121347 0.250000
Si Si6 0.662914 0.873060 0.291447
Si Si7 0.744970 0.135498 0.509123
O O1 0.803483 0.029546 0.315269
O O2 0.950023 0.941248 0.575876
O O3 0.915061 0.075579 0.357560
O O4 0.835482 0.906966 0.218790
O O5 0.130308 0.736585 0.728305
O O6 0.077837 0.825060 0.812006
O O7 0.235209 0.869647 0.984876
O O8 0.821765 0.570267 0.791559
O O9 0.770102 0.408087 0.633663
O O10 0.862453 0.431342 0.981482
O O11 0.905131 0.436206 0.249760
O O12 0.838731 0.590327 0.062731
O O13 0.000000 0.534363 0.250000
O O14 0.750000 0.250000 0.500000
#
# Coordination Sequence:
#
# PCOD9267994 Si02
#       7
#     8   8   8   8   4   8   8
#     4  11  21  41  62  91 125 169 210 257 326 377
#     4  11  22  39  62  94 122 167 215 257 323 381
#     4  10  19  41  65  86 124 172 201 261 324 371
#     4  10  22  41  66  94 125 165 214 260 324 381
#     4  12  24  38  66  90 132 164 214 272 312 378
#     4  10  21  39  63  90 125 162 216 263 315 388
#     4  10  22  40  64  91 126 167 212 259 320 386
#
# _framework density 20.425008999999999
#
# number of rings (size 3 to 8) (size 9 to 14) (size 15 to 20)
#    0.000    1.538    6.154    0.462    1.077    6.154 
#    2.769    0.000    8.462    0.000    0.000    0.000 
#    0.000    0.000    0.000    0.000    0.000    0.000 
#
# Total GULP energy -144956.059833 kJ/mol
# GULP energy per Si atom -5575.233070 kJ/mol
# Density = 2.037852 g / cm^3
# Si number density = 20.425009 Si / 1000 Ang^3
#
#
#
# Elastic Constant Matrix: (Units=GPa)
#
#
# Indices 1 2 3 4 5 6 
#
# 1 124.9876 17.9853 8.0999 0.0000 -9.3076 0.0000
# 2 17.9853 100.2043 8.7557 0.0000 -8.1446 0.0000
# 3 8.0999 8.7557 61.8196 0.0000 -14.1958 0.0000
# 4 0.0000 0.0000 0.0000 -4.7627 0.0000 -12.6906
# 5 -9.3076 -8.1446 -14.1958 0.0000 33.7407 0.0000
# 6 0.0000 0.0000 0.0000 -12.6906 0.0000 6.9768
#
#
#
# Elastic Compliance Matrix: (Units=1/GPa)
#
#
# Indices 1 2 3 4 5 6 
#
# 1 0.008354 -0.001311 -0.000501 0.000000 0.001777 0.000000
# 2 -0.001311 0.010438 -0.000898 0.000000 0.001780 0.000000
# 3 -0.000501 -0.000898 0.018029 0.000000 0.007231 0.000000
# 4 0.000000 0.000000 0.000000 -0.035911 0.000000 -0.065321
# 5 0.001777 0.001780 0.007231 0.000000 0.033600 0.000000
# 6 0.000000 0.000000 0.000000 -0.065321 0.000000 0.024515
#
#
# Mechanical properties :
#
#
# Convention : Reuss Voigt Hill
#
# Bulk Modulus (GPa) = 31.84507 39.63259 35.73883
# Shear Modulus (GPa) = 66.74484 24.00233 45.37358
#
# Velocity S-wave (km/s) = 5.72267 3.43176 4.71836
# Velocity P-wave (km/s) = 7.70002 5.92863 6.87164
#
# Compressibility (1/GPa) = 0.03140203
#
# Stress axis : x y z
#
# Youngs Moduli (GPa) = 119.69902 95.80281 55.46543
#
# Poissons Ratio (x) = 0.12562 0.02778
# Poissons Ratio (y) = 0.15696 0.04980
# Poissons Ratio (z) = 0.05994 0.08601
#
# Static dielectric constant tensor:
#      x y z
#    x 1.753830 0.000000 0.032940 
#    y 0.000000 1.719660 0.000000 
#    z 0.032940 0.000000 1.814310 
# 
# From -- ./inp_files/118834.got.cif
#   From: 2010.05.17/outbox.cif.g08.bks.cpg/sg15_60_cif.got.tgz:118834.got - 2010.06.03 18:47:42.
