data_PCOD9267185
_publ_section_title
;
Structure prediction by ZEFSAII (Michael W. Deem and Ramdas Pophale) SiO2 
 PCOD9267185
Probable space group: C 2/C
;
_chemical_formula_sum "Si O2"
_cell_formula_units_Z 44
_cell_length_a 24.002709
_cell_length_b 15.630406
_cell_length_c 15.440609
_cell_angle_alpha 90.000000
_cell_angle_beta 162.333987
_cell_angle_gamma 90.000000
_cell_volume 1757.954814
_symmetry_space_group_name_H-M "C 2/C"
_symmetry_group_IT_number 15
_symmetry_cell_setting 'monoclinic'
loop_
_space_group_symop_operation_xyz
x,y,z
-x,y,1/2-z
-x,-y,-z
x,-y,1/2+z
1/2+x,1/2+y,z
1/2-x,1/2+y,1/2-z
1/2-x,1/2-y,-z
1/2+x,1/2-y,1/2+z
loop_
_atom_site_type_symbol
_atom_site_label
_atom_site_fract_x
_atom_site_fract_y
_atom_site_fract_z
Si Si1 0.500000 0.036586 0.750000
Si Si2 0.879573 0.431311 0.263462
Si Si3 0.500000 0.489574 0.250000
Si Si4 0.913044 0.139802 0.478296
Si Si5 0.696107 0.397748 0.257586
Si Si6 0.191021 0.794201 0.081138
Si Si7 0.000000 0.738519 0.250000
O O1 0.325047 0.978950 0.462610
O O2 0.556992 0.076348 0.742017
O O3 0.858793 0.336782 0.275011
O O4 0.000000 0.500000 0.500000
O O5 0.668408 0.464200 0.951654
O O6 0.610232 0.433932 0.485357
O O7 0.753088 0.202584 0.209773
O O8 0.017769 0.101776 0.552063
O O9 0.032955 0.204725 0.714302
O O10 0.657941 0.367664 0.104116
O O11 0.824834 0.320267 0.479962
O O12 0.000000 0.782951 0.750000
#
# Coordination Sequence:
#
# PCOD9267185 Si02
#       7
#     4   8   4   8   8   8   4
#     4  11  22  43  76 112 145 194 261 316 384 458
#     4  12  25  47  77 114 156 205 258 323 390 465
#     4  11  24  47  80 116 149 197 270 317 376 473
#     4  10  21  40  72 106 144 197 253 311 384 451
#     4  10  19  38  67 101 139 190 247 308 370 448
#     4  11  25  45  69 106 160 200 250 325 390 454
#     4   8  18  30  60 102 136 173 233 303 362 429
#
# _framework density 25.029083
#
# number of rings (size 3 to 8) (size 9 to 14) (size 15 to 20)
#    0.000    1.455    4.545    0.545    0.000    5.091 
#    3.273    2.727    2.000    0.000    0.000    0.000 
#    0.000    0.000    0.000    0.000    0.000    0.000 
#
# Total GULP energy -123051.931215 kJ/mol
# GULP energy per Si atom -5593.269601 kJ/mol
# Density = 2.497212 g / cm^3
# Si number density = 25.029083 Si / 1000 Ang^3
#
#
#
# Elastic Constant Matrix: (Units=GPa)
#
#
# Indices 1 2 3 4 5 6 
#
# 1 206.9683 50.8871 47.9308 0.0000 0.4717 0.0000
# 2 50.8871 88.7394 52.4822 0.0000 13.4707 0.0000
# 3 47.9308 52.4822 140.3853 0.0000 -14.8616 0.0000
# 4 0.0000 0.0000 0.0000 49.1703 0.0000 7.4520
# 5 0.4717 13.4707 -14.8616 0.0000 35.7497 0.0000
# 6 0.0000 0.0000 0.0000 7.4520 0.0000 40.1339
#
#
#
# Elastic Compliance Matrix: (Units=1/GPa)
#
#
# Indices 1 2 3 4 5 6 
#
# 1 0.005732 -0.002927 -0.000789 0.000000 0.000699 0.000000
# 2 -0.002927 0.018580 -0.006992 0.000000 -0.009869 0.000000
# 3 -0.000789 -0.006992 0.010760 0.000000 0.007118 0.000000
# 4 0.000000 0.000000 0.000000 0.020926 0.000000 -0.003886
# 5 0.000699 -0.009869 0.007118 0.000000 0.034641 0.000000
# 6 0.000000 0.000000 0.000000 -0.003886 0.000000 0.025638
#
#
# Mechanical properties :
#
#
# Convention : Reuss Voigt Hill
#
# Bulk Modulus (GPa) = 73.21755 82.07702 77.64728
# Shear Modulus (GPa) = 35.15051 43.99698 39.57375
#
# Velocity S-wave (km/s) = 3.75158 4.19720 3.98063
# Velocity P-wave (km/s) = 6.93414 7.50683 7.22616
#
# Compressibility (1/GPa) = 0.01365793
#
# Stress axis : x y z
#
# Youngs Moduli (GPa) = 174.44783 53.82008 92.93691
#
# Poissons Ratio (x) = 0.15751 0.07333
# Poissons Ratio (y) = 0.51055 0.64979
# Poissons Ratio (z) = 0.13764 0.37629
#
# Static dielectric constant tensor:
#      x y z
#    x 2.009970 0.000000 -0.047710 
#    y 0.000000 2.041290 0.000000 
#    z -0.047710 0.000000 1.953140 
# 
# From -- ./inp_files/174302.got.cif
#   From: 2010.05.17/outbox.cif.g08.bks.cpg/sg15_88_cif.got.tgz:174302.got - 2010.06.03 18:47:42.
