data_PCOD9267970
_publ_section_title
;
Structure prediction by ZEFSAII (Michael W. Deem and Ramdas Pophale) SiO2 
 PCOD9267970
Probable space group: C 2/C
;
_chemical_formula_sum "Si O2"
_cell_formula_units_Z 60
_cell_length_a 12.331067
_cell_length_b 24.358037
_cell_length_c 18.431115
_cell_angle_alpha 90.000000
_cell_angle_beta 28.947511
_cell_angle_gamma 90.000000
_cell_volume 2679.459809
_symmetry_space_group_name_H-M "C 2/C"
_symmetry_group_IT_number 15
_symmetry_cell_setting 'monoclinic'
loop_
_space_group_symop_operation_xyz
x,y,z
-x,y,1/2-z
-x,-y,-z
x,-y,1/2+z
1/2+x,1/2+y,z
1/2-x,1/2+y,1/2-z
1/2-x,1/2-y,-z
1/2+x,1/2-y,1/2+z
loop_
_atom_site_type_symbol
_atom_site_label
_atom_site_fract_x
_atom_site_fract_y
_atom_site_fract_z
Si Si1 0.000000 0.677041 0.250000
Si Si2 0.419790 0.087440 0.033009
Si Si3 0.854280 0.055853 0.584869
Si Si4 0.608774 0.631748 0.803790
Si Si5 0.849640 0.531601 0.932872
Si Si6 0.192146 0.249435 0.338281
Si Si7 0.351167 0.089559 0.453619
Si Si8 0.282145 0.296156 0.834882
O O1 0.800912 0.716549 0.341020
O O2 0.952081 0.636566 0.344415
O O3 0.663798 0.104223 0.858636
O O4 0.321879 0.043418 0.034390
O O5 0.478352 0.074652 0.081623
O O6 0.261543 0.140048 0.124275
O O7 0.933379 0.105933 0.590390
O O8 0.606393 0.042067 0.760408
O O9 0.808300 0.068296 0.526642
O O10 0.000000 0.000000 0.500000
O O11 0.661150 0.696218 0.766748
O O12 0.391047 0.614458 0.885707
O O13 0.804034 0.468196 0.943077
O O14 0.190861 0.213987 0.266077
O O15 0.942619 0.266926 0.505538
O O16 0.500000 0.276078 0.750000
#
# Coordination Sequence:
#
# PCOD9267970 Si02
#       8
#     4   8   8   8   8   8   8   8
#     4  12  26  40  74 104 138 180 228 300 346 424
#     4  10  23  44  63  96 138 176 229 280 348 418
#     4  10  19  41  63  95 133 172 233 279 340 414
#     4  10  23  39  70  97 131 182 222 285 348 420
#     4  10  22  40  66  96 133 181 224 285 344 416
#     4  11  25  46  71 105 141 183 237 290 360 415
#     4  12  22  41  66 102 135 174 228 282 358 413
#     4  11  24  49  69 100 141 189 235 288 347 424
#
# _framework density 22.392574
#
# number of rings (size 3 to 8) (size 9 to 14) (size 15 to 20)
#    0.000    1.333    2.667    2.800    3.733    1.067 
#   14.400    1.333    0.000    0.000    0.000    0.000 
#    0.000    0.000    0.000    0.000    0.000    0.000 
#
# Total GULP energy -167601.581141 kJ/mol
# GULP energy per Si atom -5586.719371 kJ/mol
# Density = 2.234161 g / cm^3
# Si number density = 22.392574 Si / 1000 Ang^3
#
#
#
# Elastic Constant Matrix: (Units=GPa)
#
#
# Indices 1 2 3 4 5 6 
#
# 1 145.5619 42.4610 37.4585 0.0086 2.1243 -0.0019
# 2 42.4610 88.1300 5.7229 0.0259 2.4940 0.0061
# 3 37.4585 5.7229 30.4430 -0.1466 0.5632 -0.0577
# 4 0.0086 0.0259 -0.1466 88.8863 0.0376 28.1306
# 5 2.1243 2.4940 0.5632 0.0376 21.6021 0.0070
# 6 -0.0019 0.0061 -0.0577 28.1306 0.0070 38.8608
#
#
#
# Elastic Compliance Matrix: (Units=1/GPa)
#
#
# Indices 1 2 3 4 5 6 
#
# 1 0.011758 -0.004777 -0.013565 -0.000021 -0.000251 -0.000004
# 2 -0.004777 0.013463 0.003369 0.000002 -0.001172 0.000001
# 3 -0.013565 0.003369 0.048912 0.000076 -0.000330 0.000017
# 4 -0.000021 0.000002 0.000076 0.014594 -0.000022 -0.010564
# 5 -0.000251 -0.001172 -0.000330 -0.000022 0.046461 0.000007
# 6 -0.000004 0.000001 0.000017 -0.010564 0.000007 0.033380
#
#
# Mechanical properties :
#
#
# Convention : Reuss Voigt Hill
#
# Bulk Modulus (GPa) = 22.63128 48.37998 35.50563
# Shear Modulus (GPa) = 23.44754 41.76934 32.60844
#
# Velocity S-wave (km/s) = 3.23942 4.32362 3.82018
# Velocity P-wave (km/s) = 4.91125 6.82475 5.94548
#
# Compressibility (1/GPa) = 0.04418663
#
# Stress axis : x y z
#
# Youngs Moduli (GPa) = 85.05026 74.27862 20.44482
#
# Poissons Ratio (x) = 0.35482 0.27733
# Poissons Ratio (y) = 0.40628 -0.06887
# Poissons Ratio (z) = 1.15368 -0.25022
#
# Static dielectric constant tensor:
#      x y z
#    x 1.894780 -0.000010 0.018110 
#    y -0.000010 1.794980 -0.000020 
#    z 0.018110 -0.000020 1.813370 
# 
# From -- ./inp_files/201231.got.cif
#   From: 2010.05.17/outbox.cif.g08.bks.cpg/sg15_101_cif.got.tgz:201231.got - 2010.06.03 18:47:42.
