data_PCOD9267292
_publ_section_title
;
Structure prediction by ZEFSAII (Michael W. Deem and Ramdas Pophale) SiO2 
 PCOD9267292
Probable space group: C 2/C
;
_chemical_formula_sum "Si O2"
_cell_formula_units_Z 56
_cell_length_a 26.080938
_cell_length_b 8.837307
_cell_length_c 23.689484
_cell_angle_alpha 90.000000
_cell_angle_beta 154.049670
_cell_angle_gamma 90.000000
_cell_volume 2389.284899
_symmetry_space_group_name_H-M "C 2/C"
_symmetry_group_IT_number 15
_symmetry_cell_setting 'monoclinic'
loop_
_space_group_symop_operation_xyz
x,y,z
-x,y,1/2-z
-x,-y,-z
x,-y,1/2+z
1/2+x,1/2+y,z
1/2-x,1/2+y,1/2-z
1/2-x,1/2-y,-z
1/2+x,1/2-y,1/2+z
loop_
_atom_site_type_symbol
_atom_site_label
_atom_site_fract_x
_atom_site_fract_y
_atom_site_fract_z
Si Si1 0.084223 0.389629 0.285450
Si Si2 0.460434 0.554965 0.267500
Si Si3 0.579223 0.221579 0.102992
Si Si4 0.666175 0.626105 0.135398
Si Si5 0.534305 0.946303 0.449738
Si Si6 0.297201 0.397145 0.430002
Si Si7 0.786676 0.058914 0.189452
O O1 0.098810 0.211328 0.313832
O O2 0.209057 0.457191 0.391854
O O3 0.000000 0.456576 0.250000
O O4 0.015047 0.400328 0.158518
O O5 0.500000 0.468154 0.250000
O O6 0.575732 0.599894 0.416432
O O7 0.371427 0.490104 0.225976
O O8 0.719297 0.239124 0.250543
O O9 0.552875 0.060550 0.106387
O O10 0.466277 0.319354 0.009234
O O11 0.555679 0.192492 0.013340
O O12 0.696781 0.499289 0.119740
O O13 0.663442 0.568013 0.197772
O O14 0.660864 0.020339 0.566632
O O15 0.245608 0.231888 0.362086
#
# Coordination Sequence:
#
# PCOD9267292 Si02
#       7
#     8   8   8   8   8   8   8
#     4  10  20  34  60  85 115 156 197 240 295 353
#     4  10  22  36  56  89 125 158 194 248 298 352
#     4  10  22  39  62  84 122 157 198 243 292 364
#     4  11  24  38  61  89 122 157 197 245 306 355
#     4  10  19  39  58  86 116 158 194 233 293 360
#     4  11  22  39  58  88 127 150 197 249 296 362
#     4  10  23  35  59  90 122 156 192 244 300 360
#
# _framework density 23.437974000000001
#
# number of rings (size 3 to 8) (size 9 to 14) (size 15 to 20)
#    0.000    1.714    2.857    1.714    8.000    3.429 
#    0.000    0.000    0.000    1.714    0.000    0.000 
#    0.000    0.000    0.000    0.000    0.000    0.000 
#
# Total GULP energy -156258.020645 kJ/mol
# GULP energy per Si atom -5580.643594 kJ/mol
# Density = 2.338463 g / cm^3
# Si number density = 23.437974 Si / 1000 Ang^3
#
#
#
# Elastic Constant Matrix: (Units=GPa)
#
#
# Indices 1 2 3 4 5 6 
#
# 1 174.5489 12.1413 33.7417 0.0000 30.2972 0.0000
# 2 12.1413 22.1639 22.3583 0.0000 9.7810 0.0000
# 3 33.7417 22.3583 105.6311 0.0000 23.6587 0.0000
# 4 0.0000 0.0000 0.0000 28.4033 0.0000 5.9036
# 5 30.2972 9.7810 23.6587 0.0000 46.2727 0.0000
# 6 0.0000 0.0000 0.0000 5.9036 0.0000 20.2063
#
#
#
# Elastic Compliance Matrix: (Units=1/GPa)
#
#
# Indices 1 2 3 4 5 6 
#
# 1 0.006630 -0.000923 -0.001122 0.000000 -0.003572 0.000000
# 2 -0.000923 0.059386 -0.010840 0.000000 -0.006406 0.000000
# 3 -0.001122 -0.010840 0.012922 0.000000 -0.003581 0.000000
# 4 0.000000 0.000000 0.000000 0.037483 0.000000 -0.010951
# 5 -0.003572 -0.006406 -0.003581 0.000000 0.027135 0.000000
# 6 0.000000 0.000000 0.000000 -0.010951 0.000000 0.052689
#
#
# Mechanical properties :
#
#
# Convention : Reuss Voigt Hill
#
# Bulk Modulus (GPa) = 18.80884 48.75849 33.78367
# Shear Modulus (GPa) = 20.85590 34.58330 27.71960
#
# Velocity S-wave (km/s) = 2.98624 3.84542 3.44274
# Velocity P-wave (km/s) = 4.46459 6.36904 5.49988
#
# Compressibility (1/GPa) = 0.05316648
#
# Stress axis : x y z
#
# Youngs Moduli (GPa) = 150.82314 16.83885 77.38821
#
# Poissons Ratio (x) = 0.01555 0.08686
# Poissons Ratio (y) = 0.13927 0.83891
# Poissons Ratio (z) = 0.16928 0.18254
#
# Static dielectric constant tensor:
#      x y z
#    x 1.963200 0.000000 0.074570 
#    y 0.000000 1.965580 0.000000 
#    z 0.074570 0.000000 1.914300 
# 
# From -- ./inp_files/255470.got.cif
#   From: 2010.05.17/outbox.cif.g08.bks.cpg/sg15_128_cif.got.tgz:255470.got - 2010.06.03 18:47:42.
