data_PCOD9267356
_publ_section_title
;
Structure prediction by ZEFSAII (Michael W. Deem and Ramdas Pophale) SiO2 
 PCOD9267356
Probable space group: C 2/C
;
_chemical_formula_sum "Si O2"
_cell_formula_units_Z 56
_cell_length_a 8.805192
_cell_length_b 16.843861
_cell_length_c 23.019393
_cell_angle_alpha 90.000000
_cell_angle_beta 61.505958
_cell_angle_gamma 90.000000
_cell_volume 3000.525825
_symmetry_space_group_name_H-M "C 2/C"
_symmetry_group_IT_number 15
_symmetry_cell_setting 'monoclinic'
loop_
_space_group_symop_operation_xyz
x,y,z
-x,y,1/2-z
-x,-y,-z
x,-y,1/2+z
1/2+x,1/2+y,z
1/2-x,1/2+y,1/2-z
1/2-x,1/2-y,-z
1/2+x,1/2-y,1/2+z
loop_
_atom_site_type_symbol
_atom_site_label
_atom_site_fract_x
_atom_site_fract_y
_atom_site_fract_z
Si Si1 0.129651 0.357657 0.943264
Si Si2 0.528223 0.883572 0.088456
Si Si3 0.112834 0.051576 0.314921
Si Si4 0.769482 0.518173 0.166404
Si Si5 0.989499 0.196877 0.102904
Si Si6 0.604697 0.549185 0.932112
Si Si7 0.075414 0.796043 0.019336
O O1 0.124582 0.416257 0.889924
O O2 0.323974 0.344954 0.929826
O O3 0.025952 0.387353 0.018460
O O4 0.067917 0.269534 0.940195
O O5 0.370633 0.936221 0.140066
O O6 0.508099 0.790938 0.109266
O O7 0.713475 0.916902 0.076464
O O8 0.112734 0.144963 0.331537
O O9 0.244974 0.036164 0.238717
O O10 0.142648 0.003650 0.368780
O O11 0.923252 0.024232 0.326011
O O12 0.922804 0.186439 0.049769
O O13 0.500000 0.500000 0.000000
O O14 0.477895 0.622868 0.939986
O O15 0.250000 0.750000 0.000000
#
# Coordination Sequence:
#
# PCOD9267356 Si02
#       7
#     8   8   8   8   8   8   8
#     4  10  19  39  61  86 120 154 200 244 289 359
#     4  11  21  37  65  91 117 152 207 243 299 353
#     4  10  23  42  60  81 127 157 199 242 304 350
#     4  10  23  40  60  88 114 165 199 240 295 363
#     4  10  19  42  60  84 120 159 190 249 293 356
#     4  12  22  38  61  90 122 155 193 255 300 347
#     4  11  22  34  58  94 120 148 194 247 305 347
#
# _framework density 18.663395000000001
#
# number of rings (size 3 to 8) (size 9 to 14) (size 15 to 20)
#    0.000    1.429    4.286    2.143    6.000    0.571 
#    2.571    1.429    0.000    0.000    0.000    0.000 
#    0.000    0.000    0.000    0.000    0.000    0.000 
#
# Total GULP energy -156191.896769 kJ/mol
# GULP energy per Si atom -5578.282027 kJ/mol
# Density = 1.862092 g / cm^3
# Si number density = 18.663395 Si / 1000 Ang^3
#
#
#
# Elastic Constant Matrix: (Units=GPa)
#
#
# Indices 1 2 3 4 5 6 
#
# 1 36.2398 28.5545 16.8677 0.0000 5.7590 0.0000
# 2 28.5545 120.2771 86.2058 0.0000 6.4912 0.0000
# 3 16.8677 86.2058 139.0955 0.0000 8.0379 0.0000
# 4 0.0000 0.0000 0.0000 24.4446 0.0000 -6.7377
# 5 5.7590 6.4912 8.0379 0.0000 19.0997 0.0000
# 6 0.0000 0.0000 0.0000 -6.7377 0.0000 26.1231
#
#
#
# Elastic Compliance Matrix: (Units=1/GPa)
#
#
# Indices 1 2 3 4 5 6 
#
# 1 0.035381 -0.009392 0.002011 0.000000 -0.008323 0.000000
# 2 -0.009392 0.017479 -0.009752 0.000000 0.000995 0.000000
# 3 0.002011 -0.009752 0.013152 0.000000 -0.002827 0.000000
# 4 0.000000 0.000000 0.000000 0.044040 0.000000 0.011359
# 5 -0.008323 0.000995 -0.002827 0.000000 0.055718 0.000000
# 6 0.000000 0.000000 0.000000 0.011359 0.000000 0.041210
#
#
# Mechanical properties :
#
#
# Convention : Reuss Voigt Hill
#
# Bulk Modulus (GPa) = 31.49829 62.09648 46.79738
# Shear Modulus (GPa) = 19.85489 24.86577 22.36033
#
# Velocity S-wave (km/s) = 3.26520 3.65407 3.46509
# Velocity P-wave (km/s) = 5.57934 7.15171 6.41389
#
# Compressibility (1/GPa) = 0.03174776
#
# Stress axis : x y z
#
# Youngs Moduli (GPa) = 28.26412 57.21047 76.03155
#
# Poissons Ratio (x) = 0.53731 -0.15291
# Poissons Ratio (y) = 0.26545 0.74143
# Poissons Ratio (z) = -0.05684 0.55789
#
# Static dielectric constant tensor:
#      x y z
#    x 1.760010 0.000000 -0.037770 
#    y 0.000000 1.661490 0.000000 
#    z -0.037770 0.000000 1.644570 
# 
# From -- ./inp_files/232600.got.cif
#   From: 2010.05.17/outbox.cif.g08.bks.cpg/sg15_117_cif.got.tgz:232600.got - 2010.06.03 18:47:42.
