data_PCOD9267927
_publ_section_title
;
Structure prediction by ZEFSAII (Michael W. Deem and Ramdas Pophale) SiO2 
 PCOD9267927
Probable space group: C 2/C
;
_chemical_formula_sum "Si O2"
_cell_formula_units_Z 36
_cell_length_a 7.014648
_cell_length_b 17.776311
_cell_length_c 21.740025
_cell_angle_alpha 90.000000
_cell_angle_beta 138.660605
_cell_angle_gamma 90.000000
_cell_volume 1790.573936
_symmetry_space_group_name_H-M "C 2/C"
_symmetry_group_IT_number 15
_symmetry_cell_setting 'monoclinic'
loop_
_space_group_symop_operation_xyz
x,y,z
-x,y,1/2-z
-x,-y,-z
x,-y,1/2+z
1/2+x,1/2+y,z
1/2-x,1/2+y,1/2-z
1/2-x,1/2-y,-z
1/2+x,1/2-y,1/2+z
loop_
_atom_site_type_symbol
_atom_site_label
_atom_site_fract_x
_atom_site_fract_y
_atom_site_fract_z
Si Si1 0.991118 0.202449 0.593903
Si Si2 0.155093 0.919632 0.031280
Si Si3 0.380359 0.580125 0.111706
Si Si4 0.208386 0.419838 0.091687
Si Si5 0.500000 0.685811 0.250000
O O1 0.750000 0.250000 0.500000
O O2 0.872340 0.157840 0.624356
O O3 0.100523 0.137910 0.572881
O O4 0.233023 0.260241 0.672801
O O5 0.497597 0.928406 0.099176
O O6 0.034134 0.892260 0.935570
O O7 0.000000 0.000000 0.000000
O O8 0.415809 0.491218 0.132751
O O9 0.520461 0.630961 0.196643
O O10 0.027293 0.583497 0.021880
#
# Coordination Sequence:
#
# PCOD9267927 Si02
#       5
#     8   8   8   8   4
#     4  12  23  43  67  95 142 171 217 288 340 390
#     4  10  19  40  76  96 122 186 228 259 343 413
#     4   9  19  41  69  96 126 177 229 269 332 404
#     4   9  19  41  71  90 128 182 217 269 340 400
#     4  12  26  40  64 106 136 172 230 282 338 404
#
# _framework density 20.105284999999999
#
# number of rings (size 3 to 8) (size 9 to 14) (size 15 to 20)
#    1.333    0.444    4.444    0.000    0.000    3.556 
#    4.000    3.333    0.000    0.000    0.000    0.000 
#    0.000    0.000    0.000    0.000    0.000    0.000 
#
# Total GULP energy -100233.158331 kJ/mol
# GULP energy per Si atom -5568.508796 kJ/mol
# Density = 2.005952 g / cm^3
# Si number density = 20.105285 Si / 1000 Ang^3
#
#
#
# Elastic Constant Matrix: (Units=GPa)
#
#
# Indices 1 2 3 4 5 6 
#
# 1 82.8795 37.6287 19.7315 0.0002 -5.9466 0.0003
# 2 37.6287 128.8835 54.3944 0.0000 1.6770 0.0001
# 3 19.7315 54.3944 88.7458 0.0039 -3.1149 0.0012
# 4 0.0002 0.0000 0.0039 32.4207 0.0008 -11.7274
# 5 -5.9466 1.6770 -3.1149 0.0008 20.2086 0.0004
# 6 0.0003 0.0001 0.0012 -11.7274 0.0004 30.6145
#
#
#
# Elastic Compliance Matrix: (Units=1/GPa)
#
#
# Indices 1 2 3 4 5 6 
#
# 1 0.014340 -0.004000 -0.000580 0.000000 0.004462 0.000000
# 2 -0.004000 0.011653 -0.006363 0.000001 -0.003125 0.000001
# 3 -0.000580 -0.006363 0.015393 -0.000003 0.002730 -0.000002
# 4 0.000000 0.000001 -0.000003 0.035806 -0.000002 0.013716
# 5 0.004462 -0.003125 0.002730 -0.000002 0.051477 -0.000002
# 6 0.000000 0.000001 -0.000002 0.013716 -0.000002 0.037918
#
#
# Mechanical properties :
#
#
# Convention : Reuss Voigt Hill
#
# Bulk Modulus (GPa) = 51.28124 58.22424 54.75274
# Shear Modulus (GPa) = 25.64471 29.23238 27.43855
#
# Velocity S-wave (km/s) = 3.57532 3.81723 3.69825
# Velocity P-wave (km/s) = 6.52730 6.96066 6.74746
#
# Compressibility (1/GPa) = 0.01950031
#
# Stress axis : x y z
#
# Youngs Moduli (GPa) = 69.73494 85.81698 64.96593
#
# Poissons Ratio (x) = 0.34326 0.03768
# Poissons Ratio (y) = 0.27894 0.41335
# Poissons Ratio (z) = 0.04045 0.54602
#
# Static dielectric constant tensor:
#      x y z
#    x 1.750670 0.000000 0.016590 
#    y 0.000000 1.697350 0.000000 
#    z 0.016590 0.000000 1.703240 
# 
# From -- ./inp_files/289502.got.cif
#   From: 2010.05.17/outbox.cif.g08.bks.cpg/sg15_145_cif.got.tgz:289502.got - 2010.06.03 18:47:42.
