data_PCOD9267285
_publ_section_title
;
Structure prediction by ZEFSAII (Michael W. Deem and Ramdas Pophale) SiO2 
 PCOD9267285
Probable space group: C 2/C
;
_chemical_formula_sum "Si O2"
_cell_formula_units_Z 60
_cell_length_a 22.649025
_cell_length_b 9.727954
_cell_length_c 13.953426
_cell_angle_alpha 90.000000
_cell_angle_beta 97.593055
_cell_angle_gamma 90.000000
_cell_volume 3047.382688
_symmetry_space_group_name_H-M "C 2/C"
_symmetry_group_IT_number 15
_symmetry_cell_setting 'monoclinic'
loop_
_space_group_symop_operation_xyz
x,y,z
-x,y,1/2-z
-x,-y,-z
x,-y,1/2+z
1/2+x,1/2+y,z
1/2-x,1/2+y,1/2-z
1/2-x,1/2-y,-z
1/2+x,1/2-y,1/2+z
loop_
_atom_site_type_symbol
_atom_site_label
_atom_site_fract_x
_atom_site_fract_y
_atom_site_fract_z
Si Si1 0.320293 0.514107 0.394231
Si Si2 0.442577 0.037782 0.424004
Si Si3 0.301707 0.338748 0.565579
Si Si4 0.500000 0.996092 0.250000
Si Si5 0.893327 0.612429 0.608682
Si Si6 0.309198 0.859395 0.588722
Si Si7 0.722035 0.593580 0.805613
Si Si8 0.844560 0.688861 0.878910
O O1 0.335156 0.428547 0.491445
O O2 0.253491 0.570994 0.400126
O O3 0.313740 0.422049 0.299703
O O4 0.357832 0.649764 0.377632
O O5 0.404688 0.120957 0.495432
O O6 0.500000 0.000000 0.500000
O O7 0.467391 0.085311 0.326167
O O8 0.401750 0.907150 0.387591
O O9 0.250000 0.250000 0.500000
O O10 0.348824 0.235475 0.622576
O O11 0.276801 0.448855 0.636834
O O12 0.546560 0.899839 0.317571
O O13 0.860620 0.467636 0.622783
O O14 0.309465 0.713503 0.640688
O O15 0.315299 0.834030 0.477448
O O16 0.790107 0.640261 0.800514
#
# Coordination Sequence:
#
# PCOD9267285 Si02
#       8
#     8   8   8   4   8   8   8   8
#     4  11  22  33  55  90 124 160 192 233 298 361
#     4   9  20  38  58  87 106 150 207 249 289 337
#     4  12  22  37  55  93 128 156 192 243 292 360
#     4  10  22  38  62  86 110 152 204 256 290 340
#     4  10  22  37  64  87 119 152 198 250 290 350
#     4  10  19  40  55  79 124 163 189 234 294 352
#     4  11  23  34  56  89 127 159 191 227 299 373
#     4  10  19  39  58  78 123 163 193 238 300 354
#
# _framework density 19.689028
#
# number of rings (size 3 to 8) (size 9 to 14) (size 15 to 20)
#    0.000    1.600    4.000    1.600    7.467    1.067 
#    0.000    0.000    0.000    4.000    0.000    0.000 
#    0.000    0.000    0.000    0.000    0.000    0.000 
#
# Total GULP energy -167378.482509 kJ/mol
# GULP energy per Si atom -5579.282750 kJ/mol
# Density = 1.964421 g / cm^3
# Si number density = 19.689028 Si / 1000 Ang^3
#
#
#
# Elastic Constant Matrix: (Units=GPa)
#
#
# Indices 1 2 3 4 5 6 
#
# 1 61.2348 29.4306 17.4807 0.0000 0.5203 0.0000
# 2 29.4306 81.9704 18.6106 0.0000 3.3805 0.0000
# 3 17.4807 18.6106 83.4025 0.0000 -13.7587 0.0000
# 4 0.0000 0.0000 0.0000 22.7529 0.0000 2.3303
# 5 0.5203 3.3805 -13.7587 0.0000 38.4834 0.0000
# 6 0.0000 0.0000 0.0000 2.3303 0.0000 1.6196
#
#
#
# Elastic Compliance Matrix: (Units=1/GPa)
#
#
# Indices 1 2 3 4 5 6 
#
# 1 0.020346 -0.006614 -0.002910 0.000000 -0.000734 0.000000
# 2 -0.006614 0.015193 -0.002348 0.000000 -0.002085 0.000000
# 3 -0.002910 -0.002348 0.013989 0.000000 0.005247 0.000000
# 4 0.000000 0.000000 0.000000 0.051546 0.000000 -0.074165
# 5 -0.000734 -0.002085 0.005247 0.000000 0.028054 0.000000
# 6 0.000000 0.000000 0.000000 -0.074165 0.000000 0.724139
#
#
# Mechanical properties :
#
#
# Convention : Reuss Voigt Hill
#
# Bulk Modulus (GPa) = 38.78145 39.73903 39.26024
# Shear Modulus (GPa) = 5.64585 23.31023 14.47804
#
# Velocity S-wave (km/s) = 1.69521 3.44455 2.71465
# Velocity P-wave (km/s) = 4.85504 6.00392 5.45978
#
# Compressibility (1/GPa) = 0.02578552
#
# Stress axis : x y z
#
# Youngs Moduli (GPa) = 49.14878 65.81840 71.48257
#
# Poissons Ratio (x) = 0.43534 0.20799
# Poissons Ratio (y) = 0.32508 0.16783
# Poissons Ratio (z) = 0.14301 0.15453
#
# Static dielectric constant tensor:
#      x y z
#    x 1.723910 0.000000 -0.023730 
#    y 0.000000 1.699890 0.000000 
#    z -0.023730 0.000000 1.760700 
# 
# From -- ./inp_files/171924.got.cif
#   From: 2010.05.17/outbox.cif.g08.bks.cpg/sg15_86_cif.got.tgz:171924.got - 2010.06.03 18:47:42.
