data_PCOD9267886
_publ_section_title
;
Structure prediction by ZEFSAII (Michael W. Deem and Ramdas Pophale) SiO2 
 PCOD9267886
Probable space group: C 2/C
;
_chemical_formula_sum "Si O2"
_cell_formula_units_Z 52
_cell_length_a 21.603160
_cell_length_b 12.671308
_cell_length_c 13.780508
_cell_angle_alpha 90.000000
_cell_angle_beta 37.684735
_cell_angle_gamma 90.000000
_cell_volume 2306.056131
_symmetry_space_group_name_H-M "C 2/C"
_symmetry_group_IT_number 15
_symmetry_cell_setting 'monoclinic'
loop_
_space_group_symop_operation_xyz
x,y,z
-x,y,1/2-z
-x,-y,-z
x,-y,1/2+z
1/2+x,1/2+y,z
1/2-x,1/2+y,1/2-z
1/2-x,1/2-y,-z
1/2+x,1/2-y,1/2+z
loop_
_atom_site_type_symbol
_atom_site_label
_atom_site_fract_x
_atom_site_fract_y
_atom_site_fract_z
Si Si1 0.795329 0.760240 0.298547
Si Si2 0.110403 0.733663 0.526259
Si Si3 0.115512 0.358453 0.216052
Si Si4 0.596619 0.218573 0.942863
Si Si5 0.000000 0.930509 0.750000
Si Si6 0.452170 0.423348 0.137504
Si Si7 0.068791 0.401543 0.762624
O O1 0.676532 0.770170 0.430225
O O2 0.842831 0.875759 0.252034
O O3 0.843768 0.684495 0.320334
O O4 0.834371 0.722221 0.144191
O O5 0.161424 0.683257 0.558015
O O6 0.002362 0.676158 0.645080
O O7 0.077711 0.853156 0.596729
O O8 0.149860 0.302368 0.272988
O O9 0.117984 0.484202 0.212560
O O10 0.526121 0.321550 0.040532
O O11 0.519743 0.121183 0.049573
O O12 0.947579 0.008910 0.740192
O O13 0.500000 0.500000 0.000000
O O14 0.000000 0.392803 0.750000
#
# Coordination Sequence:
#
# PCOD9267886 Si02
#       7
#     8   8   8   8   4   8   8
#     4  11  25  41  63  96 131 162 211 267 316 378
#     4  10  19  41  68  93 118 162 211 265 315 368
#     4  10  19  40  69  92 119 165 210 258 319 373
#     4  11  25  40  63  97 130 161 210 264 319 378
#     4  10  20  38  68  84 120 166 212 252 306 376
#     4  11  21  43  64  88 123 173 207 253 319 376
#     4  11  23  42  66  90 129 173 211 255 318 380
#
# _framework density 22.549323000000001
#
# number of rings (size 3 to 8) (size 9 to 14) (size 15 to 20)
#    0.000    1.538    6.154    1.385    4.308    2.462 
#    0.000    0.000    0.000    0.000    0.000    0.000 
#    0.000    0.000    0.000    0.000    0.000    0.000 
#
# Total GULP energy -145140.832637 kJ/mol
# GULP energy per Si atom -5582.339717 kJ/mol
# Density = 2.249800 g / cm^3
# Si number density = 22.549323 Si / 1000 Ang^3
#
#
#
# Elastic Constant Matrix: (Units=GPa)
#
#
# Indices 1 2 3 4 5 6 
#
# 1 116.8713 35.6069 8.4670 0.0000 10.3170 0.0000
# 2 35.6069 108.6387 15.1121 0.0000 6.0023 0.0000
# 3 8.4670 15.1121 36.8374 0.0000 16.2568 0.0000
# 4 0.0000 0.0000 0.0000 12.6419 0.0000 17.2610
# 5 10.3170 6.0023 16.2568 0.0000 36.6447 0.0000
# 6 0.0000 0.0000 0.0000 17.2610 0.0000 28.1743
#
#
#
# Elastic Compliance Matrix: (Units=1/GPa)
#
#
# Indices 1 2 3 4 5 6 
#
# 1 0.009682 -0.003052 0.000011 0.000000 -0.002231 0.000000
# 2 -0.003052 0.010725 -0.004106 0.000000 0.000924 0.000000
# 3 0.000011 -0.004106 0.035479 0.000000 -0.015070 0.000000
# 4 0.000000 0.000000 0.000000 0.483831 0.000000 -0.296420
# 5 -0.002231 0.000924 -0.015070 0.000000 0.034451 0.000000
# 6 0.000000 0.000000 0.000000 -0.296420 0.000000 0.217095
#
#
# Mechanical properties :
#
#
# Convention : Reuss Voigt Hill
#
# Bulk Modulus (GPa) = 24.04275 42.30217 33.17246
# Shear Modulus (GPa) = 6.10186 29.03627 17.56906
#
# Velocity S-wave (km/s) = 1.64678 3.59232 2.79433
# Velocity P-wave (km/s) = 3.78170 6.00057 5.01538
#
# Compressibility (1/GPa) = 0.04159258
#
# Stress axis : x y z
#
# Youngs Moduli (GPa) = 103.28093 93.23852 28.18572
#
# Poissons Ratio (x) = 0.28454 -0.00031
# Poissons Ratio (y) = 0.31518 0.11574
# Poissons Ratio (z) = -0.00114 0.38286
#
# Static dielectric constant tensor:
#      x y z
#    x 1.952880 0.000000 0.057020 
#    y 0.000000 1.838810 0.000000 
#    z 0.057020 0.000000 1.885530 
# 
# From -- ./inp_files/172926.got.cif
#   From: 2010.05.17/outbox.cif.g08.bks.cpg/sg15_87_cif.got.tgz:172926.got - 2010.06.03 18:47:42.
