data_PCOD9267767
_publ_section_title
;
Structure prediction by ZEFSAII (Michael W. Deem and Ramdas Pophale) SiO2 
 PCOD9267767
Probable space group: C 2/C
;
_chemical_formula_sum "Si O2"
_cell_formula_units_Z 60
_cell_length_a 34.533134
_cell_length_b 10.582150
_cell_length_c 8.112128
_cell_angle_alpha 90.000000
_cell_angle_beta 87.545115
_cell_angle_gamma 90.000000
_cell_volume 2961.733302
_symmetry_space_group_name_H-M "C 2/C"
_symmetry_group_IT_number 15
_symmetry_cell_setting 'monoclinic'
loop_
_space_group_symop_operation_xyz
x,y,z
-x,y,1/2-z
-x,-y,-z
x,-y,1/2+z
1/2+x,1/2+y,z
1/2-x,1/2+y,1/2-z
1/2-x,1/2-y,-z
1/2+x,1/2-y,1/2+z
loop_
_atom_site_type_symbol
_atom_site_label
_atom_site_fract_x
_atom_site_fract_y
_atom_site_fract_z
Si Si1 0.323527 0.559203 0.645313
Si Si2 0.535537 0.089694 0.549788
Si Si3 0.127836 0.127296 0.162562
Si Si4 0.956472 0.855958 0.966635
Si Si5 0.593775 0.063421 0.258424
Si Si6 0.792090 0.809680 0.470592
Si Si7 0.500000 0.438200 0.250000
Si Si8 0.635053 0.156236 0.931117
O O1 0.338686 0.636457 0.483684
O O2 0.360029 0.498689 0.738848
O O3 0.300417 0.435273 0.581469
O O4 0.300611 0.642883 0.782375
O O5 0.523732 0.228684 0.602593
O O6 0.569196 0.122973 0.409671
O O7 0.500000 0.000000 0.500000
O O8 0.560273 0.023519 0.685963
O O9 0.124126 0.237161 0.299244
O O10 0.088102 0.128508 0.071155
O O11 0.975979 0.974185 0.875223
O O12 0.968827 0.860234 0.154117
O O13 0.627004 0.976130 0.337126
O O14 0.610127 0.146057 0.104807
O O15 0.750000 0.750000 0.500000
O O16 0.822682 0.701378 0.518653
#
# Coordination Sequence:
#
# PCOD9267767 Si02
#       8
#     8   8   8   8   8   8   4   8
#     4   9  21  39  66  96 126 158 223 253 311 392
#     4  11  24  39  63  89 122 165 212 273 334 390
#     4  10  19  40  64  89 116 165 205 270 305 370
#     4  11  23  42  60  84 123 157 216 254 329 371
#     4  10  23  41  58  92 120 165 215 260 330 378
#     4  10  22  41  65  98 133 172 204 263 329 380
#     4  10  26  40  54  88 116 164 200 264 310 388
#     4  10  22  39  62  90 124 160 214 257 312 391
#
# _framework density 20.258406999999998
#
# number of rings (size 3 to 8) (size 9 to 14) (size 15 to 20)
#    0.000    1.867    1.333    1.200    5.600    1.067 
#    4.800    6.000    0.000    0.000    0.000    0.000 
#    0.000    0.000    0.000    0.000    0.000    0.000 
#
# Total GULP energy -167167.795496 kJ/mol
# GULP energy per Si atom -5572.259850 kJ/mol
# Density = 2.021230 g / cm^3
# Si number density = 20.258407 Si / 1000 Ang^3
#
#
#
# Elastic Constant Matrix: (Units=GPa)
#
#
# Indices 1 2 3 4 5 6 
#
# 1 103.0323 48.6311 46.6077 0.0000 4.6492 0.0000
# 2 48.6311 63.3605 25.8106 0.0000 -14.8251 0.0000
# 3 46.6077 25.8106 125.6800 0.0000 -13.6066 0.0000
# 4 0.0000 0.0000 0.0000 32.9867 0.0000 -12.4971
# 5 4.6492 -14.8251 -13.6066 0.0000 21.4647 0.0000
# 6 0.0000 0.0000 0.0000 -12.4971 0.0000 41.0462
#
#
#
# Elastic Compliance Matrix: (Units=1/GPa)
#
#
# Indices 1 2 3 4 5 6 
#
# 1 0.024162 -0.021344 -0.007236 0.000000 -0.024562 0.000000
# 2 -0.021344 0.038533 0.003633 0.000000 0.033540 0.000000
# 3 -0.007236 0.003633 0.011097 0.000000 0.011111 0.000000
# 4 0.000000 0.000000 0.000000 0.034268 0.000000 0.010433
# 5 -0.024562 0.033540 0.011111 0.000000 0.082117 0.000000
# 6 0.000000 0.000000 0.000000 0.010433 0.000000 0.027539
#
#
# Mechanical properties :
#
#
# Convention : Reuss Voigt Hill
#
# Bulk Modulus (GPa) = 41.84606 59.35241 50.59923
# Shear Modulus (GPa) = 18.14384 30.50107 24.32246
#
# Velocity S-wave (km/s) = 2.99594 3.88442 3.46874
# Velocity P-wave (km/s) = 5.71564 7.03417 6.40890
#
# Compressibility (1/GPa) = 0.02389711
#
# Stress axis : x y z
#
# Youngs Moduli (GPa) = 41.38761 25.95197 90.11491
#
# Poissons Ratio (x) = 0.55393 0.65208
# Poissons Ratio (y) = 0.88339 -0.32740
# Poissons Ratio (z) = 0.29948 -0.09429
#
# Static dielectric constant tensor:
#      x y z
#    x 1.691440 0.000000 0.012370 
#    y 0.000000 1.752030 0.000000 
#    z 0.012370 0.000000 1.753360 
# 
# From -- ./inp_files/69083.got.cif
#   From: 2010.05.17/outbox.cif.g08.bks.cpg/sg15_35_cif.got.tgz:69083.got - 2010.06.03 18:47:42.
