data_PCOD9267484
_publ_section_title
;
Structure prediction by ZEFSAII (Michael W. Deem and Ramdas Pophale) SiO2 
 PCOD9267484
Probable space group: C 2/C
;
_chemical_formula_sum "Si O2"
_cell_formula_units_Z 48
_cell_length_a 11.415302
_cell_length_b 13.331868
_cell_length_c 15.988668
_cell_angle_alpha 90.000000
_cell_angle_beta 122.226488
_cell_angle_gamma 90.000000
_cell_volume 2058.418654
_symmetry_space_group_name_H-M "C 2/C"
_symmetry_group_IT_number 15
_symmetry_cell_setting 'monoclinic'
loop_
_space_group_symop_operation_xyz
x,y,z
-x,y,1/2-z
-x,-y,-z
x,-y,1/2+z
1/2+x,1/2+y,z
1/2-x,1/2+y,1/2-z
1/2-x,1/2-y,-z
1/2+x,1/2-y,1/2+z
loop_
_atom_site_type_symbol
_atom_site_label
_atom_site_fract_x
_atom_site_fract_y
_atom_site_fract_z
Si Si1 0.505190 0.217984 0.909086
Si Si2 0.947168 0.802523 0.057317
Si Si3 0.814476 0.647810 0.124406
Si Si4 0.724338 0.246157 0.218967
Si Si5 0.870359 0.897647 0.643574
Si Si6 0.883109 0.514290 0.526654
O O1 0.361336 0.201396 0.806466
O O2 0.565926 0.324950 0.903525
O O3 0.474253 0.219937 0.995576
O O4 0.604720 0.125833 0.930451
O O5 0.862996 0.752530 0.100842
O O6 0.101168 0.822271 0.148950
O O7 0.843940 0.872938 0.965969
O O8 0.177313 0.669299 0.274651
O O9 0.898028 0.562470 0.108571
O O10 0.775874 0.178052 0.162246
O O11 0.769227 0.984899 0.573738
O O12 0.000000 0.931565 0.750000
O O13 0.000000 0.500000 0.500000
#
# Coordination Sequence:
#
# PCOD9267484 Si02
#       6
#     8   8   8   8   8   8
#     4  10  21  39  69  89 121 170 210 251 311 375
#     4  10  19  39  64  88 121 171 206 249 311 376
#     4  10  22  37  62  94 127 162 205 259 316 369
#     4  10  20  39  64  92 122 172 213 250 305 383
#     4  10  22  42  66  91 126 170 210 256 312 377
#     4  12  22  41  64  95 129 163 204 267 320 360
#
# _framework density 23.318873
#
# number of rings (size 3 to 8) (size 9 to 14) (size 15 to 20)
#    0.000    1.667    3.333    1.000    0.000    0.000 
#    3.000   17.500    0.000    0.000    0.000    0.000 
#    0.000    0.000    0.000    0.000    0.000    0.000 
#
# Total GULP energy -133931.651781 kJ/mol
# GULP energy per Si atom -5580.485491 kJ/mol
# Density = 2.326580 g / cm^3
# Si number density = 23.318873 Si / 1000 Ang^3
#
#
#
# Elastic Constant Matrix: (Units=GPa)
#
#
# Indices 1 2 3 4 5 6 
#
# 1 90.6457 -1.6473 22.0745 0.0000 -5.2578 0.0000
# 2 -1.6473 24.4762 -0.9428 0.0000 -5.9396 0.0000
# 3 22.0745 -0.9428 104.4951 0.0000 37.3917 0.0000
# 4 0.0000 0.0000 0.0000 25.1061 0.0000 -0.8319
# 5 -5.2578 -5.9396 37.3917 0.0000 46.8404 0.0000
# 6 0.0000 0.0000 0.0000 -0.8319 0.0000 25.2924
#
#
#
# Elastic Compliance Matrix: (Units=1/GPa)
#
#
# Indices 1 2 3 4 5 6 
#
# 1 0.012462 0.001934 -0.004484 0.000000 0.005224 0.000000
# 2 0.001934 0.042799 -0.002859 0.000000 0.007926 0.000000
# 3 -0.004484 -0.002859 0.015120 0.000000 -0.012936 0.000000
# 4 0.000000 0.000000 0.000000 0.039874 0.000000 0.001312
# 5 0.005224 0.007926 -0.012936 0.000000 0.033267 0.000000
# 6 0.000000 0.000000 0.000000 0.001312 0.000000 0.039581
#
#
# Mechanical properties :
#
#
# Convention : Reuss Voigt Hill
#
# Bulk Modulus (GPa) = 16.78887 28.73175 22.76031
# Shear Modulus (GPa) = 23.38881 32.78995 28.08938
#
# Velocity S-wave (km/s) = 3.17045 3.75394 3.47447
# Velocity P-wave (km/s) = 4.54067 5.58009 5.08700
#
# Compressibility (1/GPa) = 0.05956326
#
# Stress axis : x y z
#
# Youngs Moduli (GPa) = 80.24265 23.36479 66.13607
#
# Poissons Ratio (x) = -0.04518 0.29659
# Poissons Ratio (y) = -0.15516 0.18905
# Poissons Ratio (z) = 0.35985 0.06679
#
# Static dielectric constant tensor:
#      x y z
#    x 1.895090 0.000000 0.074990 
#    y 0.000000 1.891950 0.000000 
#    z 0.074990 0.000000 1.975610 
# 
# From -- ./inp_files/238487.got.cif
#   From: 2010.05.17/outbox.cif.g08.bks.cpg/sg15_120_cif.got.tgz:238487.got - 2010.06.03 18:47:42.
