data_PCOD9267990
_publ_section_title
;
Structure prediction by ZEFSAII (Michael W. Deem and Ramdas Pophale) SiO2 
 PCOD9267990
Probable space group: C 2/C
;
_chemical_formula_sum "Si O2"
_cell_formula_units_Z 40
_cell_length_a 9.407948
_cell_length_b 19.542577
_cell_length_c 10.393586
_cell_angle_alpha 90.000000
_cell_angle_beta 117.296409
_cell_angle_gamma 90.000000
_cell_volume 1698.129994
_symmetry_space_group_name_H-M "C 2/C"
_symmetry_group_IT_number 15
_symmetry_cell_setting 'monoclinic'
loop_
_space_group_symop_operation_xyz
x,y,z
-x,y,1/2-z
-x,-y,-z
x,-y,1/2+z
1/2+x,1/2+y,z
1/2-x,1/2+y,1/2-z
1/2-x,1/2-y,-z
1/2+x,1/2-y,1/2+z
loop_
_atom_site_type_symbol
_atom_site_label
_atom_site_fract_x
_atom_site_fract_y
_atom_site_fract_z
Si Si1 0.903844 0.184223 0.056608
Si Si2 0.758797 0.634366 0.280618
Si Si3 0.605819 0.496394 0.675601
Si Si4 0.500000 0.761871 0.750000
Si Si5 0.207440 0.149321 0.767121
Si Si6 0.500000 0.809034 0.250000
O O1 0.778901 0.136637 0.082542
O O2 0.090260 0.164024 0.155388
O O3 0.894631 0.257529 0.120605
O O4 0.875912 0.177699 0.896185
O O5 0.753435 0.556787 0.225287
O O6 0.904492 0.683656 0.301597
O O7 0.500000 0.468535 0.750000
O O8 0.500000 0.500000 0.500000
O O9 0.658105 0.570646 0.749557
O O10 0.642376 0.705431 0.841696
O O11 0.392897 0.151994 0.808251
#
# Coordination Sequence:
#
# PCOD9267990 Si02
#       6
#     8   8   8   4   8   4
#     4  10  19  41  65  81 123 174 203 248 340 393
#     4  10  21  41  62  91 123 171 209 254 331 394
#     4  12  23  43  67  92 131 176 218 263 333 398
#     4  12  24  37  63 102 126 154 226 280 310 363
#     4  12  23  39  66  96 124 166 221 278 310 384
#     4  10  22  39  61  96 124 164 212 266 338 385
#
# _framework density 23.555320999999999
#
# number of rings (size 3 to 8) (size 9 to 14) (size 15 to 20)
#    0.000    1.200    9.000    0.600    0.000    1.600 
#    3.600    0.000    0.000    4.800    0.000    0.000 
#    0.000    0.000    0.000    0.000    0.000    0.000 
#
# Total GULP energy -111395.772229 kJ/mol
# GULP energy per Si atom -5569.788611 kJ/mol
# Density = 2.350171 g / cm^3
# Si number density = 23.555321 Si / 1000 Ang^3
#
#
#
# Elastic Constant Matrix: (Units=GPa)
#
#
# Indices 1 2 3 4 5 6 
#
# 1 141.1025 51.5995 4.0882 0.0000 -24.1659 0.0000
# 2 51.5995 180.3649 0.2300 0.0000 -5.6804 0.0000
# 3 4.0882 0.2300 71.4737 0.0000 -6.3154 0.0000
# 4 0.0000 0.0000 0.0000 25.4566 0.0000 3.9598
# 5 -24.1659 -5.6804 -6.3154 0.0000 25.0620 0.0000
# 6 0.0000 0.0000 0.0000 3.9598 0.0000 40.9285
#
#
#
# Elastic Compliance Matrix: (Units=1/GPa)
#
#
# Indices 1 2 3 4 5 6 
#
# 1 0.009445 -0.002431 0.000229 0.000000 0.008614 0.000000
# 2 -0.002431 0.006211 0.000037 0.000000 -0.000927 0.000000
# 3 0.000229 0.000037 0.014317 0.000000 0.003837 0.000000
# 4 0.000000 0.000000 0.000000 0.039883 0.000000 -0.003859
# 5 0.008614 -0.000927 0.003837 0.000000 0.048963 0.000000
# 6 0.000000 0.000000 0.000000 -0.003859 0.000000 0.024806
#
#
# Mechanical properties :
#
#
# Convention : Reuss Voigt Hill
#
# Bulk Modulus (GPa) = 38.99872 56.08629 47.54250
# Shear Modulus (GPa) = 31.94849 40.75764 36.35306
#
# Velocity S-wave (km/s) = 3.68682 4.16419 3.93275
# Velocity P-wave (km/s) = 5.89200 6.85440 6.39134
#
# Compressibility (1/GPa) = 0.02564187
#
# Stress axis : x y z
#
# Youngs Moduli (GPa) = 105.88069 161.01686 69.84715
#
# Poissons Ratio (x) = 0.39143 -0.01597
# Poissons Ratio (y) = 0.25739 -0.00259
# Poissons Ratio (z) = -0.02421 -0.00598
#
# Static dielectric constant tensor:
#      x y z
#    x 2.006150 0.000000 0.049580 
#    y 0.000000 2.014410 0.000000 
#    z 0.049580 0.000000 1.955990 
# 
# From -- ./inp_files/77903.got.cif
#   From: 2010.05.17/outbox.cif.g08.bks.cpg/sg15_39_cif.got.tgz:77903.got - 2010.06.03 18:47:42.
