data_PCOD9267634
_publ_section_title
;
Structure prediction by ZEFSAII (Michael W. Deem and Ramdas Pophale) SiO2 
 PCOD9267634
Probable space group: C 2/C
;
_chemical_formula_sum "Si O2"
_cell_formula_units_Z 56
_cell_length_a 28.992632
_cell_length_b 9.292290
_cell_length_c 17.666076
_cell_angle_alpha 90.000000
_cell_angle_beta 38.597626
_cell_angle_gamma 90.000000
_cell_volume 2969.126718
_symmetry_space_group_name_H-M "C 2/C"
_symmetry_group_IT_number 15
_symmetry_cell_setting 'monoclinic'
loop_
_space_group_symop_operation_xyz
x,y,z
-x,y,1/2-z
-x,-y,-z
x,-y,1/2+z
1/2+x,1/2+y,z
1/2-x,1/2+y,1/2-z
1/2-x,1/2-y,-z
1/2+x,1/2-y,1/2+z
loop_
_atom_site_type_symbol
_atom_site_label
_atom_site_fract_x
_atom_site_fract_y
_atom_site_fract_z
Si Si1 0.072424 0.440354 0.366246
Si Si2 0.698221 0.055014 0.831071
Si Si3 0.629254 0.695260 0.189701
Si Si4 0.417014 0.590472 0.830855
Si Si5 0.290031 0.366218 0.609842
Si Si6 0.791078 0.588310 0.026612
Si Si7 0.338966 0.852085 0.849305
O O1 0.132658 0.442175 0.355248
O O2 0.080521 0.287826 0.311553
O O3 0.097270 0.552761 0.270369
O O4 0.000000 0.500000 0.500000
O O5 0.767259 0.993250 0.695779
O O6 0.706165 0.215419 0.851900
O O7 0.686327 0.947229 0.916905
O O8 0.586891 0.561393 0.207402
O O9 0.659387 0.795871 0.082250
O O10 0.705701 0.639462 0.130700
O O11 0.500000 0.627349 0.750000
O O12 0.376949 0.707216 0.828575
O O13 0.364720 0.591409 0.971526
O O14 0.225683 0.344516 0.629765
O O15 0.803396 0.440924 0.964130
#
# Coordination Sequence:
#
# PCOD9267634 Si02
#       7
#     8   8   8   8   8   8   8
#     4  10  24  42  61  90 129 166 211 252 327 382
#     4  11  23  37  65  94 121 162 206 272 305 371
#     4  10  22  40  65  91 126 169 209 263 313 377
#     4  12  25  40  64  96 132 165 213 262 322 385
#     4  11  23  41  63  95 126 159 217 258 320 372
#     4  10  19  39  70  92 118 162 224 259 306 370
#     4  10  21  42  67  89 120 175 209 261 307 392
#
# _framework density 18.860765000000001
#
# number of rings (size 3 to 8) (size 9 to 14) (size 15 to 20)
#    0.000    1.429    2.857    2.143    6.000    1.143 
#    2.571    3.571    0.000    0.000    0.000    0.000 
#    0.000    0.000    0.000    0.000    0.000    0.000 
#
# Total GULP energy -156300.988315 kJ/mol
# GULP energy per Si atom -5582.178154 kJ/mol
# Density = 1.881784 g / cm^3
# Si number density = 18.860765 Si / 1000 Ang^3
#
#
#
# Elastic Constant Matrix: (Units=GPa)
#
#
# Indices 1 2 3 4 5 6 
#
# 1 56.5536 31.6780 36.4623 -0.0002 20.3185 -0.0001
# 2 31.6780 102.9153 58.2299 -0.0026 8.7693 0.0014
# 3 36.4623 58.2299 139.1026 -0.0001 8.1786 0.0003
# 4 -0.0002 -0.0026 -0.0001 32.2065 0.0006 16.0714
# 5 20.3185 8.7693 8.1786 0.0006 27.4708 -0.0002
# 6 -0.0001 0.0014 0.0003 16.0714 -0.0002 32.2810
#
#
#
# Elastic Compliance Matrix: (Units=1/GPa)
#
#
# Indices 1 2 3 4 5 6 
#
# 1 0.030639 -0.005068 -0.004756 0.000000 -0.019628 0.000000
# 2 -0.005068 0.013745 -0.004466 0.000002 0.000690 -0.000001
# 3 -0.004756 -0.004466 0.010193 -0.000001 0.001909 0.000000
# 4 0.000000 0.000002 -0.000001 0.041313 -0.000001 -0.020568
# 5 -0.019628 0.000690 0.001909 -0.000001 0.050132 0.000001
# 6 0.000000 -0.000001 0.000000 -0.020568 0.000001 0.041218
#
#
# Mechanical properties :
#
#
# Convention : Reuss Voigt Hill
#
# Bulk Modulus (GPa) = 38.46456 61.25688 49.86072
# Shear Modulus (GPa) = 22.27327 29.87177 26.07252
#
# Velocity S-wave (km/s) = 3.44020 3.98402 3.72205
# Velocity P-wave (km/s) = 6.01815 7.32886 6.70561
#
# Compressibility (1/GPa) = 0.02599796
#
# Stress axis : x y z
#
# Youngs Moduli (GPa) = 32.63786 72.75611 98.10820
#
# Poissons Ratio (x) = 0.36869 0.46660
# Poissons Ratio (y) = 0.16539 0.43814
# Poissons Ratio (z) = 0.15522 0.32492
#
# Static dielectric constant tensor:
#      x y z
#    x 1.660100 0.000000 0.026130 
#    y 0.000000 1.674010 0.000000 
#    z 0.026130 0.000000 1.664600 
# 
# From -- ./inp_files/213797.got.cif
#   From: 2010.05.17/outbox.cif.g08.bks.cpg/sg15_107_cif.got.tgz:213797.got - 2010.06.03 18:47:42.
