data_PCOD9267083
_publ_section_title
;
Structure prediction by ZEFSAII (Michael W. Deem and Ramdas Pophale) SiO2 
 PCOD9267083
Probable space group: C 2/C
;
_chemical_formula_sum "Si O2"
_cell_formula_units_Z 36
_cell_length_a 8.327589
_cell_length_b 16.027304
_cell_length_c 19.330983
_cell_angle_alpha 90.000000
_cell_angle_beta 41.850665
_cell_angle_gamma 90.000000
_cell_volume 1721.409297
_symmetry_space_group_name_H-M "C 2/C"
_symmetry_group_IT_number 15
_symmetry_cell_setting 'monoclinic'
loop_
_space_group_symop_operation_xyz
x,y,z
-x,y,1/2-z
-x,-y,-z
x,-y,1/2+z
1/2+x,1/2+y,z
1/2-x,1/2+y,1/2-z
1/2-x,1/2-y,-z
1/2+x,1/2-y,1/2+z
loop_
_atom_site_type_symbol
_atom_site_label
_atom_site_fract_x
_atom_site_fract_y
_atom_site_fract_z
Si Si1 0.232086 0.167746 0.050324
Si Si2 0.191484 0.100995 0.809594
Si Si3 0.500000 0.741956 0.250000
Si Si4 0.660183 0.033144 0.594232
Si Si5 0.354856 0.920044 0.015516
O O1 0.035746 0.183997 0.172020
O O2 0.250000 0.250000 0.000000
O O3 0.205770 0.092126 0.004679
O O4 0.478573 0.154604 0.013742
O O5 0.280425 0.193025 0.805500
O O6 0.389660 0.069583 0.691035
O O7 0.224207 0.044121 0.867861
O O8 0.918405 0.092963 0.873221
O O9 0.652080 0.941798 0.563728
O O10 0.500000 0.000000 0.000000
#
# Coordination Sequence:
#
# PCOD9267083 Si02
#       5
#     8   8   4   8   8
#     4  11  20  40  59  85 125 158 203 251 303 366
#     4  10  19  38  65  86 123 162 206 245 323 366
#     4  10  22  38  62  88 118 168 200 252 308 372
#     4   9  20  39  64  91 121 160 204 257 303 371
#     4  10  23  35  60  92 118 162 205 256 305 365
#
# _framework density 20.913097
#
# number of rings (size 3 to 8) (size 9 to 14) (size 15 to 20)
#    0.000    2.222    4.444    0.667    0.000    8.000 
#    0.000    0.000    0.000    0.000    0.000    0.000 
#    0.000    0.000    0.000    0.000    0.000    0.000 
#
# Total GULP energy -100354.925975 kJ/mol
# GULP energy per Si atom -5575.273665 kJ/mol
# Density = 2.086550 g / cm^3
# Si number density = 20.913097 Si / 1000 Ang^3
#
#
#
# Elastic Constant Matrix: (Units=GPa)
#
#
# Indices 1 2 3 4 5 6 
#
# 1 75.1713 37.3873 37.3118 -0.0042 -14.8021 -0.0061
# 2 37.3873 61.4711 37.0400 -0.0014 -1.9442 -0.0054
# 3 37.3118 37.0400 96.8157 -0.0297 12.8177 -0.0260
# 4 -0.0042 -0.0014 -0.0297 30.2545 0.0131 2.3654
# 5 -14.8021 -1.9442 12.8177 0.0131 50.8915 0.0044
# 6 -0.0061 -0.0054 -0.0260 2.3654 0.0044 33.4521
#
#
#
# Elastic Compliance Matrix: (Units=1/GPa)
#
#
# Indices 1 2 3 4 5 6 
#
# 1 0.022768 -0.010004 -0.005972 -0.000006 0.007744 -0.000003
# 2 -0.010004 0.025972 -0.006028 -0.000006 -0.000399 -0.000002
# 3 -0.005972 -0.006028 0.015722 0.000016 -0.005927 0.000010
# 4 -0.000006 -0.000006 0.000016 0.033237 -0.000014 -0.002350
# 5 0.007744 -0.000399 -0.005927 -0.000014 0.023380 -0.000005
# 6 -0.000003 -0.000002 0.000010 -0.002350 -0.000005 0.030060
#
#
# Mechanical properties :
#
#
# Convention : Reuss Voigt Hill
#
# Bulk Modulus (GPa) = 48.89408 50.77068 49.83238
# Shear Modulus (GPa) = 24.75684 31.03422 27.89553
#
# Velocity S-wave (km/s) = 3.44437 3.85640 3.65619
# Velocity P-wave (km/s) = 6.26487 6.64521 6.45784
#
# Compressibility (1/GPa) = 0.02045237
#
# Stress axis : x y z
#
# Youngs Moduli (GPa) = 43.92137 38.50293 63.60670
#
# Poissons Ratio (x) = 0.38518 0.37989
# Poissons Ratio (y) = 0.43939 0.38343
# Poissons Ratio (z) = 0.26232 0.23210
#
# Static dielectric constant tensor:
#      x y z
#    x 1.808550 0.000000 0.001600 
#    y 0.000000 1.788980 0.000010 
#    z 0.001600 0.000010 1.776600 
# 
# From -- ./inp_files/133725.got.cif
#   From: 2010.05.17/outbox.cif.g08.bks.cpg/sg15_67_cif.got.tgz:133725.got - 2010.06.03 18:47:42.
