data_PCOD9267908
_publ_section_title
;
Structure prediction by ZEFSAII (Michael W. Deem and Ramdas Pophale) SiO2 
 PCOD9267908
Probable space group: C 2/C
;
_chemical_formula_sum "Si O2"
_cell_formula_units_Z 48
_cell_length_a 16.209558
_cell_length_b 9.811161
_cell_length_c 28.206671
_cell_angle_alpha 90.000000
_cell_angle_beta 154.000545
_cell_angle_gamma 90.000000
_cell_volume 1966.422794
_symmetry_space_group_name_H-M "C 2/C"
_symmetry_group_IT_number 15
_symmetry_cell_setting 'monoclinic'
loop_
_space_group_symop_operation_xyz
x,y,z
-x,y,1/2-z
-x,-y,-z
x,-y,1/2+z
1/2+x,1/2+y,z
1/2-x,1/2+y,1/2-z
1/2-x,1/2-y,-z
1/2+x,1/2-y,1/2+z
loop_
_atom_site_type_symbol
_atom_site_label
_atom_site_fract_x
_atom_site_fract_y
_atom_site_fract_z
Si Si1 0.688666 0.004230 0.748762
Si Si2 0.318115 0.858494 0.958267
Si Si3 0.315988 0.233964 0.180135
Si Si4 0.724217 0.013756 0.160913
Si Si5 0.021737 0.887720 0.469518
Si Si6 0.749528 0.074876 0.975880
O O1 0.751362 0.952371 0.729591
O O2 0.476771 0.060894 0.642156
O O3 0.716935 0.870372 0.794901
O O4 0.824485 0.119774 0.841032
O O5 0.322478 0.702890 0.981189
O O6 0.248366 0.880136 0.868187
O O7 0.514905 0.942088 0.056754
O O8 0.202829 0.919439 0.943536
O O9 0.500000 0.177381 0.250000
O O10 0.354557 0.385038 0.216684
O O11 0.133190 0.234916 0.051514
O O12 0.162445 0.944538 0.502899
O O13 0.000000 0.000000 0.500000
#
# Coordination Sequence:
#
# PCOD9267908 Si02
#       6
#     8   8   8   8   8   8
#     4  10  22  42  66  98 131 177 224 274 331 403
#     4   9  20  40  71  94 138 169 217 283 331 395
#     4  11  22  43  66  93 133 174 220 277 331 401
#     4  10  22  43  65  99 138 174 217 276 347 392
#     4  10  21  38  67  94 128 166 223 269 330 386
#     4  10  19  40  71 100 127 174 227 270 328 405
#
# _framework density 24.409806
#
# number of rings (size 3 to 8) (size 9 to 14) (size 15 to 20)
#    0.000    2.000    1.667    2.000    0.000    1.333 
#   15.000    1.667   22.000    0.000    0.000    0.000 
#    0.000    0.000    0.000    0.000    0.000    0.000 
#
# Total GULP energy -133926.361787 kJ/mol
# GULP energy per Si atom -5580.265074 kJ/mol
# Density = 2.435425 g / cm^3
# Si number density = 24.409806 Si / 1000 Ang^3
#
#
#
# Elastic Constant Matrix: (Units=GPa)
#
#
# Indices 1 2 3 4 5 6 
#
# 1 206.6396 65.3128 58.1528 0.0000 -31.7685 0.0000
# 2 65.3128 67.7647 10.8409 -0.0001 -16.6685 0.0000
# 3 58.1528 10.8409 90.3011 0.0012 2.7577 0.0002
# 4 0.0000 -0.0001 0.0012 17.4728 -0.0001 1.4307
# 5 -31.7685 -16.6685 2.7577 -0.0001 39.5835 -0.0001
# 6 0.0000 0.0000 0.0002 1.4307 -0.0001 44.0112
#
#
#
# Elastic Compliance Matrix: (Units=1/GPa)
#
#
# Indices 1 2 3 4 5 6 
#
# 1 0.009248 -0.006863 -0.005282 0.000000 0.004900 0.000000
# 2 -0.006863 0.022001 0.001668 0.000000 0.003640 0.000000
# 3 -0.005282 0.001668 0.014414 -0.000001 -0.004541 0.000000
# 4 0.000000 0.000000 -0.000001 0.057385 0.000001 -0.001865
# 5 0.004900 0.003640 -0.004541 0.000001 0.031045 0.000000
# 6 0.000000 0.000000 0.000000 -0.001865 0.000000 0.022782
#
#
# Mechanical properties :
#
#
# Convention : Reuss Voigt Hill
#
# Bulk Modulus (GPa) = 40.47274 70.36871 55.42072
# Shear Modulus (GPa) = 26.87230 35.57342 31.22286
#
# Velocity S-wave (km/s) = 3.32155 3.82166 3.58035
# Velocity P-wave (km/s) = 5.59704 6.95443 6.31232
#
# Compressibility (1/GPa) = 0.02470799
#
# Stress axis : x y z
#
# Youngs Moduli (GPa) = 108.12710 45.45327 69.37815
#
# Poissons Ratio (x) = 0.31197 0.36642
# Poissons Ratio (y) = 0.74213 -0.11570
# Poissons Ratio (z) = 0.57107 -0.07580
#
# Static dielectric constant tensor:
#      x y z
#    x 1.944550 0.000000 -0.033370 
#    y 0.000000 1.961950 0.000000 
#    z -0.033370 0.000000 2.032190 
# 
# From -- ./inp_files/296199.got.cif
#   From: 2010.05.17/outbox.cif.g08.bks.cpg/sg15_149_cif.got.tgz:296199.got - 2010.06.03 18:47:42.
