data_PCOD9267553
_publ_section_title
;
Structure prediction by ZEFSAII (Michael W. Deem and Ramdas Pophale) SiO2 
 PCOD9267553
Probable space group: C 2/C
;
_chemical_formula_sum "Si O2"
_cell_formula_units_Z 48
_cell_length_a 26.681152
_cell_length_b 10.057509
_cell_length_c 14.572410
_cell_angle_alpha 90.000000
_cell_angle_beta 30.602934
_cell_angle_gamma 90.000000
_cell_volume 1990.751764
_symmetry_space_group_name_H-M "C 2/C"
_symmetry_group_IT_number 15
_symmetry_cell_setting 'monoclinic'
loop_
_space_group_symop_operation_xyz
x,y,z
-x,y,1/2-z
-x,-y,-z
x,-y,1/2+z
1/2+x,1/2+y,z
1/2-x,1/2+y,1/2-z
1/2-x,1/2-y,-z
1/2+x,1/2-y,1/2+z
loop_
_atom_site_type_symbol
_atom_site_label
_atom_site_fract_x
_atom_site_fract_y
_atom_site_fract_z
Si Si1 0.116686 0.437812 0.751418
Si Si2 0.387249 0.462180 0.688056
Si Si3 0.692710 0.929542 0.430418
Si Si4 0.795688 0.686526 0.775756
Si Si5 0.556658 0.873831 0.031960
Si Si6 0.582738 0.368037 0.676053
O O1 0.163250 0.394958 0.581090
O O2 0.171309 0.560019 0.716041
O O3 0.013775 0.501215 0.880703
O O4 0.103045 0.337962 0.858912
O O5 0.500000 0.500000 0.500000
O O6 0.308763 0.540287 0.752062
O O7 0.355692 0.310498 0.718754
O O8 0.373348 0.467947 0.818724
O O9 0.679099 0.824699 0.371085
O O10 0.632259 0.058328 0.485772
O O11 0.677911 0.689171 0.974903
O O12 0.485733 0.753894 0.176690
O O13 0.500000 0.445460 0.750000
#
# Coordination Sequence:
#
# PCOD9267553 Si02
#       6
#     8   8   8   8   8   8
#     4  10  19  39  66 102 137 180 234 297 344 413
#     4  12  25  42  69 101 143 183 232 299 360 413
#     4  11  23  42  69 102 140 184 233 296 352 421
#     4  11  23  42  72 102 142 183 243 290 352 422
#     4  10  21  34  68 103 128 177 246 288 338 410
#     4  12  22  40  71 102 132 187 243 291 342 421
#
# _framework density 24.111495999999999
#
# number of rings (size 3 to 8) (size 9 to 14) (size 15 to 20)
#    0.000    1.000    3.333    5.000    0.000    0.000 
#    0.000    0.000   11.000    4.000    0.000    0.000 
#    0.000    0.000    0.000    0.000    0.000    0.000 
#
# Total GULP energy -133953.452186 kJ/mol
# GULP energy per Si atom -5581.393841 kJ/mol
# Density = 2.405662 g / cm^3
# Si number density = 24.111496 Si / 1000 Ang^3
#
#
#
# Elastic Constant Matrix: (Units=GPa)
#
#
# Indices 1 2 3 4 5 6 
#
# 1 123.2093 45.2622 57.5011 0.0000 27.2073 0.0000
# 2 45.2622 -48.4310 -14.6118 0.0000 -54.4553 0.0000
# 3 57.5011 -14.6118 130.2652 0.0000 -17.5055 0.0000
# 4 0.0000 0.0000 0.0000 20.6081 0.0000 -11.9391
# 5 27.2073 -54.4553 -17.5055 0.0000 29.5717 0.0000
# 6 0.0000 0.0000 0.0000 -11.9391 0.0000 -1.4450
#
#
#
# Elastic Compliance Matrix: (Units=1/GPa)
#
#
# Indices 1 2 3 4 5 6 
#
# 1 0.006885 0.005117 -0.002227 0.000000 0.001770 0.000000
# 2 0.005117 -0.002185 -0.003995 0.000000 -0.011096 0.000000
# 3 -0.002227 -0.003995 0.008147 0.000000 -0.000484 0.000000
# 4 0.000000 0.000000 0.000000 0.008386 0.000000 -0.069284
# 5 0.001770 -0.011096 -0.000484 0.000000 0.011469 0.000000
# 6 0.000000 0.000000 0.000000 -0.069284 0.000000 -0.119592
#
#
# Mechanical properties :
#
#
# Convention : Reuss Voigt Hill
#
# Bulk Modulus (GPa) = 94.01328 42.37184 68.19256
# Shear Modulus (GPa) = -61.62661 17.53975 -22.04343
#
# Velocity S-wave (km/s) = -5.06108 2.70004 -3.02690
# Velocity P-wave (km/s) = 2.21879 5.22798 4.01589
#
# Compressibility (1/GPa) = 0.01063680
#
# Stress axis : x y z
#
# Youngs Moduli (GPa) = 145.23810 -457.75196 122.74939
#
# Poissons Ratio (x) = 2.34235 0.27342
# Poissons Ratio (y) = -0.74319 0.49037
# Poissons Ratio (z) = 0.32351 -1.82866
#
# Static dielectric constant tensor:
#      x y z
#    x 1.978310 0.000000 0.076790 
#    y 0.000000 1.948490 0.000000 
#    z 0.076790 0.000000 2.035670 
# 
# From -- ./inp_files/177764.got.cif
#   From: 2010.05.17/outbox.cif.g08.bks.cpg/sg15_89_cif.got.tgz:177764.got - 2010.06.03 18:47:42.
