data_PCOD9267072
_publ_section_title
;
Structure prediction by ZEFSAII (Michael W. Deem and Ramdas Pophale) SiO2 
 PCOD9267072
Probable space group: C 2/C
;
_chemical_formula_sum "Si O2"
_cell_formula_units_Z 48
_cell_length_a 11.130559
_cell_length_b 28.660663
_cell_length_c 14.355153
_cell_angle_alpha 90.000000
_cell_angle_beta 150.786459
_cell_angle_gamma 90.000000
_cell_volume 2235.061832
_symmetry_space_group_name_H-M "C 2/C"
_symmetry_group_IT_number 15
_symmetry_cell_setting 'monoclinic'
loop_
_space_group_symop_operation_xyz
x,y,z
-x,y,1/2-z
-x,-y,-z
x,-y,1/2+z
1/2+x,1/2+y,z
1/2-x,1/2+y,1/2-z
1/2-x,1/2-y,-z
1/2+x,1/2-y,1/2+z
loop_
_atom_site_type_symbol
_atom_site_label
_atom_site_fract_x
_atom_site_fract_y
_atom_site_fract_z
Si Si1 0.530563 0.641221 0.517515
Si Si2 0.701800 0.459769 0.140573
Si Si3 0.228444 0.446459 0.531406
Si Si4 0.749690 0.161831 0.032884
Si Si5 0.795762 0.292025 0.323921
Si Si6 0.571861 0.808581 0.690879
O O1 0.592019 0.590066 0.596526
O O2 0.699599 0.655494 0.543003
O O3 0.579661 0.677980 0.632188
O O4 0.250089 0.647379 0.295603
O O5 0.959889 0.469334 0.368978
O O6 0.500000 0.500000 0.000000
O O7 0.753132 0.450616 0.066803
O O8 0.500000 0.462481 0.750000
O O9 0.203453 0.391312 0.537430
O O10 0.000000 0.178733 0.250000
O O11 0.532926 0.194694 0.921876
O O12 0.728282 0.238008 0.274457
O O13 0.853370 0.306877 0.468604
O O14 0.500000 0.807039 0.750000
#
# Coordination Sequence:
#
# PCOD9267072 Si02
#       6
#     8   8   8   8   8   8
#     4  11  23  41  65  97 130 169 215 280 338 394
#     4  10  21  39  65  95 132 171 216 268 334 403
#     4   9  19  37  63  93 130 169 204 267 335 400
#     4  10  19  38  64  96 129 160 213 270 340 394
#     4  12  23  41  66  90 126 173 219 270 333 392
#     4  12  27  44  61  89 130 184 227 266 325 404
#
# _framework density 21.475916000000002
#
# number of rings (size 3 to 8) (size 9 to 14) (size 15 to 20)
#    0.000    1.333    5.000    1.000    0.000    1.333 
#    6.000    0.000    0.000    0.000    0.000    0.000 
#    0.000    0.000    0.000    0.000    0.000    0.000 
#
# Total GULP energy -133944.101374 kJ/mol
# GULP energy per Si atom -5581.004224 kJ/mol
# Density = 2.142704 g / cm^3
# Si number density = 21.475916 Si / 1000 Ang^3
#
#
#
# Elastic Constant Matrix: (Units=GPa)
#
#
# Indices 1 2 3 4 5 6 
#
# 1 68.5598 29.5742 13.6044 0.0000 -4.1691 0.0000
# 2 29.5742 60.6279 30.1848 0.0000 13.7594 0.0000
# 3 13.6044 30.1848 140.9531 0.0000 -3.2602 0.0000
# 4 0.0000 0.0000 0.0000 21.0964 0.0000 -13.6245
# 5 -4.1691 13.7594 -3.2602 0.0000 38.6087 0.0000
# 6 0.0000 0.0000 0.0000 -13.6245 0.0000 -10.9575
#
#
#
# Elastic Compliance Matrix: (Units=1/GPa)
#
#
# Indices 1 2 3 4 5 6 
#
# 1 0.019742 -0.011385 0.000677 0.000000 0.006246 0.000000
# 2 -0.011385 0.027083 -0.004962 0.000000 -0.011300 0.000000
# 3 0.000677 -0.004962 0.008150 0.000000 0.002530 0.000000
# 4 0.000000 0.000000 0.000000 0.026290 0.000000 -0.032689
# 5 0.006246 -0.011300 0.002530 0.000000 0.030816 0.000000
# 6 0.000000 0.000000 0.000000 -0.032689 0.000000 -0.050616
#
#
# Mechanical properties :
#
#
# Convention : Reuss Voigt Hill
#
# Bulk Modulus (GPa) = 42.30985 46.31862 44.31423
# Shear Modulus (GPa) = 49.66006 22.86801 36.26403
#
# Velocity S-wave (km/s) = 4.81392 3.26670 4.11370
# Velocity P-wave (km/s) = 7.11634 5.98690 6.57591
#
# Compressibility (1/GPa) = 0.02363516
#
# Stress axis : x y z
#
# Youngs Moduli (GPa) = 50.65244 36.92383 122.69376
#
# Poissons Ratio (x) = 0.42038 -0.08307
# Poissons Ratio (y) = 0.57668 0.60884
# Poissons Ratio (z) = -0.03430 0.18322
#
# Static dielectric constant tensor:
#      x y z
#    x 1.832300 0.000000 0.054180 
#    y 0.000000 1.774510 0.000000 
#    z 0.054180 0.000000 1.866050 
# 
# From -- ./inp_files/148669.got.cif
#   From: 2010.05.17/outbox.cif.g08.bks.cpg/sg15_75_cif.got.tgz:148669.got - 2010.06.03 18:47:42.
