data_PCOD9267710
_publ_section_title
;
Structure prediction by ZEFSAII (Michael W. Deem and Ramdas Pophale) SiO2 
 PCOD9267710
Probable space group: C 2/C
;
_chemical_formula_sum "Si O2"
_cell_formula_units_Z 64
_cell_length_a 20.804667
_cell_length_b 14.276098
_cell_length_c 11.203826
_cell_angle_alpha 90.000000
_cell_angle_beta 67.076987
_cell_angle_gamma 90.000000
_cell_volume 3064.855249
_symmetry_space_group_name_H-M "C 2/C"
_symmetry_group_IT_number 15
_symmetry_cell_setting 'monoclinic'
loop_
_space_group_symop_operation_xyz
x,y,z
-x,y,1/2-z
-x,-y,-z
x,-y,1/2+z
1/2+x,1/2+y,z
1/2-x,1/2+y,1/2-z
1/2-x,1/2-y,-z
1/2+x,1/2-y,1/2+z
loop_
_atom_site_type_symbol
_atom_site_label
_atom_site_fract_x
_atom_site_fract_y
_atom_site_fract_z
Si Si1 0.387902 0.716470 0.537345
Si Si2 0.479442 0.272819 0.403066
Si Si3 0.826531 0.834220 0.549309
Si Si4 0.227827 0.825520 0.180227
Si Si5 0.346591 0.923337 0.567352
Si Si6 0.733958 0.001733 0.705688
Si Si7 0.726031 0.643213 0.021947
Si Si8 0.965236 0.453040 0.905199
O O1 0.461019 0.696812 0.546527
O O2 0.330802 0.703684 0.683142
O O3 0.385947 0.827007 0.508917
O O4 0.355617 0.651789 0.454468
O O5 0.500000 0.293286 0.250000
O O6 0.408905 0.324821 0.490566
O O7 0.468299 0.159753 0.416862
O O8 0.803120 0.822976 0.429107
O O9 0.791239 0.747073 0.643029
O O10 0.793370 0.929937 0.621013
O O11 0.250568 0.929977 0.194172
O O12 0.264126 0.897510 0.609682
O O13 0.339698 0.951339 0.712147
O O14 0.386622 0.005299 0.469612
O O15 0.733432 0.080094 0.603329
O O16 0.750000 0.750000 0.000000
O O17 0.000000 0.475320 0.750000
O O18 0.000000 0.500000 0.000000
#
# Coordination Sequence:
#
# PCOD9267710 Si02
#       8
#     8   8   8   8   8   8   8   8
#     4  10  19  40  62  88 131 179 218 282 348 407
#     4  11  22  39  65  94 136 179 227 287 356 413
#     4  11  22  38  65  96 124 173 224 277 345 410
#     4  10  21  39  61  94 129 166 226 280 331 410
#     4  11  21  39  62  93 133 172 227 282 346 419
#     4  11  22  37  66  98 126 164 226 288 335 400
#     4   9  22  39  62  90 125 180 216 277 344 402
#     4  11  25  41  64 101 144 185 227 283 363 439
#
# _framework density 20.881899000000001
#
# number of rings (size 3 to 8) (size 9 to 14) (size 15 to 20)
#    0.000    1.500    3.750    1.500    1.750    1.000 
#    0.000    2.500    0.000    0.000    0.000    0.000 
#    0.000    0.000    0.000    0.000    0.000    0.000 
#
# Total GULP energy -178274.856616 kJ/mol
# GULP energy per Si atom -5571.089269 kJ/mol
# Density = 2.083437 g / cm^3
# Si number density = 20.881899 Si / 1000 Ang^3
#
#
#
# Elastic Constant Matrix: (Units=GPa)
#
#
# Indices 1 2 3 4 5 6 
#
# 1 116.8589 14.6356 28.8183 0.0000 -0.6650 0.0000
# 2 14.6356 78.4651 23.1917 0.0000 -8.9335 0.0000
# 3 28.8183 23.1917 71.0231 0.0000 -17.0598 0.0000
# 4 0.0000 0.0000 0.0000 25.8851 0.0000 -3.6613
# 5 -0.6650 -8.9335 -17.0598 0.0000 26.6146 0.0000
# 6 0.0000 0.0000 0.0000 -3.6613 0.0000 22.3276
#
#
#
# Elastic Compliance Matrix: (Units=1/GPa)
#
#
# Indices 1 2 3 4 5 6 
#
# 1 0.009719 -0.000851 -0.004345 0.000000 -0.002828 0.000000
# 2 -0.000851 0.014281 -0.003749 0.000000 0.002369 0.000000
# 3 -0.004345 -0.003749 0.019785 0.000000 0.011315 0.000000
# 4 0.000000 0.000000 0.000000 0.039550 0.000000 0.006485
# 5 -0.002828 0.002369 0.011315 0.000000 0.045551 0.000000
# 6 0.000000 0.000000 0.000000 0.006485 0.000000 0.045851
#
#
# Mechanical properties :
#
#
# Convention : Reuss Voigt Hill
#
# Bulk Modulus (GPa) = 38.61636 44.40425 41.51031
# Shear Modulus (GPa) = 24.84363 28.27888 26.56126
#
# Velocity S-wave (km/s) = 3.45297 3.68398 3.57035
# Velocity P-wave (km/s) = 5.86773 6.27744 6.07604
#
# Compressibility (1/GPa) = 0.02589576
#
# Stress axis : x y z
#
# Youngs Moduli (GPa) = 102.88767 70.02303 50.54284
#
# Poissons Ratio (x) = 0.05956 0.21962
# Poissons Ratio (y) = 0.08751 0.18949
# Poissons Ratio (z) = 0.44707 0.26252
#
# Static dielectric constant tensor:
#      x y z
#    x 1.896730 0.000000 0.094600 
#    y 0.000000 1.829650 0.000000 
#    z 0.094600 0.000000 1.801090 
# 
# From -- ./inp_files/112733.got.cif
#   From: 2010.05.17/outbox.cif.g08.bks.cpg/sg15_57_cif.got.tgz:112733.got - 2010.06.03 18:47:42.
