data_PCOD9267763
_publ_section_title
;
Structure prediction by ZEFSAII (Michael W. Deem and Ramdas Pophale) SiO2 
 PCOD9267763
Probable space group: C 2/C
;
_chemical_formula_sum "Si O2"
_cell_formula_units_Z 40
_cell_length_a 16.369298
_cell_length_b 7.595237
_cell_length_c 15.578682
_cell_angle_alpha 90.000000
_cell_angle_beta 98.513614
_cell_angle_gamma 90.000000
_cell_volume 1915.534244
_symmetry_space_group_name_H-M "C 2/C"
_symmetry_group_IT_number 15
_symmetry_cell_setting 'monoclinic'
loop_
_space_group_symop_operation_xyz
x,y,z
-x,y,1/2-z
-x,-y,-z
x,-y,1/2+z
1/2+x,1/2+y,z
1/2-x,1/2+y,1/2-z
1/2-x,1/2-y,-z
1/2+x,1/2-y,1/2+z
loop_
_atom_site_type_symbol
_atom_site_label
_atom_site_fract_x
_atom_site_fract_y
_atom_site_fract_z
Si Si1 0.271137 0.012742 0.591315
Si Si2 0.667788 0.141462 0.082153
Si Si3 0.154916 0.281610 0.140878
Si Si4 0.983141 0.192680 0.033565
Si Si5 0.586417 0.807776 0.303630
O O1 0.288453 0.051226 0.493968
O O2 0.214766 0.178820 0.611399
O O3 0.358220 0.034925 0.651859
O O4 0.224442 0.835029 0.607167
O O5 0.673043 0.988612 0.152679
O O6 0.575271 0.197057 0.039389
O O7 0.132731 0.212591 0.232381
O O8 0.072229 0.272888 0.069787
O O9 0.933581 0.188980 0.116446
O O10 0.000000 0.000000 0.000000
O O11 0.500000 0.868608 0.250000
#
# Coordination Sequence:
#
# PCOD9267763 Si02
#       5
#     8   8   8   8   8
#     4  10  21  38  59  88 122 155 204 254 297 365
#     4  10  21  37  61  90 119 156 206 249 302 365
#     4  11  21  37  64  88 121 162 202 251 311 359
#     4  10  19  40  64  86 124 165 200 249 308 367
#     4   9  22  39  60  85 128 162 197 259 310 359
#
# _framework density 20.881903999999999
#
# number of rings (size 3 to 8) (size 9 to 14) (size 15 to 20)
#    0.000    2.000    2.000    1.200    2.800    0.000 
#    0.000    0.000   13.200    0.000    0.000    0.000 
#    0.000    0.000    0.000    0.000    0.000    0.000 
#
# Total GULP energy -111628.348635 kJ/mol
# GULP energy per Si atom -5581.417432 kJ/mol
# Density = 2.083438 g / cm^3
# Si number density = 20.881904 Si / 1000 Ang^3
#
#
#
# Elastic Constant Matrix: (Units=GPa)
#
#
# Indices 1 2 3 4 5 6 
#
# 1 73.4316 27.3328 25.4370 0.0000 2.4365 0.0000
# 2 27.3328 106.7071 26.7286 0.0000 -9.6081 0.0000
# 3 25.4370 26.7286 56.5711 0.0000 2.3662 0.0000
# 4 0.0000 0.0000 0.0000 13.9936 0.0000 -5.3068
# 5 2.4365 -9.6081 2.3662 0.0000 22.7120 0.0000
# 6 0.0000 0.0000 0.0000 -5.3068 0.0000 30.6198
#
#
#
# Elastic Compliance Matrix: (Units=1/GPa)
#
#
# Indices 1 2 3 4 5 6 
#
# 1 0.016936 -0.003038 -0.006076 0.000000 -0.002469 0.000000
# 2 -0.003038 0.011782 -0.004442 0.000000 0.005773 0.000000
# 3 -0.006076 -0.004442 0.022658 0.000000 -0.003588 0.000000
# 4 0.000000 0.000000 0.000000 0.076488 0.000000 0.013256
# 5 -0.002469 0.005773 -0.003588 0.000000 0.047110 0.000000
# 6 0.000000 0.000000 0.000000 0.013256 0.000000 0.034956
#
#
# Mechanical properties :
#
#
# Convention : Reuss Voigt Hill
#
# Bulk Modulus (GPa) = 41.21602 43.96740 42.59171
# Shear Modulus (GPa) = 20.39718 23.94585 22.17151
#
# Velocity S-wave (km/s) = 3.12875 3.39001 3.26200
# Velocity P-wave (km/s) = 5.72998 6.03522 5.88458
#
# Compressibility (1/GPa) = 0.02426241
#
# Stress axis : x y z
#
# Youngs Moduli (GPa) = 59.04642 84.87361 44.13468
#
# Poissons Ratio (x) = 0.25788 0.26817
# Poissons Ratio (y) = 0.17941 0.19605
# Poissons Ratio (z) = 0.35878 0.37702
#
# Static dielectric constant tensor:
#      x y z
#    x 1.797840 0.000000 -0.015340 
#    y 0.000000 1.721350 0.000000 
#    z -0.015340 0.000000 1.789660 
# 
# From -- ./inp_files/207980.got.cif
#   From: 2010.05.17/outbox.cif.g08.bks.cpg/sg15_104_cif.got.tgz:207980.got - 2010.06.03 18:47:42.
