data_PCOD9267262
_publ_section_title
;
Structure prediction by ZEFSAII (Michael W. Deem and Ramdas Pophale) SiO2 
 PCOD9267262
Probable space group: C 2/C
;
_chemical_formula_sum "Si O2"
_cell_formula_units_Z 32
_cell_length_a 9.516321
_cell_length_b 12.689634
_cell_length_c 16.183807
_cell_angle_alpha 90.000000
_cell_angle_beta 47.947791
_cell_angle_gamma 90.000000
_cell_volume 1451.161266
_symmetry_space_group_name_H-M "C 2/C"
_symmetry_group_IT_number 15
_symmetry_cell_setting 'monoclinic'
loop_
_space_group_symop_operation_xyz
x,y,z
-x,y,1/2-z
-x,-y,-z
x,-y,1/2+z
1/2+x,1/2+y,z
1/2-x,1/2+y,1/2-z
1/2-x,1/2-y,-z
1/2+x,1/2-y,1/2+z
loop_
_atom_site_type_symbol
_atom_site_label
_atom_site_fract_x
_atom_site_fract_y
_atom_site_fract_z
Si Si1 0.000000 0.835718 0.750000
Si Si2 0.141437 0.860346 0.520273
Si Si3 0.659616 0.949026 0.493575
Si Si4 0.414183 0.744963 0.619114
Si Si5 0.500000 0.367087 0.250000
O O1 0.016104 0.883784 0.651020
O O2 0.200397 0.777924 0.681693
O O3 0.250000 0.750000 0.500000
O O4 0.037348 0.836682 0.474683
O O5 0.278581 0.962308 0.464162
O O6 0.565331 0.840111 0.560386
O O7 0.831776 0.925984 0.363490
O O8 0.500000 0.000000 0.500000
O O9 0.408986 0.698035 0.711773
#
# Coordination Sequence:
#
# PCOD9267262 Si02
#       5
#     4   8   8   8   4
#     4  10  19  38  73 100 138 194 235 290 373 430
#     4  10  21  41  69 104 142 188 240 299 360 440
#     4  12  24  45  72 109 144 192 251 303 369 455
#     4  11  25  46  72 104 152 193 249 304 370 442
#     4  12  29  48  69 104 150 192 243 318 373 434
#
# _framework density 22.051304999999999
#
# number of rings (size 3 to 8) (size 9 to 14) (size 15 to 20)
#    0.000    1.000    5.000    3.000    3.500    1.000 
#    4.500    0.000    0.000    0.000    0.000    0.000 
#    0.000    0.000    0.000    0.000    0.000    0.000 
#
# Total GULP energy -89123.398165 kJ/mol
# GULP energy per Si atom -5570.212385 kJ/mol
# Density = 2.200112 g / cm^3
# Si number density = 22.051305 Si / 1000 Ang^3
#
#
#
# Elastic Constant Matrix: (Units=GPa)
#
#
# Indices 1 2 3 4 5 6 
#
# 1 99.6289 59.4594 34.5991 0.0000 22.7499 0.0000
# 2 59.4594 129.2110 44.1014 0.0000 4.7397 0.0000
# 3 34.5991 44.1014 92.1414 -0.0001 -0.5630 0.0000
# 4 0.0000 0.0000 -0.0001 25.1987 0.0000 -0.8655
# 5 22.7499 4.7397 -0.5630 0.0000 56.4541 0.0000
# 6 0.0000 0.0000 0.0000 -0.8655 0.0000 137.2119
#
#
#
# Elastic Compliance Matrix: (Units=1/GPa)
#
#
# Indices 1 2 3 4 5 6 
#
# 1 0.016184 -0.006143 -0.003174 0.000000 -0.006038 0.000000
# 2 -0.006143 0.011620 -0.003246 0.000000 0.001467 0.000000
# 3 -0.003174 -0.003246 0.013609 0.000000 0.001687 0.000000
# 4 0.000000 0.000000 0.000000 0.039693 0.000000 0.000250
# 5 -0.006038 0.001467 0.001687 0.000000 0.020040 0.000000
# 6 0.000000 0.000000 0.000000 0.000250 0.000000 0.007290
#
#
# Mechanical properties :
#
#
# Convention : Reuss Voigt Hill
#
# Bulk Modulus (GPa) = 61.39737 66.36680 63.88209
# Shear Modulus (GPa) = 35.97351 55.96103 45.96727
#
# Velocity S-wave (km/s) = 4.04339 5.04309 4.57065
# Velocity P-wave (km/s) = 7.04997 8.00451 7.54235
#
# Compressibility (1/GPa) = 0.01628734
#
# Stress axis : x y z
#
# Youngs Moduli (GPa) = 61.78830 86.05754 73.48221
#
# Poissons Ratio (x) = 0.52863 0.23323
# Poissons Ratio (y) = 0.37955 0.23853
# Poissons Ratio (z) = 0.19612 0.27936
#
# Static dielectric constant tensor:
#      x y z
#    x 1.568930 0.000000 0.000230 
#    y 0.000000 1.940850 0.000000 
#    z 0.000230 0.000000 1.808010 
# 
# From -- ./inp_files/188304.got.cif
#   From: 2010.05.17/outbox.cif.g08.bks.cpg/sg15_95_cif.got.tgz:188304.got - 2010.06.03 18:47:42.
