data_PCOD9267736
_publ_section_title
;
Structure prediction by ZEFSAII (Michael W. Deem and Ramdas Pophale) SiO2 
 PCOD9267736
Probable space group: C 2/C
;
_chemical_formula_sum "Si O2"
_cell_formula_units_Z 60
_cell_length_a 24.977516
_cell_length_b 11.003090
_cell_length_c 20.727932
_cell_angle_alpha 90.000000
_cell_angle_beta 148.310190
_cell_angle_gamma 90.000000
_cell_volume 2992.568444
_symmetry_space_group_name_H-M "C 2/C"
_symmetry_group_IT_number 15
_symmetry_cell_setting 'monoclinic'
loop_
_space_group_symop_operation_xyz
x,y,z
-x,y,1/2-z
-x,-y,-z
x,-y,1/2+z
1/2+x,1/2+y,z
1/2-x,1/2+y,1/2-z
1/2-x,1/2-y,-z
1/2+x,1/2-y,1/2+z
loop_
_atom_site_type_symbol
_atom_site_label
_atom_site_fract_x
_atom_site_fract_y
_atom_site_fract_z
Si Si1 0.412104 0.450465 0.475462
Si Si2 0.804593 0.451073 0.212074
Si Si3 0.447912 0.348144 0.375189
Si Si4 0.083990 0.604163 0.083919
Si Si5 0.983511 0.727371 0.870849
Si Si6 0.672789 0.072467 0.401417
Si Si7 0.500000 0.113036 0.750000
Si Si8 0.390827 0.648739 0.669766
O O1 0.311699 0.413681 0.410273
O O2 0.400446 0.419491 0.387875
O O3 0.440892 0.590273 0.515563
O O4 0.503771 0.367414 0.597266
O O5 0.817112 0.537049 0.287637
O O6 0.880787 0.336890 0.291570
O O7 0.832797 0.532001 0.179071
O O8 0.446857 0.210195 0.398037
O O9 0.397423 0.360731 0.254008
O O10 0.000000 0.500000 0.000000
O O11 0.075720 0.662367 0.005014
O O12 0.988561 0.695669 0.801309
O O13 0.630395 0.208731 0.367835
O O14 0.791500 0.075398 0.543709
O O15 0.598159 0.975349 0.358805
O O16 0.500000 0.614061 0.750000
#
# Coordination Sequence:
#
# PCOD9267736 Si02
#       8
#     8   8   8   8   8   8   4   8
#     4  10  22  42  61  88 123 163 207 260 314 361
#     4  10  19  40  63  85 122 160 207 262 309 369
#     4  10  21  41  58  88 128 154 204 262 309 372
#     4   9  18  36  61  86 116 155 199 248 305 363
#     4   9  21  40  60  88 120 160 210 255 306 369
#     4  10  21  36  59  91 119 161 205 250 319 375
#     4  10  20  42  62  84 126 162 210 264 302 376
#     4  11  21  36  59  92 128 158 199 255 318 383
#
# _framework density 20.049665999999998
#
# number of rings (size 3 to 8) (size 9 to 14) (size 15 to 20)
#    0.000    2.133    2.000    0.800    0.000    1.067 
#   25.200    1.333    0.000    0.000    0.000    0.000 
#    0.000    0.000    0.000    0.000    0.000    0.000 
#
# Total GULP energy -167192.603918 kJ/mol
# GULP energy per Si atom -5573.086797 kJ/mol
# Density = 2.000403 g / cm^3
# Si number density = 20.049666 Si / 1000 Ang^3
#
#
#
# Elastic Constant Matrix: (Units=GPa)
#
#
# Indices 1 2 3 4 5 6 
#
# 1 53.3323 13.6085 22.5409 0.0000 0.6270 0.0000
# 2 13.6085 71.2654 30.3126 0.0000 2.5595 0.0000
# 3 22.5409 30.3126 82.2789 0.0000 5.8694 0.0000
# 4 0.0000 0.0000 0.0000 25.3057 0.0000 -0.3020
# 5 0.6270 2.5595 5.8694 0.0000 37.5750 0.0000
# 6 0.0000 0.0000 0.0000 -0.3020 0.0000 9.3792
#
#
#
# Elastic Compliance Matrix: (Units=1/GPa)
#
#
# Indices 1 2 3 4 5 6 
#
# 1 0.021431 -0.001895 -0.005215 0.000000 0.000586 0.000000
# 2 -0.001895 0.016808 -0.005657 0.000000 -0.000230 0.000000
# 3 -0.005215 -0.005657 0.015809 0.000000 -0.001997 0.000000
# 4 0.000000 0.000000 0.000000 0.039532 0.000000 0.001273
# 5 0.000586 -0.000230 -0.001997 0.000000 0.026931 0.000000
# 6 0.000000 0.000000 0.000000 0.001273 0.000000 0.106659
#
#
# Mechanical properties :
#
#
# Convention : Reuss Voigt Hill
#
# Bulk Modulus (GPa) = 35.06976 37.75562 36.41269
# Shear Modulus (GPa) = 19.06872 23.81297 21.44084
#
# Velocity S-wave (km/s) = 3.08729 3.45004 3.27370
# Velocity P-wave (km/s) = 5.49890 5.89426 5.70001
#
# Compressibility (1/GPa) = 0.02851459
#
# Stress axis : x y z
#
# Youngs Moduli (GPa) = 46.66114 59.49432 63.25560
#
# Poissons Ratio (x) = 0.11276 0.32986
# Poissons Ratio (y) = 0.08844 0.35782
# Poissons Ratio (z) = 0.24333 0.33655
#
# Static dielectric constant tensor:
#      x y z
#    x 1.702930 0.000000 0.003540 
#    y 0.000000 1.752990 0.000000 
#    z 0.003540 0.000000 1.738310 
# 
# From -- ./inp_files/255583.got.cif
#   From: 2010.05.17/outbox.cif.g08.bks.cpg/sg15_128_cif.got.tgz:255583.got - 2010.06.03 18:47:42.
