data_PCOD9267306
_publ_section_title
;
Structure prediction by ZEFSAII (Michael W. Deem and Ramdas Pophale) SiO2 
 PCOD9267306
Probable space group: C 2/C
;
_chemical_formula_sum "Si O2"
_cell_formula_units_Z 56
_cell_length_a 9.686004
_cell_length_b 20.607748
_cell_length_c 14.849930
_cell_angle_alpha 90.000000
_cell_angle_beta 92.412350
_cell_angle_gamma 90.000000
_cell_volume 2961.519078
_symmetry_space_group_name_H-M "C 2/C"
_symmetry_group_IT_number 15
_symmetry_cell_setting 'monoclinic'
loop_
_space_group_symop_operation_xyz
x,y,z
-x,y,1/2-z
-x,-y,-z
x,-y,1/2+z
1/2+x,1/2+y,z
1/2-x,1/2+y,1/2-z
1/2-x,1/2-y,-z
1/2+x,1/2-y,1/2+z
loop_
_atom_site_type_symbol
_atom_site_label
_atom_site_fract_x
_atom_site_fract_y
_atom_site_fract_z
Si Si1 0.346342 0.342683 0.434314
Si Si2 0.063833 0.311689 0.345602
Si Si3 0.317776 0.667684 0.143575
Si Si4 0.036532 0.033295 0.348638
Si Si5 0.112011 0.928507 0.477911
Si Si6 0.837398 0.683360 0.999093
Si Si7 0.535348 0.216152 0.154866
O O1 0.205733 0.349381 0.373740
O O2 0.300637 0.335134 0.535714
O O3 0.467857 0.395866 0.438736
O O4 0.414535 0.275119 0.406019
O O5 0.106440 0.235678 0.334820
O O6 0.000000 0.334517 0.250000
O O7 0.951743 0.315522 0.422793
O O8 0.398123 0.603260 0.171087
O O9 0.165002 0.670302 0.178623
O O10 0.000000 0.004203 0.250000
O O11 0.917516 0.047101 0.420679
O O12 0.137765 0.987148 0.409480
O O13 0.230720 0.875048 0.481967
O O14 0.750000 0.750000 0.000000
O O15 0.916548 0.680325 0.096620
O O16 0.500000 0.245897 0.250000
#
# Coordination Sequence:
#
# PCOD9267306 Si02
#       7
#     8   8   8   8   8   8   8
#     4  10  19  41  56  80 124 156 186 236 299 355
#     4  11  22  34  59  89 119 156 191 234 304 357
#     4  10  19  39  59  79 119 159 193 238 290 349
#     4  10  22  40  61  85 112 158 205 239 279 352
#     4  10  23  39  65  86 115 157 198 242 293 338
#     4  12  22  38  57  93 125 148 191 248 292 355
#     4  11  22  33  58  92 121 152 190 244 301 344
#
# _framework density 18.909215
#
# number of rings (size 3 to 8) (size 9 to 14) (size 15 to 20)
#    0.000    1.429    4.286    2.143    6.000    1.714 
#    0.000    0.714    0.000    0.857    0.000    0.000 
#    0.000    0.000    0.000    0.000    0.000    0.000 
#
# Total GULP energy -156157.738971 kJ/mol
# GULP energy per Si atom -5577.062106 kJ/mol
# Density = 1.886618 g / cm^3
# Si number density = 18.909215 Si / 1000 Ang^3
#
#
#
# Elastic Constant Matrix: (Units=GPa)
#
#
# Indices 1 2 3 4 5 6 
#
# 1 99.6577 29.9448 36.3752 0.0000 14.3846 0.0000
# 2 29.9448 57.7964 14.5502 0.0000 -0.1469 0.0000
# 3 36.3752 14.5502 86.6658 0.0000 27.2934 0.0000
# 4 0.0000 0.0000 0.0000 15.7444 0.0000 5.0302
# 5 14.3846 -0.1469 27.2934 0.0000 18.6776 0.0000
# 6 0.0000 0.0000 0.0000 5.0302 0.0000 25.5954
#
#
#
# Elastic Compliance Matrix: (Units=1/GPa)
#
#
# Indices 1 2 3 4 5 6 
#
# 1 0.013971 -0.006629 -0.002493 0.000000 -0.007168 0.000000
# 2 -0.006629 0.021965 -0.004757 0.000000 0.012229 0.000000
# 3 -0.002493 -0.004757 0.023695 0.000000 -0.032743 0.000000
# 4 0.000000 0.000000 0.000000 0.067770 0.000000 -0.013318
# 5 -0.007168 0.012229 -0.032743 0.000000 0.107003 0.000000
# 6 0.000000 0.000000 0.000000 -0.013318 0.000000 0.041687
#
#
# Mechanical properties :
#
#
# Convention : Reuss Voigt Hill
#
# Bulk Modulus (GPa) = 31.37422 45.09560 38.23491
# Shear Modulus (GPa) = 15.89959 22.88680 19.39320
#
# Velocity S-wave (km/s) = 2.90287 3.48279 3.20597
# Velocity P-wave (km/s) = 5.27859 6.33035 5.82824
#
# Compressibility (1/GPa) = 0.03187331
#
# Stress axis : x y z
#
# Youngs Moduli (GPa) = 71.57686 45.52658 42.20265
#
# Poissons Ratio (x) = 0.30179 0.10523
# Poissons Ratio (y) = 0.47448 0.20074
# Poissons Ratio (z) = 0.17848 0.21655
#
# Static dielectric constant tensor:
#      x y z
#    x 1.317690 0.000000 0.027310 
#    y 0.000000 1.703260 0.000000 
#    z 0.027310 0.000000 1.652620 
# 
# From -- ./inp_files/136427.got.cif
#   From: 2010.05.17/outbox.cif.g08.bks.cpg/sg15_69_cif.got.tgz:136427.got - 2010.06.03 18:47:42.
