data_PCOD9267058
_publ_section_title
;
Structure prediction by ZEFSAII (Michael W. Deem and Ramdas Pophale) SiO2 
 PCOD9267058
Probable space group: C 2/C
;
_chemical_formula_sum "Si O2"
_cell_formula_units_Z 56
_cell_length_a 5.297302
_cell_length_b 17.346690
_cell_length_c 28.042749
_cell_angle_alpha 90.000000
_cell_angle_beta 110.189665
_cell_angle_gamma 90.000000
_cell_volume 2418.531777
_symmetry_space_group_name_H-M "C 2/C"
_symmetry_group_IT_number 15
_symmetry_cell_setting 'monoclinic'
loop_
_space_group_symop_operation_xyz
x,y,z
-x,y,1/2-z
-x,-y,-z
x,-y,1/2+z
1/2+x,1/2+y,z
1/2-x,1/2+y,1/2-z
1/2-x,1/2-y,-z
1/2+x,1/2-y,1/2+z
loop_
_atom_site_type_symbol
_atom_site_label
_atom_site_fract_x
_atom_site_fract_y
_atom_site_fract_z
Si Si1 0.490708 0.559181 0.874962
Si Si2 0.840919 0.423597 0.885529
Si Si3 0.061651 0.351480 0.305004
Si Si4 0.383281 0.171137 0.943692
Si Si5 0.693751 0.746312 0.591521
Si Si6 0.761648 0.537684 0.540172
Si Si7 0.806784 0.508732 0.281866
O O1 0.564395 0.470331 0.876150
O O2 0.315515 0.590292 0.820685
O O3 0.751142 0.613402 0.895836
O O4 0.336530 0.571226 0.915149
O O5 0.836977 0.334810 0.896933
O O6 0.901680 0.443852 0.834542
O O7 0.043732 0.468404 0.933257
O O8 0.160581 0.294179 0.352910
O O9 0.000000 0.313604 0.250000
O O10 0.835225 0.417351 0.297036
O O11 0.591798 0.232434 0.936459
O O12 0.583072 0.105215 0.979145
O O13 0.106999 0.213879 0.942148
O O14 0.500000 0.500000 0.500000
O O15 0.500000 0.528283 0.250000
O O16 0.000000 0.525839 0.250000
#
# Coordination Sequence:
#
# PCOD9267058 Si02
#       7
#     8   8   8   8   8   8   8
#     4  10  20  43  69  94 134 171 229 281 325 394
#     4  11  24  40  67 102 140 176 216 280 342 390
#     4  10  19  38  64  93 124 175 222 261 317 392
#     4  10  21  43  66  91 130 175 214 268 326 395
#     4  11  24  40  65  95 141 175 209 269 340 401
#     4  11  23  44  75 100 126 175 235 285 332 399
#     4  11  23  39  68  98 130 176 231 274 319 390
#
# _framework density 23.154546
#
# number of rings (size 3 to 8) (size 9 to 14) (size 15 to 20)
#    0.000    1.429    4.286    2.571    2.000    5.143 
#    0.000    1.429    0.000    0.857    0.000    0.000 
#    0.000    0.000    0.000    0.000    0.000    0.000 
#
# Total GULP energy -156124.076945 kJ/mol
# GULP energy per Si atom -5575.859891 kJ/mol
# Density = 2.310185 g / cm^3
# Si number density = 23.154546 Si / 1000 Ang^3
#
#
#
# Elastic Constant Matrix: (Units=GPa)
#
#
# Indices 1 2 3 4 5 6 
#
# 1 130.5614 23.2667 13.7949 0.0000 2.2563 0.0000
# 2 23.2667 134.7708 14.7664 0.0000 7.7198 0.0000
# 3 13.7949 14.7664 72.6412 0.0000 9.7734 0.0000
# 4 0.0000 0.0000 0.0000 19.5639 0.0000 1.4735
# 5 2.2563 7.7198 9.7734 0.0000 40.5836 0.0000
# 6 0.0000 0.0000 0.0000 1.4735 0.0000 3.8398
#
#
#
# Elastic Compliance Matrix: (Units=1/GPa)
#
#
# Indices 1 2 3 4 5 6 
#
# 1 0.008016 -0.001249 -0.001282 0.000000 0.000101 0.000000
# 2 -0.001249 0.007832 -0.001203 0.000000 -0.001131 0.000000
# 3 -0.001282 -0.001203 0.014690 0.000000 -0.003238 0.000000
# 4 0.000000 0.000000 0.000000 0.052636 0.000000 -0.020198
# 5 0.000101 -0.001131 -0.003238 0.000000 0.025630 0.000000
# 6 0.000000 0.000000 0.000000 -0.020198 0.000000 0.268179
#
#
# Mechanical properties :
#
#
# Convention : Reuss Voigt Hill
#
# Bulk Modulus (GPa) = 43.34608 49.06993 46.20800
# Shear Modulus (GPa) = 12.75058 31.87382 22.31220
#
# Velocity S-wave (km/s) = 2.34919 3.71424 3.10759
# Velocity P-wave (km/s) = 5.11070 6.29543 5.73375
#
# Compressibility (1/GPa) = 0.02307014
#
# Stress axis : x y z
#
# Youngs Moduli (GPa) = 124.75786 127.67798 68.07442
#
# Poissons Ratio (x) = 0.15948 0.08726
# Poissons Ratio (y) = 0.15584 0.08188
# Poissons Ratio (z) = 0.15992 0.15357
#
# Static dielectric constant tensor:
#      x y z
#    x 1.990740 0.000000 -0.026810 
#    y 0.000000 1.881280 0.000000 
#    z -0.026810 0.000000 1.950750 
# 
# From -- ./inp_files/305846.got.cif
#   From: 2010.05.17/outbox.cif.g08.bks.cpg/sg15_153_cif.got.tgz:305846.got - 2010.06.03 18:47:42.
