data_PCOD9267521
_publ_section_title
;
Structure prediction by ZEFSAII (Michael W. Deem and Ramdas Pophale) SiO2 
 PCOD9267521
Probable space group: C 2/C
;
_chemical_formula_sum "Si O2"
_cell_formula_units_Z 56
_cell_length_a 11.808720
_cell_length_b 19.489750
_cell_length_c 18.937910
_cell_angle_alpha 90.000000
_cell_angle_beta 135.059996
_cell_angle_gamma 90.000000
_cell_volume 3078.725051
_symmetry_space_group_name_H-M "C 2/C"
_symmetry_group_IT_number 15
_symmetry_cell_setting 'monoclinic'
loop_
_space_group_symop_operation_xyz
x,y,z
-x,y,1/2-z
-x,-y,-z
x,-y,1/2+z
1/2+x,1/2+y,z
1/2-x,1/2+y,1/2-z
1/2-x,1/2-y,-z
1/2+x,1/2-y,1/2+z
loop_
_atom_site_type_symbol
_atom_site_label
_atom_site_fract_x
_atom_site_fract_y
_atom_site_fract_z
Si Si1 0.718381 0.233846 0.773776
Si Si2 0.162937 0.620286 0.228705
Si Si3 0.700436 0.906833 0.910854
Si Si4 0.861079 0.704725 0.598629
Si Si5 0.060356 0.971435 0.698312
Si Si6 0.962380 0.887780 0.385098
Si Si7 0.188947 0.936323 0.033011
O O1 0.776323 0.308016 0.775338
O O2 0.547417 0.215601 0.663707
O O3 0.679506 0.229449 0.839964
O O4 0.855436 0.177703 0.819982
O O5 0.198439 0.616078 0.328257
O O6 0.265458 0.560222 0.237879
O O7 0.973345 0.610587 0.135164
O O8 0.730750 0.988956 0.926380
O O9 0.850186 0.873867 0.018180
O O10 0.750000 0.750000 0.500000
O O11 0.813365 0.624812 0.574136
O O12 0.000000 0.956390 0.750000
O O13 0.941242 0.938849 0.587110
O O14 0.057512 0.052328 0.680838
O O15 0.897383 0.919226 0.430855
#
# Coordination Sequence:
#
# PCOD9267521 Si02
#       7
#     8   8   8   8   8   8   8
#     4  10  24  37  60  88 123 163 204 245 314 358
#     4  11  22  37  60  93 117 159 206 256 299 359
#     4  10  21  38  66  86 115 160 218 243 294 367
#     4  10  22  38  61  91 124 157 201 260 308 365
#     4  11  22  37  63  90 126 152 194 260 313 355
#     4  10  20  43  60  86 117 166 206 245 300 374
#     4  10  19  39  65  88 114 162 208 251 299 359
#
# _framework density 18.189347999999999
#
# number of rings (size 3 to 8) (size 9 to 14) (size 15 to 20)
#    0.000    1.714    2.857    1.714    8.000    1.714 
#    2.571    5.714    0.000    0.000    0.000    0.000 
#    0.000    0.000    0.000    0.000    0.000    0.000 
#
# Total GULP energy -156373.064488 kJ/mol
# GULP energy per Si atom -5584.752303 kJ/mol
# Density = 1.814795 g / cm^3
# Si number density = 18.189348 Si / 1000 Ang^3
#
#
#
# Elastic Constant Matrix: (Units=GPa)
#
#
# Indices 1 2 3 4 5 6 
#
# 1 84.8723 26.2238 38.4976 0.0000 33.4719 0.0000
# 2 26.2238 69.6938 46.6827 0.0000 25.6033 0.0000
# 3 38.4976 46.6827 84.8965 0.0000 32.6160 0.0000
# 4 0.0000 0.0000 0.0000 26.6170 0.0000 0.8751
# 5 33.4719 25.6033 32.6160 0.0000 41.7311 0.0000
# 6 0.0000 0.0000 0.0000 0.8751 0.0000 22.1150
#
#
#
# Elastic Compliance Matrix: (Units=1/GPa)
#
#
# Indices 1 2 3 4 5 6 
#
# 1 0.018030 -0.000064 -0.003716 0.000000 -0.011518 0.000000
# 2 -0.000064 0.023804 -0.010674 0.000000 -0.006210 0.000000
# 3 -0.003716 -0.010674 0.022398 0.000000 -0.007976 0.000000
# 4 0.000000 0.000000 0.000000 0.037619 0.000000 -0.001489
# 5 -0.011518 -0.006210 -0.007976 0.000000 0.043246 0.000000
# 6 0.000000 0.000000 0.000000 -0.001489 0.000000 0.045277
#
#
# Mechanical properties :
#
#
# Convention : Reuss Voigt Hill
#
# Bulk Modulus (GPa) = 28.30916 51.36343 39.83630
# Shear Modulus (GPa) = 21.63968 26.62986 24.13477
#
# Velocity S-wave (km/s) = 3.45293 3.83042 3.64656
# Velocity P-wave (km/s) = 5.61198 6.91826 6.29908
#
# Compressibility (1/GPa) = 0.03532426
#
# Stress axis : x y z
#
# Youngs Moduli (GPa) = 55.46253 42.00966 44.64684
#
# Poissons Ratio (x) = 0.00268 0.16590
# Poissons Ratio (y) = 0.00354 0.47658
# Poissons Ratio (z) = 0.20609 0.44843
#
# Static dielectric constant tensor:
#      x y z
#    x 1.612440 0.000000 0.011490 
#    y 0.000000 1.607000 0.000000 
#    z 0.011490 0.000000 1.626150 
# 
# From -- ./inp_files/199605.got.cif
#   From: 2010.05.17/outbox.cif.g08.bks.cpg/sg15_100_cif.got.tgz:199605.got - 2010.06.03 18:47:42.
