data_PCOD9267690
_publ_section_title
;
Structure prediction by ZEFSAII (Michael W. Deem and Ramdas Pophale) SiO2 
 PCOD9267690
Probable space group: C 2/C
;
_chemical_formula_sum "Si O2"
_cell_formula_units_Z 64
_cell_length_a 27.117294
_cell_length_b 13.117059
_cell_length_c 14.729548
_cell_angle_alpha 90.000000
_cell_angle_beta 40.211246
_cell_angle_gamma 90.000000
_cell_volume 3382.523879
_symmetry_space_group_name_H-M "C 2/C"
_symmetry_group_IT_number 15
_symmetry_cell_setting 'monoclinic'
loop_
_space_group_symop_operation_xyz
x,y,z
-x,y,1/2-z
-x,-y,-z
x,-y,1/2+z
1/2+x,1/2+y,z
1/2-x,1/2+y,1/2-z
1/2-x,1/2-y,-z
1/2+x,1/2-y,1/2+z
loop_
_atom_site_type_symbol
_atom_site_label
_atom_site_fract_x
_atom_site_fract_y
_atom_site_fract_z
Si Si1 0.149917 0.989923 0.714405
Si Si2 0.485752 0.489666 0.872085
Si Si3 0.883719 0.827809 0.103113
Si Si4 0.291732 0.089935 0.440035
Si Si5 0.616789 0.337993 0.899199
Si Si6 0.463208 0.013329 0.200808
Si Si7 0.511789 0.833515 0.475105
Si Si8 0.737486 0.741956 0.365129
O O1 0.128951 0.095439 0.794551
O O2 0.219460 0.014369 0.550697
O O3 0.171154 0.906167 0.759226
O O4 0.068964 0.954824 0.788379
O O5 0.500000 0.522752 0.750000
O O6 0.425551 0.397544 0.969366
O O7 0.451291 0.584731 0.976115
O O8 0.799073 0.784395 0.206071
O O9 0.939587 0.737625 0.053927
O O10 0.372758 0.035279 0.331490
O O11 0.286401 0.168740 0.531919
O O12 0.279541 0.156473 0.366698
O O13 0.581884 0.242147 0.896178
O O14 0.663664 0.302711 0.920393
O O15 0.500000 0.012622 0.250000
O O16 0.476336 0.909546 0.125839
O O17 0.497956 0.101411 0.086444
#
# Coordination Sequence:
#
# PCOD9267690 Si02
#       8
#     8   8   8   8   8   8   8   8
#     4  10  20  38  62  88 126 150 195 265 304 357
#     4  11  21  36  63  94 121 159 203 259 313 368
#     4  10  19  40  61  86 124 158 196 250 315 363
#     4  10  21  40  58  92 122 148 205 261 306 361
#     4  11  21  39  61  89 121 162 207 243 314 377
#     4  11  25  42  63  90 122 168 213 263 309 371
#     4  11  22  42  65  86 124 165 212 258 301 389
#     4  10  21  36  65  89 118 162 197 256 309 365
#
# _framework density 18.920783
#
# number of rings (size 3 to 8) (size 9 to 14) (size 15 to 20)
#    0.000    1.500    3.750    2.250    0.000    3.000 
#    9.000    0.625    0.000    0.000    0.000    0.000 
#    0.000    0.000    0.000    0.000    0.000    0.000 
#
# Total GULP energy -178518.424449 kJ/mol
# GULP energy per Si atom -5578.700764 kJ/mol
# Density = 1.887772 g / cm^3
# Si number density = 18.920783 Si / 1000 Ang^3
#
#
#
# Elastic Constant Matrix: (Units=GPa)
#
#
# Indices 1 2 3 4 5 6 
#
# 1 43.3938 16.4172 7.5880 0.0000 -14.8849 0.0000
# 2 16.4172 97.1065 35.2744 0.0000 -4.5683 0.0000
# 3 7.5880 35.2744 84.1056 0.0000 -16.5956 0.0000
# 4 0.0000 0.0000 0.0000 5.0615 0.0000 -2.9107
# 5 -14.8849 -4.5683 -16.5956 0.0000 24.8467 0.0000
# 6 0.0000 0.0000 0.0000 -2.9107 0.0000 13.2405
#
#
#
# Elastic Compliance Matrix: (Units=1/GPa)
#
#
# Indices 1 2 3 4 5 6 
#
# 1 0.031486 -0.005649 0.003508 0.000000 0.020167 0.000000
# 2 -0.005649 0.013201 -0.006008 0.000000 -0.004969 0.000000
# 3 0.003508 -0.006008 0.016459 0.000000 0.011990 0.000000
# 4 0.000000 0.000000 0.000000 0.226161 0.000000 0.049718
# 5 0.020167 -0.004969 0.011990 0.000000 0.059423 0.000000
# 6 0.000000 0.000000 0.000000 0.049718 0.000000 0.086456
#
#
# Mechanical properties :
#
#
# Convention : Reuss Voigt Hill
#
# Bulk Modulus (GPa) = 22.29705 38.12947 30.21326
# Shear Modulus (GPa) = 10.76581 19.65147 15.20864
#
# Velocity S-wave (km/s) = 2.38795 3.22626 2.83822
# Velocity P-wave (km/s) = 4.40603 5.83731 5.17143
#
# Compressibility (1/GPa) = 0.04484898
#
# Stress axis : x y z
#
# Youngs Moduli (GPa) = 31.76019 75.74901 60.75752
#
# Poissons Ratio (x) = 0.42787 -0.21311
# Poissons Ratio (y) = 0.17940 0.36501
# Poissons Ratio (z) = -0.11140 0.45508
#
# Static dielectric constant tensor:
#      x y z
#    x 1.652940 0.000000 -0.000360 
#    y 0.000000 1.654400 0.000000 
#    z -0.000360 0.000000 1.662470 
# 
# From -- ./inp_files/177788.got.cif
#   From: 2010.05.17/outbox.cif.g08.bks.cpg/sg15_89_cif.got.tgz:177788.got - 2010.06.03 18:47:42.
