data_PCOD9267159
_publ_section_title
;
Structure prediction by ZEFSAII (Michael W. Deem and Ramdas Pophale) SiO2 
 PCOD9267159
Probable space group: C 2/C
;
_chemical_formula_sum "Si O2"
_cell_formula_units_Z 40
_cell_length_a 6.638747
_cell_length_b 12.441293
_cell_length_c 23.990580
_cell_angle_alpha 90.000000
_cell_angle_beta 46.991501
_cell_angle_gamma 90.000000
_cell_volume 1448.971239
_symmetry_space_group_name_H-M "C 2/C"
_symmetry_group_IT_number 15
_symmetry_cell_setting 'monoclinic'
loop_
_space_group_symop_operation_xyz
x,y,z
-x,y,1/2-z
-x,-y,-z
x,-y,1/2+z
1/2+x,1/2+y,z
1/2-x,1/2+y,1/2-z
1/2-x,1/2-y,-z
1/2+x,1/2-y,1/2+z
loop_
_atom_site_type_symbol
_atom_site_label
_atom_site_fract_x
_atom_site_fract_y
_atom_site_fract_z
Si Si1 0.668950 0.608084 0.775903
Si Si2 0.593636 0.268504 0.470005
Si Si3 0.626868 0.038761 0.615245
Si Si4 0.211902 0.330780 0.830323
Si Si5 0.800304 0.582667 0.568545
O O1 0.500000 0.606548 0.750000
O O2 0.973816 0.575343 0.700044
O O3 0.662154 0.728173 0.800989
O O4 0.500138 0.542421 0.855589
O O5 0.750000 0.250000 0.500000
O O6 0.737654 0.208275 0.389841
O O7 0.321787 0.197356 0.534223
O O8 0.593598 0.395365 0.452107
O O9 0.445229 0.091876 0.600718
O O10 0.544222 0.913846 0.625938
O O11 0.500000 0.377188 0.750000
O O12 0.000000 0.500000 0.500000
#
# Coordination Sequence:
#
# PCOD9267159 Si02
#       5
#     8   8   8   8   8
#     4  10  23  41  64  99 133 173 232 281 329 418
#     4  10  22  39  66  99 134 168 226 287 334 409
#     4  10  21  40  65  95 128 178 228 267 337 412
#     4  12  22  41  71  98 133 185 227 280 350 405
#     4  10  19  38  66  92 128 177 221 271 345 404
#
# _framework density 27.605795000000001
#
# number of rings (size 3 to 8) (size 9 to 14) (size 15 to 20)
#    0.000    1.600    4.000    1.800    0.000    0.800 
#    3.600    1.000    0.000    0.000    0.000    0.000 
#    0.000    0.000    0.000    0.000    0.000    0.000 
#
# Total GULP energy -111648.212564 kJ/mol
# GULP energy per Si atom -5582.410628 kJ/mol
# Density = 2.754296 g / cm^3
# Si number density = 27.605795 Si / 1000 Ang^3
#
#
#
# Elastic Constant Matrix: (Units=GPa)
#
#
# Indices 1 2 3 4 5 6 
#
# 1 83.7170 16.8743 58.0618 -0.0010 -13.7383 0.0007
# 2 16.8743 188.9819 78.0785 -0.0002 1.7624 0.0000
# 3 58.0618 78.0785 241.8482 -0.0009 5.0947 0.0010
# 4 -0.0010 -0.0002 -0.0009 67.1230 0.0007 -0.7946
# 5 -13.7383 1.7624 5.0947 0.0007 68.7889 -0.0005
# 6 0.0007 0.0000 0.0010 -0.7946 -0.0005 32.3500
#
#
#
# Elastic Compliance Matrix: (Units=1/GPa)
#
#
# Indices 1 2 3 4 5 6 
#
# 1 0.015038 0.000169 -0.003734 0.000000 0.003276 0.000000
# 2 0.000169 0.006108 -0.002013 0.000000 0.000026 0.000000
# 3 -0.003734 -0.002013 0.005705 0.000000 -0.001117 0.000000
# 4 0.000000 0.000000 0.000000 0.014902 0.000000 0.000366
# 5 0.003276 0.000026 -0.001117 0.000000 0.015273 0.000000
# 6 0.000000 0.000000 0.000000 0.000366 0.000000 0.030921
#
#
# Mechanical properties :
#
#
# Convention : Reuss Voigt Hill
#
# Bulk Modulus (GPa) = 63.71328 91.17512 77.44420
# Shear Modulus (GPa) = 47.92284 57.75456 52.83870
#
# Velocity S-wave (km/s) = 4.17102 4.57893 4.37972
# Velocity P-wave (km/s) = 6.80634 7.81375 7.32738
#
# Compressibility (1/GPa) = 0.01569532
#
# Stress axis : x y z
#
# Youngs Moduli (GPa) = 66.49783 163.72359 175.29444
#
# Poissons Ratio (x) = -0.02773 0.65454
# Poissons Ratio (y) = -0.01126 0.35288
# Poissons Ratio (z) = 0.24830 0.32959
#
# Static dielectric constant tensor:
#      x y z
#    x 2.347670 0.000000 -0.079650 
#    y 0.000000 2.213920 0.000010 
#    z -0.079650 0.000010 2.127340 
# 
# From -- ./inp_files/291917.got.cif
#   From: 2010.05.17/outbox.cif.g08.bks.cpg/sg15_146_cif.got.tgz:291917.got - 2010.06.03 18:47:42.
