data_PCOD9267318
_publ_section_title
;
Structure prediction by ZEFSAII (Michael W. Deem and Ramdas Pophale) SiO2 
 PCOD9267318
Probable space group: C 2/C
;
_chemical_formula_sum "Si O2"
_cell_formula_units_Z 48
_cell_length_a 9.575315
_cell_length_b 14.432248
_cell_length_c 22.134758
_cell_angle_alpha 90.000000
_cell_angle_beta 140.003870
_cell_angle_gamma 90.000000
_cell_volume 1966.049131
_symmetry_space_group_name_H-M "C 2/C"
_symmetry_group_IT_number 15
_symmetry_cell_setting 'monoclinic'
loop_
_space_group_symop_operation_xyz
x,y,z
-x,y,1/2-z
-x,-y,-z
x,-y,1/2+z
1/2+x,1/2+y,z
1/2-x,1/2+y,1/2-z
1/2-x,1/2-y,-z
1/2+x,1/2-y,1/2+z
loop_
_atom_site_type_symbol
_atom_site_label
_atom_site_fract_x
_atom_site_fract_y
_atom_site_fract_z
Si Si1 0.542972 0.864333 0.005363
Si Si2 0.476314 0.941235 0.669389
Si Si3 0.429299 0.135873 0.609811
Si Si4 0.854439 0.014278 0.144127
Si Si5 0.430832 0.338033 0.975142
Si Si6 0.643805 0.675867 0.188406
O O1 0.449121 0.857105 0.043604
O O2 0.567187 0.760183 0.990516
O O3 0.765994 0.921636 0.083641
O O4 0.364321 0.927524 0.913387
O O5 0.500000 0.953454 0.750000
O O6 0.239950 0.916678 0.563464
O O7 0.628167 0.852519 0.707897
O O8 0.543722 0.041267 0.666874
O O9 0.536423 0.228348 0.673253
O O10 0.179773 0.132334 0.548715
O O11 0.000000 0.991810 0.250000
O O12 0.994658 0.086291 0.151537
O O13 0.337494 0.315014 0.877274
#
# Coordination Sequence:
#
# PCOD9267318 Si02
#       6
#     8   8   8   8   8   8
#     4  10  21  37  62  86 111 156 201 233 287 349
#     4  10  23  35  57  89 116 145 197 242 283 338
#     4  11  19  39  62  80 116 158 186 232 295 348
#     4  11  21  35  59  90 117 145 194 248 291 332
#     4  10  19  39  60  80 111 157 194 229 282 360
#     4  10  20  38  59  82 112 153 195 236 283 350
#
# _framework density 24.414446999999999
#
# number of rings (size 3 to 8) (size 9 to 14) (size 15 to 20)
#    0.000    1.667    3.333    2.500    0.000    5.333 
#    0.000    0.000    0.000    5.000    0.000    0.000 
#    0.000    0.000    0.000    0.000    0.000    0.000 
#
# Total GULP energy -134162.299912 kJ/mol
# GULP energy per Si atom -5590.095830 kJ/mol
# Density = 2.435888 g / cm^3
# Si number density = 24.414447 Si / 1000 Ang^3
#
#
#
# Elastic Constant Matrix: (Units=GPa)
#
#
# Indices 1 2 3 4 5 6 
#
# 1 40.3362 19.6792 34.8090 0.0000 15.7585 0.0000
# 2 19.6792 134.7195 36.6210 0.0000 25.9680 0.0000
# 3 34.8090 36.6210 90.6068 0.0000 12.2929 0.0000
# 4 0.0000 0.0000 0.0000 23.6542 0.0000 5.8988
# 5 15.7585 25.9680 12.2929 0.0000 35.3417 0.0000
# 6 0.0000 0.0000 0.0000 5.8988 0.0000 24.3587
#
#
#
# Elastic Compliance Matrix: (Units=1/GPa)
#
#
# Indices 1 2 3 4 5 6 
#
# 1 0.042861 0.000510 -0.014723 0.000000 -0.014365 0.000000
# 2 0.000510 0.009367 -0.003167 0.000000 -0.006009 0.000000
# 3 -0.014723 -0.003167 0.017597 0.000000 0.002771 0.000000
# 4 0.000000 0.000000 0.000000 0.044993 0.000000 -0.010896
# 5 -0.014365 -0.006009 0.002771 0.000000 0.038152 0.000000
# 6 0.000000 0.000000 0.000000 -0.010896 0.000000 0.043692
#
#
# Mechanical properties :
#
#
# Convention : Reuss Voigt Hill
#
# Bulk Modulus (GPa) = 28.51829 49.76452 39.14141
# Shear Modulus (GPa) = 20.56688 28.30780 24.43734
#
# Velocity S-wave (km/s) = 2.90557 3.40879 3.16719
# Velocity P-wave (km/s) = 4.79194 5.99338 5.42602
#
# Compressibility (1/GPa) = 0.03506521
#
# Stress axis : x y z
#
# Youngs Moduli (GPa) = 23.33149 106.75335 56.82770
#
# Poissons Ratio (x) = -0.05448 0.83669
# Poissons Ratio (y) = -0.01191 0.17997
# Poissons Ratio (z) = 0.34352 0.33807
#
# Static dielectric constant tensor:
#      x y z
#    x 2.072550 0.000000 0.029600 
#    y 0.000000 1.929530 0.000000 
#    z 0.029600 0.000000 1.915610 
# 
# From -- ./inp_files/143720.got.cif
#   From: 2010.05.17/outbox.cif.g08.bks.cpg/sg15_72_cif.got.tgz:143720.got - 2010.06.03 18:47:42.
