data_PCOD9267441
_publ_section_title
;
Structure prediction by ZEFSAII (Michael W. Deem and Ramdas Pophale) SiO2 
 PCOD9267441
Probable space group: C 2/C
;
_chemical_formula_sum "Si O2"
_cell_formula_units_Z 56
_cell_length_a 21.356406
_cell_length_b 20.428449
_cell_length_c 8.491740
_cell_angle_alpha 90.000000
_cell_angle_beta 132.672392
_cell_angle_gamma 90.000000
_cell_volume 2723.893573
_symmetry_space_group_name_H-M "C 2/C"
_symmetry_group_IT_number 15
_symmetry_cell_setting 'monoclinic'
loop_
_space_group_symop_operation_xyz
x,y,z
-x,y,1/2-z
-x,-y,-z
x,-y,1/2+z
1/2+x,1/2+y,z
1/2-x,1/2+y,1/2-z
1/2-x,1/2-y,-z
1/2+x,1/2-y,1/2+z
loop_
_atom_site_type_symbol
_atom_site_label
_atom_site_fract_x
_atom_site_fract_y
_atom_site_fract_z
Si Si1 0.155552 0.333245 0.280615
Si Si2 0.425275 0.698698 0.405288
Si Si3 0.943595 0.548954 0.002707
Si Si4 0.885253 0.780223 0.208626
Si Si5 0.711861 0.152876 0.515431
Si Si6 0.226981 0.525237 0.343838
Si Si7 0.799403 0.909158 0.671434
O O1 0.121383 0.260933 0.250915
O O2 0.080779 0.386791 0.138439
O O3 0.224183 0.355697 0.524329
O O4 0.198446 0.340830 0.180141
O O5 0.525965 0.705131 0.555744
O O6 0.402770 0.706162 0.553352
O O7 0.385705 0.629759 0.287838
O O8 0.855735 0.508091 0.878460
O O9 0.000000 0.567661 0.250000
O O10 0.000000 0.500000 0.000000
O O11 0.854854 0.704977 0.170565
O O12 0.806510 0.823148 0.133966
O O13 0.699287 0.081306 0.420410
O O14 0.277037 0.466854 0.513527
O O15 0.288172 0.559700 0.323003
#
# Coordination Sequence:
#
# PCOD9267441 Si02
#       7
#     8   8   8   8   8   8   8
#     4  10  22  36  62  89 126 163 199 253 313 370
#     4  10  20  38  63  92 123 159 211 258 308 360
#     4  11  22  35  54  88 124 157 202 251 303 372
#     4   9  20  36  65  92 120 158 203 260 303 373
#     4  10  19  39  63  91 120 162 204 245 316 375
#     4  11  22  38  61  86 126 167 209 249 317 374
#     4  11  22  41  60  91 121 169 206 256 306 374
#
# _framework density 20.558807000000002
#
# number of rings (size 3 to 8) (size 9 to 14) (size 15 to 20)
#    0.000    1.714    1.429    4.714    6.000    0.000 
#    0.000    1.429    0.000    0.000    0.000    0.000 
#    0.000    0.000    0.000    0.000    0.000    0.000 
#
# Total GULP energy -156472.203589 kJ/mol
# GULP energy per Si atom -5588.292985 kJ/mol
# Density = 2.051201 g / cm^3
# Si number density = 20.558807 Si / 1000 Ang^3
#
#
#
# Elastic Constant Matrix: (Units=GPa)
#
#
# Indices 1 2 3 4 5 6 
#
# 1 70.0363 37.6292 24.9238 0.0000 25.3527 0.0000
# 2 37.6292 124.8312 48.3391 0.0000 27.2617 0.0000
# 3 24.9238 48.3391 65.0928 0.0000 25.3738 0.0000
# 4 0.0000 0.0000 0.0000 15.6683 0.0000 6.5527
# 5 25.3527 27.2617 25.3738 0.0000 24.3228 0.0000
# 6 0.0000 0.0000 0.0000 6.5527 0.0000 25.9114
#
#
#
# Elastic Compliance Matrix: (Units=1/GPa)
#
#
# Indices 1 2 3 4 5 6 
#
# 1 0.023607 -0.002809 0.002379 0.000000 -0.023940 0.000000
# 2 -0.002809 0.012236 -0.006415 0.000000 -0.004094 0.000000
# 3 0.002379 -0.006415 0.029291 0.000000 -0.025846 0.000000
# 4 0.000000 0.000000 0.000000 0.071371 0.000000 -0.018049
# 5 -0.023940 -0.004094 -0.025846 0.000000 0.097619 0.000000
# 6 0.000000 0.000000 0.000000 -0.018049 0.000000 0.043158
#
#
# Mechanical properties :
#
#
# Convention : Reuss Voigt Hill
#
# Bulk Modulus (GPa) = 19.43877 53.52718 36.48297
# Shear Modulus (GPa) = 16.22743 23.11838 19.67290
#
# Velocity S-wave (km/s) = 2.81253 3.35699 3.09675
# Velocity P-wave (km/s) = 4.47469 6.41237 5.52908
#
# Compressibility (1/GPa) = 0.05144357
#
# Stress axis : x y z
#
# Youngs Moduli (GPa) = 42.36000 81.72731 34.14035
#
# Poissons Ratio (x) = 0.22959 -0.08123
# Poissons Ratio (y) = 0.11900 0.21901
# Poissons Ratio (z) = -0.10078 0.52429
#
# Static dielectric constant tensor:
#      x y z
#    x 1.747640 0.000000 -0.020790 
#    y 0.000000 1.731300 0.000000 
#    z -0.020790 0.000000 1.753580 
# 
# From -- ./inp_files/57917.got.cif
#   From: 2010.05.17/outbox.cif.g08.bks.cpg/sg15_29_cif.got.tgz:57917.got - 2010.06.03 18:47:42.
