data_PCOD9267115
_publ_section_title
;
Structure prediction by ZEFSAII (Michael W. Deem and Ramdas Pophale) SiO2 
 PCOD9267115
Probable space group: C 2/C
;
_chemical_formula_sum "Si O2"
_cell_formula_units_Z 40
_cell_length_a 26.949561
_cell_length_b 10.462361
_cell_length_c 15.819894
_cell_angle_alpha 90.000000
_cell_angle_beta 160.947430
_cell_angle_gamma 90.000000
_cell_volume 1456.070533
_symmetry_space_group_name_H-M "C 2/C"
_symmetry_group_IT_number 15
_symmetry_cell_setting 'monoclinic'
loop_
_space_group_symop_operation_xyz
x,y,z
-x,y,1/2-z
-x,-y,-z
x,-y,1/2+z
1/2+x,1/2+y,z
1/2-x,1/2+y,1/2-z
1/2-x,1/2-y,-z
1/2+x,1/2-y,1/2+z
loop_
_atom_site_type_symbol
_atom_site_label
_atom_site_fract_x
_atom_site_fract_y
_atom_site_fract_z
Si Si1 0.211007 0.898931 0.773847
Si Si2 0.074819 0.283476 0.696903
Si Si3 0.500000 0.288388 0.750000
Si Si4 0.280307 0.917298 0.706975
Si Si5 0.679589 0.389327 0.904964
Si Si6 0.000000 0.716561 0.250000
O O1 0.263107 0.970711 0.773525
O O2 0.194584 0.960785 0.839752
O O3 0.047147 0.830594 0.500811
O O4 0.348797 0.795852 0.999233
O O5 0.077484 0.345154 0.607638
O O6 0.021619 0.357457 0.696517
O O7 0.250000 0.250000 0.000000
O O8 0.241739 0.470956 0.395795
O O9 0.519077 0.366558 0.693456
O O10 0.144680 0.812104 0.487878
O O11 0.750000 0.250000 0.000000
#
# Coordination Sequence:
#
# PCOD9267115 Si02
#       6
#     8   8   4   8   8   4
#     4  10  21  40  65  94 131 180 222 275 340 398
#     4   9  18  36  63  95 128 160 211 277 334 396
#     4  10  21  42  63  90 138 182 219 270 335 412
#     4  10  19  38  65  93 127 171 220 272 330 403
#     4  10  22  41  63  94 133 177 225 272 331 405
#     4   8  17  34  59  94 126 156 201 266 339 392
#
# _framework density 27.471195999999999
#
# number of rings (size 3 to 8) (size 9 to 14) (size 15 to 20)
#    0.000    2.400    0.000    1.800    0.000    0.000 
#    0.000   52.000    0.000    0.000    0.000    0.000 
#    0.000    0.000    0.000    0.000    0.000    0.000 
#
# Total GULP energy -111636.290797 kJ/mol
# GULP energy per Si atom -5581.814540 kJ/mol
# Density = 2.740867 g / cm^3
# Si number density = 27.471196 Si / 1000 Ang^3
#
#
#
# Elastic Constant Matrix: (Units=GPa)
#
#
# Indices 1 2 3 4 5 6 
#
# 1 378.5782 61.6272 48.0457 0.0000 7.9813 0.0000
# 2 61.6272 60.7150 49.9629 0.0000 15.4553 0.0000
# 3 48.0457 49.9629 133.8035 0.0000 32.6377 0.0000
# 4 0.0000 0.0000 0.0000 55.1000 0.0000 22.2628
# 5 7.9813 15.4553 32.6377 0.0000 43.7227 0.0000
# 6 0.0000 0.0000 0.0000 22.2628 0.0000 25.1431
#
#
#
# Elastic Compliance Matrix: (Units=1/GPa)
#
#
# Indices 1 2 3 4 5 6 
#
# 1 0.003179 -0.003352 -0.000046 0.000000 0.000639 0.000000
# 2 -0.003352 0.027481 -0.008360 0.000000 -0.002862 0.000000
# 3 -0.000046 -0.008360 0.012090 0.000000 -0.006062 0.000000
# 4 0.000000 0.000000 0.000000 0.028259 0.000000 -0.025021
# 5 0.000639 -0.002862 -0.006062 0.000000 0.028291 0.000000
# 6 0.000000 0.000000 0.000000 -0.025021 0.000000 0.061927
#
#
# Mechanical properties :
#
#
# Convention : Reuss Voigt Hill
#
# Bulk Modulus (GPa) = 51.98819 99.15204 75.57012
# Shear Modulus (GPa) = 26.15688 52.35722 39.25705
#
# Velocity S-wave (km/s) = 3.08905 4.37039 3.78435
# Velocity P-wave (km/s) = 5.62927 7.85102 6.83108
#
# Compressibility (1/GPa) = 0.01923514
#
# Stress axis : x y z
#
# Youngs Moduli (GPa) = 314.51542 36.38924 82.71197
#
# Poissons Ratio (x) = 0.12198 0.00378
# Poissons Ratio (y) = 1.05432 0.69144
# Poissons Ratio (z) = 0.01439 0.30420
#
# Static dielectric constant tensor:
#      x y z
#    x 2.308660 0.000000 -0.127180 
#    y 0.000000 2.223300 0.000000 
#    z -0.127180 0.000000 2.208670 
# 
# From -- ./inp_files/225349.got.cif
#   From: 2010.05.17/outbox.cif.g08.bks.cpg/sg15_113_cif.got.tgz:225349.got - 2010.06.03 18:47:42.
