data_PCOD9267975
_publ_section_title
;
Structure prediction by ZEFSAII (Michael W. Deem and Ramdas Pophale) SiO2 
 PCOD9267975
Probable space group: C 2/C
;
_chemical_formula_sum "Si O2"
_cell_formula_units_Z 48
_cell_length_a 11.221100
_cell_length_b 13.846366
_cell_length_c 25.719680
_cell_angle_alpha 90.000000
_cell_angle_beta 36.523481
_cell_angle_gamma 90.000000
_cell_volume 2378.290084
_symmetry_space_group_name_H-M "C 2/C"
_symmetry_group_IT_number 15
_symmetry_cell_setting 'monoclinic'
loop_
_space_group_symop_operation_xyz
x,y,z
-x,y,1/2-z
-x,-y,-z
x,-y,1/2+z
1/2+x,1/2+y,z
1/2-x,1/2+y,1/2-z
1/2-x,1/2-y,-z
1/2+x,1/2-y,1/2+z
loop_
_atom_site_type_symbol
_atom_site_label
_atom_site_fract_x
_atom_site_fract_y
_atom_site_fract_z
Si Si1 0.058040 0.777041 0.120361
Si Si2 0.061173 0.553705 0.328116
Si Si3 0.002632 0.244739 0.516828
Si Si4 0.823105 0.446887 0.594071
Si Si5 0.966017 0.012943 0.655404
Si Si6 0.847302 0.943802 0.017771
O O1 0.992169 0.667668 0.155447
O O2 0.937785 0.873114 0.176588
O O3 0.274235 0.784693 0.072960
O O4 0.049836 0.789538 0.059841
O O5 0.138567 0.534831 0.359147
O O6 0.247314 0.532124 0.225753
O O7 0.871182 0.482984 0.389167
O O8 0.853932 0.333726 0.572919
O O9 0.906077 0.166300 0.512030
O O10 0.603010 0.475344 0.653908
O O11 0.000000 0.500000 0.500000
O O12 0.100782 0.980814 0.558394
O O13 0.000000 0.000000 0.000000
#
# Coordination Sequence:
#
# PCOD9267975 Si02
#       6
#     8   8   8   8   8   8
#     4  10  19  41  64  87 126 181 205 246 329 391
#     4  11  25  42  65  96 130 166 220 262 320 392
#     4  10  20  38  69  90 125 171 214 251 320 389
#     4  11  21  43  67  90 123 175 212 259 317 383
#     4  12  24  42  68  94 130 168 217 271 315 376
#     4  12  22  41  66  98 128 166 211 268 317 376
#
# _framework density 20.182566999999999
#
# number of rings (size 3 to 8) (size 9 to 14) (size 15 to 20)
#    0.000    1.000    6.667    1.500    0.000    2.667 
#    3.000    1.667    0.000    0.000    0.000    0.000 
#    0.000    0.000    0.000    0.000    0.000    0.000 
#
# Total GULP energy -133707.254876 kJ/mol
# GULP energy per Si atom -5571.135620 kJ/mol
# Density = 2.013663 g / cm^3
# Si number density = 20.182567 Si / 1000 Ang^3
#
#
#
# Elastic Constant Matrix: (Units=GPa)
#
#
# Indices 1 2 3 4 5 6 
#
# 1 64.6193 31.4229 5.6389 0.0000 -24.0938 0.0000
# 2 31.4229 67.0616 16.9825 0.0000 0.7205 0.0001
# 3 5.6389 16.9825 79.1523 -0.0002 -27.9775 0.0002
# 4 0.0000 0.0000 -0.0002 15.7866 0.0000 -1.8940
# 5 -24.0938 0.7205 -27.9775 0.0000 18.4204 -0.0001
# 6 0.0000 0.0001 0.0002 -1.8940 -0.0001 32.5269
#
#
#
# Elastic Compliance Matrix: (Units=1/GPa)
#
#
# Indices 1 2 3 4 5 6 
#
# 1 -0.031184 0.025556 -0.038934 -0.000001 -0.100923 0.000000
# 2 0.025556 -0.003737 0.023423 0.000000 0.069148 0.000000
# 3 -0.038934 0.023423 -0.017148 0.000000 -0.077887 0.000000
# 4 -0.000001 0.000000 0.000000 0.063791 -0.000002 0.003714
# 5 -0.100923 0.069148 -0.077887 -0.000002 -0.198720 0.000000
# 6 0.000000 0.000000 0.000000 0.003714 0.000000 0.030960
#
#
# Mechanical properties :
#
#
# Convention : Reuss Voigt Hill
#
# Bulk Modulus (GPa) = -31.26848 35.43575 2.08363
# Shear Modulus (GPa) = -26.76832 23.79938 -1.48447
#
# Velocity S-wave (km/s) = -3.64580 3.43768 -0.85856
# Velocity P-wave (km/s) = 5.76619 5.77517 0.22762
#
# Compressibility (1/GPa) = -0.03198109
#
# Stress axis : x y z
#
# Youngs Moduli (GPa) = -32.06756 -267.56916 -58.31554
#
# Poissons Ratio (x) = 6.83793 -2.27046
# Poissons Ratio (y) = 0.81951 1.36590
# Poissons Ratio (z) = -1.24852 6.26717
#
# Static dielectric constant tensor:
#      x y z
#    x 1.722210 0.000000 0.087660 
#    y 0.000000 1.649060 0.000000 
#    z 0.087660 0.000000 1.798720 
# 
# From -- ./inp_files/311123.got.cif
#   From: 2010.05.17/outbox.cif.g08.bks.cpg/sg15_156_cif.got.tgz:311123.got - 2010.06.03 18:47:42.
