data_PCOD9267382
_publ_section_title
;
Structure prediction by ZEFSAII (Michael W. Deem and Ramdas Pophale) SiO2 
 PCOD9267382
Probable space group: C 2/C
;
_chemical_formula_sum "Si O2"
_cell_formula_units_Z 32
_cell_length_a 11.628390
_cell_length_b 10.364537
_cell_length_c 23.220346
_cell_angle_alpha 90.000000
_cell_angle_beta 152.738951
_cell_angle_gamma 90.000000
_cell_volume 1281.877890
_symmetry_space_group_name_H-M "C 2/C"
_symmetry_group_IT_number 15
_symmetry_cell_setting 'monoclinic'
loop_
_space_group_symop_operation_xyz
x,y,z
-x,y,1/2-z
-x,-y,-z
x,-y,1/2+z
1/2+x,1/2+y,z
1/2-x,1/2+y,1/2-z
1/2-x,1/2-y,-z
1/2+x,1/2-y,1/2+z
loop_
_atom_site_type_symbol
_atom_site_label
_atom_site_fract_x
_atom_site_fract_y
_atom_site_fract_z
Si Si1 0.813972 0.937717 0.026259
Si Si2 0.538695 0.787258 0.699761
Si Si3 0.987823 0.204514 0.153689
Si Si4 0.739570 0.348597 0.131115
O O1 0.866506 0.825230 0.096014
O O2 0.010888 0.917878 0.060218
O O3 0.548586 0.912040 0.876847
O O4 0.877471 0.066817 0.088898
O O5 0.500000 0.795882 0.750000
O O6 0.825425 0.752651 0.813553
O O7 0.188007 0.225440 0.295874
O O8 0.761157 0.295392 0.075918
O O9 0.000000 0.428704 0.250000
#
# Coordination Sequence:
#
# PCOD9267382 Si02
#       4
#     8   8   8   8
#     4  10  19  39  62  79 124 154 185 258 286 338
#     4  10  22  37  54  90 113 149 207 232 294 362
#     4   8  18  37  57  84 116 154 193 237 293 349
#     4   7  17  36  55  90 114 151 203 225 292 365
#
# _framework density 24.963376
#
# number of rings (size 3 to 8) (size 9 to 14) (size 15 to 20)
#    1.500    1.500    0.000    0.000    3.500    2.000 
#    4.500    8.750    0.000    0.000    0.000    0.000 
#    0.000    0.000    0.000    0.000    0.000    0.000 
#
# Total GULP energy -89069.628743 kJ/mol
# GULP energy per Si atom -5566.851796 kJ/mol
# Density = 2.490656 g / cm^3
# Si number density = 24.963376 Si / 1000 Ang^3
#
#
#
# Elastic Constant Matrix: (Units=GPa)
#
#
# Indices 1 2 3 4 5 6 
#
# 1 155.8988 27.0571 17.2140 0.0002 5.9229 -0.0003
# 2 27.0571 96.5977 9.7201 -0.0001 -35.9044 -0.0003
# 3 17.2140 9.7201 98.7659 -0.0002 -21.8651 -0.0033
# 4 0.0002 -0.0001 -0.0002 65.5110 -0.0001 -115.1892
# 5 5.9229 -35.9044 -21.8651 -0.0001 37.5229 0.0011
# 6 -0.0003 -0.0003 -0.0033 -115.1892 0.0011 339.6401
#
#
#
# Elastic Compliance Matrix: (Units=1/GPa)
#
#
# Indices 1 2 3 4 5 6 
#
# 1 0.007730 -0.004504 -0.002443 0.000000 -0.006954 0.000000
# 2 -0.004504 0.019076 0.003566 0.000000 0.021042 0.000000
# 3 -0.002443 0.003566 0.012676 0.000001 0.011184 0.000000
# 4 0.000000 0.000000 0.000001 0.037815 0.000000 0.012825
# 5 -0.006954 0.021042 0.011184 0.000000 0.054400 0.000000
# 6 0.000000 0.000000 0.000000 0.012825 0.000000 0.007294
#
#
# Mechanical properties :
#
#
# Convention : Reuss Voigt Hill
#
# Bulk Modulus (GPa) = 30.56297 51.02718 40.79508
# Shear Modulus (GPa) = 31.91620 108.35287 70.13453
#
# Velocity S-wave (km/s) = 3.57952 6.59537 5.30622
# Velocity P-wave (km/s) = 5.41790 8.85911 7.34294
#
# Compressibility (1/GPa) = 0.03271933
#
# Stress axis : x y z
#
# Youngs Moduli (GPa) = 129.36465 52.42148 78.88990
#
# Poissons Ratio (x) = 0.23610 0.19276
# Poissons Ratio (y) = 0.58265 -0.28132
# Poissons Ratio (z) = 0.31610 -0.18694
#
# Static dielectric constant tensor:
#      x y z
#    x 2.050810 0.000000 0.000880 
#    y 0.000000 2.056780 0.000000 
#    z 0.000880 0.000000 2.102970 
# 
# From -- ./inp_files/84529.got.cif
#   From: 2010.05.17/outbox.cif.g08.bks.cpg/sg15_43_cif.got.tgz:84529.got - 2010.06.03 18:47:42.
