data_PCOD9267337
_publ_section_title
;
Structure prediction by ZEFSAII (Michael W. Deem and Ramdas Pophale) SiO2 
 PCOD9267337
Probable space group: C 2/C
;
_chemical_formula_sum "Si O2"
_cell_formula_units_Z 40
_cell_length_a 10.685312
_cell_length_b 13.831973
_cell_length_c 14.637945
_cell_angle_alpha 90.000000
_cell_angle_beta 58.148015
_cell_angle_gamma 90.000000
_cell_volume 1837.684635
_symmetry_space_group_name_H-M "C 2/C"
_symmetry_group_IT_number 15
_symmetry_cell_setting 'monoclinic'
loop_
_space_group_symop_operation_xyz
x,y,z
-x,y,1/2-z
-x,-y,-z
x,-y,1/2+z
1/2+x,1/2+y,z
1/2-x,1/2+y,1/2-z
1/2-x,1/2-y,-z
1/2+x,1/2-y,1/2+z
loop_
_atom_site_type_symbol
_atom_site_label
_atom_site_fract_x
_atom_site_fract_y
_atom_site_fract_z
Si Si1 0.497847 0.008819 0.640123
Si Si2 0.169417 0.991124 0.551967
Si Si3 0.626133 0.793446 0.278800
Si Si4 0.790044 0.914317 0.764652
Si Si5 0.596356 0.403951 0.392962
O O1 0.500000 0.010141 0.750000
O O2 0.430302 0.115010 0.639790
O O3 0.659136 0.995043 0.537334
O O4 0.386114 0.924123 0.657090
O O5 0.070683 0.088520 0.579650
O O6 0.108314 0.921207 0.495992
O O7 0.152381 0.940681 0.656334
O O8 0.500000 0.785672 0.250000
O O9 0.652904 0.684734 0.300287
O O10 0.787686 0.822006 0.178035
O O11 0.833612 0.001237 0.681553
#
# Coordination Sequence:
#
# PCOD9267337 Si02
#       5
#     8   8   8   8   8
#     4  10  20  43  59  84 127 159 192 253 298 346
#     4  11  20  39  65  86 120 163 197 242 308 353
#     4  10  19  39  60  88 121 156 199 254 286 351
#     4  11  22  38  65  91 117 160 205 243 299 357
#     4  10  22  39  60  91 125 151 198 258 294 345
#
# _framework density 21.76652
#
# number of rings (size 3 to 8) (size 9 to 14) (size 15 to 20)
#    0.000    1.600    6.000    2.400    0.000    0.800 
#    7.200    5.000    0.000    0.000    0.000    0.000 
#    0.000    0.000    0.000    0.000    0.000    0.000 
#
# Total GULP energy -111514.031937 kJ/mol
# GULP energy per Si atom -5575.701597 kJ/mol
# Density = 2.171698 g / cm^3
# Si number density = 21.766520 Si / 1000 Ang^3
#
#
#
# Elastic Constant Matrix: (Units=GPa)
#
#
# Indices 1 2 3 4 5 6 
#
# 1 79.1746 31.3542 41.1434 0.0000 -18.1873 0.0000
# 2 31.3542 81.8818 14.5987 0.0000 -11.9661 0.0000
# 3 41.1434 14.5987 115.3969 0.0000 -33.9150 0.0000
# 4 0.0000 0.0000 0.0000 17.4719 0.0000 -8.5459
# 5 -18.1873 -11.9661 -33.9150 0.0000 54.0785 0.0000
# 6 0.0000 0.0000 0.0000 -8.5459 0.0000 17.8960
#
#
#
# Elastic Compliance Matrix: (Units=1/GPa)
#
#
# Indices 1 2 3 4 5 6 
#
# 1 0.017965 -0.005727 -0.005244 0.000000 0.001486 0.000000
# 2 -0.005727 0.014532 0.000714 0.000000 0.001737 0.000000
# 3 -0.005244 0.000714 0.012227 0.000000 0.006062 0.000000
# 4 0.000000 0.000000 0.000000 0.074677 0.000000 0.035661
# 5 0.001486 0.001737 0.006062 0.000000 0.023178 0.000000
# 6 0.000000 0.000000 0.000000 0.035661 0.000000 0.072908
#
#
# Mechanical properties :
#
#
# Convention : Reuss Voigt Hill
#
# Bulk Modulus (GPa) = 41.30512 50.07176 45.68844
# Shear Modulus (GPa) = 20.48593 30.51306 25.49949
#
# Velocity S-wave (km/s) = 3.07117 3.74817 3.42643
# Velocity P-wave (km/s) = 5.62083 6.46418 6.05720
#
# Compressibility (1/GPa) = 0.02421008
#
# Stress axis : x y z
#
# Youngs Moduli (GPa) = 55.66513 68.81234 81.78770
#
# Poissons Ratio (x) = 0.39408 0.42888
# Poissons Ratio (y) = 0.31879 -0.05840
# Poissons Ratio (z) = 0.29190 -0.04913
#
# Static dielectric constant tensor:
#      x y z
#    x 1.888660 0.000000 -0.058410 
#    y 0.000000 1.772910 0.000000 
#    z -0.058410 0.000000 1.858100 
# 
# From -- ./inp_files/202323.got.cif
#   From: 2010.05.17/outbox.cif.g08.bks.cpg/sg15_102_cif.got.tgz:202323.got - 2010.06.03 18:47:42.
