data_PCOD9267233
_publ_section_title
;
Structure prediction by ZEFSAII (Michael W. Deem and Ramdas Pophale) SiO2 
 PCOD9267233
Probable space group: C 2/C
;
_chemical_formula_sum "Si O2"
_cell_formula_units_Z 60
_cell_length_a 14.868471
_cell_length_b 11.210505
_cell_length_c 18.722952
_cell_angle_alpha 90.000000
_cell_angle_beta 114.034751
_cell_angle_gamma 90.000000
_cell_volume 2850.221428
_symmetry_space_group_name_H-M "C 2/C"
_symmetry_group_IT_number 15
_symmetry_cell_setting 'monoclinic'
loop_
_space_group_symop_operation_xyz
x,y,z
-x,y,1/2-z
-x,-y,-z
x,-y,1/2+z
1/2+x,1/2+y,z
1/2-x,1/2+y,1/2-z
1/2-x,1/2-y,-z
1/2+x,1/2-y,1/2+z
loop_
_atom_site_type_symbol
_atom_site_label
_atom_site_fract_x
_atom_site_fract_y
_atom_site_fract_z
Si Si1 0.308004 0.139960 0.183946
Si Si2 0.303396 0.923934 0.960788
Si Si3 0.528405 0.273894 0.986130
Si Si4 0.808018 0.297116 0.450088
Si Si5 0.758809 0.194783 0.194159
Si Si6 0.202041 0.080100 0.583487
Si Si7 0.500000 0.001014 0.250000
Si Si8 0.459818 0.761787 0.310804
O O1 0.268361 0.262925 0.137964
O O2 0.319499 0.149308 0.273349
O O3 0.411844 0.083052 0.193251
O O4 0.229117 0.045560 0.126625
O O5 0.232685 0.890177 0.871467
O O6 0.325609 0.062558 0.962021
O O7 0.398590 0.839628 0.978202
O O8 0.255891 0.902424 0.023866
O O9 0.417538 0.258043 0.978158
O O10 0.519135 0.277874 0.897901
O O11 0.588188 0.386663 0.035260
O O12 0.750000 0.250000 0.500000
O O13 0.741572 0.322536 0.152391
O O14 0.850992 0.211847 0.275935
O O15 0.465130 0.905439 0.299671
O O16 0.500000 0.711541 0.250000
#
# Coordination Sequence:
#
# PCOD9267233 Si02
#       8
#     8   8   8   8   8   8   4   8
#     4  12  25  44  68 100 141 179 226 289 343 415
#     4  11  24  44  74  99 138 179 238 285 343 417
#     4  11  23  42  73 100 136 186 238 278 349 410
#     4  12  27  45  63 100 145 187 228 283 346 423
#     4  11  23  40  69 102 133 170 232 290 331 392
#     4  11  23  47  68 105 140 176 227 298 349 404
#     4  10  24  40  74  92 136 182 226 280 348 398
#     4  10  19  38  69 104 126 168 233 282 337 398
#
# _framework density 21.050993999999999
#
# number of rings (size 3 to 8) (size 9 to 14) (size 15 to 20)
#    0.400    0.533    4.000    4.400    3.733    2.667 
#    0.000    0.000    4.400    0.000    0.000    0.000 
#    0.000    0.000    0.000    0.000    0.000    0.000 
#
# Total GULP energy -167308.841775 kJ/mol
# GULP energy per Si atom -5576.961392 kJ/mol
# Density = 2.100308 g / cm^3
# Si number density = 21.050994 Si / 1000 Ang^3
#
#
#
# Elastic Constant Matrix: (Units=GPa)
#
#
# Indices 1 2 3 4 5 6 
#
# 1 86.5932 29.8824 21.2563 0.0000 2.5412 0.0000
# 2 29.8824 56.9444 27.1017 0.0000 11.4983 0.0000
# 3 21.2563 27.1017 109.8598 0.0000 -2.2009 0.0000
# 4 0.0000 0.0000 0.0000 21.0800 0.0000 0.9030
# 5 2.5412 11.4983 -2.2009 0.0000 45.0182 0.0000
# 6 0.0000 0.0000 0.0000 0.9030 0.0000 18.1451
#
#
#
# Elastic Compliance Matrix: (Units=1/GPa)
#
#
# Indices 1 2 3 4 5 6 
#
# 1 0.014246 -0.007222 -0.000955 0.000000 0.000994 0.000000
# 2 -0.007222 0.024922 -0.004875 0.000000 -0.006196 0.000000
# 3 -0.000955 -0.004875 0.010526 0.000000 0.001814 0.000000
# 4 0.000000 0.000000 0.000000 0.047540 0.000000 -0.002366
# 5 0.000994 -0.006196 0.001814 0.000000 0.023828 0.000000
# 6 0.000000 0.000000 0.000000 -0.002366 0.000000 0.055229
#
#
# Mechanical properties :
#
#
# Convention : Reuss Voigt Hill
#
# Bulk Modulus (GPa) = 42.38961 45.54203 43.96582
# Shear Modulus (GPa) = 23.78035 28.52578 26.15307
#
# Velocity S-wave (km/s) = 3.36468 3.68513 3.52855
# Velocity P-wave (km/s) = 5.93928 6.30778 6.12630
#
# Compressibility (1/GPa) = 0.02359069
#
# Stress axis : x y z
#
# Youngs Moduli (GPa) = 70.19679 40.12518 95.00098
#
# Poissons Ratio (x) = 0.28978 0.09071
# Poissons Ratio (y) = 0.50695 0.46312
# Poissons Ratio (z) = 0.06703 0.19561
#
# Static dielectric constant tensor:
#      x y z
#    x 3.863800 0.000000 -0.619370 
#    y 0.000000 1.767010 0.000000 
#    z -0.619370 0.000000 1.944120 
# 
# From -- ./inp_files/204490.got.cif
#   From: 2010.05.17/outbox.cif.g08.bks.cpg/sg15_103_cif.got.tgz:204490.got - 2010.06.03 18:47:42.
