data_PCOD9267371
_publ_section_title
;
Structure prediction by ZEFSAII (Michael W. Deem and Ramdas Pophale) SiO2 
 PCOD9267371
Probable space group: C 2/C
;
_chemical_formula_sum "Si O2"
_cell_formula_units_Z 48
_cell_length_a 9.314496
_cell_length_b 18.420319
_cell_length_c 20.801044
_cell_angle_alpha 90.000000
_cell_angle_beta 140.752463
_cell_angle_gamma 90.000000
_cell_volume 2257.980990
_symmetry_space_group_name_H-M "C 2/C"
_symmetry_group_IT_number 15
_symmetry_cell_setting 'monoclinic'
loop_
_space_group_symop_operation_xyz
x,y,z
-x,y,1/2-z
-x,-y,-z
x,-y,1/2+z
1/2+x,1/2+y,z
1/2-x,1/2+y,1/2-z
1/2-x,1/2-y,-z
1/2+x,1/2-y,1/2+z
loop_
_atom_site_type_symbol
_atom_site_label
_atom_site_fract_x
_atom_site_fract_y
_atom_site_fract_z
Si Si1 0.288513 0.941092 0.134891
Si Si2 0.831705 0.044848 0.137881
Si Si3 0.284161 0.459544 0.004473
Si Si4 0.150814 0.780699 0.060181
Si Si5 0.548136 0.322137 0.642782
Si Si6 0.455374 0.838246 0.878206
O O1 0.500000 0.963899 0.250000
O O2 0.263695 0.855110 0.121613
O O3 0.051757 0.964017 0.084358
O O4 0.320717 0.978945 0.077450
O O5 0.677343 0.100302 0.125311
O O6 0.000000 0.013955 0.250000
O O7 0.958042 0.097856 0.130561
O O8 0.736428 0.980041 0.061604
O O9 0.188721 0.381606 0.948700
O O10 0.365893 0.731646 0.112878
O O11 0.029227 0.733310 0.072751
O O12 0.985237 0.801350 0.943263
O O13 0.796820 0.319346 0.761819
#
# Coordination Sequence:
#
# PCOD9267371 Si02
#       6
#     8   8   8   8   8   8
#     4  11  25  40  63  85 127 168 210 257 309 382
#     4   9  18  36  62  90 123 161 201 253 314 371
#     4  11  24  40  58  95 126 165 205 259 322 370
#     4  10  19  39  61  91 119 168 211 248 303 375
#     4   9  18  35  65  89 121 161 209 244 305 381
#     4  10  21  36  64  94 126 159 207 266 311 365
#
# _framework density 21.257930000000002
#
# number of rings (size 3 to 8) (size 9 to 14) (size 15 to 20)
#    0.000    2.000    1.667    3.000    4.667    0.667 
#    0.000    0.000    0.000    2.000    0.000    0.000 
#    0.000    0.000    0.000    0.000    0.000    0.000 
#
# Total GULP energy -133913.366001 kJ/mol
# GULP energy per Si atom -5579.723583 kJ/mol
# Density = 2.120955 g / cm^3
# Si number density = 21.257930 Si / 1000 Ang^3
#
#
#
# Elastic Constant Matrix: (Units=GPa)
#
#
# Indices 1 2 3 4 5 6 
#
# 1 31.9308 2.1119 29.8657 0.0000 1.1309 0.0001
# 2 2.1119 67.5703 32.2770 0.0000 -3.9594 0.0000
# 3 29.8657 32.2770 174.4636 0.0002 -13.9596 0.0000
# 4 0.0000 0.0000 0.0002 28.3141 -0.0001 -2.1486
# 5 1.1309 -3.9594 -13.9596 -0.0001 15.7736 -0.0001
# 6 0.0001 0.0000 0.0000 -2.1486 -0.0001 11.1217
#
#
#
# Elastic Compliance Matrix: (Units=1/GPa)
#
#
# Indices 1 2 3 4 5 6 
#
# 1 0.038733 0.001942 -0.007720 0.000000 -0.009121 0.000000
# 2 0.001942 0.016366 -0.003275 0.000000 0.001071 0.000000
# 3 -0.007720 -0.003275 0.008220 0.000000 0.007006 0.000000
# 4 0.000000 0.000000 0.000000 0.035844 0.000000 0.006924
# 5 -0.009121 0.001071 0.007006 0.000000 0.070520 0.000001
# 6 0.000000 0.000000 0.000000 0.006924 0.000001 0.091252
#
#
# Mechanical properties :
#
#
# Convention : Reuss Voigt Hill
#
# Bulk Modulus (GPa) = 22.11682 44.71934 33.41808
# Shear Modulus (GPa) = 17.00054 25.02257 21.01156
#
# Velocity S-wave (km/s) = 2.83101 3.43460 3.14731
# Velocity P-wave (km/s) = 4.59487 6.06720 5.38162
#
# Compressibility (1/GPa) = 0.04521447
#
# Stress axis : x y z
#
# Youngs Moduli (GPa) = 25.81798 61.10362 121.65807
#
# Poissons Ratio (x) = -0.11869 0.93916
# Poissons Ratio (y) = -0.05015 0.39838
# Poissons Ratio (z) = 0.19931 0.20009
#
# Static dielectric constant tensor:
#      x y z
#    x 1.838650 0.000000 0.041080 
#    y 0.000000 1.750420 0.000000 
#    z 0.041080 0.000000 1.787710 
# 
# From -- ./inp_files/270652.got.cif
#   From: 2010.05.17/outbox.cif.g08.bks.cpg/sg15_136_cif.got.tgz:270652.got - 2010.06.03 18:47:42.
