data_PCOD9267941
_publ_section_title
;
Structure prediction by ZEFSAII (Michael W. Deem and Ramdas Pophale) SiO2 
 PCOD9267941
Probable space group: C 2/C
;
_chemical_formula_sum "Si O2"
_cell_formula_units_Z 40
_cell_length_a 23.630897
_cell_length_b 6.830394
_cell_length_c 14.234771
_cell_angle_alpha 90.000000
_cell_angle_beta 126.875791
_cell_angle_gamma 90.000000
_cell_volume 1837.946766
_symmetry_space_group_name_H-M "C 2/C"
_symmetry_group_IT_number 15
_symmetry_cell_setting 'monoclinic'
loop_
_space_group_symop_operation_xyz
x,y,z
-x,y,1/2-z
-x,-y,-z
x,-y,1/2+z
1/2+x,1/2+y,z
1/2-x,1/2+y,1/2-z
1/2-x,1/2-y,-z
1/2+x,1/2-y,1/2+z
loop_
_atom_site_type_symbol
_atom_site_label
_atom_site_fract_x
_atom_site_fract_y
_atom_site_fract_z
Si Si1 0.708008 0.569537 0.910768
Si Si2 0.826971 0.574282 0.893608
Si Si3 0.639186 0.502122 0.025790
Si Si4 0.969639 0.319442 0.617448
Si Si5 0.615500 0.211367 0.172714
O O1 0.762548 0.486477 0.888683
O O2 0.643874 0.667150 0.789466
O O3 0.750000 0.750000 0.000000
O O4 0.678462 0.445859 0.968440
O O5 0.820134 0.810286 0.887304
O O6 0.839428 0.483451 0.804105
O O7 0.901854 0.549241 0.023188
O O8 0.629003 0.340780 0.093824
O O9 0.564194 0.601665 0.922765
O O10 0.000000 0.361968 0.750000
O O11 0.034023 0.335984 0.609542
#
# Coordination Sequence:
#
# PCOD9267941 Si02
#       5
#     8   8   8   8   8
#     4  10  21  41  58  88 123 153 191 250 295 337
#     4   9  23  36  60  90 115 155 200 235 294 353
#     4   9  22  39  60  87 120 151 200 236 300 340
#     4  10  19  41  61  85 123 158 188 250 297 339
#     4  12  21  39  66  84 120 159 197 242 291 355
#
# _framework density 21.763415999999999
#
# number of rings (size 3 to 8) (size 9 to 14) (size 15 to 20)
#    1.200    0.800    2.000    1.200    5.600    0.800 
#    0.000    7.000    0.000    0.000    0.000    0.000 
#    0.000    0.000    0.000    0.000    0.000    0.000 
#
# Total GULP energy -111501.710400 kJ/mol
# GULP energy per Si atom -5575.085520 kJ/mol
# Density = 2.171388 g / cm^3
# Si number density = 21.763416 Si / 1000 Ang^3
#
#
#
# Elastic Constant Matrix: (Units=GPa)
#
#
# Indices 1 2 3 4 5 6 
#
# 1 160.7447 16.6968 8.5415 0.0000 -7.8054 0.0000
# 2 16.6968 35.9020 6.9914 0.0000 -5.6659 0.0000
# 3 8.5415 6.9914 75.5789 0.0000 3.5514 0.0000
# 4 0.0000 0.0000 0.0000 22.5567 0.0000 -10.8665
# 5 -7.8054 -5.6659 3.5514 0.0000 30.0063 0.0000
# 6 0.0000 0.0000 0.0000 -10.8665 0.0000 15.8987
#
#
#
# Elastic Compliance Matrix: (Units=1/GPa)
#
#
# Indices 1 2 3 4 5 6 
#
# 1 0.006598 -0.002763 -0.000549 0.000000 0.001260 0.000000
# 2 -0.002763 0.030525 -0.002764 0.000000 0.005372 0.000000
# 3 -0.000549 -0.002764 0.013656 0.000000 -0.002281 0.000000
# 4 0.000000 0.000000 0.000000 0.066095 0.000000 0.045175
# 5 0.001260 0.005372 -0.002281 0.000000 0.034938 0.000000
# 6 0.000000 0.000000 0.000000 0.045175 0.000000 0.093774
#
#
# Mechanical properties :
#
#
# Convention : Reuss Voigt Hill
#
# Bulk Modulus (GPa) = 25.88866 37.40945 31.64905
# Shear Modulus (GPa) = 18.47643 29.69205 24.08424
#
# Velocity S-wave (km/s) = 2.91687 3.69766 3.33023
# Velocity P-wave (km/s) = 4.82343 5.95456 5.41859
#
# Compressibility (1/GPa) = 0.03862695
#
# Stress axis : x y z
#
# Youngs Moduli (GPa) = 151.55206 32.76047 73.22712
#
# Poissons Ratio (x) = 0.09051 0.04023
# Poissons Ratio (y) = 0.41873 0.20239
# Poissons Ratio (z) = 0.08325 0.09055
#
# Static dielectric constant tensor:
#      x y z
#    x 1.818930 0.000000 0.003820 
#    y 0.000000 1.839920 0.000000 
#    z 0.003820 0.000000 1.780360 
# 
# From -- ./inp_files/171132.got.cif
#   From: 2010.05.17/outbox.cif.g08.bks.cpg/sg15_86_cif.got.tgz:171132.got - 2010.06.03 18:47:42.
