data_PCOD9267851
_publ_section_title
;
Structure prediction by ZEFSAII (Michael W. Deem and Ramdas Pophale) SiO2 
 PCOD9267851
Probable space group: C 2/C
;
_chemical_formula_sum "Si O2"
_cell_formula_units_Z 60
_cell_length_a 17.501787
_cell_length_b 13.765768
_cell_length_c 11.595249
_cell_angle_alpha 90.000000
_cell_angle_beta 106.980733
_cell_angle_gamma 90.000000
_cell_volume 2671.799458
_symmetry_space_group_name_H-M "C 2/C"
_symmetry_group_IT_number 15
_symmetry_cell_setting 'monoclinic'
loop_
_space_group_symop_operation_xyz
x,y,z
-x,y,1/2-z
-x,-y,-z
x,-y,1/2+z
1/2+x,1/2+y,z
1/2-x,1/2+y,1/2-z
1/2-x,1/2-y,-z
1/2+x,1/2-y,1/2+z
loop_
_atom_site_type_symbol
_atom_site_label
_atom_site_fract_x
_atom_site_fract_y
_atom_site_fract_z
Si Si1 0.233231 0.377502 0.864514
Si Si2 0.694813 0.426023 0.155665
Si Si3 0.088128 0.651015 0.141593
Si Si4 0.345719 0.265915 0.532560
Si Si5 0.352466 0.217006 0.973998
Si Si6 0.500000 0.993299 0.750000
Si Si7 0.584999 0.654635 0.791667
Si Si8 0.624189 0.847417 0.251104
O O1 0.294530 0.464659 0.881818
O O2 0.170536 0.387837 0.733742
O O3 0.279194 0.275012 0.881980
O O4 0.182427 0.367659 0.959846
O O5 0.651531 0.410193 0.258832
O O6 0.784135 0.383190 0.207612
O O7 0.648122 0.364527 0.037344
O O8 0.018629 0.577303 0.149355
O O9 0.073938 0.750855 0.204841
O O10 0.110595 0.682640 0.023664
O O11 0.250000 0.250000 0.500000
O O12 0.379959 0.250407 0.674818
O O13 0.402725 0.174296 0.891244
O O14 0.391383 0.297186 0.075861
O O15 0.425887 0.066228 0.714115
O O16 0.500000 0.602525 0.750000
#
# Coordination Sequence:
#
# PCOD9267851 Si02
#       8
#     8   8   8   8   8   4   8   8
#     4  10  19  40  67  96 123 168 226 275 328 400
#     4  10  20  38  65  93 120 170 231 268 322 407
#     4  10  20  39  62  94 133 170 214 272 334 398
#     4   9  20  38  60  86 132 178 211 266 329 386
#     4  10  22  41  65  92 133 173 212 279 343 393
#     4  12  24  38  60 102 132 172 222 264 342 406
#     4  10  21  41  68  92 124 167 217 277 342 392
#     4  11  23  40  55  94 138 172 213 260 338 407
#
# _framework density 22.456775
#
# number of rings (size 3 to 8) (size 9 to 14) (size 15 to 20)
#    0.000    1.867    2.000    4.000    0.000    4.800 
#    9.600    0.667    1.467    0.000    0.000    0.000 
#    0.000    0.000    0.000    0.000    0.000    0.000 
#
# Total GULP energy -167479.667785 kJ/mol
# GULP energy per Si atom -5582.655593 kJ/mol
# Density = 2.240566 g / cm^3
# Si number density = 22.456775 Si / 1000 Ang^3
#
#
#
# Elastic Constant Matrix: (Units=GPa)
#
#
# Indices 1 2 3 4 5 6 
#
# 1 109.3053 27.5706 28.5996 0.0000 -9.9672 0.0000
# 2 27.5706 78.9756 33.0008 0.0000 -10.1236 0.0000
# 3 28.5996 33.0008 92.4615 0.0000 -20.5899 0.0000
# 4 0.0000 0.0000 0.0000 16.4791 0.0000 -2.8251
# 5 -9.9672 -10.1236 -20.5899 0.0000 18.8443 0.0000
# 6 0.0000 0.0000 0.0000 -2.8251 0.0000 37.6328
#
#
#
# Elastic Compliance Matrix: (Units=1/GPa)
#
#
# Indices 1 2 3 4 5 6 
#
# 1 0.010484 -0.002621 -0.001832 0.000000 0.002136 0.000000
# 2 -0.002621 0.015657 -0.004246 0.000000 0.002385 0.000000
# 3 -0.001832 -0.004246 0.016088 0.000000 0.014328 0.000000
# 4 0.000000 0.000000 0.000000 0.061474 0.000000 0.004615
# 5 0.002136 0.002385 0.014328 0.000000 0.071133 0.000000
# 6 0.000000 0.000000 0.000000 0.004615 0.000000 0.026919
#
#
# Mechanical properties :
#
#
# Convention : Reuss Voigt Hill
#
# Bulk Modulus (GPa) = 40.27174 51.00937 45.64055
# Shear Modulus (GPa) = 21.98475 27.36267 24.67371
#
# Velocity S-wave (km/s) = 3.13226 3.49443 3.31829
# Velocity P-wave (km/s) = 5.57255 6.24861 5.92024
#
# Compressibility (1/GPa) = 0.02483131
#
# Stress axis : x y z
#
# Youngs Moduli (GPa) = 95.38561 63.86823 62.15715
#
# Poissons Ratio (x) = 0.16738 0.11386
# Poissons Ratio (y) = 0.24998 0.26395
# Poissons Ratio (z) = 0.17473 0.27121
#
# Static dielectric constant tensor:
#      x y z
#    x 1.944040 0.000000 0.007970 
#    y 0.000000 1.829190 0.000000 
#    z 0.007970 0.000000 1.884360 
# 
# From -- ./inp_files/105389.got.cif
#   From: 2010.05.17/outbox.cif.g08.bks.cpg/sg15_53_cif.got.tgz:105389.got - 2010.06.03 18:47:42.
