data_PCOD9267853
_publ_section_title
;
Structure prediction by ZEFSAII (Michael W. Deem and Ramdas Pophale) SiO2 
 PCOD9267853
Probable space group: C 2/C
;
_chemical_formula_sum "Si O2"
_cell_formula_units_Z 40
_cell_length_a 8.636237
_cell_length_b 22.602272
_cell_length_c 13.481040
_cell_angle_alpha 90.000000
_cell_angle_beta 137.706502
_cell_angle_gamma 90.000000
_cell_volume 1770.797975
_symmetry_space_group_name_H-M "C 2/C"
_symmetry_group_IT_number 15
_symmetry_cell_setting 'monoclinic'
loop_
_space_group_symop_operation_xyz
x,y,z
-x,y,1/2-z
-x,-y,-z
x,-y,1/2+z
1/2+x,1/2+y,z
1/2-x,1/2+y,1/2-z
1/2-x,1/2-y,-z
1/2+x,1/2-y,1/2+z
loop_
_atom_site_type_symbol
_atom_site_label
_atom_site_fract_x
_atom_site_fract_y
_atom_site_fract_z
Si Si1 0.192867 0.980445 0.764365
Si Si2 0.330413 0.671596 0.753789
Si Si3 0.004088 0.223637 0.144630
Si Si4 0.528875 0.610348 0.487534
Si Si5 0.544397 0.916067 0.442297
O O1 0.000000 0.006488 0.750000
O O2 0.097914 0.946477 0.621794
O O3 0.388564 0.028419 0.834870
O O4 0.308636 0.933408 0.892768
O O5 0.500000 0.693497 0.750000
O O6 0.196867 0.725420 0.742236
O O7 0.125459 0.635324 0.607083
O O8 0.448449 0.624807 0.885562
O O9 0.000000 0.194182 0.250000
O O10 0.069744 0.171932 0.100705
O O11 0.750000 0.250000 0.000000
O O12 0.785918 0.604426 0.564210
#
# Coordination Sequence:
#
# PCOD9267853 Si02
#       5
#     8   8   8   8   8
#     4   9  20  37  67 101 130 170 217 278 329 392
#     4  12  26  42  63  95 135 173 220 282 328 389
#     4  12  22  43  72  99 126 174 219 269 332 411
#     4  11  23  42  68  96 131 177 224 266 333 402
#     4  10  19  40  67  96 130 169 221 267 331 397
#
# _framework density 22.588687
#
# number of rings (size 3 to 8) (size 9 to 14) (size 15 to 20)
#    0.000    1.200    4.000    3.000    0.000    1.600 
#    0.000    5.000    0.000    0.000    0.000    0.000 
#    0.000    0.000    0.000    0.000    0.000    0.000 
#
# Total GULP energy -111704.318623 kJ/mol
# GULP energy per Si atom -5585.215931 kJ/mol
# Density = 2.253727 g / cm^3
# Si number density = 22.588687 Si / 1000 Ang^3
#
#
#
# Elastic Constant Matrix: (Units=GPa)
#
#
# Indices 1 2 3 4 5 6 
#
# 1 49.8316 17.8977 25.5955 0.0000 -1.4146 0.0000
# 2 17.8977 60.2132 14.4304 0.0000 4.4114 0.0000
# 3 25.5955 14.4304 78.2653 0.0000 -4.7146 0.0000
# 4 0.0000 0.0000 0.0000 31.4174 0.0000 -6.3939
# 5 -1.4146 4.4114 -4.7146 0.0000 26.6732 0.0000
# 6 0.0000 0.0000 0.0000 -6.3939 0.0000 10.8287
#
#
#
# Elastic Compliance Matrix: (Units=1/GPa)
#
#
# Indices 1 2 3 4 5 6 
#
# 1 0.026043 -0.006063 -0.007334 0.000000 0.001088 0.000000
# 2 -0.006063 0.019112 -0.001770 0.000000 -0.003795 0.000000
# 3 -0.007334 -0.001770 0.015663 0.000000 0.002672 0.000000
# 4 0.000000 0.000000 0.000000 0.036177 0.000000 0.021361
# 5 0.001088 -0.003795 0.002672 0.000000 0.038648 0.000000
# 6 0.000000 0.000000 0.000000 0.021361 0.000000 0.104959
#
#
# Mechanical properties :
#
#
# Convention : Reuss Voigt Hill
#
# Bulk Modulus (GPa) = 32.80296 33.79524 33.29910
# Shear Modulus (GPa) = 17.78750 22.47630 20.13190
#
# Velocity S-wave (km/s) = 2.80920 3.15782 2.98860
# Velocity P-wave (km/s) = 5.00755 5.31878 5.16551
#
# Compressibility (1/GPa) = 0.03048505
#
# Stress axis : x y z
#
# Youngs Moduli (GPa) = 38.39816 52.32320 63.84637
#
# Poissons Ratio (x) = 0.31724 0.46822
# Poissons Ratio (y) = 0.23281 0.11298
# Poissons Ratio (z) = 0.28159 0.09259
#
# Static dielectric constant tensor:
#      x y z
#    x 1.836570 0.000000 -0.005660 
#    y 0.000000 1.848810 0.000000 
#    z -0.005660 0.000000 1.900520 
# 
# From -- ./inp_files/137103.got.cif
#   From: 2010.05.17/outbox.cif.g08.bks.cpg/sg15_69_cif.got.tgz:137103.got - 2010.06.03 18:47:42.
