data_PCOD9267825
_publ_section_title
;
Structure prediction by ZEFSAII (Michael W. Deem and Ramdas Pophale) SiO2 
 PCOD9267825
Probable space group: C 2/C
;
_chemical_formula_sum "Si O2"
_cell_formula_units_Z 52
_cell_length_a 15.348074
_cell_length_b 14.295872
_cell_length_c 14.853385
_cell_angle_alpha 90.000000
_cell_angle_beta 40.198406
_cell_angle_gamma 90.000000
_cell_volume 2103.504539
_symmetry_space_group_name_H-M "C 2/C"
_symmetry_group_IT_number 15
_symmetry_cell_setting 'monoclinic'
loop_
_space_group_symop_operation_xyz
x,y,z
-x,y,1/2-z
-x,-y,-z
x,-y,1/2+z
1/2+x,1/2+y,z
1/2-x,1/2+y,1/2-z
1/2-x,1/2-y,-z
1/2+x,1/2-y,1/2+z
loop_
_atom_site_type_symbol
_atom_site_label
_atom_site_fract_x
_atom_site_fract_y
_atom_site_fract_z
Si Si1 0.436550 0.786798 0.625093
Si Si2 0.000000 0.461159 0.250000
Si Si3 0.500000 0.342309 0.750000
Si Si4 0.399724 0.000638 0.659118
Si Si5 0.000000 0.836013 0.250000
Si Si6 0.358422 0.544167 0.111093
Si Si7 0.364357 0.251631 0.685640
Si Si8 0.291387 0.510065 0.958877
O O1 0.402015 0.891110 0.690135
O O2 0.493108 0.726959 0.664691
O O3 0.544970 0.803171 0.459270
O O4 0.299871 0.739375 0.689736
O O5 0.918692 0.427063 0.226349
O O6 0.872313 0.501590 0.411548
O O7 0.439196 0.274190 0.721054
O O8 0.374946 0.413724 0.872588
O O9 0.248274 0.010230 0.743155
O O10 0.500000 0.000000 0.500000
O O11 0.869185 0.904372 0.349565
O O12 0.373478 0.646573 0.133520
O O13 0.500000 0.500000 0.000000
O O14 0.314493 0.534807 0.044113
#
# Coordination Sequence:
#
# PCOD9267825 Si02
#       8
#     8   4   4   8   4   8   8   8
#     4  11  26  44  66 100 137 180 223 278 345 404
#     4  10  23  40  62 102 137 162 222 280 329 396
#     4  11  24  44  70  97 138 184 238 271 326 400
#     4  10  24  41  63  93 129 171 217 277 329 392
#     4  11  23  42  72 101 141 178 216 275 357 406
#     4  10  19  40  66  96 130 167 225 269 327 399
#     4  11  25  44  66  99 138 179 227 276 330 410
#     4  10  22  40  71 104 132 176 217 284 338 399
#
# _framework density 24.720651
#
# number of rings (size 3 to 8) (size 9 to 14) (size 15 to 20)
#    0.000    1.538    3.077    0.462    6.462    2.462 
#    0.000    0.769    0.000    0.000    0.000    0.000 
#    0.000    0.000    0.000    0.000    0.000    0.000 
#
# Total GULP energy -144798.276323 kJ/mol
# GULP energy per Si atom -5569.164474 kJ/mol
# Density = 2.466439 g / cm^3
# Si number density = 24.720651 Si / 1000 Ang^3
#
#
#
# Elastic Constant Matrix: (Units=GPa)
#
#
# Indices 1 2 3 4 5 6 
#
# 1 97.4460 26.1761 15.0706 0.0000 14.9511 0.0000
# 2 26.1761 108.1767 32.3220 0.0000 3.4466 0.0000
# 3 15.0706 32.3220 153.6053 0.0000 -10.6657 0.0000
# 4 0.0000 0.0000 0.0000 27.4111 0.0000 11.5237
# 5 14.9511 3.4466 -10.6657 0.0000 50.7685 0.0000
# 6 0.0000 0.0000 0.0000 11.5237 0.0000 12.5880
#
#
#
# Elastic Compliance Matrix: (Units=1/GPa)
#
#
# Indices 1 2 3 4 5 6 
#
# 1 0.011575 -0.002434 -0.000861 0.000000 -0.003424 0.000000
# 2 -0.002434 0.010440 -0.001986 0.000000 -0.000409 0.000000
# 3 -0.000861 -0.001986 0.007144 0.000000 0.001889 0.000000
# 4 0.000000 0.000000 0.000000 0.059306 0.000000 -0.054291
# 5 -0.003424 -0.000409 0.001889 0.000000 0.021130 0.000000
# 6 0.000000 0.000000 0.000000 -0.054291 0.000000 0.129142
#
#
# Mechanical properties :
#
#
# Convention : Reuss Voigt Hill
#
# Bulk Modulus (GPa) = 53.77937 56.26283 55.02110
# Shear Modulus (GPa) = 19.56965 37.19747 28.38356
#
# Velocity S-wave (km/s) = 2.81665 3.88327 3.39214
# Velocity P-wave (km/s) = 5.69035 6.55097 6.13577
#
# Compressibility (1/GPa) = 0.01859449
#
# Stress axis : x y z
#
# Youngs Moduli (GPa) = 86.39614 95.78809 139.98097
#
# Poissons Ratio (x) = 0.23318 0.12054
# Poissons Ratio (y) = 0.21032 0.27805
# Poissons Ratio (z) = 0.07440 0.19027
#
# Static dielectric constant tensor:
#      x y z
#    x 1.892560 0.000000 -0.006950 
#    y 0.000000 2.039700 0.000000 
#    z -0.006950 0.000000 2.019420 
# 
# From -- ./inp_files/155457.got.cif
#   From: 2010.05.17/outbox.cif.g08.bks.cpg/sg15_78_cif.got.tgz:155457.got - 2010.06.03 18:47:42.
