data_PCOD9267277
_publ_section_title
;
Structure prediction by ZEFSAII (Michael W. Deem and Ramdas Pophale) SiO2 
 PCOD9267277
Probable space group: C 2/C
;
_chemical_formula_sum "Si O2"
_cell_formula_units_Z 48
_cell_length_a 26.064678
_cell_length_b 8.875014
_cell_length_c 13.401719
_cell_angle_alpha 90.000000
_cell_angle_beta 142.485433
_cell_angle_gamma 90.000000
_cell_volume 1887.873565
_symmetry_space_group_name_H-M "C 2/C"
_symmetry_group_IT_number 15
_symmetry_cell_setting 'monoclinic'
loop_
_space_group_symop_operation_xyz
x,y,z
-x,y,1/2-z
-x,-y,-z
x,-y,1/2+z
1/2+x,1/2+y,z
1/2-x,1/2+y,1/2-z
1/2-x,1/2-y,-z
1/2+x,1/2-y,1/2+z
loop_
_atom_site_type_symbol
_atom_site_label
_atom_site_fract_x
_atom_site_fract_y
_atom_site_fract_z
Si Si1 0.124379 0.662851 0.857233
Si Si2 0.742574 0.421547 0.798360
Si Si3 0.111789 0.171883 0.787703
Si Si4 0.063312 0.797449 0.575763
Si Si5 0.726362 0.055585 0.385459
Si Si6 0.391697 0.118125 0.042935
O O1 0.064057 0.765205 0.696553
O O2 0.196769 0.701002 0.051198
O O3 0.177782 0.589083 0.849793
O O4 0.079865 0.528086 0.849712
O O5 0.645932 0.395651 0.676293
O O6 0.754240 0.419437 0.698919
O O7 0.790914 0.580459 0.894430
O O8 0.184297 0.051372 0.919815
O O9 0.027133 0.139113 0.597761
O O10 0.163635 0.308820 0.818010
O O11 0.088930 0.237083 0.861326
O O12 0.076080 0.651584 0.518939
#
# Coordination Sequence:
#
# PCOD9267277 Si02
#       6
#     8   8   8   8   8   8
#     4   9  20  37  57  85 117 148 187 234 290 332
#     4  10  21  36  58  86 113 157 183 234 290 341
#     4  10  22  36  61  85 110 150 193 239 272 339
#     4  12  20  38  61  87 112 148 200 232 273 347
#     4  10  19  39  57  83 118 150 190 230 292 333
#     4   9  20  34  53  87 110 144 184 232 283 328
#
# _framework density 25.425432000000001
#
# number of rings (size 3 to 8) (size 9 to 14) (size 15 to 20)
#    1.000    1.000    3.333    1.000    0.000    2.667 
#    3.000    1.667    0.000    0.000    0.000    0.000 
#    0.000    0.000    0.000    0.000    0.000    0.000 
#
# Total GULP energy -133775.865024 kJ/mol
# GULP energy per Si atom -5573.994376 kJ/mol
# Density = 2.536756 g / cm^3
# Si number density = 25.425432 Si / 1000 Ang^3
#
#
#
# Elastic Constant Matrix: (Units=GPa)
#
#
# Indices 1 2 3 4 5 6 
#
# 1 109.9971 8.6663 61.4215 0.0000 -15.9842 0.0000
# 2 8.6663 26.9597 28.9033 0.0000 -0.3736 0.0000
# 3 61.4215 28.9033 231.7688 0.0000 -9.4044 0.0000
# 4 0.0000 0.0000 0.0000 14.1101 0.0000 -43.2699
# 5 -15.9842 -0.3736 -9.4044 0.0000 51.2053 0.0000
# 6 0.0000 0.0000 0.0000 -43.2699 0.0000 -33.7125
#
#
#
# Elastic Compliance Matrix: (Units=1/GPa)
#
#
# Indices 1 2 3 4 5 6 
#
# 1 0.011102 -0.000580 -0.002750 0.000000 0.002956 0.000000
# 2 -0.000580 0.042870 -0.005226 0.000000 -0.000828 0.000000
# 3 -0.002750 -0.005226 0.005701 0.000000 0.000151 0.000000
# 4 0.000000 0.000000 0.000000 0.014358 0.000000 -0.018429
# 5 0.002956 -0.000828 0.000151 0.000000 0.020474 0.000000
# 6 0.000000 0.000000 0.000000 -0.018429 0.000000 -0.006009
#
#
# Mechanical properties :
#
#
# Convention : Reuss Voigt Hill
#
# Bulk Modulus (GPa) = 23.49519 62.96752 43.23136
# Shear Modulus (GPa) = 41.73813 24.30289 33.02051
#
# Velocity S-wave (km/s) = 4.05605 3.09504 3.60768
# Velocity P-wave (km/s) = 5.58536 6.13120 5.86464
#
# Compressibility (1/GPa) = 0.04256191
#
# Stress axis : x y z
#
# Youngs Moduli (GPa) = 90.07437 23.32621 175.39983
#
# Poissons Ratio (x) = 0.01352 0.48233
# Poissons Ratio (y) = 0.05221 0.91668
# Poissons Ratio (z) = 0.24770 0.12191
#
# Static dielectric constant tensor:
#      x y z
#    x 1.973390 0.000000 -0.053340 
#    y 0.000000 2.086340 0.000000 
#    z -0.053340 0.000000 2.123540 
# 
# From -- ./inp_files/178207.got.cif
#   From: 2010.05.17/outbox.cif.g08.bks.cpg/sg15_90_cif.got.tgz:178207.got - 2010.06.03 18:47:42.
