data_PCOD9267031
_publ_section_title
;
Structure prediction by ZEFSAII (Michael W. Deem and Ramdas Pophale) SiO2 
 PCOD9267031
Probable space group: C 2/C
;
_chemical_formula_sum "Si O2"
_cell_formula_units_Z 56
_cell_length_a 13.452667
_cell_length_b 15.165811
_cell_length_c 17.876106
_cell_angle_alpha 90.000000
_cell_angle_beta 126.138921
_cell_angle_gamma 90.000000
_cell_volume 2945.354633
_symmetry_space_group_name_H-M "C 2/C"
_symmetry_group_IT_number 15
_symmetry_cell_setting 'monoclinic'
loop_
_space_group_symop_operation_xyz
x,y,z
-x,y,1/2-z
-x,-y,-z
x,-y,1/2+z
1/2+x,1/2+y,z
1/2-x,1/2+y,1/2-z
1/2-x,1/2-y,-z
1/2+x,1/2-y,1/2+z
loop_
_atom_site_type_symbol
_atom_site_label
_atom_site_fract_x
_atom_site_fract_y
_atom_site_fract_z
Si Si1 0.838810 0.436510 0.800683
Si Si2 0.500000 0.987590 0.250000
Si Si3 0.837245 0.580012 0.543118
Si Si4 0.279555 0.921081 0.402196
Si Si5 0.021867 0.683154 0.024908
Si Si6 0.408745 0.470428 0.853960
Si Si7 0.389943 0.622237 0.957565
Si Si8 0.500000 0.565059 0.750000
O O1 0.897394 0.457283 0.747313
O O2 0.823033 0.520814 0.849368
O O3 0.924858 0.368468 0.880550
O O4 0.699475 0.408370 0.723863
O O5 0.567681 0.937679 0.347422
O O6 0.796831 0.490177 0.480049
O O7 0.905296 0.640991 0.513097
O O8 0.720245 0.624049 0.531374
O O9 0.377734 0.842144 0.454460
O O10 0.136613 0.892875 0.325251
O O11 0.062483 0.783840 0.048748
O O12 0.356244 0.556012 0.874848
O O13 0.481293 0.505963 0.814973
O O14 0.495816 0.420572 0.948853
#
# Coordination Sequence:
#
# PCOD9267031 Si02
#       8
#     8   4   8   8   8   8   8   4
#     4  10  20  37  63  88 123 161 207 250 310 375
#     4  12  18  34  66  94 114 162 210 248 302 388
#     4  11  20  38  63  91 126 161 200 256 315 379
#     4  10  19  38  64  88 123 166 205 243 318 376
#     4  11  22  40  60  96 128 158 197 271 318 361
#     4  10  22  41  62  84 118 172 207 248 305 389
#     4  11  23  40  63  88 126 161 209 255 317 369
#     4  10  20  38  68  84 110 168 220 242 294 384
#
# _framework density 19.012991
#
# number of rings (size 3 to 8) (size 9 to 14) (size 15 to 20)
#    0.000    1.429    5.714    1.286    0.000    0.000 
#    7.714    1.429    0.000    0.000    0.000    0.000 
#    0.000    0.000    0.000    0.000    0.000    0.000 
#
# Total GULP energy -156055.355621 kJ/mol
# GULP energy per Si atom -5573.405558 kJ/mol
# Density = 1.896972 g / cm^3
# Si number density = 19.012991 Si / 1000 Ang^3
#
#
#
# Elastic Constant Matrix: (Units=GPa)
#
#
# Indices 1 2 3 4 5 6 
#
# 1 85.0435 20.9653 10.2960 0.0000 13.7745 0.0000
# 2 20.9653 36.4357 10.6016 0.0000 11.8595 0.0000
# 3 10.2960 10.6016 79.4966 0.0000 4.4591 0.0000
# 4 0.0000 0.0000 0.0000 -2.3571 0.0000 7.1406
# 5 13.7745 11.8595 4.4591 0.0000 43.8526 0.0000
# 6 0.0000 0.0000 0.0000 7.1406 0.0000 15.3555
#
#
#
# Elastic Compliance Matrix: (Units=1/GPa)
#
#
# Indices 1 2 3 4 5 6 
#
# 1 0.013974 -0.007042 -0.000736 0.000000 -0.002410 0.000000
# 2 -0.007042 0.034691 -0.003331 0.000000 -0.006831 0.000000
# 3 -0.000736 -0.003331 0.013130 0.000000 -0.000203 0.000000
# 4 0.000000 0.000000 0.000000 -0.176130 0.000000 0.081904
# 5 -0.002410 -0.006831 -0.000203 0.000000 0.025429 0.000000
# 6 0.000000 0.000000 0.000000 0.081904 0.000000 0.027036
#
#
# Mechanical properties :
#
#
# Convention : Reuss Voigt Hill
#
# Bulk Modulus (GPa) = 25.26727 31.63351 28.45039
# Shear Modulus (GPa) = -188.96420 21.97773 -83.49324
#
# Velocity S-wave (km/s) = -9.98011 3.40359 -6.63394
# Velocity P-wave (km/s) = 10.93093 5.66744 6.60929
#
# Compressibility (1/GPa) = 0.03957689
#
# Stress axis : x y z
#
# Youngs Moduli (GPa) = 71.56035 28.82632 76.16129
#
# Poissons Ratio (x) = 0.20301 0.05602
# Poissons Ratio (y) = 0.50396 0.25370
# Poissons Ratio (z) = 0.05263 0.09602
#
# Static dielectric constant tensor:
#      x y z
#    x 1.684410 0.000000 0.032010 
#    y 0.000000 1.643730 0.000000 
#    z 0.032010 0.000000 1.673940 
# 
# From -- ./inp_files/205517.got.cif
#   From: 2010.05.17/outbox.cif.g08.bks.cpg/sg15_103_cif.got.tgz:205517.got - 2010.06.03 18:47:42.
