data_PCOD9267263
_publ_section_title
;
Structure prediction by ZEFSAII (Michael W. Deem and Ramdas Pophale) SiO2 
 PCOD9267263
Probable space group: C 2/C
;
_chemical_formula_sum "Si O2"
_cell_formula_units_Z 48
_cell_length_a 25.644179
_cell_length_b 7.175327
_cell_length_c 19.058893
_cell_angle_alpha 90.000000
_cell_angle_beta 32.904660
_cell_angle_gamma 90.000000
_cell_volume 1905.118953
_symmetry_space_group_name_H-M "C 2/C"
_symmetry_group_IT_number 15
_symmetry_cell_setting 'monoclinic'
loop_
_space_group_symop_operation_xyz
x,y,z
-x,y,1/2-z
-x,-y,-z
x,-y,1/2+z
1/2+x,1/2+y,z
1/2-x,1/2+y,1/2-z
1/2-x,1/2-y,-z
1/2+x,1/2-y,1/2+z
loop_
_atom_site_type_symbol
_atom_site_label
_atom_site_fract_x
_atom_site_fract_y
_atom_site_fract_z
Si Si1 0.195638 0.763579 0.326937
Si Si2 0.395557 0.006809 0.863800
Si Si3 0.623419 0.878100 0.457126
Si Si4 0.273884 0.958961 0.377480
Si Si5 0.402092 0.424760 0.327627
Si Si6 0.587232 0.298460 0.325198
O O1 0.292304 0.753624 0.170870
O O2 0.137841 0.572558 0.401500
O O3 0.230866 0.837392 0.362823
O O4 0.120382 0.876947 0.363347
O O5 0.500000 0.094765 0.750000
O O6 0.409832 0.800358 0.816410
O O7 0.335084 0.121012 0.874884
O O8 0.360242 0.948353 0.981050
O O9 0.521463 0.777984 0.560423
O O10 0.183776 0.036760 0.522907
O O11 0.342053 0.120374 0.268559
O O12 0.500000 0.495810 0.250000
O O13 0.392363 0.458363 0.255984
#
# Coordination Sequence:
#
# PCOD9267263 Si02
#       6
#     8   8   8   8   8   8
#     4  12  27  40  69 103 152 182 228 295 348 439
#     4  10  19  39  73  99 123 183 239 288 339 417
#     4  12  24  46  69 105 138 194 238 282 364 413
#     4  11  22  41  67 108 136 178 237 292 354 407
#     4  10  19  38  73 105 129 175 242 293 334 421
#     4  11  22  44  75  98 138 195 238 282 352 439
#
# _framework density 25.195276
#
# number of rings (size 3 to 8) (size 9 to 14) (size 15 to 20)
#    0.000    1.000    6.667    4.500    0.000    0.667 
#    0.000    5.833    0.000    0.000    0.000    0.000 
#    0.000    0.000    0.000    0.000    0.000    0.000 
#
# Total GULP energy -133945.037886 kJ/mol
# GULP energy per Si atom -5581.043245 kJ/mol
# Density = 2.513793 g / cm^3
# Si number density = 25.195276 Si / 1000 Ang^3
#
#
#
# Elastic Constant Matrix: (Units=GPa)
#
#
# Indices 1 2 3 4 5 6 
#
# 1 238.0406 30.1303 92.1700 0.0061 10.3649 -0.0036
# 2 30.1303 58.0709 30.5037 -0.0088 3.3877 0.0096
# 3 92.1700 30.5037 118.1816 -0.0108 2.9252 0.0110
# 4 0.0061 -0.0088 -0.0108 22.6060 0.0019 8.6555
# 5 10.3649 3.3877 2.9252 0.0019 34.1951 -0.0028
# 6 -0.0036 0.0096 0.0110 8.6555 -0.0028 20.6991
#
#
#
# Elastic Compliance Matrix: (Units=1/GPa)
#
#
# Indices 1 2 3 4 5 6 
#
# 1 0.006113 -0.000699 -0.004553 -0.000006 -0.001394 0.000006
# 2 -0.000699 0.020082 -0.004604 0.000010 -0.001384 -0.000011
# 3 -0.004553 -0.004604 0.013183 0.000009 0.000708 -0.000009
# 4 -0.000006 0.000010 0.000009 0.052669 -0.000005 -0.022024
# 5 -0.001394 -0.001384 0.000708 -0.000005 0.029743 0.000006
# 6 0.000006 -0.000011 -0.000009 -0.022024 0.000006 0.057521
#
#
# Mechanical properties :
#
#
# Convention : Reuss Voigt Hill
#
# Bulk Modulus (GPa) = 50.84683 79.98900 65.41792
# Shear Modulus (GPa) = 24.32178 32.93266 28.62722
#
# Velocity S-wave (km/s) = 3.11035 3.61930 3.37443
# Velocity P-wave (km/s) = 5.75534 7.02014 6.41897
#
# Compressibility (1/GPa) = 0.01966691
#
# Stress axis : x y z
#
# Youngs Moduli (GPa) = 163.58847 49.79548 75.85601
#
# Poissons Ratio (x) = 0.03481 0.34534
# Poissons Ratio (y) = 0.11435 0.34924
# Poissons Ratio (z) = 0.74474 0.22926
#
# Static dielectric constant tensor:
#      x y z
#    x 2.335090 -0.000010 0.034840 
#    y -0.000010 2.048980 0.000000 
#    z 0.034840 0.000000 1.981900 
# 
# From -- ./inp_files/257114.got.cif
#   From: 2010.05.17/outbox.cif.g08.bks.cpg/sg15_129_cif.got.tgz:257114.got - 2010.06.03 18:47:42.
