data_PCOD9267112
_publ_section_title
;
Structure prediction by ZEFSAII (Michael W. Deem and Ramdas Pophale) SiO2 
 PCOD9267112
Probable space group: C 2/C
;
_chemical_formula_sum "Si O2"
_cell_formula_units_Z 28
_cell_length_a 26.967771
_cell_length_b 9.503425
_cell_length_c 9.139334
_cell_angle_alpha 90.000000
_cell_angle_beta 153.730611
_cell_angle_gamma 90.000000
_cell_volume 1036.677033
_symmetry_space_group_name_H-M "C 2/C"
_symmetry_group_IT_number 15
_symmetry_cell_setting 'monoclinic'
loop_
_space_group_symop_operation_xyz
x,y,z
-x,y,1/2-z
-x,-y,-z
x,-y,1/2+z
1/2+x,1/2+y,z
1/2-x,1/2+y,1/2-z
1/2-x,1/2-y,-z
1/2+x,1/2-y,1/2+z
loop_
_atom_site_type_symbol
_atom_site_label
_atom_site_fract_x
_atom_site_fract_y
_atom_site_fract_z
Si Si1 0.418843 0.984443 0.919825
Si Si2 0.000000 0.751249 0.250000
Si Si3 0.194194 0.152666 0.699914
Si Si4 0.356441 0.395380 0.116863
O O1 0.307657 0.917043 0.566451
O O2 0.500000 0.906092 0.250000
O O3 0.403652 0.140232 0.946044
O O4 0.500000 0.000000 0.000000
O O5 0.051240 0.835196 0.250434
O O6 0.239618 0.307931 0.780196
O O7 0.158683 0.056740 0.470637
O O8 0.118228 0.132284 0.644985
#
# Coordination Sequence:
#
# PCOD9267112 Si02
#       4
#     8   4   8   8
#     4  10  19  38  65  93 121 165 217 261 296 382
#     4  10  22  38  64  94 132 166 212 264 318 378
#     4  11  23  43  67  97 128 170 215 264 323 380
#     4  11  24  42  66  94 132 170 214 264 321 383
#
# _framework density 27.009376
#
# number of rings (size 3 to 8) (size 9 to 14) (size 15 to 20)
#    0.857    0.571    2.857    3.429    0.000    5.714 
#    0.000    0.000    6.286    0.000    0.000    0.000 
#    0.000    0.000    0.000    0.000    0.000    0.000 
#
# Total GULP energy -78301.494408 kJ/mol
# GULP energy per Si atom -5592.963886 kJ/mol
# Density = 2.694790 g / cm^3
# Si number density = 27.009376 Si / 1000 Ang^3
#
#
#
# Elastic Constant Matrix: (Units=GPa)
#
#
# Indices 1 2 3 4 5 6 
#
# 1 179.8285 23.7237 24.6712 0.0000 0.0360 0.0000
# 2 23.7237 93.9742 7.6248 0.0000 -6.6293 0.0000
# 3 24.6712 7.6248 84.0003 0.0000 -4.9489 0.0000
# 4 0.0000 0.0000 0.0000 38.4549 0.0000 -4.0969
# 5 0.0360 -6.6293 -4.9489 0.0000 32.2611 0.0000
# 6 0.0000 0.0000 0.0000 -4.0969 0.0000 46.8955
#
#
#
# Elastic Compliance Matrix: (Units=1/GPa)
#
#
# Indices 1 2 3 4 5 6 
#
# 1 0.005975 -0.001413 -0.001659 0.000000 -0.000551 0.000000
# 2 -0.001413 0.011193 -0.000470 0.000000 0.002230 0.000000
# 3 -0.001659 -0.000470 0.012542 0.000000 0.001829 0.000000
# 4 0.000000 0.000000 0.000000 0.026249 0.000000 0.002293
# 5 -0.000551 0.002230 0.001829 0.000000 0.031736 0.000000
# 6 0.000000 0.000000 0.000000 0.002293 0.000000 0.021524
#
#
# Mechanical properties :
#
#
# Convention : Reuss Voigt Hill
#
# Bulk Modulus (GPa) = 44.19398 52.20472 48.19935
# Shear Modulus (GPa) = 40.37278 43.64119 42.00699
#
# Velocity S-wave (km/s) = 3.87042 4.02404 3.94797
# Velocity P-wave (km/s) = 6.03088 6.40006 6.21821
#
# Compressibility (1/GPa) = 0.02262752
#
# Stress axis : x y z
#
# Youngs Moduli (GPa) = 167.36547 89.33961 79.72943
#
# Poissons Ratio (x) = 0.12621 0.13228
# Poissons Ratio (y) = 0.23643 0.03745
# Poissons Ratio (z) = 0.27768 0.04197
#
# Static dielectric constant tensor:
#      x y z
#    x 2.125060 0.000000 -0.006780 
#    y 0.000000 2.229410 0.000000 
#    z -0.006780 0.000000 2.156320 
# 
# From -- ./inp_files/36340.got.cif
#   From: 2010.05.17/outbox.cif.g08.bks.cpg/sg15_19_cif.got.tgz:36340.got - 2010.06.03 18:47:42.
