data_PCOD9267883
_publ_section_title
;
Structure prediction by ZEFSAII (Michael W. Deem and Ramdas Pophale) SiO2 
 PCOD9267883
Probable space group: C 2/C
;
_chemical_formula_sum "Si O2"
_cell_formula_units_Z 60
_cell_length_a 19.046830
_cell_length_b 8.409995
_cell_length_c 26.356327
_cell_angle_alpha 90.000000
_cell_angle_beta 40.850162
_cell_angle_gamma 90.000000
_cell_volume 2761.444100
_symmetry_space_group_name_H-M "C 2/C"
_symmetry_group_IT_number 15
_symmetry_cell_setting 'monoclinic'
loop_
_space_group_symop_operation_xyz
x,y,z
-x,y,1/2-z
-x,-y,-z
x,-y,1/2+z
1/2+x,1/2+y,z
1/2-x,1/2+y,1/2-z
1/2-x,1/2-y,-z
1/2+x,1/2-y,1/2+z
loop_
_atom_site_type_symbol
_atom_site_label
_atom_site_fract_x
_atom_site_fract_y
_atom_site_fract_z
Si Si1 0.778107 0.261122 0.658597
Si Si2 0.814124 0.859014 0.893626
Si Si3 0.500000 0.585730 0.750000
Si Si4 0.553921 0.688650 0.414385
Si Si5 0.522943 0.342842 0.037511
Si Si6 0.234001 0.539162 0.248613
Si Si7 0.509890 0.810579 0.840387
Si Si8 0.600654 0.116095 0.570221
O O1 0.727055 0.253539 0.631256
O O2 0.903082 0.217301 0.588905
O O3 0.764480 0.435752 0.691440
O O4 0.729288 0.131331 0.724213
O O5 0.871454 0.758281 0.906535
O O6 0.899008 0.978807 0.822329
O O7 0.706303 0.925755 0.979496
O O8 0.518823 0.697981 0.787784
O O9 0.475338 0.534044 0.460796
O O10 0.588179 0.722011 0.453784
O O11 0.656614 0.618931 0.330146
O O12 0.492744 0.826475 0.417646
O O13 0.542530 0.278167 0.082638
O O14 0.129966 0.636605 0.288798
O O15 0.440942 0.970240 0.873484
#
# Coordination Sequence:
#
# PCOD9267883 Si02
#       8
#     8   8   4   8   8   8   8   8
#     4  10  21  41  63  97 132 172 217 272 338 397
#     4  11  27  46  70  97 135 186 232 283 341 414
#     4  12  30  46  68  94 142 186 226 292 348 402
#     4  10  19  40  69 101 131 179 214 275 342 406
#     4   9  20  39  64  97 137 168 219 269 334 407
#     4  10  23  37  67 100 133 168 217 283 336 400
#     4  11  26  45  63 101 134 174 232 281 343 404
#     4  11  25  47  71  99 135 184 236 276 342 420
#
# _framework density 21.727761000000001
#
# number of rings (size 3 to 8) (size 9 to 14) (size 15 to 20)
#    0.000    1.600    1.333    1.600   11.200    2.133 
#    0.000    0.000    0.000    0.000    0.000    0.000 
#    0.000    0.000    0.000    0.000    0.000    0.000 
#
# Total GULP energy -167530.433952 kJ/mol
# GULP energy per Si atom -5584.347798 kJ/mol
# Density = 2.167831 g / cm^3
# Si number density = 21.727761 Si / 1000 Ang^3
#
#
#
# Elastic Constant Matrix: (Units=GPa)
#
#
# Indices 1 2 3 4 5 6 
#
# 1 61.2777 19.0531 30.6413 0.0002 15.3070 0.0003
# 2 19.0531 62.9645 44.3231 0.0003 -0.7594 0.0002
# 3 30.6413 44.3231 95.8535 0.0000 2.9660 -0.0001
# 4 0.0002 0.0003 0.0000 30.9896 -0.0001 18.1181
# 5 15.3070 -0.7594 2.9660 -0.0001 30.0196 0.0000
# 6 0.0003 0.0002 -0.0001 18.1181 0.0000 20.1004
#
#
#
# Elastic Compliance Matrix: (Units=1/GPa)
#
#
# Indices 1 2 3 4 5 6 
#
# 1 0.022847 -0.003189 -0.005483 0.000000 -0.011189 -0.000001
# 2 -0.003189 0.024076 -0.010214 0.000000 0.003244 0.000000
# 3 -0.005483 -0.010214 0.016881 0.000000 0.000869 0.000000
# 4 0.000000 0.000000 0.000000 0.068220 0.000000 -0.061492
# 5 -0.011189 0.003244 0.000869 0.000000 0.039013 0.000000
# 6 -0.000001 0.000000 0.000000 -0.061492 0.000000 0.105178
#
#
# Mechanical properties :
#
#
# Convention : Reuss Voigt Hill
#
# Bulk Modulus (GPa) = 38.41222 45.34784 41.88003
# Shear Modulus (GPa) = 15.49595 24.62713 20.06154
#
# Velocity S-wave (km/s) = 2.67345 3.37031 3.04190
# Velocity P-wave (km/s) = 5.21987 6.00513 5.62622
#
# Compressibility (1/GPa) = 0.02603338
#
# Stress axis : x y z
#
# Youngs Moduli (GPa) = 43.76896 41.53510 59.23736
#
# Poissons Ratio (x) = 0.13246 0.32478
# Poissons Ratio (y) = 0.13958 0.60504
# Poissons Ratio (z) = 0.23997 0.42423
#
# Static dielectric constant tensor:
#      x y z
#    x 1.791760 0.000000 0.025170 
#    y 0.000000 1.854180 0.000000 
#    z 0.025170 0.000000 1.811880 
# 
# From -- ./inp_files/300503.got.cif
#   From: 2010.05.17/outbox.cif.g08.bks.cpg/sg15_151_cif.got.tgz:300503.got - 2010.06.03 18:47:42.
