data_PCOD9267123
_publ_section_title
;
Structure prediction by ZEFSAII (Michael W. Deem and Ramdas Pophale) SiO2 
 PCOD9267123
Probable space group: C 2/C
;
_chemical_formula_sum "Si O2"
_cell_formula_units_Z 48
_cell_length_a 7.943905
_cell_length_b 21.933872
_cell_length_c 19.156668
_cell_angle_alpha 90.000000
_cell_angle_beta 38.987218
_cell_angle_gamma 90.000000
_cell_volume 2100.010430
_symmetry_space_group_name_H-M "C 2/C"
_symmetry_group_IT_number 15
_symmetry_cell_setting 'monoclinic'
loop_
_space_group_symop_operation_xyz
x,y,z
-x,y,1/2-z
-x,-y,-z
x,-y,1/2+z
1/2+x,1/2+y,z
1/2-x,1/2+y,1/2-z
1/2-x,1/2-y,-z
1/2+x,1/2-y,1/2+z
loop_
_atom_site_type_symbol
_atom_site_label
_atom_site_fract_x
_atom_site_fract_y
_atom_site_fract_z
Si Si1 0.108569 0.021637 0.638418
Si Si2 0.652374 0.100982 0.463871
Si Si3 0.452879 0.565263 0.547551
Si Si4 0.590519 0.284253 0.349385
Si Si5 0.398100 0.167149 0.884310
Si Si6 0.901277 0.656518 0.423572
O O1 0.381516 0.060645 0.558692
O O2 0.000000 0.017420 0.750000
O O3 0.946199 0.057989 0.632791
O O4 0.133361 0.952914 0.599995
O O5 0.667371 0.158046 0.512491
O O6 0.635115 0.123767 0.390214
O O7 0.500000 0.500000 0.500000
O O8 0.185022 0.598990 0.611702
O O9 0.708016 0.608934 0.446829
O O10 0.725580 0.291594 0.384365
O O11 0.304410 0.316113 0.451769
O O12 0.526998 0.215376 0.347229
O O13 0.798846 0.314635 0.229349
#
# Coordination Sequence:
#
# PCOD9267123 Si02
#       6
#     8   8   8   8   8   8
#     4  10  22  37  58  92 133 166 203 263 345 396
#     4  10  21  36  60  91 123 165 213 267 321 398
#     4  10  19  38  65  95 129 169 212 276 332 397
#     4   9  20  37  58  90 120 169 215 270 315 383
#     4  10  20  34  63  96 117 166 226 264 317 387
#     4   9  20  38  58  83 130 166 205 273 323 381
#
# _framework density 22.857030000000002
#
# number of rings (size 3 to 8) (size 9 to 14) (size 15 to 20)
#    0.000    2.333    1.667    0.000    9.333    0.667 
#    3.000    0.000    0.000    4.000    0.000    0.000 
#    0.000    0.000    0.000    0.000    0.000    0.000 
#
# Total GULP energy -133730.335585 kJ/mol
# GULP energy per Si atom -5572.097316 kJ/mol
# Density = 2.280501 g / cm^3
# Si number density = 22.857030 Si / 1000 Ang^3
#
#
#
# Elastic Constant Matrix: (Units=GPa)
#
#
# Indices 1 2 3 4 5 6 
#
# 1 39.7971 8.2701 4.0679 -0.0002 1.7284 0.0000
# 2 8.2701 138.4148 28.7575 0.0000 -5.8372 0.0000
# 3 4.0679 28.7575 43.5979 -0.0009 3.9446 0.0004
# 4 -0.0002 0.0000 -0.0009 31.1520 0.0005 3.9904
# 5 1.7284 -5.8372 3.9446 0.0005 20.5067 -0.0002
# 6 0.0000 0.0000 0.0004 3.9904 -0.0002 16.5983
#
#
#
# Elastic Compliance Matrix: (Units=1/GPa)
#
#
# Indices 1 2 3 4 5 6 
#
# 1 0.025642 -0.001362 -0.001286 0.000000 -0.002302 0.000000
# 2 -0.001362 0.008700 -0.005949 0.000000 0.003736 0.000000
# 3 -0.001286 -0.005949 0.027605 0.000001 -0.006895 -0.000001
# 4 0.000000 0.000000 0.000001 0.033121 -0.000001 -0.007963
# 5 -0.002302 0.003736 -0.006895 -0.000001 0.051348 0.000001
# 6 0.000000 0.000000 -0.000001 -0.007963 0.000001 0.062161
#
#
# Mechanical properties :
#
#
# Convention : Reuss Voigt Hill
#
# Bulk Modulus (GPa) = 22.34527 33.77787 28.06157
# Shear Modulus (GPa) = 20.77376 25.69900 23.23638
#
# Velocity S-wave (km/s) = 3.01800 3.35675 3.19187
# Velocity P-wave (km/s) = 4.68420 5.46202 5.08800
#
# Compressibility (1/GPa) = 0.04475220
#
# Stress axis : x y z
#
# Youngs Moduli (GPa) = 38.99870 114.94780 36.22546
#
# Poissons Ratio (x) = 0.15656 0.04658
# Poissons Ratio (y) = 0.05312 0.21551
# Poissons Ratio (z) = 0.05015 0.68385
#
# Static dielectric constant tensor:
#      x y z
#    x 1.946910 0.000000 0.039030 
#    y 0.000000 1.914750 0.000000 
#    z 0.039030 0.000000 1.875800 
# 
# From -- ./inp_files/135475.got.cif
#   From: 2010.05.17/outbox.cif.g08.bks.cpg/sg15_68_cif.got.tgz:135475.got - 2010.06.03 18:47:42.
