data_PCOD9267681
_publ_section_title
;
Structure prediction by ZEFSAII (Michael W. Deem and Ramdas Pophale) SiO2 
 PCOD9267681
Probable space group: C 2/C
;
_chemical_formula_sum "Si O2"
_cell_formula_units_Z 60
_cell_length_a 16.351283
_cell_length_b 11.298004
_cell_length_c 16.341902
_cell_angle_alpha 90.000000
_cell_angle_beta 89.188229
_cell_angle_gamma 90.000000
_cell_volume 3018.648675
_symmetry_space_group_name_H-M "C 2/C"
_symmetry_group_IT_number 15
_symmetry_cell_setting 'monoclinic'
loop_
_space_group_symop_operation_xyz
x,y,z
-x,y,1/2-z
-x,-y,-z
x,-y,1/2+z
1/2+x,1/2+y,z
1/2-x,1/2+y,1/2-z
1/2-x,1/2-y,-z
1/2+x,1/2-y,1/2+z
loop_
_atom_site_type_symbol
_atom_site_label
_atom_site_fract_x
_atom_site_fract_y
_atom_site_fract_z
Si Si1 0.775491 0.671392 0.368265
Si Si2 0.404217 0.933798 0.736184
Si Si3 0.707944 0.603898 0.529465
Si Si4 0.860413 0.298399 0.237850
Si Si5 0.000000 0.101075 0.250000
Si Si6 0.186285 0.600136 0.425437
Si Si7 0.950354 0.961445 0.921848
Si Si8 0.849182 0.737175 0.921260
O O1 0.844716 0.606305 0.312948
O O2 0.718459 0.593443 0.430643
O O3 0.807352 0.764353 0.436275
O O4 0.718003 0.749811 0.309726
O O5 0.500000 0.905425 0.750000
O O6 0.364860 0.875582 0.655365
O O7 0.397575 0.074365 0.714976
O O8 0.786502 0.536262 0.565759
O O9 0.632798 0.532585 0.567198
O O10 0.924293 0.189704 0.235095
O O11 0.840444 0.318674 0.333038
O O12 0.987971 0.023213 0.331456
O O13 0.142274 0.641908 0.508095
O O14 0.268953 0.679198 0.427448
O O15 0.927009 0.823180 0.924936
O O16 0.000000 0.000000 0.000000
#
# Coordination Sequence:
#
# PCOD9267681 Si02
#       8
#     8   8   8   8   4   8   8   8
#     4  11  23  41  67  90 128 174 213 273 325 394
#     4  12  25  41  64 102 134 167 224 278 334 388
#     4  10  22  41  64  92 123 171 226 258 326 397
#     4  11  20  40  64  93 125 173 220 259 325 401
#     4  10  22  38  66  94 128 174 214 272 330 390
#     4  10  19  40  60  94 126 164 217 271 318 393
#     4  10  21  40  60  95 132 165 217 271 328 386
#     4   9  20  36  65  89 124 169 217 262 319 391
#
# _framework density 19.876442999999998
#
# number of rings (size 3 to 8) (size 9 to 14) (size 15 to 20)
#    0.000    1.600    3.333    1.600    0.000    1.067 
#    3.600    4.000    0.000    0.000    0.000    0.000 
#    0.000    0.000    0.000    0.000    0.000    0.000 
#
# Total GULP energy -167047.059628 kJ/mol
# GULP energy per Si atom -5568.235321 kJ/mol
# Density = 1.983120 g / cm^3
# Si number density = 19.876443 Si / 1000 Ang^3
#
#
#
# Elastic Constant Matrix: (Units=GPa)
#
#
# Indices 1 2 3 4 5 6 
#
# 1 57.9151 19.4375 55.1491 0.0000 -1.9868 0.0000
# 2 19.4375 44.8357 29.0067 0.0000 -1.9060 0.0000
# 3 55.1491 29.0067 171.3122 0.0000 -12.1136 0.0000
# 4 0.0000 0.0000 0.0000 27.5150 0.0000 -0.3967
# 5 -1.9868 -1.9060 -12.1136 0.0000 29.7596 0.0000
# 6 0.0000 0.0000 0.0000 -0.3967 0.0000 12.8044
#
#
#
# Elastic Compliance Matrix: (Units=1/GPa)
#
#
# Indices 1 2 3 4 5 6 
#
# 1 0.026678 -0.006742 -0.007569 0.000000 -0.001732 0.000000
# 2 -0.006742 0.026752 -0.002337 0.000000 0.000312 0.000000
# 3 -0.007569 -0.002337 0.008879 0.000000 0.002959 0.000000
# 4 0.000000 0.000000 0.000000 0.036360 0.000000 0.001126
# 5 -0.001732 0.000312 0.002959 0.000000 0.034711 0.000000
# 6 0.000000 0.000000 0.000000 0.001126 0.000000 0.078133
#
#
# Mechanical properties :
#
#
# Convention : Reuss Voigt Hill
#
# Bulk Modulus (GPa) = 34.46893 53.47218 43.97055
# Shear Modulus (GPa) = 19.64790 25.38043 22.51417
#
# Velocity S-wave (km/s) = 3.14746 3.57726 3.36922
# Velocity P-wave (km/s) = 5.53063 6.63499 6.10782
#
# Compressibility (1/GPa) = 0.02901163
#
# Stress axis : x y z
#
# Youngs Moduli (GPa) = 37.48469 37.38051 112.62714
#
# Poissons Ratio (x) = 0.25203 0.85247
# Poissons Ratio (y) = 0.25273 0.26322
# Poissons Ratio (z) = 0.28372 0.08736
#
# Static dielectric constant tensor:
#      x y z
#    x 1.663180 0.000000 -0.014620 
#    y 0.000000 1.756510 0.000000 
#    z -0.014620 0.000000 1.724180 
# 
# From -- ./inp_files/160918.got.cif
#   From: 2010.05.17/outbox.cif.g08.bks.cpg/sg15_81_cif.got.tgz:160918.got - 2010.06.03 18:47:42.
