data_PCOD9267633
_publ_section_title
;
Structure prediction by ZEFSAII (Michael W. Deem and Ramdas Pophale) SiO2 
 PCOD9267633
Probable space group: C 2/C
;
_chemical_formula_sum "Si O2"
_cell_formula_units_Z 48
_cell_length_a 9.574981
_cell_length_b 19.067199
_cell_length_c 28.313525
_cell_angle_alpha 90.000000
_cell_angle_beta 150.397345
_cell_angle_gamma 90.000000
_cell_volume 2553.465675
_symmetry_space_group_name_H-M "C 2/C"
_symmetry_group_IT_number 15
_symmetry_cell_setting 'monoclinic'
loop_
_space_group_symop_operation_xyz
x,y,z
-x,y,1/2-z
-x,-y,-z
x,-y,1/2+z
1/2+x,1/2+y,z
1/2-x,1/2+y,1/2-z
1/2-x,1/2-y,-z
1/2+x,1/2-y,1/2+z
loop_
_atom_site_type_symbol
_atom_site_label
_atom_site_fract_x
_atom_site_fract_y
_atom_site_fract_z
Si Si1 0.238621 0.693482 0.039181
Si Si2 0.674120 0.435208 0.169099
Si Si3 0.722864 0.263847 0.272088
Si Si4 0.211332 0.424764 0.192800
Si Si5 0.332982 0.970160 0.998578
Si Si6 0.839985 0.211099 0.574032
O O1 0.522392 0.709988 0.150733
O O2 0.229319 0.612222 0.023690
O O3 0.250000 0.750000 0.000000
O O4 0.950459 0.703000 0.982936
O O5 0.707743 0.457543 0.233540
O O6 0.464372 0.490348 0.083439
O O7 0.499691 0.362719 0.112509
O O8 0.000000 0.427662 0.250000
O O9 0.500000 0.256649 0.250000
O O10 0.861264 0.342703 0.316761
O O11 0.553575 0.253215 0.173854
O O12 0.500000 0.416198 0.250000
O O13 0.013683 0.470279 0.100379
O O14 0.500000 0.000000 0.000000
O O15 0.750000 0.250000 0.500000
#
# Coordination Sequence:
#
# PCOD9267633 Si02
#       6
#     8   8   8   8   8   8
#     4  12  22  41  72  98 128 179 232 284 335 410
#     4  11  26  45  65  97 140 183 224 281 349 414
#     4  10  20  39  65  97 128 169 226 280 332 404
#     4  10  19  39  70  91 128 184 222 269 346 413
#     4  12  22  43  68  97 134 176 234 280 339 414
#     4  11  25  42  65 101 138 175 222 282 358 405
#
# _framework density 18.797982000000001
#
# number of rings (size 3 to 8) (size 9 to 14) (size 15 to 20)
#    0.000    1.000    6.667    1.000    4.667    1.333 
#    3.000    1.667    0.000    0.000    0.000    0.000 
#    0.000    0.000    0.000    0.000    0.000    0.000 
#
# Total GULP energy -133694.887840 kJ/mol
# GULP energy per Si atom -5570.620327 kJ/mol
# Density = 1.875520 g / cm^3
# Si number density = 18.797982 Si / 1000 Ang^3
#
#
#
# Elastic Constant Matrix: (Units=GPa)
#
#
# Indices 1 2 3 4 5 6 
#
# 1 71.0102 42.4415 56.4282 -0.0010 2.2921 -0.0004
# 2 42.4415 85.8832 65.3324 -0.0036 -1.8209 -0.0014
# 3 56.4282 65.3324 169.9666 -0.0020 -16.5974 -0.0010
# 4 -0.0010 -0.0036 -0.0020 73.2329 0.0005 13.7880
# 5 2.2921 -1.8209 -16.5974 0.0005 47.4035 0.0005
# 6 -0.0004 -0.0014 -0.0010 13.7880 0.0005 26.1980
#
#
#
# Elastic Compliance Matrix: (Units=1/GPa)
#
#
# Indices 1 2 3 4 5 6 
#
# 1 0.022557 -0.007470 -0.004920 0.000000 -0.003100 0.000000
# 2 -0.007470 0.019053 -0.004905 0.000001 -0.000624 0.000000
# 3 -0.004920 -0.004905 0.009740 0.000000 0.003460 0.000000
# 4 0.000000 0.000001 0.000000 0.015157 0.000000 -0.007977
# 5 -0.003100 -0.000624 0.003460 0.000000 0.022433 0.000000
# 6 0.000000 0.000000 0.000000 -0.007977 0.000000 0.042369
#
#
# Mechanical properties :
#
#
# Convention : Reuss Voigt Hill
#
# Bulk Modulus (GPa) = 59.66425 72.80714 66.23570
# Shear Modulus (GPa) = 29.15693 40.21074 34.68383
#
# Velocity S-wave (km/s) = 3.94263 4.63006 4.30010
# Velocity P-wave (km/s) = 7.24806 8.20967 7.74381
#
# Compressibility (1/GPa) = 0.01676046
#
# Stress axis : x y z
#
# Youngs Moduli (GPa) = 44.33182 52.48524 102.66813
#
# Poissons Ratio (x) = 0.39207 0.50516
# Poissons Ratio (y) = 0.33116 0.50354
# Poissons Ratio (z) = 0.21812 0.25742
#
# Static dielectric constant tensor:
#      x y z
#    x 1.668850 0.000000 -0.030170 
#    y 0.000000 1.688800 0.000000 
#    z -0.030170 0.000000 1.704310 
# 
# From -- ./inp_files/178962.got.cif
#   From: 2010.05.17/outbox.cif.g08.bks.cpg/sg15_90_cif.got.tgz:178962.got - 2010.06.03 18:47:42.
