data_PCOD9267128
_publ_section_title
;
Structure prediction by ZEFSAII (Michael W. Deem and Ramdas Pophale) SiO2 
 PCOD9267128
Probable space group: C 2/C
;
_chemical_formula_sum "Si O2"
_cell_formula_units_Z 44
_cell_length_a 5.029072
_cell_length_b 13.986839
_cell_length_c 25.236598
_cell_angle_alpha 90.000000
_cell_angle_beta 77.445708
_cell_angle_gamma 90.000000
_cell_volume 1732.719705
_symmetry_space_group_name_H-M "C 2/C"
_symmetry_group_IT_number 15
_symmetry_cell_setting 'monoclinic'
loop_
_space_group_symop_operation_xyz
x,y,z
-x,y,1/2-z
-x,-y,-z
x,-y,1/2+z
1/2+x,1/2+y,z
1/2-x,1/2+y,1/2-z
1/2-x,1/2-y,-z
1/2+x,1/2-y,1/2+z
loop_
_atom_site_type_symbol
_atom_site_label
_atom_site_fract_x
_atom_site_fract_y
_atom_site_fract_z
Si Si1 0.000000 0.141330 0.250000
Si Si2 0.761220 0.511052 0.802622
Si Si3 0.147699 0.319214 0.401080
Si Si4 0.186507 0.594182 0.502659
Si Si5 0.188429 0.779202 0.332268
Si Si6 0.503572 0.503701 0.913663
O O1 0.239254 0.206218 0.217039
O O2 0.053524 0.070212 0.295337
O O3 0.662085 0.619581 0.803158
O O4 0.766590 0.492369 0.865095
O O5 0.000000 0.500295 0.750000
O O6 0.416610 0.257425 0.377251
O O7 0.281162 0.427178 0.395198
O O8 0.995530 0.321030 0.464866
O O9 0.936754 0.296153 0.362990
O O10 0.389235 0.566396 0.541631
O O11 0.370069 0.593370 0.441767
O O12 0.000000 0.500000 0.500000
#
# Coordination Sequence:
#
# PCOD9267128 Si02
#       6
#     4   8   8   8   8   8
#     4  12  30  46  70 106 142 198 248 300 364 428
#     4  11  25  43  69  99 144 192 236 293 360 424
#     4  10  19  38  65  96 135 184 227 288 359 418
#     4   9  16  31  64 103 137 177 240 291 357 434
#     4  11  25  43  68 100 143 182 241 297 348 433
#     4   9  19  35  60 106 140 180 241 293 352 439
#
# _framework density 25.393605999999998
#
# number of rings (size 3 to 8) (size 9 to 14) (size 15 to 20)
#    0.000    1.818    4.545    0.000    7.636    0.000 
#    0.000    0.000    0.000    2.182    0.000    0.000 
#    0.000    0.000    0.000    0.000    0.000    0.000 
#
# Total GULP energy -122663.725962 kJ/mol
# GULP energy per Si atom -5575.623907 kJ/mol
# Density = 2.533581 g / cm^3
# Si number density = 25.393606 Si / 1000 Ang^3
#
#
#
# Elastic Constant Matrix: (Units=GPa)
#
#
# Indices 1 2 3 4 5 6 
#
# 1 116.9834 4.0771 27.0303 0.0000 3.5772 0.0000
# 2 4.0771 74.3490 0.2949 0.0000 3.9441 0.0000
# 3 27.0303 0.2949 95.6954 0.0000 -23.9988 0.0000
# 4 0.0000 0.0000 0.0000 -41.4565 0.0000 39.1148
# 5 3.5772 3.9441 -23.9988 0.0000 53.6297 0.0000
# 6 0.0000 0.0000 0.0000 39.1148 0.0000 -4.6327
#
#
#
# Elastic Compliance Matrix: (Units=1/GPa)
#
#
# Indices 1 2 3 4 5 6 
#
# 1 0.009349 -0.000394 -0.003141 0.000000 -0.002000 0.000000
# 2 -0.000394 0.013528 -0.000195 0.000000 -0.001056 0.000000
# 3 -0.003141 -0.000195 0.012834 0.000000 0.005967 0.000000
# 4 0.000000 0.000000 0.000000 0.003463 0.000000 0.029236
# 5 -0.002000 -0.001056 0.005967 0.000000 0.021528 0.000000
# 6 0.000000 0.000000 0.000000 0.029236 0.000000 0.030986
#
#
# Mechanical properties :
#
#
# Convention : Reuss Voigt Hill
#
# Bulk Modulus (GPa) = 35.39741 38.87026 37.13383
# Shear Modulus (GPa) = 46.05519 18.54980 32.30249
#
# Velocity S-wave (km/s) = 4.26332 2.70569 3.57048
# Velocity P-wave (km/s) = 6.18096 5.01013 5.62608
#
# Compressibility (1/GPa) = 0.02825066
#
# Stress axis : x y z
#
# Youngs Moduli (GPa) = 106.96438 73.91812 77.91754
#
# Poissons Ratio (x) = 0.02913 0.24475
# Poissons Ratio (y) = 0.04215 0.01521
# Poissons Ratio (z) = 0.33599 0.01443
#
# Static dielectric constant tensor:
#      x y z
#    x 1.936540 0.000000 -0.050870 
#    y 0.000000 2.000860 0.000000 
#    z -0.050870 0.000000 2.163630 
# 
# From -- ./inp_files/260371.got.cif
#   From: 2010.05.17/outbox.cif.g08.bks.cpg/sg15_131_cif.got.tgz:260371.got - 2010.06.03 18:47:42.
