data_PCOD9267179
_publ_section_title
;
Structure prediction by ZEFSAII (Michael W. Deem and Ramdas Pophale) SiO2 
 PCOD9267179
Probable space group: C 2/C
;
_chemical_formula_sum "Si O2"
_cell_formula_units_Z 56
_cell_length_a 11.925512
_cell_length_b 27.890418
_cell_length_c 14.678681
_cell_angle_alpha 90.000000
_cell_angle_beta 31.700122
_cell_angle_gamma 90.000000
_cell_volume 2565.487351
_symmetry_space_group_name_H-M "C 2/C"
_symmetry_group_IT_number 15
_symmetry_cell_setting 'monoclinic'
loop_
_space_group_symop_operation_xyz
x,y,z
-x,y,1/2-z
-x,-y,-z
x,-y,1/2+z
1/2+x,1/2+y,z
1/2-x,1/2+y,1/2-z
1/2-x,1/2-y,-z
1/2+x,1/2-y,1/2+z
loop_
_atom_site_type_symbol
_atom_site_label
_atom_site_fract_x
_atom_site_fract_y
_atom_site_fract_z
Si Si1 0.037624 0.443228 0.962851
Si Si2 0.484547 0.460068 0.930296
Si Si3 0.764570 0.633605 0.441838
Si Si4 0.148683 0.383928 0.235393
Si Si5 0.291149 0.963119 0.956102
Si Si6 0.191482 0.283930 0.454255
Si Si7 0.427299 0.701855 0.608859
O O1 0.286438 0.440313 0.761187
O O2 0.881580 0.438267 0.984433
O O3 0.000000 0.500000 0.000000
O O4 0.966235 0.410341 0.097978
O O5 0.500000 0.500000 0.000000
O O6 0.338525 0.418155 0.070038
O O7 0.353730 0.489677 0.942752
O O8 0.649592 0.582274 0.520179
O O9 0.815685 0.664189 0.496314
O O10 0.640786 0.669305 0.460041
O O11 0.000000 0.620519 0.250000
O O12 0.244651 0.331365 0.192665
O O13 0.000000 0.379740 0.250000
O O14 0.500000 0.976307 0.750000
O O15 0.250000 0.250000 0.500000
O O16 0.362024 0.291190 0.258505
O O17 0.997130 0.256231 0.537211
#
# Coordination Sequence:
#
# PCOD9267179 Si02
#       7
#     8   8   8   8   8   8   8
#     4  12  25  42  69 100 133 196 247 294 371 429
#     4  12  23  45  69  98 151 193 239 309 364 429
#     4  10  20  34  63 100 137 172 218 277 359 435
#     4  12  28  49  69 100 146 194 254 309 356 435
#     4  11  22  38  64 103 142 184 239 292 355 442
#     4  10  19  38  66  98 136 168 213 286 372 431
#     4  11  23  42  66 100 136 183 227 294 373 438
#
# _framework density 21.828212000000001
#
# number of rings (size 3 to 8) (size 9 to 14) (size 15 to 20)
#    0.000    0.857    2.857    6.429    2.000    2.286 
#    2.571    0.714    0.000    0.000    0.000    0.000 
#    0.000    0.000    0.000    0.000    0.000    0.000 
#
# Total GULP energy -155966.266392 kJ/mol
# GULP energy per Si atom -5570.223800 kJ/mol
# Density = 2.177853 g / cm^3
# Si number density = 21.828212 Si / 1000 Ang^3
#
#
#
# Elastic Constant Matrix: (Units=GPa)
#
#
# Indices 1 2 3 4 5 6 
#
# 1 124.9884 35.0015 47.6038 0.0000 -8.9629 0.0000
# 2 35.0015 92.3725 32.5774 0.0000 -5.3437 0.0000
# 3 47.6038 32.5774 93.9835 0.0000 -4.7481 0.0000
# 4 0.0000 0.0000 0.0000 3.2829 0.0000 -10.4150
# 5 -8.9629 -5.3437 -4.7481 0.0000 25.0315 0.0000
# 6 0.0000 0.0000 0.0000 -10.4150 0.0000 40.3887
#
#
#
# Elastic Compliance Matrix: (Units=1/GPa)
#
#
# Indices 1 2 3 4 5 6 
#
# 1 0.010490 -0.002283 -0.004399 0.000000 0.002434 0.000000
# 2 -0.002283 0.012915 -0.003254 0.000000 0.001323 0.000000
# 3 -0.004399 -0.003254 0.014016 0.000001 0.000389 0.000000
# 4 0.000000 0.000000 0.000001 1.674575 0.000000 0.431823
# 5 0.002434 0.001323 0.000389 0.000000 0.041177 0.000000
# 6 0.000000 0.000000 0.000000 0.431823 0.000000 0.136114
#
#
# Mechanical properties :
#
#
# Convention : Reuss Voigt Hill
#
# Bulk Modulus (GPa) = 56.98061 60.18997 58.58529
# Shear Modulus (GPa) = 2.61096 26.81806 14.71451
#
# Velocity S-wave (km/s) = 1.09487 3.50894 2.59917
# Velocity P-wave (km/s) = 5.26869 6.63710 5.99209
#
# Compressibility (1/GPa) = 0.01754983
#
# Stress axis : x y z
#
# Youngs Moduli (GPa) = 95.32899 77.43172 71.34788
#
# Poissons Ratio (x) = 0.17674 0.31387
# Poissons Ratio (y) = 0.21759 0.23214
# Poissons Ratio (z) = 0.41936 0.25193
#
# Static dielectric constant tensor:
#      x y z
#    x 1.958740 0.000000 -0.056500 
#    y 0.000000 2.039930 0.000000 
#    z -0.056500 0.000000 1.843030 
# 
# From -- ./inp_files/149273.got.cif
#   From: 2010.05.17/outbox.cif.g08.bks.cpg/sg15_75_cif.got.tgz:149273.got - 2010.06.03 18:47:42.
