data_PCOD9267513
_publ_section_title
;
Structure prediction by ZEFSAII (Michael W. Deem and Ramdas Pophale) SiO2 
 PCOD9267513
Probable space group: C 2/C
;
_chemical_formula_sum "Si O2"
_cell_formula_units_Z 48
_cell_length_a 13.152167
_cell_length_b 18.189274
_cell_length_c 11.739305
_cell_angle_alpha 90.000000
_cell_angle_beta 44.603519
_cell_angle_gamma 90.000000
_cell_volume 1972.031744
_symmetry_space_group_name_H-M "C 2/C"
_symmetry_group_IT_number 15
_symmetry_cell_setting 'monoclinic'
loop_
_space_group_symop_operation_xyz
x,y,z
-x,y,1/2-z
-x,-y,-z
x,-y,1/2+z
1/2+x,1/2+y,z
1/2-x,1/2+y,1/2-z
1/2-x,1/2-y,-z
1/2+x,1/2-y,1/2+z
loop_
_atom_site_type_symbol
_atom_site_label
_atom_site_fract_x
_atom_site_fract_y
_atom_site_fract_z
Si Si1 0.772029 0.353452 0.925587
Si Si2 0.352986 0.464798 0.658126
Si Si3 0.623715 0.028880 0.987527
Si Si4 0.228328 0.292402 0.140498
Si Si5 0.036251 0.821758 0.849674
Si Si6 0.000000 0.588512 0.750000
Si Si7 0.000000 0.768047 0.250000
O O1 0.735954 0.419505 0.866257
O O2 0.141015 0.394335 0.540146
O O3 0.880400 0.289839 0.794758
O O4 0.614662 0.319601 0.088283
O O5 0.500000 0.500000 0.500000
O O6 0.396335 0.401138 0.710712
O O7 0.262785 0.523981 0.797437
O O8 0.605314 0.964960 0.095971
O O9 0.500000 0.000000 0.000000
O O10 0.159388 0.235764 0.284654
O O11 0.111575 0.357455 0.225009
O O12 0.250000 0.250000 0.000000
O O13 0.390021 0.318906 0.038125
O O14 0.000000 0.800098 0.750000
#
# Coordination Sequence:
#
# PCOD9267513 Si02
#       7
#     8   8   8   8   8   4   4
#     4  11  25  50  74 109 144 192 256 300 377 440
#     4  12  28  43  71 109 148 198 241 311 376 442
#     4  12  27  47  75 106 146 191 246 303 379 453
#     4  10  19  39  64  97 135 182 231 296 359 431
#     4  10  22  39  63  96 141 180 239 292 361 434
#     4  12  23  42  74  99 146 188 238 310 364 443
#     4  10  23  50  80  97 150 192 244 326 350 443
#
# _framework density 24.340378000000001
#
# number of rings (size 3 to 8) (size 9 to 14) (size 15 to 20)
#    0.000    1.000    2.500    5.500    7.000    1.333 
#    6.000    0.000    0.000    0.000    0.000    0.000 
#    0.000    0.000    0.000    0.000    0.000    0.000 
#
# Total GULP energy -133870.607313 kJ/mol
# GULP energy per Si atom -5577.941971 kJ/mol
# Density = 2.428498 g / cm^3
# Si number density = 24.340378 Si / 1000 Ang^3
#
#
#
# Elastic Constant Matrix: (Units=GPa)
#
#
# Indices 1 2 3 4 5 6 
#
# 1 77.0207 23.9559 25.7377 -0.0002 -17.6938 0.0000
# 2 23.9559 90.6524 27.2962 -0.0002 3.8386 0.0001
# 3 25.7377 27.2962 126.3433 -0.0006 -25.5589 0.0001
# 4 -0.0002 -0.0002 -0.0006 50.7172 0.0004 -23.3645
# 5 -17.6938 3.8386 -25.5589 0.0004 25.6704 -0.0001
# 6 0.0000 0.0001 0.0001 -23.3645 -0.0001 18.6665
#
#
#
# Elastic Compliance Matrix: (Units=1/GPa)
#
#
# Indices 1 2 3 4 5 6 
#
# 1 0.017557 -0.005257 0.000208 0.000000 0.013095 0.000000
# 2 -0.005257 0.013999 -0.003895 0.000000 -0.009594 0.000000
# 3 0.000208 -0.003895 0.011096 0.000000 0.011773 0.000000
# 4 0.000000 0.000000 0.000000 0.046572 -0.000001 0.058293
# 5 0.013095 -0.009594 0.011773 -0.000001 0.061138 0.000000
# 6 0.000000 0.000000 0.000000 0.058293 0.000000 0.126536
#
#
# Mechanical properties :
#
#
# Convention : Reuss Voigt Hill
#
# Bulk Modulus (GPa) = 40.37833 49.77734 45.07783
# Shear Modulus (GPa) = 16.49947 33.47926 24.98936
#
# Velocity S-wave (km/s) = 2.60641 3.71275 3.20763
# Velocity P-wave (km/s) = 5.06783 6.23492 5.68142
#
# Compressibility (1/GPa) = 0.02476576
#
# Stress axis : x y z
#
# Youngs Moduli (GPa) = 56.95620 71.43222 90.12550
#
# Poissons Ratio (x) = 0.37551 -0.01876
# Poissons Ratio (y) = 0.29941 0.35100
# Poissons Ratio (z) = -0.01186 0.27820
#
# Static dielectric constant tensor:
#      x y z
#    x 2.114480 0.000000 -0.083320 
#    y 0.000000 0.990190 -0.000010 
#    z -0.083320 -0.000010 1.895080 
# 
# From -- ./inp_files/163211.got.cif
#   From: 2010.05.17/outbox.cif.g08.bks.cpg/sg15_82_cif.got.tgz:163211.got - 2010.06.03 18:47:42.
