data_PCOD9267720
_publ_section_title
;
Structure prediction by ZEFSAII (Michael W. Deem and Ramdas Pophale) SiO2 
 PCOD9267720
Probable space group: C 2/C
;
_chemical_formula_sum "Si O2"
_cell_formula_units_Z 48
_cell_length_a 14.579672
_cell_length_b 11.923039
_cell_length_c 21.666962
_cell_angle_alpha 90.000000
_cell_angle_beta 141.123699
_cell_angle_gamma 90.000000
_cell_volume 2363.981735
_symmetry_space_group_name_H-M "C 2/C"
_symmetry_group_IT_number 15
_symmetry_cell_setting 'monoclinic'
loop_
_space_group_symop_operation_xyz
x,y,z
-x,y,1/2-z
-x,-y,-z
x,-y,1/2+z
1/2+x,1/2+y,z
1/2-x,1/2+y,1/2-z
1/2-x,1/2-y,-z
1/2+x,1/2-y,1/2+z
loop_
_atom_site_type_symbol
_atom_site_label
_atom_site_fract_x
_atom_site_fract_y
_atom_site_fract_z
Si Si1 0.711605 0.324559 0.757996
Si Si2 0.962598 0.968768 0.583743
Si Si3 0.347639 0.214684 0.888629
Si Si4 0.120471 0.142520 0.579481
Si Si5 0.039456 0.500376 0.092686
Si Si6 0.257098 0.131758 0.967813
O O1 0.547747 0.372963 0.666299
O O2 0.748484 0.288648 0.707010
O O3 0.757807 0.225644 0.829132
O O4 0.814727 0.428806 0.826029
O O5 0.858592 0.913780 0.476614
O O6 0.872912 0.052340 0.579113
O O7 0.079001 0.044307 0.605921
O O8 0.425613 0.130161 0.880745
O O9 0.256121 0.155965 0.894133
O O10 0.473024 0.283776 0.990330
O O11 0.908226 0.563056 0.058400
O O12 0.000000 0.500000 0.000000
O O13 0.250000 0.250000 0.000000
#
# Coordination Sequence:
#
# PCOD9267720 Si02
#       6
#     8   8   8   8   8   8
#     4  11  20  38  65  93 123 175 215 249 312 395
#     4  10  22  36  68  97 124 163 218 265 308 374
#     4  10  21  38  69  86 121 174 210 252 318 382
#     4  10  19  40  62  90 128 170 207 256 318 377
#     4  10  20  38  64  86 126 168 204 252 321 372
#     4  11  20  40  66  96 122 156 211 278 314 355
#
# _framework density 20.304724
#
# number of rings (size 3 to 8) (size 9 to 14) (size 15 to 20)
#    0.000    1.667    5.000    1.000    0.000    0.000 
#    0.000   16.667    7.333    0.000    0.000    0.000 
#    0.000    0.000    0.000    0.000    0.000    0.000 
#
# Total GULP energy -133761.727241 kJ/mol
# GULP energy per Si atom -5573.405302 kJ/mol
# Density = 2.025851 g / cm^3
# Si number density = 20.304724 Si / 1000 Ang^3
#
#
#
# Elastic Constant Matrix: (Units=GPa)
#
#
# Indices 1 2 3 4 5 6 
#
# 1 70.4111 39.3513 25.6051 0.0000 -7.2200 0.0000
# 2 39.3513 118.8187 50.4070 0.0000 -11.6947 0.0000
# 3 25.6051 50.4070 106.0059 0.0000 -18.4138 0.0000
# 4 0.0000 0.0000 0.0000 49.4036 0.0000 -0.3005
# 5 -7.2200 -11.6947 -18.4138 0.0000 7.9852 0.0000
# 6 0.0000 0.0000 0.0000 -0.3005 0.0000 44.3643
#
#
#
# Elastic Compliance Matrix: (Units=1/GPa)
#
#
# Indices 1 2 3 4 5 6 
#
# 1 0.017971 -0.004920 -0.000718 0.000000 0.007387 0.000000
# 2 -0.004920 0.012094 -0.003768 0.000000 0.004576 0.000000
# 3 -0.000718 -0.003768 0.017228 0.000000 0.033561 0.000000
# 4 0.000000 0.000000 0.000000 0.020242 0.000000 0.000137
# 5 0.007387 0.004576 0.033561 0.000000 0.216002 0.000000
# 6 0.000000 0.000000 0.000000 0.000137 0.000000 0.022542
#
#
# Mechanical properties :
#
#
# Convention : Reuss Voigt Hill
#
# Bulk Modulus (GPa) = 35.11032 58.44028 46.77530
# Shear Modulus (GPa) = 14.95287 32.34214 23.64750
#
# Velocity S-wave (km/s) = 2.71666 3.99537 3.41637
# Velocity P-wave (km/s) = 5.21244 7.08012 6.21681
#
# Compressibility (1/GPa) = 0.02848166
#
# Stress axis : x y z
#
# Youngs Moduli (GPa) = 55.64662 82.68286 58.04458
#
# Poissons Ratio (x) = 0.40680 0.04167
# Poissons Ratio (y) = 0.27378 0.21870
# Poissons Ratio (z) = 0.03995 0.31153
#
# Static dielectric constant tensor:
#      x y z
#    x 1.708090 0.000000 -0.007740 
#    y 0.000000 1.735820 0.000000 
#    z -0.007740 0.000000 1.774250 
# 
# From -- ./inp_files/243987.got.cif
#   From: 2010.05.17/outbox.cif.g08.bks.cpg/sg15_122_cif.got.tgz:243987.got - 2010.06.03 18:47:42.
