data_PCOD9267316
_publ_section_title
;
Structure prediction by ZEFSAII (Michael W. Deem and Ramdas Pophale) SiO2 
 PCOD9267316
Probable space group: C 2/C
;
_chemical_formula_sum "Si O2"
_cell_formula_units_Z 36
_cell_length_a 8.890593
_cell_length_b 15.801499
_cell_length_c 15.096810
_cell_angle_alpha 90.000000
_cell_angle_beta 43.824785
_cell_angle_gamma 90.000000
_cell_volume 1468.608264
_symmetry_space_group_name_H-M "C 2/C"
_symmetry_group_IT_number 15
_symmetry_cell_setting 'monoclinic'
loop_
_space_group_symop_operation_xyz
x,y,z
-x,y,1/2-z
-x,-y,-z
x,-y,1/2+z
1/2+x,1/2+y,z
1/2-x,1/2+y,1/2-z
1/2-x,1/2-y,-z
1/2+x,1/2-y,1/2+z
loop_
_atom_site_type_symbol
_atom_site_label
_atom_site_fract_x
_atom_site_fract_y
_atom_site_fract_z
Si Si1 0.251605 0.433325 0.930173
Si Si2 0.500000 0.844456 0.250000
Si Si3 0.612892 0.761379 0.923809
Si Si4 0.326190 0.342439 0.666491
Si Si5 0.618662 0.005406 0.808210
O O1 0.092270 0.355881 0.970328
O O2 0.464547 0.384083 0.871676
O O3 0.251461 0.491587 0.842867
O O4 0.133352 0.487191 0.055592
O O5 0.672465 0.785346 0.127875
O O6 0.351289 0.906456 0.254704
O O7 0.691217 0.779531 0.789173
O O8 0.412359 0.704979 0.042511
O O9 0.184760 0.426881 0.719922
#
# Coordination Sequence:
#
# PCOD9267316 Si02
#       5
#     8   4   8   8   8
#     4  10  19  39  59  90 118 165 201 249 303 371
#     4  12  20  36  58  96 118 158 198 262 294 356
#     4  11  20  35  64  91 121 148 215 255 297 348
#     4  11  21  38  64  97 117 161 202 260 302 364
#     4  10  22  33  57  90 131 153 195 254 316 355
#
# _framework density 24.513003000000001
#
# number of rings (size 3 to 8) (size 9 to 14) (size 15 to 20)
#    0.000    1.333    4.444    4.000    0.000    0.889 
#    0.000    0.000    0.000    5.333   28.889    0.000 
#    0.000    0.000    0.000    0.000    0.000    0.000 
#
# Total GULP energy -100354.301856 kJ/mol
# GULP energy per Si atom -5575.238992 kJ/mol
# Density = 2.445721 g / cm^3
# Si number density = 24.513003 Si / 1000 Ang^3
#
#
#
# Elastic Constant Matrix: (Units=GPa)
#
#
# Indices 1 2 3 4 5 6 
#
# 1 55.4076 33.8460 18.0206 -0.0010 5.2075 0.0006
# 2 33.8460 167.7696 72.7176 -0.0006 -7.3940 0.0003
# 3 18.0206 72.7176 165.6078 -0.0006 -2.2323 0.0003
# 4 -0.0010 -0.0006 -0.0006 68.3130 0.0005 -7.5882
# 5 5.2075 -7.3940 -2.2323 0.0005 15.2056 -0.0004
# 6 0.0006 0.0003 0.0003 -7.5882 -0.0004 23.3414
#
#
#
# Elastic Compliance Matrix: (Units=1/GPa)
#
#
# Indices 1 2 3 4 5 6 
#
# 1 0.021978 -0.004662 -0.000478 0.000000 -0.009864 -0.000001
# 2 -0.004662 0.008500 -0.003154 0.000000 0.005267 0.000000
# 3 -0.000478 -0.003154 0.007472 0.000000 -0.000273 0.000000
# 4 0.000000 0.000000 0.000000 0.015187 0.000000 0.004937
# 5 -0.009864 0.005267 -0.000273 0.000000 0.071664 0.000001
# 6 -0.000001 0.000000 0.000000 0.004937 0.000001 0.044447
#
#
# Mechanical properties :
#
#
# Convention : Reuss Voigt Hill
#
# Bulk Modulus (GPa) = 46.80957 70.88374 58.84665
# Shear Modulus (GPa) = 25.91259 38.98536 32.44898
#
# Velocity S-wave (km/s) = 3.25483 3.99230 3.64228
# Velocity P-wave (km/s) = 5.76736 7.08737 6.46117
#
# Compressibility (1/GPa) = 0.02136315
#
# Stress axis : x y z
#
# Youngs Moduli (GPa) = 45.50002 117.64369 133.83951
#
# Poissons Ratio (x) = 0.54840 0.06392
# Poissons Ratio (y) = 0.21210 0.42215
# Poissons Ratio (z) = 0.02173 0.37107
#
# Static dielectric constant tensor:
#      x y z
#    x 1.996250 0.000000 0.016710 
#    y 0.000000 1.927810 0.000000 
#    z 0.016710 0.000000 2.091180 
# 
# From -- ./inp_files/197075.got.cif
#   From: 2010.05.17/outbox.cif.g08.bks.cpg/sg15_99_cif.got.tgz:197075.got - 2010.06.03 18:47:42.
