data_PCOD9267855
_publ_section_title
;
Structure prediction by ZEFSAII (Michael W. Deem and Ramdas Pophale) SiO2 
 PCOD9267855
Probable space group: C 2/C
;
_chemical_formula_sum "Si O2"
_cell_formula_units_Z 60
_cell_length_a 23.608814
_cell_length_b 7.814847
_cell_length_c 21.823589
_cell_angle_alpha 90.000000
_cell_angle_beta 138.499480
_cell_angle_gamma 90.000000
_cell_volume 2668.024733
_symmetry_space_group_name_H-M "C 2/C"
_symmetry_group_IT_number 15
_symmetry_cell_setting 'monoclinic'
loop_
_space_group_symop_operation_xyz
x,y,z
-x,y,1/2-z
-x,-y,-z
x,-y,1/2+z
1/2+x,1/2+y,z
1/2-x,1/2+y,1/2-z
1/2-x,1/2-y,-z
1/2+x,1/2-y,1/2+z
loop_
_atom_site_type_symbol
_atom_site_label
_atom_site_fract_x
_atom_site_fract_y
_atom_site_fract_z
Si Si1 0.517757 0.222434 0.112608
Si Si2 0.730414 0.849599 0.922568
Si Si3 0.313272 0.241055 0.762093
Si Si4 0.099582 0.022123 0.444390
Si Si5 0.592521 0.955136 0.255586
Si Si6 0.500000 0.656708 0.250000
Si Si7 0.201475 0.880425 0.284026
Si Si8 0.000484 0.812411 0.968900
O O1 0.436792 0.339837 0.061448
O O2 0.601115 0.334068 0.198620
O O3 0.523271 0.055677 0.159130
O O4 0.523987 0.190452 0.044806
O O5 0.737873 0.718263 0.871933
O O6 0.634768 0.925479 0.841036
O O7 0.750000 0.750000 0.000000
O O8 0.799345 0.002009 0.974795
O O9 0.330827 0.088359 0.729246
O O10 0.246040 0.190062 0.758961
O O11 0.287848 0.415856 0.707654
O O12 0.405863 0.273679 0.868150
O O13 0.058733 0.052608 0.344558
O O14 0.064728 0.164654 0.463903
O O15 0.557699 0.781870 0.255519
O O16 0.000000 0.000000 0.000000
#
# Coordination Sequence:
#
# PCOD9267855 Si02
#       8
#     8   8   8   8   8   4   8   8
#     4  10  22  40  73  96 137 177 230 286 344 413
#     4  11  28  46  70 102 139 186 235 282 346 417
#     4  12  23  43  68 102 140 177 230 286 353 405
#     4  11  24  45  74  97 135 189 231 284 347 417
#     4  11  27  46  64 109 138 179 237 286 346 417
#     4  12  26  46  72  98 142 188 224 286 348 416
#     4  11  22  42  68 101 138 182 220 290 346 407
#     4  10  19  40  68 100 130 170 231 276 339 410
#
# _framework density 22.488548999999999
#
# number of rings (size 3 to 8) (size 9 to 14) (size 15 to 20)
#    0.000    1.067    4.000    3.200    9.333    1.067 
#    0.000    1.333    0.000    0.000    0.000    0.000 
#    0.000    0.000    0.000    0.000    0.000    0.000 
#
# Total GULP energy -167841.006479 kJ/mol
# GULP energy per Si atom -5594.700216 kJ/mol
# Density = 2.243736 g / cm^3
# Si number density = 22.488549 Si / 1000 Ang^3
#
#
#
# Elastic Constant Matrix: (Units=GPa)
#
#
# Indices 1 2 3 4 5 6 
#
# 1 41.7304 -9.0498 3.4077 0.0000 -7.8931 0.0000
# 2 -9.0498 54.2938 15.0251 0.0000 -10.0156 0.0000
# 3 3.4077 15.0251 118.1991 0.0000 -20.6307 0.0000
# 4 0.0000 0.0000 0.0000 23.6172 0.0000 -3.0415
# 5 -7.8931 -10.0156 -20.6307 0.0000 34.7327 0.0000
# 6 0.0000 0.0000 0.0000 -3.0415 0.0000 19.6378
#
#
#
# Elastic Compliance Matrix: (Units=1/GPa)
#
#
# Indices 1 2 3 4 5 6 
#
# 1 0.026712 0.005918 -0.000184 0.000000 0.007667 0.000000
# 2 0.005918 0.021063 -0.001733 0.000000 0.006389 0.000000
# 3 -0.000184 -0.001733 0.009585 0.000000 0.005152 0.000000
# 4 0.000000 0.000000 0.000000 0.043204 0.000000 0.006691
# 5 0.007667 0.006389 0.005152 0.000000 0.035436 0.000000
# 6 0.000000 0.000000 0.000000 0.006691 0.000000 0.051959
#
#
# Mechanical properties :
#
#
# Convention : Reuss Voigt Hill
#
# Bulk Modulus (GPa) = 15.29951 25.88772 20.59361
# Shear Modulus (GPa) = 24.78384 29.25354 27.01869
#
# Velocity S-wave (km/s) = 3.32334 3.61060 3.46994
# Velocity P-wave (km/s) = 4.64156 5.37758 5.02307
#
# Compressibility (1/GPa) = 0.06536158
#
# Stress axis : x y z
#
# Youngs Moduli (GPa) = 37.43639 47.47693 104.32856
#
# Poissons Ratio (x) = -0.28096 0.01920
# Poissons Ratio (y) = -0.22154 0.18079
# Poissons Ratio (z) = 0.00689 0.08227
#
# Static dielectric constant tensor:
#      x y z
#    x 1.856890 0.000000 -0.016330 
#    y 0.000000 1.848930 0.000000 
#    z -0.016330 0.000000 1.812630 
# 
# From -- ./inp_files/255207.got.cif
#   From: 2010.05.17/outbox.cif.g08.bks.cpg/sg15_128_cif.got.tgz:255207.got - 2010.06.03 18:47:42.
