data_PCOD9267310
_publ_section_title
;
Structure prediction by ZEFSAII (Michael W. Deem and Ramdas Pophale) SiO2 
 PCOD9267310
Probable space group: C 2/C
;
_chemical_formula_sum "Si O2"
_cell_formula_units_Z 48
_cell_length_a 27.522875
_cell_length_b 9.984615
_cell_length_c 16.682466
_cell_angle_alpha 90.000000
_cell_angle_beta 35.759515
_cell_angle_gamma 90.000000
_cell_volume 2679.069677
_symmetry_space_group_name_H-M "C 2/C"
_symmetry_group_IT_number 15
_symmetry_cell_setting 'monoclinic'
loop_
_space_group_symop_operation_xyz
x,y,z
-x,y,1/2-z
-x,-y,-z
x,-y,1/2+z
1/2+x,1/2+y,z
1/2-x,1/2+y,1/2-z
1/2-x,1/2-y,-z
1/2+x,1/2-y,1/2+z
loop_
_atom_site_type_symbol
_atom_site_label
_atom_site_fract_x
_atom_site_fract_y
_atom_site_fract_z
Si Si1 0.500000 0.870291 0.750000
Si Si2 0.167513 0.794656 0.461649
Si Si3 0.183059 0.804029 0.252748
Si Si4 0.079679 0.863620 0.240922
Si Si5 0.000000 0.910316 0.750000
Si Si6 0.324758 0.005019 0.499345
Si Si7 0.250677 0.448757 0.572581
O O1 0.467425 0.769752 0.724252
O O2 0.578985 0.956994 0.617048
O O3 0.160607 0.804193 0.375392
O O4 0.078879 0.823549 0.621008
O O5 0.194857 0.646591 0.449914
O O6 0.226984 0.912303 0.414641
O O7 0.110959 0.856781 0.289838
O O8 0.206650 0.656113 0.189802
O O9 0.263835 0.896154 0.128954
O O10 0.163383 0.881464 0.074861
O O11 0.023694 0.990264 0.291498
O O12 0.303358 0.025858 0.434326
#
# Coordination Sequence:
#
# PCOD9267310 Si02
#       7
#     4   8   8   8   4   8   8
#     4  11  17  34  62  84 108 150 192 232 270 342
#     4  11  23  36  58  84 122 144 186 240 292 333
#     4  11  20  38  60  88 110 148 196 241 271 336
#     4   9  18  35  62  82 109 150 198 225 274 340
#     4   9  21  38  56  84 116 160 182 226 290 344
#     4  11  21  36  61  84 112 154 190 229 285 339
#     4  10  19  39  59  83 113 152 194 227 279 349
#
# _framework density 17.916665999999999
#
# number of rings (size 3 to 8) (size 9 to 14) (size 15 to 20)
#    0.000    1.667    3.333    3.000    0.000    0.667 
#    0.000    0.833    3.667    0.000    0.000    0.000 
#    0.000    0.000    0.000    0.000    0.000    0.000 
#
# Total GULP energy -134006.804015 kJ/mol
# GULP energy per Si atom -5583.616834 kJ/mol
# Density = 1.787589 g / cm^3
# Si number density = 17.916666 Si / 1000 Ang^3
#
#
#
# Elastic Constant Matrix: (Units=GPa)
#
#
# Indices 1 2 3 4 5 6 
#
# 1 74.6577 42.5928 28.5444 0.0001 -4.2591 -0.0001
# 2 42.5928 117.5325 32.8859 0.0000 6.0748 -0.0003
# 3 28.5444 32.8859 28.9649 -0.0001 3.4179 -0.0001
# 4 0.0001 0.0000 -0.0001 0.6794 0.0000 10.2930
# 5 -4.2591 6.0748 3.4179 0.0000 29.0759 0.0001
# 6 -0.0001 -0.0003 -0.0001 10.2930 0.0001 21.6176
#
#
#
# Elastic Compliance Matrix: (Units=1/GPa)
#
#
# Indices 1 2 3 4 5 6 
#
# 1 0.023229 -0.003126 -0.020100 0.000001 0.006418 -0.000001
# 2 -0.003126 0.012916 -0.011370 0.000001 -0.001820 0.000000
# 3 -0.020100 -0.011370 0.068256 -0.000002 -0.008592 0.000001
# 4 0.000001 0.000001 -0.000002 -0.236885 0.000000 0.112790
# 5 0.006418 -0.001820 -0.008592 0.000000 0.036723 0.000000
# 6 -0.000001 0.000000 0.000001 0.112790 0.000000 -0.007445
#
#
# Mechanical properties :
#
#
# Convention : Reuss Voigt Hill
#
# Bulk Modulus (GPa) = 28.40128 47.68902 38.04515
# Shear Modulus (GPa) = -224.44577 18.08337 -103.18120
#
# Velocity S-wave (km/s) = -11.20464 3.18040 -7.59701
# Velocity P-wave (km/s) = 12.30877 6.33731 7.46137
#
# Compressibility (1/GPa) = 0.03520968
#
# Stress axis : x y z
#
# Youngs Moduli (GPa) = 43.04984 77.42105 14.65069
#
# Poissons Ratio (x) = 0.24198 0.29448
# Poissons Ratio (y) = 0.13456 0.16658
# Poissons Ratio (z) = 0.86532 0.88027
#
# Static dielectric constant tensor:
#      x y z
#    x 1.604450 0.000000 -0.021950 
#    y 0.000000 1.610170 0.000000 
#    z -0.021950 0.000000 1.585180 
# 
# From -- ./inp_files/176928.got.cif
#   From: 2010.05.17/outbox.cif.g08.bks.cpg/sg15_89_cif.got.tgz:176928.got - 2010.06.03 18:47:42.
