data_PCOD9267378
_publ_section_title
;
Structure prediction by ZEFSAII (Michael W. Deem and Ramdas Pophale) SiO2 
 PCOD9267378
Probable space group: C 2/C
;
_chemical_formula_sum "Si O2"
_cell_formula_units_Z 56
_cell_length_a 16.289795
_cell_length_b 9.621807
_cell_length_c 24.849832
_cell_angle_alpha 90.000000
_cell_angle_beta 44.543004
_cell_angle_gamma 90.000000
_cell_volume 2732.052073
_symmetry_space_group_name_H-M "C 2/C"
_symmetry_group_IT_number 15
_symmetry_cell_setting 'monoclinic'
loop_
_space_group_symop_operation_xyz
x,y,z
-x,y,1/2-z
-x,-y,-z
x,-y,1/2+z
1/2+x,1/2+y,z
1/2-x,1/2+y,1/2-z
1/2-x,1/2-y,-z
1/2+x,1/2-y,1/2+z
loop_
_atom_site_type_symbol
_atom_site_label
_atom_site_fract_x
_atom_site_fract_y
_atom_site_fract_z
Si Si1 0.792023 0.073458 0.283864
Si Si2 0.616214 0.079304 0.467271
Si Si3 0.077443 0.864350 0.450121
Si Si4 0.000000 0.504344 0.750000
Si Si5 0.844633 0.729165 0.375600
Si Si6 0.500000 0.461394 0.250000
Si Si7 0.296113 0.111470 0.773554
Si Si8 0.888449 0.305764 0.978729
O O1 0.713743 0.069344 0.374915
O O2 0.788427 0.227632 0.262402
O O3 0.737373 0.975322 0.263702
O O4 0.925135 0.042303 0.240243
O O5 0.599669 0.244504 0.485535
O O6 0.500000 0.000000 0.500000
O O7 0.639097 0.971389 0.505007
O O8 0.197328 0.911299 0.365809
O O9 0.010360 0.762402 0.439328
O O10 0.000000 0.000000 0.500000
O O11 0.093810 0.405282 0.676991
O O12 0.077422 0.583094 0.758524
O O13 0.870155 0.737630 0.426581
O O14 0.705292 0.737378 0.436683
O O15 0.904238 0.860644 0.320638
#
# Coordination Sequence:
#
# PCOD9267378 Si02
#       8
#     8   8   8   4   8   4   8   8
#     4  11  24  41  65  93 130 169 214 261 328 387
#     4   9  20  36  61  88 123 160 209 264 310 371
#     4  10  21  38  62  88 129 164 213 260 324 377
#     4  11  25  42  62  94 134 168 212 276 322 378
#     4  10  22  35  67  90 127 163 221 260 327 381
#     4  11  21  40  64  96 134 168 208 272 324 388
#     4  11  26  42  65  95 130 172 215 264 324 387
#     4  10  19  39  61  97 119 166 215 267 311 388
#
# _framework density 20.497412000000001
#
# number of rings (size 3 to 8) (size 9 to 14) (size 15 to 20)
#    0.000    1.714    1.429    2.143   10.000    2.286 
#    0.000    0.000    0.000    3.429    0.000    0.000 
#    0.000    0.000    0.000    0.000    0.000    0.000 
#
# Total GULP energy -156001.297169 kJ/mol
# GULP energy per Si atom -5571.474899 kJ/mol
# Density = 2.045076 g / cm^3
# Si number density = 20.497412 Si / 1000 Ang^3
#
#
#
# Elastic Constant Matrix: (Units=GPa)
#
#
# Indices 1 2 3 4 5 6 
#
# 1 81.4433 34.6626 0.5242 0.0000 -10.9559 0.0000
# 2 34.6626 139.4512 18.4406 0.0000 8.6964 0.0001
# 3 0.5242 18.4406 37.6019 0.0000 -11.2949 0.0000
# 4 0.0000 0.0000 0.0000 9.7607 0.0000 4.5028
# 5 -10.9559 8.6964 -11.2949 0.0000 26.7509 0.0000
# 6 0.0000 0.0001 0.0000 4.5028 0.0000 34.2851
#
#
#
# Elastic Compliance Matrix: (Units=1/GPa)
#
#
# Indices 1 2 3 4 5 6 
#
# 1 0.015963 -0.005375 0.005614 0.000000 0.010655 0.000000
# 2 -0.005375 0.010024 -0.007423 0.000000 -0.008594 0.000000
# 3 0.005614 -0.007423 0.036158 0.000000 0.019979 0.000000
# 4 0.000000 0.000000 0.000000 0.109059 0.000000 -0.014323
# 5 0.010655 -0.008594 0.019979 0.000000 0.052975 0.000000
# 6 0.000000 0.000000 0.000000 -0.014323 0.000000 0.031048
#
#
# Mechanical properties :
#
#
# Convention : Reuss Voigt Hill
#
# Bulk Modulus (GPa) = 20.92990 40.63901 30.78446
# Shear Modulus (GPa) = 17.51182 27.81727 22.66454
#
# Velocity S-wave (km/s) = 2.92609 3.68790 3.32885
# Velocity P-wave (km/s) = 4.65286 6.16470 5.46135
#
# Compressibility (1/GPa) = 0.04777853
#
# Stress axis : x y z
#
# Youngs Moduli (GPa) = 62.64379 99.75603 27.65656
#
# Poissons Ratio (x) = 0.53617 -0.15527
# Poissons Ratio (y) = 0.33670 0.20529
# Poissons Ratio (z) = -0.35169 0.74047
#
# Static dielectric constant tensor:
#      x y z
#    x 1.843400 0.000000 -0.050160 
#    y 0.000000 1.792880 0.000000 
#    z -0.050160 0.000000 1.733390 
# 
# From -- ./inp_files/276546.got.cif
#   From: 2010.05.17/outbox.cif.g08.bks.cpg/sg15_139_cif.got.tgz:276546.got - 2010.06.03 18:47:42.
