data_PCOD9267073
_publ_section_title
;
Structure prediction by ZEFSAII (Michael W. Deem and Ramdas Pophale) SiO2 
 PCOD9267073
Probable space group: C 2/C
;
_chemical_formula_sum "Si O2"
_cell_formula_units_Z 44
_cell_length_a 10.600720
_cell_length_b 14.668101
_cell_length_c 15.802164
_cell_angle_alpha 90.000000
_cell_angle_beta 50.346502
_cell_angle_gamma 90.000000
_cell_volume 1891.777880
_symmetry_space_group_name_H-M "C 2/C"
_symmetry_group_IT_number 15
_symmetry_cell_setting 'monoclinic'
loop_
_space_group_symop_operation_xyz
x,y,z
-x,y,1/2-z
-x,-y,-z
x,-y,1/2+z
1/2+x,1/2+y,z
1/2-x,1/2+y,1/2-z
1/2-x,1/2-y,-z
1/2+x,1/2-y,1/2+z
loop_
_atom_site_type_symbol
_atom_site_label
_atom_site_fract_x
_atom_site_fract_y
_atom_site_fract_z
Si Si1 0.500000 0.287012 0.250000
Si Si2 0.122202 0.664247 0.455315
Si Si3 0.120405 0.889052 0.772206
Si Si4 0.056614 0.081034 0.874422
Si Si5 0.667048 0.708662 0.425858
Si Si6 0.329861 0.853585 0.372407
O O1 0.414176 0.350330 0.216439
O O2 0.357814 0.228103 0.353389
O O3 0.203521 0.601711 0.348692
O O4 0.230277 0.757920 0.409765
O O5 0.138983 0.625043 0.542488
O O6 0.941272 0.700808 0.512865
O O7 0.133695 0.818759 0.842791
O O8 0.000000 0.858018 0.750000
O O9 0.043718 0.981285 0.841649
O O10 0.206226 0.079822 0.876331
O O11 0.902721 0.126153 0.988045
O O12 0.500000 0.850707 0.250000
#
# Coordination Sequence:
#
# PCOD9267073 Si02
#       6
#     4   8   8   8   8   8
#     4  12  24  46  68  98 136 186 230 278 338 422
#     4  10  20  37  69 101 123 171 235 282 330 407
#     4  12  23  42  68  99 139 177 224 287 352 399
#     4  11  24  41  64  99 142 179 218 286 352 403
#     4  11  24  43  73  97 132 184 239 275 337 413
#     4  10  19  38  64  96 131 169 226 280 334 404
#
# _framework density 23.258544000000001
#
# number of rings (size 3 to 8) (size 9 to 14) (size 15 to 20)
#    0.000    1.091    0.909    9.273    0.000    0.000 
#    1.636    3.636    4.000    0.000    0.000    0.000 
#    0.000    0.000    0.000    0.000    0.000    0.000 
#
# Total GULP energy -123170.258511 kJ/mol
# GULP energy per Si atom -5598.648114 kJ/mol
# Density = 2.320561 g / cm^3
# Si number density = 23.258544 Si / 1000 Ang^3
#
#
#
# Elastic Constant Matrix: (Units=GPa)
#
#
# Indices 1 2 3 4 5 6 
#
# 1 76.8447 27.6941 43.0465 -0.0001 -4.9594 0.0000
# 2 27.6941 40.3893 17.8578 0.0000 2.4449 0.0000
# 3 43.0465 17.8578 137.0252 -0.0001 -2.4464 0.0000
# 4 -0.0001 0.0000 -0.0001 17.6730 0.0001 2.6697
# 5 -4.9594 2.4449 -2.4464 0.0001 57.6890 0.0000
# 6 0.0000 0.0000 0.0000 2.6697 0.0000 6.9465
#
#
#
# Elastic Compliance Matrix: (Units=1/GPa)
#
#
# Indices 1 2 3 4 5 6 
#
# 1 0.020031 -0.011769 -0.004723 0.000000 0.002020 0.000000
# 2 -0.011769 0.033279 -0.000684 0.000000 -0.002451 0.000000
# 3 -0.004723 -0.000684 0.008871 0.000000 -0.000001 0.000000
# 4 0.000000 0.000000 0.000000 0.060071 0.000000 -0.023087
# 5 0.002020 -0.002451 -0.000001 0.000000 0.017612 0.000000
# 6 0.000000 0.000000 0.000000 -0.023087 0.000000 0.152831
#
#
# Mechanical properties :
#
#
# Convention : Reuss Voigt Hill
#
# Bulk Modulus (GPa) = 35.93239 47.93957 41.93598
# Shear Modulus (GPa) = 14.86673 27.50575 21.18624
#
# Velocity S-wave (km/s) = 2.53097 3.44264 3.02139
# Velocity P-wave (km/s) = 4.90140 6.03810 5.49920
#
# Compressibility (1/GPa) = 0.02783004
#
# Stress axis : x y z
#
# Youngs Moduli (GPa) = 49.92369 30.04876 112.73083
#
# Poissons Ratio (x) = 0.35364 0.53240
# Poissons Ratio (y) = 0.58754 0.07708
# Poissons Ratio (z) = 0.23578 0.02055
#
# Static dielectric constant tensor:
#      x y z
#    x 1.895600 0.000000 -0.015170 
#    y 0.000000 1.857900 0.000000 
#    z -0.015170 0.000000 1.930950 
# 
# From -- ./inp_files/145449.got.cif
#   From: 2010.05.17/outbox.cif.g08.bks.cpg/sg15_73_cif.got.tgz:145449.got - 2010.06.03 18:47:42.
