data_PCOD9267127
_publ_section_title
;
Structure prediction by ZEFSAII (Michael W. Deem and Ramdas Pophale) SiO2 
 PCOD9267127
Probable space group: C 2/C
;
_chemical_formula_sum "Si O2"
_cell_formula_units_Z 56
_cell_length_a 8.842268
_cell_length_b 19.133552
_cell_length_c 15.368724
_cell_angle_alpha 90.000000
_cell_angle_beta 76.630211
_cell_angle_gamma 90.000000
_cell_volume 2529.672908
_symmetry_space_group_name_H-M "C 2/C"
_symmetry_group_IT_number 15
_symmetry_cell_setting 'monoclinic'
loop_
_space_group_symop_operation_xyz
x,y,z
-x,y,1/2-z
-x,-y,-z
x,-y,1/2+z
1/2+x,1/2+y,z
1/2-x,1/2+y,1/2-z
1/2-x,1/2-y,-z
1/2+x,1/2-y,1/2+z
loop_
_atom_site_type_symbol
_atom_site_label
_atom_site_fract_x
_atom_site_fract_y
_atom_site_fract_z
Si Si1 0.957846 0.297341 0.483774
Si Si2 0.271208 0.845845 0.947791
Si Si3 0.348803 0.409080 0.824705
Si Si4 0.266446 0.685465 0.624246
Si Si5 0.041211 0.918543 0.493568
Si Si6 0.186729 0.285515 0.737540
Si Si7 0.954471 0.559124 0.073638
O O1 0.904588 0.298203 0.391415
O O2 0.875034 0.236265 0.549283
O O3 0.132986 0.303747 0.492825
O O4 0.898814 0.372275 0.527792
O O5 0.243229 0.801351 0.865442
O O6 0.389305 0.909704 0.903655
O O7 0.117132 0.878106 0.006479
O O8 0.500000 0.431739 0.750000
O O9 0.412943 0.398978 0.913704
O O10 0.272680 0.340656 0.789776
O O11 0.197314 0.459892 0.850292
O O12 0.328874 0.608728 0.591350
O O13 0.287842 0.711320 0.719254
O O14 0.000000 0.000000 0.500000
O O15 0.000000 0.296028 0.750000
O O16 0.000000 0.500000 0.000000
#
# Coordination Sequence:
#
# PCOD9267127 Si02
#       7
#     8   8   8   8   8   8   8
#     4   9  19  36  60  96 122 173 229 281 340 405
#     4  10  21  37  66  93 138 175 232 275 347 438
#     4  12  22  38  68 101 135 173 233 292 357 419
#     4  11  20  38  66  92 138 168 231 291 339 423
#     4  12  25  41  65 105 135 185 232 294 356 423
#     4  12  20  42  65  97 130 183 226 288 363 418
#     4  10  19  38  65  96 135 177 230 286 343 430
#
# _framework density 22.137248
#
# number of rings (size 3 to 8) (size 9 to 14) (size 15 to 20)
#    0.857    0.286    7.143    1.714    0.000    0.571 
#    0.000    0.714    0.000    0.000    0.000    0.000 
#    0.000    0.000    0.000    0.000    0.000    0.000 
#
# Total GULP energy -156080.413613 kJ/mol
# GULP energy per Si atom -5574.300486 kJ/mol
# Density = 2.208686 g / cm^3
# Si number density = 22.137248 Si / 1000 Ang^3
#
#
#
# Elastic Constant Matrix: (Units=GPa)
#
#
# Indices 1 2 3 4 5 6 
#
# 1 130.5584 20.3862 31.5491 0.0000 12.2480 0.0000
# 2 20.3862 93.3728 39.5232 0.0000 6.1874 0.0000
# 3 31.5491 39.5232 73.0621 0.0000 4.4779 0.0000
# 4 0.0000 0.0000 0.0000 23.4862 0.0000 2.0033
# 5 12.2480 6.1874 4.4779 0.0000 38.4249 0.0000
# 6 0.0000 0.0000 0.0000 2.0033 0.0000 8.2578
#
#
#
# Elastic Compliance Matrix: (Units=1/GPa)
#
#
# Indices 1 2 3 4 5 6 
#
# 1 0.008766 -0.000282 -0.003489 0.000000 -0.002342 0.000000
# 2 -0.000282 0.013971 -0.007356 0.000000 -0.001303 0.000000
# 3 -0.003489 -0.007356 0.019169 0.000000 0.000063 0.000000
# 4 0.000000 0.000000 0.000000 0.043478 0.000000 -0.010548
# 5 -0.002342 -0.001303 0.000063 0.000000 0.026974 0.000000
# 6 0.000000 0.000000 0.000000 -0.010548 0.000000 0.123656
#
#
# Mechanical properties :
#
#
# Convention : Reuss Voigt Hill
#
# Bulk Modulus (GPa) = 50.88541 53.32336 52.10439
# Shear Modulus (GPa) = 18.88067 27.73610 23.30839
#
# Velocity S-wave (km/s) = 2.92360 3.54349 3.24837
# Velocity P-wave (km/s) = 5.86795 6.39388 6.13655
#
# Compressibility (1/GPa) = 0.01965200
#
# Stress axis : x y z
#
# Youngs Moduli (GPa) = 114.07255 71.57460 52.16648
#
# Poissons Ratio (x) = 0.02016 0.18203
# Poissons Ratio (y) = 0.03214 0.38376
# Poissons Ratio (z) = 0.39805 0.52653
#
# Static dielectric constant tensor:
#      x y z
#    x 1.906760 0.000000 -0.044590 
#    y 0.000000 1.857550 0.000000 
#    z -0.044590 0.000000 1.838440 
# 
# From -- ./inp_files/190937.got.cif
#   From: 2010.05.17/outbox.cif.g08.bks.cpg/sg15_96_cif.got.tgz:190937.got - 2010.06.03 18:47:42.
