data_PCOD9267268
_publ_section_title
;
Structure prediction by ZEFSAII (Michael W. Deem and Ramdas Pophale) SiO2 
 PCOD9267268
Probable space group: C 2/C
;
_chemical_formula_sum "Si O2"
_cell_formula_units_Z 56
_cell_length_a 14.061036
_cell_length_b 9.713203
_cell_length_c 21.841651
_cell_angle_alpha 90.000000
_cell_angle_beta 49.588484
_cell_angle_gamma 90.000000
_cell_volume 2271.342874
_symmetry_space_group_name_H-M "C 2/C"
_symmetry_group_IT_number 15
_symmetry_cell_setting 'monoclinic'
loop_
_space_group_symop_operation_xyz
x,y,z
-x,y,1/2-z
-x,-y,-z
x,-y,1/2+z
1/2+x,1/2+y,z
1/2-x,1/2+y,1/2-z
1/2-x,1/2-y,-z
1/2+x,1/2-y,1/2+z
loop_
_atom_site_type_symbol
_atom_site_label
_atom_site_fract_x
_atom_site_fract_y
_atom_site_fract_z
Si Si1 0.370235 0.535168 0.474284
Si Si2 0.938715 0.190658 0.571133
Si Si3 0.243774 0.093648 0.188410
Si Si4 0.531871 0.726339 0.339171
Si Si5 0.156286 0.329653 0.414173
Si Si6 0.651615 0.882915 0.615044
Si Si7 0.093472 0.519075 0.273657
O O1 0.392214 0.602491 0.531957
O O2 0.475010 0.414615 0.426268
O O3 0.404431 0.652804 0.411909
O O4 0.232946 0.470027 0.533258
O O5 0.818454 0.264215 0.648700
O O6 0.032950 0.308941 0.506462
O O7 0.102469 0.133112 0.260140
O O8 0.287802 0.025507 0.233352
O O9 0.291554 0.981559 0.120085
O O10 0.615002 0.753524 0.367074
O O11 0.522445 0.877223 0.315531
O O12 0.266221 0.248525 0.402710
O O13 0.505906 0.865832 0.661096
O O14 0.636511 0.956625 0.687314
#
# Coordination Sequence:
#
# PCOD9267268 Si02
#       7
#     8   8   8   8   8   8   8
#     4   9  19  33  56  79 110 149 186 233 289 345
#     4   9  18  32  55  81 109 146 186 233 293 328
#     4  11  20  32  58  86 114 134 197 251 272 319
#     4  10  20  32  53  90 106 139 202 240 275 326
#     4   9  19  34  53  81 111 149 190 230 286 349
#     4  10  19  39  55  75 115 156 185 219 300 358
#     4  10  22  34  57  83 109 152 191 233 285 349
#
# _framework density 24.655017999999998
#
# number of rings (size 3 to 8) (size 9 to 14) (size 15 to 20)
#    0.000    2.286    1.429    2.143    4.000    0.571 
#    0.000    2.857    0.000   12.000    0.000    0.000 
#    0.000    0.000    0.000    0.000    0.000    0.000 
#
# Total GULP energy -156522.537791 kJ/mol
# GULP energy per Si atom -5590.090635 kJ/mol
# Density = 2.459890 g / cm^3
# Si number density = 24.655018 Si / 1000 Ang^3
#
#
#
# Elastic Constant Matrix: (Units=GPa)
#
#
# Indices 1 2 3 4 5 6 
#
# 1 39.8572 0.6809 7.6412 0.0000 -7.2708 0.0000
# 2 0.6809 76.3873 31.5937 0.0000 3.5047 0.0000
# 3 7.6412 31.5937 105.6060 0.0000 -7.6930 0.0000
# 4 0.0000 0.0000 0.0000 42.7928 0.0000 0.6096
# 5 -7.2708 3.5047 -7.6930 0.0000 26.3211 0.0000
# 6 0.0000 0.0000 0.0000 0.6096 0.0000 16.4345
#
#
#
# Elastic Compliance Matrix: (Units=1/GPa)
#
#
# Indices 1 2 3 4 5 6 
#
# 1 0.026628 0.000037 -0.001433 0.000000 0.006932 0.000000
# 2 0.000037 0.015238 -0.004811 0.000000 -0.003425 0.000000
# 3 -0.001433 -0.004811 0.011270 0.000000 0.003539 0.000000
# 4 0.000000 0.000000 0.000000 0.023381 0.000000 -0.000867
# 5 0.006932 -0.003425 0.003539 0.000000 0.041397 0.000000
# 6 0.000000 0.000000 0.000000 -0.000867 0.000000 0.060880
#
#
# Mechanical properties :
#
#
# Convention : Reuss Voigt Hill
#
# Bulk Modulus (GPa) = 24.55624 33.52024 29.03824
# Shear Modulus (GPa) = 24.41636 29.23867 26.82751
#
# Velocity S-wave (km/s) = 3.15035 3.44744 3.30224
# Velocity P-wave (km/s) = 4.81814 5.42878 5.13255
#
# Compressibility (1/GPa) = 0.04072285
#
# Stress axis : x y z
#
# Youngs Moduli (GPa) = 37.55424 65.62669 88.73243
#
# Poissons Ratio (x) = -0.00244 0.12714
# Poissons Ratio (y) = -0.00140 0.42687
# Poissons Ratio (z) = 0.05381 0.31571
#
# Static dielectric constant tensor:
#      x y z
#    x 1.994750 0.000000 0.010380 
#    y 0.000000 1.945630 0.000000 
#    z 0.010380 0.000000 1.912020 
# 
# From -- ./inp_files/298513.got.cif
#   From: 2010.05.17/outbox.cif.g08.bks.cpg/sg15_150_cif.got.tgz:298513.got - 2010.06.03 18:47:42.
