data_PCOD9267003
_publ_section_title
;
Structure prediction by ZEFSAII (Michael W. Deem and Ramdas Pophale) SiO2 
 PCOD9267003
Probable space group: C 2/C
;
_chemical_formula_sum "Si O2"
_cell_formula_units_Z 44
_cell_length_a 8.043741
_cell_length_b 17.543429
_cell_length_c 15.817248
_cell_angle_alpha 90.000000
_cell_angle_beta 85.616950
_cell_angle_gamma 90.000000
_cell_volume 2225.519938
_symmetry_space_group_name_H-M "C 2/C"
_symmetry_group_IT_number 15
_symmetry_cell_setting 'monoclinic'
loop_
_space_group_symop_operation_xyz
x,y,z
-x,y,1/2-z
-x,-y,-z
x,-y,1/2+z
1/2+x,1/2+y,z
1/2-x,1/2+y,1/2-z
1/2-x,1/2-y,-z
1/2+x,1/2-y,1/2+z
loop_
_atom_site_type_symbol
_atom_site_label
_atom_site_fract_x
_atom_site_fract_y
_atom_site_fract_z
Si Si1 0.455305 0.629207 0.582459
Si Si2 0.635705 0.794943 0.150887
Si Si3 0.890144 0.163688 0.100042
Si Si4 0.148038 0.237389 0.692566
Si Si5 0.654528 0.506801 0.306057
Si Si6 0.000000 0.430026 0.250000
O O1 0.293041 0.684112 0.586419
O O2 0.557911 0.632477 0.492784
O O3 0.568754 0.662394 0.654121
O O4 0.384243 0.547760 0.612615
O O5 0.534874 0.721826 0.124434
O O6 0.716108 0.779029 0.240367
O O7 0.525772 0.871625 0.169639
O O8 0.724090 0.214417 0.113506
O O9 0.854837 0.093887 0.164145
O O10 0.000000 0.277919 0.750000
O O11 0.500000 0.494774 0.250000
O O12 0.830951 0.480125 0.258784
#
# Coordination Sequence:
#
# PCOD9267003 Si02
#       6
#     8   8   8   8   8   4
#     4  10  22  39  61  88 125 160 196 251 316 363
#     4  10  19  38  64  85 115 160 209 242 296 372
#     4  12  22  37  61  94 123 150 201 267 306 346
#     4  10  20  36  62  88 114 159 206 243 294 372
#     4  11  24  40  63  88 124 168 206 248 310 373
#     4  10  20  40  62  86 114 162 212 248 292 370
#
# _framework density 19.770662000000002
#
# number of rings (size 3 to 8) (size 9 to 14) (size 15 to 20)
#    0.000    1.455    1.818    5.455    1.273    0.000 
#    0.000    0.000    0.000    4.364    0.000    0.000 
#    0.000    0.000    0.000    0.000    0.000    0.000 
#
# Total GULP energy -122672.113769 kJ/mol
# GULP energy per Si atom -5576.005171 kJ/mol
# Density = 1.972566 g / cm^3
# Si number density = 19.770662 Si / 1000 Ang^3
#
#
#
# Elastic Constant Matrix: (Units=GPa)
#
#
# Indices 1 2 3 4 5 6 
#
# 1 77.3172 24.5761 33.0500 0.0000 -19.3503 0.0000
# 2 24.5761 95.5078 5.9168 0.0000 -0.6290 0.0000
# 3 33.0500 5.9168 59.5540 0.0000 -20.9804 0.0000
# 4 0.0000 0.0000 0.0000 21.2321 0.0000 1.7636
# 5 -19.3503 -0.6290 -20.9804 0.0000 33.3629 0.0000
# 6 0.0000 0.0000 0.0000 1.7636 0.0000 15.5467
#
#
#
# Elastic Compliance Matrix: (Units=1/GPa)
#
#
# Indices 1 2 3 4 5 6 
#
# 1 0.019338 -0.004430 -0.008182 0.000000 0.005987 0.000000
# 2 -0.004430 0.011559 0.000619 0.000000 -0.001962 0.000000
# 3 -0.008182 0.000619 0.025182 0.000000 0.011102 0.000000
# 4 0.000000 0.000000 0.000000 0.047546 0.000000 -0.005394
# 5 0.005987 -0.001962 0.011102 0.000000 0.040390 0.000000
# 6 0.000000 0.000000 0.000000 -0.005394 0.000000 0.064934
#
#
# Mechanical properties :
#
#
# Convention : Reuss Voigt Hill
#
# Bulk Modulus (GPa) = 31.16082 39.94052 35.55067
# Shear Modulus (GPa) = 20.52264 25.28410 22.90337
#
# Velocity S-wave (km/s) = 3.22535 3.58001 3.40730
# Velocity P-wave (km/s) = 5.44664 6.11019 5.78793
#
# Compressibility (1/GPa) = 0.03209158
#
# Stress axis : x y z
#
# Youngs Moduli (GPa) = 51.71245 86.51311 39.71093
#
# Poissons Ratio (x) = 0.38322 0.32493
# Poissons Ratio (y) = 0.22907 -0.02456
# Poissons Ratio (z) = 0.42314 -0.05352
#
# Static dielectric constant tensor:
#      x y z
#    x 1.746550 0.000000 -0.024450 
#    y 0.000000 1.718690 0.000000 
#    z -0.024450 0.000000 1.702400 
# 
# From -- ./inp_files/134440.got.cif
#   From: 2010.05.17/outbox.cif.g08.bks.cpg/sg15_68_cif.got.tgz:134440.got - 2010.06.03 18:47:42.
