data_PCOD9267136
_publ_section_title
;
Structure prediction by ZEFSAII (Michael W. Deem and Ramdas Pophale) SiO2 
 PCOD9267136
Probable space group: C 2/C
;
_chemical_formula_sum "Si O2"
_cell_formula_units_Z 48
_cell_length_a 7.455911
_cell_length_b 12.034983
_cell_length_c 22.013456
_cell_angle_alpha 90.000000
_cell_angle_beta 101.763889
_cell_angle_gamma 90.000000
_cell_volume 1933.817023
_symmetry_space_group_name_H-M "C 2/C"
_symmetry_group_IT_number 15
_symmetry_cell_setting 'monoclinic'
loop_
_space_group_symop_operation_xyz
x,y,z
-x,y,1/2-z
-x,-y,-z
x,-y,1/2+z
1/2+x,1/2+y,z
1/2-x,1/2+y,1/2-z
1/2-x,1/2-y,-z
1/2+x,1/2-y,1/2+z
loop_
_atom_site_type_symbol
_atom_site_label
_atom_site_fract_x
_atom_site_fract_y
_atom_site_fract_z
Si Si1 0.193185 0.039914 0.384213
Si Si2 0.862262 0.244874 0.944376
Si Si3 0.738921 0.842918 0.198547
Si Si4 0.766981 0.884906 0.863919
Si Si5 0.161561 0.090512 0.998641
Si Si6 0.311696 0.883293 0.174271
O O1 0.324063 0.144920 0.403005
O O2 0.987653 0.091730 0.373709
O O3 0.204068 0.959954 0.327002
O O4 0.247246 0.957586 0.443530
O O5 0.792448 0.148654 0.894244
O O6 0.061723 0.206671 0.978701
O O7 0.750000 0.250000 0.000000
O O8 0.791827 0.735049 0.163744
O O9 0.517072 0.839569 0.183634
O O10 0.789513 0.837670 0.273024
O O11 0.677632 0.984127 0.820128
O O12 0.726430 0.902601 0.932072
O O13 0.000000 0.000000 0.000000
#
# Coordination Sequence:
#
# PCOD9267136 Si02
#       6
#     8   8   8   8   8   8
#     4  11  23  40  69  97 126 168 220 257 332 389
#     4  12  19  39  71  94 126 170 210 269 324 379
#     4  11  27  42  61  99 126 176 219 258 327 387
#     4  11  22  45  69  89 135 168 211 271 320 384
#     4  10  19  38  66 100 124 164 215 265 325 381
#     4  11  24  43  63  91 134 169 217 271 315 380
#
# _framework density 24.821376000000001
#
# number of rings (size 3 to 8) (size 9 to 14) (size 15 to 20)
#    0.000    1.000    8.333    0.000    2.333    2.667 
#    0.000    5.833    0.000    0.000    0.000    0.000 
#    0.000    0.000    0.000    0.000    0.000    0.000 
#
# Total GULP energy -134369.137922 kJ/mol
# GULP energy per Si atom -5598.714080 kJ/mol
# Density = 2.476488 g / cm^3
# Si number density = 24.821376 Si / 1000 Ang^3
#
#
#
# Elastic Constant Matrix: (Units=GPa)
#
#
# Indices 1 2 3 4 5 6 
#
# 1 48.0082 15.0597 7.9806 0.0000 9.6689 0.0000
# 2 15.0597 144.2716 33.0673 0.0000 -7.1860 0.0000
# 3 7.9806 33.0673 121.1268 0.0000 1.4030 0.0000
# 4 0.0000 0.0000 0.0000 32.2553 0.0000 5.0220
# 5 9.6689 -7.1860 1.4030 0.0000 20.7177 0.0000
# 6 0.0000 0.0000 0.0000 5.0220 0.0000 29.2756
#
#
#
# Elastic Compliance Matrix: (Units=1/GPa)
#
#
# Indices 1 2 3 4 5 6 
#
# 1 0.024375 -0.003014 -0.000640 0.000000 -0.012378 0.000000
# 2 -0.003014 0.007921 -0.002014 0.000000 0.004291 0.000000
# 3 -0.000640 -0.002014 0.008859 0.000000 -0.001000 0.000000
# 4 0.000000 0.000000 0.000000 0.031853 0.000000 -0.005464
# 5 -0.012378 0.004291 -0.001000 0.000000 0.055601 0.000000
# 6 0.000000 0.000000 0.000000 -0.005464 0.000000 0.035096
#
#
# Mechanical properties :
#
#
# Convention : Reuss Voigt Hill
#
# Bulk Modulus (GPa) = 33.53452 47.29131 40.41291
# Shear Modulus (GPa) = 27.03001 33.60297 30.31649
#
# Velocity S-wave (km/s) = 3.30355 3.68338 3.49863
# Velocity P-wave (km/s) = 5.30009 6.09785 5.71291
#
# Compressibility (1/GPa) = 0.02982002
#
# Stress axis : x y z
#
# Youngs Moduli (GPa) = 41.02643 126.24293 112.87647
#
# Poissons Ratio (x) = 0.38052 0.07221
# Poissons Ratio (y) = 0.12366 0.22729
# Poissons Ratio (z) = 0.02624 0.25420
#
# Static dielectric constant tensor:
#      x y z
#    x 2.046800 0.000000 -0.017630 
#    y 0.000000 2.021290 0.000000 
#    z -0.017630 0.000000 1.954340 
# 
# From -- ./inp_files/263265.got.cif
#   From: 2010.05.17/outbox.cif.g08.bks.cpg/sg15_132_cif.got.tgz:263265.got - 2010.06.03 18:47:42.
