data_PCOD9267733
_publ_section_title
;
Structure prediction by ZEFSAII (Michael W. Deem and Ramdas Pophale) SiO2 
 PCOD9267733
Probable space group: C 2/C
;
_chemical_formula_sum "Si O2"
_cell_formula_units_Z 40
_cell_length_a 19.846333
_cell_length_b 8.273150
_cell_length_c 14.749550
_cell_angle_alpha 90.000000
_cell_angle_beta 128.182625
_cell_angle_gamma 90.000000
_cell_volume 1903.605783
_symmetry_space_group_name_H-M "C 2/C"
_symmetry_group_IT_number 15
_symmetry_cell_setting 'monoclinic'
loop_
_space_group_symop_operation_xyz
x,y,z
-x,y,1/2-z
-x,-y,-z
x,-y,1/2+z
1/2+x,1/2+y,z
1/2-x,1/2+y,1/2-z
1/2-x,1/2-y,-z
1/2+x,1/2-y,1/2+z
loop_
_atom_site_type_symbol
_atom_site_label
_atom_site_fract_x
_atom_site_fract_y
_atom_site_fract_z
Si Si1 0.228963 0.534471 0.800271
Si Si2 0.583881 0.842012 0.768346
Si Si3 0.206250 0.102298 0.324507
Si Si4 0.523709 0.517482 0.624477
Si Si5 0.157500 0.076008 0.954091
O O1 0.137501 0.472092 0.758349
O O2 0.241020 0.718692 0.839542
O O3 0.246099 0.510686 0.708728
O O4 0.296849 0.423607 0.911392
O O5 0.500000 0.905569 0.750000
O O6 0.555072 0.698337 0.676520
O O7 0.640853 0.747127 0.891274
O O8 0.104622 0.093724 0.216193
O O9 0.212075 0.032201 0.430060
O O10 0.500000 0.500000 0.500000
O O11 0.436514 0.497507 0.609092
#
# Coordination Sequence:
#
# PCOD9267733 Si02
#       5
#     8   8   8   8   8
#     4  12  23  39  62  89 124 150 200 249 290 346
#     4   9  21  38  60  87 118 157 197 240 293 350
#     4  11  23  38  60  91 117 158 196 244 294 348
#     4  10  19  40  63  83 120 161 195 233 298 356
#     4  10  21  40  65  84 117 161 197 236 298 354
#
# _framework density 21.012754999999999
#
# number of rings (size 3 to 8) (size 9 to 14) (size 15 to 20)
#    0.000    1.600    2.000    5.400    0.000    1.600 
#    0.000    1.000    0.000    0.000    0.000    0.000 
#    0.000    0.000    0.000    0.000    0.000    0.000 
#
# Total GULP energy -111760.272735 kJ/mol
# GULP energy per Si atom -5588.013637 kJ/mol
# Density = 2.096493 g / cm^3
# Si number density = 21.012755 Si / 1000 Ang^3
#
#
#
# Elastic Constant Matrix: (Units=GPa)
#
#
# Indices 1 2 3 4 5 6 
#
# 1 120.2142 27.9523 -6.5717 0.0000 -0.6292 0.0000
# 2 27.9523 42.0236 -16.7070 0.0000 1.8202 0.0000
# 3 -6.5717 -16.7070 40.9913 0.0000 -7.7311 0.0000
# 4 0.0000 0.0000 0.0000 7.7567 0.0000 3.3881
# 5 -0.6292 1.8202 -7.7311 0.0000 35.1700 0.0000
# 6 0.0000 0.0000 0.0000 3.3881 0.0000 34.5442
#
#
#
# Elastic Compliance Matrix: (Units=1/GPa)
#
#
# Indices 1 2 3 4 5 6 
#
# 1 0.009901 -0.007096 -0.001254 0.000000 0.000269 0.000000
# 2 -0.007096 0.033526 0.012702 0.000000 0.000930 0.000000
# 3 -0.001254 0.012702 0.030508 0.000000 0.006027 0.000000
# 4 0.000000 0.000000 0.000000 0.134691 0.000000 -0.013210
# 5 0.000269 0.000930 0.006027 0.000000 0.029715 0.000000
# 6 0.000000 0.000000 0.000000 -0.013210 0.000000 0.030244
#
#
# Mechanical properties :
#
#
# Convention : Reuss Voigt Hill
#
# Bulk Modulus (GPa) = 12.10090 23.61959 17.86024
# Shear Modulus (GPa) = 17.39568 28.73123 23.06346
#
# Velocity S-wave (km/s) = 2.88038 3.70175 3.31659
# Velocity P-wave (km/s) = 4.10286 5.43466 4.81503
#
# Compressibility (1/GPa) = 0.08263851
#
# Stress axis : x y z
#
# Youngs Moduli (GPa) = 100.99637 29.82778 32.77826
#
# Poissons Ratio (x) = 0.21166 0.04111
# Poissons Ratio (y) = 0.71669 -0.41635
# Poissons Ratio (z) = 0.12667 -0.37887
#
# Static dielectric constant tensor:
#      x y z
#    x 1.757330 0.000000 0.028670 
#    y 0.000000 1.722140 0.000000 
#    z 0.028670 0.000000 1.767100 
# 
# From -- ./inp_files/214150.got.cif
#   From: 2010.05.17/outbox.cif.g08.bks.cpg/sg15_108_cif.got.tgz:214150.got - 2010.06.03 18:47:42.
