data_PCOD9267813
_publ_section_title
;
Structure prediction by ZEFSAII (Michael W. Deem and Ramdas Pophale) SiO2 
 PCOD9267813
Probable space group: C 2/C
;
_chemical_formula_sum "Si O2"
_cell_formula_units_Z 60
_cell_length_a 9.653209
_cell_length_b 20.584994
_cell_length_c 24.921061
_cell_angle_alpha 90.000000
_cell_angle_beta 143.600701
_cell_angle_gamma 90.000000
_cell_volume 2938.618033
_symmetry_space_group_name_H-M "C 2/C"
_symmetry_group_IT_number 15
_symmetry_cell_setting 'monoclinic'
loop_
_space_group_symop_operation_xyz
x,y,z
-x,y,1/2-z
-x,-y,-z
x,-y,1/2+z
1/2+x,1/2+y,z
1/2-x,1/2+y,1/2-z
1/2-x,1/2-y,-z
1/2+x,1/2-y,1/2+z
loop_
_atom_site_type_symbol
_atom_site_label
_atom_site_fract_x
_atom_site_fract_y
_atom_site_fract_z
Si Si1 0.589722 0.663778 0.688010
Si Si2 0.134795 0.856638 0.583498
Si Si3 0.947186 0.632703 0.003276
Si Si4 0.000000 0.740662 0.250000
Si Si5 0.814462 0.057387 0.050422
Si Si6 0.394619 0.045407 0.092022
Si Si7 0.010242 0.768213 0.057739
Si Si8 0.873918 0.022705 0.768192
O O1 0.633330 0.712690 0.750124
O O2 0.644077 0.700080 0.649353
O O3 0.696852 0.593171 0.730829
O O4 0.308898 0.649536 0.599215
O O5 0.322200 0.805088 0.663021
O O6 0.265006 0.919281 0.599962
O O7 0.006371 0.820795 0.494388
O O8 0.967699 0.882409 0.577845
O O9 0.083138 0.584709 0.006508
O O10 0.917465 0.597497 0.051059
O O11 0.087858 0.699381 0.057741
O O12 0.954005 0.013220 0.136557
O O13 0.746573 0.013916 0.978141
O O14 0.646991 0.020809 0.188293
O O15 0.750000 0.750000 0.000000
O O16 0.000000 0.031817 0.750000
#
# Coordination Sequence:
#
# PCOD9267813 Si02
#       8
#     8   8   8   4   8   8   8   8
#     4  11  21  39  68  97 124 169 227 271 321 394
#     4  12  24  42  64  95 131 172 218 268 332 392
#     4  11  20  41  68  93 124 172 221 269 322 391
#     4  12  22  38  66  96 128 166 228 272 316 392
#     4  12  26  40  64  99 135 167 221 274 329 390
#     4  12  23  42  69  91 132 177 215 269 333 392
#     4  10  19  40  66  88 119 172 215 259 323 392
#     4  12  23  39  65  99 130 167 219 277 327 388
#
# _framework density 20.417762
#
# number of rings (size 3 to 8) (size 9 to 14) (size 15 to 20)
#    0.000    0.533    8.667    2.400    0.000    0.533 
#    0.000    0.000    0.000    1.600    0.000    0.000 
#    0.000    0.000    0.000    0.000    0.000    0.000 
#
# Total GULP energy -167770.691521 kJ/mol
# GULP energy per Si atom -5592.356384 kJ/mol
# Density = 2.037129 g / cm^3
# Si number density = 20.417762 Si / 1000 Ang^3
#
#
#
# Elastic Constant Matrix: (Units=GPa)
#
#
# Indices 1 2 3 4 5 6 
#
# 1 36.2082 3.9588 3.4084 0.0005 -9.8312 0.0007
# 2 3.9588 79.4173 5.1076 0.0009 -3.8861 0.0005
# 3 3.4084 5.1076 40.5904 0.0011 -12.3553 0.0012
# 4 0.0005 0.0009 0.0011 31.8653 0.0007 -20.5886
# 5 -9.8312 -3.8861 -12.3553 0.0007 24.6942 0.0009
# 6 0.0007 0.0005 0.0012 -20.5886 0.0009 24.7207
#
#
#
# Elastic Compliance Matrix: (Units=1/GPa)
#
#
# Indices 1 2 3 4 5 6 
#
# 1 0.031109 -0.001011 0.001459 -0.000004 0.012956 -0.000005
# 2 -0.001011 0.012769 -0.001218 -0.000001 0.000998 -0.000001
# 3 0.001459 -0.001218 0.029238 -0.000006 0.015018 -0.000007
# 4 -0.000004 -0.000001 -0.000006 0.067944 -0.000009 0.056587
# 5 0.012956 0.000998 0.015018 -0.000009 0.053324 -0.000011
# 6 -0.000005 -0.000001 -0.000007 0.056587 -0.000011 0.087580
#
#
# Mechanical properties :
#
#
# Convention : Reuss Voigt Hill
#
# Bulk Modulus (GPa) = 13.97114 20.12951 17.05032
# Shear Modulus (GPa) = 16.26735 25.83878 21.05306
#
# Velocity S-wave (km/s) = 2.82569 3.56125 3.21458
# Velocity P-wave (km/s) = 4.18373 5.17593 4.70605
#
# Compressibility (1/GPa) = 0.07157611
#
# Stress axis : x y z
#
# Youngs Moduli (GPa) = 32.14499 78.31308 34.20150
#
# Poissons Ratio (x) = 0.07914 -0.04988
# Poissons Ratio (y) = 0.03249 0.04167
# Poissons Ratio (z) = -0.04688 0.09541
#
# Static dielectric constant tensor:
#      x y z
#    x 1.710140 0.000000 -0.012330 
#    y 0.000000 1.741340 0.000000 
#    z -0.012330 0.000000 1.709690 
# 
# From -- ./inp_files/266257.got.cif
#   From: 2010.05.17/outbox.cif.g08.bks.cpg/sg15_134_cif.got.tgz:266257.got - 2010.06.03 18:47:42.
