data_PCOD9267565
_publ_section_title
;
Structure prediction by ZEFSAII (Michael W. Deem and Ramdas Pophale) SiO2 
 PCOD9267565
Probable space group: C 2/C
;
_chemical_formula_sum "Si O2"
_cell_formula_units_Z 44
_cell_length_a 9.238356
_cell_length_b 15.614775
_cell_length_c 14.135654
_cell_angle_alpha 90.000000
_cell_angle_beta 109.516662
_cell_angle_gamma 90.000000
_cell_volume 1921.976787
_symmetry_space_group_name_H-M "C 2/C"
_symmetry_group_IT_number 15
_symmetry_cell_setting 'monoclinic'
loop_
_space_group_symop_operation_xyz
x,y,z
-x,y,1/2-z
-x,-y,-z
x,-y,1/2+z
1/2+x,1/2+y,z
1/2-x,1/2+y,1/2-z
1/2-x,1/2-y,-z
1/2+x,1/2-y,1/2+z
loop_
_atom_site_type_symbol
_atom_site_label
_atom_site_fract_x
_atom_site_fract_y
_atom_site_fract_z
Si Si1 0.647158 0.963635 0.911322
Si Si2 0.886189 0.031531 0.841111
Si Si3 0.726196 0.719324 0.101878
Si Si4 0.000000 0.821770 0.250000
Si Si5 0.947809 0.142811 0.130186
Si Si6 0.301939 0.034126 0.377245
O O1 0.713193 0.877611 0.881912
O O2 0.465258 0.961763 0.862138
O O3 0.744017 0.037881 0.881418
O O4 0.677992 0.971468 0.029632
O O5 0.970938 0.119108 0.836258
O O6 0.995518 0.952079 0.893339
O O7 0.814705 0.002749 0.724995
O O8 0.546767 0.711888 0.093254
O O9 0.842718 0.770840 0.195084
O O10 0.750000 0.750000 0.000000
O O11 0.000000 0.156393 0.250000
O O12 0.765518 0.124883 0.099514
#
# Coordination Sequence:
#
# PCOD9267565 Si02
#       6
#     8   8   8   4   8   8
#     4  10  23  37  68  93 123 174 216 278 320 402
#     4  10  20  39  65  89 123 169 221 266 316 387
#     4  11  26  40  62  96 138 173 214 267 354 391
#     4  12  24  40  64  98 138 168 222 282 328 400
#     4   9  20  39  68  87 123 173 219 265 319 399
#     4  10  19  39  66  94 121 159 239 265 316 383
#
# _framework density 22.893096
#
# number of rings (size 3 to 8) (size 9 to 14) (size 15 to 20)
#    0.000    1.818    2.727    1.636   10.182    1.455 
#    0.000    6.364    0.000    0.000    0.000    0.000 
#    0.000    0.000    0.000    0.000    0.000    0.000 
#
# Total GULP energy -122778.683710 kJ/mol
# GULP energy per Si atom -5580.849260 kJ/mol
# Density = 2.284099 g / cm^3
# Si number density = 22.893096 Si / 1000 Ang^3
#
#
#
# Elastic Constant Matrix: (Units=GPa)
#
#
# Indices 1 2 3 4 5 6 
#
# 1 148.4763 21.7825 8.0623 0.0000 -12.9182 0.0000
# 2 21.7825 41.6452 2.6778 0.0000 -4.4757 0.0000
# 3 8.0623 2.6778 41.9182 0.0000 -3.2290 0.0000
# 4 0.0000 0.0000 0.0000 21.7039 0.0000 -5.7834
# 5 -12.9182 -4.4757 -3.2290 0.0000 39.3971 0.0000
# 6 0.0000 0.0000 0.0000 -5.7834 0.0000 33.1952
#
#
#
# Elastic Compliance Matrix: (Units=1/GPa)
#
#
# Indices 1 2 3 4 5 6 
#
# 1 0.007497 -0.003643 -0.001058 0.000000 0.001958 0.000000
# 2 -0.003643 0.026155 -0.000839 0.000000 0.001708 0.000000
# 3 -0.001058 -0.000839 0.024232 0.000000 0.001544 0.000000
# 4 0.000000 0.000000 0.000000 0.048318 0.000000 0.008418
# 5 0.001958 0.001708 0.001544 0.000000 0.026345 0.000000
# 6 0.000000 0.000000 0.000000 0.008418 0.000000 0.031591
#
#
# Mechanical properties :
#
#
# Convention : Reuss Voigt Hill
#
# Bulk Modulus (GPa) = 21.36547 33.00945 27.18746
# Shear Modulus (GPa) = 26.20259 32.16037 29.18148
#
# Velocity S-wave (km/s) = 3.38681 3.75214 3.57415
# Velocity P-wave (km/s) = 4.96457 5.76382 5.37906
#
# Compressibility (1/GPa) = 0.04680450
#
# Stress axis : x y z
#
# Youngs Moduli (GPa) = 133.38048 38.23313 41.26770
#
# Poissons Ratio (x) = 0.13928 0.04368
# Poissons Ratio (y) = 0.48591 0.03461
# Poissons Ratio (z) = 0.14118 0.03206
#
# Static dielectric constant tensor:
#      x y z
#    x 2.007660 0.000000 -0.023410 
#    y 0.000000 1.906310 0.000000 
#    z -0.023410 0.000000 1.863330 
# 
# From -- ./inp_files/134545.got.cif
#   From: 2010.05.17/outbox.cif.g08.bks.cpg/sg15_68_cif.got.tgz:134545.got - 2010.06.03 18:47:42.
