data_PCOD9267163
_publ_section_title
;
Structure prediction by ZEFSAII (Michael W. Deem and Ramdas Pophale) SiO2 
 PCOD9267163
Probable space group: C 2/C
;
_chemical_formula_sum "Si O2"
_cell_formula_units_Z 32
_cell_length_a 5.421416
_cell_length_b 23.498511
_cell_length_c 10.888634
_cell_angle_alpha 90.000000
_cell_angle_beta 89.996923
_cell_angle_gamma 90.000000
_cell_volume 1387.159742
_symmetry_space_group_name_H-M "C 2/C"
_symmetry_group_IT_number 15
_symmetry_cell_setting 'monoclinic'
loop_
_space_group_symop_operation_xyz
x,y,z
-x,y,1/2-z
-x,-y,-z
x,-y,1/2+z
1/2+x,1/2+y,z
1/2-x,1/2+y,1/2-z
1/2-x,1/2-y,-z
1/2+x,1/2-y,1/2+z
loop_
_atom_site_type_symbol
_atom_site_label
_atom_site_fract_x
_atom_site_fract_y
_atom_site_fract_z
Si Si1 0.499987 0.052939 0.891335
Si Si2 1.000000 0.213476 0.492282
Si Si3 0.500011 0.400517 0.109864
Si Si4 0.000000 0.440408 0.750000
Si Si5 0.500000 0.634594 0.250000
O O1 0.500000 0.078727 0.750000
O O2 0.499999 0.985970 0.863006
O O3 0.751238 0.075674 0.948189
O O4 0.751289 0.924335 0.051808
O O5 0.750000 0.250000 0.500000
O O6 0.000001 0.175389 0.369009
O O7 0.250000 0.250000 0.500000
O O8 0.999988 0.166986 0.600606
O O9 0.500000 0.421997 0.250000
O O10 0.750129 0.403401 0.750000
#
# Coordination Sequence:
#
# PCOD9267163 Si02
#       5
#     8   8   8   4   4
#     4   8  17  34  65  95 128 163 204 253 311 391
#     4  12  28  45  67  96 128 181 226 276 335 372
#     4  10  19  38  66  93 125 163 221 263 306 385
#     4  10  20  42  69  96 141 168 206 268 342 394
#     4  12  26  46  65  96 139 168 216 278 330 406
#
# _framework density 23.068721
#
# number of rings (size 3 to 8) (size 9 to 14) (size 15 to 20)
#    0.750    1.000    0.000    4.500    3.500    0.000 
#    0.000    7.500    0.000    0.000    0.000    0.000 
#    0.000    0.000    0.000    0.000    0.000    0.000 
#
# Total GULP energy -89420.879460 kJ/mol
# GULP energy per Si atom -5588.804966 kJ/mol
# Density = 2.301622 g / cm^3
# Si number density = 23.068721 Si / 1000 Ang^3
#
#
#
# Elastic Constant Matrix: (Units=GPa)
#
#
# Indices 1 2 3 4 5 6 
#
# 1 315.4595 136.5344 25.1546 0.0000 24.0571 0.0000
# 2 136.5344 163.8660 24.6924 0.0000 9.8515 0.0000
# 3 25.1546 24.6924 51.9300 0.0000 -0.8346 0.0000
# 4 0.0000 0.0000 0.0000 55.4199 0.0000 1.3440
# 5 24.0571 9.8515 -0.8346 0.0000 10.7631 0.0000
# 6 0.0000 0.0000 0.0000 1.3440 0.0000 70.6890
#
#
#
# Elastic Compliance Matrix: (Units=1/GPa)
#
#
# Indices 1 2 3 4 5 6 
#
# 1 0.005695 -0.004051 -0.000979 0.000000 -0.009097 0.000000
# 2 -0.004051 0.009906 -0.002752 0.000000 -0.000226 0.000000
# 3 -0.000979 -0.002752 0.021141 0.000000 0.006346 0.000000
# 4 0.000000 0.000000 0.000000 0.018052 0.000000 -0.000343
# 5 -0.009097 -0.000226 0.006346 0.000000 0.113943 0.000000
# 6 0.000000 0.000000 0.000000 -0.000343 0.000000 0.014153
#
#
# Mechanical properties :
#
#
# Convention : Reuss Voigt Hill
#
# Bulk Modulus (GPa) = 47.21485 100.44647 73.83066
# Shear Modulus (GPa) = 24.32939 50.36602 37.34771
#
# Velocity S-wave (km/s) = 3.25106 4.67765 4.02802
# Velocity P-wave (km/s) = 5.88252 8.53292 7.32853
#
# Compressibility (1/GPa) = 0.02117978
#
# Stress axis : x y z
#
# Youngs Moduli (GPa) = 175.59308 100.95025 47.30107
#
# Poissons Ratio (x) = 0.40892 0.04630
# Poissons Ratio (y) = 0.71127 0.13016
# Poissons Ratio (z) = 0.17186 0.27778
#
# Static dielectric constant tensor:
#      x y z
#    x 1.793220 0.000000 -0.021900 
#    y 0.000000 1.794960 0.000000 
#    z -0.021900 0.000000 2.042120 
# 
# From -- ./inp_files/72286.got.cif
#   From: 2010.05.17/outbox.cif.g08.bks.cpg/sg15_37_cif.got.tgz:72286.got - 2010.06.03 18:47:42.
