data_PCOD9267312
_publ_section_title
;
Structure prediction by ZEFSAII (Michael W. Deem and Ramdas Pophale) SiO2 
 PCOD9267312
Probable space group: C 2/C
;
_chemical_formula_sum "Si O2"
_cell_formula_units_Z 60
_cell_length_a 15.521838
_cell_length_b 8.832860
_cell_length_c 22.517742
_cell_angle_alpha 90.000000
_cell_angle_beta 81.402293
_cell_angle_gamma 90.000000
_cell_volume 3052.539270
_symmetry_space_group_name_H-M "C 2/C"
_symmetry_group_IT_number 15
_symmetry_cell_setting 'monoclinic'
loop_
_space_group_symop_operation_xyz
x,y,z
-x,y,1/2-z
-x,-y,-z
x,-y,1/2+z
1/2+x,1/2+y,z
1/2-x,1/2+y,1/2-z
1/2-x,1/2-y,-z
1/2+x,1/2-y,1/2+z
loop_
_atom_site_type_symbol
_atom_site_label
_atom_site_fract_x
_atom_site_fract_y
_atom_site_fract_z
Si Si1 0.236825 0.596835 0.038921
Si Si2 0.426827 0.888756 0.482006
Si Si3 0.919253 0.422804 0.714739
Si Si4 0.613964 0.615853 0.827870
Si Si5 0.698169 0.012571 0.171682
Si Si6 0.417077 0.430071 0.040221
Si Si7 0.500000 0.444460 0.750000
Si Si8 0.970585 0.315879 0.345571
O O1 0.159060 0.490056 0.022226
O O2 0.215173 0.616642 0.111898
O O3 0.328019 0.507853 0.028077
O O4 0.250000 0.750000 0.000000
O O5 0.409511 0.748049 0.526950
O O6 0.462776 0.813988 0.417109
O O7 0.500000 0.000000 0.500000
O O8 0.910744 0.291551 0.668125
O O9 0.833106 0.412862 0.763930
O O10 0.000000 0.387161 0.750000
O O11 0.945634 0.583732 0.683548
O O12 0.715923 0.583922 0.824535
O O13 0.573090 0.542112 0.890655
O O14 0.575464 0.545666 0.771555
O O15 0.615778 0.907801 0.164611
O O16 0.500000 0.500000 0.000000
O O17 0.529356 0.335803 0.693007
#
# Coordination Sequence:
#
# PCOD9267312 Si02
#       8
#     8   8   8   8   8   8   4   8
#     4  10  22  41  63  91 125 162 208 255 303 368
#     4  11  22  40  67  94 122 165 206 253 319 371
#     4  10  19  39  59  84 120 158 191 240 307 362
#     4  11  24  38  60  89 122 154 206 252 299 359
#     4   9  21  39  61  85 121 155 199 247 297 360
#     4  11  23  42  62  89 126 164 208 258 305 362
#     4  12  22  38  58  90 122 156 204 250 304 356
#     4  10  21  40  64  86 122 159 200 250 308 369
#
# _framework density 19.655766
#
# number of rings (size 3 to 8) (size 9 to 14) (size 15 to 20)
#    0.000    1.600    2.667    2.800    1.867    3.200 
#    2.400    1.333    0.000    0.000    0.000    0.000 
#    0.000    0.000    0.000    0.000    0.000    0.000 
#
# Total GULP energy -167353.008339 kJ/mol
# GULP energy per Si atom -5578.433611 kJ/mol
# Density = 1.961103 g / cm^3
# Si number density = 19.655766 Si / 1000 Ang^3
#
#
#
# Elastic Constant Matrix: (Units=GPa)
#
#
# Indices 1 2 3 4 5 6 
#
# 1 91.5932 23.5980 39.6936 0.0000 -10.5181 0.0000
# 2 23.5980 82.3552 29.3188 0.0000 3.4909 0.0000
# 3 39.6936 29.3188 88.3944 0.0000 2.8482 0.0000
# 4 0.0000 0.0000 0.0000 38.5891 0.0000 -0.3441
# 5 -10.5181 3.4909 2.8482 0.0000 29.7352 0.0000
# 6 0.0000 0.0000 0.0000 -0.3441 0.0000 17.8718
#
#
#
# Elastic Compliance Matrix: (Units=1/GPa)
#
#
# Indices 1 2 3 4 5 6 
#
# 1 0.014867 -0.002350 -0.006094 0.000000 0.006118 0.000000
# 2 -0.002350 0.014181 -0.003579 0.000000 -0.002153 0.000000
# 3 -0.006094 -0.003579 0.015340 0.000000 -0.003205 0.000000
# 4 0.000000 0.000000 0.000000 0.025918 0.000000 0.000499
# 5 0.006118 -0.002153 -0.003205 0.000000 0.036354 0.000000
# 6 0.000000 0.000000 0.000000 0.000499 0.000000 0.055964
#
#
# Mechanical properties :
#
#
# Convention : Reuss Voigt Hill
#
# Bulk Modulus (GPa) = 49.15828 49.72929 49.44378
# Shear Modulus (GPa) = 25.84650 28.55471 27.20061
#
# Velocity S-wave (km/s) = 3.63017 3.81562 3.72405
# Velocity P-wave (km/s) = 6.52953 6.69081 6.61066
#
# Compressibility (1/GPa) = 0.02034245
#
# Stress axis : x y z
#
# Youngs Moduli (GPa) = 67.26480 70.51546 65.19056
#
# Poissons Ratio (x) = 0.16570 0.39725
# Poissons Ratio (y) = 0.15806 0.23332
# Poissons Ratio (z) = 0.40989 0.25238
#
# Static dielectric constant tensor:
#      x y z
#    x 1.676390 0.000000 -0.042160 
#    y 0.000000 1.694230 0.000000 
#    z -0.042160 0.000000 1.753420 
# 
# From -- ./inp_files/272805.got.cif
#   From: 2010.05.17/outbox.cif.g08.bks.cpg/sg15_137_cif.got.tgz:272805.got - 2010.06.03 18:47:42.
