data_PCOD9267273
_publ_section_title
;
Structure prediction by ZEFSAII (Michael W. Deem and Ramdas Pophale) SiO2 
 PCOD9267273
Probable space group: C 2/C
;
_chemical_formula_sum "Si O2"
_cell_formula_units_Z 60
_cell_length_a 10.132093
_cell_length_b 9.374306
_cell_length_c 26.782630
_cell_angle_alpha 90.000000
_cell_angle_beta 87.964535
_cell_angle_gamma 90.000000
_cell_volume 2542.245007
_symmetry_space_group_name_H-M "C 2/C"
_symmetry_group_IT_number 15
_symmetry_cell_setting 'monoclinic'
loop_
_space_group_symop_operation_xyz
x,y,z
-x,y,1/2-z
-x,-y,-z
x,-y,1/2+z
1/2+x,1/2+y,z
1/2-x,1/2+y,1/2-z
1/2-x,1/2-y,-z
1/2+x,1/2-y,1/2+z
loop_
_atom_site_type_symbol
_atom_site_label
_atom_site_fract_x
_atom_site_fract_y
_atom_site_fract_z
Si Si1 0.476399 0.664587 0.326327
Si Si2 0.894867 0.890782 0.936029
Si Si3 0.951523 0.875239 0.194688
Si Si4 0.500000 0.081832 0.750000
Si Si5 0.360691 0.761252 0.041263
Si Si6 0.304109 0.903008 0.690730
Si Si7 0.109876 0.571304 0.424440
Si Si8 0.383989 0.283030 0.400374
O O1 0.434813 0.687238 0.383726
O O2 0.582287 0.537326 0.320666
O O3 0.493547 0.809287 0.296590
O O4 0.351505 0.582708 0.303211
O O5 0.740979 0.859198 0.947717
O O6 0.015640 0.842032 0.968531
O O7 0.895391 0.059654 0.924646
O O8 0.061898 0.808109 0.155938
O O9 0.000000 0.864991 0.250000
O O10 0.831106 0.766076 0.190629
O O11 0.380954 0.979503 0.734344
O O12 0.266793 0.732370 0.091042
O O13 0.412906 0.921352 0.048309
O O14 0.250000 0.750000 0.000000
O O15 0.350408 0.954149 0.634773
O O16 0.983925 0.672615 0.424777
#
# Coordination Sequence:
#
# PCOD9267273 Si02
#       8
#     8   8   8   4   8   8   8   8
#     4  10  22  36  55  80 113 154 200 240 289 346
#     4   9  20  41  60  84 120 159 194 246 304 358
#     4  10  19  39  57  80 119 156 199 243 285 337
#     4  12  22  30  52  84 108 148 202 236 284 344
#     4  11  23  40  64  93 121 152 196 254 312 364
#     4  10  22  37  54  80 115 156 193 244 294 335
#     4   9  20  41  61  83 122 157 196 246 299 362
#     4   9  21  39  62  88 119 163 199 244 300 353
#
# _framework density 23.601188
#
# number of rings (size 3 to 8) (size 9 to 14) (size 15 to 20)
#    0.000    2.133    1.333    1.600    1.867    3.733 
#    0.000    8.000    0.000    0.000    0.000    0.000 
#    0.000    0.000    0.000    0.000    0.000    0.000 
#
# Total GULP energy -167577.492802 kJ/mol
# GULP energy per Si atom -5585.916427 kJ/mol
# Density = 2.354747 g / cm^3
# Si number density = 23.601188 Si / 1000 Ang^3
#
#
#
# Elastic Constant Matrix: (Units=GPa)
#
#
# Indices 1 2 3 4 5 6 
#
# 1 96.3271 45.5192 -3.6878 0.0000 12.0219 0.0000
# 2 45.5192 87.9063 7.3397 0.0000 11.2133 0.0000
# 3 -3.6878 7.3397 60.2965 0.0000 7.6987 0.0000
# 4 0.0000 0.0000 0.0000 28.2818 0.0000 10.5486
# 5 12.0219 11.2133 7.6987 0.0000 30.9273 0.0000
# 6 0.0000 0.0000 0.0000 10.5486 0.0000 34.2463
#
#
#
# Elastic Compliance Matrix: (Units=1/GPa)
#
#
# Indices 1 2 3 4 5 6 
#
# 1 0.014269 -0.007124 0.002188 0.000000 -0.003508 0.000000
# 2 -0.007124 0.015535 -0.002026 0.000000 -0.002359 0.000000
# 3 0.002188 -0.002026 0.017537 0.000000 -0.004482 0.000000
# 4 0.000000 0.000000 0.000000 0.039948 0.000000 -0.012305
# 5 -0.003508 -0.002359 -0.004482 0.000000 0.035669 0.000000
# 6 0.000000 0.000000 0.000000 -0.012305 0.000000 0.032990
#
#
# Mechanical properties :
#
#
# Convention : Reuss Voigt Hill
#
# Bulk Modulus (GPa) = 29.92398 38.09690 34.01044
# Shear Modulus (GPa) = 27.62263 31.71499 29.66881
#
# Velocity S-wave (km/s) = 3.42481 3.66975 3.54939
# Velocity P-wave (km/s) = 5.32406 5.84235 5.58922
#
# Compressibility (1/GPa) = 0.03341802
#
# Stress axis : x y z
#
# Youngs Moduli (GPa) = 70.08019 64.37191 57.02137
#
# Poissons Ratio (x) = 0.45859 -0.12476
# Poissons Ratio (y) = 0.49925 0.11550
# Poissons Ratio (z) = -0.15333 0.13039
#
# Static dielectric constant tensor:
#      x y z
#    x 1.905190 0.000000 -0.015300 
#    y 0.000000 1.883730 0.000000 
#    z -0.015300 0.000000 1.973060 
# 
# From -- ./inp_files/310027.got.cif
#   From: 2010.05.17/outbox.cif.g08.bks.cpg/sg15_156_cif.got.tgz:310027.got - 2010.06.03 18:47:42.
