data_PCOD9267060
_publ_section_title
;
Structure prediction by ZEFSAII (Michael W. Deem and Ramdas Pophale) SiO2 
 PCOD9267060
Probable space group: C 2/C
;
_chemical_formula_sum "Si O2"
_cell_formula_units_Z 52
_cell_length_a 8.832752
_cell_length_b 19.812343
_cell_length_c 16.371315
_cell_angle_alpha 90.000000
_cell_angle_beta 64.496870
_cell_angle_gamma 90.000000
_cell_volume 2585.784758
_symmetry_space_group_name_H-M "C 2/C"
_symmetry_group_IT_number 15
_symmetry_cell_setting 'monoclinic'
loop_
_space_group_symop_operation_xyz
x,y,z
-x,y,1/2-z
-x,-y,-z
x,-y,1/2+z
1/2+x,1/2+y,z
1/2-x,1/2+y,1/2-z
1/2-x,1/2-y,-z
1/2+x,1/2-y,1/2+z
loop_
_atom_site_type_symbol
_atom_site_label
_atom_site_fract_x
_atom_site_fract_y
_atom_site_fract_z
Si Si1 0.343859 0.108817 0.641161
Si Si2 0.319814 0.697464 0.685993
Si Si3 0.828058 0.045704 0.127737
Si Si4 0.404078 0.215482 0.917733
Si Si5 0.143992 0.181912 0.284323
Si Si6 0.500000 0.020904 0.750000
Si Si7 0.934797 0.081568 0.920600
O O1 0.228503 0.161072 0.718708
O O2 0.502593 0.150103 0.568040
O O3 0.228255 0.076867 0.598846
O O4 0.409019 0.062104 0.699204
O O5 0.172598 0.691669 0.651792
O O6 0.305404 0.777143 0.711748
O O7 0.475003 0.654211 0.615490
O O8 0.828452 0.107982 0.189130
O O9 0.638911 0.020788 0.169850
O O10 0.890135 0.071903 0.025672
O O11 0.940354 0.980986 0.127721
O O12 0.549559 0.270995 0.872636
O O13 0.250000 0.250000 0.000000
O O14 0.000000 0.177434 0.250000
#
# Coordination Sequence:
#
# PCOD9267060 Si02
#       7
#     8   8   8   8   8   4   8
#     4  11  21  41  68  97 121 176 231 260 330 403
#     4  10  19  41  67  94 125 181 219 266 324 399
#     4  11  25  44  62 101 137 171 215 282 335 397
#     4  10  19  38  64  93 133 172 217 270 321 389
#     4   9  21  38  63  94 129 171 220 259 328 393
#     4  12  24  42  68  88 138 170 220 278 324 420
#     4  11  24  42  71  95 134 173 222 279 337 392
#
# _framework density 20.109949
#
# number of rings (size 3 to 8) (size 9 to 14) (size 15 to 20)
#    0.000    1.538    3.077    2.308    2.154    1.846 
#   11.077    3.846    0.000    0.000    0.000    0.000 
#    0.000    0.000    0.000    0.000    0.000    0.000 
#
# Total GULP energy -144911.805535 kJ/mol
# GULP energy per Si atom -5573.530982 kJ/mol
# Density = 2.006418 g / cm^3
# Si number density = 20.109949 Si / 1000 Ang^3
#
#
#
# Elastic Constant Matrix: (Units=GPa)
#
#
# Indices 1 2 3 4 5 6 
#
# 1 83.5867 42.5363 30.6464 0.0000 3.2058 0.0000
# 2 42.5363 96.9367 45.3145 0.0000 0.8714 0.0000
# 3 30.6464 45.3145 62.5916 0.0000 -14.2621 0.0000
# 4 0.0000 0.0000 0.0000 32.6645 0.0000 -8.3804
# 5 3.2058 0.8714 -14.2621 0.0000 29.9003 0.0000
# 6 0.0000 0.0000 0.0000 -8.3804 0.0000 14.1789
#
#
#
# Elastic Compliance Matrix: (Units=1/GPa)
#
#
# Indices 1 2 3 4 5 6 
#
# 1 0.016572 -0.004481 -0.005885 0.000000 -0.004453 0.000000
# 2 -0.004481 0.018039 -0.012202 0.000000 -0.005866 0.000000
# 3 -0.005885 -0.012202 0.031321 0.000000 0.015926 0.000000
# 4 0.000000 0.000000 0.000000 0.036086 0.000000 0.021329
# 5 -0.004453 -0.005866 0.015926 0.000000 0.041690 0.000000
# 6 0.000000 0.000000 0.000000 0.021329 0.000000 0.083134
#
#
# Mechanical properties :
#
#
# Convention : Reuss Voigt Hill
#
# Bulk Modulus (GPa) = 48.08573 53.34552 50.71562
# Shear Modulus (GPa) = 17.92682 23.65658 20.79170
#
# Velocity S-wave (km/s) = 2.98894 3.43353 3.21892
# Velocity P-wave (km/s) = 5.98957 6.50411 6.25214
#
# Compressibility (1/GPa) = 0.02079619
#
# Stress axis : x y z
#
# Youngs Moduli (GPa) = 60.34127 55.43462 31.92731
#
# Poissons Ratio (x) = 0.24841 0.18789
# Poissons Ratio (y) = 0.27039 0.38959
# Poissons Ratio (z) = 0.35510 0.67644
#
# Static dielectric constant tensor:
#      x y z
#    x 1.727620 0.000000 -0.016570 
#    y 0.000000 1.769530 0.000000 
#    z -0.016570 0.000000 1.735630 
# 
# From -- ./inp_files/190324.got.cif
#   From: 2010.05.17/outbox.cif.g08.bks.cpg/sg15_96_cif.got.tgz:190324.got - 2010.06.03 18:47:42.
