data_PCOD9267358
_publ_section_title
;
Structure prediction by ZEFSAII (Michael W. Deem and Ramdas Pophale) SiO2 
 PCOD9267358
Probable space group: C 2/C
;
_chemical_formula_sum "Si O2"
_cell_formula_units_Z 52
_cell_length_a 29.260814
_cell_length_b 17.919319
_cell_length_c 14.426258
_cell_angle_alpha 90.000000
_cell_angle_beta 159.026062
_cell_angle_gamma 90.000000
_cell_volume 2707.545631
_symmetry_space_group_name_H-M "C 2/C"
_symmetry_group_IT_number 15
_symmetry_cell_setting 'monoclinic'
loop_
_space_group_symop_operation_xyz
x,y,z
-x,y,1/2-z
-x,-y,-z
x,-y,1/2+z
1/2+x,1/2+y,z
1/2-x,1/2+y,1/2-z
1/2-x,1/2-y,-z
1/2+x,1/2-y,1/2+z
loop_
_atom_site_type_symbol
_atom_site_label
_atom_site_fract_x
_atom_site_fract_y
_atom_site_fract_z
Si Si1 0.918399 0.070468 0.807889
Si Si2 0.156811 0.347802 0.294955
Si Si3 0.554400 0.700272 0.171185
Si Si4 0.277244 0.985638 0.945697
Si Si5 0.184964 0.985294 0.574284
Si Si6 0.500000 0.623154 0.250000
Si Si7 0.958332 0.471245 0.523843
O O1 0.890487 0.061751 0.645948
O O2 0.788962 0.051653 0.620167
O O3 0.991251 0.145559 0.975049
O O4 0.000000 0.000000 0.000000
O O5 0.294453 0.315715 0.527774
O O6 0.061522 0.286718 0.157391
O O7 0.197519 0.412847 0.444180
O O8 0.085024 0.386647 0.073988
O O9 0.482520 0.675494 0.128182
O O10 0.193900 0.963328 0.698750
O O11 0.415912 0.015462 0.178370
O O12 0.115998 0.066308 0.446864
O O13 0.330013 0.988473 0.812990
O O14 0.000000 0.500000 0.500000
#
# Coordination Sequence:
#
# PCOD9267358 Si02
#       7
#     8   8   8   8   8   4   8
#     4  12  19  37  61  94 122 159 211 266 308 365
#     4  10  21  41  62  86 125 173 198 251 324 386
#     4  11  22  38  63  88 127 163 206 254 325 375
#     4  11  21  37  65  93 121 161 215 262 309 376
#     4  12  21  35  65  93 122 154 219 268 309 364
#     4  12  20  36  62  94 118 156 206 272 308 370
#     4  10  19  39  61  86 122 164 206 252 316 379
#
# _framework density 19.205586
#
# number of rings (size 3 to 8) (size 9 to 14) (size 15 to 20)
#    0.000    0.923    9.231    0.462    0.000    0.000 
#    5.538    0.769    3.385    0.000    0.000    0.000 
#    0.000    0.000    0.000    0.000    0.000    0.000 
#
# Total GULP energy -144842.373119 kJ/mol
# GULP energy per Si atom -5570.860505 kJ/mol
# Density = 1.916187 g / cm^3
# Si number density = 19.205586 Si / 1000 Ang^3
#
#
#
# Elastic Constant Matrix: (Units=GPa)
#
#
# Indices 1 2 3 4 5 6 
#
# 1 57.3698 -8.8524 12.7853 0.0000 -9.9322 0.0000
# 2 -8.8524 41.2291 1.8903 0.0000 -4.9206 0.0000
# 3 12.7853 1.8903 85.6888 0.0000 -0.7669 0.0000
# 4 0.0000 0.0000 0.0000 22.8144 0.0000 0.3794
# 5 -9.9322 -4.9206 -0.7669 0.0000 46.9968 0.0000
# 6 0.0000 0.0000 0.0000 0.3794 0.0000 19.1796
#
#
#
# Elastic Compliance Matrix: (Units=1/GPa)
#
#
# Indices 1 2 3 4 5 6 
#
# 1 0.019657 0.004909 -0.003000 0.000000 0.004619 0.000000
# 2 0.004909 0.025811 -0.001269 0.000000 0.003719 0.000000
# 3 -0.003000 -0.001269 0.012141 0.000000 -0.000569 0.000000
# 4 0.000000 0.000000 0.000000 0.043846 0.000000 -0.000867
# 5 0.004619 0.003719 -0.000569 0.000000 0.022634 0.000000
# 6 0.000000 0.000000 0.000000 -0.000867 0.000000 0.052156
#
#
# Mechanical properties :
#
#
# Convention : Reuss Voigt Hill
#
# Bulk Modulus (GPa) = 16.98087 21.77047 19.37567
# Shear Modulus (GPa) = 25.69468 29.69579 27.69523
#
# Velocity S-wave (km/s) = 3.66167 3.93645 3.80154
# Velocity P-wave (km/s) = 5.17087 5.65870 5.42028
#
# Compressibility (1/GPa) = 0.05888979
#
# Stress axis : x y z
#
# Youngs Moduli (GPa) = 50.87364 38.74338 82.36808
#
# Poissons Ratio (x) = -0.19020 0.24709
# Poissons Ratio (y) = -0.24976 0.10449
# Poissons Ratio (z) = 0.15261 0.04915
#
# Static dielectric constant tensor:
#      x y z
#    x 1.746550 0.000000 0.022480 
#    y 0.000000 1.767550 0.000000 
#    z 0.022480 0.000000 1.747740 
# 
# From -- ./inp_files/182905.got.cif
#   From: 2010.05.17/outbox.cif.g08.bks.cpg/sg15_92_cif.got.tgz:182905.got - 2010.06.03 18:47:42.
