data_PCOD9267956
_publ_section_title
;
Structure prediction by ZEFSAII (Michael W. Deem and Ramdas Pophale) SiO2 
 PCOD9267956
Probable space group: C 2/C
;
_chemical_formula_sum "Si O2"
_cell_formula_units_Z 56
_cell_length_a 7.690314
_cell_length_b 12.307507
_cell_length_c 28.323130
_cell_angle_alpha 90.000000
_cell_angle_beta 117.872499
_cell_angle_gamma 90.000000
_cell_volume 2369.751595
_symmetry_space_group_name_H-M "C 2/C"
_symmetry_group_IT_number 15
_symmetry_cell_setting 'monoclinic'
loop_
_space_group_symop_operation_xyz
x,y,z
-x,y,1/2-z
-x,-y,-z
x,-y,1/2+z
1/2+x,1/2+y,z
1/2-x,1/2+y,1/2-z
1/2-x,1/2-y,-z
1/2+x,1/2-y,1/2+z
loop_
_atom_site_type_symbol
_atom_site_label
_atom_site_fract_x
_atom_site_fract_y
_atom_site_fract_z
Si Si1 0.948498 0.953499 0.442159
Si Si2 0.374210 0.204225 0.873403
Si Si3 0.212675 0.725035 0.050118
Si Si4 0.710790 0.004909 0.087332
Si Si5 0.134953 0.578500 0.724092
Si Si6 0.961601 0.058137 0.296384
Si Si7 0.834214 0.401295 0.657041
O O1 0.889920 0.828560 0.440123
O O2 0.774872 0.021636 0.394767
O O3 0.000000 0.000000 0.500000
O O4 0.134989 0.967101 0.432340
O O5 0.564498 0.279952 0.902434
O O6 0.365588 0.157178 0.820011
O O7 0.183519 0.276828 0.862215
O O8 0.408101 0.100618 0.911701
O O9 0.111394 0.612175 0.052703
O O10 0.250000 0.750000 0.000000
O O11 0.838154 0.038586 0.149773
O O12 0.353509 0.555284 0.769689
O O13 0.000000 0.617528 0.750000
O O14 0.034276 0.463308 0.695165
O O15 0.798468 0.103687 0.311962
O O16 0.000000 0.111523 0.250000
#
# Coordination Sequence:
#
# PCOD9267956 Si02
#       7
#     8   8   8   8   8   8   8
#     4  11  21  44  69  94 135 168 214 280 332 390
#     4  12  23  43  68  98 135 173 223 276 323 402
#     4  12  24  46  72  93 131 179 219 280 339 389
#     4  11  25  43  66 102 131 170 226 270 330 401
#     4  10  22  40  63  94 136 179 221 264 330 394
#     4  10  19  41  62  92 140 167 223 271 318 396
#     4  10  22  40  64  95 133 176 217 269 335 390
#
# _framework density 23.631167000000001
#
# number of rings (size 3 to 8) (size 9 to 14) (size 15 to 20)
#    0.000    1.143    7.143    0.000    0.000    2.286 
#    7.714    1.429    0.000    0.000    0.000    0.000 
#    0.000    0.000    0.000    0.000    0.000    0.000 
#
# Total GULP energy -156503.904923 kJ/mol
# GULP energy per Si atom -5589.425176 kJ/mol
# Density = 2.357738 g / cm^3
# Si number density = 23.631167 Si / 1000 Ang^3
#
#
#
# Elastic Constant Matrix: (Units=GPa)
#
#
# Indices 1 2 3 4 5 6 
#
# 1 43.4222 22.9387 15.8543 0.0000 -22.0058 0.0000
# 2 22.9387 147.3832 28.1639 0.0000 -18.9621 0.0000
# 3 15.8543 28.1639 114.6366 0.0000 -22.8025 0.0000
# 4 0.0000 0.0000 0.0000 31.1265 0.0000 -3.1261
# 5 -22.0058 -18.9621 -22.8025 0.0000 34.2209 0.0000
# 6 0.0000 0.0000 0.0000 -3.1261 0.0000 38.5024
#
#
#
# Elastic Compliance Matrix: (Units=1/GPa)
#
#
# Indices 1 2 3 4 5 6 
#
# 1 0.035177 -0.002763 0.000010 0.000000 0.021096 0.000000
# 2 -0.002763 0.007655 -0.001162 0.000000 0.001691 0.000000
# 3 0.000010 -0.001162 0.010237 0.000000 0.006184 0.000000
# 4 0.000000 0.000000 0.000000 0.032391 0.000000 0.002630
# 5 0.021096 0.001691 0.006184 0.000000 0.047845 0.000000
# 6 0.000000 0.000000 0.000000 0.002630 0.000000 0.026186
#
#
# Mechanical properties :
#
#
# Convention : Reuss Voigt Hill
#
# Bulk Modulus (GPa) = 22.10472 48.81733 35.46102
# Shear Modulus (GPa) = 27.41220 36.66895 32.04058
#
# Velocity S-wave (km/s) = 3.40958 3.94346 3.68620
# Velocity P-wave (km/s) = 4.98745 6.43719 5.75813
#
# Compressibility (1/GPa) = 0.04523921
#
# Stress axis : x y z
#
# Youngs Moduli (GPa) = 28.42786 130.64023 97.68074
#
# Poissons Ratio (x) = 0.36091 -0.00098
# Poissons Ratio (y) = 0.07854 0.11353
# Poissons Ratio (z) = -0.00029 0.15184
#
# Static dielectric constant tensor:
#      x y z
#    x 1.661690 0.000000 0.127430 
#    y 0.000000 1.961080 0.000000 
#    z 0.127430 0.000000 1.878140 
# 
# From -- ./inp_files/288076.got.cif
#   From: 2010.05.17/outbox.cif.g08.bks.cpg/sg15_145_cif.got.tgz:288076.got - 2010.06.03 18:47:42.
