data_PCOD9267571
_publ_section_title
;
Structure prediction by ZEFSAII (Michael W. Deem and Ramdas Pophale) SiO2 
 PCOD9267571
Probable space group: C 2/C
;
_chemical_formula_sum "Si O2"
_cell_formula_units_Z 60
_cell_length_a 12.127303
_cell_length_b 16.671707
_cell_length_c 14.190155
_cell_angle_alpha 90.000000
_cell_angle_beta 102.141774
_cell_angle_gamma 90.000000
_cell_volume 2804.826626
_symmetry_space_group_name_H-M "C 2/C"
_symmetry_group_IT_number 15
_symmetry_cell_setting 'monoclinic'
loop_
_space_group_symop_operation_xyz
x,y,z
-x,y,1/2-z
-x,-y,-z
x,-y,1/2+z
1/2+x,1/2+y,z
1/2-x,1/2+y,1/2-z
1/2-x,1/2-y,-z
1/2+x,1/2-y,1/2+z
loop_
_atom_site_type_symbol
_atom_site_label
_atom_site_fract_x
_atom_site_fract_y
_atom_site_fract_z
Si Si1 0.500000 0.117047 0.750000
Si Si2 0.700490 0.924784 0.983302
Si Si3 0.537559 0.531846 0.610841
Si Si4 0.726400 0.089094 0.084573
Si Si5 0.418050 0.324215 0.019090
Si Si6 0.503148 0.842946 0.036612
Si Si7 0.037758 0.128353 0.354120
Si Si8 0.706043 0.009887 0.286766
O O1 0.501508 0.164312 0.850456
O O2 0.388304 0.059950 0.732286
O O3 0.792500 0.855320 0.017082
O O4 0.591076 0.912633 0.027051
O O5 0.747010 0.011189 0.023179
O O6 0.674148 0.931809 0.868049
O O7 0.500000 0.500000 0.500000
O O8 0.497788 0.623713 0.602506
O O9 0.464840 0.468402 0.656576
O O10 0.667808 0.521855 0.663886
O O11 0.834679 0.146907 0.096845
O O12 0.711438 0.057355 0.188908
O O13 0.617535 0.133137 0.025085
O O14 0.447736 0.231490 0.015074
O O15 0.448913 0.351548 0.918252
O O16 0.000000 0.164860 0.250000
#
# Coordination Sequence:
#
# PCOD9267571 Si02
#       8
#     4   8   8   8   8   8   8   8
#     4  12  26  44  64 102 140 184 232 284 354 420
#     4  12  21  45  71  95 134 184 234 280 337 416
#     4  10  19  39  66  97 124 170 225 286 329 394
#     4  12  23  41  72 105 131 179 239 288 343 404
#     4  11  24  42  67  99 139 183 221 285 358 418
#     4  12  28  43  65 101 146 189 220 285 359 425
#     4  11  20  38  68 100 129 169 232 291 336 402
#     4  12  22  42  74 101 131 173 243 293 329 411
#
# _framework density 21.391696
#
# number of rings (size 3 to 8) (size 9 to 14) (size 15 to 20)
#    0.000    0.533    8.000    2.400    0.933    0.533 
#    0.000    0.000    5.867    0.000    0.000    0.000 
#    0.000    0.000    0.000    0.000    0.000    0.000 
#
# Total GULP energy -167391.903486 kJ/mol
# GULP energy per Si atom -5579.730116 kJ/mol
# Density = 2.134301 g / cm^3
# Si number density = 21.391696 Si / 1000 Ang^3
#
#
#
# Elastic Constant Matrix: (Units=GPa)
#
#
# Indices 1 2 3 4 5 6 
#
# 1 129.0681 11.4708 28.2140 0.0000 31.6169 0.0000
# 2 11.4708 51.1322 3.4362 0.0000 19.5007 0.0000
# 3 28.2140 3.4362 115.0734 0.0000 6.2106 0.0000
# 4 0.0000 0.0000 0.0000 6.1127 0.0000 -1.2032
# 5 31.6169 19.5007 6.2106 0.0000 41.4700 0.0000
# 6 0.0000 0.0000 0.0000 -1.2032 0.0000 23.4934
#
#
#
# Elastic Compliance Matrix: (Units=1/GPa)
#
#
# Indices 1 2 3 4 5 6 
#
# 1 0.010016 0.000836 -0.002064 0.000000 -0.007720 0.000000
# 2 0.000836 0.023902 -0.000280 0.000000 -0.011835 0.000000
# 3 -0.002064 -0.000280 0.009187 0.000000 0.000329 0.000000
# 4 0.000000 0.000000 0.000000 0.165260 0.000000 0.008464
# 5 -0.007720 -0.011835 0.000329 0.000000 0.035516 0.000000
# 6 0.000000 0.000000 0.000000 0.008464 0.000000 0.042999
#
#
# Mechanical properties :
#
#
# Convention : Reuss Voigt Hill
#
# Bulk Modulus (GPa) = 24.94461 42.39066 33.66763
# Shear Modulus (GPa) = 16.48764 31.02540 23.75652
#
# Velocity S-wave (km/s) = 2.77925 3.81247 3.33610
# Velocity P-wave (km/s) = 4.68883 6.26413 5.53284
#
# Compressibility (1/GPa) = 0.04008882
#
# Stress axis : x y z
#
# Youngs Moduli (GPa) = 99.84134 41.83744 108.85245
#
# Poissons Ratio (x) = -0.03498 0.22467
# Poissons Ratio (y) = -0.08348 0.03048
# Poissons Ratio (z) = 0.20607 0.01171
#
# Static dielectric constant tensor:
#      x y z
#    x 1.776600 0.000000 -0.005950 
#    y 0.000000 1.919660 0.000000 
#    z -0.005950 0.000000 1.804920 
# 
# From -- ./inp_files/145717.got.cif
#   From: 2010.05.17/outbox.cif.g08.bks.cpg/sg15_73_cif.got.tgz:145717.got - 2010.06.03 18:47:42.
