data_PCOD9267367
_publ_section_title
;
Structure prediction by ZEFSAII (Michael W. Deem and Ramdas Pophale) SiO2 
 PCOD9267367
Probable space group: C 2/C
;
_chemical_formula_sum "Si O2"
_cell_formula_units_Z 60
_cell_length_a 16.225527
_cell_length_b 15.953526
_cell_length_c 27.488961
_cell_angle_alpha 90.000000
_cell_angle_beta 26.333322
_cell_angle_gamma 90.000000
_cell_volume 3156.443422
_symmetry_space_group_name_H-M "C 2/C"
_symmetry_group_IT_number 15
_symmetry_cell_setting 'monoclinic'
loop_
_space_group_symop_operation_xyz
x,y,z
-x,y,1/2-z
-x,-y,-z
x,-y,1/2+z
1/2+x,1/2+y,z
1/2-x,1/2+y,1/2-z
1/2-x,1/2-y,-z
1/2+x,1/2-y,1/2+z
loop_
_atom_site_type_symbol
_atom_site_label
_atom_site_fract_x
_atom_site_fract_y
_atom_site_fract_z
Si Si1 0.500000 0.918546 0.250000
Si Si2 0.530016 0.719975 0.064207
Si Si3 0.513254 0.285168 0.020033
Si Si4 0.360216 0.061080 0.451736
Si Si5 0.870207 0.822591 0.364324
Si Si6 0.701712 0.921150 0.628721
Si Si7 0.109941 0.280726 0.816366
Si Si8 0.363812 0.873791 0.423825
O O1 0.472745 0.871311 0.314717
O O2 0.328312 0.984706 0.335883
O O3 0.579831 0.738009 0.981639
O O4 0.310028 0.709557 0.186426
O O5 0.580804 0.799599 0.070043
O O6 0.649858 0.642493 0.021374
O O7 0.692087 0.228102 0.938817
O O8 0.611802 0.374030 0.956336
O O9 0.389283 0.272570 0.133711
O O10 0.204188 0.093110 0.571151
O O11 0.295645 0.076257 0.430693
O O12 0.529316 0.126348 0.369317
O O13 0.399738 0.962589 0.430775
O O14 0.000000 0.838837 0.250000
O O15 0.972769 0.767299 0.351494
O O16 0.500000 0.879674 0.750000
#
# Coordination Sequence:
#
# PCOD9267367 Si02
#       8
#     4   8   8   8   8   8   8   8
#     4   8  20  36  68  84 112 162 194 260 318 354
#     4  11  25  41  61  86 119 172 205 246 294 375
#     4  11  19  34  61  95 120 157 198 243 312 368
#     4  10  19  39  61  89 125 158 191 258 315 355
#     4  11  19  34  62  92 129 155 193 254 312 362
#     4   9  15  29  60  91 119 148 178 242 331 352
#     4  11  21  37  64  94 125 156 201 252 309 369
#     4  10  24  46  58  81 128 166 208 247 303 356
#
# _framework density 19.008735999999999
#
# number of rings (size 3 to 8) (size 9 to 14) (size 15 to 20)
#    0.400    1.333    4.000    2.000    1.867    0.000 
#    2.400    6.667    0.000    0.000    0.000    0.000 
#    0.000    0.000    0.000    0.000    0.000    0.000 
#
# Total GULP energy -167216.595523 kJ/mol
# GULP energy per Si atom -5573.886517 kJ/mol
# Density = 1.896547 g / cm^3
# Si number density = 19.008736 Si / 1000 Ang^3
#
#
#
# Elastic Constant Matrix: (Units=GPa)
#
#
# Indices 1 2 3 4 5 6 
#
# 1 66.7880 27.7338 13.9879 0.0007 13.7192 0.0005
# 2 27.7338 65.2186 6.2058 0.0017 5.2444 -0.0003
# 3 13.9879 6.2058 44.2984 0.0098 16.9727 0.0015
# 4 0.0007 0.0017 0.0098 -8.1284 -0.0035 6.8757
# 5 13.7192 5.2444 16.9727 -0.0035 33.0914 -0.0003
# 6 0.0005 -0.0003 0.0015 6.8757 -0.0003 19.6704
#
#
#
# Elastic Compliance Matrix: (Units=1/GPa)
#
#
# Indices 1 2 3 4 5 6 
#
# 1 0.019967 -0.007755 -0.003133 -0.000001 -0.005442 0.000000
# 2 -0.007755 0.018627 -0.000325 0.000002 0.000430 0.000000
# 3 -0.003133 -0.000325 0.028739 0.000029 -0.013390 -0.000013
# 4 -0.000001 0.000002 0.000029 -0.094951 -0.000025 0.033190
# 5 -0.005442 0.000430 -0.013390 -0.000025 0.039275 0.000010
# 6 0.000000 0.000000 -0.000013 0.033190 0.000010 0.039237
#
#
# Mechanical properties :
#
#
# Convention : Reuss Voigt Hill
#
# Bulk Modulus (GPa) = 22.26893 30.24000 26.25447
# Shear Modulus (GPa) = 56.63051 17.48518 37.05784
#
# Velocity S-wave (km/s) = 5.46411 3.03619 4.42012
# Velocity P-wave (km/s) = 7.17978 5.31360 6.31599
#
# Compressibility (1/GPa) = 0.04490561
#
# Stress axis : x y z
#
# Youngs Moduli (GPa) = 50.08218 53.68473 34.79541
#
# Poissons Ratio (x) = 0.41633 0.10903
# Poissons Ratio (y) = 0.38840 0.01133
# Poissons Ratio (z) = 0.15693 0.01747
#
# Static dielectric constant tensor:
#      x y z
#    x 1.660850 0.000000 -0.006070 
#    y 0.000000 1.701420 0.000000 
#    z -0.006070 0.000000 1.695740 
# 
# From -- ./inp_files/296811.got.cif
#   From: 2010.05.17/outbox.cif.g08.bks.cpg/sg15_149_cif.got.tgz:296811.got - 2010.06.03 18:47:42.
