data_PCOD9267588
_publ_section_title
;
Structure prediction by ZEFSAII (Michael W. Deem and Ramdas Pophale) SiO2 
 PCOD9267588
Probable space group: C 2/C
;
_chemical_formula_sum "Si O2"
_cell_formula_units_Z 48
_cell_length_a 14.625573
_cell_length_b 7.339725
_cell_length_c 17.067712
_cell_angle_alpha 90.000000
_cell_angle_beta 93.429537
_cell_angle_gamma 90.000000
_cell_volume 1828.898141
_symmetry_space_group_name_H-M "C 2/C"
_symmetry_group_IT_number 15
_symmetry_cell_setting 'monoclinic'
loop_
_space_group_symop_operation_xyz
x,y,z
-x,y,1/2-z
-x,-y,-z
x,-y,1/2+z
1/2+x,1/2+y,z
1/2-x,1/2+y,1/2-z
1/2-x,1/2-y,-z
1/2+x,1/2-y,1/2+z
loop_
_atom_site_type_symbol
_atom_site_label
_atom_site_fract_x
_atom_site_fract_y
_atom_site_fract_z
Si Si1 0.156178 0.049305 0.921513
Si Si2 0.087994 0.883036 0.776908
Si Si3 0.246347 0.900029 0.077465
Si Si4 0.102813 0.732445 0.182346
Si Si5 0.752364 0.714605 0.193490
Si Si6 0.941304 0.571295 0.070404
O O1 0.222950 0.106683 0.853412
O O2 0.111872 0.236503 0.950409
O O3 0.083430 0.937416 0.867358
O O4 0.206973 0.931925 0.988587
O O5 0.176871 0.773588 0.755820
O O6 0.000000 0.769246 0.750000
O O7 0.084771 0.067090 0.721608
O O8 0.219659 0.079629 0.125593
O O9 0.357376 0.929339 0.082414
O O10 0.178952 0.758196 0.117836
O O11 0.156559 0.644191 0.258286
O O12 0.014756 0.631849 0.141655
O O13 0.000000 0.500000 0.000000
#
# Coordination Sequence:
#
# PCOD9267588 Si02
#       6
#     8   8   8   8   8   8
#     4  10  21  42  64  89 131 164 208 265 320 389
#     4  10  19  39  67  93 117 166 213 257 325 382
#     4  10  23  43  64  93 130 171 211 270 330 381
#     4  10  22  42  65  91 129 172 213 264 330 388
#     4   9  20  38  66  89 125 164 209 266 322 383
#     4  11  23  39  62  94 126 167 216 264 328 389
#
# _framework density 26.245312999999999
#
# number of rings (size 3 to 8) (size 9 to 14) (size 15 to 20)
#    0.000    2.000    1.667    2.000    2.333    1.333 
#    6.000    0.000    0.000    0.000    0.000    0.000 
#    0.000    0.000    0.000    0.000    0.000    0.000 
#
# Total GULP energy -134023.759748 kJ/mol
# GULP energy per Si atom -5584.323323 kJ/mol
# Density = 2.618558 g / cm^3
# Si number density = 26.245313 Si / 1000 Ang^3
#
#
#
# Elastic Constant Matrix: (Units=GPa)
#
#
# Indices 1 2 3 4 5 6 
#
# 1 176.6928 38.1037 77.7053 0.0000 4.8954 0.0000
# 2 38.1037 92.9106 33.7235 0.0000 2.0408 0.0000
# 3 77.7053 33.7235 155.9172 0.0000 12.5099 0.0000
# 4 0.0000 0.0000 0.0000 38.1767 0.0000 0.0376
# 5 4.8954 2.0408 12.5099 0.0000 56.5887 0.0000
# 6 0.0000 0.0000 0.0000 0.0376 0.0000 26.7611
#
#
#
# Elastic Compliance Matrix: (Units=1/GPa)
#
#
# Indices 1 2 3 4 5 6 
#
# 1 0.007539 -0.001874 -0.003365 0.000000 0.000159 0.000000
# 2 -0.001874 0.012147 -0.001701 0.000000 0.000100 0.000000
# 3 -0.003365 -0.001701 0.008582 0.000000 -0.001545 0.000000
# 4 0.000000 0.000000 0.000000 0.026194 0.000000 -0.000037
# 5 0.000159 0.000100 -0.001545 0.000000 0.017995 0.000000
# 6 0.000000 0.000000 0.000000 -0.000037 0.000000 0.037368
#
#
# Mechanical properties :
#
#
# Convention : Reuss Voigt Hill
#
# Bulk Modulus (GPa) = 69.50108 80.50949 75.00529
# Shear Modulus (GPa) = 38.90996 42.70452 40.80724
#
# Velocity S-wave (km/s) = 3.85457 4.03815 3.94742
# Velocity P-wave (km/s) = 6.80801 7.24462 7.02971
#
# Compressibility (1/GPa) = 0.01438826
#
# Stress axis : x y z
#
# Youngs Moduli (GPa) = 132.64413 82.32537 116.51667
#
# Poissons Ratio (x) = 0.15428 0.39204
# Poissons Ratio (y) = 0.24858 0.19823
# Poissons Ratio (z) = 0.44630 0.14006
#
# Static dielectric constant tensor:
#      x y z
#    x 2.175330 0.000000 -0.009210 
#    y 0.000000 2.112010 0.000000 
#    z -0.009210 0.000000 1.997060 
# 
# From -- ./inp_files/196144.got.cif
#   From: 2010.05.17/outbox.cif.g08.bks.cpg/sg15_99_cif.got.tgz:196144.got - 2010.06.03 18:47:42.
