data_PCOD9267755
_publ_section_title
;
Structure prediction by ZEFSAII (Michael W. Deem and Ramdas Pophale) SiO2 
 PCOD9267755
Probable space group: C 2/C
;
_chemical_formula_sum "Si O2"
_cell_formula_units_Z 64
_cell_length_a 30.034984
_cell_length_b 18.772224
_cell_length_c 9.413890
_cell_angle_alpha 90.000000
_cell_angle_beta 144.899574
_cell_angle_gamma 90.000000
_cell_volume 3052.029014
_symmetry_space_group_name_H-M "C 2/C"
_symmetry_group_IT_number 15
_symmetry_cell_setting 'monoclinic'
loop_
_space_group_symop_operation_xyz
x,y,z
-x,y,1/2-z
-x,-y,-z
x,-y,1/2+z
1/2+x,1/2+y,z
1/2-x,1/2+y,1/2-z
1/2-x,1/2-y,-z
1/2+x,1/2-y,1/2+z
loop_
_atom_site_type_symbol
_atom_site_label
_atom_site_fract_x
_atom_site_fract_y
_atom_site_fract_z
Si Si1 0.848739 0.077737 0.244901
Si Si2 0.629456 0.569495 0.635592
Si Si3 0.456733 0.059653 0.290268
Si Si4 0.773419 0.236948 0.723206
Si Si5 0.774084 0.419460 0.310862
Si Si6 0.574021 0.324216 0.776489
Si Si7 0.536176 0.227717 0.185427
Si Si8 0.166809 0.157227 0.012700
O O1 0.890324 0.142207 0.273008
O O2 0.843394 0.100241 0.392709
O O3 0.896328 0.004734 0.365423
O O4 0.768152 0.067070 0.950113
O O5 0.710657 0.554273 0.762470
O O6 0.572507 0.606988 0.375159
O O7 0.647993 0.622204 0.813003
O O8 0.500000 0.054413 0.250000
O O9 0.463993 0.143736 0.352906
O O10 0.500000 0.000000 0.500000
O O11 0.361911 0.051330 0.041804
O O12 0.750000 0.250000 0.500000
O O13 0.731342 0.165841 0.673134
O O14 0.751921 0.309869 0.744253
O O15 0.862994 0.222785 0.978205
O O16 0.507049 0.273350 0.549313
O O17 0.500000 0.232529 0.250000
O O18 0.615049 0.272623 0.400549
#
# Coordination Sequence:
#
# PCOD9267755 Si02
#       8
#     8   8   8   8   8   8   8   8
#     4  10  22  39  66  98 131 171 226 270 332 391
#     4  10  22  41  64 100 136 164 224 281 330 385
#     4  11  27  50  66  95 139 178 220 268 338 412
#     4  10  19  40  63  96 127 162 225 285 325 380
#     4  10  22  42  66  95 136 168 218 276 329 396
#     4  10  22  42  62  95 138 172 223 276 333 402
#     4  11  24  45  68  96 141 175 222 274 337 403
#     4  12  20  38  72  95 129 179 223 277 334 385
#
# _framework density 20.969656000000001
#
# number of rings (size 3 to 8) (size 9 to 14) (size 15 to 20)
#    0.000    1.750    5.000    1.500    1.750    4.500 
#    6.750    3.750    0.000    0.000    0.000    0.000 
#    0.000    0.000    0.000    0.000    0.000    0.000 
#
# Total GULP energy -178273.905871 kJ/mol
# GULP energy per Si atom -5571.059558 kJ/mol
# Density = 2.092193 g / cm^3
# Si number density = 20.969656 Si / 1000 Ang^3
#
#
#
# Elastic Constant Matrix: (Units=GPa)
#
#
# Indices 1 2 3 4 5 6 
#
# 1 72.8720 14.3461 37.3469 0.0000 -3.2406 0.0000
# 2 14.3461 110.4513 45.4779 0.0000 -10.7567 0.0000
# 3 37.3469 45.4779 93.5551 0.0000 -11.7798 0.0000
# 4 0.0000 0.0000 0.0000 21.7192 0.0000 9.5887
# 5 -3.2406 -10.7567 -11.7798 0.0000 32.1037 0.0000
# 6 0.0000 0.0000 0.0000 9.5887 0.0000 -6.2664
#
#
#
# Elastic Compliance Matrix: (Units=1/GPa)
#
#
# Indices 1 2 3 4 5 6 
#
# 1 0.017317 0.000706 -0.007345 0.000000 -0.000711 0.000000
# 2 0.000706 0.011455 -0.005618 0.000000 0.001848 0.000000
# 3 -0.007345 -0.005618 0.016798 0.000000 0.003540 0.000000
# 4 0.000000 0.000000 0.000000 0.027479 0.000000 0.042047
# 5 -0.000711 0.001848 0.003540 0.000000 0.032995 0.000000
# 6 0.000000 0.000000 0.000000 0.042047 0.000000 -0.095241
#
#
# Mechanical properties :
#
#
# Convention : Reuss Voigt Hill
#
# Bulk Modulus (GPa) = 47.49369 52.35779 49.92574
# Shear Modulus (GPa) = 118.10492 21.49180 69.79836
#
# Velocity S-wave (km/s) = 7.51293 3.20488 5.77561
# Velocity P-wave (km/s) = 9.89731 6.22234 8.26663
#
# Compressibility (1/GPa) = 0.02105543
#
# Stress axis : x y z
#
# Youngs Moduli (GPa) = 57.74797 87.29770 59.53221
#
# Poissons Ratio (x) = -0.06164 0.43729
# Poissons Ratio (y) = -0.04077 0.33443
# Poissons Ratio (z) = 0.42419 0.49040
#
# Static dielectric constant tensor:
#      x y z
#    x 1.227630 0.000000 -0.550670 
#    y 0.000000 1.779010 0.000000 
#    z -0.550670 0.000000 1.160840 
# 
# From -- ./inp_files/70626.got.cif
#   From: 2010.05.17/outbox.cif.g08.bks.cpg/sg15_36_cif.got.tgz:70626.got - 2010.06.03 18:47:42.
