data_PCOD9267651
_publ_section_title
;
Structure prediction by ZEFSAII (Michael W. Deem and Ramdas Pophale) SiO2 
 PCOD9267651
Probable space group: C 2/C
;
_chemical_formula_sum "Si O2"
_cell_formula_units_Z 56
_cell_length_a 21.558112
_cell_length_b 15.241799
_cell_length_c 18.156212
_cell_angle_alpha 90.000000
_cell_angle_beta 153.974109
_cell_angle_gamma 90.000000
_cell_volume 2617.678482
_symmetry_space_group_name_H-M "C 2/C"
_symmetry_group_IT_number 15
_symmetry_cell_setting 'monoclinic'
loop_
_space_group_symop_operation_xyz
x,y,z
-x,y,1/2-z
-x,-y,-z
x,-y,1/2+z
1/2+x,1/2+y,z
1/2-x,1/2+y,1/2-z
1/2-x,1/2-y,-z
1/2+x,1/2-y,1/2+z
loop_
_atom_site_type_symbol
_atom_site_label
_atom_site_fract_x
_atom_site_fract_y
_atom_site_fract_z
Si Si1 0.073944 0.779580 0.672731
Si Si2 0.516125 0.040791 0.182569
Si Si3 0.848563 0.541694 0.314104
Si Si4 0.889204 0.637722 0.681184
Si Si5 0.273098 0.579759 0.695707
Si Si6 0.879967 0.047997 0.184260
Si Si7 0.303968 0.240400 0.308807
O O1 0.156345 0.706333 0.807404
O O2 0.085305 0.872830 0.723097
O O3 0.145091 0.770451 0.668836
O O4 0.911191 0.757063 0.489962
O O5 0.500000 0.069994 0.250000
O O6 0.654892 0.043377 0.278923
O O7 0.502442 0.935231 0.171090
O O8 0.388684 0.086217 0.004538
O O9 0.736002 0.485591 0.242225
O O10 0.844256 0.643772 0.326263
O O11 0.000000 0.500000 0.500000
O O12 0.761487 0.584254 0.508213
O O13 0.000000 0.692138 0.750000
O O14 0.350367 0.533992 0.708128
O O15 0.319196 0.676145 0.771137
O O16 0.000000 0.033494 0.250000
#
# Coordination Sequence:
#
# PCOD9267651 Si02
#       7
#     8   8   8   8   8   8   8
#     4  12  23  41  64 104 138 180 240 303 366 431
#     4  10  19  39  72  97 121 176 244 289 337 408
#     4  10  21  42  71  97 130 182 238 291 337 421
#     4  11  20  39  69  98 131 185 243 289 354 431
#     4  11  22  44  65 101 145 180 233 293 362 436
#     4  12  24  40  62 103 151 188 225 302 384 423
#     4  12  25  43  70 101 138 185 239 291 359 434
#
# _framework density 21.393001999999999
#
# number of rings (size 3 to 8) (size 9 to 14) (size 15 to 20)
#    0.000    0.857    4.286    6.857    0.000    0.571 
#    2.571    1.429    0.000    0.000    0.000    0.000 
#    0.000    0.000    0.000    0.000    0.000    0.000 
#
# Total GULP energy -155943.707922 kJ/mol
# GULP energy per Si atom -5569.418140 kJ/mol
# Density = 2.134431 g / cm^3
# Si number density = 21.393002 Si / 1000 Ang^3
#
#
#
# Elastic Constant Matrix: (Units=GPa)
#
#
# Indices 1 2 3 4 5 6 
#
# 1 146.7499 53.2462 44.3991 -0.0009 6.8619 0.0000
# 2 53.2462 134.5465 24.0551 -0.0028 -3.8455 -0.0008
# 3 44.3991 24.0551 32.1839 -0.0030 5.4485 0.0001
# 4 -0.0009 -0.0028 -0.0030 31.7828 -0.0014 5.7699
# 5 6.8619 -3.8455 5.4485 -0.0014 32.9861 0.0000
# 6 0.0000 -0.0008 0.0001 5.7699 0.0000 82.3721
#
#
#
# Elastic Compliance Matrix: (Units=1/GPa)
#
#
# Indices 1 2 3 4 5 6 
#
# 1 0.012190 -0.002117 -0.015189 -0.000001 -0.000274 0.000000
# 2 -0.002117 0.009093 -0.004249 0.000000 0.002202 0.000000
# 3 -0.015189 -0.004249 0.056325 0.000004 -0.006639 0.000000
# 4 -0.000001 0.000000 0.000004 0.031869 0.000001 -0.002232
# 5 -0.000274 0.002202 -0.006639 0.000001 0.031726 0.000000
# 6 0.000000 0.000000 0.000000 -0.002232 0.000000 0.012296
#
#
# Mechanical properties :
#
#
# Convention : Reuss Voigt Hill
#
# Bulk Modulus (GPa) = 28.98628 61.87567 45.43097
# Shear Modulus (GPa) = 24.02598 42.21353 33.11975
#
# Velocity S-wave (km/s) = 3.35487 4.44694 3.93893
# Velocity P-wave (km/s) = 5.34656 7.43997 6.47838
#
# Compressibility (1/GPa) = 0.03449909
#
# Stress axis : x y z
#
# Youngs Moduli (GPa) = 82.03115 109.97953 17.75412
#
# Poissons Ratio (x) = 0.23278 0.26967
# Poissons Ratio (y) = 0.17363 0.07544
# Poissons Ratio (z) = 1.24597 0.46730
#
# Static dielectric constant tensor:
#      x y z
#    x 2.140400 0.000000 -0.072390 
#    y 0.000000 1.798800 0.000000 
#    z -0.072390 0.000000 1.814400 
# 
# From -- ./inp_files/215723.got.cif
#   From: 2010.05.17/outbox.cif.g08.bks.cpg/sg15_108_cif.got.tgz:215723.got - 2010.06.03 18:47:42.
