data_PCOD9267257
_publ_section_title
;
Structure prediction by ZEFSAII (Michael W. Deem and Ramdas Pophale) SiO2 
 PCOD9267257
Probable space group: C 2/C
;
_chemical_formula_sum "Si O2"
_cell_formula_units_Z 36
_cell_length_a 20.324582
_cell_length_b 9.154319
_cell_length_c 11.853707
_cell_angle_alpha 90.000000
_cell_angle_beta 38.507008
_cell_angle_gamma 90.000000
_cell_volume 1373.150667
_symmetry_space_group_name_H-M "C 2/C"
_symmetry_group_IT_number 15
_symmetry_cell_setting 'monoclinic'
loop_
_space_group_symop_operation_xyz
x,y,z
-x,y,1/2-z
-x,-y,-z
x,-y,1/2+z
1/2+x,1/2+y,z
1/2-x,1/2+y,1/2-z
1/2-x,1/2-y,-z
1/2+x,1/2-y,1/2+z
loop_
_atom_site_type_symbol
_atom_site_label
_atom_site_fract_x
_atom_site_fract_y
_atom_site_fract_z
Si Si1 0.000000 0.780799 0.750000
Si Si2 0.379694 0.796985 0.784635
Si Si3 0.672640 0.869019 0.162888
Si Si4 0.109763 0.058215 0.909449
Si Si5 0.132776 0.250722 0.442203
O O1 0.939916 0.685815 0.736927
O O2 0.079449 0.881448 0.572812
O O3 0.347933 0.686158 0.727215
O O4 0.507815 0.796215 0.601126
O O5 0.330620 0.958624 0.854934
O O6 0.354873 0.735445 0.941236
O O7 0.683638 0.858712 0.283243
O O8 0.750000 0.750000 0.000000
O O9 0.167118 0.904665 0.843549
O O10 0.000000 0.000000 0.000000
#
# Coordination Sequence:
#
# PCOD9267257 Si02
#       5
#     4   8   8   8   8
#     4  12  22  42  74  94 146 192 240 298 380 424
#     4  10  21  40  73 103 140 196 239 298 372 436
#     4  12  27  45  66 110 150 189 250 305 366 449
#     4  10  19  38  72 103 134 191 247 298 361 438
#     4  10  21  42  72 106 142 187 253 295 367 446
#
# _framework density 26.217078999999998
#
# number of rings (size 3 to 8) (size 9 to 14) (size 15 to 20)
#    0.000    1.333    4.444    4.667    3.111    0.000 
#    4.000    1.111    0.000    0.000    0.000    0.000 
#    0.000    0.000    0.000    0.000    0.000    0.000 
#
# Total GULP energy -100676.174047 kJ/mol
# GULP energy per Si atom -5593.120780 kJ/mol
# Density = 2.615741 g / cm^3
# Si number density = 26.217079 Si / 1000 Ang^3
#
#
#
# Elastic Constant Matrix: (Units=GPa)
#
#
# Indices 1 2 3 4 5 6 
#
# 1 68.0214 21.7093 15.5301 0.0000 23.9290 0.0000
# 2 21.7093 185.7980 37.6332 0.0000 3.9652 0.0000
# 3 15.5301 37.6332 145.7048 0.0000 12.5513 0.0000
# 4 0.0000 0.0000 0.0000 49.3641 0.0000 -0.7935
# 5 23.9290 3.9652 12.5513 0.0000 58.4503 0.0000
# 6 0.0000 0.0000 0.0000 -0.7935 0.0000 39.9983
#
#
#
# Elastic Compliance Matrix: (Units=1/GPa)
#
#
# Indices 1 2 3 4 5 6 
#
# 1 0.017938 -0.001774 -0.000847 0.000000 -0.007041 0.000000
# 2 -0.001774 0.005855 -0.001377 0.000000 0.000625 0.000000
# 3 -0.000847 -0.001377 0.007408 0.000000 -0.001151 0.000000
# 4 0.000000 0.000000 0.000000 0.020264 0.000000 0.000402
# 5 -0.007041 0.000625 -0.001151 0.000000 0.020196 0.000000
# 6 0.000000 0.000000 0.000000 0.000402 0.000000 0.025009
#
#
# Mechanical properties :
#
#
# Convention : Reuss Voigt Hill
#
# Bulk Modulus (GPa) = 43.09455 61.02992 52.06224
# Shear Modulus (GPa) = 44.48333 51.20597 47.84465
#
# Velocity S-wave (km/s) = 4.12361 4.42424 4.27657
# Velocity P-wave (km/s) = 6.25663 7.03049 6.65482
#
# Compressibility (1/GPa) = 0.02320479
#
# Stress axis : x y z
#
# Youngs Moduli (GPa) = 55.74778 170.79262 134.98450
#
# Poissons Ratio (x) = 0.30300 0.11435
# Poissons Ratio (y) = 0.09890 0.18587
# Poissons Ratio (z) = 0.04723 0.23518
#
# Static dielectric constant tensor:
#      x y z
#    x 2.309450 0.000000 -0.132440 
#    y 0.000000 1.991270 0.000000 
#    z -0.132440 0.000000 1.996910 
# 
# From -- ./inp_files/121318.got.cif
#   From: 2010.05.17/outbox.cif.g08.bks.cpg/sg15_61_cif.got.tgz:121318.got - 2010.06.03 18:47:42.
