data_PCOD9267716
_publ_section_title
;
Structure prediction by ZEFSAII (Michael W. Deem and Ramdas Pophale) SiO2 
 PCOD9267716
Probable space group: C 2/C
;
_chemical_formula_sum "Si O2"
_cell_formula_units_Z 56
_cell_length_a 12.170744
_cell_length_b 27.580294
_cell_length_c 9.255813
_cell_angle_alpha 90.000000
_cell_angle_beta 65.751145
_cell_angle_gamma 90.000000
_cell_volume 2832.800620
_symmetry_space_group_name_H-M "C 2/C"
_symmetry_group_IT_number 15
_symmetry_cell_setting 'monoclinic'
loop_
_space_group_symop_operation_xyz
x,y,z
-x,y,1/2-z
-x,-y,-z
x,-y,1/2+z
1/2+x,1/2+y,z
1/2-x,1/2+y,1/2-z
1/2-x,1/2-y,-z
1/2+x,1/2-y,1/2+z
loop_
_atom_site_type_symbol
_atom_site_label
_atom_site_fract_x
_atom_site_fract_y
_atom_site_fract_z
Si Si1 0.039859 0.851481 0.387166
Si Si2 0.500000 0.018099 0.250000
Si Si3 0.240121 0.037764 0.132906
Si Si4 0.524036 0.938587 0.451236
Si Si5 0.878276 0.868885 0.724692
Si Si6 0.000000 0.353479 0.250000
Si Si7 0.750812 0.193385 0.534288
Si Si8 0.391358 0.463465 0.101459
O O1 0.153969 0.823101 0.393231
O O2 0.067629 0.909476 0.376136
O O3 0.000000 0.836719 0.250000
O O4 0.926509 0.844332 0.554942
O O5 0.433706 0.051035 0.406747
O O6 0.569837 0.979484 0.313611
O O7 0.187092 0.080270 0.262829
O O8 0.186515 0.988700 0.230182
O O9 0.380333 0.051188 0.038906
O O10 0.185285 0.042636 0.003048
O O11 0.538550 0.887998 0.363943
O O12 0.000000 0.879477 0.750000
O O13 0.795158 0.835599 0.868646
O O14 0.116722 0.323120 0.145997
O O15 0.750000 0.250000 0.500000
O O16 0.500000 0.500000 0.000000
#
# Coordination Sequence:
#
# PCOD9267716 Si02
#       8
#     8   4   8   8   8   4   8   8
#     4  11  23  42  65 101 137 171 218 280 336 398
#     4   9  20  36  54  80 118 170 212 248 309 358
#     4  12  20  34  53  88 129 176 213 254 314 385
#     4  10  20  37  56  83 125 168 217 265 300 380
#     4  10  19  40  62  89 129 167 214 261 321 390
#     4  11  22  42  66  96 126 158 228 270 325 404
#     4  11  25  45  75  96 120 175 222 285 344 401
#     4  12  21  32  54  91 134 174 216 255 314 395
#
# _framework density 19.768422999999999
#
# number of rings (size 3 to 8) (size 9 to 14) (size 15 to 20)
#    0.000    1.143    5.714    2.143    3.000    2.286 
#    2.571    0.714    1.571    0.000    0.000    0.000 
#    0.000    0.000    0.000    0.000    0.000    0.000 
#
# Total GULP energy -156246.424265 kJ/mol
# GULP energy per Si atom -5580.229438 kJ/mol
# Density = 1.972343 g / cm^3
# Si number density = 19.768423 Si / 1000 Ang^3
#
#
#
# Elastic Constant Matrix: (Units=GPa)
#
#
# Indices 1 2 3 4 5 6 
#
# 1 79.5116 38.6101 52.7949 0.0000 -13.6532 0.0000
# 2 38.6101 128.9104 39.2190 0.0000 -10.9441 0.0000
# 3 52.7949 39.2190 142.0288 0.0000 0.3006 0.0000
# 4 0.0000 0.0000 0.0000 6.6292 0.0000 1.4365
# 5 -13.6532 -10.9441 0.3006 0.0000 40.7394 0.0000
# 6 0.0000 0.0000 0.0000 1.4365 0.0000 11.8199
#
#
#
# Elastic Compliance Matrix: (Units=1/GPa)
#
#
# Indices 1 2 3 4 5 6 
#
# 1 0.019360 -0.003416 -0.006265 0.000000 0.005617 0.000000
# 2 -0.003416 0.009291 -0.001299 0.000000 0.001361 0.000000
# 3 -0.006265 -0.001299 0.009734 0.000000 -0.002520 0.000000
# 4 0.000000 0.000000 0.000000 0.154928 0.000000 -0.018829
# 5 0.005617 0.001361 -0.002520 0.000000 0.026813 0.000000
# 6 0.000000 0.000000 0.000000 -0.018829 0.000000 0.086892
#
#
# Mechanical properties :
#
#
# Convention : Reuss Voigt Hill
#
# Bulk Modulus (GPa) = 60.88113 67.96655 64.42384
# Shear Modulus (GPa) = 14.94987 26.49282 20.72135
#
# Velocity S-wave (km/s) = 2.75298 3.66479 3.24111
# Velocity P-wave (km/s) = 6.40072 7.23627 6.83128
#
# Compressibility (1/GPa) = 0.01642545
#
# Stress axis : x y z
#
# Youngs Moduli (GPa) = 51.65335 107.63120 102.73588
#
# Poissons Ratio (x) = 0.36762 0.64366
# Poissons Ratio (y) = 0.17642 0.13343
# Poissons Ratio (z) = 0.32362 0.13979
#
# Static dielectric constant tensor:
#      x y z
#    x 1.788710 0.000000 0.012100 
#    y 0.000000 1.721250 0.000000 
#    z 0.012100 0.000000 1.758010 
# 
# From -- ./inp_files/34255.got.cif
#   From: 2010.05.17/outbox.cif.g08.bks.cpg/sg15_18_cif.got.tgz:34255.got - 2010.06.03 18:47:42.
