data_PCOD9267586
_publ_section_title
;
Structure prediction by ZEFSAII (Michael W. Deem and Ramdas Pophale) SiO2 
 PCOD9267586
Probable space group: C 2/C
;
_chemical_formula_sum "Si O2"
_cell_formula_units_Z 56
_cell_length_a 19.998810
_cell_length_b 11.106340
_cell_length_c 12.756858
_cell_angle_alpha 90.000000
_cell_angle_beta 68.118041
_cell_angle_gamma 90.000000
_cell_volume 2629.330175
_symmetry_space_group_name_H-M "C 2/C"
_symmetry_group_IT_number 15
_symmetry_cell_setting 'monoclinic'
loop_
_space_group_symop_operation_xyz
x,y,z
-x,y,1/2-z
-x,-y,-z
x,-y,1/2+z
1/2+x,1/2+y,z
1/2-x,1/2+y,1/2-z
1/2-x,1/2-y,-z
1/2+x,1/2-y,1/2+z
loop_
_atom_site_type_symbol
_atom_site_label
_atom_site_fract_x
_atom_site_fract_y
_atom_site_fract_z
Si Si1 0.707879 0.866401 0.665808
Si Si2 0.923985 0.501369 0.852925
Si Si3 0.581761 0.727072 0.160105
Si Si4 0.067978 0.911372 0.456850
Si Si5 0.970200 0.743125 0.386157
Si Si6 0.827625 0.125757 0.915846
Si Si7 0.828978 0.074022 0.247600
O O1 0.764900 0.879750 0.537589
O O2 0.684132 0.729191 0.664648
O O3 0.752217 0.893683 0.743733
O O4 0.638875 0.948947 0.684539
O O5 0.903684 0.638176 0.891657
O O6 0.939541 0.391691 0.925833
O O7 0.000000 0.514150 0.750000
O O8 0.500000 0.716654 0.250000
O O9 0.629103 0.691830 0.234600
O O10 0.590243 0.635684 0.057891
O O11 0.035079 0.793955 0.417249
O O12 0.127483 0.988492 0.359326
O O13 0.000000 0.000000 0.500000
O O14 0.902316 0.834354 0.426784
O O15 0.000000 0.742651 0.250000
O O16 0.825000 0.004866 0.853492
#
# Coordination Sequence:
#
# PCOD9267586 Si02
#       7
#     8   8   8   8   8   8   8
#     4  10  23  43  65  92 128 169 214 260 325 391
#     4   9  22  45  66  92 130 168 216 264 322 390
#     4  11  24  41  62  98 134 168 212 270 320 381
#     4  12  23  37  65  99 128 166 216 262 322 376
#     4  10  19  39  67  92 130 170 213 261 310 392
#     4  10  22  41  63  95 123 171 214 258 323 381
#     4  12  23  39  67  93 131 168 212 272 320 379
#
# _framework density 21.298199
#
# number of rings (size 3 to 8) (size 9 to 14) (size 15 to 20)
#    0.000    1.429    2.857    2.571    2.000    0.571 
#    2.571    1.429    0.000    0.000    0.000    0.000 
#    0.000    0.000    0.000    0.000    0.000    0.000 
#
# Total GULP energy -156244.650687 kJ/mol
# GULP energy per Si atom -5580.166096 kJ/mol
# Density = 2.124972 g / cm^3
# Si number density = 21.298199 Si / 1000 Ang^3
#
#
#
# Elastic Constant Matrix: (Units=GPa)
#
#
# Indices 1 2 3 4 5 6 
#
# 1 122.3639 40.8549 26.0511 0.0000 19.2429 0.0000
# 2 40.8549 106.0739 30.2569 0.0000 30.3063 0.0000
# 3 26.0511 30.2569 48.3918 0.0000 18.3800 0.0000
# 4 0.0000 0.0000 0.0000 9.7966 0.0000 -2.1323
# 5 19.2429 30.3063 18.3800 0.0000 31.2620 0.0000
# 6 0.0000 0.0000 0.0000 -2.1323 0.0000 12.9124
#
#
#
# Elastic Compliance Matrix: (Units=1/GPa)
#
#
# Indices 1 2 3 4 5 6 
#
# 1 0.009940 -0.002372 -0.003112 0.000000 -0.001989 0.000000
# 2 -0.002372 0.014345 -0.003817 0.000000 -0.010202 0.000000
# 3 -0.003112 -0.003817 0.029089 0.000000 -0.011487 0.000000
# 4 0.000000 0.000000 0.000000 0.105882 0.000000 0.017484
# 5 -0.001989 -0.010202 -0.011487 0.000000 0.049855 0.000000
# 6 0.000000 0.000000 0.000000 0.017484 0.000000 0.080332
#
#
# Mechanical properties :
#
#
# Convention : Reuss Voigt Hill
#
# Bulk Modulus (GPa) = 28.76018 52.35059 40.55539
# Shear Modulus (GPa) = 15.64279 22.77200 19.20739
#
# Velocity S-wave (km/s) = 2.71304 3.27341 3.00631
# Velocity P-wave (km/s) = 4.83188 6.23860 5.57975
#
# Compressibility (1/GPa) = 0.03477030
#
# Stress axis : x y z
#
# Youngs Moduli (GPa) = 100.60591 69.71256 34.37667
#
# Poissons Ratio (x) = 0.16539 0.10699
# Poissons Ratio (y) = 0.23868 0.13122
# Poissons Ratio (z) = 0.31311 0.26610
#
# Static dielectric constant tensor:
#      x y z
#    x 1.776490 0.000000 0.007300 
#    y 0.000000 1.857890 0.000000 
#    z 0.007300 0.000000 1.757110 
# 
# From -- ./inp_files/110982.got.cif
#   From: 2010.05.17/outbox.cif.g08.bks.cpg/sg15_56_cif.got.tgz:110982.got - 2010.06.03 18:47:42.
