data_PCOD9267338
_publ_section_title
;
Structure prediction by ZEFSAII (Michael W. Deem and Ramdas Pophale) SiO2 
 PCOD9267338
Probable space group: C 2/C
;
_chemical_formula_sum "Si O2"
_cell_formula_units_Z 64
_cell_length_a 30.250226
_cell_length_b 9.353845
_cell_length_c 10.125451
_cell_angle_alpha 90.000000
_cell_angle_beta 73.486504
_cell_angle_gamma 90.000000
_cell_volume 2746.880828
_symmetry_space_group_name_H-M "C 2/C"
_symmetry_group_IT_number 15
_symmetry_cell_setting 'monoclinic'
loop_
_space_group_symop_operation_xyz
x,y,z
-x,y,1/2-z
-x,-y,-z
x,-y,1/2+z
1/2+x,1/2+y,z
1/2-x,1/2+y,1/2-z
1/2-x,1/2-y,-z
1/2+x,1/2-y,1/2+z
loop_
_atom_site_type_symbol
_atom_site_label
_atom_site_fract_x
_atom_site_fract_y
_atom_site_fract_z
Si Si1 0.644225 0.282043 0.519232
Si Si2 0.612104 0.749585 0.767216
Si Si3 0.616925 0.421046 0.774475
Si Si4 0.187719 0.335786 0.477257
Si Si5 0.553126 0.027683 0.198854
Si Si6 0.599215 0.867893 0.396647
Si Si7 0.293263 0.466513 0.655860
Si Si8 0.221424 0.388053 0.076537
O O1 0.628356 0.206796 0.399546
O O2 0.606187 0.356629 0.640783
O O3 0.675418 0.417826 0.448523
O O4 0.670718 0.172509 0.592335
O O5 0.602451 0.582737 0.790093
O O6 0.653389 0.790077 0.629319
O O7 0.565902 0.823236 0.757841
O O8 0.597328 0.306697 0.895035
O O9 0.673305 0.433286 0.748519
O O10 0.152219 0.388685 0.395012
O O11 0.211078 0.189056 0.407728
O O12 0.220391 0.465516 0.492786
O O13 0.500000 0.988768 0.250000
O O14 0.582736 0.924303 0.268867
O O15 0.569528 0.054199 0.035132
O O16 0.244979 0.552760 0.690892
O O17 0.250000 0.250000 0.000000
#
# Coordination Sequence:
#
# PCOD9267338 Si02
#       8
#     8   8   8   8   8   8   8   8
#     4  10  20  38  59  86 124 165 221 267 327 383
#     4  10  22  38  67  91 122 170 215 269 324 400
#     4  10  21  41  63  90 125 171 221 267 318 388
#     4  10  19  39  60  88 122 166 223 259 326 387
#     4  11  24  45  68 103 135 165 208 269 333 397
#     4  10  24  41  70  95 129 173 216 265 320 402
#     4   9  19  38  55  82 118 165 215 275 324 369
#     4  10  21  36  53  85 123 165 214 273 331 375
#
# _framework density 23.299156
#
# number of rings (size 3 to 8) (size 9 to 14) (size 15 to 20)
#    0.000    2.000    1.250    1.500    7.000    0.000 
#    9.000    1.250    0.000    0.000    0.000    0.000 
#    0.000    0.000    0.000    0.000    0.000    0.000 
#
# Total GULP energy -178416.486691 kJ/mol
# GULP energy per Si atom -5575.515209 kJ/mol
# Density = 2.324613 g / cm^3
# Si number density = 23.299156 Si / 1000 Ang^3
#
#
#
# Elastic Constant Matrix: (Units=GPa)
#
#
# Indices 1 2 3 4 5 6 
#
# 1 85.2682 37.6077 33.3043 0.0000 4.1276 0.0000
# 2 37.6077 137.9047 30.4878 0.0000 11.7996 0.0000
# 3 33.3043 30.4878 108.5441 0.0000 13.1913 0.0000
# 4 0.0000 0.0000 0.0000 30.0906 0.0000 16.7735
# 5 4.1276 11.7996 13.1913 0.0000 21.3772 0.0000
# 6 0.0000 0.0000 0.0000 16.7735 0.0000 17.9536
#
#
#
# Elastic Compliance Matrix: (Units=1/GPa)
#
#
# Indices 1 2 3 4 5 6 
#
# 1 0.014550 -0.003258 -0.003704 0.000000 0.001275 0.000000
# 2 -0.003258 0.008664 -0.001005 0.000000 -0.003533 0.000000
# 3 -0.003704 -0.001005 0.011327 0.000000 -0.005720 0.000000
# 4 0.000000 0.000000 0.000000 0.069350 0.000000 -0.064791
# 5 0.001275 -0.003533 -0.005720 0.000000 0.052012 0.000000
# 6 0.000000 0.000000 0.000000 -0.064791 0.000000 0.116232
#
#
# Mechanical properties :
#
#
# Convention : Reuss Voigt Hill
#
# Bulk Modulus (GPa) = 53.74210 59.39073 56.56642
# Shear Modulus (GPa) = 16.99119 29.23876 23.11498
#
# Velocity S-wave (km/s) = 2.70342 3.54634 3.15317
# Velocity P-wave (km/s) = 5.73243 6.50496 6.13088
#
# Compressibility (1/GPa) = 0.01860739
#
# Stress axis : x y z
#
# Youngs Moduli (GPa) = 68.73006 115.41629 88.28762
#
# Poissons Ratio (x) = 0.37603 0.32702
# Poissons Ratio (y) = 0.22392 0.08869
# Poissons Ratio (z) = 0.25458 0.11594
#
# Static dielectric constant tensor:
#      x y z
#    x 1.868330 0.000000 0.008960 
#    y 0.000000 1.923300 0.000000 
#    z 0.008960 0.000000 1.927640 
# 
# From -- ./inp_files/125910.got.cif
#   From: 2010.05.17/outbox.cif.g08.bks.cpg/sg15_63_cif.got.tgz:125910.got - 2010.06.03 18:47:42.
