data_PCOD9267999
_publ_section_title
;
Structure prediction by ZEFSAII (Michael W. Deem and Ramdas Pophale) SiO2 
 PCOD9267999
Probable space group: C 2/C
;
_chemical_formula_sum "Si O2"
_cell_formula_units_Z 52
_cell_length_a 9.533970
_cell_length_b 13.093511
_cell_length_c 29.431596
_cell_angle_alpha 90.000000
_cell_angle_beta 39.144589
_cell_angle_gamma 90.000000
_cell_volume 2319.345437
_symmetry_space_group_name_H-M "C 2/C"
_symmetry_group_IT_number 15
_symmetry_cell_setting 'monoclinic'
loop_
_space_group_symop_operation_xyz
x,y,z
-x,y,1/2-z
-x,-y,-z
x,-y,1/2+z
1/2+x,1/2+y,z
1/2-x,1/2+y,1/2-z
1/2-x,1/2-y,-z
1/2+x,1/2-y,1/2+z
loop_
_atom_site_type_symbol
_atom_site_label
_atom_site_fract_x
_atom_site_fract_y
_atom_site_fract_z
Si Si1 0.657906 0.094200 0.517678
Si Si2 0.849679 0.771641 0.731925
Si Si3 0.826171 0.921005 0.362462
Si Si4 0.782118 0.768957 0.070286
Si Si5 0.000000 0.759271 0.250000
Si Si6 0.500000 0.082293 0.750000
Si Si7 0.000000 0.925615 0.750000
Si Si8 0.037386 0.069774 0.904758
O O1 0.423567 0.036729 0.573940
O O2 0.675965 0.151297 0.561249
O O3 0.631185 0.179435 0.484610
O O4 0.874837 0.022976 0.459634
O O5 0.666838 0.795998 0.741019
O O6 0.873710 0.657288 0.745697
O O7 0.088380 0.783043 0.648360
O O8 0.809137 0.846354 0.784215
O O9 0.849163 0.827382 0.321713
O O10 0.918757 0.892850 0.388243
O O11 0.972755 0.005779 0.300713
O O12 0.933764 0.838420 0.065785
O O13 0.290330 0.032955 0.828723
#
# Coordination Sequence:
#
# PCOD9267999 Si02
#       8
#     8   8   8   8   4   4   4   8
#     4  11  23  43  65  94 138 174 220 281 331 404
#     4  10  19  41  65  92 125 170 219 275 336 396
#     4  11  23  42  63  95 131 169 213 273 334 390
#     4  10  23  42  65  93 130 178 224 271 338 403
#     4  11  20  39  67  91 126 172 214 267 339 389
#     4   9  20  37  67  93 126 166 222 275 335 397
#     4  10  24  40  66  96 128 166 218 282 330 404
#     4  11  22  40  67  96 129 180 221 274 342 403
#
# _framework density 22.420119
#
# number of rings (size 3 to 8) (size 9 to 14) (size 15 to 20)
#    0.000    1.538    3.077    1.846    0.000    0.615 
#    2.769    6.154    0.000    0.000    0.000    0.000 
#    0.000    0.000    0.000    0.000    0.000    0.000 
#
# Total GULP energy -144942.763379 kJ/mol
# GULP energy per Si atom -5574.721668 kJ/mol
# Density = 2.236909 g / cm^3
# Si number density = 22.420119 Si / 1000 Ang^3
#
#
#
# Elastic Constant Matrix: (Units=GPa)
#
#
# Indices 1 2 3 4 5 6 
#
# 1 166.0796 44.3806 30.1623 -0.0007 14.9388 0.0011
# 2 44.3806 46.8087 10.5305 -0.0011 2.0025 0.0005
# 3 30.1623 10.5305 54.9604 -0.0011 -0.0158 0.0006
# 4 -0.0007 -0.0011 -0.0011 -5.0223 0.0010 19.9594
# 5 14.9388 2.0025 -0.0158 0.0010 40.4978 -0.0011
# 6 0.0011 0.0005 0.0006 19.9594 -0.0011 16.5450
#
#
#
# Elastic Compliance Matrix: (Units=1/GPa)
#
#
# Indices 1 2 3 4 5 6 
#
# 1 0.008934 -0.007568 -0.003454 0.000000 -0.002923 0.000000
# 2 -0.007568 0.028787 -0.001362 -0.000001 0.001368 0.000001
# 3 -0.003454 -0.001362 0.020352 -0.000001 0.001349 0.000001
# 4 0.000000 -0.000001 -0.000001 -0.034363 0.000002 0.041455
# 5 -0.002923 0.001368 0.001349 0.000002 0.025704 -0.000001
# 6 0.000000 0.000001 0.000001 0.041455 -0.000001 0.010431
#
#
# Mechanical properties :
#
#
# Convention : Reuss Voigt Hill
#
# Bulk Modulus (GPa) = 30.02543 48.66614 39.34578
# Shear Modulus (GPa) = 52.23943 22.58910 37.41426
#
# Velocity S-wave (km/s) = 4.83227 3.17762 4.08950
# Velocity P-wave (km/s) = 6.67500 5.93436 6.31555
#
# Compressibility (1/GPa) = 0.03330510
#
# Stress axis : x y z
#
# Youngs Moduli (GPa) = 111.93482 34.73770 49.13633
#
# Poissons Ratio (x) = 0.26291 0.16970
# Poissons Ratio (y) = 0.84716 0.06691
# Poissons Ratio (z) = 0.38658 0.04730
#
# Static dielectric constant tensor:
#      x y z
#    x 1.833370 0.000000 0.019550 
#    y 0.000000 1.873710 0.000000 
#    z 0.019550 0.000000 1.916470 
# 
# From -- ./inp_files/308212.got.cif
#   From: 2010.05.17/outbox.cif.g08.bks.cpg/sg15_155_cif.got.tgz:308212.got - 2010.06.03 18:47:42.
