data_PCOD9267544
_publ_section_title
;
Structure prediction by ZEFSAII (Michael W. Deem and Ramdas Pophale) SiO2 
 PCOD9267544
Probable space group: C 2/C
;
_chemical_formula_sum "Si O2"
_cell_formula_units_Z 40
_cell_length_a 11.272733
_cell_length_b 9.815519
_cell_length_c 15.936531
_cell_angle_alpha 90.000000
_cell_angle_beta 103.798362
_cell_angle_gamma 90.000000
_cell_volume 1712.452818
_symmetry_space_group_name_H-M "C 2/C"
_symmetry_group_IT_number 15
_symmetry_cell_setting 'monoclinic'
loop_
_space_group_symop_operation_xyz
x,y,z
-x,y,1/2-z
-x,-y,-z
x,-y,1/2+z
1/2+x,1/2+y,z
1/2-x,1/2+y,1/2-z
1/2-x,1/2-y,-z
1/2+x,1/2-y,1/2+z
loop_
_atom_site_type_symbol
_atom_site_label
_atom_site_fract_x
_atom_site_fract_y
_atom_site_fract_z
Si Si1 0.784489 0.443075 0.782305
Si Si2 0.419542 0.469579 0.624751
Si Si3 0.454553 0.775068 0.012503
Si Si4 0.851978 0.159709 0.830349
Si Si5 0.834351 0.544466 0.969117
O O1 0.653040 0.418481 0.805637
O O2 0.837283 0.295007 0.770711
O O3 0.756023 0.553136 0.706616
O O4 0.856076 0.512440 0.872371
O O5 0.470316 0.340322 0.583881
O O6 0.522241 0.579172 0.659714
O O7 0.311434 0.539786 0.551164
O O8 0.585133 0.824200 0.998339
O O9 0.363858 0.716319 0.926240
O O10 0.389170 0.915645 0.027485
#
# Coordination Sequence:
#
# PCOD9267544 Si02
#       5
#     8   8   8   8   8
#     4   9  23  41  62  86 130 166 202 261 310 369
#     4  10  21  39  65  86 122 165 205 255 305 373
#     4  10  19  39  65  95 120 163 206 257 308 365
#     4  11  22  39  65  92 123 168 209 253 314 364
#     4   8  20  37  63  91 126 154 207 256 305 367
#
# _framework density 23.358308999999998
#
# number of rings (size 3 to 8) (size 9 to 14) (size 15 to 20)
#    1.200    1.200    0.000    1.800    2.800    0.800 
#    0.000    2.000    8.800    0.000    0.000    0.000 
#    0.000    0.000    0.000    0.000    0.000    0.000 
#
# Total GULP energy -111493.534711 kJ/mol
# GULP energy per Si atom -5574.676736 kJ/mol
# Density = 2.330514 g / cm^3
# Si number density = 23.358309 Si / 1000 Ang^3
#
#
#
# Elastic Constant Matrix: (Units=GPa)
#
#
# Indices 1 2 3 4 5 6 
#
# 1 56.6846 53.9464 10.4059 0.0000 24.2756 0.0000
# 2 53.9464 169.9534 60.9791 0.0000 19.7532 0.0000
# 3 10.4059 60.9791 44.2082 0.0000 13.5832 0.0000
# 4 0.0000 0.0000 0.0000 37.2453 0.0000 23.7495
# 5 24.2756 19.7532 13.5832 0.0000 32.1546 0.0000
# 6 0.0000 0.0000 0.0000 23.7495 0.0000 40.6499
#
#
#
# Elastic Compliance Matrix: (Units=1/GPa)
#
#
# Indices 1 2 3 4 5 6 
#
# 1 0.048106 -0.021768 0.029594 0.000000 -0.035447 0.000000
# 2 -0.021768 0.021505 -0.029337 0.000000 0.015616 0.000000
# 3 0.029594 -0.029337 0.066017 0.000000 -0.032208 0.000000
# 4 0.000000 0.000000 0.000000 0.042790 0.000000 -0.025000
# 5 -0.035447 0.015616 -0.032208 0.000000 0.061873 0.000000
# 6 0.000000 0.000000 0.000000 -0.025000 0.000000 0.039206
#
#
# Mechanical properties :
#
#
# Convention : Reuss Voigt Hill
#
# Bulk Modulus (GPa) = 10.79852 57.94546 34.37199
# Shear Modulus (GPa) = 14.14875 31.71094 22.92984
#
# Velocity S-wave (km/s) = 2.46382 3.68854 3.13654
# Velocity P-wave (km/s) = 3.56748 6.55755 5.27866
#
# Compressibility (1/GPa) = 0.09260526
#
# Stress axis : x y z
#
# Youngs Moduli (GPa) = 20.78748 46.50155 15.14764
#
# Poissons Ratio (x) = 1.01225 -0.44828
# Poissons Ratio (y) = 0.45250 0.44439
# Poissons Ratio (z) = -0.61519 1.36422
#
# Static dielectric constant tensor:
#      x y z
#    x 1.897370 0.000000 -0.002170 
#    y 0.000000 1.892830 0.000000 
#    z -0.002170 0.000000 1.948750 
# 
# From -- ./inp_files/241800.got.cif
#   From: 2010.05.17/outbox.cif.g08.bks.cpg/sg15_121_cif.got.tgz:241800.got - 2010.06.03 18:47:42.
