data_PCOD9267148
_publ_section_title
;
Structure prediction by ZEFSAII (Michael W. Deem and Ramdas Pophale) SiO2 
 PCOD9267148
Probable space group: C 2/C
;
_chemical_formula_sum "Si O2"
_cell_formula_units_Z 32
_cell_length_a 5.755256
_cell_length_b 18.647846
_cell_length_c 13.208802
_cell_angle_alpha 90.000000
_cell_angle_beta 64.975441
_cell_angle_gamma 90.000000
_cell_volume 1284.534013
_symmetry_space_group_name_H-M "C 2/C"
_symmetry_group_IT_number 15
_symmetry_cell_setting 'monoclinic'
loop_
_space_group_symop_operation_xyz
x,y,z
-x,y,1/2-z
-x,-y,-z
x,-y,1/2+z
1/2+x,1/2+y,z
1/2-x,1/2+y,1/2-z
1/2-x,1/2-y,-z
1/2+x,1/2-y,1/2+z
loop_
_atom_site_type_symbol
_atom_site_label
_atom_site_fract_x
_atom_site_fract_y
_atom_site_fract_z
Si Si1 0.500000 0.784631 0.250000
Si Si2 0.500000 0.577732 0.750000
Si Si3 0.976924 0.851501 0.865355
Si Si4 0.765398 0.476718 0.863397
Si Si5 0.550057 0.115527 0.578038
O O1 0.588739 0.726979 0.319572
O O2 0.332949 0.838194 0.349392
O O3 0.591480 0.526815 0.824702
O O4 0.748039 0.618945 0.658875
O O5 0.000000 0.886514 0.750000
O O6 0.122002 0.903463 0.916334
O O7 0.682114 0.851351 0.955263
O O8 0.872577 0.531785 0.926673
O O9 0.000000 0.454066 0.750000
#
# Coordination Sequence:
#
# PCOD9267148 Si02
#       5
#     4   4   8   8   8
#     4  10  21  42  64  93 126 168 206 262 317 374
#     4  10  19  38  66  89 124 160 218 250 309 366
#     4  10  23  39  63  93 133 160 209 266 311 366
#     4  10  20  41  65  93 127 165 213 258 313 373
#     4  11  21  42  66  91 124 174 209 253 318 377
#
# _framework density 24.911759
#
# number of rings (size 3 to 8) (size 9 to 14) (size 15 to 20)
#    0.750    1.000    5.000    1.500    0.000    1.000 
#    6.750    1.250    0.000    0.000    0.000    0.000 
#    0.000    0.000    0.000    0.000    0.000    0.000 
#
# Total GULP energy -89078.789169 kJ/mol
# GULP energy per Si atom -5567.424323 kJ/mol
# Density = 2.485506 g / cm^3
# Si number density = 24.911759 Si / 1000 Ang^3
#
#
#
# Elastic Constant Matrix: (Units=GPa)
#
#
# Indices 1 2 3 4 5 6 
#
# 1 70.4495 30.4865 36.4152 0.0000 -19.0403 0.0000
# 2 30.4865 158.2526 30.5027 0.0000 -6.7246 0.0000
# 3 36.4152 30.5027 170.9797 0.0000 -25.6390 0.0000
# 4 0.0000 0.0000 0.0000 16.0050 0.0000 -14.9765
# 5 -19.0403 -6.7246 -25.6390 0.0000 34.0009 0.0000
# 6 0.0000 0.0000 0.0000 -14.9765 0.0000 6.9025
#
#
#
# Elastic Compliance Matrix: (Units=1/GPa)
#
#
# Indices 1 2 3 4 5 6 
#
# 1 0.018830 -0.002840 -0.002263 0.000000 0.008277 0.000000
# 2 -0.002840 0.006979 -0.000757 0.000000 -0.000781 0.000000
# 3 -0.002263 -0.000757 0.007050 0.000000 0.003900 0.000000
# 4 0.000000 0.000000 0.000000 -0.060644 0.000000 -0.131580
# 5 0.008277 -0.000781 0.003900 0.000000 0.036832 0.000000
# 6 0.000000 0.000000 0.000000 -0.131580 0.000000 -0.140617
#
#
# Mechanical properties :
#
#
# Convention : Reuss Voigt Hill
#
# Bulk Modulus (GPa) = 47.30401 66.05452 56.67927
# Shear Modulus (GPa) = -44.32505 31.53350 -6.39578
#
# Velocity S-wave (km/s) = -4.22273 3.56168 -1.60404
# Velocity P-wave (km/s) = 2.17840 6.59447 4.40123
#
# Compressibility (1/GPa) = 0.02113986
#
# Stress axis : x y z
#
# Youngs Moduli (GPa) = 53.10688 143.29017 141.83541
#
# Poissons Ratio (x) = 0.40690 0.32093
# Poissons Ratio (y) = 0.15081 0.10742
# Poissons Ratio (z) = 0.12016 0.10852
#
# Static dielectric constant tensor:
#      x y z
#    x 2.174210 0.000000 0.024430 
#    y 0.000000 1.986590 0.000000 
#    z 0.024430 0.000000 1.950260 
# 
# From -- ./inp_files/128605.got.cif
#   From: 2010.05.17/outbox.cif.g08.bks.cpg/sg15_65_cif.got.tgz:128605.got - 2010.06.03 18:47:42.
