data_PCOD9267027
_publ_section_title
;
Structure prediction by ZEFSAII (Michael W. Deem and Ramdas Pophale) SiO2 
 PCOD9267027
Probable space group: C 2/C
;
_chemical_formula_sum "Si O2"
_cell_formula_units_Z 56
_cell_length_a 17.174534
_cell_length_b 10.364086
_cell_length_c 21.132625
_cell_angle_alpha 90.000000
_cell_angle_beta 128.551045
_cell_angle_gamma 90.000000
_cell_volume 2941.749848
_symmetry_space_group_name_H-M "C 2/C"
_symmetry_group_IT_number 15
_symmetry_cell_setting 'monoclinic'
loop_
_space_group_symop_operation_xyz
x,y,z
-x,y,1/2-z
-x,-y,-z
x,-y,1/2+z
1/2+x,1/2+y,z
1/2-x,1/2+y,1/2-z
1/2-x,1/2-y,-z
1/2+x,1/2-y,1/2+z
loop_
_atom_site_type_symbol
_atom_site_label
_atom_site_fract_x
_atom_site_fract_y
_atom_site_fract_z
Si Si1 0.803487 0.078828 0.862171
Si Si2 0.576954 0.973921 0.731945
Si Si3 0.780118 0.296082 0.946938
Si Si4 0.338176 0.306802 0.243860
Si Si5 0.392963 0.587592 0.227163
Si Si6 0.376803 0.688886 0.363416
Si Si7 0.517694 0.920010 0.445735
O O1 0.817739 0.170944 0.928294
O O2 0.839008 0.156809 0.818371
O O3 0.685585 0.041309 0.795582
O O4 0.863738 0.945207 0.893646
O O5 0.500000 0.003823 0.750000
O O6 0.598772 0.820631 0.739626
O O7 0.530602 0.018372 0.641598
O O8 0.690525 0.352758 0.860211
O O9 0.750000 0.250000 0.000000
O O10 0.865002 0.401551 0.999537
O O11 0.373226 0.434787 0.225588
O O12 0.223090 0.270537 0.173422
O O13 0.500000 0.611042 0.250000
O O14 0.382854 0.651012 0.291879
O O15 0.468217 0.779054 0.426695
O O16 0.500000 0.000000 0.500000
#
# Coordination Sequence:
#
# PCOD9267027 Si02
#       7
#     8   8   8   8   8   8   8
#     4  10  21  39  64  84 118 163 217 249 301 377
#     4  11  22  39  63  92 120 164 214 258 309 375
#     4  12  24  38  59  91 130 161 199 262 327 372
#     4  10  19  38  64  88 116 157 217 257 293 360
#     4  11  22  39  64  91 121 162 217 256 302 373
#     4  10  21  39  64  87 117 164 210 256 301 378
#     4  12  24  38  62  92 128 159 203 259 326 377
#
# _framework density 19.036289
#
# number of rings (size 3 to 8) (size 9 to 14) (size 15 to 20)
#    0.000    1.143    2.857    3.857    2.000    1.714 
#    0.000    2.857    0.000    7.714    0.000    0.000 
#    0.000    0.000    0.000    0.000    0.000    0.000 
#
# Total GULP energy -156485.969541 kJ/mol
# GULP energy per Si atom -5588.784626 kJ/mol
# Density = 1.899296 g / cm^3
# Si number density = 19.036289 Si / 1000 Ang^3
#
#
#
# Elastic Constant Matrix: (Units=GPa)
#
#
# Indices 1 2 3 4 5 6 
#
# 1 96.0672 21.6600 37.9212 0.0000 0.3651 0.0000
# 2 21.6600 79.1853 43.2996 0.0000 0.1802 0.0000
# 3 37.9212 43.2996 87.7814 0.0000 -6.5380 0.0000
# 4 0.0000 0.0000 0.0000 14.0005 0.0000 5.4652
# 5 0.3651 0.1802 -6.5380 0.0000 34.4207 0.0000
# 6 0.0000 0.0000 0.0000 5.4652 0.0000 26.7560
#
#
#
# Elastic Compliance Matrix: (Units=1/GPa)
#
#
# Indices 1 2 3 4 5 6 
#
# 1 0.012616 -0.000578 -0.005249 0.000000 -0.001128 0.000000
# 2 -0.000578 0.017422 -0.008470 0.000000 -0.001694 0.000000
# 3 -0.005249 -0.008470 0.018101 0.000000 0.003538 0.000000
# 4 0.000000 0.000000 0.000000 0.077614 0.000000 -0.015853
# 5 -0.001128 -0.001694 0.003538 0.000000 0.029745 0.000000
# 6 0.000000 0.000000 0.000000 -0.015853 0.000000 0.040613
#
#
# Mechanical properties :
#
#
# Convention : Reuss Voigt Hill
#
# Bulk Modulus (GPa) = 51.16469 52.08839 51.62654
# Shear Modulus (GPa) = 21.62434 25.71232 23.66833
#
# Velocity S-wave (km/s) = 3.37405 3.67917 3.52991
# Velocity P-wave (km/s) = 6.48959 6.74318 6.61760
#
# Compressibility (1/GPa) = 0.01954473
#
# Stress axis : x y z
#
# Youngs Moduli (GPa) = 79.26483 57.39789 55.24560
#
# Poissons Ratio (x) = 0.03319 0.28997
# Poissons Ratio (y) = 0.04583 0.46794
# Poissons Ratio (z) = 0.41605 0.48617
#
# Static dielectric constant tensor:
#      x y z
#    x 1.668710 0.000000 0.016730 
#    y 0.000000 1.656350 0.000000 
#    z 0.016730 0.000000 1.626180 
# 
# From -- ./inp_files/204520.got.cif
#   From: 2010.05.17/outbox.cif.g08.bks.cpg/sg15_103_cif.got.tgz:204520.got - 2010.06.03 18:47:42.
