data_PCOD9267377
_publ_section_title
;
Structure prediction by ZEFSAII (Michael W. Deem and Ramdas Pophale) SiO2 
 PCOD9267377
Probable space group: C 2/C
;
_chemical_formula_sum "Si O2"
_cell_formula_units_Z 56
_cell_length_a 20.856660
_cell_length_b 11.737644
_cell_length_c 19.721869
_cell_angle_alpha 90.000000
_cell_angle_beta 148.288107
_cell_angle_gamma 90.000000
_cell_volume 2537.867725
_symmetry_space_group_name_H-M "C 2/C"
_symmetry_group_IT_number 15
_symmetry_cell_setting 'monoclinic'
loop_
_space_group_symop_operation_xyz
x,y,z
-x,y,1/2-z
-x,-y,-z
x,-y,1/2+z
1/2+x,1/2+y,z
1/2-x,1/2+y,1/2-z
1/2-x,1/2-y,-z
1/2+x,1/2-y,1/2+z
loop_
_atom_site_type_symbol
_atom_site_label
_atom_site_fract_x
_atom_site_fract_y
_atom_site_fract_z
Si Si1 0.932786 0.050600 0.261761
Si Si2 0.178546 0.534293 0.567478
Si Si3 0.360001 0.219276 0.649347
Si Si4 0.920613 0.283187 0.421854
Si Si5 0.274825 0.081505 0.252248
Si Si6 0.080087 0.086551 0.529583
Si Si7 0.065764 0.536463 0.689365
O O1 0.861705 0.171676 0.200110
O O2 0.000000 0.032575 0.250000
O O3 0.034860 0.066202 0.411999
O O4 0.820671 0.962645 0.172948
O O5 0.123244 0.648767 0.551008
O O6 0.177980 0.449976 0.631569
O O7 0.077923 0.485991 0.424381
O O8 0.500000 0.223941 0.750000
O O9 0.250000 0.250000 0.500000
O O10 0.356927 0.096969 0.682122
O O11 0.816986 0.185445 0.323674
O O12 0.932125 0.371421 0.370195
O O13 0.046285 0.210214 0.528446
O O14 0.208664 0.965982 0.164422
O O15 0.380857 0.082148 0.291815
O O16 0.000000 0.000000 0.500000
#
# Coordination Sequence:
#
# PCOD9267377 Si02
#       7
#     8   8   8   8   8   8   8
#     4  11  23  41  64  95 132 173 226 273 336 412
#     4  11  22  39  58  97 132 175 215 279 344 397
#     4  11  24  40  64  94 130 181 218 268 345 413
#     4  10  20  37  61  95 131 169 214 272 339 400
#     4  10  21  36  62  94 127 170 223 273 339 399
#     4  10  19  39  61  96 123 168 228 277 328 389
#     4  11  23  37  60  92 139 165 213 278 341 402
#
# _framework density 22.065767999999998
#
# number of rings (size 3 to 8) (size 9 to 14) (size 15 to 20)
#    0.000    1.429    4.286    2.571    4.000    5.714 
#    0.000    0.000    0.000    4.286    0.000    0.000 
#    0.000    0.000    0.000    0.000    0.000    0.000 
#
# Total GULP energy -155905.652322 kJ/mol
# GULP energy per Si atom -5568.059011 kJ/mol
# Density = 2.201555 g / cm^3
# Si number density = 22.065768 Si / 1000 Ang^3
#
#
#
# Elastic Constant Matrix: (Units=GPa)
#
#
# Indices 1 2 3 4 5 6 
#
# 1 91.8675 24.1619 32.7952 0.0000 5.3075 0.0000
# 2 24.1619 68.9623 25.3913 0.0000 5.2939 0.0000
# 3 32.7952 25.3913 136.9476 -0.0001 6.2639 0.0000
# 4 0.0000 0.0000 -0.0001 19.9673 0.0000 3.2101
# 5 5.3075 5.2939 6.2639 0.0000 36.2326 0.0000
# 6 0.0000 0.0000 0.0000 3.2101 0.0000 34.8714
#
#
#
# Elastic Compliance Matrix: (Units=1/GPa)
#
#
# Indices 1 2 3 4 5 6 
#
# 1 0.012702 -0.003514 -0.002347 0.000000 -0.000941 0.000000
# 2 -0.003514 0.016651 -0.002175 0.000000 -0.001542 0.000000
# 3 -0.002347 -0.002175 0.008303 0.000000 -0.000774 0.000000
# 4 0.000000 0.000000 0.000000 0.050834 0.000000 -0.004680
# 5 -0.000941 -0.001542 -0.000774 0.000000 0.028096 0.000000
# 6 0.000000 0.000000 0.000000 -0.004680 0.000000 0.029108
#
#
# Mechanical properties :
#
#
# Convention : Reuss Voigt Hill
#
# Bulk Modulus (GPa) = 46.33227 51.38602 48.85915
# Shear Modulus (GPa) = 29.59270 32.57619 31.08445
#
# Velocity S-wave (km/s) = 3.66609 3.84646 3.75736
# Velocity P-wave (km/s) = 6.24206 6.56241 6.40424
#
# Compressibility (1/GPa) = 0.02158323
#
# Stress axis : x y z
#
# Youngs Moduli (GPa) = 78.72979 60.05623 120.44058
#
# Poissons Ratio (x) = 0.21102 0.28269
# Poissons Ratio (y) = 0.27664 0.26199
# Poissons Ratio (z) = 0.18479 0.13064
#
# Static dielectric constant tensor:
#      x y z
#    x 1.990740 0.000000 0.085940 
#    y 0.000000 1.797400 0.000000 
#    z 0.085940 0.000000 1.843230 
# 
# From -- ./inp_files/255475.got.cif
#   From: 2010.05.17/outbox.cif.g08.bks.cpg/sg15_128_cif.got.tgz:255475.got - 2010.06.03 18:47:42.
