data_PCOD9267505
_publ_section_title
;
Structure prediction by ZEFSAII (Michael W. Deem and Ramdas Pophale) SiO2 
 PCOD9267505
Probable space group: C 2/C
;
_chemical_formula_sum "Si O2"
_cell_formula_units_Z 48
_cell_length_a 8.234145
_cell_length_b 22.792160
_cell_length_c 11.181592
_cell_angle_alpha 90.000000
_cell_angle_beta 86.830060
_cell_angle_gamma 90.000000
_cell_volume 2095.282664
_symmetry_space_group_name_H-M "C 2/C"
_symmetry_group_IT_number 15
_symmetry_cell_setting 'monoclinic'
loop_
_space_group_symop_operation_xyz
x,y,z
-x,y,1/2-z
-x,-y,-z
x,-y,1/2+z
1/2+x,1/2+y,z
1/2-x,1/2+y,1/2-z
1/2-x,1/2-y,-z
1/2+x,1/2-y,1/2+z
loop_
_atom_site_type_symbol
_atom_site_label
_atom_site_fract_x
_atom_site_fract_y
_atom_site_fract_z
Si Si1 0.287607 0.398049 0.407302
Si Si2 0.167544 0.706801 0.300592
Si Si3 0.088264 0.604733 0.492016
Si Si4 0.644761 0.390501 0.838468
Si Si5 0.688082 0.827060 0.202853
Si Si6 0.669753 0.991263 0.798511
O O1 0.398114 0.393907 0.520088
O O2 0.294451 0.345414 0.313004
O O3 0.292734 0.457913 0.331606
O O4 0.101730 0.396883 0.466209
O O5 0.124203 0.658112 0.400453
O O6 0.269739 0.671225 0.196372
O O7 0.260114 0.763431 0.344593
O O8 0.000000 0.726658 0.250000
O O9 0.190849 0.621505 0.604750
O O10 0.134003 0.546052 0.419915
O O11 0.500000 0.395575 0.750000
O O12 0.762189 0.444629 0.799543
O O13 0.500000 0.822929 0.250000
O O14 0.500000 0.014827 0.750000
#
# Coordination Sequence:
#
# PCOD9267505 Si02
#       6
#     8   8   8   8   8   8
#     4  11  22  39  64  95 125 160 209 257 306 370
#     4  11  21  43  64  87 120 167 213 256 305 370
#     4  10  19  39  64  94 121 157 207 258 305 366
#     4  11  24  42  62  89 126 169 204 251 318 370
#     4  10  23  38  60  96 125 159 200 264 313 363
#     4  11  21  38  70  93 121 165 209 254 302 373
#
# _framework density 22.908604
#
# number of rings (size 3 to 8) (size 9 to 14) (size 15 to 20)
#    0.000    1.333    3.333    4.000    2.333    1.333 
#    9.000    0.833    0.000    0.000    0.000    0.000 
#    0.000    0.000    0.000    0.000    0.000    0.000 
#
# Total GULP energy -134244.656856 kJ/mol
# GULP energy per Si atom -5593.527369 kJ/mol
# Density = 2.285646 g / cm^3
# Si number density = 22.908604 Si / 1000 Ang^3
#
#
#
# Elastic Constant Matrix: (Units=GPa)
#
#
# Indices 1 2 3 4 5 6 
#
# 1 33.4337 7.1135 13.5725 0.0000 15.4287 0.0000
# 2 7.1135 98.4558 22.5613 0.0000 1.6565 0.0000
# 3 13.5725 22.5613 108.5336 0.0000 28.9364 0.0000
# 4 0.0000 0.0000 0.0000 21.7070 0.0000 -3.7716
# 5 15.4287 1.6565 28.9364 0.0000 32.8102 0.0000
# 6 0.0000 0.0000 0.0000 -3.7716 0.0000 1.9752
#
#
#
# Elastic Compliance Matrix: (Units=1/GPa)
#
#
# Indices 1 2 3 4 5 6 
#
# 1 0.038841 -0.002649 0.000690 0.000000 -0.018739 0.000000
# 2 -0.002649 0.010932 -0.002780 0.000000 0.003145 0.000000
# 3 0.000690 -0.002780 0.012753 0.000000 -0.011431 0.000000
# 4 0.000000 0.000000 0.000000 0.068941 0.000000 0.131643
# 5 -0.018739 0.003145 -0.011431 0.000000 0.049213 0.000000
# 6 0.000000 0.000000 0.000000 0.131643 0.000000 0.757661
#
#
# Mechanical properties :
#
#
# Convention : Reuss Voigt Hill
#
# Bulk Modulus (GPa) = 18.85092 36.32420 27.58756
# Shear Modulus (GPa) = 5.17865 24.44354 14.81110
#
# Velocity S-wave (km/s) = 1.50515 3.27004 2.54545
# Velocity P-wave (km/s) = 3.35667 5.49073 4.55057
#
# Compressibility (1/GPa) = 0.05304780
#
# Stress axis : x y z
#
# Youngs Moduli (GPa) = 25.74588 91.47181 78.41238
#
# Poissons Ratio (x) = 0.24231 -0.05407
# Poissons Ratio (y) = 0.06820 0.21798
# Poissons Ratio (z) = -0.01775 0.25428
#
# Static dielectric constant tensor:
#      x y z
#    x 1.880880 0.000000 0.004910 
#    y 0.000000 1.790490 0.000000 
#    z 0.004910 0.000000 1.885100 
# 
# From -- ./inp_files/79092.got.cif
#   From: 2010.05.17/outbox.cif.g08.bks.cpg/sg15_40_cif.got.tgz:79092.got - 2010.06.03 18:47:42.
