data_PCOD9267730
_publ_section_title
;
Structure prediction by ZEFSAII (Michael W. Deem and Ramdas Pophale) SiO2 
 PCOD9267730
Probable space group: C 2/C
;
_chemical_formula_sum "Si O2"
_cell_formula_units_Z 40
_cell_length_a 34.754876
_cell_length_b 10.970014
_cell_length_c 10.645007
_cell_angle_alpha 90.000000
_cell_angle_beta 24.996653
_cell_angle_gamma 90.000000
_cell_volume 1714.994478
_symmetry_space_group_name_H-M "C 2/C"
_symmetry_group_IT_number 15
_symmetry_cell_setting 'monoclinic'
loop_
_space_group_symop_operation_xyz
x,y,z
-x,y,1/2-z
-x,-y,-z
x,-y,1/2+z
1/2+x,1/2+y,z
1/2-x,1/2+y,1/2-z
1/2-x,1/2-y,-z
1/2+x,1/2-y,1/2+z
loop_
_atom_site_type_symbol
_atom_site_label
_atom_site_fract_x
_atom_site_fract_y
_atom_site_fract_z
Si Si1 0.724690 0.819799 0.250681
Si Si2 0.500000 0.605663 0.750000
Si Si3 0.307632 0.436431 0.780395
Si Si4 0.075708 0.262336 0.288131
Si Si5 0.500000 0.820058 0.250000
Si Si6 0.627733 0.969160 0.712447
O O1 0.691581 0.703296 0.269187
O O2 0.635186 0.865710 0.585654
O O3 0.760458 0.927549 0.055277
O O4 0.817450 0.774652 0.042825
O O5 0.588223 0.526088 0.524468
O O6 0.533231 0.685667 0.530593
O O7 0.235286 0.506809 0.912235
O O8 0.027098 0.250567 0.297278
O O9 0.080152 0.405561 0.314062
O O10 0.417506 0.909572 0.532779
#
# Coordination Sequence:
#
# PCOD9267730 Si02
#       6
#     8   4   8   8   4   8
#     4   9  19  37  56  80 117 154 190 233 285 345
#     4  10  19  40  63  82 114 156 197 234 279 348
#     4   9  19  36  59  83 111 153 196 235 282 342
#     4  10  22  37  59  87 116 154 193 234 287 342
#     4  12  23  34  57  92 120 148 189 244 293 332
#     4  11  21  36  58  86 118 152 191 238 288 342
#
# _framework density 23.323692000000001
#
# number of rings (size 3 to 8) (size 9 to 14) (size 15 to 20)
#    0.000    2.000    0.000    4.800    0.000    0.800 
#    0.000    7.000    0.000    0.000    0.000    0.000 
#    0.000    0.000    0.000    0.000    0.000    0.000 
#
# Total GULP energy -111660.510326 kJ/mol
# GULP energy per Si atom -5583.025516 kJ/mol
# Density = 2.327061 g / cm^3
# Si number density = 23.323692 Si / 1000 Ang^3
#
#
#
# Elastic Constant Matrix: (Units=GPa)
#
#
# Indices 1 2 3 4 5 6 
#
# 1 120.5287 8.4046 25.9751 0.0000 -7.8759 0.0000
# 2 8.4046 39.3925 22.7918 0.0000 13.3746 0.0000
# 3 25.9751 22.7918 131.3408 0.0000 1.7431 0.0000
# 4 0.0000 0.0000 0.0000 17.3474 0.0000 -4.8161
# 5 -7.8759 13.3746 1.7431 0.0000 44.6684 0.0000
# 6 0.0000 0.0000 0.0000 -4.8161 0.0000 4.0665
#
#
#
# Elastic Compliance Matrix: (Units=1/GPa)
#
#
# Indices 1 2 3 4 5 6 
#
# 1 0.008879 -0.001771 -0.001477 0.000000 0.002153 0.000000
# 2 -0.001771 0.031989 -0.005072 0.000000 -0.009692 0.000000
# 3 -0.001477 -0.005072 0.008774 0.000000 0.000916 0.000000
# 4 0.000000 0.000000 0.000000 0.085884 0.000000 0.101716
# 5 0.002153 -0.009692 0.000916 0.000000 0.025633 0.000000
# 6 0.000000 0.000000 0.000000 0.101716 0.000000 0.366380
#
#
# Mechanical properties :
#
#
# Convention : Reuss Voigt Hill
#
# Bulk Modulus (GPa) = 30.30177 45.06722 37.68450
# Shear Modulus (GPa) = 9.00608 28.82249 18.91428
#
# Velocity S-wave (km/s) = 1.96716 3.51915 2.85080
# Velocity P-wave (km/s) = 4.26376 5.98974 5.19888
#
# Compressibility (1/GPa) = 0.03300137
#
# Stress axis : x y z
#
# Youngs Moduli (GPa) = 112.62066 31.26088 113.97334
#
# Poissons Ratio (x) = 0.05536 0.16838
# Poissons Ratio (y) = 0.19944 0.57810
# Poissons Ratio (z) = 0.16638 0.15856
#
# Static dielectric constant tensor:
#      x y z
#    x 1.959180 0.000000 -0.021130 
#    y 0.000000 1.904850 0.000000 
#    z -0.021130 0.000000 1.885900 
# 
# From -- ./inp_files/55176.got.cif
#   From: 2010.05.17/outbox.cif.g08.bks.cpg/sg15_28_cif.got.tgz:55176.got - 2010.06.03 18:47:42.
