data_PCOD9267568
_publ_section_title
;
Structure prediction by ZEFSAII (Michael W. Deem and Ramdas Pophale) SiO2 
 PCOD9267568
Probable space group: C 2/C
;
_chemical_formula_sum "Si O2"
_cell_formula_units_Z 36
_cell_length_a 7.602206
_cell_length_b 16.146975
_cell_length_c 19.868682
_cell_angle_alpha 90.000000
_cell_angle_beta 132.015356
_cell_angle_gamma 90.000000
_cell_volume 1812.042967
_symmetry_space_group_name_H-M "C 2/C"
_symmetry_group_IT_number 15
_symmetry_cell_setting 'monoclinic'
loop_
_space_group_symop_operation_xyz
x,y,z
-x,y,1/2-z
-x,-y,-z
x,-y,1/2+z
1/2+x,1/2+y,z
1/2-x,1/2+y,1/2-z
1/2-x,1/2-y,-z
1/2+x,1/2-y,1/2+z
loop_
_atom_site_type_symbol
_atom_site_label
_atom_site_fract_x
_atom_site_fract_y
_atom_site_fract_z
Si Si1 0.500000 0.088590 0.750000
Si Si2 0.782126 0.377012 0.329828
Si Si3 0.342499 0.167655 0.989499
Si Si4 0.286731 0.567250 0.146098
Si Si5 0.988569 0.983409 0.418637
O O1 0.583332 0.138780 0.705519
O O2 0.277713 0.032435 0.672893
O O3 0.500000 0.361718 0.250000
O O4 0.881810 0.327350 0.419105
O O5 0.803103 0.476212 0.351475
O O6 0.250000 0.250000 0.000000
O O7 0.572280 0.130550 0.085030
O O8 0.135844 0.099691 0.942700
O O9 0.500000 0.591881 0.250000
O O10 0.391889 0.551452 0.098588
O O11 0.000000 0.000000 0.500000
#
# Coordination Sequence:
#
# PCOD9267568 Si02
#       5
#     4   8   8   8   8
#     4  12  18  36  70 100 126 164 224 266 330 362
#     4  10  19  39  66  96 126 170 222 269 313 384
#     4  11  23  42  61  94 139 172 205 270 334 383
#     4  10  19  40  64  92 131 166 220 273 310 379
#     4  11  22  37  68  99 123 167 224 270 312 386
#
# _framework density 19.867077999999999
#
# number of rings (size 3 to 8) (size 9 to 14) (size 15 to 20)
#    0.000    1.333    6.667    5.333    0.000    0.000 
#    2.000    6.667    0.000    0.000    0.000    0.000 
#    0.000    0.000    0.000    0.000    0.000    0.000 
#
# Total GULP energy -100570.371684 kJ/mol
# GULP energy per Si atom -5587.242871 kJ/mol
# Density = 1.982186 g / cm^3
# Si number density = 19.867078 Si / 1000 Ang^3
#
#
#
# Elastic Constant Matrix: (Units=GPa)
#
#
# Indices 1 2 3 4 5 6 
#
# 1 137.9864 39.4591 57.9780 0.0002 -19.5157 -0.0001
# 2 39.4591 57.1953 61.4968 0.0002 9.2879 -0.0001
# 3 57.9780 61.4968 151.2244 0.0007 -2.3939 -0.0003
# 4 0.0002 0.0002 0.0007 0.6185 0.0002 3.9802
# 5 -19.5157 9.2879 -2.3939 0.0002 55.3834 -0.0001
# 6 -0.0001 -0.0001 -0.0003 3.9802 -0.0001 -6.3080
#
#
#
# Elastic Compliance Matrix: (Units=1/GPa)
#
#
# Indices 1 2 3 4 5 6 
#
# 1 0.010291 -0.006569 -0.001200 0.000000 0.004676 0.000000
# 2 -0.006569 0.037213 -0.012759 0.000001 -0.009107 0.000001
# 3 -0.001200 -0.012759 0.012297 -0.000002 0.002248 -0.000001
# 4 0.000000 0.000001 -0.000002 0.319501 -0.000001 0.201598
# 5 0.004676 -0.009107 0.002248 -0.000001 0.021328 -0.000001
# 6 0.000000 0.000001 -0.000001 0.201598 -0.000001 -0.031325
#
#
# Mechanical properties :
#
#
# Convention : Reuss Voigt Hill
#
# Bulk Modulus (GPa) = 53.34613 73.80820 63.57716
# Shear Modulus (GPa) = 12.00168 22.43692 17.21930
#
# Velocity S-wave (km/s) = 2.46051 3.36423 2.94721
# Velocity P-wave (km/s) = 5.91455 7.23342 6.60698
#
# Compressibility (1/GPa) = 0.01874550
#
# Stress axis : x y z
#
# Youngs Moduli (GPa) = 97.17081 26.87250 81.32114
#
# Poissons Ratio (x) = 0.17652 0.09761
# Poissons Ratio (y) = 0.63828 1.03755
# Poissons Ratio (z) = 0.11664 0.34286
#
# Static dielectric constant tensor:
#      x y z
#    x 1.754870 0.000000 -0.053090 
#    y 0.000000 1.672520 0.000000 
#    z -0.053090 0.000000 1.741560 
# 
# From -- ./inp_files/132908.got.cif
#   From: 2010.05.17/outbox.cif.g08.bks.cpg/sg15_67_cif.got.tgz:132908.got - 2010.06.03 18:47:42.
