data_PCOD9267706
_publ_section_title
;
Structure prediction by ZEFSAII (Michael W. Deem and Ramdas Pophale) SiO2 
 PCOD9267706
Probable space group: C 2/C
;
_chemical_formula_sum "Si O2"
_cell_formula_units_Z 48
_cell_length_a 13.460911
_cell_length_b 11.912453
_cell_length_c 14.094817
_cell_angle_alpha 90.000000
_cell_angle_beta 63.731301
_cell_angle_gamma 90.000000
_cell_volume 2026.730458
_symmetry_space_group_name_H-M "C 2/C"
_symmetry_group_IT_number 15
_symmetry_cell_setting 'monoclinic'
loop_
_space_group_symop_operation_xyz
x,y,z
-x,y,1/2-z
-x,-y,-z
x,-y,1/2+z
1/2+x,1/2+y,z
1/2-x,1/2+y,1/2-z
1/2-x,1/2-y,-z
1/2+x,1/2-y,1/2+z
loop_
_atom_site_type_symbol
_atom_site_label
_atom_site_fract_x
_atom_site_fract_y
_atom_site_fract_z
Si Si1 0.106125 0.447488 0.086248
Si Si2 0.955350 0.798084 0.872648
Si Si3 0.649460 0.268885 0.908724
Si Si4 0.642607 0.038002 0.791656
Si Si5 0.391739 0.741533 0.853755
Si Si6 0.799832 0.995437 0.872546
O O1 0.095858 0.315658 0.062189
O O2 0.145884 0.449949 0.177927
O O3 0.982932 0.498780 0.131139
O O4 0.193583 0.509431 0.984746
O O5 0.869368 0.895122 0.887163
O O6 0.000000 0.762962 0.750000
O O7 0.056340 0.841319 0.894644
O O8 0.653211 0.159030 0.839305
O O9 0.777897 0.301385 0.868315
O O10 0.603706 0.248378 0.034466
O O11 0.742848 0.969417 0.795699
O O12 0.500000 0.777738 0.750000
O O13 0.370124 0.609196 0.841519
#
# Coordination Sequence:
#
# PCOD9267706 Si02
#       6
#     8   8   8   8   8   8
#     4  10  19  40  62  86 126 178 215 263 323 388
#     4  11  21  39  61  91 127 170 220 263 325 389
#     4   9  20  41  66  87 127 174 215 260 321 396
#     4   9  19  40  63  86 129 167 219 271 313 386
#     4  10  22  42  65  92 132 172 212 273 329 383
#     4  11  23  34  63  98 129 162 219 274 333 376
#
# _framework density 23.683465000000002
#
# number of rings (size 3 to 8) (size 9 to 14) (size 15 to 20)
#    0.000    2.000    3.333    1.500    0.000    4.667 
#    6.000    0.000   33.000    0.000    0.000    0.000 
#    0.000    0.000    0.000    0.000    0.000    0.000 
#
# Total GULP energy -134204.787932 kJ/mol
# GULP energy per Si atom -5591.866164 kJ/mol
# Density = 2.362956 g / cm^3
# Si number density = 23.683465 Si / 1000 Ang^3
#
#
#
# Elastic Constant Matrix: (Units=GPa)
#
#
# Indices 1 2 3 4 5 6 
#
# 1 191.1055 34.5490 36.8720 0.0000 21.4316 0.0000
# 2 34.5490 82.2690 -4.9648 0.0000 -9.4233 0.0000
# 3 36.8720 -4.9648 66.3864 0.0000 6.6163 0.0000
# 4 0.0000 0.0000 0.0000 23.1084 0.0000 -0.0633
# 5 21.4316 -9.4233 6.6163 0.0000 33.1440 0.0000
# 6 0.0000 0.0000 0.0000 -0.0633 0.0000 32.6852
#
#
#
# Elastic Compliance Matrix: (Units=1/GPa)
#
#
# Indices 1 2 3 4 5 6 
#
# 1 0.007219 -0.003834 -0.003798 0.000000 -0.005000 0.000000
# 2 -0.003834 0.014623 0.002613 0.000000 0.006115 0.000000
# 3 -0.003798 0.002613 0.017396 0.000000 -0.000274 0.000000
# 4 0.000000 0.000000 0.000000 0.043274 0.000000 0.000084
# 5 -0.005000 0.006115 -0.000274 0.000000 0.035198 0.000000
# 6 0.000000 0.000000 0.000000 0.000084 0.000000 0.030595
#
#
# Mechanical properties :
#
#
# Convention : Reuss Voigt Hill
#
# Bulk Modulus (GPa) = 34.24468 52.51927 43.38197
# Shear Modulus (GPa) = 29.74848 36.00784 32.87816
#
# Velocity S-wave (km/s) = 3.54798 3.90343 3.72994
# Velocity P-wave (km/s) = 5.59240 6.52222 6.07512
#
# Compressibility (1/GPa) = 0.02920162
#
# Stress axis : x y z
#
# Youngs Moduli (GPa) = 138.51726 68.38387 57.48584
#
# Poissons Ratio (x) = 0.26216 0.21834
# Poissons Ratio (y) = 0.53103 -0.15024
# Poissons Ratio (z) = 0.52611 -0.17872
#
# Static dielectric constant tensor:
#      x y z
#    x 1.950960 0.000000 -0.013800 
#    y 0.000000 1.979850 0.000000 
#    z -0.013800 0.000000 1.867050 
# 
# From -- ./inp_files/144074.got.cif
#   From: 2010.05.17/outbox.cif.g08.bks.cpg/sg15_73_cif.got.tgz:144074.got - 2010.06.03 18:47:42.
