data_PCOD9267152
_publ_section_title
;
Structure prediction by ZEFSAII (Michael W. Deem and Ramdas Pophale) SiO2 
 PCOD9267152
Probable space group: C 2/C
;
_chemical_formula_sum "Si O2"
_cell_formula_units_Z 56
_cell_length_a 9.032615
_cell_length_b 18.245316
_cell_length_c 21.808510
_cell_angle_alpha 90.000000
_cell_angle_beta 120.622712
_cell_angle_gamma 90.000000
_cell_volume 3092.872626
_symmetry_space_group_name_H-M "C 2/C"
_symmetry_group_IT_number 15
_symmetry_cell_setting 'monoclinic'
loop_
_space_group_symop_operation_xyz
x,y,z
-x,y,1/2-z
-x,-y,-z
x,-y,1/2+z
1/2+x,1/2+y,z
1/2-x,1/2+y,1/2-z
1/2-x,1/2-y,-z
1/2+x,1/2-y,1/2+z
loop_
_atom_site_type_symbol
_atom_site_label
_atom_site_fract_x
_atom_site_fract_y
_atom_site_fract_z
Si Si1 0.601067 0.602254 0.859030
Si Si2 0.365409 0.194077 0.562397
Si Si3 0.000000 0.337144 0.750000
Si Si4 0.215677 0.198964 0.662168
Si Si5 0.345569 0.126631 0.339512
Si Si6 0.535957 0.915425 0.003502
Si Si7 0.285397 0.787113 0.309189
Si Si8 0.000000 0.972426 0.750000
O O1 0.458928 0.655525 0.858326
O O2 0.760960 0.594022 0.939638
O O3 0.688264 0.645593 0.820737
O O4 0.520074 0.527704 0.813174
O O5 0.250000 0.250000 0.500000
O O6 0.280084 0.173439 0.609441
O O7 0.426462 0.127994 0.531945
O O8 0.542333 0.232395 0.619381
O O9 0.962003 0.381362 0.803291
O O10 0.838697 0.282263 0.712014
O O11 0.194934 0.287294 0.657193
O O12 0.324520 0.189774 0.747719
O O13 0.461282 0.106557 0.422058
O O14 0.170754 0.079280 0.291509
O O15 0.500000 0.000000 0.000000
#
# Coordination Sequence:
#
# PCOD9267152 Si02
#       8
#     8   8   4   8   8   8   8   4
#     4  11  21  42  69  90 127 175 216 252 327 396
#     4  11  24  37  62  96 126 161 218 264 317 380
#     4  10  21  40  62  99 122 160 216 268 313 378
#     4  11  21  40  64 101 119 164 223 269 306 378
#     4  11  24  40  67  94 134 162 219 263 331 376
#     4  11  24  44  62  89 135 177 204 263 338 392
#     4  10  19  38  66  90 127 160 211 263 315 373
#     4  12  23  42  66  95 128 178 202 264 329 396
#
# _framework density 18.106144
#
# number of rings (size 3 to 8) (size 9 to 14) (size 15 to 20)
#    0.000    1.143    7.143    0.429    4.000    1.714 
#    2.571    0.714    0.000    0.000    0.000    0.000 
#    0.000    0.000    0.000    0.000    0.000    0.000 
#
# Total GULP energy -156001.801579 kJ/mol
# GULP energy per Si atom -5571.492914 kJ/mol
# Density = 1.806493 g / cm^3
# Si number density = 18.106144 Si / 1000 Ang^3
#
#
#
# Elastic Constant Matrix: (Units=GPa)
#
#
# Indices 1 2 3 4 5 6 
#
# 1 112.8357 47.9318 80.9519 0.0000 -4.1510 0.0000
# 2 47.9318 93.1285 57.6260 0.0000 10.2412 0.0000
# 3 80.9519 57.6260 174.9619 0.0000 4.7141 0.0000
# 4 0.0000 0.0000 0.0000 17.4229 0.0000 7.8099
# 5 -4.1510 10.2412 4.7141 0.0000 39.0423 0.0000
# 6 0.0000 0.0000 0.0000 7.8099 0.0000 25.8107
#
#
#
# Elastic Compliance Matrix: (Units=1/GPa)
#
#
# Indices 1 2 3 4 5 6 
#
# 1 0.014875 -0.004673 -0.005437 0.000000 0.003464 0.000000
# 2 -0.004673 0.015317 -0.002770 0.000000 -0.004180 0.000000
# 3 -0.005437 -0.002770 0.009169 0.000000 -0.000959 0.000000
# 4 0.000000 0.000000 0.000000 0.066402 0.000000 -0.020092
# 5 0.003464 -0.004180 -0.000959 0.000000 0.027194 0.000000
# 6 0.000000 0.000000 0.000000 -0.020092 0.000000 0.044823
#
#
# Mechanical properties :
#
#
# Convention : Reuss Voigt Hill
#
# Bulk Modulus (GPa) = 73.51985 83.77173 78.64579
# Shear Modulus (GPa) = 24.02990 29.41627 26.72308
#
# Velocity S-wave (km/s) = 3.64698 4.03508 3.84593
# Velocity P-wave (km/s) = 7.64376 8.25085 7.95310
#
# Compressibility (1/GPa) = 0.01360177
#
# Stress axis : x y z
#
# Youngs Moduli (GPa) = 67.22485 65.28852 109.05997
#
# Poissons Ratio (x) = 0.30508 0.59295
# Poissons Ratio (y) = 0.31413 0.30210
# Poissons Ratio (z) = 0.36549 0.18085
#
# Static dielectric constant tensor:
#      x y z
#    x 1.641930 0.000000 0.064150 
#    y 0.000000 1.680670 0.000000 
#    z 0.064150 0.000000 1.591050 
# 
# From -- ./inp_files/232823.got.cif
#   From: 2010.05.17/outbox.cif.g08.bks.cpg/sg15_117_cif.got.tgz:232823.got - 2010.06.03 18:47:42.
