data_PCOD9267258
_publ_section_title
;
Structure prediction by ZEFSAII (Michael W. Deem and Ramdas Pophale) SiO2 
 PCOD9267258
Probable space group: C 2/C
;
_chemical_formula_sum "Si O2"
_cell_formula_units_Z 40
_cell_length_a 27.543810
_cell_length_b 6.795266
_cell_length_c 20.817873
_cell_angle_alpha 90.000000
_cell_angle_beta 153.974266
_cell_angle_gamma 90.000000
_cell_volume 1709.655065
_symmetry_space_group_name_H-M "C 2/C"
_symmetry_group_IT_number 15
_symmetry_cell_setting 'monoclinic'
loop_
_space_group_symop_operation_xyz
x,y,z
-x,y,1/2-z
-x,-y,-z
x,-y,1/2+z
1/2+x,1/2+y,z
1/2-x,1/2+y,1/2-z
1/2-x,1/2-y,-z
1/2+x,1/2-y,1/2+z
loop_
_atom_site_type_symbol
_atom_site_label
_atom_site_fract_x
_atom_site_fract_y
_atom_site_fract_z
Si Si1 0.155634 0.463264 0.904117
Si Si2 0.126833 0.072327 0.397533
Si Si3 0.059510 0.603356 0.427156
Si Si4 0.108521 0.905785 0.600223
Si Si5 0.806157 0.216212 0.889289
O O1 0.128307 0.698744 0.876914
O O2 0.126643 0.373597 0.939457
O O3 0.068300 0.394099 0.746750
O O4 0.284904 0.455732 0.040255
O O5 0.173479 0.084524 0.524618
O O6 0.000000 0.005873 0.250000
O O7 0.081026 0.758415 0.509018
O O8 0.102698 0.389538 0.502152
O O9 0.183642 0.803451 0.743126
O O10 0.180896 0.082737 0.657488
O O11 0.000000 0.000000 0.500000
#
# Coordination Sequence:
#
# PCOD9267258 Si02
#       5
#     8   8   8   8   8
#     4   9  19  39  73 103 144 190 234 311 359 440
#     4  10  19  38  72 106 141 193 236 296 376 425
#     4  10  21  47  69 104 146 184 247 294 370 430
#     4  12  28  45  73 104 146 199 243 298 361 440
#     4  11  24  45  68 106 146 189 243 293 362 443
#
# _framework density 23.396533999999999
#
# number of rings (size 3 to 8) (size 9 to 14) (size 15 to 20)
#    0.000    1.600    6.000    0.000    2.800    4.000 
#    3.600    1.000    0.000    0.000    0.000    0.000 
#    0.000    0.000    0.000    0.000    0.000    0.000 
#
# Total GULP energy -111984.411177 kJ/mol
# GULP energy per Si atom -5599.220559 kJ/mol
# Density = 2.334328 g / cm^3
# Si number density = 23.396534 Si / 1000 Ang^3
#
#
#
# Elastic Constant Matrix: (Units=GPa)
#
#
# Indices 1 2 3 4 5 6 
#
# 1 90.6801 34.7302 74.1784 0.0000 23.3569 0.0000
# 2 34.7302 83.9220 32.9268 -0.0004 2.6285 0.0000
# 3 74.1784 32.9268 175.7169 -0.0002 17.6462 0.0000
# 4 0.0000 -0.0004 -0.0002 27.8500 0.0000 5.1788
# 5 23.3569 2.6285 17.6462 0.0000 46.3040 0.0000
# 6 0.0000 0.0000 0.0000 5.1788 0.0000 42.2689
#
#
#
# Elastic Compliance Matrix: (Units=1/GPa)
#
#
# Indices 1 2 3 4 5 6 
#
# 1 0.020846 -0.005650 -0.006985 0.000000 -0.007532 0.000000
# 2 -0.005650 0.014395 -0.000537 0.000000 0.002238 0.000000
# 3 -0.006985 -0.000537 0.008717 0.000000 0.000232 0.000000
# 4 0.000000 0.000000 0.000000 0.036744 0.000000 -0.004502
# 5 -0.007532 0.002238 0.000232 0.000000 0.025181 0.000000
# 6 0.000000 0.000000 0.000000 -0.004502 0.000000 0.024210
#
#
# Mechanical properties :
#
#
# Convention : Reuss Voigt Hill
#
# Bulk Modulus (GPa) = 56.77461 70.44330 63.60895
# Shear Modulus (GPa) = 30.80599 37.18351 33.99475
#
# Velocity S-wave (km/s) = 3.63256 3.99090 3.81594
# Velocity P-wave (km/s) = 6.47402 7.17009 6.83092
#
# Compressibility (1/GPa) = 0.01761351
#
# Stress axis : x y z
#
# Youngs Moduli (GPa) = 47.97155 69.47000 114.72035
#
# Poissons Ratio (x) = 0.39253 0.80129
# Poissons Ratio (y) = 0.27106 0.06158
# Poissons Ratio (z) = 0.33507 0.03729
#
# Static dielectric constant tensor:
#      x y z
#    x 1.852620 0.000000 0.014710 
#    y 0.000000 2.039720 0.000000 
#    z 0.014710 0.000000 1.832320 
# 
# From -- ./inp_files/257051.got.cif
#   From: 2010.05.17/outbox.cif.g08.bks.cpg/sg15_129_cif.got.tgz:257051.got - 2010.06.03 18:47:42.
