data_PCOD9267213
_publ_section_title
;
Structure prediction by ZEFSAII (Michael W. Deem and Ramdas Pophale) SiO2 
 PCOD9267213
Probable space group: C 2/C
;
_chemical_formula_sum "Si O2"
_cell_formula_units_Z 32
_cell_length_a 18.680054
_cell_length_b 16.878631
_cell_length_c 5.191815
_cell_angle_alpha 90.000000
_cell_angle_beta 50.778101
_cell_angle_gamma 90.000000
_cell_volume 1268.147345
_symmetry_space_group_name_H-M "C 2/C"
_symmetry_group_IT_number 15
_symmetry_cell_setting 'monoclinic'
loop_
_space_group_symop_operation_xyz
x,y,z
-x,y,1/2-z
-x,-y,-z
x,-y,1/2+z
1/2+x,1/2+y,z
1/2-x,1/2+y,1/2-z
1/2-x,1/2-y,-z
1/2+x,1/2-y,1/2+z
loop_
_atom_site_type_symbol
_atom_site_label
_atom_site_fract_x
_atom_site_fract_y
_atom_site_fract_z
Si Si1 0.500000 0.325100 0.250000
Si Si2 0.892254 0.952002 0.173097
Si Si3 0.500000 0.075803 0.750000
Si Si4 0.119956 0.314946 0.289651
Si Si5 0.814409 0.394852 0.843538
O O1 0.445464 0.376553 0.163837
O O2 0.422214 0.270488 0.561032
O O3 0.782789 0.936921 0.439194
O O4 0.911629 0.978798 0.837931
O O5 0.468475 0.132008 0.589067
O O6 0.598738 0.045266 0.420576
O O7 0.169191 0.351640 0.424275
O O8 0.180996 0.329161 0.895443
#
# Coordination Sequence:
#
# PCOD9267213 Si02
#       5
#     4   8   4   8   8
#     4  12  24  46  73  99 140 170 230 284 336 402
#     4  12  29  47  65  96 139 195 228 258 320 411
#     4   8  18  36  67  99 134 154 206 278 354 398
#     4  10  19  38  68 105 128 162 209 292 358 374
#     4  10  20  41  67  96 140 162 226 278 333 409
#
# _framework density 25.233663
#
# number of rings (size 3 to 8) (size 9 to 14) (size 15 to 20)
#    1.500    0.000    2.500    2.250    0.000    8.000 
#    0.000    1.250    0.000    0.000    0.000    0.000 
#    0.000    0.000    0.000    0.000    0.000    0.000 
#
# Total GULP energy -89480.660196 kJ/mol
# GULP energy per Si atom -5592.541262 kJ/mol
# Density = 2.517623 g / cm^3
# Si number density = 25.233663 Si / 1000 Ang^3
#
#
#
# Elastic Constant Matrix: (Units=GPa)
#
#
# Indices 1 2 3 4 5 6 
#
# 1 158.7531 47.0229 64.8907 0.0000 17.8514 0.0000
# 2 47.0229 87.5551 37.0556 0.0000 12.6631 0.0000
# 3 64.8907 37.0556 117.4189 0.0000 30.0745 0.0000
# 4 0.0000 0.0000 0.0000 62.1993 0.0000 10.7684
# 5 17.8514 12.6631 30.0745 0.0000 64.4655 0.0000
# 6 0.0000 0.0000 0.0000 10.7684 0.0000 38.1868
#
#
#
# Elastic Compliance Matrix: (Units=1/GPa)
#
#
# Indices 1 2 3 4 5 6 
#
# 1 0.008803 -0.003079 -0.003888 0.000000 -0.000019 0.000000
# 2 -0.003079 0.014290 -0.002621 0.000000 -0.000732 0.000000
# 3 -0.003888 -0.002621 0.012589 0.000000 -0.004282 0.000000
# 4 0.000000 0.000000 0.000000 0.016903 0.000000 -0.004766
# 5 -0.000019 -0.000732 -0.004282 0.000000 0.017659 0.000000
# 6 0.000000 0.000000 0.000000 -0.004766 0.000000 0.027531
#
#
# Mechanical properties :
#
#
# Convention : Reuss Voigt Hill
#
# Bulk Modulus (GPa) = 60.58521 73.51839 67.05180
# Shear Modulus (GPa) = 40.83250 47.28751 44.06000
#
# Velocity S-wave (km/s) = 4.02702 4.33365 4.18315
# Velocity P-wave (km/s) = 6.75902 7.36471 7.06836
#
# Compressibility (1/GPa) = 0.01650568
#
# Stress axis : x y z
#
# Youngs Moduli (GPa) = 113.60342 69.97850 79.43529
#
# Poissons Ratio (x) = 0.21549 0.30885
# Poissons Ratio (y) = 0.34982 0.20816
# Poissons Ratio (z) = 0.44170 0.18338
#
# Static dielectric constant tensor:
#      x y z
#    x 1.954430 0.000000 -0.056750 
#    y 0.000000 1.998660 0.000000 
#    z -0.056750 0.000000 2.033630 
# 
# From -- ./inp_files/12738.got.cif
#   From: 2010.05.17/outbox.cif.g08.bks.cpg/sg15_7_cif.got.tgz:12738.got - 2010.06.03 18:47:42.
