data_PCOD9267533
_publ_section_title
;
Structure prediction by ZEFSAII (Michael W. Deem and Ramdas Pophale) SiO2 
 PCOD9267533
Probable space group: C 2/C
;
_chemical_formula_sum "Si O2"
_cell_formula_units_Z 48
_cell_length_a 7.857914
_cell_length_b 28.037029
_cell_length_c 16.869864
_cell_angle_alpha 90.000000
_cell_angle_beta 34.907870
_cell_angle_gamma 90.000000
_cell_volume 2126.880613
_symmetry_space_group_name_H-M "C 2/C"
_symmetry_group_IT_number 15
_symmetry_cell_setting 'monoclinic'
loop_
_space_group_symop_operation_xyz
x,y,z
-x,y,1/2-z
-x,-y,-z
x,-y,1/2+z
1/2+x,1/2+y,z
1/2-x,1/2+y,1/2-z
1/2-x,1/2-y,-z
1/2+x,1/2-y,1/2+z
loop_
_atom_site_type_symbol
_atom_site_label
_atom_site_fract_x
_atom_site_fract_y
_atom_site_fract_z
Si Si1 0.520180 0.936264 0.568129
Si Si2 0.899944 0.112700 0.695457
Si Si3 0.889951 0.455289 0.431922
Si Si4 0.196797 0.290176 0.319553
Si Si5 0.175261 0.100897 0.336955
Si Si6 0.586793 0.692347 0.128435
O O1 0.447404 0.942757 0.503082
O O2 0.244087 0.916533 0.721758
O O3 0.805577 0.901591 0.464175
O O4 0.593582 0.987963 0.576977
O O5 0.649965 0.071880 0.785221
O O6 0.768772 0.165519 0.733710
O O7 0.000000 0.113493 0.750000
O O8 0.571551 0.433662 0.532193
O O9 0.500000 0.278244 0.250000
O O10 0.940384 0.306666 0.478901
O O11 0.058613 0.243893 0.331403
O O12 0.500000 0.099403 0.250000
O O13 0.044398 0.153856 0.382387
O O14 0.500000 0.678589 0.250000
#
# Coordination Sequence:
#
# PCOD9267533 Si02
#       6
#     8   8   8   8   8   8
#     4  10  21  37  65  94 119 162 210 254 306 364
#     4   9  18  35  60  91 120 155 195 255 307 358
#     4  10  19  39  65  91 123 158 211 256 302 366
#     4  10  22  42  64  94 125 155 201 261 314 369
#     4  12  25  40  59  91 130 168 205 253 307 365
#     4  11  24  43  67  91 122 164 206 252 311 374
#
# _framework density 22.568263000000002
#
# number of rings (size 3 to 8) (size 9 to 14) (size 15 to 20)
#    0.000    1.667    1.667    3.000    4.667    4.000 
#    6.000    0.833    0.000    0.000    0.000    0.000 
#    0.000    0.000    0.000    0.000    0.000    0.000 
#
# Total GULP energy -134255.069124 kJ/mol
# GULP energy per Si atom -5593.961213 kJ/mol
# Density = 2.251690 g / cm^3
# Si number density = 22.568263 Si / 1000 Ang^3
#
#
#
# Elastic Constant Matrix: (Units=GPa)
#
#
# Indices 1 2 3 4 5 6 
#
# 1 57.4427 12.7232 13.6987 0.0000 -25.7263 0.0000
# 2 12.7232 121.1755 29.3378 0.0000 -21.3181 0.0000
# 3 13.6987 29.3378 104.1912 0.0001 -38.1159 0.0000
# 4 0.0000 0.0000 0.0001 37.8698 0.0000 -5.3963
# 5 -25.7263 -21.3181 -38.1159 0.0000 36.6971 0.0000
# 6 0.0000 0.0000 0.0000 -5.3963 0.0000 8.6172
#
#
#
# Elastic Compliance Matrix: (Units=1/GPa)
#
#
# Indices 1 2 3 4 5 6 
#
# 1 0.027191 0.000194 0.005460 0.000000 0.024846 0.000000
# 2 0.000194 0.009262 -0.000992 0.000000 0.004486 0.000000
# 3 0.005460 -0.000992 0.016691 0.000000 0.020587 0.000000
# 4 0.000000 0.000000 0.000000 0.028993 0.000000 0.018156
# 5 0.024846 0.004486 0.020587 0.000000 0.068657 0.000000
# 6 0.000000 0.000000 0.000000 0.018156 0.000000 0.127417
#
#
# Mechanical properties :
#
#
# Convention : Reuss Voigt Hill
#
# Bulk Modulus (GPa) = 16.00879 43.81432 29.91155
# Shear Modulus (GPa) = 17.25866 31.77345 24.51606
#
# Velocity S-wave (km/s) = 2.76838 3.75625 3.29949
# Velocity P-wave (km/s) = 4.16263 6.18618 5.27239
#
# Compressibility (1/GPa) = 0.06246570
#
# Stress axis : x y z
#
# Youngs Moduli (GPa) = 36.77683 107.97376 59.91408
#
# Poissons Ratio (x) = -0.02097 -0.32710
# Poissons Ratio (y) = -0.00714 0.05946
# Poissons Ratio (z) = -0.20078 0.10716
#
# Static dielectric constant tensor:
#      x y z
#    x 1.884430 0.000000 0.024870 
#    y 0.000000 1.827440 0.000000 
#    z 0.024870 0.000000 1.782100 
# 
# From -- ./inp_files/234739.got.cif
#   From: 2010.05.17/outbox.cif.g08.bks.cpg/sg15_118_cif.got.tgz:234739.got - 2010.06.03 18:47:42.
