data_PCOD9267866
_publ_section_title
;
Structure prediction by ZEFSAII (Michael W. Deem and Ramdas Pophale) SiO2 
 PCOD9267866
Probable space group: C 2/C
;
_chemical_formula_sum "Si O2"
_cell_formula_units_Z 64
_cell_length_a 20.298158
_cell_length_b 11.438758
_cell_length_c 35.056991
_cell_angle_alpha 90.000000
_cell_angle_beta 155.813222
_cell_angle_gamma 90.000000
_cell_volume 3334.950480
_symmetry_space_group_name_H-M "C 2/C"
_symmetry_group_IT_number 15
_symmetry_cell_setting 'monoclinic'
loop_
_space_group_symop_operation_xyz
x,y,z
-x,y,1/2-z
-x,-y,-z
x,-y,1/2+z
1/2+x,1/2+y,z
1/2-x,1/2+y,1/2-z
1/2-x,1/2-y,-z
1/2+x,1/2-y,1/2+z
loop_
_atom_site_type_symbol
_atom_site_label
_atom_site_fract_x
_atom_site_fract_y
_atom_site_fract_z
Si Si1 0.089538 0.802488 0.258450
Si Si2 0.119426 0.002056 0.723968
Si Si3 0.128576 0.285927 0.481331
Si Si4 0.516382 0.885843 0.861082
Si Si5 0.124729 0.699457 0.133485
Si Si6 0.194499 0.948177 0.981645
Si Si7 0.340351 0.877130 0.283534
Si Si8 0.037207 0.637999 0.528076
O O1 0.278185 0.825893 0.366657
O O2 0.000000 0.772371 0.250000
O O3 0.042346 0.705781 0.201670
O O4 0.033325 0.928349 0.212262
O O5 0.229895 0.894309 0.794313
O O6 0.990088 0.976816 0.623163
O O7 0.245929 0.090301 0.771883
O O8 0.204631 0.156952 0.517885
O O9 0.243934 0.385722 0.524891
O O10 0.064956 0.321189 0.489069
O O11 0.981409 0.292487 0.372954
O O12 0.477314 0.834920 0.882630
O O13 0.413372 0.005190 0.805083
O O14 0.697642 0.937256 0.953638
O O15 0.216690 0.818420 0.190087
O O16 0.019423 0.700202 0.040390
O O17 0.000000 0.500000 0.500000
#
# Coordination Sequence:
#
# PCOD9267866 Si02
#       8
#     8   8   8   8   8   8   8   8
#     4  12  27  43  63  91 137 171 207 268 328 381
#     4  11  21  37  66  94 125 160 213 266 315 381
#     4  10  20  41  63  95 130 162 214 269 326 375
#     4  10  23  44  64  91 131 170 213 263 320 393
#     4  11  21  39  67  96 120 166 220 260 318 378
#     4  10  22  36  70  94 124 170 215 262 320 392
#     4  10  19  40  68  89 118 170 213 261 309 385
#     4  12  23  41  62  96 130 167 213 274 327 375
#
# _framework density 19.19069
#
# number of rings (size 3 to 8) (size 9 to 14) (size 15 to 20)
#    0.000    1.250    5.000    1.500    5.250    1.500 
#    2.250    0.625    0.000    0.000    0.000    0.000 
#    0.000    0.000    0.000    0.000    0.000    0.000 
#
# Total GULP energy -178458.000775 kJ/mol
# GULP energy per Si atom -5576.812524 kJ/mol
# Density = 1.914701 g / cm^3
# Si number density = 19.190690 Si / 1000 Ang^3
#
#
#
# Elastic Constant Matrix: (Units=GPa)
#
#
# Indices 1 2 3 4 5 6 
#
# 1 107.8667 33.7268 25.5261 -0.0001 -12.9508 0.0000
# 2 33.7268 44.6515 29.9611 -0.0001 -4.9131 0.0000
# 3 25.5261 29.9611 89.1240 -0.0007 -6.3131 -0.0003
# 4 -0.0001 -0.0001 -0.0007 34.3107 0.0000 0.4049
# 5 -12.9508 -4.9131 -6.3131 0.0000 30.7410 0.0000
# 6 0.0000 0.0000 -0.0003 0.4049 0.0000 13.0730
#
#
#
# Elastic Compliance Matrix: (Units=1/GPa)
#
#
# Indices 1 2 3 4 5 6 
#
# 1 0.012577 -0.008838 -0.000361 0.000000 0.003812 0.000000
# 2 -0.008838 0.035347 -0.009351 0.000000 0.000005 0.000000
# 3 -0.000361 -0.009351 0.014562 0.000000 0.001344 0.000000
# 4 0.000000 0.000000 0.000000 0.029156 0.000000 -0.000903
# 5 0.003812 0.000005 0.001344 0.000000 0.034413 0.000000
# 6 0.000000 0.000000 0.000000 -0.000903 0.000000 0.076522
#
#
# Mechanical properties :
#
#
# Convention : Reuss Voigt Hill
#
# Bulk Modulus (GPa) = 39.39197 46.67446 43.03321
# Shear Modulus (GPa) = 20.15000 25.78682 22.96841
#
# Velocity S-wave (km/s) = 3.24387 3.66965 3.46331
# Velocity P-wave (km/s) = 5.88230 6.50610 6.20204
#
# Compressibility (1/GPa) = 0.02538589
#
# Stress axis : x y z
#
# Youngs Moduli (GPa) = 79.50827 28.29133 68.66996
#
# Poissons Ratio (x) = 0.25005 0.02479
# Poissons Ratio (y) = 0.70272 0.64212
# Poissons Ratio (z) = 0.02871 0.26455
#
# Static dielectric constant tensor:
#      x y z
#    x 1.693090 0.000000 0.032120 
#    y 0.000000 1.735800 0.000000 
#    z 0.032120 0.000000 1.696920 
# 
# From -- ./inp_files/316237.got.cif
#   From: 2010.05.17/outbox.cif.g08.bks.cpg/sg15_159_cif.got.tgz:316237.got - 2010.06.03 18:47:42.
