data_PCOD9267087
_publ_section_title
;
Structure prediction by ZEFSAII (Michael W. Deem and Ramdas Pophale) SiO2 
 PCOD9267087
Probable space group: C 2/C
;
_chemical_formula_sum "Si O2"
_cell_formula_units_Z 48
_cell_length_a 10.171046
_cell_length_b 12.829066
_cell_length_c 18.897563
_cell_angle_alpha 90.000000
_cell_angle_beta 67.794095
_cell_angle_gamma 90.000000
_cell_volume 2282.960923
_symmetry_space_group_name_H-M "C 2/C"
_symmetry_group_IT_number 15
_symmetry_cell_setting 'monoclinic'
loop_
_space_group_symop_operation_xyz
x,y,z
-x,y,1/2-z
-x,-y,-z
x,-y,1/2+z
1/2+x,1/2+y,z
1/2-x,1/2+y,1/2-z
1/2-x,1/2-y,-z
1/2+x,1/2-y,1/2+z
loop_
_atom_site_type_symbol
_atom_site_label
_atom_site_fract_x
_atom_site_fract_y
_atom_site_fract_z
Si Si1 0.753524 0.417176 0.045210
Si Si2 0.161980 0.388069 0.700713
Si Si3 0.137626 0.775059 0.583254
Si Si4 0.078136 0.541228 0.601506
Si Si5 0.875597 0.205571 0.053173
Si Si6 0.734018 0.059274 0.339992
O O1 0.873110 0.328124 0.034600
O O2 0.693852 0.464997 0.130022
O O3 0.824852 0.510195 0.985349
O O4 0.645705 0.359203 0.014334
O O5 0.147902 0.491736 0.656820
O O6 0.241339 0.309537 0.632233
O O7 0.247422 0.415003 0.754512
O O8 0.000000 0.353754 0.750000
O O9 0.250000 0.750000 0.500000
O O10 0.069905 0.663665 0.617414
O O11 0.214078 0.838121 0.629405
O O12 0.009791 0.833695 0.569720
O O13 0.930051 0.479693 0.621121
#
# Coordination Sequence:
#
# PCOD9267087 Si02
#       6
#     8   8   8   8   8   8
#     4  10  19  38  65  87 125 166 206 269 324 370
#     4   9  22  42  64  88 125 170 211 260 321 393
#     4  12  23  37  67  99 122 164 219 270 323 389
#     4  10  20  42  64  92 123 165 217 261 320 387
#     4  10  22  38  63  94 127 163 214 269 322 385
#     4  11  21  37  64  91 124 166 215 260 316 387
#
# _framework density 21.025327999999998
#
# number of rings (size 3 to 8) (size 9 to 14) (size 15 to 20)
#    0.000    1.667    3.333    1.500    0.000    4.000 
#    3.000    0.000    3.667    0.000    0.000    0.000 
#    0.000    0.000    0.000    0.000    0.000    0.000 
#
# Total GULP energy -133801.686486 kJ/mol
# GULP energy per Si atom -5575.070270 kJ/mol
# Density = 2.097747 g / cm^3
# Si number density = 21.025328 Si / 1000 Ang^3
#
#
#
# Elastic Constant Matrix: (Units=GPa)
#
#
# Indices 1 2 3 4 5 6 
#
# 1 65.6840 27.9606 42.0223 0.0000 29.1276 0.0000
# 2 27.9606 94.2483 28.5625 0.0000 32.4899 0.0000
# 3 42.0223 28.5625 108.7180 0.0000 44.1828 0.0000
# 4 0.0000 0.0000 0.0000 15.7976 0.0000 6.6112
# 5 29.1276 32.4899 44.1828 0.0000 46.3360 0.0000
# 6 0.0000 0.0000 0.0000 6.6112 0.0000 23.7784
#
#
#
# Elastic Compliance Matrix: (Units=1/GPa)
#
#
# Indices 1 2 3 4 5 6 
#
# 1 0.023033 -0.002599 -0.005023 0.000000 -0.007867 0.000000
# 2 -0.002599 0.014303 0.001075 0.000000 -0.009421 0.000000
# 3 -0.005023 0.001075 0.016131 0.000000 -0.012978 0.000000
# 4 0.000000 0.000000 0.000000 0.071636 0.000000 -0.019917
# 5 -0.007867 -0.009421 -0.012978 0.000000 0.045508 0.000000
# 6 0.000000 0.000000 0.000000 -0.019917 0.000000 0.047593
#
#
# Mechanical properties :
#
#
# Convention : Reuss Voigt Hill
#
# Bulk Modulus (GPa) = 24.76812 51.74902 38.25857
# Shear Modulus (GPa) = 20.42864 28.52273 24.47569
#
# Velocity S-wave (km/s) = 3.12046 3.68719 3.41560
# Velocity P-wave (km/s) = 4.97883 6.54166 5.81300
#
# Compressibility (1/GPa) = 0.04037448
#
# Stress axis : x y z
#
# Youngs Moduli (GPa) = 43.41627 69.91577 61.99076
#
# Poissons Ratio (x) = 0.18171 0.31137
# Poissons Ratio (y) = 0.11284 -0.06667
# Poissons Ratio (z) = 0.21807 -0.07519
#
# Static dielectric constant tensor:
#      x y z
#    x 1.833820 0.000000 -0.004750 
#    y 0.000000 1.789520 0.000000 
#    z -0.004750 0.000000 1.786120 
# 
# From -- ./inp_files/196037.got.cif
#   From: 2010.05.17/outbox.cif.g08.bks.cpg/sg15_99_cif.got.tgz:196037.got - 2010.06.03 18:47:42.
