data_PCOD9267346
_publ_section_title
;
Structure prediction by ZEFSAII (Michael W. Deem and Ramdas Pophale) SiO2 
 PCOD9267346
Probable space group: C 2/C
;
_chemical_formula_sum "Si O2"
_cell_formula_units_Z 48
_cell_length_a 15.867065
_cell_length_b 9.423831
_cell_length_c 20.269079
_cell_angle_alpha 90.000000
_cell_angle_beta 137.382168
_cell_angle_gamma 90.000000
_cell_volume 2052.173833
_symmetry_space_group_name_H-M "C 2/C"
_symmetry_group_IT_number 15
_symmetry_cell_setting 'monoclinic'
loop_
_space_group_symop_operation_xyz
x,y,z
-x,y,1/2-z
-x,-y,-z
x,-y,1/2+z
1/2+x,1/2+y,z
1/2-x,1/2+y,1/2-z
1/2-x,1/2-y,-z
1/2+x,1/2-y,1/2+z
loop_
_atom_site_type_symbol
_atom_site_label
_atom_site_fract_x
_atom_site_fract_y
_atom_site_fract_z
Si Si1 0.225472 0.915176 0.891467
Si Si2 0.271365 0.057820 0.046788
Si Si3 0.974329 0.667334 0.495937
Si Si4 0.628497 0.867428 0.286166
Si Si5 0.738407 0.773545 0.133806
Si Si6 0.557278 0.112488 0.166322
O O1 0.358494 0.835029 0.977892
O O2 0.149591 0.799810 0.806180
O O3 0.240395 0.058771 0.858632
O O4 0.193064 0.979585 0.944433
O O5 0.275308 0.950160 0.111291
O O6 0.226713 0.203063 0.054642
O O7 0.412206 0.089520 0.101170
O O8 0.930658 0.696161 0.395694
O O9 0.000000 0.500000 0.500000
O O10 0.100924 0.747966 0.585413
O O11 0.500000 0.894435 0.250000
O O12 0.616439 0.953405 0.210554
O O13 0.859063 0.703029 0.235341
#
# Coordination Sequence:
#
# PCOD9267346 Si02
#       6
#     8   8   8   8   8   8
#     4  11  21  36  60  87 121 152 200 247 302 356
#     4  10  19  39  61  82 118 158 196 250 297 351
#     4  10  21  38  59  86 119 159 193 241 306 363
#     4   9  21  37  58  86 113 160 196 240 297 356
#     4  10  21  36  61  91 110 157 205 244 296 354
#     4  10  20  39  61  81 121 156 199 241 301 356
#
# _framework density 23.389831000000001
#
# number of rings (size 3 to 8) (size 9 to 14) (size 15 to 20)
#    0.000    2.000    3.333    2.500    0.000    4.000 
#    0.000    3.333    0.000    0.000    0.000    0.000 
#    0.000    0.000    0.000    0.000    0.000    0.000 
#
# Total GULP energy -133610.246299 kJ/mol
# GULP energy per Si atom -5567.093596 kJ/mol
# Density = 2.333659 g / cm^3
# Si number density = 23.389831 Si / 1000 Ang^3
#
#
#
# Elastic Constant Matrix: (Units=GPa)
#
#
# Indices 1 2 3 4 5 6 
#
# 1 21.2678 5.7712 4.1520 0.0000 -7.7070 0.0000
# 2 5.7712 124.0040 40.1607 0.0000 6.3479 0.0000
# 3 4.1520 40.1607 64.6429 0.0000 -5.0742 0.0000
# 4 0.0000 0.0000 0.0000 46.3747 0.0000 -0.9195
# 5 -7.7070 6.3479 -5.0742 0.0000 18.3738 0.0000
# 6 0.0000 0.0000 0.0000 -0.9195 0.0000 14.5502
#
#
#
# Elastic Compliance Matrix: (Units=1/GPa)
#
#
# Indices 1 2 3 4 5 6 
#
# 1 0.057355 -0.004326 0.001032 0.000000 0.025838 0.000000
# 2 -0.004326 0.010961 -0.007126 0.000000 -0.007569 0.000000
# 3 0.001032 -0.007126 0.020502 0.000000 0.008557 0.000000
# 4 0.000000 0.000000 0.000000 0.021591 0.000000 0.001364
# 5 0.025838 -0.007569 0.008557 0.000000 0.070241 0.000000
# 6 0.000000 0.000000 0.000000 0.001364 0.000000 0.068814
#
#
# Mechanical properties :
#
#
# Convention : Reuss Voigt Hill
#
# Bulk Modulus (GPa) = 14.71072 34.45361 24.58217
# Shear Modulus (GPa) = 17.06698 26.51512 21.79105
#
# Velocity S-wave (km/s) = 2.70418 3.37058 3.05560
# Velocity P-wave (km/s) = 4.00664 5.46899 4.79390
#
# Compressibility (1/GPa) = 0.06797763
#
# Stress axis : x y z
#
# Youngs Moduli (GPa) = 17.43530 91.23287 48.77525
#
# Poissons Ratio (x) = 0.39469 -0.05033
# Poissons Ratio (y) = 0.07543 0.34757
# Poissons Ratio (z) = -0.01799 0.65013
#
# Static dielectric constant tensor:
#      x y z
#    x 2.124320 0.000000 -0.253310 
#    y 0.000000 1.904580 0.000000 
#    z -0.253310 0.000000 2.264390 
# 
# From -- ./inp_files/247650.got.cif
#   From: 2010.05.17/outbox.cif.g08.bks.cpg/sg15_124_cif.got.tgz:247650.got - 2010.06.03 18:47:42.
