data_PCOD9267386
_publ_section_title
;
Structure prediction by ZEFSAII (Michael W. Deem and Ramdas Pophale) SiO2 
 PCOD9267386
Probable space group: C 2/C
;
_chemical_formula_sum "Si O2"
_cell_formula_units_Z 56
_cell_length_a 18.112010
_cell_length_b 16.341837
_cell_length_c 19.939138
_cell_angle_alpha 90.000000
_cell_angle_beta 28.343115
_cell_angle_gamma 90.000000
_cell_volume 2801.814994
_symmetry_space_group_name_H-M "C 2/C"
_symmetry_group_IT_number 15
_symmetry_cell_setting 'monoclinic'
loop_
_space_group_symop_operation_xyz
x,y,z
-x,y,1/2-z
-x,-y,-z
x,-y,1/2+z
1/2+x,1/2+y,z
1/2-x,1/2+y,1/2-z
1/2-x,1/2-y,-z
1/2+x,1/2-y,1/2+z
loop_
_atom_site_type_symbol
_atom_site_label
_atom_site_fract_x
_atom_site_fract_y
_atom_site_fract_z
Si Si1 0.570670 0.261562 0.513560
Si Si2 0.998478 0.906680 0.476393
Si Si3 0.929554 0.611769 0.077610
Si Si4 0.247550 0.159028 0.425478
Si Si5 0.822709 0.456145 0.217086
Si Si6 0.923165 0.669948 0.411012
Si Si7 0.391349 0.841047 0.272352
O O1 0.484176 0.336078 0.544257
O O2 0.618164 0.197898 0.416257
O O3 0.472838 0.213972 0.648605
O O4 0.727516 0.298294 0.419507
O O5 0.178721 0.900932 0.307351
O O6 0.871364 0.895736 0.520790
O O7 0.000000 0.000000 0.500000
O O8 0.804496 0.550703 0.210482
O O9 0.054096 0.626029 0.036878
O O10 0.017917 0.568281 0.946280
O O11 0.153033 0.242121 0.515249
O O12 0.313965 0.126743 0.443197
O O13 0.403173 0.177712 0.258334
O O14 0.849348 0.429174 0.272513
O O15 0.500000 0.847637 0.250000
#
# Coordination Sequence:
#
# PCOD9267386 Si02
#       7
#     8   8   8   8   8   8   8
#     4  10  22  35  65  87 112 163 199 245 299 359
#     4  11  22  37  58  89 125 152 205 255 302 360
#     4  10  19  39  62  83 121 152 208 238 302 369
#     4  10  22  36  56  90 120 155 202 241 303 354
#     4   9  22  37  59  90 111 159 195 254 298 357
#     4  10  21  36  59  86 117 162 192 249 292 362
#     4  10  21  40  59  89 119 153 199 247 301 358
#
# _framework density 19.987044000000001
#
# number of rings (size 3 to 8) (size 9 to 14) (size 15 to 20)
#    0.000    2.000    1.429    1.286    6.000    0.000 
#    7.714    0.000    0.000    0.000    0.000    0.000 
#    0.000    0.000    0.000    0.000    0.000    0.000 
#
# Total GULP energy -156064.963669 kJ/mol
# GULP energy per Si atom -5573.748702 kJ/mol
# Density = 1.994155 g / cm^3
# Si number density = 19.987044 Si / 1000 Ang^3
#
#
#
# Elastic Constant Matrix: (Units=GPa)
#
#
# Indices 1 2 3 4 5 6 
#
# 1 133.8084 37.2320 19.4433 0.0004 -21.5848 -0.0003
# 2 37.2320 82.2289 17.9452 0.0000 -2.6644 -0.0001
# 3 19.4433 17.9452 41.6543 -0.0027 -10.0074 0.0006
# 4 0.0004 0.0000 -0.0027 31.8648 0.0009 -3.7079
# 5 -21.5848 -2.6644 -10.0074 0.0009 29.5236 -0.0001
# 6 -0.0003 -0.0001 0.0006 -3.7079 -0.0001 24.0580
#
#
#
# Elastic Compliance Matrix: (Units=1/GPa)
#
#
# Indices 1 2 3 4 5 6 
#
# 1 0.009787 -0.003931 -0.001351 0.000000 0.006342 0.000000
# 2 -0.003931 0.015020 -0.005444 0.000000 -0.003364 0.000000
# 3 -0.001351 -0.005444 0.028988 0.000002 0.008347 0.000000
# 4 0.000000 0.000000 0.000002 0.031956 -0.000001 0.004925
# 5 0.006342 -0.003364 0.008347 -0.000001 0.041034 0.000000
# 6 0.000000 0.000000 0.000000 0.004925 0.000000 0.042325
#
#
# Mechanical properties :
#
#
# Convention : Reuss Voigt Hill
#
# Bulk Modulus (GPa) = 30.91842 45.21475 38.06659
# Shear Modulus (GPa) = 24.83328 29.29404 27.06366
#
# Velocity S-wave (km/s) = 3.52869 3.83254 3.68375
# Velocity P-wave (km/s) = 5.66613 6.50043 6.09757
#
# Compressibility (1/GPa) = 0.03234318
#
# Stress axis : x y z
#
# Youngs Moduli (GPa) = 102.18144 66.57734 34.49652
#
# Poissons Ratio (x) = 0.26171 0.04660
# Poissons Ratio (y) = 0.40166 0.18780
# Poissons Ratio (z) = 0.13804 0.36246
#
# Static dielectric constant tensor:
#      x y z
#    x 1.696840 0.000000 0.006700 
#    y 0.000000 1.763190 0.000000 
#    z 0.006700 0.000000 1.793490 
# 
# From -- ./inp_files/206239.got.cif
#   From: 2010.05.17/outbox.cif.g08.bks.cpg/sg15_104_cif.got.tgz:206239.got - 2010.06.03 18:47:42.
