data_PCOD9267528
_publ_section_title
;
Structure prediction by ZEFSAII (Michael W. Deem and Ramdas Pophale) SiO2 
 PCOD9267528
Probable space group: C 2/C
;
_chemical_formula_sum "Si O2"
_cell_formula_units_Z 56
_cell_length_a 24.035584
_cell_length_b 9.793061
_cell_length_c 15.380384
_cell_angle_alpha 90.000000
_cell_angle_beta 49.391246
_cell_angle_gamma 90.000000
_cell_volume 2748.403065
_symmetry_space_group_name_H-M "C 2/C"
_symmetry_group_IT_number 15
_symmetry_cell_setting 'monoclinic'
loop_
_space_group_symop_operation_xyz
x,y,z
-x,y,1/2-z
-x,-y,-z
x,-y,1/2+z
1/2+x,1/2+y,z
1/2-x,1/2+y,1/2-z
1/2-x,1/2-y,-z
1/2+x,1/2-y,1/2+z
loop_
_atom_site_type_symbol
_atom_site_label
_atom_site_fract_x
_atom_site_fract_y
_atom_site_fract_z
Si Si1 0.318898 0.992822 0.914359
Si Si2 0.212892 0.165269 0.232999
Si Si3 0.199799 0.449081 0.267134
Si Si4 0.152856 0.031245 0.133525
Si Si5 0.632521 0.234590 0.516799
Si Si6 0.057147 0.376325 0.940319
Si Si7 0.428819 0.248739 0.262953
O O1 0.364531 0.854206 0.859588
O O2 0.305982 0.049822 0.830737
O O3 0.364687 0.104127 0.921938
O O4 0.237630 0.980611 0.037373
O O5 0.190229 0.296302 0.311828
O O6 0.156470 0.126306 0.215282
O O7 0.229556 0.029503 0.270460
O O8 0.288379 0.221890 0.112079
O O9 0.133545 0.542750 0.364128
O O10 0.132330 0.127641 0.073334
O O11 0.101095 0.902143 0.198329
O O12 0.566044 0.218618 0.516261
O O13 0.053023 0.291929 0.855220
O O14 0.000000 0.500000 0.000000
O O15 0.500000 0.229374 0.250000
#
# Coordination Sequence:
#
# PCOD9267528 Si02
#       7
#     8   8   8   8   8   8   8
#     4  10  19  39  65  91 118 165 207 256 313 377
#     4  10  20  35  58  93 126 152 199 258 315 368
#     4  10  20  35  62  92 120 157 203 255 311 366
#     4  11  21  38  64  91 127 158 204 265 320 365
#     4  10  19  39  65  89 123 155 207 254 314 376
#     4  10  23  43  64  86 121 172 216 249 301 385
#     4  11  25  42  59  90 129 161 212 259 311 377
#
# _framework density 20.375468999999999
#
# number of rings (size 3 to 8) (size 9 to 14) (size 15 to 20)
#    0.000    1.714    2.857    2.143    6.000    0.000 
#    7.714    1.429    0.000    0.000    0.000    0.000 
#    0.000    0.000    0.000    0.000    0.000    0.000 
#
# Total GULP energy -156250.432959 kJ/mol
# GULP energy per Si atom -5580.372606 kJ/mol
# Density = 2.032909 g / cm^3
# Si number density = 20.375469 Si / 1000 Ang^3
#
#
#
# Elastic Constant Matrix: (Units=GPa)
#
#
# Indices 1 2 3 4 5 6 
#
# 1 122.9526 71.3649 32.2286 0.0000 28.5521 0.0000
# 2 71.3649 139.5711 35.3223 -0.0002 27.2198 0.0002
# 3 32.2286 35.3223 34.6903 -0.0001 20.9863 0.0001
# 4 0.0000 -0.0002 -0.0001 32.7713 0.0001 1.4868
# 5 28.5521 27.2198 20.9863 0.0001 18.0993 -0.0001
# 6 0.0000 0.0002 0.0001 1.4868 -0.0001 31.4329
#
#
#
# Elastic Compliance Matrix: (Units=1/GPa)
#
#
# Indices 1 2 3 4 5 6 
#
# 1 0.014421 -0.004262 0.002770 0.000000 -0.019553 0.000000
# 2 -0.004262 0.011540 -0.004552 0.000000 -0.005355 0.000000
# 3 0.002770 -0.004552 0.098446 0.000001 -0.111674 0.000000
# 4 0.000000 0.000000 0.000001 0.030580 -0.000001 -0.001446
# 5 -0.019553 -0.005355 -0.111674 -0.000001 0.223636 0.000001
# 6 0.000000 0.000000 0.000000 -0.001446 0.000001 0.031882
#
#
# Mechanical properties :
#
#
# Convention : Reuss Voigt Hill
#
# Bulk Modulus (GPa) = 8.90305 63.89395 36.39850
# Shear Modulus (GPa) = 10.86878 27.01391 18.94135
#
# Velocity S-wave (km/s) = 2.31210 3.64511 3.05227
# Velocity P-wave (km/s) = 3.39216 7.01014 5.50676
#
# Compressibility (1/GPa) = 0.11232109
#
# Stress axis : x y z
#
# Youngs Moduli (GPa) = 69.34252 86.65469 10.15781
#
# Poissons Ratio (x) = 0.36928 -0.02814
# Poissons Ratio (y) = 0.29551 0.04623
# Poissons Ratio (z) = -0.19207 0.39442
#
# Static dielectric constant tensor:
#      x y z
#    x 1.773220 0.000000 -0.005840 
#    y 0.000000 1.801390 0.000000 
#    z -0.005840 0.000000 1.773460 
# 
# From -- ./inp_files/172283.got.cif
#   From: 2010.05.17/outbox.cif.g08.bks.cpg/sg15_87_cif.got.tgz:172283.got - 2010.06.03 18:47:42.
