data_PCOD9267084
_publ_section_title
;
Structure prediction by ZEFSAII (Michael W. Deem and Ramdas Pophale) SiO2 
 PCOD9267084
Probable space group: C 2/C
;
_chemical_formula_sum "Si O2"
_cell_formula_units_Z 40
_cell_length_a 16.386138
_cell_length_b 7.008808
_cell_length_c 25.227898
_cell_angle_alpha 90.000000
_cell_angle_beta 32.497003
_cell_angle_gamma 90.000000
_cell_volume 1556.620340
_symmetry_space_group_name_H-M "C 2/C"
_symmetry_group_IT_number 15
_symmetry_cell_setting 'monoclinic'
loop_
_space_group_symop_operation_xyz
x,y,z
-x,y,1/2-z
-x,-y,-z
x,-y,1/2+z
1/2+x,1/2+y,z
1/2-x,1/2+y,1/2-z
1/2-x,1/2-y,-z
1/2+x,1/2-y,1/2+z
loop_
_atom_site_type_symbol
_atom_site_label
_atom_site_fract_x
_atom_site_fract_y
_atom_site_fract_z
Si Si1 0.589524 0.158553 0.856973
Si Si2 0.642312 0.890709 0.208234
Si Si3 0.393701 0.534736 0.496030
Si Si4 0.743821 0.299268 0.135681
Si Si5 0.765946 0.544808 0.520093
O O1 0.646662 0.172775 0.766121
O O2 0.698320 0.089445 0.844637
O O3 0.435001 0.035218 0.937246
O O4 0.555119 0.371932 0.898419
O O5 0.500000 0.831356 0.250000
O O6 0.794956 0.847122 0.092315
O O7 0.636502 0.125182 0.212144
O O8 0.374483 0.322261 0.530427
O O9 0.316456 0.569314 0.481407
O O10 0.684313 0.433297 0.121393
O O11 0.750000 0.750000 0.500000
#
# Coordination Sequence:
#
# PCOD9267084 Si02
#       5
#     8   8   8   8   8
#     4  12  20  40  67  90 127 169 204 272 322 374
#     4  10  21  40  61  85 133 163 208 261 316 381
#     4   9  21  39  66  90 124 164 217 257 317 388
#     4   9  22  40  59  93 122 161 213 271 317 372
#     4  10  19  38  65  87 118 165 208 251 319 382
#
# _framework density 25.696694999999998
#
# number of rings (size 3 to 8) (size 9 to 14) (size 15 to 20)
#    1.200    0.800    2.000    1.800    0.000    0.000 
#    7.200    2.000    4.400    0.000    0.000    0.000 
#    0.000    0.000    0.000    0.000    0.000    0.000 
#
# Total GULP energy -111526.432652 kJ/mol
# GULP energy per Si atom -5576.321633 kJ/mol
# Density = 2.563821 g / cm^3
# Si number density = 25.696695 Si / 1000 Ang^3
#
#
#
# Elastic Constant Matrix: (Units=GPa)
#
#
# Indices 1 2 3 4 5 6 
#
# 1 201.1988 15.5694 63.0748 0.0040 69.1303 -0.0132
# 2 15.5694 86.5848 23.5857 0.0104 6.1619 0.0000
# 3 63.0748 23.5857 111.9775 0.0031 49.5491 -0.0005
# 4 0.0040 0.0104 0.0031 38.6297 0.0012 -3.3907
# 5 69.1303 6.1619 49.5491 0.0012 55.9940 -0.0006
# 6 -0.0132 0.0000 -0.0005 -3.3907 -0.0006 8.0601
#
#
#
# Elastic Compliance Matrix: (Units=1/GPa)
#
#
# Indices 1 2 3 4 5 6 
#
# 1 0.008687 -0.000799 -0.000030 0.000001 -0.010611 0.000014
# 2 -0.000799 0.012407 -0.003280 -0.000003 0.002523 -0.000003
# 3 -0.000030 -0.003280 0.015551 0.000000 -0.013363 0.000000
# 4 0.000001 -0.000003 0.000000 0.026879 -0.000001 0.011308
# 5 -0.010611 0.002523 -0.013363 -0.000001 0.042507 -0.000015
# 6 0.000014 -0.000003 0.000000 0.011308 -0.000015 0.128824
#
#
# Mechanical properties :
#
#
# Convention : Reuss Voigt Hill
#
# Bulk Modulus (GPa) = 35.17605 67.13565 51.15585
# Shear Modulus (GPa) = 19.79813 40.37219 30.08516
#
# Velocity S-wave (km/s) = 2.77872 3.96802 3.42538
# Velocity P-wave (km/s) = 4.90038 6.86851 5.96616
#
# Compressibility (1/GPa) = 0.02842843
#
# Stress axis : x y z
#
# Youngs Moduli (GPa) = 115.11167 80.60056 64.30365
#
# Poissons Ratio (x) = 0.06439 0.00192
# Poissons Ratio (y) = 0.09196 0.21090
# Poissons Ratio (z) = 0.00343 0.26435
#
# Static dielectric constant tensor:
#      x y z
#    x 2.164350 0.000000 0.006850 
#    y 0.000000 2.197500 0.000000 
#    z 0.006850 0.000000 1.983560 
# 
# From -- ./inp_files/276167.got.cif
#   From: 2010.05.17/outbox.cif.g08.bks.cpg/sg15_139_cif.got.tgz:276167.got - 2010.06.03 18:47:42.
