data_PCOD9267519
_publ_section_title
;
Structure prediction by ZEFSAII (Michael W. Deem and Ramdas Pophale) SiO2 
 PCOD9267519
Probable space group: C 2/C
;
_chemical_formula_sum "Si O2"
_cell_formula_units_Z 48
_cell_length_a 11.521785
_cell_length_b 8.114768
_cell_length_c 25.096196
_cell_angle_alpha 90.000000
_cell_angle_beta 120.383189
_cell_angle_gamma 90.000000
_cell_volume 2024.158393
_symmetry_space_group_name_H-M "C 2/C"
_symmetry_group_IT_number 15
_symmetry_cell_setting 'monoclinic'
loop_
_space_group_symop_operation_xyz
x,y,z
-x,y,1/2-z
-x,-y,-z
x,-y,1/2+z
1/2+x,1/2+y,z
1/2-x,1/2+y,1/2-z
1/2-x,1/2-y,-z
1/2+x,1/2-y,1/2+z
loop_
_atom_site_type_symbol
_atom_site_label
_atom_site_fract_x
_atom_site_fract_y
_atom_site_fract_z
Si Si1 0.513409 0.338800 0.189194
Si Si2 0.726861 0.220726 0.624606
Si Si3 0.819786 0.249086 0.094627
Si Si4 0.264691 0.919629 0.185068
Si Si5 0.043217 0.157339 0.475684
Si Si6 0.571398 0.963797 0.177081
O O1 0.500000 0.359376 0.250000
O O2 0.362118 0.354156 0.132244
O O3 0.627895 0.442622 0.187319
O O4 0.563420 0.156119 0.186050
O O5 0.767378 0.404152 0.654833
O O6 0.593945 0.236976 0.558064
O O7 0.681475 0.105066 0.662290
O O8 0.776440 0.265772 0.146950
O O9 0.904959 0.133483 0.073363
O O10 0.928979 0.399208 0.121825
O O11 0.674036 0.266113 0.033780
O O12 0.381812 0.894919 0.255111
O O13 0.000000 0.000000 0.500000
#
# Coordination Sequence:
#
# PCOD9267519 Si02
#       6
#     8   8   8   8   8   8
#     4  12  22  40  60  89 133 162 196 253 308 374
#     4  11  23  41  64  92 123 166 206 255 309 364
#     4  10  21  35  64  91 117 165 208 254 308 368
#     4  12  21  38  63  95 127 157 208 257 312 371
#     4  10  19  39  65  87 119 165 214 251 303 365
#     4  11  20  39  65  88 125 167 199 252 319 368
#
# _framework density 23.713557000000002
#
# number of rings (size 3 to 8) (size 9 to 14) (size 15 to 20)
#    0.000    1.000    6.667    0.500    0.000    0.000 
#    6.000    1.667    0.000    6.000    0.000    0.000 
#    0.000    0.000    0.000    0.000    0.000    0.000 
#
# Total GULP energy -133742.321960 kJ/mol
# GULP energy per Si atom -5572.596748 kJ/mol
# Density = 2.365958 g / cm^3
# Si number density = 23.713557 Si / 1000 Ang^3
#
#
#
# Elastic Constant Matrix: (Units=GPa)
#
#
# Indices 1 2 3 4 5 6 
#
# 1 -15.7427 24.3396 -245.3788 0.0000 -15.5828 0.0000
# 2 24.3396 26.6537 10.3346 0.0000 -15.7739 0.0000
# 3 -245.3788 10.3346 -271.8366 0.0000 -3.1202 0.0000
# 4 0.0000 0.0000 0.0000 4.2598 0.0000 3.0157
# 5 -15.5828 -15.7739 -3.1202 0.0000 41.5714 0.0000
# 6 0.0000 0.0000 0.0000 3.0157 0.0000 27.8279
#
#
#
# Elastic Compliance Matrix: (Units=1/GPa)
#
#
# Indices 1 2 3 4 5 6 
#
# 1 0.005078 -0.002453 -0.004684 0.000000 0.000621 0.000000
# 2 -0.002453 0.048858 0.003866 0.000000 0.017909 0.000000
# 3 -0.004684 0.003866 0.000699 0.000000 -0.000236 0.000000
# 4 0.000000 0.000000 0.000000 0.254262 0.000000 -0.027554
# 5 0.000621 0.017909 -0.000236 0.000000 0.031066 0.000000
# 6 0.000000 0.000000 0.000000 -0.027554 0.000000 0.038921
#
#
# Mechanical properties :
#
#
# Convention : Reuss Voigt Hill
#
# Bulk Modulus (GPa) = 20.79279 -75.81498 -27.51110
# Shear Modulus (GPa) = 12.45465 11.38375 11.91920
#
# Velocity S-wave (km/s) = 2.29424 2.19339 2.24438
# Velocity P-wave (km/s) = 3.97560 5.06221 2.21592
#
# Compressibility (1/GPa) = 0.04809361
#
# Stress axis : x y z
#
# Youngs Moduli (GPa) = 196.93999 20.46732 1430.58317
#
# Poissons Ratio (x) = 0.05021 6.70067
# Poissons Ratio (y) = 0.48315 -5.53121
# Poissons Ratio (z) = 0.92244 -0.07913
#
# Static dielectric constant tensor:
#      x y z
#    x 1.959910 0.000000 -0.016250 
#    y 0.000000 2.001040 0.000000 
#    z -0.016250 0.000000 1.943530 
# 
# From -- ./inp_files/291291.got.cif
#   From: 2010.05.17/outbox.cif.g08.bks.cpg/sg15_146_cif.got.tgz:291291.got - 2010.06.03 18:47:42.
