data_PCOD9267989
_publ_section_title
;
Structure prediction by ZEFSAII (Michael W. Deem and Ramdas Pophale) SiO2 
 PCOD9267989
Probable space group: C 2/C
;
_chemical_formula_sum "Si O2"
_cell_formula_units_Z 60
_cell_length_a 24.765062
_cell_length_b 22.347306
_cell_length_c 9.586901
_cell_angle_alpha 90.000000
_cell_angle_beta 27.667514
_cell_angle_gamma 90.000000
_cell_volume 2463.649385
_symmetry_space_group_name_H-M "C 2/C"
_symmetry_group_IT_number 15
_symmetry_cell_setting 'monoclinic'
loop_
_space_group_symop_operation_xyz
x,y,z
-x,y,1/2-z
-x,-y,-z
x,-y,1/2+z
1/2+x,1/2+y,z
1/2-x,1/2+y,1/2-z
1/2-x,1/2-y,-z
1/2+x,1/2-y,1/2+z
loop_
_atom_site_type_symbol
_atom_site_label
_atom_site_fract_x
_atom_site_fract_y
_atom_site_fract_z
Si Si1 0.269624 0.897366 0.967314
Si Si2 0.133157 0.127781 0.052097
Si Si3 0.047572 0.772472 0.465843
Si Si4 0.686100 0.492557 0.962703
Si Si5 0.350983 0.695967 0.246757
Si Si6 0.729422 0.791858 0.735376
Si Si7 0.000000 0.904383 0.250000
Si Si8 0.572720 0.036744 0.221447
O O1 0.218776 0.961081 0.033881
O O2 0.285015 0.858792 0.793177
O O3 0.388150 0.906044 0.779381
O O4 0.189189 0.869528 0.271153
O O5 0.985498 0.164282 0.148904
O O6 0.127250 0.057946 0.104440
O O7 0.214938 0.163202 0.974375
O O8 0.111927 0.741901 0.453565
O O9 0.939959 0.754423 0.607750
O O10 0.157536 0.771507 0.110415
O O11 0.808588 0.504028 0.602905
O O12 0.595823 0.447120 0.099499
O O13 0.269234 0.711437 0.304087
O O14 0.431898 0.641782 0.004073
O O15 0.500000 0.049176 0.250000
O O16 0.500000 0.000000 0.500000
#
# Coordination Sequence:
#
# PCOD9267989 Si02
#       8
#     8   8   8   8   8   8   4   8
#     4  11  23  41  72 114 145 201 260 327 394 481
#     4   9  24  39  64 107 162 187 252 325 400 472
#     4   9  21  40  68  99 141 198 257 329 388 472
#     4  11  24  40  72 114 160 211 245 315 418 480
#     4  10  19  41  65 104 152 199 245 330 387 486
#     4  11  20  41  74  97 137 206 266 313 403 467
#     4  12  22  38  68 116 158 194 250 312 404 490
#     4  11  24  46  70 102 157 211 262 317 381 489
#
# _framework density 24.354115
#
# number of rings (size 3 to 8) (size 9 to 14) (size 15 to 20)
#    0.800    0.800    4.000    0.000    3.733    3.200 
#    0.000    2.667    2.933    9.600    0.000    0.000 
#    0.000    0.000    0.000    0.000    0.000    0.000 
#
# Total GULP energy -167220.901175 kJ/mol
# GULP energy per Si atom -5574.030039 kJ/mol
# Density = 2.429868 g / cm^3
# Si number density = 24.354115 Si / 1000 Ang^3
#
#
#
# Elastic Constant Matrix: (Units=GPa)
#
#
# Indices 1 2 3 4 5 6 
#
# 1 252.1581 59.0534 58.5926 0.0000 -22.2347 0.0000
# 2 59.0534 106.4860 42.3488 0.0000 -17.5771 0.0000
# 3 58.5926 42.3488 113.0759 -0.0002 -18.8209 0.0001
# 4 0.0000 0.0000 -0.0002 35.7006 0.0001 -17.3762
# 5 -22.2347 -17.5771 -18.8209 0.0001 36.2917 -0.0001
# 6 0.0000 0.0000 0.0001 -17.3762 -0.0001 47.2522
#
#
#
# Elastic Compliance Matrix: (Units=1/GPa)
#
#
# Indices 1 2 3 4 5 6 
#
# 1 0.004890 -0.001857 -0.001630 0.000000 0.001251 0.000000
# 2 -0.001857 0.012162 -0.003066 0.000000 0.003163 0.000000
# 3 -0.001630 -0.003066 0.011408 0.000000 0.003432 0.000000
# 4 0.000000 0.000000 0.000000 0.034117 0.000000 0.012546
# 5 0.001251 0.003163 0.003432 0.000000 0.031633 0.000000
# 6 0.000000 0.000000 0.000000 0.012546 0.000000 0.025777
#
#
# Mechanical properties :
#
#
# Convention : Reuss Voigt Hill
#
# Bulk Modulus (GPa) = 65.13262 87.96773 76.55018
# Shear Modulus (GPa) = 36.17666 44.63059 40.40362
#
# Velocity S-wave (km/s) = 3.85833 4.28550 4.07751
# Velocity P-wave (km/s) = 6.83015 7.79012 7.32588
#
# Compressibility (1/GPa) = 0.01535329
#
# Stress axis : x y z
#
# Youngs Moduli (GPa) = 204.51077 82.22208 87.65817
#
# Poissons Ratio (x) = 0.15268 0.14289
# Poissons Ratio (y) = 0.37976 0.26879
# Poissons Ratio (z) = 0.33336 0.25212
#
# Static dielectric constant tensor:
#      x y z
#    x 2.258510 0.000000 -0.030970 
#    y 0.000000 2.059760 0.000000 
#    z -0.030970 0.000000 1.977070 
# 
# From -- ./inp_files/59129.got.cif
#   From: 2010.05.17/outbox.cif.g08.bks.cpg/sg15_30_cif.got.tgz:59129.got - 2010.06.03 18:47:42.
