data_PCOD9267150
_publ_section_title
;
Structure prediction by ZEFSAII (Michael W. Deem and Ramdas Pophale) SiO2 
 PCOD9267150
Probable space group: C 2/C
;
_chemical_formula_sum "Si O2"
_cell_formula_units_Z 48
_cell_length_a 11.941803
_cell_length_b 13.723445
_cell_length_c 22.632522
_cell_angle_alpha 90.000000
_cell_angle_beta 40.008831
_cell_angle_gamma 90.000000
_cell_volume 2384.587469
_symmetry_space_group_name_H-M "C 2/C"
_symmetry_group_IT_number 15
_symmetry_cell_setting 'monoclinic'
loop_
_space_group_symop_operation_xyz
x,y,z
-x,y,1/2-z
-x,-y,-z
x,-y,1/2+z
1/2+x,1/2+y,z
1/2-x,1/2+y,1/2-z
1/2-x,1/2-y,-z
1/2+x,1/2-y,1/2+z
loop_
_atom_site_type_symbol
_atom_site_label
_atom_site_fract_x
_atom_site_fract_y
_atom_site_fract_z
Si Si1 0.207884 0.817878 0.663975
Si Si2 0.362150 0.481601 0.355635
Si Si3 0.066859 0.845846 0.459599
Si Si4 0.267025 0.270243 0.395492
Si Si5 0.846590 0.694164 0.239834
Si Si6 0.601392 0.471139 0.869159
O O1 0.246593 0.927955 0.626518
O O2 0.290261 0.736946 0.588267
O O3 0.280439 0.794777 0.699907
O O4 0.000000 0.811656 0.750000
O O5 0.500000 0.449108 0.250000
O O6 0.263084 0.383691 0.413538
O O7 0.483224 0.520432 0.359204
O O8 0.891226 0.788942 0.512524
O O9 0.010524 0.908347 0.538956
O O10 0.128087 0.922666 0.385899
O O11 0.258197 0.260016 0.327145
O O12 0.449851 0.219570 0.338563
O O13 0.780910 0.585925 0.284447
#
# Coordination Sequence:
#
# PCOD9267150 Si02
#       6
#     8   8   8   8   8   8
#     4  11  23  39  62  93 125 168 204 251 317 372
#     4  11  20  38  65  93 124 167 206 256 306 366
#     4  10  24  42  62  94 127 165 203 264 311 361
#     4  10  22  40  67  94 118 168 208 260 307 361
#     4  10  19  38  66  90 121 163 215 248 302 377
#     4  10  21  42  63  87 133 161 204 260 307 367
#
# _framework density 20.129266999999999
#
# number of rings (size 3 to 8) (size 9 to 14) (size 15 to 20)
#    0.000    1.667    5.000    1.000    0.000    4.000 
#    9.000    0.000    0.000    0.000    0.000    0.000 
#    0.000    0.000    0.000    0.000    0.000    0.000 
#
# Total GULP energy -133937.300557 kJ/mol
# GULP energy per Si atom -5580.720857 kJ/mol
# Density = 2.008345 g / cm^3
# Si number density = 20.129267 Si / 1000 Ang^3
#
#
#
# Elastic Constant Matrix: (Units=GPa)
#
#
# Indices 1 2 3 4 5 6 
#
# 1 79.7703 42.7030 18.1290 0.0000 12.5427 0.0000
# 2 42.7030 155.4370 36.0178 0.0000 -15.3285 0.0000
# 3 18.1290 36.0178 40.8391 -0.0001 -6.2911 0.0000
# 4 0.0000 0.0000 -0.0001 23.1087 0.0000 -6.1470
# 5 12.5427 -15.3285 -6.2911 0.0000 29.1376 0.0000
# 6 0.0000 0.0000 0.0000 -6.1470 0.0000 22.8345
#
#
#
# Elastic Compliance Matrix: (Units=1/GPa)
#
#
# Indices 1 2 3 4 5 6 
#
# 1 0.018235 -0.004857 -0.005600 0.000000 -0.011614 0.000000
# 2 -0.004857 0.009608 -0.005396 0.000000 0.005980 0.000000
# 3 -0.005600 -0.005396 0.032755 0.000000 0.006644 0.000000
# 4 0.000000 0.000000 0.000000 0.046611 0.000000 0.012548
# 5 -0.011614 0.005980 0.006644 0.000000 0.043900 0.000000
# 6 0.000000 0.000000 0.000000 0.012548 0.000000 0.047171
#
#
# Mechanical properties :
#
#
# Convention : Reuss Voigt Hill
#
# Bulk Modulus (GPa) = 34.61304 52.19401 43.40352
# Shear Modulus (GPa) = 20.86655 26.96261 23.91458
#
# Velocity S-wave (km/s) = 3.22316 3.66385 3.45055
# Velocity P-wave (km/s) = 5.57534 6.62451 6.12244
#
# Compressibility (1/GPa) = 0.02889085
#
# Stress axis : x y z
#
# Youngs Moduli (GPa) = 54.83938 104.07852 30.52980
#
# Poissons Ratio (x) = 0.50555 0.17096
# Poissons Ratio (y) = 0.26638 0.16475
# Poissons Ratio (z) = 0.30710 0.56164
#
# Static dielectric constant tensor:
#      x y z
#    x 1.692240 0.000000 0.031650 
#    y 0.000000 1.729210 0.000000 
#    z 0.031650 0.000000 1.734040 
# 
# From -- ./inp_files/196053.got.cif
#   From: 2010.05.17/outbox.cif.g08.bks.cpg/sg15_99_cif.got.tgz:196053.got - 2010.06.03 18:47:42.
