data_PCOD9267307
_publ_section_title
;
Structure prediction by ZEFSAII (Michael W. Deem and Ramdas Pophale) SiO2 
 PCOD9267307
Probable space group: C 2/C
;
_chemical_formula_sum "Si O2"
_cell_formula_units_Z 56
_cell_length_a 21.185913
_cell_length_b 9.774704
_cell_length_c 19.248968
_cell_angle_alpha 90.000000
_cell_angle_beta 124.215863
_cell_angle_gamma 90.000000
_cell_volume 3296.281792
_symmetry_space_group_name_H-M "C 2/C"
_symmetry_group_IT_number 15
_symmetry_cell_setting 'monoclinic'
loop_
_space_group_symop_operation_xyz
x,y,z
-x,y,1/2-z
-x,-y,-z
x,-y,1/2+z
1/2+x,1/2+y,z
1/2-x,1/2+y,1/2-z
1/2-x,1/2-y,-z
1/2+x,1/2-y,1/2+z
loop_
_atom_site_type_symbol
_atom_site_label
_atom_site_fract_x
_atom_site_fract_y
_atom_site_fract_z
Si Si1 0.320074 0.503044 0.399947
Si Si2 0.610799 0.596117 0.199351
Si Si3 0.589526 0.399740 0.304575
Si Si4 0.831842 0.384638 0.032877
Si Si5 0.428821 0.615582 0.084034
Si Si6 0.303033 0.159615 0.081862
Si Si7 0.731466 0.746715 0.366253
O O1 0.352821 0.578594 0.353407
O O2 0.388129 0.464896 0.495727
O O3 0.253958 0.590794 0.397121
O O4 0.283391 0.355781 0.357980
O O5 0.614929 0.456648 0.246073
O O6 0.520238 0.623676 0.138559
O O7 0.660179 0.701829 0.276043
O O8 0.500000 0.368183 0.250000
O O9 0.597011 0.526706 0.364314
O O10 0.636411 0.265723 0.351083
O O11 0.897480 0.270930 0.064415
O O12 0.844542 0.540634 0.062689
O O13 0.790476 0.326346 0.076479
O O14 0.780627 0.376106 0.931156
O O15 0.250000 0.250000 0.000000
#
# Coordination Sequence:
#
# PCOD9267307 Si02
#       7
#     8   8   8   8   8   8   8
#     4  10  22  35  56  83 115 146 189 230 288 342
#     4  11  21  34  59  82 114 149 187 237 284 338
#     4  10  21  36  55  83 110 143 187 235 283 332
#     4   9  18  35  58  79 106 141 191 233 269 329
#     4  10  19  39  59  81 108 150 194 231 277 341
#     4  11  20  36  60  81 107 148 185 233 281 337
#     4   9  18  34  53  81 106 141 187 233 271 328
#
# _framework density 16.988838000000001
#
# number of rings (size 3 to 8) (size 9 to 14) (size 15 to 20)
#    0.000    2.000    2.857    2.143    2.000    0.000 
#    5.143    0.000    0.000    0.857    0.000    0.000 
#    0.000    0.000    0.000    0.000    0.000    0.000 
#
# Total GULP energy -155887.152999 kJ/mol
# GULP energy per Si atom -5567.398321 kJ/mol
# Density = 1.695017 g / cm^3
# Si number density = 16.988838 Si / 1000 Ang^3
#
#
#
# Elastic Constant Matrix: (Units=GPa)
#
#
# Indices 1 2 3 4 5 6 
#
# 1 65.7858 34.7658 40.4325 0.0000 -2.3133 0.0000
# 2 34.7658 91.4409 43.4418 0.0000 10.4345 0.0000
# 3 40.4325 43.4418 90.1920 0.0000 14.9378 0.0000
# 4 0.0000 0.0000 0.0000 28.8936 0.0000 6.8394
# 5 -2.3133 10.4345 14.9378 0.0000 28.5844 0.0000
# 6 0.0000 0.0000 0.0000 6.8394 0.0000 15.1774
#
#
#
# Elastic Compliance Matrix: (Units=1/GPa)
#
#
# Indices 1 2 3 4 5 6 
#
# 1 0.024563 -0.005749 -0.009765 0.000000 0.009189 0.000000
# 2 -0.005749 0.015608 -0.004291 0.000000 -0.003920 0.000000
# 3 -0.009765 -0.004291 0.019052 0.000000 -0.009180 0.000000
# 4 0.000000 0.000000 0.000000 0.038742 0.000000 -0.017459
# 5 0.009189 -0.003920 -0.009180 0.000000 0.041956 0.000000
# 6 0.000000 0.000000 0.000000 -0.017459 0.000000 0.073755
#
#
# Mechanical properties :
#
#
# Convention : Reuss Voigt Hill
#
# Bulk Modulus (GPa) = 50.98335 53.85544 52.41940
# Shear Modulus (GPa) = 19.24378 23.11632 21.18005
#
# Velocity S-wave (km/s) = 3.36926 3.69274 3.53470
# Velocity P-wave (km/s) = 6.72391 7.06761 6.89790
#
# Compressibility (1/GPa) = 0.01961425
#
# Stress axis : x y z
#
# Youngs Moduli (GPa) = 40.71092 64.07106 52.48707
#
# Poissons Ratio (x) = 0.36832 0.51252
# Poissons Ratio (y) = 0.23403 0.22524
# Poissons Ratio (z) = 0.39753 0.27495
#
# Static dielectric constant tensor:
#      x y z
#    x 1.561070 0.000000 -0.048660 
#    y 0.000000 1.615120 0.000000 
#    z -0.048660 0.000000 1.438040 
# 
# From -- ./inp_files/218645.got.cif
#   From: 2010.05.17/outbox.cif.g08.bks.cpg/sg15_110_cif.got.tgz:218645.got - 2010.06.03 18:47:42.
