data_PCOD9267819
_publ_section_title
;
Structure prediction by ZEFSAII (Michael W. Deem and Ramdas Pophale) SiO2 
 PCOD9267819
Probable space group: C 2/C
;
_chemical_formula_sum "Si O2"
_cell_formula_units_Z 56
_cell_length_a 8.041802
_cell_length_b 17.464103
_cell_length_c 19.041806
_cell_angle_alpha 90.000000
_cell_angle_beta 115.583380
_cell_angle_gamma 90.000000
_cell_volume 2412.092882
_symmetry_space_group_name_H-M "C 2/C"
_symmetry_group_IT_number 15
_symmetry_cell_setting 'monoclinic'
loop_
_space_group_symop_operation_xyz
x,y,z
-x,y,1/2-z
-x,-y,-z
x,-y,1/2+z
1/2+x,1/2+y,z
1/2-x,1/2+y,1/2-z
1/2-x,1/2-y,-z
1/2+x,1/2-y,1/2+z
loop_
_atom_site_type_symbol
_atom_site_label
_atom_site_fract_x
_atom_site_fract_y
_atom_site_fract_z
Si Si1 0.681000 0.619237 0.705786
Si Si2 0.904041 0.732555 0.166572
Si Si3 0.036356 0.275563 0.177292
Si Si4 0.028625 0.044199 0.180305
Si Si5 0.703628 0.658603 0.554390
Si Si6 0.185449 0.882268 0.565563
Si Si7 0.793721 0.518654 0.480563
O O1 0.525780 0.689293 0.679635
O O2 0.858876 0.645402 0.781869
O O3 0.626424 0.535261 0.717327
O O4 0.718795 0.613701 0.630557
O O5 0.696656 0.745958 0.155919
O O6 0.867155 0.671773 0.098747
O O7 0.000000 0.691959 0.250000
O O8 0.000000 0.244714 0.250000
O O9 0.845635 0.273649 0.099119
O O10 0.000000 0.085046 0.250000
O O11 0.835435 0.020142 0.110674
O O12 0.132568 0.087249 0.134674
O O13 0.488641 0.664920 0.497538
O O14 0.784918 0.603386 0.510888
O O15 0.214449 0.956242 0.521320
O O16 0.000000 0.500000 0.500000
#
# Coordination Sequence:
#
# PCOD9267819 Si02
#       7
#     8   8   8   8   8   8   8
#     4  10  19  40  66  90 126 167 221 266 309 378
#     4  10  23  40  62  91 133 171 211 264 325 390
#     4   9  20  36  62  95 122 167 215 265 307 375
#     4  11  22  40  68  94 124 172 217 267 318 387
#     4  10  20  40  64  91 127 165 212 270 314 379
#     4  11  23  44  62  93 139 170 202 271 342 382
#     4  11  24  41  63  94 135 165 210 275 332 379
#
# _framework density 23.216353999999999
#
# number of rings (size 3 to 8) (size 9 to 14) (size 15 to 20)
#    0.000    1.714    2.857    2.143    4.000    2.857 
#    0.000    7.143    0.000    0.000    0.000    0.000 
#    0.000    0.000    0.000    0.000    0.000    0.000 
#
# Total GULP energy -155991.615851 kJ/mol
# GULP energy per Si atom -5571.129138 kJ/mol
# Density = 2.316351 g / cm^3
# Si number density = 23.216354 Si / 1000 Ang^3
#
#
#
# Elastic Constant Matrix: (Units=GPa)
#
#
# Indices 1 2 3 4 5 6 
#
# 1 83.3128 19.1207 24.3234 0.0000 10.6781 0.0000
# 2 19.1207 77.4477 38.1152 0.0000 26.4013 0.0000
# 3 24.3234 38.1152 121.9667 0.0000 10.1972 0.0000
# 4 0.0000 0.0000 0.0000 -8.7318 0.0000 -2.6017
# 5 10.6781 26.4013 10.1972 0.0000 41.3575 0.0000
# 6 0.0000 0.0000 0.0000 -2.6017 0.0000 2.1176
#
#
#
# Elastic Compliance Matrix: (Units=1/GPa)
#
#
# Indices 1 2 3 4 5 6 
#
# 1 0.013194 -0.001658 -0.001957 0.000000 -0.001865 0.000000
# 2 -0.001658 0.019354 -0.004820 0.000000 -0.010738 0.000000
# 3 -0.001957 -0.004820 0.010002 0.000000 0.001116 0.000000
# 4 0.000000 0.000000 0.000000 -0.083835 0.000000 -0.102998
# 5 -0.001865 -0.010738 0.001116 0.000000 0.031241 0.000000
# 6 0.000000 0.000000 0.000000 -0.102998 0.000000 0.345684
#
#
# Mechanical properties :
#
#
# Convention : Reuss Voigt Hill
#
# Bulk Modulus (GPa) = 38.94093 49.53842 44.23967
# Shear Modulus (GPa) = 13.84773 20.35986 17.10380
#
# Velocity S-wave (km/s) = 2.44491 2.96457 2.71719
# Velocity P-wave (km/s) = 4.97791 5.75346 5.37968
#
# Compressibility (1/GPa) = 0.02567992
#
# Stress axis : x y z
#
# Youngs Moduli (GPa) = 75.79192 51.66901 99.97881
#
# Poissons Ratio (x) = 0.08569 0.19566
# Poissons Ratio (y) = 0.12569 0.48187
# Poissons Ratio (z) = 0.14833 0.24903
#
# Static dielectric constant tensor:
#      x y z
#    x 1.995530 0.000000 -0.028490 
#    y 0.000000 1.962940 0.000000 
#    z -0.028490 0.000000 1.986390 
# 
# From -- ./inp_files/192252.got.cif
#   From: 2010.05.17/outbox.cif.g08.bks.cpg/sg15_97_cif.got.tgz:192252.got - 2010.06.03 18:47:42.
