data_PCOD9267589
_publ_section_title
;
Structure prediction by ZEFSAII (Michael W. Deem and Ramdas Pophale) SiO2 
 PCOD9267589
Probable space group: C 2/C
;
_chemical_formula_sum "Si O2"
_cell_formula_units_Z 60
_cell_length_a 14.967890
_cell_length_b 12.666420
_cell_length_c 24.453773
_cell_angle_alpha 90.000000
_cell_angle_beta 140.934900
_cell_angle_gamma 90.000000
_cell_volume 2921.734843
_symmetry_space_group_name_H-M "C 2/C"
_symmetry_group_IT_number 15
_symmetry_cell_setting 'monoclinic'
loop_
_space_group_symop_operation_xyz
x,y,z
-x,y,1/2-z
-x,-y,-z
x,-y,1/2+z
1/2+x,1/2+y,z
1/2-x,1/2+y,1/2-z
1/2-x,1/2-y,-z
1/2+x,1/2-y,1/2+z
loop_
_atom_site_type_symbol
_atom_site_label
_atom_site_fract_x
_atom_site_fract_y
_atom_site_fract_z
Si Si1 0.770456 0.681264 0.657540
Si Si2 0.056229 0.127977 0.999625
Si Si3 0.084823 0.166637 0.195143
Si Si4 0.718344 0.712176 0.923439
Si Si5 0.864272 0.331077 0.078767
Si Si6 0.747798 0.457406 0.682563
Si Si7 0.000000 0.328218 0.750000
Si Si8 0.339693 0.499744 0.059567
O O1 0.601111 0.673994 0.567988
O O2 0.833204 0.787140 0.713592
O O3 0.848182 0.664154 0.636760
O O4 0.788480 0.579871 0.705824
O O5 0.089163 0.064600 0.958190
O O6 0.156964 0.231358 0.050116
O O7 0.118107 0.055292 0.077623
O O8 0.196628 0.105020 0.211021
O O9 0.011660 0.272690 0.134973
O O10 0.953766 0.083722 0.137041
O O11 0.572699 0.758586 0.831209
O O12 0.705057 0.587260 0.917864
O O13 0.750000 0.750000 0.000000
O O14 0.750000 0.250000 0.000000
O O15 0.803944 0.442223 0.028743
O O16 0.880970 0.400316 0.719737
#
# Coordination Sequence:
#
# PCOD9267589 Si02
#       8
#     8   8   8   8   8   8   4   8
#     4  12  23  39  66  97 133 170 222 276 334 409
#     4  10  19  39  67  93 121 171 228 265 328 392
#     4  11  25  38  62  98 136 167 212 278 341 389
#     4   9  21  37  65  90 128 168 219 276 331 401
#     4  10  22  41  65  91 125 170 222 272 325 402
#     4  11  23  40  68  95 126 178 221 284 325 393
#     4  10  24  40  64  98 132 168 234 274 336 406
#     4  10  19  41  64  93 124 177 213 274 329 395
#
# _framework density 20.535744999999999
#
# number of rings (size 3 to 8) (size 9 to 14) (size 15 to 20)
#    0.000    1.600    2.667    2.400    5.600    0.000 
#    4.800    0.000    0.000    4.800    0.000    0.000 
#    0.000    0.000    0.000    0.000    0.000    0.000 
#
# Total GULP energy -167283.121615 kJ/mol
# GULP energy per Si atom -5576.104054 kJ/mol
# Density = 2.048900 g / cm^3
# Si number density = 20.535745 Si / 1000 Ang^3
#
#
#
# Elastic Constant Matrix: (Units=GPa)
#
#
# Indices 1 2 3 4 5 6 
#
# 1 33.6596 37.4794 4.0130 0.0000 7.4056 0.0000
# 2 37.4794 119.1080 48.3950 0.0000 11.1042 0.0000
# 3 4.0130 48.3950 91.7161 0.0000 -5.6641 0.0000
# 4 0.0000 0.0000 0.0000 39.6710 0.0000 -2.9547
# 5 7.4056 11.1042 -5.6641 0.0000 16.5550 0.0000
# 6 0.0000 0.0000 0.0000 -2.9547 0.0000 31.4712
#
#
#
# Elastic Compliance Matrix: (Units=1/GPa)
#
#
# Indices 1 2 3 4 5 6 
#
# 1 0.050670 -0.017887 0.006704 0.000000 -0.008374 0.000000
# 2 -0.017887 0.018612 -0.009516 0.000000 -0.007738 0.000000
# 3 0.006704 -0.009516 0.016182 0.000000 0.008921 0.000000
# 4 0.000000 0.000000 0.000000 0.025385 0.000000 0.002383
# 5 -0.008374 -0.007738 0.008921 0.000000 0.072394 0.000000
# 6 0.000000 0.000000 0.000000 0.002383 0.000000 0.031999
#
#
# Mechanical properties :
#
#
# Convention : Reuss Voigt Hill
#
# Bulk Modulus (GPa) = 22.69358 47.13983 34.91670
# Shear Modulus (GPa) = 18.42785 27.84586 23.13685
#
# Velocity S-wave (km/s) = 2.99884 3.68634 3.36022
# Velocity P-wave (km/s) = 4.80265 6.41278 5.66521
#
# Compressibility (1/GPa) = 0.04406533
#
# Stress axis : x y z
#
# Youngs Moduli (GPa) = 19.73571 53.72789 61.79656
#
# Poissons Ratio (x) = 0.96105 -0.41430
# Poissons Ratio (y) = 0.35302 0.58807
# Poissons Ratio (z) = -0.13231 0.51129
#
# Static dielectric constant tensor:
#      x y z
#    x 1.733770 0.000000 0.019600 
#    y 0.000000 1.771670 0.000000 
#    z 0.019600 0.000000 1.771420 
# 
# From -- ./inp_files/316091.got.cif
#   From: 2010.05.17/outbox.cif.g08.bks.cpg/sg15_159_cif.got.tgz:316091.got - 2010.06.03 18:47:42.
