data_PCOD9267628
_publ_section_title
;
Structure prediction by ZEFSAII (Michael W. Deem and Ramdas Pophale) SiO2 
 PCOD9267628
Probable space group: C 2/C
;
_chemical_formula_sum "Si O2"
_cell_formula_units_Z 52
_cell_length_a 16.399741
_cell_length_b 8.740865
_cell_length_c 30.347877
_cell_angle_alpha 90.000000
_cell_angle_beta 33.901302
_cell_angle_gamma 90.000000
_cell_volume 2426.443449
_symmetry_space_group_name_H-M "C 2/C"
_symmetry_group_IT_number 15
_symmetry_cell_setting 'monoclinic'
loop_
_space_group_symop_operation_xyz
x,y,z
-x,y,1/2-z
-x,-y,-z
x,-y,1/2+z
1/2+x,1/2+y,z
1/2-x,1/2+y,1/2-z
1/2-x,1/2-y,-z
1/2+x,1/2-y,1/2+z
loop_
_atom_site_type_symbol
_atom_site_label
_atom_site_fract_x
_atom_site_fract_y
_atom_site_fract_z
Si Si1 0.331795 0.931882 0.766869
Si Si2 0.000000 0.759476 0.250000
Si Si3 0.584558 0.086475 0.501815
Si Si4 0.401382 0.357433 0.557074
Si Si5 0.609443 0.215979 0.033990
Si Si6 0.716510 0.753535 0.798147
Si Si7 0.336801 0.433931 0.825606
O O1 0.480152 0.848585 0.716403
O O2 0.234100 0.917243 0.854387
O O3 0.267017 0.833412 0.756060
O O4 0.320510 0.107333 0.757485
O O5 0.133585 0.882919 0.189043
O O6 0.496636 0.242827 0.544825
O O7 0.746607 0.109700 0.409365
O O8 0.500000 0.000000 0.500000
O O9 0.586985 0.967877 0.540633
O O10 0.500000 0.500000 0.500000
O O11 0.365108 0.275921 0.527073
O O12 0.455974 0.287426 0.119365
O O13 0.750000 0.250000 0.000000
O O14 0.751203 0.872657 0.821732
O O15 0.500000 0.366609 0.750000
#
# Coordination Sequence:
#
# PCOD9267628 Si02
#       7
#     8   4   8   8   8   8   8
#     4  12  27  42  69 103 141 186 231 288 349 416
#     4  10  24  40  70 100 136 182 230 274 352 420
#     4  10  19  39  69  95 131 179 224 271 350 404
#     4  11  22  47  71  97 137 182 230 284 354 411
#     4  11  25  42  72 101 135 181 235 284 343 421
#     4  12  26  47  68 101 145 183 233 295 351 413
#     4  10  22  42  70 101 136 177 230 286 349 419
#
# _framework density 21.430543
#
# number of rings (size 3 to 8) (size 9 to 14) (size 15 to 20)
#    0.462    0.615    4.615    2.769    7.538    0.000 
#    0.000    0.769    0.000    0.000    0.000    0.000 
#    0.000    0.000    0.000    0.000    0.000    0.000 
#
# Total GULP energy -145153.262779 kJ/mol
# GULP energy per Si atom -5582.817799 kJ/mol
# Density = 2.138177 g / cm^3
# Si number density = 21.430543 Si / 1000 Ang^3
#
#
#
# Elastic Constant Matrix: (Units=GPa)
#
#
# Indices 1 2 3 4 5 6 
#
# 1 104.2067 56.8950 4.3136 -0.0002 -10.5009 -0.0018
# 2 56.8950 116.8666 -12.4650 -0.0006 -1.0600 -0.0033
# 3 4.3136 -12.4650 55.2508 -0.0002 -7.0779 -0.0003
# 4 -0.0002 -0.0006 -0.0002 22.4251 0.0001 7.2722
# 5 -10.5009 -1.0600 -7.0779 0.0001 35.1862 -0.0002
# 6 -0.0018 -0.0033 -0.0003 7.2722 -0.0002 22.8643
#
#
#
# Elastic Compliance Matrix: (Units=1/GPa)
#
#
# Indices 1 2 3 4 5 6 
#
# 1 0.013822 -0.006932 -0.002198 0.000000 0.003474 0.000000
# 2 -0.006932 0.012260 0.003171 0.000000 -0.001062 0.000001
# 3 -0.002198 0.003171 0.019415 0.000000 0.003345 0.000001
# 4 0.000000 0.000000 0.000000 0.049721 0.000000 -0.015814
# 5 0.003474 -0.001062 0.003345 0.000000 0.030098 0.000001
# 6 0.000000 0.000001 0.000001 -0.015814 0.000001 0.048766
#
#
# Mechanical properties :
#
#
# Convention : Reuss Voigt Hill
#
# Bulk Modulus (GPa) = 29.78015 41.53459 35.65737
# Shear Modulus (GPa) = 25.35580 31.26715 28.31147
#
# Velocity S-wave (km/s) = 3.44344 3.82383 3.63861
# Velocity P-wave (km/s) = 5.45308 6.23848 5.85895
#
# Compressibility (1/GPa) = 0.03357942
#
# Stress axis : x y z
#
# Youngs Moduli (GPa) = 72.34753 81.56494 51.50697
#
# Poissons Ratio (x) = 0.56541 0.11321
# Poissons Ratio (y) = 0.50152 -0.16334
# Poissons Ratio (z) = 0.15902 -0.25866
#
# Static dielectric constant tensor:
#      x y z
#    x 1.793760 0.000000 -0.071890 
#    y 0.000000 1.814530 0.000000 
#    z -0.071890 0.000000 1.848800 
# 
# From -- ./inp_files/313098.got.cif
#   From: 2010.05.17/outbox.cif.g08.bks.cpg/sg15_157_cif.got.tgz:313098.got - 2010.06.03 18:47:42.
