data_PCOD9267900
_publ_section_title
;
Structure prediction by ZEFSAII (Michael W. Deem and Ramdas Pophale) SiO2 
 PCOD9267900
Probable space group: C 2/C
;
_chemical_formula_sum "Si O2"
_cell_formula_units_Z 56
_cell_length_a 30.145017
_cell_length_b 12.157760
_cell_length_c 13.627571
_cell_angle_alpha 90.000000
_cell_angle_beta 30.569910
_cell_angle_gamma 90.000000
_cell_volume 2540.123194
_symmetry_space_group_name_H-M "C 2/C"
_symmetry_group_IT_number 15
_symmetry_cell_setting 'monoclinic'
loop_
_space_group_symop_operation_xyz
x,y,z
-x,y,1/2-z
-x,-y,-z
x,-y,1/2+z
1/2+x,1/2+y,z
1/2-x,1/2+y,1/2-z
1/2-x,1/2-y,-z
1/2+x,1/2-y,1/2+z
loop_
_atom_site_type_symbol
_atom_site_label
_atom_site_fract_x
_atom_site_fract_y
_atom_site_fract_z
Si Si1 0.757009 0.374770 0.029373
Si Si2 0.921684 0.936701 0.200620
Si Si3 0.738954 0.226042 0.777465
Si Si4 0.072754 0.632850 0.027931
Si Si5 0.001552 0.275297 0.016096
Si Si6 0.913575 0.867114 0.846528
Si Si7 0.650290 0.907787 0.834358
O O1 0.663118 0.431392 0.206013
O O2 0.786458 0.352481 0.082468
O O3 0.750000 0.250000 0.000000
O O4 0.814626 0.438644 0.840908
O O5 0.902602 0.006235 0.333623
O O6 0.951973 0.811090 0.146751
O O7 0.000000 0.000000 0.000000
O O8 0.824194 0.174310 0.564338
O O9 0.773663 0.342173 0.753320
O O10 0.650748 0.222941 0.883184
O O11 0.000000 0.650657 0.250000
O O12 0.035196 0.636048 0.988886
O O13 0.114991 0.512251 0.958236
O O14 0.933597 0.208382 0.212686
O O15 0.072030 0.324216 0.957335
O O16 0.000000 0.859880 0.750000
#
# Coordination Sequence:
#
# PCOD9267900 Si02
#       7
#     8   8   8   8   8   8   8
#     4  10  19  40  70  90 133 182 232 277 348 418
#     4  10  20  38  64  99 130 177 229 286 349 413
#     4  11  23  45  69 103 140 181 239 295 349 430
#     4  12  29  45  68 112 143 188 247 299 359 426
#     4  11  23  45  70 101 145 189 233 299 357 427
#     4  11  22  42  72 106 142 184 238 290 365 422
#     4  11  23  46  74  94 140 195 235 290 362 425
#
# _framework density 22.046175999999999
#
# number of rings (size 3 to 8) (size 9 to 14) (size 15 to 20)
#    0.000    1.143    4.286    3.000    4.000    1.143 
#    7.714    0.000    0.000    0.000    0.000    0.000 
#    0.000    0.000    0.000    0.000    0.000    0.000 
#
# Total GULP energy -156317.749138 kJ/mol
# GULP energy per Si atom -5582.776755 kJ/mol
# Density = 2.199600 g / cm^3
# Si number density = 22.046176 Si / 1000 Ang^3
#
#
#
# Elastic Constant Matrix: (Units=GPa)
#
#
# Indices 1 2 3 4 5 6 
#
# 1 58.1273 20.1704 15.7566 0.0000 -1.9164 0.0000
# 2 20.1704 78.0080 21.8888 0.0000 -4.6238 0.0000
# 3 15.7566 21.8888 79.8504 0.0000 -2.2561 0.0000
# 4 0.0000 0.0000 0.0000 29.0383 0.0000 -4.5830
# 5 -1.9164 -4.6238 -2.2561 0.0000 33.9255 0.0000
# 6 0.0000 0.0000 0.0000 -4.5830 0.0000 30.7372
#
#
#
# Elastic Compliance Matrix: (Units=1/GPa)
#
#
# Indices 1 2 3 4 5 6 
#
# 1 0.019411 -0.004254 -0.002654 0.000000 0.000340 0.000000
# 2 -0.004254 0.014912 -0.003204 0.000000 0.001579 0.000000
# 3 -0.002654 -0.003204 0.013935 0.000000 0.000340 0.000000
# 4 0.000000 0.000000 0.000000 0.035267 0.000000 0.005258
# 5 0.000340 0.001579 0.000340 0.000000 0.029733 0.000000
# 6 0.000000 0.000000 0.000000 0.005258 0.000000 0.033318
#
#
# Mechanical properties :
#
#
# Convention : Reuss Voigt Hill
#
# Bulk Modulus (GPa) = 35.67208 36.84636 36.25922
# Shear Modulus (GPa) = 28.38584 29.28486 28.83535
#
# Velocity S-wave (km/s) = 3.59216 3.64860 3.62049
# Velocity P-wave (km/s) = 5.78105 5.87360 5.82751
#
# Compressibility (1/GPa) = 0.02803313
#
# Stress axis : x y z
#
# Youngs Moduli (GPa) = 51.51839 67.06165 71.76177
#
# Poissons Ratio (x) = 0.28528 0.19049
# Poissons Ratio (y) = 0.21916 0.22989
# Poissons Ratio (z) = 0.13676 0.21484
#
# Static dielectric constant tensor:
#      x y z
#    x 1.841330 0.000000 -0.016950 
#    y 0.000000 1.817720 0.000000 
#    z -0.016950 0.000000 1.847190 
# 
# From -- ./inp_files/181917.got.cif
#   From: 2010.05.17/outbox.cif.g08.bks.cpg/sg15_91_cif.got.tgz:181917.got - 2010.06.03 18:47:42.
