data_PCOD9267820
_publ_section_title
;
Structure prediction by ZEFSAII (Michael W. Deem and Ramdas Pophale) SiO2 
 PCOD9267820
Probable space group: C 2/C
;
_chemical_formula_sum "Si O2"
_cell_formula_units_Z 48
_cell_length_a 14.745339
_cell_length_b 8.393276
_cell_length_c 20.274696
_cell_angle_alpha 90.000000
_cell_angle_beta 64.611147
_cell_angle_gamma 90.000000
_cell_volume 2266.886131
_symmetry_space_group_name_H-M "C 2/C"
_symmetry_group_IT_number 15
_symmetry_cell_setting 'monoclinic'
loop_
_space_group_symop_operation_xyz
x,y,z
-x,y,1/2-z
-x,-y,-z
x,-y,1/2+z
1/2+x,1/2+y,z
1/2-x,1/2+y,1/2-z
1/2-x,1/2-y,-z
1/2+x,1/2-y,1/2+z
loop_
_atom_site_type_symbol
_atom_site_label
_atom_site_fract_x
_atom_site_fract_y
_atom_site_fract_z
Si Si1 0.761882 0.740943 0.074465
Si Si2 0.754824 0.162403 0.213997
Si Si3 0.373978 0.373996 0.150018
Si Si4 0.098619 0.451311 0.177927
Si Si5 0.091813 0.731137 0.077949
Si Si6 0.791928 0.375072 0.081281
O O1 0.838780 0.866614 0.084354
O O2 0.655441 0.792836 0.138036
O O3 0.797078 0.564362 0.080565
O O4 0.750000 0.750000 0.000000
O O5 0.697503 0.243443 0.292101
O O6 0.792980 0.299967 0.153154
O O7 0.846084 0.039400 0.194292
O O8 0.672678 0.055867 0.200867
O O9 0.489155 0.326510 0.118356
O O10 0.080393 0.563717 0.120250
O O11 0.000000 0.419469 0.250000
O O12 0.185641 0.823564 0.081474
O O13 0.122691 0.695772 0.993110
#
# Coordination Sequence:
#
# PCOD9267820 Si02
#       6
#     8   8   8   8   8   8
#     4  11  23  42  61  90 132 167 212 265 320 383
#     4  10  22  40  64  92 131 164 212 277 327 381
#     4  11  23  41  64  94 125 169 216 268 326 390
#     4  10  19  40  66  90 126 173 211 259 329 385
#     4  10  21  40  68  91 125 172 211 262 329 384
#     4  10  22  42  63  93 131 165 212 266 325 392
#
# _framework density 21.174420999999999
#
# number of rings (size 3 to 8) (size 9 to 14) (size 15 to 20)
#    0.000    1.667    3.333    1.000    2.333    1.333 
#    9.000    0.000    0.000    0.000    0.000    0.000 
#    0.000    0.000    0.000    0.000    0.000    0.000 
#
# Total GULP energy -134125.176869 kJ/mol
# GULP energy per Si atom -5588.549036 kJ/mol
# Density = 2.112623 g / cm^3
# Si number density = 21.174421 Si / 1000 Ang^3
#
#
#
# Elastic Constant Matrix: (Units=GPa)
#
#
# Indices 1 2 3 4 5 6 
#
# 1 46.5202 7.1052 35.4524 0.0000 -19.3483 0.0000
# 2 7.1052 62.0491 12.9983 0.0000 -7.8413 0.0000
# 3 35.4524 12.9983 111.4751 0.0000 -11.3569 0.0000
# 4 0.0000 0.0000 0.0000 28.6862 0.0000 -1.2295
# 5 -19.3483 -7.8413 -11.3569 0.0000 36.6472 0.0000
# 6 0.0000 0.0000 0.0000 -1.2295 0.0000 22.2359
#
#
#
# Elastic Compliance Matrix: (Units=1/GPa)
#
#
# Indices 1 2 3 4 5 6 
#
# 1 0.035376 -0.000049 -0.009648 0.000000 0.015677 0.000000
# 2 -0.000049 0.016853 -0.001637 0.000000 0.003073 0.000000
# 3 -0.009648 -0.001637 0.012056 0.000000 -0.001708 0.000000
# 4 0.000000 0.000000 0.000000 0.034943 0.000000 0.001932
# 5 0.015677 0.003073 -0.001708 0.000000 0.035692 0.000000
# 6 0.000000 0.000000 0.000000 0.001932 0.000000 0.045079
#
#
# Mechanical properties :
#
#
# Convention : Reuss Voigt Hill
#
# Bulk Modulus (GPa) = 24.02759 36.79513 30.41136
# Shear Modulus (GPa) = 23.09059 28.47977 25.78518
#
# Velocity S-wave (km/s) = 3.30585 3.67141 3.49342
# Velocity P-wave (km/s) = 5.09349 5.94872 5.53764
#
# Compressibility (1/GPa) = 0.04161881
#
# Stress axis : x y z
#
# Youngs Moduli (GPa) = 28.26756 59.33649 82.94782
#
# Poissons Ratio (x) = 0.00289 0.80027
# Poissons Ratio (y) = 0.00138 0.13575
# Poissons Ratio (z) = 0.27272 0.09711
#
# Static dielectric constant tensor:
#      x y z
#    x 1.774990 0.000000 0.032040 
#    y 0.000000 1.755740 0.000000 
#    z 0.032040 0.000000 1.758270 
# 
# From -- ./inp_files/247292.got.cif
#   From: 2010.05.17/outbox.cif.g08.bks.cpg/sg15_124_cif.got.tgz:247292.got - 2010.06.03 18:47:42.
