data_PCOD9267584
_publ_section_title
;
Structure prediction by ZEFSAII (Michael W. Deem and Ramdas Pophale) SiO2 
 PCOD9267584
Probable space group: C 2/C
;
_chemical_formula_sum "Si O2"
_cell_formula_units_Z 60
_cell_length_a 15.262799
_cell_length_b 12.025731
_cell_length_c 24.134184
_cell_angle_alpha 90.000000
_cell_angle_beta 38.340913
_cell_angle_gamma 90.000000
_cell_volume 2747.941953
_symmetry_space_group_name_H-M "C 2/C"
_symmetry_group_IT_number 15
_symmetry_cell_setting 'monoclinic'
loop_
_space_group_symop_operation_xyz
x,y,z
-x,y,1/2-z
-x,-y,-z
x,-y,1/2+z
1/2+x,1/2+y,z
1/2-x,1/2+y,1/2-z
1/2-x,1/2-y,-z
1/2+x,1/2-y,1/2+z
loop_
_atom_site_type_symbol
_atom_site_label
_atom_site_fract_x
_atom_site_fract_y
_atom_site_fract_z
Si Si1 0.243644 0.700312 0.333351
Si Si2 0.184800 0.699004 0.817547
Si Si3 0.491764 0.623246 0.844224
Si Si4 0.482177 0.984386 0.574774
Si Si5 0.000000 0.935883 0.750000
Si Si6 0.717522 0.906263 0.673447
Si Si7 0.593217 0.869097 0.621200
Si Si8 0.577780 0.413222 0.421661
O O1 0.316432 0.753444 0.243552
O O2 0.144148 0.603982 0.359120
O O3 0.364185 0.642252 0.309043
O O4 0.140645 0.794812 0.410314
O O5 0.342481 0.650602 0.749563
O O6 0.067944 0.605280 0.881156
O O7 0.181374 0.802892 0.861427
O O8 0.464264 0.518382 0.818960
O O9 0.399686 0.734544 0.880758
O O10 0.486008 0.603632 0.912466
O O11 0.598616 0.929464 0.558528
O O12 0.500000 0.000000 0.500000
O O13 0.693662 0.914609 0.619505
O O14 0.565828 0.889958 0.776974
O O15 0.783957 0.017301 0.664381
O O16 0.500000 0.500000 0.500000
#
# Coordination Sequence:
#
# PCOD9267584 Si02
#       8
#     8   8   8   8   4   8   8   8
#     4  11  24  42  66  98 128 175 227 270 329 400
#     4  10  20  40  69  90 125 171 220 265 325 394
#     4  10  19  39  67  91 123 167 219 265 320 389
#     4  12  24  41  65 101 141 170 214 281 344 394
#     4  12  22  40  70 100 126 162 230 294 314 380
#     4  10  20  37  68  94 116 165 228 267 311 385
#     4  10  20  39  65  97 123 160 227 278 309 388
#     4  11  24  42  62  86 134 177 208 257 336 414
#
# _framework density 21.834523000000001
#
# number of rings (size 3 to 8) (size 9 to 14) (size 15 to 20)
#    0.000    1.333    5.333    4.000    1.867    2.133 
#    2.400    2.000    0.000    0.000    0.000    0.000 
#    0.000    0.000    0.000    0.000    0.000    0.000 
#
# Total GULP energy -167505.325410 kJ/mol
# GULP energy per Si atom -5583.510847 kJ/mol
# Density = 2.178483 g / cm^3
# Si number density = 21.834523 Si / 1000 Ang^3
#
#
#
# Elastic Constant Matrix: (Units=GPa)
#
#
# Indices 1 2 3 4 5 6 
#
# 1 42.4714 25.8858 6.1883 0.0000 13.9170 0.0000
# 2 25.8858 109.8001 15.8937 0.0000 6.9811 0.0000
# 3 6.1883 15.8937 51.9320 0.0000 16.8417 0.0000
# 4 0.0000 0.0000 0.0000 20.4689 0.0000 17.2618
# 5 13.9170 6.9811 16.8417 0.0000 23.3239 0.0000
# 6 0.0000 0.0000 0.0000 17.2618 0.0000 45.6710
#
#
#
# Elastic Compliance Matrix: (Units=1/GPa)
#
#
# Indices 1 2 3 4 5 6 
#
# 1 0.034673 -0.007538 0.005423 0.000000 -0.022348 0.000000
# 2 -0.007538 0.011186 -0.003784 0.000000 0.003883 0.000000
# 3 0.005423 -0.003784 0.026703 0.000000 -0.021385 0.000000
# 4 0.000000 0.000000 0.000000 0.071712 0.000000 -0.027104
# 5 -0.022348 0.003883 -0.021385 0.000000 0.070489 0.000000
# 6 0.000000 0.000000 0.000000 -0.027104 0.000000 0.032140
#
#
# Mechanical properties :
#
#
# Convention : Reuss Voigt Hill
#
# Bulk Modulus (GPa) = 16.45751 33.34877 24.90314
# Shear Modulus (GPa) = 17.92398 28.30846 23.11622
#
# Velocity S-wave (km/s) = 2.86825 3.60460 3.25730
# Velocity P-wave (km/s) = 4.30382 5.71233 5.05735
#
# Compressibility (1/GPa) = 0.06076253
#
# Stress axis : x y z
#
# Youngs Moduli (GPa) = 28.84115 89.40102 37.44884
#
# Poissons Ratio (x) = 0.67393 -0.20309
# Poissons Ratio (y) = 0.21741 0.14171
# Poissons Ratio (z) = -0.15641 0.33831
#
# Static dielectric constant tensor:
#      x y z
#    x 1.822170 0.000000 -0.003170 
#    y 0.000000 1.785420 0.000000 
#    z -0.003170 0.000000 1.893880 
# 
# From -- ./inp_files/277261.got.cif
#   From: 2010.05.17/outbox.cif.g08.bks.cpg/sg15_139_cif.got.tgz:277261.got - 2010.06.03 18:47:42.
