data_PCOD9267291
_publ_section_title
;
Structure prediction by ZEFSAII (Michael W. Deem and Ramdas Pophale) SiO2 
 PCOD9267291
Probable space group: C 2/C
;
_chemical_formula_sum "Si O2"
_cell_formula_units_Z 60
_cell_length_a 17.093149
_cell_length_b 23.532703
_cell_length_c 11.620461
_cell_angle_alpha 90.000000
_cell_angle_beta 38.716695
_cell_angle_gamma 90.000000
_cell_volume 2923.639071
_symmetry_space_group_name_H-M "C 2/C"
_symmetry_group_IT_number 15
_symmetry_cell_setting 'monoclinic'
loop_
_space_group_symop_operation_xyz
x,y,z
-x,y,1/2-z
-x,-y,-z
x,-y,1/2+z
1/2+x,1/2+y,z
1/2-x,1/2+y,1/2-z
1/2-x,1/2-y,-z
1/2+x,1/2-y,1/2+z
loop_
_atom_site_type_symbol
_atom_site_label
_atom_site_fract_x
_atom_site_fract_y
_atom_site_fract_z
Si Si1 0.905501 0.550284 0.531731
Si Si2 0.031731 0.173660 0.849425
Si Si3 0.328455 0.506959 0.078317
Si Si4 0.945001 0.420646 0.436055
Si Si5 0.847150 0.893743 0.716003
Si Si6 0.756736 0.603940 0.502542
Si Si7 0.623923 0.783507 0.689332
Si Si8 0.000000 0.919897 0.750000
O O1 0.789145 0.527869 0.740461
O O2 0.959498 0.489789 0.426260
O O3 0.859458 0.581782 0.472160
O O4 0.984647 0.591286 0.524352
O O5 0.145815 0.128959 0.711184
O O6 0.074032 0.236881 0.837923
O O7 0.000000 0.177797 0.750000
O O8 0.914714 0.150966 0.054801
O O9 0.381131 0.544827 0.121775
O O10 0.290484 0.553200 0.024431
O O11 0.419063 0.461469 0.921073
O O12 0.802744 0.398672 0.605904
O O13 0.000000 0.402222 0.250000
O O14 0.908078 0.886371 0.771054
O O15 0.817221 0.654724 0.358923
O O16 0.500000 0.792141 0.750000
O O17 0.750000 0.750000 0.500000
#
# Coordination Sequence:
#
# PCOD9267291 Si02
#       8
#     8   8   8   8   8   8   8   4
#     4  10  21  34  52  79 121 163 211 248 293 363
#     4  10  19  39  58  85 124 156 201 266 321 370
#     4  11  20  34  55  84 126 172 201 246 302 371
#     4  10  21  37  50  76 122 172 210 252 295 363
#     4  11  22  35  58  83 120 172 209 253 314 359
#     4  11  20  35  58  86 123 163 199 249 311 375
#     4   9  21  37  59  87 119 156 199 256 318 372
#     4  12  22  34  54  90 128 166 218 242 290 382
#
# _framework density 20.522369000000001
#
# number of rings (size 3 to 8) (size 9 to 14) (size 15 to 20)
#    0.000    1.600    1.333    5.200    0.000    3.733 
#    0.000    0.000    0.000    0.000    0.000    0.933 
#   40.000    2.133    0.000    0.000    0.000    0.000 
#
# Total GULP energy -167240.935019 kJ/mol
# GULP energy per Si atom -5574.697834 kJ/mol
# Density = 2.047566 g / cm^3
# Si number density = 20.522369 Si / 1000 Ang^3
#
#
#
# Elastic Constant Matrix: (Units=GPa)
#
#
# Indices 1 2 3 4 5 6 
#
# 1 127.1756 15.3261 17.3722 0.0000 0.0462 0.0002
# 2 15.3261 50.9069 27.4902 0.0000 -10.7403 0.0000
# 3 17.3722 27.4902 97.1125 -0.0001 -1.7641 0.0001
# 4 0.0000 0.0000 -0.0001 14.9106 0.0000 -10.3563
# 5 0.0462 -10.7403 -1.7641 0.0000 18.7455 -0.0001
# 6 0.0002 0.0000 0.0001 -10.3563 -0.0001 5.6339
#
#
#
# Elastic Compliance Matrix: (Units=1/GPa)
#
#
# Indices 1 2 3 4 5 6 
#
# 1 0.008260 -0.002335 -0.000843 0.000001 -0.001438 0.000001
# 2 -0.002335 0.027312 -0.007041 -0.000001 0.014992 -0.000002
# 3 -0.000843 -0.007041 0.012389 0.000000 -0.002866 0.000001
# 4 0.000001 -0.000001 0.000000 -0.242332 -0.000004 -0.445460
# 5 -0.001438 0.014992 -0.002866 -0.000004 0.061670 -0.000007
# 6 0.000001 -0.000002 0.000001 -0.445460 -0.000007 -0.641355
#
#
# Mechanical properties :
#
#
# Convention : Reuss Voigt Hill
#
# Bulk Modulus (GPa) = 36.33297 43.95244 40.14271
# Shear Modulus (GPa) = -6.71643 22.19175 7.73766
#
# Velocity S-wave (km/s) = -1.81103 3.29195 1.94385
# Velocity P-wave (km/s) = 3.65642 5.99271 4.96397
#
# Compressibility (1/GPa) = 0.02752321
#
# Stress axis : x y z
#
# Youngs Moduli (GPa) = 121.06270 36.61397 80.71508
#
# Poissons Ratio (x) = 0.08549 0.06802
# Poissons Ratio (y) = 0.28268 0.56834
# Poissons Ratio (z) = 0.10203 0.25781
#
# Static dielectric constant tensor:
#      x y z
#    x 1.832240 0.000000 -0.046210 
#    y 0.000000 1.776420 0.000000 
#    z -0.046210 0.000000 1.683100 
# 
# From -- ./inp_files/108091.got.cif
#   From: 2010.05.17/outbox.cif.g08.bks.cpg/sg15_55_cif.got.tgz:108091.got - 2010.06.03 18:47:42.
