data_PCOD9267239
_publ_section_title
;
Structure prediction by ZEFSAII (Michael W. Deem and Ramdas Pophale) SiO2 
 PCOD9267239
Probable space group: C 2/C
;
_chemical_formula_sum "Si O2"
_cell_formula_units_Z 44
_cell_length_a 15.291884
_cell_length_b 9.319681
_cell_length_c 19.276866
_cell_angle_alpha 90.000000
_cell_angle_beta 45.790471
_cell_angle_gamma 90.000000
_cell_volume 1969.215412
_symmetry_space_group_name_H-M "C 2/C"
_symmetry_group_IT_number 15
_symmetry_cell_setting 'monoclinic'
loop_
_space_group_symop_operation_xyz
x,y,z
-x,y,1/2-z
-x,-y,-z
x,-y,1/2+z
1/2+x,1/2+y,z
1/2-x,1/2+y,1/2-z
1/2-x,1/2-y,-z
1/2+x,1/2-y,1/2+z
loop_
_atom_site_type_symbol
_atom_site_label
_atom_site_fract_x
_atom_site_fract_y
_atom_site_fract_z
Si Si1 0.000000 0.788628 0.750000
Si Si2 0.190520 0.755648 0.867541
Si Si3 0.956520 0.658142 0.194253
Si Si4 0.231365 0.047599 0.106454
Si Si5 0.853913 0.865911 0.464231
Si Si6 0.965616 0.363207 0.410312
O O1 0.117043 0.881726 0.707765
O O2 0.949165 0.696030 0.841929
O O3 0.312034 0.825581 0.769466
O O4 0.231247 0.601663 0.877854
O O5 0.080054 0.719308 0.878730
O O6 0.147070 0.861012 0.953030
O O7 0.003479 0.531234 0.118963
O O8 0.000000 0.632771 0.250000
O O9 0.021158 0.804012 0.134778
O O10 0.182188 0.007935 0.056290
O O11 0.350754 0.142038 0.025582
O O12 0.750000 0.750000 0.500000
#
# Coordination Sequence:
#
# PCOD9267239 Si02
#       6
#     4   8   8   8   8   8
#     4  12  28  42  64  94 136 172 208 256 334 386
#     4  11  24  39  68  97 121 167 219 267 305 374
#     4  12  20  41  67  94 126 167 221 258 317 382
#     4  11  22  46  65  93 129 172 212 263 317 382
#     4  10  19  38  69  94 113 163 220 262 309 367
#     4  12  26  41  64  94 136 171 205 265 329 378
#
# _framework density 22.343924000000001
#
# number of rings (size 3 to 8) (size 9 to 14) (size 15 to 20)
#    0.000    0.727    8.182    2.182    2.545    0.000 
#    0.000    0.909    0.000    0.000    0.000    0.000 
#    0.000    0.000    0.000    0.000    0.000    0.000 
#
# Total GULP energy -123025.935077 kJ/mol
# GULP energy per Si atom -5592.087958 kJ/mol
# Density = 2.229307 g / cm^3
# Si number density = 22.343924 Si / 1000 Ang^3
#
#
#
# Elastic Constant Matrix: (Units=GPa)
#
#
# Indices 1 2 3 4 5 6 
#
# 1 49.0536 1.4830 3.8605 0.0000 -15.2485 0.0000
# 2 1.4830 32.9201 9.7365 0.0000 -7.8957 0.0000
# 3 3.8605 9.7365 101.7102 0.0000 -21.7558 0.0000
# 4 0.0000 0.0000 0.0000 25.0458 0.0000 2.5624
# 5 -15.2485 -7.8957 -21.7558 0.0000 22.4119 0.0000
# 6 0.0000 0.0000 0.0000 2.5624 0.0000 7.0084
#
#
#
# Elastic Compliance Matrix: (Units=1/GPa)
#
#
# Indices 1 2 3 4 5 6 
#
# 1 0.027203 0.003262 0.003609 0.000000 0.023161 0.000000
# 2 0.003262 0.033630 -0.000422 0.000000 0.013658 0.000000
# 3 0.003609 -0.000422 0.012909 0.000000 0.014838 0.000000
# 4 0.000000 0.000000 0.000000 0.041478 0.000000 -0.015165
# 5 0.023161 0.013658 0.014838 0.000000 0.079593 0.000000
# 6 0.000000 0.000000 0.000000 -0.015165 0.000000 0.148231
#
#
# Mechanical properties :
#
#
# Convention : Reuss Voigt Hill
#
# Bulk Modulus (GPa) = 11.54176 23.76043 17.65110
# Shear Modulus (GPa) = 13.92659 22.13348 18.03003
#
# Velocity S-wave (km/s) = 2.49927 3.15077 2.84374
# Velocity P-wave (km/s) = 3.67494 4.88809 4.32427
#
# Compressibility (1/GPa) = 0.08664189
#
# Stress axis : x y z
#
# Youngs Moduli (GPa) = 36.76074 29.73518 77.46436
#
# Poissons Ratio (x) = -0.09700 -0.27960
# Poissons Ratio (y) = -0.11992 0.03267
# Poissons Ratio (z) = -0.13268 0.01254
#
# Static dielectric constant tensor:
#      x y z
#    x 1.833220 0.000000 0.006590 
#    y 0.000000 1.839460 0.000000 
#    z 0.006590 0.000000 1.848770 
# 
# From -- ./inp_files/142318.got.cif
#   From: 2010.05.17/outbox.cif.g08.bks.cpg/sg15_72_cif.got.tgz:142318.got - 2010.06.03 18:47:42.
