data_PCOD9267193
_publ_section_title
;
Structure prediction by ZEFSAII (Michael W. Deem and Ramdas Pophale) SiO2 
 PCOD9267193
Probable space group: C 2/C
;
_chemical_formula_sum "Si O2"
_cell_formula_units_Z 36
_cell_length_a 10.524854
_cell_length_b 9.876609
_cell_length_c 20.589580
_cell_angle_alpha 90.000000
_cell_angle_beta 134.727120
_cell_angle_gamma 90.000000
_cell_volume 1520.600068
_symmetry_space_group_name_H-M "C 2/C"
_symmetry_group_IT_number 15
_symmetry_cell_setting 'monoclinic'
loop_
_space_group_symop_operation_xyz
x,y,z
-x,y,1/2-z
-x,-y,-z
x,-y,1/2+z
1/2+x,1/2+y,z
1/2-x,1/2+y,1/2-z
1/2-x,1/2-y,-z
1/2+x,1/2-y,1/2+z
loop_
_atom_site_type_symbol
_atom_site_label
_atom_site_fract_x
_atom_site_fract_y
_atom_site_fract_z
Si Si1 0.723365 0.017728 0.510658
Si Si2 0.239218 0.410572 0.382896
Si Si3 0.044863 0.720107 0.540315
Si Si4 0.500000 0.311921 0.750000
Si Si5 0.629750 0.420361 0.677763
O O1 0.667646 0.148705 0.531037
O O2 0.701154 0.020006 0.424838
O O3 0.595404 0.894219 0.486961
O O4 0.927201 0.977129 0.598925
O O5 0.429358 0.341693 0.467491
O O6 0.102276 0.287074 0.335494
O O7 0.243196 0.474056 0.312811
O O8 0.141408 0.786024 0.637298
O O9 0.645083 0.393214 0.759858
#
# Coordination Sequence:
#
# PCOD9267193 Si02
#       5
#     8   8   8   4   8
#     4  10  19  38  67  91 113 148 195 246 293 340
#     4  11  23  39  61  86 118 157 192 241 294 338
#     4  10  19  38  67  91 113 148 195 246 293 340
#     4  12  24  42  52  84 128 158 196 232 280 362
#     4  11  23  39  61  86 118 157 192 241 294 338
#
# _framework density 23.674862999999998
#
# number of rings (size 3 to 8) (size 9 to 14) (size 15 to 20)
#    0.000    1.333    4.444    4.000    0.000    7.111 
#    0.000    0.000    0.000    0.000    0.000    0.000 
#    0.000    0.000    0.000    0.000    0.000    0.000 
#
# Total GULP energy -100657.690177 kJ/mol
# GULP energy per Si atom -5592.093899 kJ/mol
# Density = 2.362098 g / cm^3
# Si number density = 23.674863 Si / 1000 Ang^3
#
#
#
# Elastic Constant Matrix: (Units=GPa)
#
#
# Indices 1 2 3 4 5 6 
#
# 1 110.1403 46.6865 16.3468 0.0000 -42.1518 0.0000
# 2 46.6865 79.5680 7.0072 0.0000 -28.1147 0.0000
# 3 16.3468 7.0072 39.8354 0.0000 -29.4134 0.0000
# 4 0.0000 0.0000 0.0000 22.7051 0.0000 -20.0927
# 5 -42.1518 -28.1147 -29.4134 0.0000 42.6408 0.0000
# 6 0.0000 0.0000 0.0000 -20.0927 0.0000 54.4360
#
#
#
# Elastic Compliance Matrix: (Units=1/GPa)
#
#
# Indices 1 2 3 4 5 6 
#
# 1 0.017248 -0.003512 0.009007 0.000000 0.020948 0.000000
# 2 -0.003512 0.019518 0.010082 0.000000 0.016352 0.000000
# 3 0.009007 0.010082 0.063415 0.000000 0.059295 0.000000
# 4 0.000000 0.000000 0.000000 0.065408 0.000000 0.024142
# 5 0.020948 0.016352 0.059295 0.000000 0.095842 0.000000
# 6 0.000000 0.000000 0.000000 0.024142 0.000000 0.027281
#
#
# Mechanical properties :
#
#
# Convention : Reuss Voigt Hill
#
# Bulk Modulus (GPa) = 7.61404 41.06940 24.34172
# Shear Modulus (GPa) = 16.59269 34.58992 25.59130
#
# Velocity S-wave (km/s) = 2.65024 3.82650 3.29134
# Velocity P-wave (km/s) = 3.54797 6.07517 4.97473
#
# Compressibility (1/GPa) = 0.13133639
#
# Stress axis : x y z
#
# Youngs Moduli (GPa) = 57.97746 51.23379 15.76904
#
# Poissons Ratio (x) = 0.17992 -0.14204
# Poissons Ratio (y) = 0.20360 -0.15898
# Poissons Ratio (z) = -0.52222 -0.51652
#
# Static dielectric constant tensor:
#      x y z
#    x 1.900240 0.000000 -0.054180 
#    y 0.000000 1.890220 0.000000 
#    z -0.054180 0.000000 1.947040 
# 
# From -- ./inp_files/181869.got.cif
#   From: 2010.05.17/outbox.cif.g08.bks.cpg/sg15_91_cif.got.tgz:181869.got - 2010.06.03 18:47:42.
