data_PCOD9267418
_publ_section_title
;
Structure prediction by ZEFSAII (Michael W. Deem and Ramdas Pophale) SiO2 
 PCOD9267418
Probable space group: C 2/C
;
_chemical_formula_sum "Si O2"
_cell_formula_units_Z 64
_cell_length_a 11.951022
_cell_length_b 11.351145
_cell_length_c 18.119142
_cell_angle_alpha 90.000000
_cell_angle_beta 99.065086
_cell_angle_gamma 90.000000
_cell_volume 2427.302190
_symmetry_space_group_name_H-M "C 2/C"
_symmetry_group_IT_number 15
_symmetry_cell_setting 'monoclinic'
loop_
_space_group_symop_operation_xyz
x,y,z
-x,y,1/2-z
-x,-y,-z
x,-y,1/2+z
1/2+x,1/2+y,z
1/2-x,1/2+y,1/2-z
1/2-x,1/2-y,-z
1/2+x,1/2-y,1/2+z
loop_
_atom_site_type_symbol
_atom_site_label
_atom_site_fract_x
_atom_site_fract_y
_atom_site_fract_z
Si Si1 0.602624 0.291246 0.587090
Si Si2 0.308610 0.783458 0.929614
Si Si3 0.848430 0.715967 0.176295
Si Si4 0.088302 0.895203 0.839050
Si Si5 0.089919 0.537536 0.813128
Si Si6 0.210176 0.059026 0.754389
Si Si7 0.597887 0.968504 0.095025
Si Si8 0.473747 0.630469 0.572935
O O1 0.722233 0.313339 0.636810
O O2 0.508071 0.306746 0.640817
O O3 0.607758 0.157310 0.556850
O O4 0.575258 0.373755 0.514958
O O5 0.202846 0.821892 0.867584
O O6 0.398271 0.680102 0.920129
O O7 0.375938 0.908835 0.941342
O O8 0.250000 0.750000 0.000000
O O9 0.897326 0.597055 0.211773
O O10 0.850341 0.818028 0.236786
O O11 0.911945 0.768116 0.113010
O O12 0.120346 0.955298 0.762795
O O13 0.059965 0.011212 0.886643
O O14 0.217956 0.574871 0.812370
O O15 0.000000 0.600263 0.750000
O O16 0.028169 0.530976 0.884212
O O17 0.307316 0.044371 0.828836
#
# Coordination Sequence:
#
# PCOD9267418 Si02
#       8
#     8   8   8   8   8   8   8   8
#     4  11  22  39  60  91 128 166 197 257 319 369
#     4  11  21  38  61  88 120 170 213 241 311 387
#     4  10  21  39  61  90 119 159 210 252 307 387
#     4  10  22  41  59  90 129 165 208 257 315 380
#     4  10  19  39  63  84 114 157 204 264 313 360
#     4   8  19  37  62  80 117 161 193 253 323 359
#     4   9  20  38  58  88 121 153 213 255 299 375
#     4  11  22  42  62  87 133 176 200 256 322 374
#
# _framework density 26.366720000000001
#
# number of rings (size 3 to 8) (size 9 to 14) (size 15 to 20)
#    0.000    2.000    2.500    1.500    0.000    1.500 
#    4.500    4.375    0.000    0.000    0.000    0.000 
#    0.000    0.000    0.000    0.000    0.000    0.000 
#
# Total GULP energy -178891.458027 kJ/mol
# GULP energy per Si atom -5590.358063 kJ/mol
# Density = 2.630671 g / cm^3
# Si number density = 26.366720 Si / 1000 Ang^3
#
#
#
# Elastic Constant Matrix: (Units=GPa)
#
#
# Indices 1 2 3 4 5 6 
#
# 1 170.6652 21.1774 39.9502 0.0000 -22.7434 0.0000
# 2 21.1774 128.7645 33.6893 0.0000 -5.4205 0.0000
# 3 39.9502 33.6893 53.6815 0.0000 -14.3585 0.0000
# 4 0.0000 0.0000 0.0000 33.8294 0.0000 -9.4565
# 5 -22.7434 -5.4205 -14.3585 0.0000 47.2713 0.0000
# 6 0.0000 0.0000 0.0000 -9.4565 0.0000 44.4927
#
#
#
# Elastic Compliance Matrix: (Units=1/GPa)
#
#
# Indices 1 2 3 4 5 6 
#
# 1 0.007272 0.000196 -0.005000 0.000000 0.002003 0.000000
# 2 0.000196 0.009323 -0.006188 0.000000 -0.000716 0.000000
# 3 -0.005000 -0.006188 0.027646 0.000000 0.005282 0.000000
# 4 0.000000 0.000000 0.000000 0.031427 0.000000 0.006680
# 5 0.002003 -0.000716 0.005282 0.000000 0.023640 0.000000
# 6 0.000000 0.000000 0.000000 0.006680 0.000000 0.023895
#
#
# Mechanical properties :
#
#
# Convention : Reuss Voigt Hill
#
# Bulk Modulus (GPa) = 44.92898 60.30501 52.61699
# Shear Modulus (GPa) = 32.76404 42.33831 37.55118
#
# Velocity S-wave (km/s) = 3.52892 4.01153 3.77794
# Velocity P-wave (km/s) = 5.80357 6.66166 6.24736
#
# Compressibility (1/GPa) = 0.02225735
#
# Stress axis : x y z
#
# Youngs Moduli (GPa) = 137.50823 107.26409 36.17196
#
# Poissons Ratio (x) = -0.02106 0.18085
# Poissons Ratio (y) = -0.02700 0.22385
# Poissons Ratio (z) = 0.68749 0.66380
#
# Static dielectric constant tensor:
#      x y z
#    x 2.102360 0.000000 0.027490 
#    y 0.000000 2.073940 0.000000 
#    z 0.027490 0.000000 2.099540 
# 
# From -- ./inp_files/268880.got.cif
#   From: 2010.05.17/outbox.cif.g08.bks.cpg/sg15_135_cif.got.tgz:268880.got - 2010.06.03 18:47:42.
