data_PCOD9267607
_publ_section_title
;
Structure prediction by ZEFSAII (Michael W. Deem and Ramdas Pophale) SiO2 
 PCOD9267607
Probable space group: C 2/C
;
_chemical_formula_sum "Si O2"
_cell_formula_units_Z 52
_cell_length_a 15.159153
_cell_length_b 9.883940
_cell_length_c 16.434914
_cell_angle_alpha 90.000000
_cell_angle_beta 98.067863
_cell_angle_gamma 90.000000
_cell_volume 2438.106342
_symmetry_space_group_name_H-M "C 2/C"
_symmetry_group_IT_number 15
_symmetry_cell_setting 'monoclinic'
loop_
_space_group_symop_operation_xyz
x,y,z
-x,y,1/2-z
-x,-y,-z
x,-y,1/2+z
1/2+x,1/2+y,z
1/2-x,1/2+y,1/2-z
1/2-x,1/2-y,-z
1/2+x,1/2-y,1/2+z
loop_
_atom_site_type_symbol
_atom_site_label
_atom_site_fract_x
_atom_site_fract_y
_atom_site_fract_z
Si Si1 0.456145 0.205144 0.989967
Si Si2 0.803600 0.072944 0.463228
Si Si3 0.116154 0.181927 0.619345
Si Si4 0.730244 0.650979 0.419864
Si Si5 0.116630 0.574512 0.376252
Si Si6 0.500000 0.271315 0.250000
Si Si7 0.445334 0.783893 0.162767
O O1 0.375731 0.312362 0.987699
O O2 0.483837 0.193818 0.900431
O O3 0.542430 0.262634 0.047340
O O4 0.425153 0.075948 0.038058
O O5 0.846848 0.954636 0.414612
O O6 0.770017 0.998572 0.541686
O O7 0.717667 0.119428 0.401972
O O8 0.193533 0.297301 0.632387
O O9 0.066935 0.153467 0.697949
O O10 0.750000 0.750000 0.500000
O O11 0.631730 0.679525 0.372908
O O12 0.060379 0.676934 0.315116
O O13 0.106880 0.426552 0.336907
O O14 0.500000 0.748784 0.250000
#
# Coordination Sequence:
#
# PCOD9267607 Si02
#       7
#     8   8   8   8   8   4   8
#     4  11  23  39  65  96 123 168 213 267 313 382
#     4  11  21  41  68  94 128 165 220 260 319 386
#     4  10  20  41  67  87 130 170 215 252 321 388
#     4  10  19  39  68  91 120 174 215 250 319 389
#     4  11  22  42  63  91 129 167 219 262 313 381
#     4  10  24  40  60  98 128 166 218 268 314 366
#     4  12  23  40  64  97 128 167 219 267 316 379
#
# _framework density 21.328028
#
# number of rings (size 3 to 8) (size 9 to 14) (size 15 to 20)
#    0.000    1.231    6.923    1.385    0.000    2.462 
#    1.385    3.077    0.000    0.000    0.000    0.000 
#    0.000    0.000    0.000    0.000    0.000    0.000 
#
# Total GULP energy -145223.577059 kJ/mol
# GULP energy per Si atom -5585.522195 kJ/mol
# Density = 2.127948 g / cm^3
# Si number density = 21.328028 Si / 1000 Ang^3
#
#
#
# Elastic Constant Matrix: (Units=GPa)
#
#
# Indices 1 2 3 4 5 6 
#
# 1 92.0797 10.9842 31.7473 0.0000 18.8306 0.0000
# 2 10.9842 39.2682 1.4541 0.0000 11.9303 0.0000
# 3 31.7473 1.4541 101.5226 0.0000 8.8772 0.0000
# 4 0.0000 0.0000 0.0000 -3.9742 0.0000 -36.3183
# 5 18.8306 11.9303 8.8772 0.0000 51.1656 0.0000
# 6 0.0000 0.0000 0.0000 -36.3183 0.0000 -27.4396
#
#
#
# Elastic Compliance Matrix: (Units=1/GPa)
#
#
# Indices 1 2 3 4 5 6 
#
# 1 0.013196 -0.002448 -0.003774 0.000000 -0.003631 0.000000
# 2 -0.002448 0.027865 0.000869 0.000000 -0.005747 0.000000
# 3 -0.003774 0.000869 0.011082 0.000000 -0.000736 0.000000
# 4 0.000000 0.000000 0.000000 0.022678 0.000000 -0.030016
# 5 -0.003631 -0.005747 -0.000736 0.000000 0.022348 0.000000
# 6 0.000000 0.000000 0.000000 -0.030016 0.000000 0.003285
#
#
# Mechanical properties :
#
#
# Convention : Reuss Voigt Hill
#
# Bulk Modulus (GPa) = 24.13356 35.69352 29.91354
# Shear Modulus (GPa) = 40.00892 16.52934 28.26913
#
# Velocity S-wave (km/s) = 4.33585 2.78691 3.64462
# Velocity P-wave (km/s) = 6.03374 5.20842 5.63621
#
# Compressibility (1/GPa) = 0.04143608
#
# Stress axis : x y z
#
# Youngs Moduli (GPa) = 75.78089 35.88790 90.23530
#
# Poissons Ratio (x) = 0.08787 0.34055
# Poissons Ratio (y) = 0.18554 -0.07842
# Poissons Ratio (z) = 0.28600 -0.03119
#
# Static dielectric constant tensor:
#      x y z
#    x 1.813080 0.000000 -0.053250 
#    y 0.000000 1.771380 0.000000 
#    z -0.053250 0.000000 1.774420 
# 
# From -- ./inp_files/152690.got.cif
#   From: 2010.05.17/outbox.cif.g08.bks.cpg/sg15_77_cif.got.tgz:152690.got - 2010.06.03 18:47:42.
