data_PCOD9267092
_publ_section_title
;
Structure prediction by ZEFSAII (Michael W. Deem and Ramdas Pophale) SiO2 
 PCOD9267092
Probable space group: C 2/C
;
_chemical_formula_sum "Si O2"
_cell_formula_units_Z 48
_cell_length_a 9.859538
_cell_length_b 9.642204
_cell_length_c 23.637677
_cell_angle_alpha 90.000000
_cell_angle_beta 111.452259
_cell_angle_gamma 90.000000
_cell_volume 2091.500377
_symmetry_space_group_name_H-M "C 2/C"
_symmetry_group_IT_number 15
_symmetry_cell_setting 'monoclinic'
loop_
_space_group_symop_operation_xyz
x,y,z
-x,y,1/2-z
-x,-y,-z
x,-y,1/2+z
1/2+x,1/2+y,z
1/2-x,1/2+y,1/2-z
1/2-x,1/2-y,-z
1/2+x,1/2-y,1/2+z
loop_
_atom_site_type_symbol
_atom_site_label
_atom_site_fract_x
_atom_site_fract_y
_atom_site_fract_z
Si Si1 0.271233 0.083570 0.995410
Si Si2 0.029033 0.113900 0.582383
Si Si3 0.366164 0.914140 0.307642
Si Si4 0.332046 0.966637 0.172554
Si Si5 0.097997 0.781715 0.317154
Si Si6 0.926164 0.425023 0.917769
O O1 0.103054 0.036529 0.969974
O O2 0.344555 0.026090 0.948941
O O3 0.250000 0.250000 0.000000
O O4 0.400261 0.039843 0.057681
O O5 0.074655 0.264439 0.563952
O O6 0.956150 0.154035 0.632294
O O7 0.179320 0.037064 0.617360
O O8 0.264283 0.810626 0.325977
O O9 0.310107 0.932946 0.235533
O O10 0.535655 0.869816 0.329258
O O11 0.355250 0.050542 0.345956
O O12 0.405771 0.116684 0.181688
O O13 0.000000 0.833198 0.250000
#
# Coordination Sequence:
#
# PCOD9267092 Si02
#       6
#     8   8   8   8   8   8
#     4   9  20  36  64  97 118 166 218 254 311 372
#     4  11  21  38  65  89 122 165 211 252 316 376
#     4  11  22  38  59  89 124 163 200 253 319 367
#     4  11  24  39  58  94 128 158 202 259 311 376
#     4  12  21  39  61  87 125 166 204 254 315 383
#     4  10  19  38  65  88 128 164 206 267 308 361
#
# _framework density 22.950032
#
# number of rings (size 3 to 8) (size 9 to 14) (size 15 to 20)
#    0.000    1.333    6.667    0.000    0.000    1.333 
#    0.000    0.833    0.000    6.000    0.000    0.000 
#    0.000    0.000    0.000    0.000    0.000    0.000 
#
# Total GULP energy -133826.211372 kJ/mol
# GULP energy per Si atom -5576.092141 kJ/mol
# Density = 2.289780 g / cm^3
# Si number density = 22.950032 Si / 1000 Ang^3
#
#
#
# Elastic Constant Matrix: (Units=GPa)
#
#
# Indices 1 2 3 4 5 6 
#
# 1 140.5608 22.5678 18.9745 0.0000 11.8515 0.0000
# 2 22.5678 26.0012 0.1044 0.0000 -8.8047 0.0000
# 3 18.9745 0.1044 63.1595 0.0000 20.9527 0.0000
# 4 0.0000 0.0000 0.0000 20.6424 0.0000 0.6545
# 5 11.8515 -8.8047 20.9527 0.0000 50.9618 0.0000
# 6 0.0000 0.0000 0.0000 0.6545 0.0000 40.9332
#
#
#
# Elastic Compliance Matrix: (Units=1/GPa)
#
#
# Indices 1 2 3 4 5 6 
#
# 1 0.009004 -0.008791 -0.001728 0.000000 -0.002902 0.000000
# 2 -0.008791 0.049861 -0.001132 0.000000 0.011124 0.000000
# 3 -0.001728 -0.001132 0.018857 0.000000 -0.007547 0.000000
# 4 0.000000 0.000000 0.000000 0.048469 0.000000 -0.000775
# 5 -0.002902 0.011124 -0.007547 0.000000 0.025322 0.000000
# 6 0.000000 0.000000 0.000000 -0.000775 0.000000 0.024442
#
#
# Mechanical properties :
#
#
# Convention : Reuss Voigt Hill
#
# Bulk Modulus (GPa) = 18.37490 34.77943 26.57717
# Shear Modulus (GPa) = 22.99950 35.04579 29.02264
#
# Velocity S-wave (km/s) = 3.16912 3.91199 3.55998
# Velocity P-wave (km/s) = 4.62763 5.96592 5.33887
#
# Compressibility (1/GPa) = 0.05442205
#
# Stress axis : x y z
#
# Youngs Moduli (GPa) = 111.06598 20.05576 53.02954
#
# Poissons Ratio (x) = 0.17630 0.09161
# Poissons Ratio (y) = 0.97634 0.06002
# Poissons Ratio (z) = 0.19187 0.02270
#
# Static dielectric constant tensor:
#      x y z
#    x 1.901830 0.000000 -0.009500 
#    y 0.000000 1.850440 0.000000 
#    z -0.009500 0.000000 1.941900 
# 
# From -- ./inp_files/263057.got.cif
#   From: 2010.05.17/outbox.cif.g08.bks.cpg/sg15_132_cif.got.tgz:263057.got - 2010.06.03 18:47:42.
