data_PCOD9267626
_publ_section_title
;
Structure prediction by ZEFSAII (Michael W. Deem and Ramdas Pophale) SiO2 
 PCOD9267626
Probable space group: C 2/C
;
_chemical_formula_sum "Si O2"
_cell_formula_units_Z 56
_cell_length_a 28.652368
_cell_length_b 7.462943
_cell_length_c 18.366357
_cell_angle_alpha 90.000000
_cell_angle_beta 143.326557
_cell_angle_gamma 90.000000
_cell_volume 2345.591272
_symmetry_space_group_name_H-M "C 2/C"
_symmetry_group_IT_number 15
_symmetry_cell_setting 'monoclinic'
loop_
_space_group_symop_operation_xyz
x,y,z
-x,y,1/2-z
-x,-y,-z
x,-y,1/2+z
1/2+x,1/2+y,z
1/2-x,1/2+y,1/2-z
1/2-x,1/2-y,-z
1/2+x,1/2-y,1/2+z
loop_
_atom_site_type_symbol
_atom_site_label
_atom_site_fract_x
_atom_site_fract_y
_atom_site_fract_z
Si Si1 0.000000 0.410830 0.750000
Si Si2 0.750000 0.750000 0.500000
Si Si3 0.476369 0.259851 0.910077
Si Si4 0.712626 0.372494 0.355114
Si Si5 0.118611 0.899330 0.843149
Si Si6 0.621537 0.516490 0.606966
Si Si7 0.118324 0.481746 0.774254
Si Si8 0.875479 0.810722 0.035828
O O1 0.067676 0.493452 0.784978
O O2 0.050470 0.316949 0.877409
O O3 0.671265 0.731220 0.456535
O O4 0.807997 0.614284 0.626612
O O5 0.446503 0.346024 0.795259
O O6 0.431949 0.372578 0.916405
O O7 0.440435 0.061818 0.860141
O O8 0.567090 0.308006 0.028595
O O9 0.696721 0.539082 0.391281
O O10 0.692144 0.437425 0.249029
O O11 0.798192 0.291540 0.466082
O O12 0.650704 0.217113 0.299319
O O13 0.094972 0.060431 0.862943
O O14 0.642993 0.424389 0.558405
#
# Coordination Sequence:
#
# PCOD9267626 Si02
#       8
#     4   4   8   8   8   8   8   8
#     4  12  26  40  70 114 132 162 246 294 336 382
#     4  10  20  38  68  96 128 168 218 268 344 398
#     4   9  22  42  66  92 133 174 221 270 349 402
#     4  11  23  44  66  94 137 179 225 265 352 411
#     4  10  19  39  69  94 123 171 222 280 338 395
#     4  10  24  43  62  95 133 186 220 270 339 418
#     4  11  23  42  68 102 131 177 220 290 336 408
#     4  12  23  41  69  99 135 176 226 290 332 398
#
# _framework density 23.874580000000002
#
# number of rings (size 3 to 8) (size 9 to 14) (size 15 to 20)
#    0.000    1.429    2.857    2.143    4.000    4.000 
#    5.143    0.000    0.000    0.000    0.000    0.000 
#    0.000    0.000    0.000    0.000    0.000    0.000 
#
# Total GULP energy -155926.818237 kJ/mol
# GULP energy per Si atom -5568.814937 kJ/mol
# Density = 2.382024 g / cm^3
# Si number density = 23.874580 Si / 1000 Ang^3
#
#
#
# Elastic Constant Matrix: (Units=GPa)
#
#
# Indices 1 2 3 4 5 6 
#
# 1 63.9803 33.6189 29.1567 0.0000 -3.0614 0.0000
# 2 33.6189 82.8908 8.8894 0.0000 0.2494 0.0000
# 3 29.1567 8.8894 101.1905 0.0000 -3.5766 0.0000
# 4 0.0000 0.0000 0.0000 34.9764 0.0000 6.8232
# 5 -3.0614 0.2494 -3.5766 0.0000 38.3707 0.0000
# 6 0.0000 0.0000 0.0000 6.8232 0.0000 23.9043
#
#
#
# Elastic Compliance Matrix: (Units=1/GPa)
#
#
# Indices 1 2 3 4 5 6 
#
# 1 0.022883 -0.008665 -0.005785 0.000000 0.001343 0.000000
# 2 -0.008665 0.015461 0.001114 0.000000 -0.000688 0.000000
# 3 -0.005785 0.001114 0.011473 0.000000 0.000601 0.000000
# 4 0.000000 0.000000 0.000000 0.030277 0.000000 -0.008642
# 5 0.001343 -0.000688 0.000601 0.000000 0.026229 0.000000
# 6 0.000000 0.000000 0.000000 -0.008642 0.000000 0.044300
#
#
# Mechanical properties :
#
#
# Convention : Reuss Voigt Hill
#
# Bulk Modulus (GPa) = 43.20445 43.48797 43.34621
# Shear Modulus (GPa) = 27.02576 31.21006 29.11791
#
# Velocity S-wave (km/s) = 3.36815 3.61951 3.49609
# Velocity P-wave (km/s) = 5.76729 5.97684 5.87300
#
# Compressibility (1/GPa) = 0.02314576
#
# Stress axis : x y z
#
# Youngs Moduli (GPa) = 43.70015 64.67939 87.16464
#
# Poissons Ratio (x) = 0.56042 0.50424
# Poissons Ratio (y) = 0.37865 -0.09711
# Poissons Ratio (z) = 0.25280 -0.07206
#
# Static dielectric constant tensor:
#      x y z
#    x 1.948570 0.000000 0.017290 
#    y 0.000000 2.336710 0.000000 
#    z 0.017290 0.000000 1.989330 
# 
# From -- ./inp_files/222102.got.cif
#   From: 2010.05.17/outbox.cif.g08.bks.cpg/sg15_112_cif.got.tgz:222102.got - 2010.06.03 18:47:42.
