data_PCOD9267536
_publ_section_title
;
Structure prediction by ZEFSAII (Michael W. Deem and Ramdas Pophale) SiO2 
 PCOD9267536
Probable space group: C 2/C
;
_chemical_formula_sum "Si O2"
_cell_formula_units_Z 48
_cell_length_a 18.627894
_cell_length_b 13.931142
_cell_length_c 22.648541
_cell_angle_alpha 90.000000
_cell_angle_beta 20.709255
_cell_angle_gamma 90.000000
_cell_volume 2078.427233
_symmetry_space_group_name_H-M "C 2/C"
_symmetry_group_IT_number 15
_symmetry_cell_setting 'monoclinic'
loop_
_space_group_symop_operation_xyz
x,y,z
-x,y,1/2-z
-x,-y,-z
x,-y,1/2+z
1/2+x,1/2+y,z
1/2-x,1/2+y,1/2-z
1/2-x,1/2-y,-z
1/2+x,1/2-y,1/2+z
loop_
_atom_site_type_symbol
_atom_site_label
_atom_site_fract_x
_atom_site_fract_y
_atom_site_fract_z
Si Si1 0.668997 0.529334 0.026900
Si Si2 0.956543 0.777186 0.716429
Si Si3 0.346889 0.541539 0.701646
Si Si4 0.857744 0.143861 0.114167
Si Si5 0.530230 0.069533 0.288135
Si Si6 0.501422 0.834449 0.430742
O O1 0.617971 0.639646 0.076184
O O2 0.461210 0.470200 0.175994
O O3 0.376477 0.562085 0.149064
O O4 0.817820 0.484098 0.961817
O O5 0.958184 0.690656 0.668850
O O6 0.000000 0.748274 0.750000
O O7 0.738904 0.828503 0.878102
O O8 0.521308 0.382582 0.438034
O O9 0.195680 0.508811 0.636503
O O10 0.117038 0.574066 0.867574
O O11 0.635151 0.130306 0.257474
O O12 0.905235 0.245466 0.104886
O O13 0.500000 0.128289 0.250000
#
# Coordination Sequence:
#
# PCOD9267536 Si02
#       6
#     8   8   8   8   8   8
#     4   8  18  40  62  91 121 164 215 259 313 380
#     4  12  26  43  58  94 139 164 210 268 329 387
#     4  10  20  38  66  90 124 169 214 261 314 385
#     4  10  19  39  65  92 123 168 218 255 317 392
#     4   7  17  34  69  90 114 166 217 253 306 379
#     4  12  25  42  63  97 129 171 217 265 324 380
#
# _framework density 23.094386
#
# number of rings (size 3 to 8) (size 9 to 14) (size 15 to 20)
#    1.000    1.000    3.333    0.500    2.333    0.667 
#    6.000    0.833    0.000    0.000    0.000    0.000 
#    0.000    0.000    0.000    0.000    0.000    0.000 
#
# Total GULP energy -134010.190630 kJ/mol
# GULP energy per Si atom -5583.757943 kJ/mol
# Density = 2.304182 g / cm^3
# Si number density = 23.094386 Si / 1000 Ang^3
#
#
#
# Elastic Constant Matrix: (Units=GPa)
#
#
# Indices 1 2 3 4 5 6 
#
# 1 86.9221 26.7712 36.4527 -0.0022 -24.8861 0.0127
# 2 26.7712 49.0490 18.3263 0.0437 -0.3785 -0.0170
# 3 36.4527 18.3263 131.8999 0.0012 -36.3728 -0.0143
# 4 -0.0022 0.0437 0.0012 20.3571 0.0019 -0.0252
# 5 -24.8861 -0.3785 -36.3728 0.0019 40.1084 -0.0107
# 6 0.0127 -0.0170 -0.0143 -0.0252 -0.0107 11.4288
#
#
#
# Elastic Compliance Matrix: (Units=1/GPa)
#
#
# Indices 1 2 3 4 5 6 
#
# 1 0.017564 -0.009213 -0.000790 0.000021 0.010094 -0.000025
# 2 -0.009213 0.026678 -0.003557 -0.000057 -0.008690 0.000037
# 3 -0.000790 -0.003557 0.010867 0.000006 0.009331 0.000018
# 4 0.000021 -0.000057 0.000006 0.049123 0.000016 0.000108
# 5 0.010094 -0.008690 0.009331 0.000016 0.039576 0.000025
# 6 -0.000025 0.000037 0.000018 0.000108 0.000025 0.087499
#
#
# Mechanical properties :
#
#
# Convention : Reuss Voigt Hill
#
# Bulk Modulus (GPa) = 35.72924 47.88570 41.80747
# Shear Modulus (GPa) = 18.67365 26.80025 22.73695
#
# Velocity S-wave (km/s) = 2.84664 3.41026 3.14111
# Velocity P-wave (km/s) = 5.12923 6.02381 5.59443
#
# Compressibility (1/GPa) = 0.02798828
#
# Stress axis : x y z
#
# Youngs Moduli (GPa) = 56.93623 37.48354 92.01887
#
# Poissons Ratio (x) = 0.34534 0.07273
# Poissons Ratio (y) = 0.52456 0.32731
# Poissons Ratio (z) = 0.04500 0.13333
#
# Static dielectric constant tensor:
#      x y z
#    x 1.918270 0.000010 -0.024040 
#    y 0.000010 1.814640 0.000070 
#    z -0.024040 0.000070 1.966400 
# 
# From -- ./inp_files/299257.got.cif
#   From: 2010.05.17/outbox.cif.g08.bks.cpg/sg15_150_cif.got.tgz:299257.got - 2010.06.03 18:47:42.
