data_PCOD9267744
_publ_section_title
;
Structure prediction by ZEFSAII (Michael W. Deem and Ramdas Pophale) SiO2 
 PCOD9267744
Probable space group: C 2/C
;
_chemical_formula_sum "Si O2"
_cell_formula_units_Z 48
_cell_length_a 13.280346
_cell_length_b 28.870869
_cell_length_c 9.225950
_cell_angle_alpha 90.000000
_cell_angle_beta 34.072150
_cell_angle_gamma 90.000000
_cell_volume 1981.762875
_symmetry_space_group_name_H-M "C 2/C"
_symmetry_group_IT_number 15
_symmetry_cell_setting 'monoclinic'
loop_
_space_group_symop_operation_xyz
x,y,z
-x,y,1/2-z
-x,-y,-z
x,-y,1/2+z
1/2+x,1/2+y,z
1/2-x,1/2+y,1/2-z
1/2-x,1/2-y,-z
1/2+x,1/2-y,1/2+z
loop_
_atom_site_type_symbol
_atom_site_label
_atom_site_fract_x
_atom_site_fract_y
_atom_site_fract_z
Si Si1 0.863165 0.546989 0.774662
Si Si2 0.839390 0.863744 0.057337
Si Si3 0.400083 0.401302 0.507625
Si Si4 0.794270 0.011044 0.279386
Si Si5 0.079424 0.234705 0.002679
Si Si6 0.334868 0.699426 0.058617
O O1 0.812138 0.600435 0.811032
O O2 0.845232 0.523623 0.635103
O O3 0.000000 0.543995 0.750000
O O4 0.713986 0.517013 0.038535
O O5 0.787267 0.809560 0.133472
O O6 0.000000 0.865347 0.750000
O O7 0.936883 0.884291 0.083368
O O8 0.271679 0.437866 0.735622
O O9 0.294947 0.354650 0.589234
O O10 0.500000 0.421128 0.250000
O O11 0.000000 0.000000 0.000000
O O12 0.160563 0.268693 0.783881
O O13 0.000000 0.253038 0.250000
O O14 0.912909 0.209147 0.125324
O O15 0.500000 0.708629 0.750000
#
# Coordination Sequence:
#
# PCOD9267744 Si02
#       6
#     8   8   8   8   8   8
#     4  12  25  41  62  95 134 159 201 273 329 369
#     4  10  19  40  63  88 120 168 216 258 310 388
#     4  10  20  36  64  93 117 162 225 261 294 382
#     4  12  22  41  68  90 120 170 217 247 311 392
#     4  10  21  38  64  92 126 165 220 269 317 387
#     4  10  21  39  62  90 132 167 211 270 325 378
#
# _framework density 24.220859000000001
#
# number of rings (size 3 to 8) (size 9 to 14) (size 15 to 20)
#    0.000    1.333    3.333    3.000    0.000    0.000 
#    3.000    0.000    0.000    0.000    0.000    0.000 
#    0.000    0.000    0.000    0.000    0.000    0.000 
#
# Total GULP energy -133694.160179 kJ/mol
# GULP energy per Si atom -5570.590007 kJ/mol
# Density = 2.416573 g / cm^3
# Si number density = 24.220859 Si / 1000 Ang^3
#
#
#
# Elastic Constant Matrix: (Units=GPa)
#
#
# Indices 1 2 3 4 5 6 
#
# 1 57.9601 2.6610 -16.6447 0.0000 2.6034 0.0000
# 2 2.6610 129.0834 14.6815 0.0000 -1.4976 0.0000
# 3 -16.6447 14.6815 64.6262 0.0000 28.7072 0.0000
# 4 0.0000 0.0000 0.0000 13.5655 0.0000 6.9914
# 5 2.6034 -1.4976 28.7072 0.0000 38.4352 0.0000
# 6 0.0000 0.0000 0.0000 6.9914 0.0000 17.7053
#
#
#
# Elastic Compliance Matrix: (Units=1/GPa)
#
#
# Indices 1 2 3 4 5 6 
#
# 1 0.020392 -0.001582 0.009357 0.000000 -0.008431 0.000000
# 2 -0.001582 0.008237 -0.003695 0.000000 0.003188 0.000000
# 3 0.009357 -0.003695 0.028536 0.000000 -0.022091 0.000000
# 4 0.000000 0.000000 0.000000 0.092551 0.000000 -0.036546
# 5 -0.008431 0.003188 -0.022091 0.000000 0.043213 0.000000
# 6 0.000000 0.000000 0.000000 -0.036546 0.000000 0.070911
#
#
# Mechanical properties :
#
#
# Convention : Reuss Voigt Hill
#
# Bulk Modulus (GPa) = 15.30851 28.11837 21.71344
# Shear Modulus (GPa) = 18.02095 30.67266 24.34681
#
# Velocity S-wave (km/s) = 2.73064 3.56248 3.17393
# Velocity P-wave (km/s) = 4.03435 5.34378 4.73455
#
# Compressibility (1/GPa) = 0.06532313
#
# Stress axis : x y z
#
# Youngs Moduli (GPa) = 49.03980 121.40698 35.04382
#
# Poissons Ratio (x) = 0.19211 -0.32789
# Poissons Ratio (y) = 0.07760 0.12948
# Poissons Ratio (z) = -0.45885 0.44857
#
# Static dielectric constant tensor:
#      x y z
#    x 2.183780 0.000000 -0.068370 
#    y 0.000000 2.074480 0.000000 
#    z -0.068370 0.000000 2.208050 
# 
# From -- ./inp_files/44410.got.cif
#   From: 2010.05.17/outbox.cif.g08.bks.cpg/sg15_23_cif.got.tgz:44410.got - 2010.06.03 18:47:42.
