data_PCOD9267286
_publ_section_title
;
Structure prediction by ZEFSAII (Michael W. Deem and Ramdas Pophale) SiO2 
 PCOD9267286
Probable space group: C 2/C
;
_chemical_formula_sum "Si O2"
_cell_formula_units_Z 44
_cell_length_a 19.616551
_cell_length_b 19.153526
_cell_length_c 12.424016
_cell_angle_alpha 90.000000
_cell_angle_beta 150.863392
_cell_angle_gamma 90.000000
_cell_volume 2272.832443
_symmetry_space_group_name_H-M "C 2/C"
_symmetry_group_IT_number 15
_symmetry_cell_setting 'monoclinic'
loop_
_space_group_symop_operation_xyz
x,y,z
-x,y,1/2-z
-x,-y,-z
x,-y,1/2+z
1/2+x,1/2+y,z
1/2-x,1/2+y,1/2-z
1/2-x,1/2-y,-z
1/2+x,1/2-y,1/2+z
loop_
_atom_site_type_symbol
_atom_site_label
_atom_site_fract_x
_atom_site_fract_y
_atom_site_fract_z
Si Si1 0.891967 0.539573 0.201920
Si Si2 0.061588 0.939717 0.221262
Si Si3 0.527850 0.109577 0.588442
Si Si4 0.307519 0.322401 0.486748
Si Si5 0.000000 0.306462 0.250000
Si Si6 0.517257 0.600898 0.114783
O O1 0.907205 0.463201 0.278138
O O2 0.000000 0.542907 0.250000
O O3 0.939390 0.592395 0.361465
O O4 0.730648 0.554809 0.949912
O O5 0.000000 0.914930 0.250000
O O6 0.004480 0.895408 0.042172
O O7 0.007173 0.019298 0.130766
O O8 0.650807 0.164514 0.734387
O O9 0.453695 0.144978 0.587690
O O10 0.370933 0.246098 0.593481
O O11 0.340850 0.368085 0.639513
O O12 0.400605 0.356757 0.519844
#
# Coordination Sequence:
#
# PCOD9267286 Si02
#       6
#     8   8   8   8   4   8
#     4  11  23  36  58  86 129 153 179 249 302 364
#     4  11  19  33  54  85 118 156 190 239 288 359
#     4  11  21  37  56  87 119 151 197 235 310 347
#     4  10  19  39  58  81 113 155 199 250 283 339
#     4  10  22  36  60  84 112 156 210 246 274 348
#     4   9  18  31  55  80 113 149 199 230 291 340
#
# _framework density 19.359103000000001
#
# number of rings (size 3 to 8) (size 9 to 14) (size 15 to 20)
#    0.000    1.818    4.545    1.636    0.000    5.818 
#    0.000    0.000    0.000   14.182    0.000    0.000 
#    0.000    0.000    0.000    0.000    0.000    0.000 
#
# Total GULP energy -122710.472278 kJ/mol
# GULP energy per Si atom -5577.748740 kJ/mol
# Density = 1.931504 g / cm^3
# Si number density = 19.359103 Si / 1000 Ang^3
#
#
#
# Elastic Constant Matrix: (Units=GPa)
#
#
# Indices 1 2 3 4 5 6 
#
# 1 99.1225 7.2518 33.8519 0.0000 -18.7791 0.0000
# 2 7.2518 57.6813 13.5910 0.0000 -13.3483 0.0000
# 3 33.8519 13.5910 56.4927 0.0000 -22.1025 0.0000
# 4 0.0000 0.0000 0.0000 15.1388 0.0000 -12.5277
# 5 -18.7791 -13.3483 -22.1025 0.0000 38.0425 0.0000
# 6 0.0000 0.0000 0.0000 -12.5277 0.0000 23.8261
#
#
#
# Elastic Compliance Matrix: (Units=1/GPa)
#
#
# Indices 1 2 3 4 5 6 
#
# 1 0.012873 0.000593 -0.006845 0.000000 0.002586 0.000000
# 2 0.000593 0.019178 -0.002875 0.000000 0.005351 0.000000
# 3 -0.006845 -0.002875 0.026890 0.000000 0.011236 0.000000
# 4 0.000000 0.000000 0.000000 0.116934 0.000000 0.061483
# 5 0.002586 0.005351 0.011236 0.000000 0.035968 0.000000
# 6 0.000000 0.000000 0.000000 0.061483 0.000000 0.074299
#
#
# Mechanical properties :
#
#
# Convention : Reuss Voigt Hill
#
# Bulk Modulus (GPa) = 24.57811 35.85398 30.21605
# Shear Modulus (GPa) = 15.72533 25.97494 20.85013
#
# Velocity S-wave (km/s) = 2.85317 3.66695 3.28536
# Velocity P-wave (km/s) = 4.85568 6.04065 5.48028
#
# Compressibility (1/GPa) = 0.04068661
#
# Stress axis : x y z
#
# Youngs Moduli (GPa) = 77.68475 52.14321 37.18790
#
# Poissons Ratio (x) = -0.03091 0.25453
# Poissons Ratio (y) = -0.04605 0.10693
# Poissons Ratio (z) = 0.53171 0.14993
#
# Static dielectric constant tensor:
#      x y z
#    x 1.741440 0.000000 0.017270 
#    y 0.000000 1.674180 0.000000 
#    z 0.017270 0.000000 1.672040 
# 
# From -- ./inp_files/114150.got.cif
#   From: 2010.05.17/outbox.cif.g08.bks.cpg/sg15_58_cif.got.tgz:114150.got - 2010.06.03 18:47:42.
