data_PCOD9267673
_publ_section_title
;
Structure prediction by ZEFSAII (Michael W. Deem and Ramdas Pophale) SiO2 
 PCOD9267673
Probable space group: C 2/C
;
_chemical_formula_sum "Si O2"
_cell_formula_units_Z 64
_cell_length_a 18.016598
_cell_length_b 12.472199
_cell_length_c 14.870642
_cell_angle_alpha 90.000000
_cell_angle_beta 94.965221
_cell_angle_gamma 90.000000
_cell_volume 3328.991970
_symmetry_space_group_name_H-M "C 2/C"
_symmetry_group_IT_number 15
_symmetry_cell_setting 'monoclinic'
loop_
_space_group_symop_operation_xyz
x,y,z
-x,y,1/2-z
-x,-y,-z
x,-y,1/2+z
1/2+x,1/2+y,z
1/2-x,1/2+y,1/2-z
1/2-x,1/2-y,-z
1/2+x,1/2-y,1/2+z
loop_
_atom_site_type_symbol
_atom_site_label
_atom_site_fract_x
_atom_site_fract_y
_atom_site_fract_z
Si Si1 0.306629 0.031378 0.671172
Si Si2 0.576070 0.889468 0.561917
Si Si3 0.888324 0.811832 0.938672
Si Si4 0.409032 0.101596 0.055065
Si Si5 0.637117 0.254358 0.771913
Si Si6 0.560108 0.316461 0.937691
Si Si7 0.690313 0.473054 0.009758
Si Si8 0.731273 0.905120 0.661396
O O1 0.358576 0.128195 0.708720
O O2 0.354910 0.940412 0.626539
O O3 0.245208 0.069419 0.592926
O O4 0.266911 0.982197 0.753168
O O5 0.494225 0.883215 0.596828
O O6 0.575679 0.799694 0.483874
O O7 0.646481 0.871666 0.632902
O O8 0.586061 0.006053 0.517935
O O9 0.873057 0.779243 0.833818
O O10 0.836179 0.908484 0.965514
O O11 0.975220 0.845929 0.949413
O O12 0.881662 0.708802 0.002812
O O13 0.576361 0.305532 0.833001
O O14 0.714982 0.305851 0.812712
O O15 0.618294 0.399163 0.986638
O O16 0.736802 0.465898 0.922536
#
# Coordination Sequence:
#
# PCOD9267673 Si02
#       8
#     8   8   8   8   8   8   8   8
#     4  12  23  40  62  96 125 166 208 257 317 373
#     4  10  19  40  59  90 120 160 206 253 315 368
#     4  11  23  41  63  94 129 166 209 263 318 371
#     4  10  22  37  62  88 125 161 201 257 317 369
#     4  11  22  38  63  94 123 162 215 261 304 372
#     4  10  21  40  67  90 123 168 214 263 306 369
#     4  11  23  41  63  92 129 168 213 254 316 375
#     4  11  23  39  62  89 124 165 207 261 308 370
#
# _framework density 19.225038000000001
#
# number of rings (size 3 to 8) (size 9 to 14) (size 15 to 20)
#    0.000    1.250    3.750    2.250    0.000    4.000 
#    2.250    0.000    0.000    1.500    0.000    0.000 
#    0.000    0.000    0.000    0.000    0.000    0.000 
#
# Total GULP energy -178787.781479 kJ/mol
# GULP energy per Si atom -5587.118171 kJ/mol
# Density = 1.918128 g / cm^3
# Si number density = 19.225038 Si / 1000 Ang^3
#
#
#
# Elastic Constant Matrix: (Units=GPa)
#
#
# Indices 1 2 3 4 5 6 
#
# 1 78.0206 21.6251 37.7143 0.0000 14.0320 0.0000
# 2 21.6251 69.3282 25.4537 0.0000 -5.1082 0.0000
# 3 37.7143 25.4537 100.7806 0.0000 1.1060 0.0000
# 4 0.0000 0.0000 0.0000 28.7729 0.0000 -0.5975
# 5 14.0320 -5.1082 1.1060 0.0000 12.7192 0.0000
# 6 0.0000 0.0000 0.0000 -0.5975 0.0000 23.6757
#
#
#
# Elastic Compliance Matrix: (Units=1/GPa)
#
#
# Indices 1 2 3 4 5 6 
#
# 1 0.022705 -0.006695 -0.006508 0.000000 -0.027172 0.000000
# 2 -0.006695 0.018472 -0.002325 0.000000 0.015007 0.000000
# 3 -0.006508 -0.002325 0.012889 0.000000 0.005125 0.000000
# 4 0.000000 0.000000 0.000000 0.034773 0.000000 0.000878
# 5 -0.027172 0.015007 0.005125 0.000000 0.114178 0.000000
# 6 0.000000 0.000000 0.000000 0.000878 0.000000 0.042260
#
#
# Mechanical properties :
#
#
# Convention : Reuss Voigt Hill
#
# Bulk Modulus (GPa) = 43.45735 46.41286 44.93510
# Shear Modulus (GPa) = 17.60551 23.92265 20.76408
#
# Velocity S-wave (km/s) = 3.02943 3.53136 3.28998
# Velocity P-wave (km/s) = 5.90680 6.38918 6.15272
#
# Compressibility (1/GPa) = 0.02301107
#
# Stress axis : x y z
#
# Youngs Moduli (GPa) = 44.04235 54.13692 77.58713
#
# Poissons Ratio (x) = 0.36245 0.50491
# Poissons Ratio (y) = 0.29487 0.18035
# Poissons Ratio (z) = 0.28662 0.12584
#
# Static dielectric constant tensor:
#      x y z
#    x 1.687250 0.000000 0.003160 
#    y 0.000000 1.651530 0.000000 
#    z 0.003160 0.000000 1.645830 
# 
# From -- ./inp_files/161343.got.cif
#   From: 2010.05.17/outbox.cif.g08.bks.cpg/sg15_81_cif.got.tgz:161343.got - 2010.06.03 18:47:42.
