data_PCOD9267501
_publ_section_title
;
Structure prediction by ZEFSAII (Michael W. Deem and Ramdas Pophale) SiO2 
 PCOD9267501
Probable space group: C 2/C
;
_chemical_formula_sum "Si O2"
_cell_formula_units_Z 48
_cell_length_a 8.940906
_cell_length_b 28.888658
_cell_length_c 9.481003
_cell_angle_alpha 90.000000
_cell_angle_beta 93.196934
_cell_angle_gamma 90.000000
_cell_volume 2445.044587
_symmetry_space_group_name_H-M "C 2/C"
_symmetry_group_IT_number 15
_symmetry_cell_setting 'monoclinic'
loop_
_space_group_symop_operation_xyz
x,y,z
-x,y,1/2-z
-x,-y,-z
x,-y,1/2+z
1/2+x,1/2+y,z
1/2-x,1/2+y,1/2-z
1/2-x,1/2-y,-z
1/2+x,1/2-y,1/2+z
loop_
_atom_site_type_symbol
_atom_site_label
_atom_site_fract_x
_atom_site_fract_y
_atom_site_fract_z
Si Si1 0.665337 0.813644 0.552753
Si Si2 0.636116 0.034129 0.150058
Si Si3 0.079510 0.565166 0.605877
Si Si4 0.674822 0.719225 0.724271
Si Si5 0.176363 0.882894 0.744024
Si Si6 0.319746 0.162768 0.979983
O O1 0.685181 0.771962 0.667425
O O2 0.743989 0.804932 0.405675
O O3 0.747147 0.857259 0.621822
O O4 0.488225 0.822095 0.528658
O O5 0.500000 0.027556 0.250000
O O6 0.755143 0.065495 0.239142
O O7 0.677741 0.982043 0.104905
O O8 0.553547 0.059361 0.015538
O O9 0.167874 0.612593 0.592406
O O10 0.000000 0.568629 0.750000
O O11 0.500000 0.709482 0.750000
O O12 0.756779 0.701789 0.870823
O O13 0.224227 0.851640 0.612266
O O14 0.000000 0.884097 0.750000
#
# Coordination Sequence:
#
# PCOD9267501 Si02
#       6
#     8   8   8   8   8   8
#     4  11  24  43  67  90 125 172 216 259 313 389
#     4  10  19  39  64  93 123 161 216 256 313 380
#     4  10  20  35  68  94 119 161 214 259 299 387
#     4  11  25  42  63  97 130 161 211 272 322 369
#     4  12  24  40  63  92 129 165 212 270 327 369
#     4  12  23  43  66  92 124 174 217 257 317 387
#
# _framework density 19.631542
#
# number of rings (size 3 to 8) (size 9 to 14) (size 15 to 20)
#    0.000    1.000    3.333    4.000    0.000    5.333 
#    0.000    1.667    0.000    0.000    0.000    0.000 
#    0.000    0.000    0.000    0.000    0.000    0.000 
#
# Total GULP energy -133798.681798 kJ/mol
# GULP energy per Si atom -5574.945075 kJ/mol
# Density = 1.958686 g / cm^3
# Si number density = 19.631542 Si / 1000 Ang^3
#
#
#
# Elastic Constant Matrix: (Units=GPa)
#
#
# Indices 1 2 3 4 5 6 
#
# 1 121.6379 56.7363 38.5041 0.0000 -2.7184 0.0000
# 2 56.7363 102.7280 35.9278 0.0000 10.0678 0.0000
# 3 38.5041 35.9278 92.9483 0.0000 -5.5714 0.0000
# 4 0.0000 0.0000 0.0000 37.9347 0.0000 14.1333
# 5 -2.7184 10.0678 -5.5714 0.0000 33.8823 0.0000
# 6 0.0000 0.0000 0.0000 14.1333 0.0000 -41.7675
#
#
#
# Elastic Compliance Matrix: (Units=1/GPa)
#
#
# Indices 1 2 3 4 5 6 
#
# 1 0.011796 -0.005871 -0.002480 0.000000 0.002283 0.000000
# 2 -0.005871 0.014772 -0.003605 0.000000 -0.005453 0.000000
# 3 -0.002480 -0.003605 0.013363 0.000000 0.003069 0.000000
# 4 0.000000 0.000000 0.000000 0.023410 0.000000 0.007921
# 5 0.002283 -0.005453 0.003069 0.000000 0.031822 0.000000
# 6 0.000000 0.000000 0.000000 0.007921 0.000000 -0.021262
#
#
# Mechanical properties :
#
#
# Convention : Reuss Voigt Hill
#
# Bulk Modulus (GPa) = 62.42449 64.40564 63.41507
# Shear Modulus (GPa) = 48.47152 18.41965 33.44558
#
# Velocity S-wave (km/s) = 4.97436 3.06644 4.13203
# Velocity P-wave (km/s) = 8.05353 6.73913 7.42547
#
# Compressibility (1/GPa) = 0.01601935
#
# Stress axis : x y z
#
# Youngs Moduli (GPa) = 84.77647 67.69496 74.83108
#
# Poissons Ratio (x) = 0.39744 0.18560
# Poissons Ratio (y) = 0.49773 0.26974
# Poissons Ratio (z) = 0.21026 0.24402
#
# Static dielectric constant tensor:
#      x y z
#    x 1.648130 0.000000 -0.016910 
#    y 0.000000 1.702290 0.000000 
#    z -0.016910 0.000000 1.725460 
# 
# From -- ./inp_files/26147.got.cif
#   From: 2010.05.17/outbox.cif.g08.bks.cpg/sg15_14_cif.got.tgz:26147.got - 2010.06.03 18:47:42.
