data_PCOD9267158
_publ_section_title
;
Structure prediction by ZEFSAII (Michael W. Deem and Ramdas Pophale) SiO2 
 PCOD9267158
Probable space group: C 2/C
;
_chemical_formula_sum "Si O2"
_cell_formula_units_Z 56
_cell_length_a 8.770563
_cell_length_b 23.656735
_cell_length_c 13.348796
_cell_angle_alpha 90.000000
_cell_angle_beta 112.200929
_cell_angle_gamma 90.000000
_cell_volume 2564.317443
_symmetry_space_group_name_H-M "C 2/C"
_symmetry_group_IT_number 15
_symmetry_cell_setting 'monoclinic'
loop_
_space_group_symop_operation_xyz
x,y,z
-x,y,1/2-z
-x,-y,-z
x,-y,1/2+z
1/2+x,1/2+y,z
1/2-x,1/2+y,1/2-z
1/2-x,1/2-y,-z
1/2+x,1/2-y,1/2+z
loop_
_atom_site_type_symbol
_atom_site_label
_atom_site_fract_x
_atom_site_fract_y
_atom_site_fract_z
Si Si1 0.956938 0.004554 0.856766
Si Si2 0.664303 0.754341 0.728452
Si Si3 0.955687 0.422274 0.419479
Si Si4 0.656877 0.625576 0.715662
Si Si5 0.190934 0.675022 0.034937
Si Si6 0.000979 0.771620 0.870488
Si Si7 0.212396 0.515932 0.444769
O O1 0.898095 0.070192 0.860438
O O2 0.000000 0.998557 0.750000
O O3 0.800805 0.969645 0.861239
O O4 0.127188 0.991806 0.955827
O O5 0.500000 0.756931 0.750000
O O6 0.683732 0.690426 0.688252
O O7 0.664532 0.799741 0.639430
O O8 0.809689 0.767486 0.843877
O O9 0.825898 0.393607 0.312062
O O10 0.852609 0.437338 0.493644
O O11 0.103145 0.382611 0.490939
O O12 0.053257 0.475363 0.396300
O O13 0.500000 0.630977 0.750000
O O14 0.388022 0.675595 0.069236
O O15 0.097831 0.719346 0.940559
O O16 0.000000 0.768176 0.750000
#
# Coordination Sequence:
#
# PCOD9267158 Si02
#       7
#     8   8   8   8   8   8   8
#     4  10  20  42  64  95 129 166 210 280 334 383
#     4  10  21  38  62  95 126 165 219 271 317 398
#     4  11  21  42  63  97 129 175 226 273 322 398
#     4  10  19  38  66  92 127 165 221 272 325 386
#     4  10  21  38  61  90 133 164 208 272 329 379
#     4   9  19  37  57  85 124 165 206 264 319 387
#     4  10  23  39  65  93 132 165 224 272 326 391
#
# _framework density 21.838170999999999
#
# number of rings (size 3 to 8) (size 9 to 14) (size 15 to 20)
#    0.000    2.000    4.286    0.000    0.000    4.571 
#    0.000    6.429    0.000    0.000    0.000    0.000 
#    0.000    0.000    0.000    0.000    0.000    0.000 
#
# Total GULP energy -156012.763403 kJ/mol
# GULP energy per Si atom -5571.884407 kJ/mol
# Density = 2.178847 g / cm^3
# Si number density = 21.838171 Si / 1000 Ang^3
#
#
#
# Elastic Constant Matrix: (Units=GPa)
#
#
# Indices 1 2 3 4 5 6 
#
# 1 133.9089 9.8121 36.9155 0.0000 25.1498 0.0000
# 2 9.8121 17.2879 8.0009 0.0000 6.2196 0.0000
# 3 36.9155 8.0009 79.5935 0.0000 16.6301 0.0000
# 4 0.0000 0.0000 0.0000 19.3393 0.0000 5.0606
# 5 25.1498 6.2196 16.6301 0.0000 38.2241 0.0000
# 6 0.0000 0.0000 0.0000 5.0606 0.0000 30.1078
#
#
#
# Elastic Compliance Matrix: (Units=1/GPa)
#
#
# Indices 1 2 3 4 5 6 
#
# 1 0.009335 -0.002244 -0.003187 0.000000 -0.004391 0.000000
# 2 -0.002244 0.063478 -0.003840 0.000000 -0.007182 0.000000
# 3 -0.003187 -0.003840 0.015245 0.000000 -0.003911 0.000000
# 4 0.000000 0.000000 0.000000 0.054087 0.000000 -0.009091
# 5 -0.004391 -0.007182 -0.003911 0.000000 0.031921 0.000000
# 6 0.000000 0.000000 0.000000 -0.009091 0.000000 0.034742
#
#
# Mechanical properties :
#
#
# Convention : Reuss Voigt Hill
#
# Bulk Modulus (GPa) = 14.38480 37.80527 26.09503
# Shear Modulus (GPa) = 19.95834 29.27168 24.61501
#
# Velocity S-wave (km/s) = 3.02639 3.66511 3.36096
# Velocity P-wave (km/s) = 4.33744 5.93800 5.19967
#
# Compressibility (1/GPa) = 0.06951783
#
# Stress axis : x y z
#
# Youngs Moduli (GPa) = 107.11986 15.75339 65.59520
#
# Poissons Ratio (x) = 0.03535 0.20904
# Poissons Ratio (y) = 0.24038 0.25186
# Poissons Ratio (z) = 0.34137 0.06049
#
# Static dielectric constant tensor:
#      x y z
#    x 1.937360 0.000000 -0.013610 
#    y 0.000000 1.849580 0.000000 
#    z -0.013610 0.000000 1.831920 
# 
# From -- ./inp_files/138693.got.cif
#   From: 2010.05.17/outbox.cif.g08.bks.cpg/sg15_70_cif.got.tgz:138693.got - 2010.06.03 18:47:42.
