data_PCOD9267920
_publ_section_title
;
Structure prediction by ZEFSAII (Michael W. Deem and Ramdas Pophale) SiO2 
 PCOD9267920
Probable space group: C 2/C
;
_chemical_formula_sum "Si O2"
_cell_formula_units_Z 40
_cell_length_a 6.954730
_cell_length_b 12.432244
_cell_length_c 25.753058
_cell_angle_alpha 90.000000
_cell_angle_beta 47.457441
_cell_angle_gamma 90.000000
_cell_volume 1640.565855
_symmetry_space_group_name_H-M "C 2/C"
_symmetry_group_IT_number 15
_symmetry_cell_setting 'monoclinic'
loop_
_space_group_symop_operation_xyz
x,y,z
-x,y,1/2-z
-x,-y,-z
x,-y,1/2+z
1/2+x,1/2+y,z
1/2-x,1/2+y,1/2-z
1/2-x,1/2-y,-z
1/2+x,1/2-y,1/2+z
loop_
_atom_site_type_symbol
_atom_site_label
_atom_site_fract_x
_atom_site_fract_y
_atom_site_fract_z
Si Si1 0.263700 0.338712 0.234783
Si Si2 0.424582 0.762795 0.385187
Si Si3 0.188267 0.323648 0.615841
Si Si4 0.981261 0.028600 0.136300
Si Si5 0.589140 0.596069 0.521335
O O1 0.164559 0.317706 0.310662
O O2 0.446352 0.243628 0.180210
O O3 0.394544 0.452665 0.198430
O O4 0.000000 0.336235 0.250000
O O5 0.544234 0.743489 0.420643
O O6 0.394786 0.640964 0.369608
O O7 0.165757 0.830083 0.426416
O O8 0.238996 0.427797 0.643996
O O9 0.194565 0.347350 0.553718
O O10 0.151299 0.956119 0.065531
O O11 0.500000 0.500000 0.500000
#
# Coordination Sequence:
#
# PCOD9267920 Si02
#       5
#     8   8   8   8   8
#     4  12  23  40  65  91 129 175 209 266 326 372
#     4  10  22  40  68  95 128 168 221 260 316 392
#     4   9  23  40  68  92 125 167 218 262 314 391
#     4   9  23  40  66  89 135 165 212 267 324 372
#     4  10  19  40  72  95 127 174 204 266 334 371
#
# _framework density 24.381830000000001
#
# number of rings (size 3 to 8) (size 9 to 14) (size 15 to 20)
#    1.200    0.800    2.000    1.200    2.800    0.800 
#    0.000    7.000    0.000    0.000    0.000    0.000 
#    0.000    0.000    0.000    0.000    0.000    0.000 
#
# Total GULP energy -111713.601726 kJ/mol
# GULP energy per Si atom -5585.680086 kJ/mol
# Density = 2.432634 g / cm^3
# Si number density = 24.381830 Si / 1000 Ang^3
#
#
#
# Elastic Constant Matrix: (Units=GPa)
#
#
# Indices 1 2 3 4 5 6 
#
# 1 35.6764 35.0257 18.2948 0.0010 -6.7723 0.0002
# 2 35.0257 151.6060 80.3098 -0.0003 -3.0617 0.0000
# 3 18.2948 80.3098 127.1422 0.0016 -3.3137 0.0007
# 4 0.0010 -0.0003 0.0016 42.2113 -0.0013 5.9721
# 5 -6.7723 -3.0617 -3.3137 -0.0013 28.0091 -0.0003
# 6 0.0002 0.0000 0.0007 5.9721 -0.0003 24.6127
#
#
#
# Elastic Compliance Matrix: (Units=1/GPa)
#
#
# Indices 1 2 3 4 5 6 
#
# 1 0.038075 -0.008779 0.000282 -0.000001 0.008280 0.000000
# 2 -0.008779 0.011940 -0.006320 0.000000 -0.001565 0.000000
# 3 0.000282 -0.006320 0.011837 0.000000 0.000778 0.000000
# 4 -0.000001 0.000000 0.000000 0.024533 0.000001 -0.005953
# 5 0.008280 -0.001565 0.000778 0.000001 0.037626 0.000000
# 6 0.000000 0.000000 0.000000 -0.005953 0.000000 0.042074
#
#
# Mechanical properties :
#
#
# Convention : Reuss Voigt Hill
#
# Bulk Modulus (GPa) = 31.03683 64.63169 47.83426
# Shear Modulus (GPa) = 24.21807 31.01957 27.61882
#
# Velocity S-wave (km/s) = 3.15506 3.57072 3.36930
# Velocity P-wave (km/s) = 5.10193 6.60043 5.89896
#
# Compressibility (1/GPa) = 0.03221979
#
# Stress axis : x y z
#
# Youngs Moduli (GPa) = 26.26361 83.74939 84.48259
#
# Poissons Ratio (x) = 0.73523 -0.02385
# Poissons Ratio (y) = 0.23057 0.53391
# Poissons Ratio (z) = -0.00741 0.52928
#
# Static dielectric constant tensor:
#      x y z
#    x 1.983390 0.000000 0.038510 
#    y 0.000000 1.989730 0.000000 
#    z 0.038510 0.000000 1.955070 
# 
# From -- ./inp_files/306843.got.cif
#   From: 2010.05.17/outbox.cif.g08.bks.cpg/sg15_154_cif.got.tgz:306843.got - 2010.06.03 18:47:42.
