data_PCOD9267947
_publ_section_title
;
Structure prediction by ZEFSAII (Michael W. Deem and Ramdas Pophale) SiO2 
 PCOD9267947
Probable space group: C 2/C
;
_chemical_formula_sum "Si O2"
_cell_formula_units_Z 52
_cell_length_a 8.781149
_cell_length_b 16.569962
_cell_length_c 25.853093
_cell_angle_alpha 90.000000
_cell_angle_beta 40.411989
_cell_angle_gamma 90.000000
_cell_volume 2438.638801
_symmetry_space_group_name_H-M "C 2/C"
_symmetry_group_IT_number 15
_symmetry_cell_setting 'monoclinic'
loop_
_space_group_symop_operation_xyz
x,y,z
-x,y,1/2-z
-x,-y,-z
x,-y,1/2+z
1/2+x,1/2+y,z
1/2-x,1/2+y,1/2-z
1/2-x,1/2-y,-z
1/2+x,1/2-y,1/2+z
loop_
_atom_site_type_symbol
_atom_site_label
_atom_site_fract_x
_atom_site_fract_y
_atom_site_fract_z
Si Si1 0.368602 0.368988 0.649939
Si Si2 0.466572 0.940527 0.684082
Si Si3 0.581892 0.145156 0.056928
Si Si4 0.000000 0.586704 0.750000
Si Si5 0.905102 0.181966 0.602783
Si Si6 0.896464 0.582756 0.003199
Si Si7 0.413582 0.796064 0.415796
O O1 0.266316 0.403499 0.729879
O O2 0.613881 0.413713 0.574150
O O3 0.396150 0.272664 0.645514
O O4 0.183469 0.391372 0.653419
O O5 0.483560 0.924528 0.619200
O O6 0.495015 0.028882 0.701031
O O7 0.504337 0.232697 0.098102
O O8 0.469867 0.144112 0.029408
O O9 0.860216 0.136901 0.977016
O O10 0.238588 0.637755 0.686672
O O11 0.736387 0.189611 0.596706
O O12 0.986735 0.621480 0.926068
O O13 0.000000 0.500000 0.000000
O O14 0.250000 0.750000 0.500000
#
# Coordination Sequence:
#
# PCOD9267947 Si02
#       7
#     8   8   8   4   8   8   8
#     4   9  20  42  63  85 130 175 212 259 332 398
#     4  10  24  43  66  94 131 175 219 267 337 398
#     4  11  24  40  67 101 127 170 221 280 323 395
#     4  10  26  44  64  96 130 184 218 272 330 402
#     4  11  24  41  69  97 132 173 229 268 326 407
#     4  11  24  37  64  95 132 167 215 276 334 385
#     4  10  19  41  61  91 128 173 214 262 330 392
#
# _framework density 21.323371999999999
#
# number of rings (size 3 to 8) (size 9 to 14) (size 15 to 20)
#    0.000    1.846    3.077    1.846   10.769    1.231 
#    0.000    0.000    0.000    0.000    0.000    0.000 
#    0.000    0.000    0.000    0.000    0.000    0.000 
#
# Total GULP energy -145065.859382 kJ/mol
# GULP energy per Si atom -5579.456130 kJ/mol
# Density = 2.127484 g / cm^3
# Si number density = 21.323372 Si / 1000 Ang^3
#
#
#
# Elastic Constant Matrix: (Units=GPa)
#
#
# Indices 1 2 3 4 5 6 
#
# 1 62.3171 9.0930 14.2093 -0.0017 9.3897 -0.0010
# 2 9.0930 88.0437 43.0393 0.0012 -10.9203 -0.0011
# 3 14.2093 43.0393 74.7565 -0.0037 -17.6314 0.0004
# 4 -0.0017 0.0012 -0.0037 33.0181 0.0010 1.7205
# 5 9.3897 -10.9203 -17.6314 0.0010 22.3531 0.0007
# 6 -0.0010 -0.0011 0.0004 1.7205 0.0007 21.7835
#
#
#
# Elastic Compliance Matrix: (Units=1/GPa)
#
#
# Indices 1 2 3 4 5 6 
#
# 1 0.019739 -0.000453 -0.006756 0.000001 -0.013842 0.000001
# 2 -0.000453 0.015825 -0.008792 -0.000002 0.000986 0.000001
# 3 -0.006756 -0.008792 0.023808 0.000002 0.017321 -0.000002
# 4 0.000001 -0.000002 0.000002 0.030412 -0.000001 -0.002402
# 5 -0.013842 0.000986 0.017321 -0.000001 0.064696 -0.000003
# 6 0.000001 0.000001 -0.000002 -0.002402 -0.000003 0.046096
#
#
# Mechanical properties :
#
#
# Convention : Reuss Voigt Hill
#
# Bulk Modulus (GPa) = 36.53563 39.75562 38.14562
# Shear Modulus (GPa) = 20.68676 26.01597 23.35136
#
# Velocity S-wave (km/s) = 3.11809 3.49674 3.31283
# Velocity P-wave (km/s) = 5.48950 5.91502 5.70623
#
# Compressibility (1/GPa) = 0.02737054
#
# Stress axis : x y z
#
# Youngs Moduli (GPa) = 50.66096 63.19080 42.00270
#
# Poissons Ratio (x) = 0.02863 0.28375
# Poissons Ratio (y) = 0.02295 0.36929
# Poissons Ratio (z) = 0.34225 0.55558
#
# Static dielectric constant tensor:
#      x y z
#    x 1.780180 0.000000 0.020430 
#    y 0.000000 1.904830 0.000000 
#    z 0.020430 0.000000 1.788120 
# 
# From -- ./inp_files/289544.got.cif
#   From: 2010.05.17/outbox.cif.g08.bks.cpg/sg15_145_cif.got.tgz:289544.got - 2010.06.03 18:47:42.
