data_PCOD9267599
_publ_section_title
;
Structure prediction by ZEFSAII (Michael W. Deem and Ramdas Pophale) SiO2 
 PCOD9267599
Probable space group: C 2/C
;
_chemical_formula_sum "Si O2"
_cell_formula_units_Z 40
_cell_length_a 9.049209
_cell_length_b 12.982925
_cell_length_c 29.245309
_cell_angle_alpha 90.000000
_cell_angle_beta 151.718770
_cell_angle_gamma 90.000000
_cell_volume 1627.924278
_symmetry_space_group_name_H-M "C 2/C"
_symmetry_group_IT_number 15
_symmetry_cell_setting 'monoclinic'
loop_
_space_group_symop_operation_xyz
x,y,z
-x,y,1/2-z
-x,-y,-z
x,-y,1/2+z
1/2+x,1/2+y,z
1/2-x,1/2+y,1/2-z
1/2-x,1/2-y,-z
1/2+x,1/2-y,1/2+z
loop_
_atom_site_type_symbol
_atom_site_label
_atom_site_fract_x
_atom_site_fract_y
_atom_site_fract_z
Si Si1 0.806940 0.271692 0.569164
Si Si2 0.138608 0.785891 0.658908
Si Si3 0.786744 0.879010 0.492280
Si Si4 0.796811 0.359169 0.239569
Si Si5 0.344957 0.028274 0.326213
O O1 0.750000 0.250000 0.500000
O O2 0.527248 0.329738 0.520378
O O3 0.941774 0.167628 0.628844
O O4 0.091563 0.351448 0.654340
O O5 0.500000 0.805598 0.750000
O O6 0.094025 0.729934 0.694919
O O7 0.942603 0.880313 0.584841
O O8 0.009935 0.696858 0.590229
O O9 0.635008 0.983924 0.434425
O O10 0.852431 0.467724 0.280300
O O11 0.000000 0.356961 0.250000
O O12 0.000000 0.004013 0.250000
#
# Coordination Sequence:
#
# PCOD9267599 Si02
#       5
#     8   8   8   8   8
#     4  12  25  46  73 108 151 190 249 312 369 431
#     4  10  19  39  68 105 139 189 242 292 360 436
#     4  10  21  38  74 105 143 191 251 294 367 432
#     4  11  23  45  72 106 149 196 244 307 372 428
#     4  11  26  49  74 107 154 192 251 302 368 450
#
# _framework density 24.571166999999999
#
# number of rings (size 3 to 8) (size 9 to 14) (size 15 to 20)
#    0.000    1.200    2.000    6.000    2.800    0.000 
#    7.200    1.000    0.000    0.000    0.000    0.000 
#    0.000    0.000    0.000    0.000    0.000    0.000 
#
# Total GULP energy -111694.057978 kJ/mol
# GULP energy per Si atom -5584.702899 kJ/mol
# Density = 2.451524 g / cm^3
# Si number density = 24.571167 Si / 1000 Ang^3
#
#
#
# Elastic Constant Matrix: (Units=GPa)
#
#
# Indices 1 2 3 4 5 6 
#
# 1 165.9991 33.1346 48.5606 0.0002 -15.0910 0.0000
# 2 33.1346 70.0409 34.4647 0.0002 -17.8890 0.0001
# 3 48.5606 34.4647 144.2942 0.0009 -20.6863 0.0002
# 4 0.0002 0.0002 0.0009 44.7703 0.0003 -1.6604
# 5 -15.0910 -17.8890 -20.6863 0.0003 47.5152 0.0000
# 6 0.0000 0.0001 0.0002 -1.6604 0.0000 15.3191
#
#
#
# Elastic Compliance Matrix: (Units=1/GPa)
#
#
# Indices 1 2 3 4 5 6 
#
# 1 0.007050 -0.002329 -0.001729 0.000000 0.000610 0.000000
# 2 -0.002329 0.017997 -0.002826 0.000000 0.004806 0.000000
# 3 -0.001729 -0.002826 0.008486 0.000000 0.002081 0.000000
# 4 0.000000 0.000000 0.000000 0.022426 0.000000 0.002431
# 5 0.000610 0.004806 0.002081 0.000000 0.023955 0.000000
# 6 0.000000 0.000000 0.000000 0.002431 0.000000 0.065542
#
#
# Mechanical properties :
#
#
# Convention : Reuss Voigt Hill
#
# Bulk Modulus (GPa) = 50.59370 68.07267 59.33319
# Shear Modulus (GPa) = 30.15474 39.13254 34.64364
#
# Velocity S-wave (km/s) = 3.50700 3.99509 3.75898
# Velocity P-wave (km/s) = 6.08557 7.00325 6.56047
#
# Compressibility (1/GPa) = 0.01976531
#
# Stress axis : x y z
#
# Youngs Moduli (GPa) = 141.84008 55.56478 117.84794
#
# Poissons Ratio (x) = 0.12940 0.20376
# Poissons Ratio (y) = 0.33031 0.33303
# Poissons Ratio (z) = 0.24525 0.15702
#
# Static dielectric constant tensor:
#      x y z
#    x 2.170390 0.000000 -0.064470 
#    y 0.000000 2.025670 0.000000 
#    z -0.064470 0.000000 2.030950 
# 
# From -- ./inp_files/308360.got.cif
#   From: 2010.05.17/outbox.cif.g08.bks.cpg/sg15_155_cif.got.tgz:308360.got - 2010.06.03 18:47:42.
