data_PCOD9267414
_publ_section_title
;
Structure prediction by ZEFSAII (Michael W. Deem and Ramdas Pophale) SiO2 
 PCOD9267414
Probable space group: C 2/C
;
_chemical_formula_sum "Si O2"
_cell_formula_units_Z 40
_cell_length_a 12.069774
_cell_length_b 7.919232
_cell_length_c 16.814029
_cell_angle_alpha 90.000000
_cell_angle_beta 107.009267
_cell_angle_gamma 90.000000
_cell_volume 1536.840619
_symmetry_space_group_name_H-M "C 2/C"
_symmetry_group_IT_number 15
_symmetry_cell_setting 'monoclinic'
loop_
_space_group_symop_operation_xyz
x,y,z
-x,y,1/2-z
-x,-y,-z
x,-y,1/2+z
1/2+x,1/2+y,z
1/2-x,1/2+y,1/2-z
1/2-x,1/2-y,-z
1/2+x,1/2-y,1/2+z
loop_
_atom_site_type_symbol
_atom_site_label
_atom_site_fract_x
_atom_site_fract_y
_atom_site_fract_z
Si Si1 0.818467 0.804027 0.435939
Si Si2 0.836334 0.822260 0.214655
Si Si3 0.379716 0.610156 0.355411
Si Si4 0.421969 0.806453 0.155504
Si Si5 0.002348 0.332599 0.867223
O O1 0.750000 0.750000 0.500000
O O2 0.710457 0.769330 0.352944
O O3 0.932681 0.705745 0.432681
O O4 0.848126 0.998719 0.425443
O O5 0.705795 0.769683 0.168980
O O6 0.899731 0.673539 0.279165
O O7 0.908850 0.809736 0.147398
O O8 0.858674 0.985278 0.274678
O O9 0.511370 0.671954 0.384626
O O10 0.500000 0.807579 0.250000
O O11 0.432607 0.990847 0.119056
#
# Coordination Sequence:
#
# PCOD9267414 Si02
#       5
#     8   8   8   8   8
#     4  11  26  46  65  95 140 185 224 271 330 409
#     4  10  19  39  63 102 132 168 218 289 338 388
#     4  11  23  39  68  97 136 175 222 281 344 399
#     4  12  23  41  70 100 131 174 223 282 339 390
#     4  10  20  41  62  95 135 166 221 273 333 395
#
# _framework density 26.027422000000001
#
# number of rings (size 3 to 8) (size 9 to 14) (size 15 to 20)
#    0.000    1.200    4.000    3.600    5.600    1.600 
#    0.000    1.000    0.000    0.000    0.000    0.000 
#    0.000    0.000    0.000    0.000    0.000    0.000 
#
# Total GULP energy -111846.263341 kJ/mol
# GULP energy per Si atom -5592.313167 kJ/mol
# Density = 2.596818 g / cm^3
# Si number density = 26.027422 Si / 1000 Ang^3
#
#
#
# Elastic Constant Matrix: (Units=GPa)
#
#
# Indices 1 2 3 4 5 6 
#
# 1 151.8802 38.7564 5.6090 0.0000 -45.9974 0.0000
# 2 38.7564 85.9826 15.0631 0.0000 -19.6632 0.0000
# 3 5.6090 15.0631 69.0307 0.0000 -41.0928 0.0000
# 4 0.0000 0.0000 0.0000 25.5587 0.0000 -13.4210
# 5 -45.9974 -19.6632 -41.0928 0.0000 46.1163 0.0000
# 6 0.0000 0.0000 0.0000 -13.4210 0.0000 49.7152
#
#
#
# Elastic Compliance Matrix: (Units=1/GPa)
#
#
# Indices 1 2 3 4 5 6 
#
# 1 0.015652 -0.003328 0.016831 0.000000 0.029190 0.000000
# 2 -0.003328 0.013626 -0.002599 0.000000 0.000174 0.000000
# 3 0.016831 -0.002599 0.049023 0.000000 0.059363 0.000000
# 4 0.000000 0.000000 0.000000 0.045588 0.000000 0.012307
# 5 0.029190 0.000174 0.059363 0.000000 0.103770 0.000000
# 6 0.000000 0.000000 0.000000 0.012307 0.000000 0.023437
#
#
# Mechanical properties :
#
#
# Convention : Reuss Voigt Hill
#
# Bulk Modulus (GPa) = 9.98920 47.30559 28.64740
# Shear Modulus (GPa) = 19.03611 40.77570 29.90591
#
# Velocity S-wave (km/s) = 2.70735 3.96238 3.39339
# Velocity P-wave (km/s) = 3.69043 6.25689 5.13653
#
# Compressibility (1/GPa) = 0.10010811
#
# Stress axis : x y z
#
# Youngs Moduli (GPa) = 63.88840 73.39125 20.39840
#
# Poissons Ratio (x) = 0.24427 -0.34333
# Poissons Ratio (y) = 0.21264 0.05302
# Poissons Ratio (z) = -1.07531 0.19077
#
# Static dielectric constant tensor:
#      x y z
#    x 2.013810 0.000000 -0.021210 
#    y 0.000000 2.033280 0.000000 
#    z -0.021210 0.000000 2.282010 
# 
# From -- ./inp_files/235829.got.cif
#   From: 2010.05.17/outbox.cif.g08.bks.cpg/sg15_118_cif.got.tgz:235829.got - 2010.06.03 18:47:42.
