data_PCOD9267492
_publ_section_title
;
Structure prediction by ZEFSAII (Michael W. Deem and Ramdas Pophale) SiO2 
 PCOD9267492
Probable space group: C 2/C
;
_chemical_formula_sum "Si O2"
_cell_formula_units_Z 48
_cell_length_a 13.617203
_cell_length_b 13.663654
_cell_length_c 20.199485
_cell_angle_alpha 90.000000
_cell_angle_beta 144.310558
_cell_angle_gamma 90.000000
_cell_volume 2192.578770
_symmetry_space_group_name_H-M "C 2/C"
_symmetry_group_IT_number 15
_symmetry_cell_setting 'monoclinic'
loop_
_space_group_symop_operation_xyz
x,y,z
-x,y,1/2-z
-x,-y,-z
x,-y,1/2+z
1/2+x,1/2+y,z
1/2-x,1/2+y,1/2-z
1/2-x,1/2-y,-z
1/2+x,1/2-y,1/2+z
loop_
_atom_site_type_symbol
_atom_site_label
_atom_site_fract_x
_atom_site_fract_y
_atom_site_fract_z
Si Si1 0.070310 0.208879 0.674619
Si Si2 0.000000 0.358195 0.750000
Si Si3 0.335965 0.144399 0.537558
Si Si4 0.817779 0.662291 0.384873
Si Si5 0.750045 0.067653 0.498664
Si Si6 0.695809 0.549644 0.827933
Si Si7 0.000000 0.706003 0.750000
O O1 0.101025 0.272317 0.626773
O O2 0.194801 0.124108 0.766804
O O3 0.082560 0.284062 0.742524
O O4 0.895403 0.148963 0.570321
O O5 0.875397 0.415720 0.631844
O O6 0.250000 0.250000 0.500000
O O7 0.412662 0.146242 0.506416
O O8 0.466691 0.139957 0.668250
O O9 0.214103 0.050018 0.479418
O O10 0.755593 0.554147 0.333191
O O11 0.652949 0.723393 0.315725
O O12 0.698094 0.080541 0.548223
O O13 0.500000 0.545255 0.750000
#
# Coordination Sequence:
#
# PCOD9267492 Si02
#       7
#     8   4   8   8   8   8   4
#     4  11  23  39  66  99 131 177 224 273 332 398
#     4  12  23  41  68  94 134 174 225 283 328 386
#     4   9  20  39  64  90 124 174 215 266 328 386
#     4  10  21  39  65  96 129 172 220 273 330 394
#     4  10  21  41  67  90 129 178 224 269 334 393
#     4   9  18  41  69  91 128 183 218 263 332 408
#     4  10  19  39  64  90 132 164 217 271 330 384
#
# _framework density 21.892030999999999
#
# number of rings (size 3 to 8) (size 9 to 14) (size 15 to 20)
#    0.000    2.000    3.333    1.000    2.333    1.333 
#    9.000    5.000    0.000    0.000    0.000    0.000 
#    0.000    0.000    0.000    0.000    0.000    0.000 
#
# Total GULP energy -133651.447798 kJ/mol
# GULP energy per Si atom -5568.810325 kJ/mol
# Density = 2.184220 g / cm^3
# Si number density = 21.892031 Si / 1000 Ang^3
#
#
#
# Elastic Constant Matrix: (Units=GPa)
#
#
# Indices 1 2 3 4 5 6 
#
# 1 82.9496 73.9432 40.0257 0.0000 -34.6319 0.0000
# 2 73.9432 171.8289 60.0660 0.0000 -22.0231 0.0000
# 3 40.0257 60.0660 133.4306 0.0001 -39.2820 0.0000
# 4 0.0000 0.0000 0.0001 36.9475 0.0000 -6.7601
# 5 -34.6319 -22.0231 -39.2820 0.0000 37.3076 0.0000
# 6 0.0000 0.0000 0.0000 -6.7601 0.0000 43.0949
#
#
#
# Elastic Compliance Matrix: (Units=1/GPa)
#
#
# Indices 1 2 3 4 5 6 
#
# 1 0.031406 -0.011353 0.003332 0.000000 0.025961 0.000000
# 2 -0.011353 0.011045 -0.003985 0.000000 -0.008214 0.000000
# 3 0.003332 -0.003985 0.012329 0.000000 0.013722 0.000000
# 4 0.000000 0.000000 0.000000 0.027865 0.000000 0.004371
# 5 0.025961 -0.008214 0.013722 0.000000 0.060503 0.000000
# 6 0.000000 0.000000 0.000000 0.004371 0.000000 0.023890
#
#
# Mechanical properties :
#
#
# Convention : Reuss Voigt Hill
#
# Bulk Modulus (GPa) = 32.49920 81.80876 57.15398
# Shear Modulus (GPa) = 24.83784 37.74828 31.29306
#
# Velocity S-wave (km/s) = 3.37198 4.15697 3.78488
# Velocity P-wave (km/s) = 5.48067 7.77758 6.72787
#
# Compressibility (1/GPa) = 0.03076999
#
# Stress axis : x y z
#
# Youngs Moduli (GPa) = 31.84058 90.53565 81.11233
#
# Poissons Ratio (x) = 1.02782 -0.27030
# Poissons Ratio (y) = 0.36148 0.32323
# Poissons Ratio (z) = -0.10611 0.36078
#
# Static dielectric constant tensor:
#      x y z
#    x 1.818620 0.000000 0.025860 
#    y 0.000000 1.839110 0.000000 
#    z 0.025860 0.000000 1.927010 
# 
# From -- ./inp_files/244008.got.cif
#   From: 2010.05.17/outbox.cif.g08.bks.cpg/sg15_123_cif.got.tgz:244008.got - 2010.06.03 18:47:42.
