data_PCOD9267949
_publ_section_title
;
Structure prediction by ZEFSAII (Michael W. Deem and Ramdas Pophale) SiO2 
 PCOD9267949
Probable space group: C 2/C
;
_chemical_formula_sum "Si O2"
_cell_formula_units_Z 56
_cell_length_a 21.100342
_cell_length_b 8.091811
_cell_length_c 22.463189
_cell_angle_alpha 90.000000
_cell_angle_beta 143.497840
_cell_angle_gamma 90.000000
_cell_volume 2281.478386
_symmetry_space_group_name_H-M "C 2/C"
_symmetry_group_IT_number 15
_symmetry_cell_setting 'monoclinic'
loop_
_space_group_symop_operation_xyz
x,y,z
-x,y,1/2-z
-x,-y,-z
x,-y,1/2+z
1/2+x,1/2+y,z
1/2-x,1/2+y,1/2-z
1/2-x,1/2-y,-z
1/2+x,1/2-y,1/2+z
loop_
_atom_site_type_symbol
_atom_site_label
_atom_site_fract_x
_atom_site_fract_y
_atom_site_fract_z
Si Si1 0.271707 0.401557 0.886580
Si Si2 0.516784 0.656528 0.595971
Si Si3 0.436814 0.172806 0.143631
Si Si4 0.766779 0.730653 0.399135
Si Si5 0.212474 0.083720 0.919517
Si Si6 0.014071 0.333921 0.472973
Si Si7 0.322449 0.366428 0.789693
O O1 0.231837 0.580147 0.878390
O O2 0.228580 0.230644 0.882373
O O3 0.267987 0.395425 0.812238
O O4 0.395681 0.406308 0.999452
O O5 0.509616 0.802706 0.639850
O O6 0.536799 0.704847 0.542895
O O7 0.604613 0.520129 0.675486
O O8 0.500000 0.112445 0.250000
O O9 0.392445 0.356404 0.125939
O O10 0.323368 0.089643 0.040812
O O11 0.700736 0.599332 0.386651
O O12 0.891632 0.687491 0.503170
O O13 0.754837 0.675595 0.321625
O O14 0.000000 0.500000 0.500000
O O15 0.902639 0.285606 0.360005
#
# Coordination Sequence:
#
# PCOD9267949 Si02
#       7
#     8   8   8   8   8   8   8
#     4  10  21  40  61  91 131 161 200 262 307 367
#     4  10  19  41  62  84 126 163 203 255 312 365
#     4  10  21  42  68  88 121 170 213 262 309 364
#     4  12  23  39  64  92 132 166 200 259 313 371
#     4  10  24  43  64  95 123 164 219 254 312 367
#     4  11  22  37  60  94 129 161 202 256 314 374
#     4  11  22  37  59  96 125 168 206 237 322 386
#
# _framework density 24.545487000000001
#
# number of rings (size 3 to 8) (size 9 to 14) (size 15 to 20)
#    0.000    1.429    2.857    4.286    4.000    1.143 
#    2.571    6.429    0.000    4.286    0.000    0.000 
#    0.000    0.000    0.000    0.000    0.000    0.000 
#
# Total GULP energy -156538.771140 kJ/mol
# GULP energy per Si atom -5590.670398 kJ/mol
# Density = 2.448962 g / cm^3
# Si number density = 24.545487 Si / 1000 Ang^3
#
#
#
# Elastic Constant Matrix: (Units=GPa)
#
#
# Indices 1 2 3 4 5 6 
#
# 1 51.0117 -20.3823 -6.8276 0.0000 -3.0670 0.0000
# 2 -20.3823 74.6759 -4.0275 0.0000 1.1824 0.0000
# 3 -6.8276 -4.0275 83.5623 0.0000 -10.7300 0.0000
# 4 0.0000 0.0000 0.0000 17.8519 0.0000 1.3779
# 5 -3.0670 1.1824 -10.7300 0.0000 31.8374 0.0000
# 6 0.0000 0.0000 0.0000 1.3779 0.0000 37.9303
#
#
#
# Elastic Compliance Matrix: (Units=1/GPa)
#
#
# Indices 1 2 3 4 5 6 
#
# 1 0.022609 0.006262 0.002507 0.000000 0.002790 0.000000
# 2 0.006262 0.015163 0.001304 0.000000 0.000480 0.000000
# 3 0.002507 0.001304 0.012814 0.000000 0.004512 0.000000
# 4 0.000000 0.000000 0.000000 0.056174 0.000000 -0.002041
# 5 0.002790 0.000480 0.004512 0.000000 0.033181 0.000000
# 6 0.000000 0.000000 0.000000 -0.002041 0.000000 0.026438
#
#
# Mechanical properties :
#
#
# Convention : Reuss Voigt Hill
#
# Bulk Modulus (GPa) = 14.13769 16.30835 15.22302
# Shear Modulus (GPa) = 29.44462 33.55639 31.50050
#
# Velocity S-wave (km/s) = 3.46727 3.70146 3.58628
# Velocity P-wave (km/s) = 4.66922 4.99262 4.83363
#
# Compressibility (1/GPa) = 0.07073290
#
# Stress axis : x y z
#
# Youngs Moduli (GPa) = 44.23066 65.94958 78.03840
#
# Poissons Ratio (x) = -0.41297 -0.19568
# Poissons Ratio (y) = -0.27697 -0.10177
# Poissons Ratio (z) = -0.11091 -0.08600
#
# Static dielectric constant tensor:
#      x y z
#    x 2.048190 0.000000 -0.014680 
#    y 0.000000 2.047700 0.000000 
#    z -0.014680 0.000000 1.948180 
# 
# From -- ./inp_files/281546.got.cif
#   From: 2010.05.17/outbox.cif.g08.bks.cpg/sg15_141_cif.got.tgz:281546.got - 2010.06.03 18:47:42.
