data_PCOD9267063
_publ_section_title
;
Structure prediction by ZEFSAII (Michael W. Deem and Ramdas Pophale) SiO2 
 PCOD9267063
Probable space group: C 2/C
;
_chemical_formula_sum "Si O2"
_cell_formula_units_Z 44
_cell_length_a 16.035223
_cell_length_b 9.068885
_cell_length_c 13.427031
_cell_angle_alpha 90.000000
_cell_angle_beta 108.847521
_cell_angle_gamma 90.000000
_cell_volume 1847.886107
_symmetry_space_group_name_H-M "C 2/C"
_symmetry_group_IT_number 15
_symmetry_cell_setting 'monoclinic'
loop_
_space_group_symop_operation_xyz
x,y,z
-x,y,1/2-z
-x,-y,-z
x,-y,1/2+z
1/2+x,1/2+y,z
1/2-x,1/2+y,1/2-z
1/2-x,1/2-y,-z
1/2+x,1/2-y,1/2+z
loop_
_atom_site_type_symbol
_atom_site_label
_atom_site_fract_x
_atom_site_fract_y
_atom_site_fract_z
Si Si1 0.283835 0.423013 0.627729
Si Si2 0.130428 0.402241 0.698439
Si Si3 0.562038 0.549759 0.431114
Si Si4 0.914327 0.261456 0.321363
Si Si5 0.000000 0.183069 0.750000
Si Si6 0.240238 0.753057 0.612175
O O1 0.183316 0.373164 0.615074
O O2 0.331703 0.422726 0.537457
O O3 0.349732 0.324015 0.719768
O O4 0.273452 0.592482 0.662586
O O5 0.088703 0.563533 0.691904
O O6 0.204431 0.377869 0.811823
O O7 0.057926 0.283253 0.699540
O O8 0.500000 0.500000 0.500000
O O9 0.509924 0.692477 0.368778
O O10 0.552140 0.423105 0.344070
O O11 0.862132 0.232546 0.403764
O O12 0.250000 0.750000 0.500000
#
# Coordination Sequence:
#
# PCOD9267063 Si02
#       6
#     8   8   8   8   4   8
#     4  10  20  41  62  88 129 170 217 255 336 390
#     4  10  23  39  65  94 126 175 209 272 332 379
#     4  12  23  41  68  96 126 178 219 269 331 400
#     4  10  21  37  64  91 131 164 216 266 323 391
#     4  12  24  44  66  90 136 166 226 266 336 396
#     4  10  19  38  64  94 126 167 215 269 324 398
#
# _framework density 23.810991999999999
#
# number of rings (size 3 to 8) (size 9 to 14) (size 15 to 20)
#    0.000    1.455    3.636    1.091    2.545    0.000 
#    0.000    6.364    0.000    0.000    0.000    0.000 
#    0.000    0.000    0.000    0.000    0.000    0.000 
#
# Total GULP energy -122691.738140 kJ/mol
# GULP energy per Si atom -5576.897188 kJ/mol
# Density = 2.375680 g / cm^3
# Si number density = 23.810992 Si / 1000 Ang^3
#
#
#
# Elastic Constant Matrix: (Units=GPa)
#
#
# Indices 1 2 3 4 5 6 
#
# 1 164.0128 52.8248 8.3793 0.0000 -50.5167 0.0000
# 2 52.8248 124.7528 16.0215 0.0000 -7.0145 0.0000
# 3 8.3793 16.0215 42.0709 0.0000 -28.8370 0.0000
# 4 0.0000 0.0000 0.0000 22.0606 0.0000 -8.9938
# 5 -50.5167 -7.0145 -28.8370 0.0000 44.6565 0.0000
# 6 0.0000 0.0000 0.0000 -8.9938 0.0000 33.4005
#
#
#
# Elastic Compliance Matrix: (Units=1/GPa)
#
#
# Indices 1 2 3 4 5 6 
#
# 1 0.018349 -0.008826 0.023295 0.000000 0.034414 0.000000
# 2 -0.008826 0.012719 -0.015358 0.000000 -0.017904 0.000000
# 3 0.023295 -0.015358 0.074254 0.000000 0.071889 0.000000
# 4 0.000000 0.000000 0.000000 0.050920 0.000000 0.013711
# 5 0.034414 -0.017904 0.071889 0.000000 0.104933 0.000000
# 6 0.000000 0.000000 0.000000 0.013711 0.000000 0.033632
#
#
# Mechanical properties :
#
#
# Convention : Reuss Voigt Hill
#
# Bulk Modulus (GPa) = 9.65781 53.92087 31.78934
# Shear Modulus (GPa) = 15.10121 36.93092 26.01606
#
# Velocity S-wave (km/s) = 2.52109 3.94255 3.30905
# Velocity P-wave (km/s) = 3.54109 6.58934 5.28956
#
# Compressibility (1/GPa) = 0.10354319
#
# Stress axis : x y z
#
# Youngs Moduli (GPa) = 54.49788 78.62280 13.46734
#
# Poissons Ratio (x) = 0.69396 -0.31372
# Poissons Ratio (y) = 0.48102 0.20683
# Poissons Ratio (z) = -1.26953 1.20749
#
# Static dielectric constant tensor:
#      x y z
#    x 2.010100 0.000000 -0.050850 
#    y 0.000000 1.941980 0.000000 
#    z -0.050850 0.000000 1.957460 
# 
# From -- ./inp_files/159330.got.cif
#   From: 2010.05.17/outbox.cif.g08.bks.cpg/sg15_80_cif.got.tgz:159330.got - 2010.06.03 18:47:42.
