data_PCOD9267837
_publ_section_title
;
Structure prediction by ZEFSAII (Michael W. Deem and Ramdas Pophale) SiO2 
 PCOD9267837
Probable space group: C 2/C
;
_chemical_formula_sum "Si O2"
_cell_formula_units_Z 48
_cell_length_a 14.445771
_cell_length_b 11.715348
_cell_length_c 22.569231
_cell_angle_alpha 90.000000
_cell_angle_beta 142.585243
_cell_angle_gamma 90.000000
_cell_volume 2320.686396
_symmetry_space_group_name_H-M "C 2/C"
_symmetry_group_IT_number 15
_symmetry_cell_setting 'monoclinic'
loop_
_space_group_symop_operation_xyz
x,y,z
-x,y,1/2-z
-x,-y,-z
x,-y,1/2+z
1/2+x,1/2+y,z
1/2-x,1/2+y,1/2-z
1/2-x,1/2-y,-z
1/2+x,1/2-y,1/2+z
loop_
_atom_site_type_symbol
_atom_site_label
_atom_site_fract_x
_atom_site_fract_y
_atom_site_fract_z
Si Si1 0.633548 0.330195 0.679981
Si Si2 0.681995 0.123737 0.343187
Si Si3 0.964159 0.609356 0.567327
Si Si4 0.339031 0.376302 0.134691
Si Si5 0.824354 0.972089 0.512853
Si Si6 0.164436 0.428338 0.618003
O O1 0.753116 0.361453 0.689638
O O2 0.587549 0.197946 0.653323
O O3 0.478167 0.399553 0.589485
O O4 0.708707 0.363547 0.780473
O O5 0.500000 0.102476 0.250000
O O6 0.712706 0.245697 0.390447
O O7 0.771460 0.027102 0.424584
O O8 0.816648 0.601884 0.533498
O O9 0.910384 0.642894 0.473374
O O10 0.038903 0.483978 0.597474
O O11 0.500000 0.376812 0.250000
O O12 0.348965 0.428888 0.074504
O O13 0.236234 0.462352 0.120908
#
# Coordination Sequence:
#
# PCOD9267837 Si02
#       6
#     8   8   8   8   8   8
#     4  12  23  43  68  98 127 170 217 262 324 386
#     4  11  24  42  61  98 131 166 211 266 325 371
#     4  10  23  43  65  98 128 172 216 259 327 378
#     4  10  19  40  67  90 119 172 221 248 311 384
#     4  11  23  41  65  94 133 164 212 274 309 382
#     4  10  21  43  68  91 132 170 213 267 313 389
#
# _framework density 20.683536
#
# number of rings (size 3 to 8) (size 9 to 14) (size 15 to 20)
#    0.000    1.333    3.333    2.500    0.000    0.000 
#   15.000    0.000    0.000    0.000    0.000    0.000 
#    0.000    0.000    0.000    0.000    0.000    0.000 
#
# Total GULP energy -134154.072938 kJ/mol
# GULP energy per Si atom -5589.753039 kJ/mol
# Density = 2.063646 g / cm^3
# Si number density = 20.683536 Si / 1000 Ang^3
#
#
#
# Elastic Constant Matrix: (Units=GPa)
#
#
# Indices 1 2 3 4 5 6 
#
# 1 55.5761 -2.7693 -4.7517 0.0000 18.7820 0.0000
# 2 -2.7693 42.1281 31.5645 0.0000 -5.7553 0.0000
# 3 -4.7517 31.5645 90.6810 0.0000 4.6416 0.0000
# 4 0.0000 0.0000 0.0000 29.2564 0.0000 0.5223
# 5 18.7820 -5.7553 4.6416 0.0000 26.7867 0.0000
# 6 0.0000 0.0000 0.0000 0.5223 0.0000 17.0989
#
#
#
# Elastic Compliance Matrix: (Units=1/GPa)
#
#
# Indices 1 2 3 4 5 6 
#
# 1 0.024333 -0.003485 0.003430 0.000000 -0.018404 0.000000
# 2 -0.003485 0.034870 -0.012943 0.000000 0.012178 0.000000
# 3 0.003430 -0.012943 0.016121 0.000000 -0.007980 0.000000
# 4 0.000000 0.000000 0.000000 0.034199 0.000000 -0.001045
# 5 -0.018404 0.012178 -0.007980 0.000000 0.054236 0.000000
# 6 0.000000 0.000000 0.000000 -0.001045 0.000000 0.058515
#
#
# Mechanical properties :
#
#
# Convention : Reuss Voigt Hill
#
# Bulk Modulus (GPa) = 20.27274 26.27469 23.27371
# Shear Modulus (GPa) = 18.88841 25.58452 22.23646
#
# Velocity S-wave (km/s) = 3.02521 3.52085 3.28240
# Velocity P-wave (km/s) = 4.69310 5.40918 5.06382
#
# Compressibility (1/GPa) = 0.04932733
#
# Stress axis : x y z
#
# Youngs Moduli (GPa) = 41.09689 28.67824 62.02996
#
# Poissons Ratio (x) = 0.09994 -0.21277
# Poissons Ratio (y) = 0.14321 0.80288
# Poissons Ratio (z) = -0.14096 0.37120
#
# Static dielectric constant tensor:
#      x y z
#    x 1.757320 0.000000 0.019650 
#    y 0.000000 1.727340 0.000000 
#    z 0.019650 0.000000 1.716510 
# 
# From -- ./inp_files/152187.got.cif
#   From: 2010.05.17/outbox.cif.g08.bks.cpg/sg15_77_cif.got.tgz:152187.got - 2010.06.03 18:47:42.
