data_PCOD9267995
_publ_section_title
;
Structure prediction by ZEFSAII (Michael W. Deem and Ramdas Pophale) SiO2 
 PCOD9267995
Probable space group: C 2/C
;
_chemical_formula_sum "Si O2"
_cell_formula_units_Z 60
_cell_length_a 10.055750
_cell_length_b 10.298055
_cell_length_c 24.093058
_cell_angle_alpha 90.000000
_cell_angle_beta 63.835922
_cell_angle_gamma 90.000000
_cell_volume 2239.303677
_symmetry_space_group_name_H-M "C 2/C"
_symmetry_group_IT_number 15
_symmetry_cell_setting 'monoclinic'
loop_
_space_group_symop_operation_xyz
x,y,z
-x,y,1/2-z
-x,-y,-z
x,-y,1/2+z
1/2+x,1/2+y,z
1/2-x,1/2+y,1/2-z
1/2-x,1/2-y,-z
1/2+x,1/2-y,1/2+z
loop_
_atom_site_type_symbol
_atom_site_label
_atom_site_fract_x
_atom_site_fract_y
_atom_site_fract_z
Si Si1 0.526907 0.273125 0.020983
Si Si2 0.741018 0.861585 0.955144
Si Si3 0.022327 0.035920 0.427285
Si Si4 0.562142 0.253858 0.680842
Si Si5 0.774624 0.499971 0.319248
Si Si6 0.328569 0.038768 0.690279
Si Si7 0.000000 0.149092 0.750000
Si Si8 0.963920 0.327711 0.864931
O O1 0.432365 0.145515 0.023461
O O2 0.424572 0.397822 0.058283
O O3 0.599673 0.237321 0.066948
O O4 0.573977 0.340363 0.954204
O O5 0.842959 0.824427 0.883676
O O6 0.843723 0.976646 0.959267
O O7 0.750000 0.750000 0.000000
O O8 0.102988 0.036031 0.353574
O O9 0.500000 0.315177 0.750000
O O10 0.679590 0.148263 0.682555
O O11 0.431428 0.167297 0.675931
O O12 0.837641 0.532340 0.248300
O O13 0.849285 0.578133 0.355054
O O14 0.404396 0.926439 0.640496
O O15 0.158645 0.077330 0.713355
O O16 0.990707 0.227495 0.692551
#
# Coordination Sequence:
#
# PCOD9267995 Si02
#       8
#     8   8   8   8   8   8   4   8
#     4  10  22  40  61  92 127 170 219 279 318 393
#     4  10  21  38  64  94 129 176 223 274 332 400
#     4  10  21  38  65  89 126 172 224 265 332 393
#     4   9  19  37  65  93 125 171 219 271 340 399
#     4  10  19  41  65  87 129 168 211 271 332 402
#     4  10  23  41  63  96 129 174 214 271 344 402
#     4  12  24  40  70  96 136 174 214 278 332 414
#     4  11  23  41  63  92 135 167 215 275 330 392
#
# _framework density 26.794045000000001
#
# number of rings (size 3 to 8) (size 9 to 14) (size 15 to 20)
#    0.000    1.867    2.667    1.600    3.733    2.667 
#    0.000    0.000    1.467    3.200    0.000    0.000 
#    0.000    0.000    0.000    0.000    0.000    0.000 
#
# Total GULP energy -167183.875203 kJ/mol
# GULP energy per Si atom -5572.795840 kJ/mol
# Density = 2.673306 g / cm^3
# Si number density = 26.794045 Si / 1000 Ang^3
#
#
#
# Elastic Constant Matrix: (Units=GPa)
#
#
# Indices 1 2 3 4 5 6 
#
# 1 86.8859 22.0310 -35.4485 0.0000 -4.8195 0.0000
# 2 22.0310 63.1970 -0.2798 0.0000 0.0489 0.0000
# 3 -35.4485 -0.2798 68.5911 0.0000 5.3631 0.0000
# 4 0.0000 0.0000 0.0000 28.3435 0.0000 15.2627
# 5 -4.8195 0.0489 5.3631 0.0000 40.7399 0.0000
# 6 0.0000 0.0000 0.0000 15.2627 0.0000 -2.6659
#
#
#
# Elastic Compliance Matrix: (Units=1/GPa)
#
#
# Indices 1 2 3 4 5 6 
#
# 1 0.016426 -0.005690 0.008400 0.000000 0.000844 0.000000
# 2 -0.005690 0.017795 -0.002843 0.000000 -0.000320 0.000000
# 3 0.008400 -0.002843 0.019027 0.000000 -0.001508 0.000000
# 4 0.000000 0.000000 0.000000 0.008641 0.000000 0.049472
# 5 0.000844 -0.000320 -0.001508 0.000000 0.024845 0.000000
# 6 0.000000 0.000000 0.000000 0.049472 0.000000 -0.091872
#
#
# Mechanical properties :
#
#
# Convention : Reuss Voigt Hill
#
# Bulk Modulus (GPa) = 18.87443 21.25327 20.06385
# Shear Modulus (GPa) = 391.02159 28.77492 209.89826
#
# Velocity S-wave (km/s) = 12.09350 3.28064 8.86046
# Velocity P-wave (km/s) = 14.21490 4.72223 10.59157
#
# Compressibility (1/GPa) = 0.05298173
#
# Stress axis : x y z
#
# Youngs Moduli (GPa) = 60.87952 56.19661 52.55816
#
# Poissons Ratio (x) = 0.31974 -0.44148
# Poissons Ratio (y) = 0.34638 0.14941
# Poissons Ratio (z) = -0.51138 0.15976
#
# Static dielectric constant tensor:
#      x y z
#    x 2.299540 0.000000 0.054820 
#    y 0.000000 2.073880 0.000000 
#    z 0.054820 0.000000 2.102940 
# 
# From -- ./inp_files/268781.got.cif
#   From: 2010.05.17/outbox.cif.g08.bks.cpg/sg15_135_cif.got.tgz:268781.got - 2010.06.03 18:47:42.
