data_PCOD9267120
_publ_section_title
;
Structure prediction by ZEFSAII (Michael W. Deem and Ramdas Pophale) SiO2 
 PCOD9267120
Probable space group: C 2/C
;
_chemical_formula_sum "Si O2"
_cell_formula_units_Z 64
_cell_length_a 11.269734
_cell_length_b 21.548335
_cell_length_c 27.137870
_cell_angle_alpha 90.000000
_cell_angle_beta 150.827730
_cell_angle_gamma 90.000000
_cell_volume 3212.341777
_symmetry_space_group_name_H-M "C 2/C"
_symmetry_group_IT_number 15
_symmetry_cell_setting 'monoclinic'
loop_
_space_group_symop_operation_xyz
x,y,z
-x,y,1/2-z
-x,-y,-z
x,-y,1/2+z
1/2+x,1/2+y,z
1/2-x,1/2+y,1/2-z
1/2-x,1/2-y,-z
1/2+x,1/2-y,1/2+z
loop_
_atom_site_type_symbol
_atom_site_label
_atom_site_fract_x
_atom_site_fract_y
_atom_site_fract_z
Si Si1 0.273599 0.285290 0.561377
Si Si2 0.120307 0.425063 0.505298
Si Si3 0.230497 0.755769 0.274381
Si Si4 0.272052 0.902857 0.291059
Si Si5 0.637979 0.586871 0.015024
Si Si6 0.214241 0.058214 0.932880
Si Si7 0.385635 0.024942 0.656804
Si Si8 0.798733 0.219234 0.411965
O O1 0.250000 0.250000 0.500000
O O2 0.245661 0.358722 0.544567
O O3 0.546450 0.269082 0.677661
O O4 0.044051 0.259509 0.509123
O O5 0.294899 0.483910 0.562296
O O6 0.909669 0.430248 0.387967
O O7 0.978070 0.428372 0.505422
O O8 0.272230 0.828847 0.296704
O O9 0.258197 0.722668 0.337939
O O10 0.953216 0.745612 0.157092
O O11 0.430638 0.927838 0.302983
O O12 0.997053 0.922997 0.181432
O O13 0.828579 0.535473 0.103545
O O14 0.665002 0.650581 0.054347
O O15 0.673955 0.592918 0.969611
O O16 0.369873 0.559442 0.927353
O O17 0.500000 0.005520 0.750000
#
# Coordination Sequence:
#
# PCOD9267120 Si02
#       8
#     8   8   8   8   8   8   8   8
#     4  10  19  38  65  95 123 164 221 273 312 378
#     4  11  23  42  66  94 132 166 225 266 320 395
#     4  10  22  36  65  99 115 172 224 259 320 393
#     4  12  21  42  69  91 129 166 225 263 317 405
#     4  11  24  41  61  96 141 162 215 276 330 386
#     4  11  25  40  64  99 126 177 209 271 337 376
#     4  11  24  40  65  96 128 178 209 265 334 394
#     4  10  21  37  62  96 125 163 216 270 324 374
#
# _framework density 19.923159999999999
#
# number of rings (size 3 to 8) (size 9 to 14) (size 15 to 20)
#    0.000    1.250    5.000    1.875    5.250    1.000 
#    0.000    2.500    0.000    0.000    0.000    0.000 
#    0.000    0.000    0.000    0.000    0.000    0.000 
#
# Total GULP energy -178657.742530 kJ/mol
# GULP energy per Si atom -5583.054454 kJ/mol
# Density = 1.987781 g / cm^3
# Si number density = 19.923160 Si / 1000 Ang^3
#
#
#
# Elastic Constant Matrix: (Units=GPa)
#
#
# Indices 1 2 3 4 5 6 
#
# 1 44.9408 4.7846 16.9690 0.0006 15.2904 -0.0002
# 2 4.7846 108.2453 27.2657 -0.0010 -1.8697 -0.0009
# 3 16.9690 27.2657 70.3419 -0.0042 23.5348 -0.0024
# 4 0.0006 -0.0010 -0.0042 21.1010 -0.0014 -5.0802
# 5 15.2904 -1.8697 23.5348 -0.0014 32.7258 -0.0007
# 6 -0.0002 -0.0009 -0.0024 -5.0802 -0.0007 24.4832
#
#
#
# Elastic Compliance Matrix: (Units=1/GPa)
#
#
# Indices 1 2 3 4 5 6 
#
# 1 0.026981 -0.000715 -0.002634 -0.000002 -0.010753 -0.000001
# 2 -0.000715 0.010793 -0.005701 0.000000 0.005050 0.000000
# 3 -0.002634 -0.005701 0.022069 0.000004 -0.014966 0.000002
# 4 -0.000002 0.000000 0.000004 0.049883 0.000001 0.010351
# 5 -0.010753 0.005050 -0.014966 0.000001 0.046632 0.000000
# 6 -0.000001 0.000000 0.000002 0.010351 0.000000 0.042992
#
#
# Mechanical properties :
#
#
# Convention : Reuss Voigt Hill
#
# Bulk Modulus (GPa) = 23.95620 35.72961 29.84291
# Shear Modulus (GPa) = 21.61103 27.29591 24.45347
#
# Velocity S-wave (km/s) = 3.29708 3.70545 3.50721
# Velocity P-wave (km/s) = 5.15216 6.02327 5.60466
#
# Compressibility (1/GPa) = 0.04174284
#
# Stress axis : x y z
#
# Youngs Moduli (GPa) = 37.06371 92.65179 45.31314
#
# Poissons Ratio (x) = 0.06623 0.11935
# Poissons Ratio (y) = 0.02649 0.25833
# Poissons Ratio (z) = 0.09763 0.52820
#
# Static dielectric constant tensor:
#      x y z
#    x 1.738420 0.000000 0.021160 
#    y 0.000000 1.672320 0.000000 
#    z 0.021160 0.000000 1.726440 
# 
# From -- ./inp_files/293786.got.cif
#   From: 2010.05.17/outbox.cif.g08.bks.cpg/sg15_147_cif.got.tgz:293786.got - 2010.06.03 18:47:42.
