data_PCOD9267594
_publ_section_title
;
Structure prediction by ZEFSAII (Michael W. Deem and Ramdas Pophale) SiO2 
 PCOD9267594
Probable space group: C 2/C
;
_chemical_formula_sum "Si O2"
_cell_formula_units_Z 60
_cell_length_a 17.326760
_cell_length_b 8.893061
_cell_length_c 19.925605
_cell_angle_alpha 90.000000
_cell_angle_beta 110.774455
_cell_angle_gamma 90.000000
_cell_volume 2870.676692
_symmetry_space_group_name_H-M "C 2/C"
_symmetry_group_IT_number 15
_symmetry_cell_setting 'monoclinic'
loop_
_space_group_symop_operation_xyz
x,y,z
-x,y,1/2-z
-x,-y,-z
x,-y,1/2+z
1/2+x,1/2+y,z
1/2-x,1/2+y,1/2-z
1/2-x,1/2-y,-z
1/2+x,1/2-y,1/2+z
loop_
_atom_site_type_symbol
_atom_site_label
_atom_site_fract_x
_atom_site_fract_y
_atom_site_fract_z
Si Si1 0.374631 0.868384 0.525280
Si Si2 0.215005 0.984345 0.656032
Si Si3 0.172678 0.213362 0.759182
Si Si4 0.304813 0.638554 0.590800
Si Si5 0.192230 0.649088 0.933530
Si Si6 0.081174 0.106341 0.379964
Si Si7 0.000000 0.876992 0.250000
Si Si8 0.456094 0.354651 0.952954
O O1 0.362927 0.779925 0.591768
O O2 0.287456 0.838234 0.461367
O O3 0.441768 0.782498 0.500778
O O4 0.368205 0.043588 0.540350
O O5 0.276508 0.866720 0.712430
O O6 0.130812 0.902546 0.607041
O O7 0.193958 0.123653 0.698487
O O8 0.256083 0.046375 0.600876
O O9 0.198522 0.110766 0.831286
O O10 0.073449 0.219372 0.739029
O O11 0.350551 0.504859 0.566012
O O12 0.136927 0.759050 0.870259
O O13 0.250000 0.750000 0.000000
O O14 0.017649 0.179179 0.411329
O O15 0.035415 0.993055 0.316271
O O16 0.500000 0.500000 0.000000
#
# Coordination Sequence:
#
# PCOD9267594 Si02
#       8
#     8   8   8   8   8   8   4   8
#     4  11  20  39  70  98 135 184 239 278 352 419
#     4  12  26  45  72 106 138 187 241 290 355 428
#     4  11  24  44  72 103 135 183 236 290 354 435
#     4  10  19  39  67  95 130 187 232 277 344 425
#     4  12  25  43  70 105 140 185 236 295 350 418
#     4  11  23  41  67  96 139 184 228 282 355 409
#     4  10  24  46  72  94 140 194 228 278 368 420
#     4  12  23  42  69 104 139 183 237 296 351 421
#
# _framework density 20.900995999999999
#
# number of rings (size 3 to 8) (size 9 to 14) (size 15 to 20)
#    0.000    0.800    6.667    1.600    3.733    0.533 
#    0.000    2.000    0.000    0.000    0.000    0.000 
#    0.000    0.000    0.000    0.000    0.000    0.000 
#
# Total GULP energy -167207.122396 kJ/mol
# GULP energy per Si atom -5573.570747 kJ/mol
# Density = 2.085342 g / cm^3
# Si number density = 20.900996 Si / 1000 Ang^3
#
#
#
# Elastic Constant Matrix: (Units=GPa)
#
#
# Indices 1 2 3 4 5 6 
#
# 1 108.8349 51.6474 20.2094 0.0000 -9.6468 0.0000
# 2 51.6474 107.4384 20.7298 0.0000 2.1277 0.0000
# 3 20.2094 20.7298 66.2374 0.0000 -6.8322 0.0000
# 4 0.0000 0.0000 0.0000 36.7237 0.0000 -0.9618
# 5 -9.6468 2.1277 -6.8322 0.0000 28.2890 0.0000
# 6 0.0000 0.0000 0.0000 -0.9618 0.0000 38.8689
#
#
#
# Elastic Compliance Matrix: (Units=1/GPa)
#
#
# Indices 1 2 3 4 5 6 
#
# 1 0.012651 -0.005865 -0.001573 0.000000 0.004375 0.000000
# 2 -0.005865 0.012690 -0.002550 0.000000 -0.003570 0.000000
# 3 -0.001573 -0.002550 0.016757 0.000000 0.003702 0.000000
# 4 0.000000 0.000000 0.000000 0.027248 0.000000 0.000674
# 5 0.004375 -0.003570 0.003702 0.000000 0.038004 0.000000
# 6 0.000000 0.000000 0.000000 0.000674 0.000000 0.025744
#
#
# Mechanical properties :
#
#
# Convention : Reuss Voigt Hill
#
# Bulk Modulus (GPa) = 45.20451 51.96486 48.58469
# Shear Modulus (GPa) = 31.16327 33.43792 32.30060
#
# Velocity S-wave (km/s) = 3.86553 4.00412 3.93543
# Velocity P-wave (km/s) = 6.44965 6.80394 6.62916
#
# Compressibility (1/GPa) = 0.02212169
#
# Stress axis : x y z
#
# Youngs Moduli (GPa) = 79.04323 78.80379 59.67564
#
# Poissons Ratio (x) = 0.46217 0.09388
# Poissons Ratio (y) = 0.46357 0.15219
# Poissons Ratio (z) = 0.12435 0.20097
#
# Static dielectric constant tensor:
#      x y z
#    x 1.780290 0.000000 0.017190 
#    y 0.000000 1.802690 0.000000 
#    z 0.017190 0.000000 1.780110 
# 
# From -- ./inp_files/247531.got.cif
#   From: 2010.05.17/outbox.cif.g08.bks.cpg/sg15_124_cif.got.tgz:247531.got - 2010.06.03 18:47:42.
