data_PCOD9267279
_publ_section_title
;
Structure prediction by ZEFSAII (Michael W. Deem and Ramdas Pophale) SiO2 
 PCOD9267279
Probable space group: C 2/C
;
_chemical_formula_sum "Si O2"
_cell_formula_units_Z 64
_cell_length_a 14.410566
_cell_length_b 14.394401
_cell_length_c 16.035154
_cell_angle_alpha 90.000000
_cell_angle_beta 112.803119
_cell_angle_gamma 90.000000
_cell_volume 3066.226892
_symmetry_space_group_name_H-M "C 2/C"
_symmetry_group_IT_number 15
_symmetry_cell_setting 'monoclinic'
loop_
_space_group_symop_operation_xyz
x,y,z
-x,y,1/2-z
-x,-y,-z
x,-y,1/2+z
1/2+x,1/2+y,z
1/2-x,1/2+y,1/2-z
1/2-x,1/2-y,-z
1/2+x,1/2-y,1/2+z
loop_
_atom_site_type_symbol
_atom_site_label
_atom_site_fract_x
_atom_site_fract_y
_atom_site_fract_z
Si Si1 0.304976 0.904323 0.806991
Si Si2 0.614212 0.270400 0.883340
Si Si3 0.362137 0.082887 0.076907
Si Si4 0.952624 0.452955 0.319702
Si Si5 0.295449 0.100294 0.497552
Si Si6 0.386887 0.321411 0.799394
Si Si7 0.116872 0.745863 0.279821
Si Si8 0.319098 0.823692 0.388104
O O1 0.324282 0.922805 0.911549
O O2 0.185582 0.906807 0.747755
O O3 0.352854 0.804771 0.796938
O O4 0.358949 0.979741 0.768977
O O5 0.694563 0.339189 0.953325
O O6 0.506097 0.319891 0.848336
O O7 0.637303 0.260002 0.792599
O O8 0.624722 0.171131 0.932280
O O9 0.367705 0.160981 0.149421
O O10 0.466802 0.024112 0.111571
O O11 0.340213 0.142562 0.987165
O O12 0.286061 0.994929 0.045702
O O13 0.899767 0.378227 0.359390
O O14 0.000000 0.418272 0.250000
O O15 0.345406 0.281327 0.871449
O O16 0.199875 0.825881 0.325517
O O17 0.000000 0.773642 0.250000
#
# Coordination Sequence:
#
# PCOD9267279 Si02
#       8
#     8   8   8   8   8   8   8   8
#     4  10  19  39  57  86 118 161 203 254 311 362
#     4   9  19  37  54  91 124 166 202 258 314 374
#     4  12  22  38  64  92 122 162 207 260 312 364
#     4  12  23  38  64  91 122 158 211 267 312 361
#     4  10  21  34  60  89 129 156 211 259 312 367
#     4   9  20  34  58  80 124 163 202 250 308 369
#     4  11  23  44  63  88 129 171 199 256 318 371
#     4  11  25  37  61  97 122 159 215 255 307 376
#
# _framework density 20.872558000000001
#
# number of rings (size 3 to 8) (size 9 to 14) (size 15 to 20)
#    0.000    1.500    3.750    1.500    5.250    0.000 
#    2.250    1.250    0.000    3.000    0.000    0.000 
#    0.000    0.000    0.000    0.000    0.000    0.000 
#
# Total GULP energy -178251.970827 kJ/mol
# GULP energy per Si atom -5570.374088 kJ/mol
# Density = 2.082505 g / cm^3
# Si number density = 20.872558 Si / 1000 Ang^3
#
#
#
# Elastic Constant Matrix: (Units=GPa)
#
#
# Indices 1 2 3 4 5 6 
#
# 1 99.7117 13.0888 24.3804 0.0000 21.2364 0.0000
# 2 13.0888 45.1897 24.7941 0.0000 3.4390 0.0000
# 3 24.3804 24.7941 82.3109 0.0000 14.8993 0.0000
# 4 0.0000 0.0000 0.0000 32.0952 0.0000 6.0007
# 5 21.2364 3.4390 14.8993 0.0000 25.2090 0.0000
# 6 0.0000 0.0000 0.0000 6.0007 0.0000 25.8301
#
#
#
# Elastic Compliance Matrix: (Units=1/GPa)
#
#
# Indices 1 2 3 4 5 6 
#
# 1 0.012692 -0.002200 -0.001361 0.000000 -0.009588 0.000000
# 2 -0.002200 0.026926 -0.007984 0.000000 0.002899 0.000000
# 3 -0.001361 -0.007984 0.016296 0.000000 -0.007395 0.000000
# 4 0.000000 0.000000 0.000000 0.032572 0.000000 -0.007567
# 5 -0.009588 0.002899 -0.007395 0.000000 0.051721 0.000000
# 6 0.000000 0.000000 0.000000 -0.007567 0.000000 0.040472
#
#
# Mechanical properties :
#
#
# Convention : Reuss Voigt Hill
#
# Bulk Modulus (GPa) = 30.46519 39.08210 34.77364
# Shear Modulus (GPa) = 23.28714 27.62347 25.45530
#
# Velocity S-wave (km/s) = 3.34381 3.64185 3.49601
# Velocity P-wave (km/s) = 5.43466 6.03729 5.74389
#
# Compressibility (1/GPa) = 0.03282435
#
# Stress axis : x y z
#
# Youngs Moduli (GPa) = 78.78669 37.13887 61.36507
#
# Poissons Ratio (x) = 0.08169 0.08354
# Poissons Ratio (y) = 0.17331 0.48993
# Poissons Ratio (z) = 0.10726 0.29651
#
# Static dielectric constant tensor:
#      x y z
#    x 1.823410 0.000000 0.014540 
#    y 0.000000 1.808830 0.000000 
#    z 0.014540 0.000000 1.797990 
# 
# From -- ./inp_files/205446.got.cif
#   From: 2010.05.17/outbox.cif.g08.bks.cpg/sg15_103_cif.got.tgz:205446.got - 2010.06.03 18:47:42.
