data_PCOD9267711
_publ_section_title
;
Structure prediction by ZEFSAII (Michael W. Deem and Ramdas Pophale) SiO2 
 PCOD9267711
Probable space group: C 2/C
;
_chemical_formula_sum "Si O2"
_cell_formula_units_Z 60
_cell_length_a 19.642622
_cell_length_b 9.289318
_cell_length_c 21.050451
_cell_angle_alpha 90.000000
_cell_angle_beta 48.438290
_cell_angle_gamma 90.000000
_cell_volume 2873.998611
_symmetry_space_group_name_H-M "C 2/C"
_symmetry_group_IT_number 15
_symmetry_cell_setting 'monoclinic'
loop_
_space_group_symop_operation_xyz
x,y,z
-x,y,1/2-z
-x,-y,-z
x,-y,1/2+z
1/2+x,1/2+y,z
1/2-x,1/2+y,1/2-z
1/2-x,1/2-y,-z
1/2+x,1/2-y,1/2+z
loop_
_atom_site_type_symbol
_atom_site_label
_atom_site_fract_x
_atom_site_fract_y
_atom_site_fract_z
Si Si1 0.808384 0.019654 0.449889
Si Si2 0.179528 0.467543 0.644269
Si Si3 0.292245 0.266914 0.848559
Si Si4 0.764917 0.488285 0.707529
Si Si5 0.000000 0.714428 0.250000
Si Si6 0.142269 0.789623 0.359141
Si Si7 0.960483 0.842678 0.407847
Si Si8 0.294000 0.803819 0.076798
O O1 0.812778 0.156051 0.401606
O O2 0.727630 0.024735 0.550498
O O3 0.901009 0.983812 0.429410
O O4 0.780230 0.883669 0.422188
O O5 0.159878 0.615686 0.692626
O O6 0.251374 0.348642 0.625057
O O7 0.088156 0.383354 0.689493
O O8 0.307723 0.385337 0.784204
O O9 0.183643 0.235052 0.904088
O O10 0.837926 0.368177 0.684964
O O11 0.709421 0.592250 0.787350
O O12 0.809199 0.590881 0.626487
O O13 0.995186 0.802767 0.187477
O O14 0.040875 0.841122 0.409448
O O15 0.883838 0.730893 0.480683
#
# Coordination Sequence:
#
# PCOD9267711 Si02
#       8
#     8   8   8   8   4   8   8   8
#     4  10  19  43  60  91 122 167 205 256 309 385
#     4  11  20  37  64  91 127 159 207 253 320 368
#     4   9  23  39  63  85 123 170 199 252 322 365
#     4   9  22  39  63  82 124 163 208 247 323 372
#     4  12  22  30  62 100 118 150 212 256 296 380
#     4  10  23  40  62  90 119 166 205 255 307 377
#     4  11  22  36  65  94 121 157 215 251 308 370
#     4  10  19  40  62  89 119 166 202 256 311 381
#
# _framework density 20.876836000000001
#
# number of rings (size 3 to 8) (size 9 to 14) (size 15 to 20)
#    0.800    1.067    2.667    2.000    5.600    0.533 
#    2.400    2.667    0.000    0.000    0.000    0.000 
#    0.000    0.000    0.000    0.000    0.000    0.000 
#
# Total GULP energy -167108.137972 kJ/mol
# GULP energy per Si atom -5570.271266 kJ/mol
# Density = 2.082932 g / cm^3
# Si number density = 20.876836 Si / 1000 Ang^3
#
#
#
# Elastic Constant Matrix: (Units=GPa)
#
#
# Indices 1 2 3 4 5 6 
#
# 1 74.1510 20.8442 9.2494 0.0000 -22.0878 0.0000
# 2 20.8442 112.1417 25.2613 -0.0001 4.8485 0.0000
# 3 9.2494 25.2613 36.8347 0.0000 -9.0883 0.0000
# 4 0.0000 -0.0001 0.0000 12.0769 0.0000 6.0986
# 5 -22.0878 4.8485 -9.0883 0.0000 21.0493 0.0000
# 6 0.0000 0.0000 0.0000 6.0986 0.0000 23.1550
#
#
#
# Elastic Compliance Matrix: (Units=1/GPa)
#
#
# Indices 1 2 3 4 5 6 
#
# 1 0.023141 -0.006860 0.005904 0.000000 0.028412 0.000000
# 2 -0.006860 0.013360 -0.011164 0.000000 -0.015096 0.000000
# 3 0.005904 -0.011164 0.039716 0.000000 0.025915 0.000000
# 4 0.000000 0.000000 0.000000 0.095505 0.000000 -0.025154
# 5 0.028412 -0.015096 0.025915 0.000000 0.091987 0.000000
# 6 0.000000 0.000000 0.000000 -0.025154 0.000000 0.049812
#
#
# Mechanical properties :
#
#
# Convention : Reuss Voigt Hill
#
# Bulk Modulus (GPa) = 19.23941 37.09302 28.16621
# Shear Modulus (GPa) = 14.08104 22.44109 18.26106
#
# Velocity S-wave (km/s) = 2.59990 3.28217 2.96075
# Velocity P-wave (km/s) = 4.27180 5.67183 5.02085
#
# Compressibility (1/GPa) = 0.05197664
#
# Stress axis : x y z
#
# Youngs Moduli (GPa) = 43.21337 74.85093 25.17848
#
# Poissons Ratio (x) = 0.51344 -0.14864
# Poissons Ratio (y) = 0.29642 0.28110
# Poissons Ratio (z) = -0.25511 0.83566
#
# Static dielectric constant tensor:
#      x y z
#    x 1.821290 0.000000 0.053130 
#    y 0.000000 1.794970 0.000000 
#    z 0.053130 0.000000 1.741470 
# 
# From -- ./inp_files/279699.got.cif
#   From: 2010.05.17/outbox.cif.g08.bks.cpg/sg15_140_cif.got.tgz:279699.got - 2010.06.03 18:47:42.
