data_PCOD9267280
_publ_section_title
;
Structure prediction by ZEFSAII (Michael W. Deem and Ramdas Pophale) SiO2 
 PCOD9267280
Probable space group: C 2/C
;
_chemical_formula_sum "Si O2"
_cell_formula_units_Z 60
_cell_length_a 27.069990
_cell_length_b 19.741204
_cell_length_c 10.076849
_cell_angle_alpha 90.000000
_cell_angle_beta 142.370488
_cell_angle_gamma 90.000000
_cell_volume 3287.834723
_symmetry_space_group_name_H-M "C 2/C"
_symmetry_group_IT_number 15
_symmetry_cell_setting 'monoclinic'
loop_
_space_group_symop_operation_xyz
x,y,z
-x,y,1/2-z
-x,-y,-z
x,-y,1/2+z
1/2+x,1/2+y,z
1/2-x,1/2+y,1/2-z
1/2-x,1/2-y,-z
1/2+x,1/2-y,1/2+z
loop_
_atom_site_type_symbol
_atom_site_label
_atom_site_fract_x
_atom_site_fract_y
_atom_site_fract_z
Si Si1 0.587659 0.750345 0.883619
Si Si2 0.678263 0.801555 0.675450
Si Si3 0.354368 0.442703 0.388059
Si Si4 0.972192 0.154729 0.974326
Si Si5 0.283391 0.313407 0.651915
Si Si6 0.000000 0.741408 0.750000
Si Si7 0.877223 0.067279 0.241036
Si Si8 0.726308 0.837291 0.067280
O O1 0.500000 0.770023 0.750000
O O2 0.576394 0.697752 0.737973
O O3 0.636544 0.711479 0.101303
O O4 0.642633 0.813127 0.955209
O O5 0.719211 0.830737 0.630472
O O6 0.581530 0.798842 0.457778
O O7 0.712175 0.724460 0.764999
O O8 0.710297 0.837890 0.875642
O O9 0.414160 0.387897 0.447267
O O10 0.360386 0.508387 0.309372
O O11 0.378177 0.456633 0.590508
O O12 0.266944 0.406634 0.198583
O O13 0.017977 0.209720 0.163228
O O14 0.036502 0.103120 0.049428
O O15 0.250000 0.250000 0.500000
O O16 0.308787 0.375418 0.614096
#
# Coordination Sequence:
#
# PCOD9267280 Si02
#       8
#     8   8   8   8   8   4   8   8
#     4  11  22  35  64  94 125 160 207 267 315 363
#     4  10  20  33  62  85 118 159 204 260 306 366
#     4  12  25  40  60  82 129 169 213 241 306 378
#     4  12  21  38  58  87 131 164 206 247 305 376
#     4  11  23  39  60  87 123 155 212 264 315 361
#     4  12  18  36  60  94 122 156 202 252 314 374
#     4  12  26  40  59  90 122 173 208 253 303 378
#     4  10  19  39  57  87 121 165 205 252 313 363
#
# _framework density 18.249092999999998
#
# number of rings (size 3 to 8) (size 9 to 14) (size 15 to 20)
#    0.000    0.800    5.333    4.400    3.733    0.000 
#    0.000    0.000    0.000    0.000    1.733    2.800 
#    0.000    0.000    0.000    0.000    0.000    0.000 
#
# Total GULP energy -167671.862281 kJ/mol
# GULP energy per Si atom -5589.062076 kJ/mol
# Density = 1.820756 g / cm^3
# Si number density = 18.249093 Si / 1000 Ang^3
#
#
#
# Elastic Constant Matrix: (Units=GPa)
#
#
# Indices 1 2 3 4 5 6 
#
# 1 110.2770 31.3946 27.8762 0.0000 5.2224 0.0000
# 2 31.3946 54.1999 22.0286 0.0000 -1.4855 0.0000
# 3 27.8762 22.0286 92.8318 0.0000 0.7220 0.0000
# 4 0.0000 0.0000 0.0000 14.3467 0.0000 -6.4276
# 5 5.2224 -1.4855 0.7220 0.0000 37.1175 0.0000
# 6 0.0000 0.0000 0.0000 -6.4276 0.0000 29.3686
#
#
#
# Elastic Compliance Matrix: (Units=1/GPa)
#
#
# Indices 1 2 3 4 5 6 
#
# 1 0.011306 -0.005781 -0.002009 0.000000 -0.001783 0.000000
# 2 -0.005781 0.023407 -0.003832 0.000000 0.001825 0.000000
# 3 -0.002009 -0.003832 0.012286 0.000000 -0.000110 0.000000
# 4 0.000000 0.000000 0.000000 0.077280 0.000000 0.016913
# 5 -0.001783 0.001825 -0.000110 0.000000 0.027268 0.000000
# 6 0.000000 0.000000 0.000000 0.016913 0.000000 0.037752
#
#
# Mechanical properties :
#
#
# Convention : Reuss Voigt Hill
#
# Bulk Modulus (GPa) = 42.10069 46.65636 44.37853
# Shear Modulus (GPa) = 22.67971 27.90052 25.29012
#
# Velocity S-wave (km/s) = 3.52914 3.91432 3.72671
# Velocity P-wave (km/s) = 6.30290 6.78610 6.54896
#
# Compressibility (1/GPa) = 0.02375258
#
# Stress axis : x y z
#
# Youngs Moduli (GPa) = 88.44622 42.72311 81.39449
#
# Poissons Ratio (x) = 0.24699 0.16356
# Poissons Ratio (y) = 0.51133 0.31194
# Poissons Ratio (z) = 0.17773 0.16373
#
# Static dielectric constant tensor:
#      x y z
#    x 1.671870 0.000000 -0.004740 
#    y 0.000000 1.610830 0.000000 
#    z -0.004740 0.000000 1.644170 
# 
# From -- ./inp_files/67534.got.cif
#   From: 2010.05.17/outbox.cif.g08.bks.cpg/sg15_34_cif.got.tgz:67534.got - 2010.06.03 18:47:42.
