data_PCOD9267155
_publ_section_title
;
Structure prediction by ZEFSAII (Michael W. Deem and Ramdas Pophale) SiO2 
 PCOD9267155
Probable space group: C 2/C
;
_chemical_formula_sum "Si O2"
_cell_formula_units_Z 48
_cell_length_a 23.050084
_cell_length_b 15.410771
_cell_length_c 19.233873
_cell_angle_alpha 90.000000
_cell_angle_beta 17.485782
_cell_angle_gamma 90.000000
_cell_volume 2052.879581
_symmetry_space_group_name_H-M "C 2/C"
_symmetry_group_IT_number 15
_symmetry_cell_setting 'monoclinic'
loop_
_space_group_symop_operation_xyz
x,y,z
-x,y,1/2-z
-x,-y,-z
x,-y,1/2+z
1/2+x,1/2+y,z
1/2-x,1/2+y,1/2-z
1/2-x,1/2-y,-z
1/2+x,1/2-y,1/2+z
loop_
_atom_site_type_symbol
_atom_site_label
_atom_site_fract_x
_atom_site_fract_y
_atom_site_fract_z
Si Si1 0.626942 0.338239 0.903981
Si Si2 0.223970 0.871448 0.510424
Si Si3 0.709621 0.579410 0.540071
Si Si4 0.140340 0.645455 0.488745
Si Si5 0.277773 0.551595 0.811227
Si Si6 0.440856 0.837798 0.658756
O O1 0.744469 0.304588 0.702644
O O2 0.780176 0.364054 0.787066
O O3 0.490214 0.419637 0.045038
O O4 0.494629 0.261422 0.084834
O O5 0.277358 0.841938 0.527649
O O6 0.237414 0.976787 0.491562
O O7 0.409247 0.841590 0.253453
O O8 0.000000 0.848460 0.750000
O O9 0.500000 0.603412 0.750000
O O10 0.725919 0.583588 0.604011
O O11 0.859948 0.638446 0.327030
O O12 0.195944 0.545458 0.407908
O O13 0.132477 0.606522 0.930653
#
# Coordination Sequence:
#
# PCOD9267155 Si02
#       6
#     8   8   8   8   8   8
#     4  12  26  41  58  92 138 177 216 254 322 396
#     4   9  19  39  69 100 120 159 213 276 333 367
#     4  10  19  38  66  91 129 164 217 261 308 389
#     4  10  22  40  67  97 129 161 216 278 318 382
#     4  11  22  41  63  93 128 175 214 266 319 373
#     4  12  24  42  59  91 132 178 211 254 326 387
#
# _framework density 23.381791
#
# number of rings (size 3 to 8) (size 9 to 14) (size 15 to 20)
#    0.000    1.333    5.000    1.000    0.000    2.667 
#    3.000    0.000    0.000    4.000    0.000    0.000 
#    0.000    0.000    0.000    0.000    0.000    0.000 
#
# Total GULP energy -134225.716692 kJ/mol
# GULP energy per Si atom -5592.738196 kJ/mol
# Density = 2.332857 g / cm^3
# Si number density = 23.381791 Si / 1000 Ang^3
#
#
#
# Elastic Constant Matrix: (Units=GPa)
#
#
# Indices 1 2 3 4 5 6 
#
# 1 -364.9529 29.0735 69.1650 0.2016 54.0770 -0.0246
# 2 29.0735 96.3075 37.3268 0.0272 -8.8640 -0.0142
# 3 69.1650 37.3268 168.0301 -0.0046 -14.9203 -0.0102
# 4 0.2016 0.0272 -0.0046 14.6942 -0.0209 8.5544
# 5 54.0770 -8.8640 -14.9203 -0.0209 49.4062 0.0022
# 6 -0.0246 -0.0142 -0.0102 8.5544 0.0022 17.5072
#
#
#
# Elastic Compliance Matrix: (Units=1/GPa)
#
#
# Indices 1 2 3 4 5 6 
#
# 1 -0.002111 0.000499 0.000998 0.000047 0.002701 -0.000025
# 2 0.000499 0.011327 -0.002661 -0.000045 0.000682 0.000030
# 3 0.000998 -0.002661 0.006157 -0.000011 0.000290 0.000008
# 4 0.000047 -0.000045 -0.000011 0.095107 -0.000021 -0.046471
# 5 0.002701 0.000682 0.000290 -0.000021 0.017494 0.000012
# 6 -0.000025 0.000030 0.000008 -0.046471 0.000012 0.079826
#
#
# Mechanical properties :
#
#
# Convention : Reuss Voigt Hill
#
# Bulk Modulus (GPa) = 76.65585 18.94613 47.80099
# Shear Modulus (GPa) = 23.31251 0.57614 11.94433
#
# Velocity S-wave (km/s) = 3.16102 0.49693 2.26263
# Velocity P-wave (km/s) = 6.79546 2.90685 5.22628
#
# Compressibility (1/GPa) = 0.01304532
#
# Stress axis : x y z
#
# Youngs Moduli (GPa) = -473.73218 88.28521 162.40531
#
# Poissons Ratio (x) = -0.04406 -0.16206
# Poissons Ratio (y) = 0.23644 0.43217
# Poissons Ratio (z) = 0.47273 0.23493
#
# Static dielectric constant tensor:
#      x y z
#    x 1.833030 0.000000 0.028380 
#    y 0.000000 1.896810 0.000030 
#    z 0.028380 0.000030 1.923120 
# 
# From -- ./inp_files/216265.got.cif
#   From: 2010.05.17/outbox.cif.g08.bks.cpg/sg15_109_cif.got.tgz:216265.got - 2010.06.03 18:47:42.
