data_PCOD9267612
_publ_section_title
;
Structure prediction by ZEFSAII (Michael W. Deem and Ramdas Pophale) SiO2 
 PCOD9267612
Probable space group: C 2/C
;
_chemical_formula_sum "Si O2"
_cell_formula_units_Z 40
_cell_length_a 11.668377
_cell_length_b 19.722290
_cell_length_c 15.810187
_cell_angle_alpha 90.000000
_cell_angle_beta 29.565985
_cell_angle_gamma 90.000000
_cell_volume 1795.256314
_symmetry_space_group_name_H-M "C 2/C"
_symmetry_group_IT_number 15
_symmetry_cell_setting 'monoclinic'
loop_
_space_group_symop_operation_xyz
x,y,z
-x,y,1/2-z
-x,-y,-z
x,-y,1/2+z
1/2+x,1/2+y,z
1/2-x,1/2+y,1/2-z
1/2-x,1/2-y,-z
1/2+x,1/2-y,1/2+z
loop_
_atom_site_type_symbol
_atom_site_label
_atom_site_fract_x
_atom_site_fract_y
_atom_site_fract_z
Si Si1 0.761176 0.221481 0.857022
Si Si2 0.346462 0.127639 0.720631
Si Si3 0.355043 0.512677 0.178138
Si Si4 0.345025 0.378943 0.963562
Si Si5 0.302685 0.841589 0.729418
O O1 0.755699 0.188320 0.767821
O O2 0.745971 0.302120 0.852244
O O3 0.000000 0.205458 0.750000
O O4 0.541458 0.189163 0.044065
O O5 0.249340 0.125962 0.878848
O O6 0.625238 0.134105 0.546868
O O7 0.276120 0.056891 0.720676
O O8 0.187601 0.577090 0.268972
O O9 0.500000 0.500000 0.000000
O O10 0.545826 0.545756 0.118381
O O11 0.574451 0.332034 0.815635
#
# Coordination Sequence:
#
# PCOD9267612 Si02
#       5
#     8   8   8   8   8
#     4  12  26  42  63  95 132 177 215 264 327 384
#     4  10  19  39  68  93 133 160 216 270 311 396
#     4   8  18  39  65  96 125 165 210 261 320 378
#     4   8  19  39  64  99 118 167 213 258 337 363
#     4  10  23  43  61  94 128 171 222 257 329 378
#
# _framework density 22.280940999999999
#
# number of rings (size 3 to 8) (size 9 to 14) (size 15 to 20)
#    1.200    1.200    0.000    1.800    0.000    4.000 
#    7.200    0.000    0.000    0.000    0.000    0.000 
#    0.000    0.000    0.000    0.000    0.000    0.000 
#
# Total GULP energy -111457.295961 kJ/mol
# GULP energy per Si atom -5572.864798 kJ/mol
# Density = 2.223023 g / cm^3
# Si number density = 22.280941 Si / 1000 Ang^3
#
#
#
# Elastic Constant Matrix: (Units=GPa)
#
#
# Indices 1 2 3 4 5 6 
#
# 1 83.3773 7.5563 28.9051 -0.1055 -35.1357 0.0955
# 2 7.5563 70.5527 14.4719 -0.2271 -8.6884 0.2081
# 3 28.9051 14.4719 127.4973 -0.0415 -25.5411 0.1960
# 4 -0.1055 -0.2271 -0.0415 26.5114 -0.0069 -12.4806
# 5 -35.1357 -8.6884 -25.5411 -0.0069 45.6861 -0.0906
# 6 0.0955 0.2081 0.1960 -12.4806 -0.0906 8.9195
#
#
#
# Elastic Compliance Matrix: (Units=1/GPa)
#
#
# Indices 1 2 3 4 5 6 
#
# 1 0.017987 -0.000023 -0.001470 0.000174 0.013007 0.000216
# 2 -0.000023 0.014689 -0.001245 -0.000041 0.002079 -0.000352
# 3 -0.001470 -0.001245 0.009059 -0.000165 0.003697 -0.000348
# 4 0.000174 -0.000041 -0.000165 0.110532 0.000357 0.154668
# 5 0.013007 0.002079 0.003697 0.000357 0.034355 0.000580
# 6 0.000216 -0.000352 -0.000348 0.154668 0.000580 0.328553
#
#
# Mechanical properties :
#
#
# Convention : Reuss Voigt Hill
#
# Bulk Modulus (GPa) = 27.57998 42.58821 35.08409
# Shear Modulus (GPa) = 9.38551 31.58966 20.48758
#
# Velocity S-wave (km/s) = 2.05463 3.76944 3.03563
# Velocity P-wave (km/s) = 4.24662 6.17257 5.29785
#
# Compressibility (1/GPa) = 0.03625818
#
# Stress axis : x y z
#
# Youngs Moduli (GPa) = 55.59685 68.08012 110.38950
#
# Poissons Ratio (x) = 0.00158 0.16224
# Poissons Ratio (y) = 0.00129 0.13744
# Poissons Ratio (z) = 0.08171 0.08476
#
# Static dielectric constant tensor:
#      x y z
#    x 1.840280 0.000010 0.053470 
#    y 0.000010 1.812750 0.000010 
#    z 0.053470 0.000010 1.878080 
# 
# From -- ./inp_files/200280.got.cif
#   From: 2010.05.17/outbox.cif.g08.bks.cpg/sg15_101_cif.got.tgz:200280.got - 2010.06.03 18:47:42.
