data_PCOD9267624
_publ_section_title
;
Structure prediction by ZEFSAII (Michael W. Deem and Ramdas Pophale) SiO2 
 PCOD9267624
Probable space group: C 2/C
;
_chemical_formula_sum "Si O2"
_cell_formula_units_Z 52
_cell_length_a 7.309313
_cell_length_b 27.289495
_cell_length_c 14.649529
_cell_angle_alpha 90.000000
_cell_angle_beta 122.370250
_cell_angle_gamma 90.000000
_cell_volume 2468.026958
_symmetry_space_group_name_H-M "C 2/C"
_symmetry_group_IT_number 15
_symmetry_cell_setting 'monoclinic'
loop_
_space_group_symop_operation_xyz
x,y,z
-x,y,1/2-z
-x,-y,-z
x,-y,1/2+z
1/2+x,1/2+y,z
1/2-x,1/2+y,1/2-z
1/2-x,1/2-y,-z
1/2+x,1/2-y,1/2+z
loop_
_atom_site_type_symbol
_atom_site_label
_atom_site_fract_x
_atom_site_fract_y
_atom_site_fract_z
Si Si1 0.283930 0.522243 0.668714
Si Si2 0.138625 0.304326 0.194886
Si Si3 0.963810 0.563364 0.061861
Si Si4 0.261047 0.394635 0.311336
Si Si5 0.605766 0.304870 0.678919
Si Si6 0.227231 0.632586 0.996690
Si Si7 0.000000 0.624216 0.250000
O O1 0.500000 0.491183 0.750000
O O2 0.234636 0.549968 0.559447
O O3 0.307846 0.562240 0.754764
O O4 0.077620 0.487244 0.621764
O O5 0.319385 0.342419 0.279942
O O6 0.182601 0.249842 0.171190
O O7 0.000000 0.295743 0.250000
O O8 0.984964 0.335175 0.086369
O O9 0.917248 0.592538 0.141866
O O10 0.139121 0.594597 0.048672
O O11 0.320739 0.396118 0.433147
O O12 0.000000 0.395603 0.250000
O O13 0.500000 0.303505 0.750000
O O14 0.412795 0.328570 0.569264
O O15 0.806367 0.341399 0.731647
#
# Coordination Sequence:
#
# PCOD9267624 Si02
#       7
#     8   8   8   8   8   8   4
#     4  11  25  42  68  94 125 172 219 277 339 387
#     4   8  17  36  65  94 122 169 214 264 321 385
#     4  11  25  45  62  95 134 166 220 277 327 399
#     4   9  18  39  64  92 122 159 215 262 324 377
#     4  11  22  40  65  92 134 177 220 259 324 396
#     4  10  19  39  69  90 127 174 214 271 327 382
#     4  12  28  42  62 100 138 176 214 266 332 394
#
# _framework density 21.069462999999999
#
# number of rings (size 3 to 8) (size 9 to 14) (size 15 to 20)
#    0.000    2.154    4.615    0.462    5.385    0.000 
#    1.385    2.308    0.000    0.000    0.000    0.000 
#    0.000    0.000    0.000    0.000    0.000    0.000 
#
# Total GULP energy -144772.840016 kJ/mol
# GULP energy per Si atom -5568.186154 kJ/mol
# Density = 2.102151 g / cm^3
# Si number density = 21.069463 Si / 1000 Ang^3
#
#
#
# Elastic Constant Matrix: (Units=GPa)
#
#
# Indices 1 2 3 4 5 6 
#
# 1 48.6466 16.5315 21.3160 0.0000 -10.4082 0.0000
# 2 16.5315 95.6853 36.4921 0.0000 -17.4573 0.0000
# 3 21.3160 36.4921 86.1223 0.0000 -11.4959 0.0000
# 4 0.0000 0.0000 0.0000 -39.3464 0.0000 -7.9761
# 5 -10.4082 -17.4573 -11.4959 0.0000 23.8523 0.0000
# 6 0.0000 0.0000 0.0000 -7.9761 0.0000 5.4452
#
#
#
# Elastic Compliance Matrix: (Units=1/GPa)
#
#
# Indices 1 2 3 4 5 6 
#
# 1 0.024591 -0.001088 -0.004595 0.000000 0.007720 0.000000
# 2 -0.001088 0.013723 -0.004562 0.000000 0.007371 0.000000
# 3 -0.004595 -0.004562 0.014929 0.000000 0.001851 0.000000
# 4 0.000000 0.000000 0.000000 -0.019596 0.000000 -0.028705
# 5 0.007720 0.007371 0.001851 0.000000 0.051580 0.000000
# 6 0.000000 0.000000 0.000000 -0.028705 0.000000 0.141601
#
#
# Mechanical properties :
#
#
# Convention : Reuss Voigt Hill
#
# Bulk Modulus (GPa) = 30.53055 42.12593 36.32824
# Shear Modulus (GPa) = 19.36213 8.39786 13.88000
#
# Velocity S-wave (km/s) = 3.03474 1.99861 2.56944
# Velocity P-wave (km/s) = 5.17700 5.03619 5.10708
#
# Compressibility (1/GPa) = 0.03275408
#
# Stress axis : x y z
#
# Youngs Moduli (GPa) = 40.66483 72.86829 66.98460
#
# Poissons Ratio (x) = 0.07926 0.30781
# Poissons Ratio (y) = 0.04423 0.30557
# Poissons Ratio (z) = 0.18686 0.33241
#
# Static dielectric constant tensor:
#      x y z
#    x 1.801340 0.000000 0.009950 
#    y 0.000000 1.843670 0.000000 
#    z 0.009950 0.000000 1.790380 
# 
# From -- ./inp_files/138778.got.cif
#   From: 2010.05.17/outbox.cif.g08.bks.cpg/sg15_70_cif.got.tgz:138778.got - 2010.06.03 18:47:42.
