data_PCOD9267426
_publ_section_title
;
Structure prediction by ZEFSAII (Michael W. Deem and Ramdas Pophale) SiO2 
 PCOD9267426
Probable space group: C 2/C
;
_chemical_formula_sum "Si O2"
_cell_formula_units_Z 40
_cell_length_a 22.765578
_cell_length_b 16.627296
_cell_length_c 14.485976
_cell_angle_alpha 90.000000
_cell_angle_beta 160.397319
_cell_angle_gamma 90.000000
_cell_volume 1839.648983
_symmetry_space_group_name_H-M "C 2/C"
_symmetry_group_IT_number 15
_symmetry_cell_setting 'monoclinic'
loop_
_space_group_symop_operation_xyz
x,y,z
-x,y,1/2-z
-x,-y,-z
x,-y,1/2+z
1/2+x,1/2+y,z
1/2-x,1/2+y,1/2-z
1/2-x,1/2-y,-z
1/2+x,1/2-y,1/2+z
loop_
_atom_site_type_symbol
_atom_site_label
_atom_site_fract_x
_atom_site_fract_y
_atom_site_fract_z
Si Si1 0.177407 0.446155 0.275910
Si Si2 0.294851 0.027452 0.468679
Si Si3 0.655885 0.586209 0.078951
Si Si4 0.320534 0.356471 0.160932
Si Si5 0.929914 0.687510 0.366802
O O1 0.227421 0.448658 0.457527
O O2 0.314944 0.497106 0.419799
O O3 0.000000 0.500000 0.000000
O O4 0.115343 0.357335 0.153632
O O5 0.225399 0.936829 0.353226
O O6 0.199303 0.081080 0.252048
O O7 0.500000 0.029180 0.750000
O O8 0.796724 0.644769 0.240608
O O9 0.458877 0.617843 0.786546
O O10 0.406418 0.282672 0.342134
O O11 0.144972 0.329829 0.846970
#
# Coordination Sequence:
#
# PCOD9267426 Si02
#       5
#     8   8   8   8   8
#     4  10  19  39  63  87 121 172 208 243 313 387
#     4  12  21  38  66  90 121 173 217 244 314 389
#     4  11  22  39  62  90 130 161 213 265 300 384
#     4  11  23  37  61 100 122 158 211 269 316 359
#     4  10  21  39  61  90 131 163 196 262 334 357
#
# _framework density 21.743279000000001
#
# number of rings (size 3 to 8) (size 9 to 14) (size 15 to 20)
#    0.000    1.200    8.000    1.200    0.000    4.800 
#    0.000    1.000    0.000    0.000    0.000    0.000 
#    0.000    0.000    0.000    0.000    0.000    0.000 
#
# Total GULP energy -111722.825734 kJ/mol
# GULP energy per Si atom -5586.141287 kJ/mol
# Density = 2.169379 g / cm^3
# Si number density = 21.743279 Si / 1000 Ang^3
#
#
#
# Elastic Constant Matrix: (Units=GPa)
#
#
# Indices 1 2 3 4 5 6 
#
# 1 67.3624 10.8283 26.1582 0.0000 -31.3710 0.0000
# 2 10.8283 112.8923 42.3524 0.0000 -23.0672 0.0000
# 3 26.1582 42.3524 59.5779 0.0000 -2.3552 0.0000
# 4 0.0000 0.0000 0.0000 30.8590 0.0000 1.3026
# 5 -31.3710 -23.0672 -2.3552 0.0000 25.9139 0.0000
# 6 0.0000 0.0000 0.0000 1.3026 0.0000 27.0474
#
#
#
# Elastic Compliance Matrix: (Units=1/GPa)
#
#
# Indices 1 2 3 4 5 6 
#
# 1 0.278091 0.140632 -0.204548 0.000000 0.443247 0.000000
# 2 0.140632 0.086489 -0.113864 0.000000 0.236887 0.000000
# 3 -0.204548 -0.113864 0.174367 0.000000 -0.333132 0.000000
# 4 0.000000 0.000000 0.000000 0.032471 0.000000 -0.001564
# 5 0.443247 0.236887 -0.333132 0.000000 0.755767 0.000000
# 6 0.000000 0.000000 0.000000 -0.001564 0.000000 0.037047
#
#
# Mechanical properties :
#
#
# Convention : Reuss Voigt Hill
#
# Bulk Modulus (GPa) = 5.45292 44.27894 24.86593
# Shear Modulus (GPa) = 2.80753 27.46365 15.13559
#
# Velocity S-wave (km/s) = 1.13755 3.55785 2.64124
# Velocity P-wave (km/s) = 2.05880 6.10626 4.55659
#
# Compressibility (1/GPa) = 0.18338788
#
# Stress axis : x y z
#
# Youngs Moduli (GPa) = 3.59594 11.56217 5.73502
#
# Poissons Ratio (x) = -1.62602 1.17309
# Poissons Ratio (y) = -0.50571 0.65301
# Poissons Ratio (z) = 0.73554 1.31652
#
# Static dielectric constant tensor:
#      x y z
#    x 1.822160 0.000000 -0.004120 
#    y 0.000000 1.813380 0.000000 
#    z -0.004120 0.000000 1.830020 
# 
# From -- ./inp_files/85742.got.cif
#   From: 2010.05.17/outbox.cif.g08.bks.cpg/sg15_43_cif.got.tgz:85742.got - 2010.06.03 18:47:42.
