data_PCOD9267734
_publ_section_title
;
Structure prediction by ZEFSAII (Michael W. Deem and Ramdas Pophale) SiO2 
 PCOD9267734
Probable space group: C 2/C
;
_chemical_formula_sum "Si O2"
_cell_formula_units_Z 40
_cell_length_a 10.151214
_cell_length_b 9.764277
_cell_length_c 18.211897
_cell_angle_alpha 90.000000
_cell_angle_beta 71.314070
_cell_angle_gamma 90.000000
_cell_volume 1709.998564
_symmetry_space_group_name_H-M "C 2/C"
_symmetry_group_IT_number 15
_symmetry_cell_setting 'monoclinic'
loop_
_space_group_symop_operation_xyz
x,y,z
-x,y,1/2-z
-x,-y,-z
x,-y,1/2+z
1/2+x,1/2+y,z
1/2-x,1/2+y,1/2-z
1/2-x,1/2-y,-z
1/2+x,1/2-y,1/2+z
loop_
_atom_site_type_symbol
_atom_site_label
_atom_site_fract_x
_atom_site_fract_y
_atom_site_fract_z
Si Si1 0.501859 0.236088 0.835736
Si Si2 0.100558 0.524507 0.392389
Si Si3 0.931571 0.835261 0.091419
Si Si4 0.826026 0.057644 0.457728
Si Si5 0.647488 0.485925 0.767890
O O1 0.500000 0.198210 0.750000
O O2 0.377538 0.330301 0.888507
O O3 0.630925 0.343766 0.816148
O O4 0.510800 0.104501 0.884666
O O5 0.037626 0.675983 0.403704
O O6 0.176344 0.509125 0.457320
O O7 0.223891 0.517899 0.309227
O O8 0.844755 0.891229 0.176021
O O9 0.849014 0.871574 0.031820
O O10 0.069954 0.928354 0.064083
O O11 0.500000 0.499998 0.750000
#
# Coordination Sequence:
#
# PCOD9267734 Si02
#       5
#     8   8   8   8   8
#     4  10  21  40  59  90 122 158 200 254 293 353
#     4  12  21  38  66  86 118 160 203 242 304 355
#     4  10  22  39  66  90 117 167 196 246 305 353
#     4  10  22  45  60  85 132 153 199 251 299 357
#     4  10  19  40  63  83 125 159 197 250 301 354
#
# _framework density 23.391832999999998
#
# number of rings (size 3 to 8) (size 9 to 14) (size 15 to 20)
#    0.000    1.600    6.000    1.800    0.000    1.600 
#    3.600    9.000    0.000    0.000    0.000    0.000 
#    0.000    0.000    0.000    0.000    0.000    0.000 
#
# Total GULP energy -111860.317946 kJ/mol
# GULP energy per Si atom -5593.015897 kJ/mol
# Density = 2.333859 g / cm^3
# Si number density = 23.391833 Si / 1000 Ang^3
#
#
#
# Elastic Constant Matrix: (Units=GPa)
#
#
# Indices 1 2 3 4 5 6 
#
# 1 43.9540 44.7707 23.6107 0.0000 11.4304 0.0000
# 2 44.7707 141.7593 41.8110 0.0000 27.2737 0.0000
# 3 23.6107 41.8110 117.5049 0.0000 18.2987 0.0000
# 4 0.0000 0.0000 0.0000 43.1865 0.0000 3.3820
# 5 11.4304 27.2737 18.2987 0.0000 37.5131 0.0000
# 6 0.0000 0.0000 0.0000 3.3820 0.0000 27.8785
#
#
#
# Elastic Compliance Matrix: (Units=1/GPa)
#
#
# Indices 1 2 3 4 5 6 
#
# 1 0.034866 -0.009665 -0.003254 0.000000 -0.002010 0.000000
# 2 -0.009665 0.011417 -0.001392 0.000000 -0.004677 0.000000
# 3 -0.003254 -0.001392 0.010116 0.000000 -0.002931 0.000000
# 4 0.000000 0.000000 0.000000 0.023377 0.000000 -0.002836
# 5 -0.002010 -0.004677 -0.002931 0.000000 0.032099 0.000000
# 6 0.000000 0.000000 0.000000 -0.002836 0.000000 0.036214
#
#
# Mechanical properties :
#
#
# Convention : Reuss Voigt Hill
#
# Bulk Modulus (GPa) = 36.00095 58.17811 47.08953
# Shear Modulus (GPa) = 26.88586 34.58402 30.73494
#
# Velocity S-wave (km/s) = 3.39391 3.84925 3.62873
# Velocity P-wave (km/s) = 5.54815 6.68437 6.14259
#
# Compressibility (1/GPa) = 0.02777705
#
# Stress axis : x y z
#
# Youngs Moduli (GPa) = 28.68095 87.58819 98.85492
#
# Poissons Ratio (x) = 0.84656 0.32165
# Poissons Ratio (y) = 0.27721 0.13762
# Poissons Ratio (z) = 0.09332 0.12193
#
# Static dielectric constant tensor:
#      x y z
#    x 1.903110 0.000000 -0.016960 
#    y 0.000000 1.860990 0.000000 
#    z -0.016960 0.000000 1.923290 
# 
# From -- ./inp_files/235704.got.cif
#   From: 2010.05.17/outbox.cif.g08.bks.cpg/sg15_118_cif.got.tgz:235704.got - 2010.06.03 18:47:42.
