data_PCOD9267613
_publ_section_title
;
Structure prediction by ZEFSAII (Michael W. Deem and Ramdas Pophale) SiO2 
 PCOD9267613
Probable space group: C 2/C
;
_chemical_formula_sum "Si O2"
_cell_formula_units_Z 40
_cell_length_a 26.227413
_cell_length_b 13.733896
_cell_length_c 13.696001
_cell_angle_alpha 90.000000
_cell_angle_beta 158.903710
_cell_angle_gamma 90.000000
_cell_volume 1775.696561
_symmetry_space_group_name_H-M "C 2/C"
_symmetry_group_IT_number 15
_symmetry_cell_setting 'monoclinic'
loop_
_space_group_symop_operation_xyz
x,y,z
-x,y,1/2-z
-x,-y,-z
x,-y,1/2+z
1/2+x,1/2+y,z
1/2-x,1/2+y,1/2-z
1/2-x,1/2-y,-z
1/2+x,1/2-y,1/2+z
loop_
_atom_site_type_symbol
_atom_site_label
_atom_site_fract_x
_atom_site_fract_y
_atom_site_fract_z
Si Si1 0.258625 0.760782 0.704120
Si Si2 0.847373 0.038538 0.459429
Si Si3 0.239606 0.354407 0.594841
Si Si4 0.091063 0.416245 0.992737
Si Si5 0.027707 0.701995 0.561365
O O1 0.157644 0.853653 0.502144
O O2 0.319477 0.791023 0.919507
O O3 0.169589 0.665333 0.567065
O O4 0.383580 0.758884 0.850112
O O5 0.810378 0.055359 0.278644
O O6 0.715002 0.978885 0.262528
O O7 0.000000 0.993465 0.750000
O O8 0.115377 0.364196 0.295128
O O9 0.366843 0.290888 0.776053
O O10 0.006968 0.361420 0.927253
O O11 0.000000 0.474207 0.750000
#
# Coordination Sequence:
#
# PCOD9267613 Si02
#       5
#     8   8   8   8   8
#     4   9  21  40  68  87 130 163 210 260 315 367
#     4  10  23  44  63  89 134 166 204 268 312 368
#     4   8  20  37  63  94 127 158 209 258 310 372
#     4  11  25  42  64  95 129 167 215 260 316 374
#     4  10  19  39  68  94 121 170 211 254 317 379
#
# _framework density 22.526371000000001
#
# number of rings (size 3 to 8) (size 9 to 14) (size 15 to 20)
#    1.200    1.200    0.000    1.200    2.800    6.400 
#    0.000    2.000    0.000    0.000    0.000    0.000 
#    0.000    0.000    0.000    0.000    0.000    0.000 
#
# Total GULP energy -111529.203330 kJ/mol
# GULP energy per Si atom -5576.460166 kJ/mol
# Density = 2.247510 g / cm^3
# Si number density = 22.526371 Si / 1000 Ang^3
#
#
#
# Elastic Constant Matrix: (Units=GPa)
#
#
# Indices 1 2 3 4 5 6 
#
# 1 107.1451 3.4277 31.4275 0.0000 17.1072 0.0000
# 2 3.4277 36.0387 -10.9244 0.0000 7.2394 0.0000
# 3 31.4275 -10.9244 60.4681 0.0000 -2.1682 0.0000
# 4 0.0000 0.0000 0.0000 16.2182 0.0000 -1.3357
# 5 17.1072 7.2394 -2.1682 0.0000 47.6720 0.0000
# 6 0.0000 0.0000 0.0000 -1.3357 0.0000 9.3545
#
#
#
# Elastic Compliance Matrix: (Units=1/GPa)
#
#
# Indices 1 2 3 4 5 6 
#
# 1 0.012113 -0.002374 -0.006879 0.000000 -0.004299 0.000000
# 2 -0.002374 0.030695 0.006653 0.000000 -0.003507 0.000000
# 3 -0.006879 0.006653 0.021402 0.000000 0.002431 0.000000
# 4 0.000000 0.000000 0.000000 0.062393 0.000000 0.008909
# 5 -0.004299 -0.003507 0.002431 0.000000 0.023163 0.000000
# 6 0.000000 0.000000 0.000000 0.008909 0.000000 0.108172
#
#
# Mechanical properties :
#
#
# Convention : Reuss Voigt Hill
#
# Bulk Modulus (GPa) = 16.94562 27.94595 22.44578
# Shear Modulus (GPa) = 17.67995 26.63034 22.15515
#
# Velocity S-wave (km/s) = 2.80457 3.44202 3.13952
# Velocity P-wave (km/s) = 4.24575 5.31314 4.80915
#
# Compressibility (1/GPa) = 0.05901231
#
# Stress axis : x y z
#
# Youngs Moduli (GPa) = 82.55515 32.57861 46.72481
#
# Poissons Ratio (x) = 0.07733 0.32140
# Poissons Ratio (y) = 0.19595 -0.31088
# Poissons Ratio (z) = 0.56786 -0.21676
#
# Static dielectric constant tensor:
#      x y z
#    x 1.823630 0.000000 -0.027260 
#    y 0.000000 1.860000 0.000000 
#    z -0.027260 0.000000 1.882780 
# 
# From -- ./inp_files/178476.got.cif
#   From: 2010.05.17/outbox.cif.g08.bks.cpg/sg15_90_cif.got.tgz:178476.got - 2010.06.03 18:47:42.
