data_PCOD9267749
_publ_section_title
;
Structure prediction by ZEFSAII (Michael W. Deem and Ramdas Pophale) SiO2 
 PCOD9267749
Probable space group: C 2/C
;
_chemical_formula_sum "Si O2"
_cell_formula_units_Z 64
_cell_length_a 26.383028
_cell_length_b 11.168933
_cell_length_c 14.700145
_cell_angle_alpha 90.000000
_cell_angle_beta 138.283618
_cell_angle_gamma 90.000000
_cell_volume 2882.500091
_symmetry_space_group_name_H-M "C 2/C"
_symmetry_group_IT_number 15
_symmetry_cell_setting 'monoclinic'
loop_
_space_group_symop_operation_xyz
x,y,z
-x,y,1/2-z
-x,-y,-z
x,-y,1/2+z
1/2+x,1/2+y,z
1/2-x,1/2+y,1/2-z
1/2-x,1/2-y,-z
1/2+x,1/2-y,1/2+z
loop_
_atom_site_type_symbol
_atom_site_label
_atom_site_fract_x
_atom_site_fract_y
_atom_site_fract_z
Si Si1 0.239569 0.820688 0.860375
Si Si2 0.963485 0.090241 0.562289
Si Si3 0.779224 0.084291 0.613900
Si Si4 0.399041 0.680263 0.647394
Si Si5 0.622165 0.075704 0.311770
Si Si6 0.832607 0.298601 0.808817
Si Si7 0.517743 0.325257 0.938811
Si Si8 0.622564 0.194302 0.813945
O O1 0.270985 0.833638 0.801187
O O2 0.176153 0.721405 0.797795
O O3 0.201969 0.946105 0.842196
O O4 0.315489 0.792981 0.022271
O O5 0.907566 0.164090 0.552106
O O6 0.978710 0.146870 0.484662
O O7 0.044020 0.092021 0.723337
O O8 0.942451 0.951200 0.530993
O O9 0.817569 0.141450 0.575618
O O10 0.689858 0.081386 0.476207
O O11 0.805734 0.173449 0.727721
O O12 0.425597 0.809303 0.721008
O O13 0.655108 0.108340 0.256694
O O14 0.592149 0.941650 0.271805
O O15 0.916018 0.272583 0.962573
O O16 0.449563 0.281695 0.782947
#
# Coordination Sequence:
#
# PCOD9267749 Si02
#       8
#     8   8   8   8   8   8   8   8
#     4  10  24  42  63  94 125 171 218 257 320 388
#     4  10  22  37  64  95 120 163 207 263 324 378
#     4  10  21  42  64  89 127 162 216 271 311 382
#     4  10  19  40  63  90 123 160 213 259 315 375
#     4  10  22  42  62  90 125 173 209 259 320 379
#     4  11  23  40  65  96 128 161 218 269 322 379
#     4  11  23  41  63  97 132 161 213 269 326 379
#     4  10  24  43  64  88 136 172 209 260 323 389
#
# _framework density 22.202947999999999
#
# number of rings (size 3 to 8) (size 9 to 14) (size 15 to 20)
#    0.000    1.750    2.500    2.250    3.500    8.000 
#    2.250    2.500    0.000    0.000    0.000    0.000 
#    0.000    0.000    0.000    0.000    0.000    0.000 
#
# Total GULP energy -178669.545023 kJ/mol
# GULP energy per Si atom -5583.423282 kJ/mol
# Density = 2.215241 g / cm^3
# Si number density = 22.202948 Si / 1000 Ang^3
#
#
#
# Elastic Constant Matrix: (Units=GPa)
#
#
# Indices 1 2 3 4 5 6 
#
# 1 89.1604 25.0131 -8.5071 0.0000 -14.9720 0.0000
# 2 25.0131 90.5958 -0.0564 0.0000 -3.2772 0.0000
# 3 -8.5071 -0.0564 41.3002 0.0000 11.6926 0.0000
# 4 0.0000 0.0000 0.0000 25.8946 0.0000 1.7591
# 5 -14.9720 -3.2772 11.6926 0.0000 20.3735 0.0000
# 6 0.0000 0.0000 0.0000 1.7591 0.0000 4.1483
#
#
#
# Elastic Compliance Matrix: (Units=1/GPa)
#
#
# Indices 1 2 3 4 5 6 
#
# 1 0.013797 -0.003466 0.000149 0.000000 0.009496 0.000000
# 2 -0.003466 0.011985 -0.000624 0.000000 -0.000261 0.000000
# 3 0.000149 -0.000624 0.028943 0.000000 -0.016602 0.000000
# 4 0.000000 0.000000 0.000000 0.039764 0.000000 -0.016862
# 5 0.009496 -0.000261 -0.016602 0.000000 0.065548 0.000000
# 6 0.000000 0.000000 0.000000 -0.016862 0.000000 0.248210
#
#
# Mechanical properties :
#
#
# Convention : Reuss Voigt Hill
#
# Bulk Modulus (GPa) = 21.34759 28.21729 24.78244
# Shear Modulus (GPa) = 11.58099 23.72374 17.65237
#
# Velocity S-wave (km/s) = 2.28633 3.27233 2.82272
# Velocity P-wave (km/s) = 4.07497 5.19749 4.67008
#
# Compressibility (1/GPa) = 0.04684370
#
# Stress axis : x y z
#
# Youngs Moduli (GPa) = 72.48070 83.43720 34.55075
#
# Poissons Ratio (x) = 0.28916 -0.00514
# Poissons Ratio (y) = 0.25119 0.02155
# Poissons Ratio (z) = -0.01078 0.05203
#
# Static dielectric constant tensor:
#      x y z
#    x 1.849160 0.000000 0.001740 
#    y 0.000000 1.855980 0.000000 
#    z 0.001740 0.000000 1.818590 
# 
# From -- ./inp_files/177862.got.cif
#   From: 2010.05.17/outbox.cif.g08.bks.cpg/sg15_89_cif.got.tgz:177862.got - 2010.06.03 18:47:42.
