data_PCOD9267945
_publ_section_title
;
Structure prediction by ZEFSAII (Michael W. Deem and Ramdas Pophale) SiO2 
 PCOD9267945
Probable space group: C 2/C
;
_chemical_formula_sum "Si O2"
_cell_formula_units_Z 48
_cell_length_a 7.854837
_cell_length_b 22.450117
_cell_length_c 16.581591
_cell_angle_alpha 90.000000
_cell_angle_beta 56.721392
_cell_angle_gamma 90.000000
_cell_volume 2444.525910
_symmetry_space_group_name_H-M "C 2/C"
_symmetry_group_IT_number 15
_symmetry_cell_setting 'monoclinic'
loop_
_space_group_symop_operation_xyz
x,y,z
-x,y,1/2-z
-x,-y,-z
x,-y,1/2+z
1/2+x,1/2+y,z
1/2-x,1/2+y,1/2-z
1/2-x,1/2-y,-z
1/2+x,1/2-y,1/2+z
loop_
_atom_site_type_symbol
_atom_site_label
_atom_site_fract_x
_atom_site_fract_y
_atom_site_fract_z
Si Si1 0.473520 0.023818 0.854129
Si Si2 0.276194 0.180449 0.481073
Si Si3 0.398433 0.462435 0.940582
Si Si4 0.666341 0.103527 0.363516
Si Si5 0.329995 0.415764 0.361531
Si Si6 0.754079 0.618055 0.325411
O O1 0.500000 0.028166 0.750000
O O2 0.623288 0.068050 0.865873
O O3 0.547003 0.957977 0.866901
O O4 0.245541 0.037965 0.943986
O O5 0.250000 0.250000 0.500000
O O6 0.505972 0.154990 0.423968
O O7 0.175220 0.140277 0.577060
O O8 0.205867 0.164353 0.408267
O O9 0.292477 0.416170 0.907288
O O10 0.381352 0.526299 0.902253
O O11 0.629752 0.439886 0.886437
O O12 0.801160 0.125035 0.253438
O O13 0.500000 0.408199 0.250000
O O14 0.000000 0.615763 0.250000
#
# Coordination Sequence:
#
# PCOD9267945 Si02
#       6
#     8   8   8   8   8   8
#     4  11  21  36  64  98 128 155 200 254 318 382
#     4  11  23  41  60  86 125 171 214 252 296 364
#     4  11  20  39  67  93 128 157 194 265 323 369
#     4  10  19  41  61  91 124 161 205 252 305 376
#     4  11  23  38  60  95 129 159 200 259 321 362
#     4  10  23  38  63  95 121 159 211 246 312 380
#
# _framework density 19.635707
#
# number of rings (size 3 to 8) (size 9 to 14) (size 15 to 20)
#    0.000    1.333    3.333    5.000    2.333    2.667 
#    0.000    0.833    0.000    0.000    0.000    0.000 
#    0.000    0.000    0.000    0.000    0.000    0.000 
#
# Total GULP energy -133846.221754 kJ/mol
# GULP energy per Si atom -5576.925906 kJ/mol
# Density = 1.959102 g / cm^3
# Si number density = 19.635707 Si / 1000 Ang^3
#
#
#
# Elastic Constant Matrix: (Units=GPa)
#
#
# Indices 1 2 3 4 5 6 
#
# 1 64.2292 32.9861 40.6940 0.0000 12.9839 0.0000
# 2 32.9861 135.8178 67.9622 0.0000 10.7998 0.0000
# 3 40.6940 67.9622 201.9575 0.0000 2.0179 0.0000
# 4 0.0000 0.0000 0.0000 6.7275 0.0000 -1.2433
# 5 12.9839 10.7998 2.0179 0.0000 32.4160 0.0000
# 6 0.0000 0.0000 0.0000 -1.2433 0.0000 18.5290
#
#
#
# Elastic Compliance Matrix: (Units=1/GPa)
#
#
# Indices 1 2 3 4 5 6 
#
# 1 0.020410 -0.002856 -0.003081 0.000000 -0.007032 0.000000
# 2 -0.002856 0.009508 -0.002606 0.000000 -0.001862 0.000000
# 3 -0.003081 -0.002606 0.006432 0.000000 0.001702 0.000000
# 4 0.000000 0.000000 0.000000 0.150510 0.000000 0.010100
# 5 -0.007032 -0.001862 0.001702 0.000000 0.034180 0.000000
# 6 0.000000 0.000000 0.000000 0.010100 0.000000 0.054647
#
#
# Mechanical properties :
#
#
# Convention : Reuss Voigt Hill
#
# Bulk Modulus (GPa) = 51.90877 76.14324 64.02601
# Shear Modulus (GPa) = 16.71159 28.89199 22.80179
#
# Velocity S-wave (km/s) = 2.92050 3.84005 3.41140
# Velocity P-wave (km/s) = 6.15351 7.65006 6.94223
#
# Compressibility (1/GPa) = 0.01926457
#
# Stress axis : x y z
#
# Youngs Moduli (GPa) = 48.99676 105.17120 155.46729
#
# Poissons Ratio (x) = 0.30036 0.47902
# Poissons Ratio (y) = 0.13993 0.40509
# Poissons Ratio (z) = 0.15097 0.27404
#
# Static dielectric constant tensor:
#      x y z
#    x 1.822660 0.000000 0.008800 
#    y 0.000000 1.642230 0.000000 
#    z 0.008800 0.000000 1.733470 
# 
# From -- ./inp_files/191960.got.cif
#   From: 2010.05.17/outbox.cif.g08.bks.cpg/sg15_96_cif.got.tgz:191960.got - 2010.06.03 18:47:42.
