data_PCOD9267549
_publ_section_title
;
Structure prediction by ZEFSAII (Michael W. Deem and Ramdas Pophale) SiO2 
 PCOD9267549
Probable space group: C 2/C
;
_chemical_formula_sum "Si O2"
_cell_formula_units_Z 56
_cell_length_a 18.406398
_cell_length_b 17.431331
_cell_length_c 16.628816
_cell_angle_alpha 90.000000
_cell_angle_beta 153.407476
_cell_angle_gamma 90.000000
_cell_volume 2388.316699
_symmetry_space_group_name_H-M "C 2/C"
_symmetry_group_IT_number 15
_symmetry_cell_setting 'monoclinic'
loop_
_space_group_symop_operation_xyz
x,y,z
-x,y,1/2-z
-x,-y,-z
x,-y,1/2+z
1/2+x,1/2+y,z
1/2-x,1/2+y,1/2-z
1/2-x,1/2-y,-z
1/2+x,1/2-y,1/2+z
loop_
_atom_site_type_symbol
_atom_site_label
_atom_site_fract_x
_atom_site_fract_y
_atom_site_fract_z
Si Si1 0.323648 0.028568 0.260486
Si Si2 0.676423 0.571751 0.274175
Si Si3 0.174842 0.217296 0.760233
Si Si4 0.005964 0.922111 0.351846
Si Si5 0.189215 0.130214 0.620407
Si Si6 0.991868 0.641283 0.146109
Si Si7 0.195191 0.163210 0.446830
O O1 0.291619 0.072910 0.311568
O O2 0.479209 0.059643 0.367896
O O3 0.296541 0.940422 0.257685
O O4 0.176410 0.046396 0.052828
O O5 0.624384 0.486242 0.250084
O O6 0.749298 0.615719 0.422827
O O7 0.502488 0.608417 0.074147
O O8 0.031670 0.158549 0.643612
O O9 0.205325 0.202999 0.695384
O O10 0.128512 0.301114 0.745066
O O11 0.326420 0.182198 0.957506
O O12 0.000000 0.914689 0.250000
O O13 0.246131 0.136398 0.585104
O O14 0.000000 0.635173 0.250000
O O15 0.250000 0.250000 0.500000
O O16 0.000000 0.157502 0.250000
#
# Coordination Sequence:
#
# PCOD9267549 Si02
#       7
#     8   8   8   8   8   8   8
#     4  11  21  42  67  95 128 168 218 269 321 395
#     4  10  19  39  65  97 127 167 216 264 319 389
#     4  12  24  42  65  92 128 169 215 270 321 396
#     4  11  19  37  69  96 126 169 214 265 322 387
#     4  10  21  41  67  98 126 168 218 265 328 382
#     4  12  28  44  63  93 131 171 214 268 332 395
#     4  10  23  40  63  92 130 168 214 266 316 382
#
# _framework density 23.447478
#
# number of rings (size 3 to 8) (size 9 to 14) (size 15 to 20)
#    0.000    1.143    2.857    5.571    2.000    1.714 
#    0.000    0.714    0.000    0.000    0.000    0.000 
#    0.000    0.000    0.000    0.000    0.000    0.000 
#
# Total GULP energy -156681.005182 kJ/mol
# GULP energy per Si atom -5595.750185 kJ/mol
# Density = 2.339411 g / cm^3
# Si number density = 23.447478 Si / 1000 Ang^3
#
#
#
# Elastic Constant Matrix: (Units=GPa)
#
#
# Indices 1 2 3 4 5 6 
#
# 1 120.0658 39.6799 36.4979 -0.0010 -50.3349 -0.0004
# 2 39.6799 68.2545 -4.7073 -0.0013 -15.1999 -0.0007
# 3 36.4979 -4.7073 68.4874 0.0006 -20.1282 0.0000
# 4 -0.0010 -0.0013 0.0006 16.4532 -0.0003 8.5929
# 5 -50.3349 -15.1999 -20.1282 -0.0003 47.6180 -0.0001
# 6 -0.0004 -0.0007 0.0000 8.5929 -0.0001 30.9580
#
#
#
# Elastic Compliance Matrix: (Units=1/GPa)
#
#
# Indices 1 2 3 4 5 6 
#
# 1 0.019380 -0.008353 -0.006468 0.000001 0.015085 0.000000
# 2 -0.008353 0.019904 0.005814 0.000001 -0.000019 0.000000
# 3 -0.006468 0.005814 0.019393 -0.000001 0.003216 0.000000
# 4 0.000001 0.000001 -0.000001 0.071083 0.000001 -0.019730
# 5 0.015085 -0.000019 0.003216 0.000001 0.038299 0.000000
# 6 0.000000 0.000000 0.000000 -0.019730 0.000000 0.037778
#
#
# Mechanical properties :
#
#
# Convention : Reuss Voigt Hill
#
# Bulk Modulus (GPa) = 24.59325 44.41652 34.50488
# Shear Modulus (GPa) = 21.06096 31.36165 26.21131
#
# Velocity S-wave (km/s) = 3.00028 3.66119 3.34709
# Velocity P-wave (km/s) = 4.74486 6.07096 5.44840
#
# Compressibility (1/GPa) = 0.04066157
#
# Stress axis : x y z
#
# Youngs Moduli (GPa) = 51.60071 50.24120 51.56479
#
# Poissons Ratio (x) = 0.41967 0.33354
# Poissons Ratio (y) = 0.43103 -0.29980
# Poissons Ratio (z) = 0.33378 -0.29211
#
# Static dielectric constant tensor:
#      x y z
#    x 1.959370 0.000000 -0.013790 
#    y 0.000000 1.903530 0.000000 
#    z -0.013790 0.000000 1.902650 
# 
# From -- ./inp_files/163809.got.cif
#   From: 2010.05.17/outbox.cif.g08.bks.cpg/sg15_82_cif.got.tgz:163809.got - 2010.06.03 18:47:42.
