data_PCOD9267713
_publ_section_title
;
Structure prediction by ZEFSAII (Michael W. Deem and Ramdas Pophale) SiO2 
 PCOD9267713
Probable space group: C 2/C
;
_chemical_formula_sum "Si O2"
_cell_formula_units_Z 56
_cell_length_a 11.902198
_cell_length_b 17.113752
_cell_length_c 14.856772
_cell_angle_alpha 90.000000
_cell_angle_beta 64.450410
_cell_angle_gamma 90.000000
_cell_volume 2730.270169
_symmetry_space_group_name_H-M "C 2/C"
_symmetry_group_IT_number 15
_symmetry_cell_setting 'monoclinic'
loop_
_space_group_symop_operation_xyz
x,y,z
-x,y,1/2-z
-x,-y,-z
x,-y,1/2+z
1/2+x,1/2+y,z
1/2-x,1/2+y,1/2-z
1/2-x,1/2-y,-z
1/2+x,1/2-y,1/2+z
loop_
_atom_site_type_symbol
_atom_site_label
_atom_site_fract_x
_atom_site_fract_y
_atom_site_fract_z
Si Si1 0.612069 0.920221 0.865009
Si Si2 0.500000 0.796158 0.250000
Si Si3 0.752377 0.703205 0.407348
Si Si4 0.541025 0.927991 0.095911
Si Si5 0.000000 0.683723 0.250000
Si Si6 0.507870 0.511389 0.350015
Si Si7 0.366540 0.334586 0.723524
Si Si8 0.790370 0.017073 0.065424
O O1 0.529069 0.869303 0.826119
O O2 0.750814 0.889755 0.793751
O O3 0.573278 0.010052 0.860442
O O4 0.574971 0.908735 0.981241
O O5 0.507065 0.852059 0.162845
O O6 0.613561 0.735066 0.213990
O O7 0.750000 0.750000 0.500000
O O8 0.877895 0.730631 0.314932
O O9 0.649661 0.710382 0.365926
O O10 0.749505 0.608507 0.419124
O O11 0.664592 0.968012 0.096083
O O12 0.500000 0.479263 0.250000
O O13 0.522295 0.604781 0.332849
O O14 0.626592 0.493253 0.375096
O O15 0.383991 0.492584 0.448794
#
# Coordination Sequence:
#
# PCOD9267713 Si02
#       8
#     8   4   8   8   4   8   8   8
#     4  10  22  42  68  92 129 183 216 278 347 401
#     4  12  27  40  62 107 134 170 232 286 333 406
#     4  10  22  40  66  89 131 169 221 275 331 402
#     4  11  24  40  69 100 132 170 232 287 330 404
#     4  10  19  40  62  89 122 168 224 262 341 388
#     4  10  20  41  67  88 128 178 218 266 342 407
#     4  10  23  43  63  90 135 179 211 271 350 399
#     4  10  22  41  64  98 125 174 228 276 326 409
#
# _framework density 20.510791000000001
#
# number of rings (size 3 to 8) (size 9 to 14) (size 15 to 20)
#    0.000    1.714    2.143    1.286    6.000    0.571 
#    3.857    2.857    0.000    0.000    0.000    0.000 
#    0.000    0.000    0.000    0.000    0.000    0.000 
#
# Total GULP energy -156025.752768 kJ/mol
# GULP energy per Si atom -5572.348313 kJ/mol
# Density = 2.046411 g / cm^3
# Si number density = 20.510791 Si / 1000 Ang^3
#
#
#
# Elastic Constant Matrix: (Units=GPa)
#
#
# Indices 1 2 3 4 5 6 
#
# 1 76.8461 43.6661 48.2084 0.0000 4.6157 0.0000
# 2 43.6661 65.0004 33.8249 0.0000 -1.1524 0.0000
# 3 48.2084 33.8249 104.6972 0.0000 16.9497 0.0000
# 4 0.0000 0.0000 0.0000 41.8357 0.0000 25.1400
# 5 4.6157 -1.1524 16.9497 0.0000 38.2014 0.0000
# 6 0.0000 0.0000 0.0000 25.1400 0.0000 12.6682
#
#
#
# Elastic Compliance Matrix: (Units=1/GPa)
#
#
# Indices 1 2 3 4 5 6 
#
# 1 0.024967 -0.012993 -0.007269 0.000000 -0.000183 0.000000
# 2 -0.012993 0.025689 -0.002905 0.000000 0.003634 0.000000
# 3 -0.007269 -0.002905 0.014770 0.000000 -0.005763 0.000000
# 4 0.000000 0.000000 0.000000 -0.124154 0.000000 0.246383
# 5 -0.000183 0.003634 -0.005763 0.000000 0.028866 0.000000
# 6 0.000000 0.000000 0.000000 0.246383 0.000000 -0.410009
#
#
# Mechanical properties :
#
#
# Convention : Reuss Voigt Hill
#
# Bulk Modulus (GPa) = 52.37754 55.32694 53.85224
# Shear Modulus (GPa) = -12.91411 26.59734 6.84162
#
# Velocity S-wave (km/s) = -2.51196 3.60495 1.82835
# Velocity P-wave (km/s) = 4.14473 6.66038 5.54705
#
# Compressibility (1/GPa) = 0.01909215
#
# Stress axis : x y z
#
# Youngs Moduli (GPa) = 40.05274 38.92685 67.70587
#
# Poissons Ratio (x) = 0.50578 0.49214
# Poissons Ratio (y) = 0.52041 0.19669
# Poissons Ratio (z) = 0.29113 0.11308
#
# Static dielectric constant tensor:
#      x y z
#    x 1.845110 0.000000 0.040860 
#    y 0.000000 1.703580 0.000000 
#    z 0.040860 0.000000 1.753280 
# 
# From -- ./inp_files/146001.got.cif
#   From: 2010.05.17/outbox.cif.g08.bks.cpg/sg15_74_cif.got.tgz:146001.got - 2010.06.03 18:47:42.
