data_PCOD9267991
_publ_section_title
;
Structure prediction by ZEFSAII (Michael W. Deem and Ramdas Pophale) SiO2 
 PCOD9267991
Probable space group: C 2/C
;
_chemical_formula_sum "Si O2"
_cell_formula_units_Z 56
_cell_length_a 19.424242
_cell_length_b 15.166932
_cell_length_c 11.415442
_cell_angle_alpha 90.000000
_cell_angle_beta 126.369464
_cell_angle_gamma 90.000000
_cell_volume 2707.968968
_symmetry_space_group_name_H-M "C 2/C"
_symmetry_group_IT_number 15
_symmetry_cell_setting 'monoclinic'
loop_
_space_group_symop_operation_xyz
x,y,z
-x,y,1/2-z
-x,-y,-z
x,-y,1/2+z
1/2+x,1/2+y,z
1/2-x,1/2+y,1/2-z
1/2-x,1/2-y,-z
1/2+x,1/2-y,1/2+z
loop_
_atom_site_type_symbol
_atom_site_label
_atom_site_fract_x
_atom_site_fract_y
_atom_site_fract_z
Si Si1 0.713075 0.638630 0.586968
Si Si2 0.630972 0.969988 0.147287
Si Si3 0.673915 0.236745 0.248849
Si Si4 0.905625 0.015009 0.451526
Si Si5 0.761780 0.052443 0.114495
Si Si6 0.521735 0.884452 0.639837
Si Si7 0.310574 0.622225 0.530405
O O1 0.793991 0.587522 0.723345
O O2 0.701638 0.726091 0.651369
O O3 0.631669 0.576395 0.534373
O O4 0.727995 0.634376 0.462967
O O5 0.675955 0.039286 0.103463
O O6 0.577675 0.026030 0.187207
O O7 0.564973 0.906213 0.015331
O O8 0.582312 0.190576 0.149507
O O9 0.669166 0.316063 0.338897
O O10 0.744608 0.171520 0.377079
O O11 0.841853 0.044148 0.282857
O O12 0.891790 0.088092 0.538746
O O13 0.000000 0.000000 0.500000
O O14 0.766212 0.965263 0.036982
O O15 0.500000 0.861843 0.750000
#
# Coordination Sequence:
#
# PCOD9267991 Si02
#       7
#     8   8   8   8   8   8   8
#     4  10  21  37  59  87 124 160 204 246 312 370
#     4  10  20  40  60  89 119 163 206 252 299 373
#     4  11  21  38  58  96 123 155 203 260 316 359
#     4  10  21  38  58  90 118 160 208 248 300 372
#     4  10  19  41  65  85 117 168 207 246 300 384
#     4  11  23  35  61  92 123 155 207 259 307 354
#     4  10  21  36  61  86 123 160 201 256 311 361
#
# _framework density 20.679705999999999
#
# number of rings (size 3 to 8) (size 9 to 14) (size 15 to 20)
#    0.000    1.714    2.857    4.286    2.000    3.429 
#    0.000    2.857    0.000    0.000   11.143    0.000 
#    0.000    0.000    0.000    0.000    0.000    0.000 
#
# Total GULP energy -156460.420680 kJ/mol
# GULP energy per Si atom -5587.872167 kJ/mol
# Density = 2.063264 g / cm^3
# Si number density = 20.679706 Si / 1000 Ang^3
#
#
#
# Elastic Constant Matrix: (Units=GPa)
#
#
# Indices 1 2 3 4 5 6 
#
# 1 129.0927 29.3943 41.6203 0.0000 2.0252 0.0000
# 2 29.3943 51.2809 31.6898 0.0000 -12.2178 0.0000
# 3 41.6203 31.6898 59.7500 0.0000 -3.6239 0.0000
# 4 0.0000 0.0000 0.0000 3.7797 0.0000 -2.4742
# 5 2.0252 -12.2178 -3.6239 0.0000 38.3743 0.0000
# 6 0.0000 0.0000 0.0000 -2.4742 0.0000 30.8206
#
#
#
# Elastic Compliance Matrix: (Units=1/GPa)
#
#
# Indices 1 2 3 4 5 6 
#
# 1 0.010282 -0.002773 -0.005811 0.000000 -0.001974 0.000000
# 2 -0.002773 0.032298 -0.014650 0.000000 0.009046 0.000000
# 3 -0.005811 -0.014650 0.028453 0.000000 -0.001671 0.000000
# 4 0.000000 0.000000 0.000000 0.279249 0.000000 0.022417
# 5 -0.001974 0.009046 -0.001671 0.000000 0.028886 0.000000
# 6 0.000000 0.000000 0.000000 0.022417 0.000000 0.034245
#
#
# Mechanical properties :
#
#
# Convention : Reuss Voigt Hill
#
# Bulk Modulus (GPa) = 40.70814 49.50358 45.10586
# Shear Modulus (GPa) = 10.68213 23.75619 17.21916
#
# Velocity S-wave (km/s) = 2.27524 3.39303 2.88872
# Velocity P-wave (km/s) = 5.16044 6.27219 5.74328
#
# Compressibility (1/GPa) = 0.02456511
#
# Stress axis : x y z
#
# Youngs Moduli (GPa) = 97.25338 30.96135 35.14556
#
# Poissons Ratio (x) = 0.08586 0.20425
# Poissons Ratio (y) = 0.26968 0.51488
# Poissons Ratio (z) = 0.56519 0.45358
#
# Static dielectric constant tensor:
#      x y z
#    x 1.733920 0.000000 -0.033580 
#    y 0.000000 1.769050 0.000000 
#    z -0.033580 0.000000 1.749420 
# 
# From -- ./inp_files/105796.got.cif
#   From: 2010.05.17/outbox.cif.g08.bks.cpg/sg15_53_cif.got.tgz:105796.got - 2010.06.03 18:47:42.
