data_PCOD9267875
_publ_section_title
;
Structure prediction by ZEFSAII (Michael W. Deem and Ramdas Pophale) SiO2 
 PCOD9267875
Probable space group: C 2/C
;
_chemical_formula_sum "Si O2"
_cell_formula_units_Z 28
_cell_length_a 14.624821
_cell_length_b 17.393496
_cell_length_c 7.822271
_cell_angle_alpha 90.000000
_cell_angle_beta 41.059707
_cell_angle_gamma 90.000000
_cell_volume 1306.993091
_symmetry_space_group_name_H-M "C 2/C"
_symmetry_group_IT_number 15
_symmetry_cell_setting 'monoclinic'
loop_
_space_group_symop_operation_xyz
x,y,z
-x,y,1/2-z
-x,-y,-z
x,-y,1/2+z
1/2+x,1/2+y,z
1/2-x,1/2+y,1/2-z
1/2-x,1/2-y,-z
1/2+x,1/2-y,1/2+z
loop_
_atom_site_type_symbol
_atom_site_label
_atom_site_fract_x
_atom_site_fract_y
_atom_site_fract_z
Si Si1 0.017615 0.305115 0.410469
Si Si2 0.233724 0.399841 0.569997
Si Si3 0.000000 0.198192 0.750000
Si Si4 0.856732 0.548003 0.673896
O O1 0.875548 0.347015 0.672604
O O2 0.054435 0.249778 0.515309
O O3 0.000000 0.267560 0.250000
O O4 0.127408 0.375506 0.235772
O O5 0.374871 0.353113 0.355854
O O6 0.255587 0.483016 0.626425
O O7 0.165663 0.420635 0.483985
O O8 0.000000 0.500000 0.500000
#
# Coordination Sequence:
#
# PCOD9267875 Si02
#       4
#     8   8   4   8
#     4  11  22  42  71  95 129 179 229 271 327 400
#     4  11  23  42  68  99 137 173 225 281 328 398
#     4  12  26  44  62 102 148 168 208 288 352 388
#     4  10  19  40  68  94 124 172 231 271 310 394
#
# _framework density 21.423220000000001
#
# number of rings (size 3 to 8) (size 9 to 14) (size 15 to 20)
#    0.000    1.143    2.857    6.857    0.000    2.286 
#    5.143    0.000    0.000    0.000    0.000    0.000 
#    0.000    0.000    0.000    0.000    0.000    0.000 
#
# Total GULP energy -78173.941409 kJ/mol
# GULP energy per Si atom -5583.852958 kJ/mol
# Density = 2.137446 g / cm^3
# Si number density = 21.423220 Si / 1000 Ang^3
#
#
#
# Elastic Constant Matrix: (Units=GPa)
#
#
# Indices 1 2 3 4 5 6 
#
# 1 128.3976 43.7511 29.2094 0.0000 29.3091 0.0000
# 2 43.7511 100.8384 21.5149 0.0000 -5.1018 0.0000
# 3 29.2094 21.5149 15.2502 -0.0001 5.1011 0.0000
# 4 0.0000 0.0000 -0.0001 -74.4677 0.0000 8.5402
# 5 29.3091 -5.1018 5.1011 0.0000 37.5069 0.0000
# 6 0.0000 0.0000 0.0000 8.5402 0.0000 38.5518
#
#
#
# Elastic Compliance Matrix: (Units=1/GPa)
#
#
# Indices 1 2 3 4 5 6 
#
# 1 0.016530 -0.002309 -0.025121 0.000000 -0.009815 0.000000
# 2 -0.002309 0.015414 -0.019517 0.000000 0.006555 0.000000
# 3 -0.025121 -0.019517 0.142005 0.000000 -0.002338 0.000000
# 4 0.000000 0.000000 0.000000 -0.013096 0.000000 0.002901
# 5 -0.009815 0.006555 -0.002338 0.000000 0.035541 0.000000
# 6 0.000000 0.000000 0.000000 0.002901 0.000000 0.025296
#
#
# Mechanical properties :
#
#
# Convention : Reuss Voigt Hill
#
# Bulk Modulus (GPa) = 12.49126 48.15965 30.32545
# Shear Modulus (GPa) = 14.60833 10.31893 12.46363
#
# Velocity S-wave (km/s) = 2.61414 2.19708 2.41463
# Velocity P-wave (km/s) = 3.86717 5.38193 4.68616
#
# Compressibility (1/GPa) = 0.08005599
#
# Stress axis : x y z
#
# Youngs Moduli (GPa) = 60.49521 64.87434 7.04199
#
# Poissons Ratio (x) = 0.14978 0.17690
# Poissons Ratio (y) = 0.13967 0.13744
# Poissons Ratio (z) = 1.51970 1.26616
#
# Static dielectric constant tensor:
#      x y z
#    x 1.787340 0.000000 0.010170 
#    y 0.000000 1.833010 0.000000 
#    z 0.010170 0.000000 1.793970 
# 
# From -- ./inp_files/22484.got.cif
#   From: 2010.05.17/outbox.cif.g08.bks.cpg/sg15_12_cif.got.tgz:22484.got - 2010.06.03 18:47:42.
