data_PCOD9267294
_publ_section_title
;
Structure prediction by ZEFSAII (Michael W. Deem and Ramdas Pophale) SiO2 
 PCOD9267294
Probable space group: C 2/C
;
_chemical_formula_sum "Si O2"
_cell_formula_units_Z 56
_cell_length_a 19.022226
_cell_length_b 9.187734
_cell_length_c 18.030282
_cell_angle_alpha 90.000000
_cell_angle_beta 72.673455
_cell_angle_gamma 90.000000
_cell_volume 3008.182142
_symmetry_space_group_name_H-M "C 2/C"
_symmetry_group_IT_number 15
_symmetry_cell_setting 'monoclinic'
loop_
_space_group_symop_operation_xyz
x,y,z
-x,y,1/2-z
-x,-y,-z
x,-y,1/2+z
1/2+x,1/2+y,z
1/2-x,1/2+y,1/2-z
1/2-x,1/2-y,-z
1/2+x,1/2-y,1/2+z
loop_
_atom_site_type_symbol
_atom_site_label
_atom_site_fract_x
_atom_site_fract_y
_atom_site_fract_z
Si Si1 0.943121 0.372662 0.142820
Si Si2 0.558233 0.359706 0.673178
Si Si3 0.966621 0.697165 0.179997
Si Si4 0.676528 0.633437 0.830521
Si Si5 0.961314 0.238422 0.989608
Si Si6 0.896105 0.945378 0.004102
Si Si7 0.682103 0.317585 0.754488
O O1 0.940014 0.531091 0.178680
O O2 0.867061 0.288528 0.179536
O O3 0.009100 0.277521 0.159602
O O4 0.955574 0.366689 0.050673
O O5 0.500000 0.433865 0.750000
O O6 0.589325 0.434032 0.588753
O O7 0.630198 0.327441 0.698329
O O8 0.899506 0.804049 0.180347
O O9 0.000000 0.720753 0.250000
O O10 0.029267 0.714590 0.097498
O O11 0.667928 0.617948 0.922920
O O12 0.689663 0.474943 0.790296
O O13 0.741081 0.743592 0.789192
O O14 0.034040 0.144881 0.986851
O O15 0.899155 0.116867 0.020065
#
# Coordination Sequence:
#
# PCOD9267294 Si02
#       7
#     8   8   8   8   8   8   8
#     4  10  19  39  58  88 115 155 192 238 291 341
#     4   9  20  33  64  88 116 147 195 240 288 341
#     4  11  23  34  59  91 120 145 194 245 289 341
#     4  11  24  39  57  85 115 161 193 237 296 349
#     4   9  18  32  58  84 119 148 186 239 291 344
#     4   9  18  35  56  88 116 149 193 238 288 344
#     4  11  22  38  60  80 117 155 200 241 285 347
#
# _framework density 18.615894000000001
#
# number of rings (size 3 to 8) (size 9 to 14) (size 15 to 20)
#    0.000    2.000    1.429    2.571    8.000    0.571 
#    0.000    0.000    0.000    6.857    0.000    0.000 
#    0.000    0.000    0.000    0.000    0.000    0.000 
#
# Total GULP energy -155922.254917 kJ/mol
# GULP energy per Si atom -5568.651961 kJ/mol
# Density = 1.857352 g / cm^3
# Si number density = 18.615894 Si / 1000 Ang^3
#
#
#
# Elastic Constant Matrix: (Units=GPa)
#
#
# Indices 1 2 3 4 5 6 
#
# 1 56.7992 17.5328 55.8523 0.0000 -5.9323 0.0000
# 2 17.5328 86.0268 45.9100 0.0000 -12.9524 0.0000
# 3 55.8523 45.9100 165.9102 0.0000 14.7459 0.0000
# 4 0.0000 0.0000 0.0000 27.7361 0.0000 -11.1028
# 5 -5.9323 -12.9524 14.7459 0.0000 24.8190 0.0000
# 6 0.0000 0.0000 0.0000 -11.1028 0.0000 20.0887
#
#
#
# Elastic Compliance Matrix: (Units=1/GPa)
#
#
# Indices 1 2 3 4 5 6 
#
# 1 0.030872 0.002945 -0.012669 0.000000 0.016444 0.000000
# 2 0.002945 0.016679 -0.006802 0.000000 0.013450 0.000000
# 3 -0.012669 -0.006802 0.013471 0.000000 -0.014582 0.000000
# 4 0.000000 0.000000 0.000000 0.046297 0.000000 0.025588
# 5 0.016444 0.013450 -0.014582 0.000000 0.059905 0.000000
# 6 0.000000 0.000000 0.000000 0.025588 0.000000 0.063921
#
#
# Mechanical properties :
#
#
# Convention : Reuss Voigt Hill
#
# Bulk Modulus (GPa) = 35.75363 60.81405 48.28384
# Shear Modulus (GPa) = 18.28011 27.15817 22.71914
#
# Velocity S-wave (km/s) = 3.13703 3.82366 3.49724
# Velocity P-wave (km/s) = 5.68937 7.22721 6.50390
#
# Compressibility (1/GPa) = 0.02796919
#
# Stress axis : x y z
#
# Youngs Moduli (GPa) = 32.39143 59.95465 74.23527
#
# Poissons Ratio (x) = -0.17657 0.94051
# Poissons Ratio (y) = -0.09539 0.50497
# Poissons Ratio (z) = 0.41038 0.40783
#
# Static dielectric constant tensor:
#      x y z
#    x 1.612560 0.000000 0.005560 
#    y 0.000000 1.672250 0.000000 
#    z 0.005560 0.000000 1.700870 
# 
# From -- ./inp_files/213805.got.cif
#   From: 2010.05.17/outbox.cif.g08.bks.cpg/sg15_107_cif.got.tgz:213805.got - 2010.06.03 18:47:42.
