data_PCOD9267641
_publ_section_title
;
Structure prediction by ZEFSAII (Michael W. Deem and Ramdas Pophale) SiO2 
 PCOD9267641
Probable space group: C 2/C
;
_chemical_formula_sum "Si O2"
_cell_formula_units_Z 48
_cell_length_a 13.453787
_cell_length_b 10.388678
_cell_length_c 22.510319
_cell_angle_alpha 90.000000
_cell_angle_beta 36.637449
_cell_angle_gamma 90.000000
_cell_volume 1877.493875
_symmetry_space_group_name_H-M "C 2/C"
_symmetry_group_IT_number 15
_symmetry_cell_setting 'monoclinic'
loop_
_space_group_symop_operation_xyz
x,y,z
-x,y,1/2-z
-x,-y,-z
x,-y,1/2+z
1/2+x,1/2+y,z
1/2-x,1/2+y,1/2-z
1/2-x,1/2-y,-z
1/2+x,1/2-y,1/2+z
loop_
_atom_site_type_symbol
_atom_site_label
_atom_site_fract_x
_atom_site_fract_y
_atom_site_fract_z
Si Si1 0.819878 0.693017 0.403185
Si Si2 0.841918 0.126827 0.383988
Si Si3 0.659195 0.722550 0.782194
Si Si4 0.804193 0.961468 0.772231
Si Si5 0.319971 0.110549 0.916314
Si Si6 0.482317 0.651636 0.519307
O O1 0.750000 0.750000 0.500000
O O2 0.846538 0.537019 0.386386
O O3 0.665294 0.715739 0.432448
O O4 0.003116 0.751605 0.313832
O O5 0.769333 0.088659 0.355177
O O6 0.713885 0.105290 0.498092
O O7 0.934343 0.267949 0.344508
O O8 0.995437 0.031751 0.325237
O O9 0.745166 0.858649 0.752486
O O10 0.764662 0.601979 0.708784
O O11 0.592984 0.678773 0.879413
O O12 0.155567 0.175513 0.964393
O O13 0.500000 0.500000 0.500000
#
# Coordination Sequence:
#
# PCOD9267641 Si02
#       6
#     8   8   8   8   8   8
#     4   9  19  35  64  96 133 158 221 279 331 387
#     4  10  22  41  66  92 135 178 214 283 329 395
#     4  11  23  42  65  97 133 181 215 280 334 406
#     4  11  24  43  65  93 143 174 223 269 348 403
#     4  10  19  39  70  97 125 177 232 265 333 395
#     4   9  17  36  67  99 125 163 222 281 325 390
#
# _framework density 25.565994
#
# number of rings (size 3 to 8) (size 9 to 14) (size 15 to 20)
#    0.000    2.000    1.667    3.000    2.333    0.000 
#    0.000   19.167    0.000    0.000    0.000    0.000 
#    0.000    0.000    0.000    0.000    0.000    0.000 
#
# Total GULP energy -133980.853566 kJ/mol
# GULP energy per Si atom -5582.535565 kJ/mol
# Density = 2.550780 g / cm^3
# Si number density = 25.565994 Si / 1000 Ang^3
#
#
#
# Elastic Constant Matrix: (Units=GPa)
#
#
# Indices 1 2 3 4 5 6 
#
# 1 118.5660 43.4397 21.8729 0.0000 6.5705 0.0000
# 2 43.4397 185.5297 15.7908 0.0000 10.7003 0.0000
# 3 21.8729 15.7908 47.9665 0.0000 21.6586 0.0000
# 4 0.0000 0.0000 0.0000 27.7453 0.0000 3.4981
# 5 6.5705 10.7003 21.6586 0.0000 26.3913 0.0000
# 6 0.0000 0.0000 0.0000 3.4981 0.0000 37.3902
#
#
#
# Elastic Compliance Matrix: (Units=1/GPa)
#
#
# Indices 1 2 3 4 5 6 
#
# 1 0.009967 -0.002051 -0.004964 0.000000 0.002424 0.000000
# 2 -0.002051 0.005991 -0.000271 0.000000 -0.001696 0.000000
# 3 -0.004964 -0.000271 0.035894 0.000000 -0.028111 0.000000
# 4 0.000000 0.000000 0.000000 0.036472 0.000000 -0.003412
# 5 0.002424 -0.001696 -0.028111 0.000000 0.061045 0.000000
# 6 0.000000 0.000000 0.000000 -0.003412 0.000000 0.027064
#
#
# Mechanical properties :
#
#
# Convention : Reuss Voigt Hill
#
# Bulk Modulus (GPa) = 26.82484 57.14098 41.98291
# Shear Modulus (GPa) = 24.57795 36.36928 30.47361
#
# Velocity S-wave (km/s) = 3.10393 3.77578 3.45622
# Velocity P-wave (km/s) = 4.83333 6.43487 5.69072
#
# Compressibility (1/GPa) = 0.03727887
#
# Stress axis : x y z
#
# Youngs Moduli (GPa) = 100.33071 166.91482 27.85953
#
# Poissons Ratio (x) = 0.34233 0.13831
# Poissons Ratio (y) = 0.20577 0.00756
# Poissons Ratio (z) = 0.49809 0.04529
#
# Static dielectric constant tensor:
#      x y z
#    x 2.228630 0.000000 -0.337570 
#    y 0.000000 2.414330 0.000000 
#    z -0.337570 0.000000 2.439200 
# 
# From -- ./inp_files/237419.got.cif
#   From: 2010.05.17/outbox.cif.g08.bks.cpg/sg15_119_cif.got.tgz:237419.got - 2010.06.03 18:47:42.
