data_PCOD9267503
_publ_section_title
;
Structure prediction by ZEFSAII (Michael W. Deem and Ramdas Pophale) SiO2 
 PCOD9267503
Probable space group: C 2/C
;
_chemical_formula_sum "Si O2"
_cell_formula_units_Z 44
_cell_length_a 9.673714
_cell_length_b 16.475200
_cell_length_c 13.881621
_cell_angle_alpha 90.000000
_cell_angle_beta 54.128294
_cell_angle_gamma 90.000000
_cell_volume 1792.778488
_symmetry_space_group_name_H-M "C 2/C"
_symmetry_group_IT_number 15
_symmetry_cell_setting 'monoclinic'
loop_
_space_group_symop_operation_xyz
x,y,z
-x,y,1/2-z
-x,-y,-z
x,-y,1/2+z
1/2+x,1/2+y,z
1/2-x,1/2+y,1/2-z
1/2-x,1/2-y,-z
1/2+x,1/2-y,1/2+z
loop_
_atom_site_type_symbol
_atom_site_label
_atom_site_fract_x
_atom_site_fract_y
_atom_site_fract_z
Si Si1 0.996953 0.192055 0.888280
Si Si2 0.000000 0.777422 0.750000
Si Si3 0.663091 0.866996 0.305821
Si Si4 0.279738 0.987297 0.860261
Si Si5 0.895897 0.634388 0.456190
Si Si6 0.455113 0.608603 0.433295
O O1 0.803730 0.161033 0.962890
O O2 0.135101 0.149666 0.764648
O O3 0.999288 0.288280 0.877133
O O4 0.054492 0.169745 0.972963
O O5 0.903296 0.715134 0.718419
O O6 0.905616 0.840592 0.859663
O O7 0.571233 0.882739 0.444777
O O8 0.656285 0.942733 0.236915
O O9 0.147659 0.928545 0.856015
O O10 0.407844 0.936257 0.874096
O O11 0.165532 0.034298 0.988019
#
# Coordination Sequence:
#
# PCOD9267503 Si02
#       6
#     8   4   8   8   8   8
#     4   9  19  37  64  91 120 154 212 254 311 364
#     4  12  24  38  62  88 130 164 214 240 310 380
#     4  11  23  40  62  94 125 171 203 257 312 368
#     4   9  21  38  63  89 126 156 213 254 315 361
#     4  10  19  39  64  93 127 157 204 271 301 369
#     4   9  19  38  58  90 116 162 205 255 290 384
#
# _framework density 24.542909999999999
#
# number of rings (size 3 to 8) (size 9 to 14) (size 15 to 20)
#    0.000    2.182    1.818    1.636    2.545    2.909 
#    0.000    2.727    0.000    0.000    0.000    0.000 
#    0.000    0.000    0.000    0.000    0.000    0.000 
#
# Total GULP energy -123017.657481 kJ/mol
# GULP energy per Si atom -5591.711704 kJ/mol
# Density = 2.448705 g / cm^3
# Si number density = 24.542910 Si / 1000 Ang^3
#
#
#
# Elastic Constant Matrix: (Units=GPa)
#
#
# Indices 1 2 3 4 5 6 
#
# 1 53.3700 32.7132 17.7818 0.0000 6.9491 0.0000
# 2 32.7132 157.7723 49.6500 0.0000 10.3829 0.0000
# 3 17.7818 49.6500 111.2569 0.0000 28.7190 0.0000
# 4 0.0000 0.0000 0.0000 15.6796 0.0000 1.2441
# 5 6.9491 10.3829 28.7190 0.0000 31.8726 0.0000
# 6 0.0000 0.0000 0.0000 1.2441 0.0000 40.1560
#
#
#
# Elastic Compliance Matrix: (Units=1/GPa)
#
#
# Indices 1 2 3 4 5 6 
#
# 1 0.021892 -0.004045 -0.001045 0.000000 -0.002514 0.000000
# 2 -0.004045 0.008134 -0.003293 0.000000 0.001199 0.000000
# 3 -0.001045 -0.003293 0.013408 0.000000 -0.010780 0.000000
# 4 0.000000 0.000000 0.000000 0.063934 0.000000 -0.001981
# 5 -0.002514 0.001199 -0.010780 0.000000 0.041246 0.000000
# 6 0.000000 0.000000 0.000000 -0.001981 0.000000 0.024964
#
#
# Mechanical properties :
#
#
# Convention : Reuss Voigt Hill
#
# Bulk Modulus (GPa) = 37.49831 58.07658 47.78744
# Shear Modulus (GPa) = 25.09613 32.35856 28.72735
#
# Velocity S-wave (km/s) = 3.20119 3.63498 3.42496
# Velocity P-wave (km/s) = 5.38287 6.42901 5.92906
#
# Compressibility (1/GPa) = 0.02666787
#
# Stress axis : x y z
#
# Youngs Moduli (GPa) = 45.67894 122.93538 74.58446
#
# Poissons Ratio (x) = 0.49726 0.07794
# Poissons Ratio (y) = 0.18477 0.24562
# Poissons Ratio (z) = 0.04773 0.40485
#
# Static dielectric constant tensor:
#      x y z
#    x 2.018730 0.000000 -0.009530 
#    y 0.000000 1.897290 0.000000 
#    z -0.009530 0.000000 1.987940 
# 
# From -- ./inp_files/143369.got.cif
#   From: 2010.05.17/outbox.cif.g08.bks.cpg/sg15_72_cif.got.tgz:143369.got - 2010.06.03 18:47:42.
