data_PCOD9267276
_publ_section_title
;
Structure prediction by ZEFSAII (Michael W. Deem and Ramdas Pophale) SiO2 
 PCOD9267276
Probable space group: C 2/C
;
_chemical_formula_sum "Si O2"
_cell_formula_units_Z 56
_cell_length_a 25.644399
_cell_length_b 18.339136
_cell_length_c 9.525184
_cell_angle_alpha 90.000000
_cell_angle_beta 132.836613
_cell_angle_gamma 90.000000
_cell_volume 3284.912562
_symmetry_space_group_name_H-M "C 2/C"
_symmetry_group_IT_number 15
_symmetry_cell_setting 'monoclinic'
loop_
_space_group_symop_operation_xyz
x,y,z
-x,y,1/2-z
-x,-y,-z
x,-y,1/2+z
1/2+x,1/2+y,z
1/2-x,1/2+y,1/2-z
1/2-x,1/2-y,-z
1/2+x,1/2-y,1/2+z
loop_
_atom_site_type_symbol
_atom_site_label
_atom_site_fract_x
_atom_site_fract_y
_atom_site_fract_z
Si Si1 0.682038 0.558702 0.096356
Si Si2 0.215782 0.078285 0.465846
Si Si3 0.926208 0.819707 0.436037
Si Si4 0.590807 0.697786 0.272155
Si Si5 0.691394 0.207038 0.797708
Si Si6 0.948920 0.976204 0.531276
Si Si7 0.312620 0.720909 0.514227
O O1 0.725482 0.559456 0.320851
O O2 0.702354 0.493314 0.031154
O O3 0.601526 0.539286 0.000456
O O4 0.692648 0.636619 0.043928
O O5 0.145481 0.130652 0.346298
O O6 0.281907 0.124708 0.643901
O O7 0.909312 0.789740 0.560529
O O8 0.904585 0.905616 0.400889
O O9 0.884347 0.777942 0.238581
O O10 0.011276 0.819138 0.575867
O O11 0.619471 0.767720 0.241192
O O12 0.689141 0.234139 0.633768
O O13 0.750000 0.250000 0.000000
O O14 0.000000 0.950504 0.750000
O O15 0.000000 0.000000 0.500000
O O16 0.250000 0.750000 0.500000
#
# Coordination Sequence:
#
# PCOD9267276 Si02
#       7
#     8   8   8   8   8   8   8
#     4  12  23  36  55  84 112 158 199 234 285 346
#     4  11  22  38  57  82 116 156 193 240 286 342
#     4  11  21  35  57  84 115 153 195 232 281 353
#     4  10  19  39  57  81 118 158 188 227 290 342
#     4  10  21  40  56  75 115 156 192 240 293 332
#     4  12  22  35  52  82 124 160 189 229 276 345
#     4  12  25  37  56  84 118 155 200 251 283 347
#
# _framework density 17.047637999999999
#
# number of rings (size 3 to 8) (size 9 to 14) (size 15 to 20)
#    0.000    0.857    5.714    5.143    2.000    0.571 
#    0.000    0.000    0.000    0.000    0.000    1.000 
#    0.000    0.000    0.000    0.000    0.000    0.000 
#
# Total GULP energy -156311.513517 kJ/mol
# GULP energy per Si atom -5582.554054 kJ/mol
# Density = 1.700884 g / cm^3
# Si number density = 17.047638 Si / 1000 Ang^3
#
#
#
# Elastic Constant Matrix: (Units=GPa)
#
#
# Indices 1 2 3 4 5 6 
#
# 1 102.5587 55.8212 38.7864 0.0000 -14.5602 0.0000
# 2 55.8212 84.3477 43.4247 0.0000 -3.1392 0.0000
# 3 38.7864 43.4247 120.4059 0.0000 -20.1764 0.0000
# 4 0.0000 0.0000 0.0000 31.9399 0.0000 -1.7118
# 5 -14.5602 -3.1392 -20.1764 0.0000 24.6809 0.0000
# 6 0.0000 0.0000 0.0000 -1.7118 0.0000 30.2793
#
#
#
# Elastic Compliance Matrix: (Units=1/GPa)
#
#
# Indices 1 2 3 4 5 6 
#
# 1 0.016872 -0.010787 -0.000124 0.000000 0.008480 0.000000
# 2 -0.010787 0.021627 -0.005713 0.000000 -0.008283 0.000000
# 3 -0.000124 -0.005713 0.011902 0.000000 0.008930 0.000000
# 4 0.000000 0.000000 0.000000 0.031404 0.000000 0.001775
# 5 0.008480 -0.008283 0.008930 0.000000 0.051767 0.000000
# 6 0.000000 0.000000 0.000000 0.001775 0.000000 0.033126
#
#
# Mechanical properties :
#
#
# Convention : Reuss Voigt Hill
#
# Bulk Modulus (GPa) = 58.29457 64.81965 61.55711
# Shear Modulus (GPa) = 24.31145 28.66534 26.48839
#
# Velocity S-wave (km/s) = 3.78046 4.10504 3.94609
# Velocity P-wave (km/s) = 7.30241 7.78291 7.54648
#
# Compressibility (1/GPa) = 0.01715426
#
# Stress axis : x y z
#
# Youngs Moduli (GPa) = 59.26851 46.23764 84.01940
#
# Poissons Ratio (x) = 0.49875 0.01040
# Poissons Ratio (y) = 0.63932 0.48002
# Poissons Ratio (z) = 0.00734 0.26417
#
# Static dielectric constant tensor:
#      x y z
#    x 1.605980 0.000000 -0.005650 
#    y 0.000000 1.605660 0.000000 
#    z -0.005650 0.000000 1.611180 
# 
# From -- ./inp_files/62773.got.cif
#   From: 2010.05.17/outbox.cif.g08.bks.cpg/sg15_32_cif.got.tgz:62773.got - 2010.06.03 18:47:42.
