data_PCOD9267253
_publ_section_title
;
Structure prediction by ZEFSAII (Michael W. Deem and Ramdas Pophale) SiO2 
 PCOD9267253
Probable space group: C 2/C
;
_chemical_formula_sum "Si O2"
_cell_formula_units_Z 56
_cell_length_a 11.284572
_cell_length_b 25.656924
_cell_length_c 14.126955
_cell_angle_alpha 90.000000
_cell_angle_beta 138.562746
_cell_angle_gamma 90.000000
_cell_volume 2706.852831
_symmetry_space_group_name_H-M "C 2/C"
_symmetry_group_IT_number 15
_symmetry_cell_setting 'monoclinic'
loop_
_space_group_symop_operation_xyz
x,y,z
-x,y,1/2-z
-x,-y,-z
x,-y,1/2+z
1/2+x,1/2+y,z
1/2-x,1/2+y,1/2-z
1/2-x,1/2-y,-z
1/2+x,1/2-y,1/2+z
loop_
_atom_site_type_symbol
_atom_site_label
_atom_site_fract_x
_atom_site_fract_y
_atom_site_fract_z
Si Si1 0.343474 0.656581 0.578501
Si Si2 0.960366 0.664862 0.448074
Si Si3 0.934143 0.136588 0.319027
Si Si4 0.935373 0.963306 0.105230
Si Si5 0.610458 0.851228 0.234022
Si Si6 0.043050 0.787583 0.041734
Si Si7 0.168832 0.053102 0.567247
O O1 0.500000 0.667641 0.750000
O O2 0.143454 0.660441 0.498676
O O3 0.372565 0.596443 0.566561
O O4 0.380968 0.694706 0.512962
O O5 0.997008 0.640475 0.572790
O O6 0.929130 0.726458 0.443242
O O7 0.780046 0.639435 0.300913
O O8 0.010370 0.187158 0.419663
O O9 0.000000 0.136048 0.250000
O O10 0.015481 0.087011 0.422392
O O11 0.000000 0.975659 0.250000
O O12 0.793837 0.004660 0.979089
O O13 0.096229 0.966050 0.125314
O O14 0.500000 0.823104 0.250000
O O15 0.680100 0.904979 0.319975
O O16 0.782911 0.816749 0.312461
#
# Coordination Sequence:
#
# PCOD9267253 Si02
#       7
#     8   8   8   8   8   8   8
#     4  11  21  42  66  91 130 168 219 269 320 396
#     4  12  24  38  67  94 131 172 216 268 327 384
#     4  11  24  41  61  94 136 167 221 272 318 391
#     4  10  19  38  71  93 122 174 216 264 336 384
#     4  11  22  40  63  90 129 172 223 263 322 391
#     4  11  23  42  60  93 129 176 215 265 330 382
#     4  10  21  42  65  93 129 170 212 272 331 383
#
# _framework density 20.688233
#
# number of rings (size 3 to 8) (size 9 to 14) (size 15 to 20)
#    0.000    1.143    4.286    4.286    0.000    4.000 
#    0.000    2.857    0.000    7.714    0.000    0.000 
#    0.000    0.000    0.000    0.000    0.000    0.000 
#
# Total GULP energy -156446.247964 kJ/mol
# GULP energy per Si atom -5587.365999 kJ/mol
# Density = 2.064115 g / cm^3
# Si number density = 20.688233 Si / 1000 Ang^3
#
#
#
# Elastic Constant Matrix: (Units=GPa)
#
#
# Indices 1 2 3 4 5 6 
#
# 1 84.3170 8.8524 2.5176 0.0000 -16.5868 0.0000
# 2 8.8524 61.2510 33.2393 0.0000 -10.8785 0.0000
# 3 2.5176 33.2393 71.4958 0.0000 -12.4197 0.0000
# 4 0.0000 0.0000 0.0000 -0.3379 0.0000 -9.9205
# 5 -16.5868 -10.8785 -12.4197 0.0000 37.8932 0.0000
# 6 0.0000 0.0000 0.0000 -9.9205 0.0000 53.6690
#
#
#
# Elastic Compliance Matrix: (Units=1/GPa)
#
#
# Indices 1 2 3 4 5 6 
#
# 1 0.013108 -0.001563 0.001255 0.000000 0.005700 0.000000
# 2 -0.001563 0.022375 -0.009915 0.000000 0.002489 0.000000
# 3 0.001255 -0.009915 0.019249 0.000000 0.004012 0.000000
# 4 0.000000 0.000000 0.000000 -0.460477 0.000000 -0.085118
# 5 0.005700 0.002489 0.004012 0.000000 0.030915 0.000000
# 6 0.000000 0.000000 0.000000 -0.085118 0.000000 0.002899
#
#
# Mechanical properties :
#
#
# Convention : Reuss Voigt Hill
#
# Bulk Modulus (GPa) = 29.16595 34.03139 31.59867
# Shear Modulus (GPa) = -14.70343 29.74183 7.51920
#
# Velocity S-wave (km/s) = -2.66881 3.79571 1.90851
# Velocity P-wave (km/s) = 2.15214 5.97455 4.49037
#
# Compressibility (1/GPa) = 0.03428655
#
# Stress axis : x y z
#
# Youngs Moduli (GPa) = 76.28910 44.69301 51.95045
#
# Poissons Ratio (x) = 0.06987 -0.06522
# Poissons Ratio (y) = 0.11927 0.51508
# Poissons Ratio (z) = -0.09578 0.44312
#
# Static dielectric constant tensor:
#      x y z
#    x 1.759120 0.000000 0.009530 
#    y 0.000000 1.742460 0.000000 
#    z 0.009530 0.000000 1.740540 
# 
# From -- ./inp_files/148586.got.cif
#   From: 2010.05.17/outbox.cif.g08.bks.cpg/sg15_75_cif.got.tgz:148586.got - 2010.06.03 18:47:42.
