data_PCOD9267049
_publ_section_title
;
Structure prediction by ZEFSAII (Michael W. Deem and Ramdas Pophale) SiO2 
 PCOD9267049
Probable space group: C 2/C
;
_chemical_formula_sum "Si O2"
_cell_formula_units_Z 56
_cell_length_a 11.150115
_cell_length_b 11.524911
_cell_length_c 19.902539
_cell_angle_alpha 90.000000
_cell_angle_beta 62.713586
_cell_angle_gamma 90.000000
_cell_volume 2272.967773
_symmetry_space_group_name_H-M "C 2/C"
_symmetry_group_IT_number 15
_symmetry_cell_setting 'monoclinic'
loop_
_space_group_symop_operation_xyz
x,y,z
-x,y,1/2-z
-x,-y,-z
x,-y,1/2+z
1/2+x,1/2+y,z
1/2-x,1/2+y,1/2-z
1/2-x,1/2-y,-z
1/2+x,1/2-y,1/2+z
loop_
_atom_site_type_symbol
_atom_site_label
_atom_site_fract_x
_atom_site_fract_y
_atom_site_fract_z
Si Si1 0.085897 0.464207 0.541097
Si Si2 0.836656 0.769049 0.785439
Si Si3 0.275807 0.604491 0.427161
Si Si4 0.754974 0.774161 0.652597
Si Si5 0.107170 0.786575 0.070624
Si Si6 0.464044 0.711058 0.482367
Si Si7 0.868459 0.525647 0.829839
O O1 0.233669 0.481235 0.469794
O O2 0.038431 0.342222 0.582081
O O3 0.083731 0.545716 0.606297
O O4 0.000000 0.500000 0.500000
O O5 0.794537 0.876894 0.843327
O O6 0.775663 0.768852 0.726854
O O7 0.796675 0.643531 0.825945
O O8 0.000000 0.767714 0.750000
O O9 0.407607 0.635747 0.435566
O O10 0.157022 0.697567 0.474475
O O11 0.638805 0.702249 0.642033
O O12 0.896682 0.737504 0.582748
O O13 0.722442 0.910199 0.646141
O O14 0.250000 0.750000 0.000000
O O15 0.013758 0.850501 0.039217
O O16 0.000000 0.504692 0.750000
#
# Coordination Sequence:
#
# PCOD9267049 Si02
#       7
#     8   8   8   8   8   8   8
#     4  11  22  38  63  96 126 161 223 269 313 391
#     4  11  23  42  65  92 132 174 215 270 318 386
#     4  11  22  36  66  99 124 166 226 264 317 388
#     4  10  22  41  63  94 136 166 212 270 331 381
#     4   9  20  38  61  90 128 167 203 264 331 381
#     4  10  19  38  64  91 125 160 214 265 317 379
#     4  10  24  40  64  96 129 173 218 264 325 387
#
# _framework density 24.637392999999999
#
# number of rings (size 3 to 8) (size 9 to 14) (size 15 to 20)
#    0.000    1.714    2.857    1.714    4.000    0.000 
#    0.000   11.429    0.000    0.857    0.000    0.000 
#    0.000    0.000    0.000    0.000    0.000    0.000 
#
# Total GULP energy -156067.794202 kJ/mol
# GULP energy per Si atom -5573.849793 kJ/mol
# Density = 2.458132 g / cm^3
# Si number density = 24.637393 Si / 1000 Ang^3
#
#
#
# Elastic Constant Matrix: (Units=GPa)
#
#
# Indices 1 2 3 4 5 6 
#
# 1 131.8709 -1.2068 56.7717 0.0000 56.0494 0.0000
# 2 -1.2068 36.9600 18.3825 0.0000 5.1277 0.0000
# 3 56.7717 18.3825 146.7424 0.0000 56.0628 0.0000
# 4 0.0000 0.0000 0.0000 32.7758 0.0000 -0.1997
# 5 56.0494 5.1277 56.0628 0.0000 69.6922 0.0000
# 6 0.0000 0.0000 0.0000 -0.1997 0.0000 26.9442
#
#
#
# Elastic Compliance Matrix: (Units=1/GPa)
#
#
# Indices 1 2 3 4 5 6 
#
# 1 0.011898 0.002398 -0.001704 0.000000 -0.008375 0.000000
# 2 0.002398 0.029399 -0.004400 0.000000 -0.000552 0.000000
# 3 -0.001704 -0.004400 0.010651 0.000000 -0.006874 0.000000
# 4 0.000000 0.000000 0.000000 0.030512 0.000000 0.000226
# 5 -0.008375 -0.000552 -0.006874 0.000000 0.026655 0.000000
# 6 0.000000 0.000000 0.000000 0.000226 0.000000 0.037115
#
#
# Mechanical properties :
#
#
# Convention : Reuss Voigt Hill
#
# Bulk Modulus (GPa) = 22.45291 51.49646 36.97469
# Shear Modulus (GPa) = 29.67575 41.99083 35.83329
#
# Velocity S-wave (km/s) = 3.47436 4.13286 3.81783
# Velocity P-wave (km/s) = 5.02275 6.61220 5.87151
#
# Compressibility (1/GPa) = 0.04453765
#
# Stress axis : x y z
#
# Youngs Moduli (GPa) = 84.04601 34.01431 93.88522
#
# Poissons Ratio (x) = -0.08156 0.15998
# Poissons Ratio (y) = -0.20153 0.41305
# Poissons Ratio (z) = 0.14322 0.14965
#
# Static dielectric constant tensor:
#      x y z
#    x 2.084320 0.000000 -0.008660 
#    y 0.000000 2.166780 0.000000 
#    z -0.008660 0.000000 2.007330 
# 
# From -- ./inp_files/197777.got.cif
#   From: 2010.05.17/outbox.cif.g08.bks.cpg/sg15_99_cif.got.tgz:197777.got - 2010.06.03 18:47:42.
