data_PCOD9267862
_publ_section_title
;
Structure prediction by ZEFSAII (Michael W. Deem and Ramdas Pophale) SiO2 
 PCOD9267862
Probable space group: C 2/C
;
_chemical_formula_sum "Si O2"
_cell_formula_units_Z 36
_cell_length_a 8.742057
_cell_length_b 24.364631
_cell_length_c 9.367889
_cell_angle_alpha 90.000000
_cell_angle_beta 70.048940
_cell_angle_gamma 90.000000
_cell_volume 1875.581168
_symmetry_space_group_name_H-M "C 2/C"
_symmetry_group_IT_number 15
_symmetry_cell_setting 'monoclinic'
loop_
_space_group_symop_operation_xyz
x,y,z
-x,y,1/2-z
-x,-y,-z
x,-y,1/2+z
1/2+x,1/2+y,z
1/2-x,1/2+y,1/2-z
1/2-x,1/2-y,-z
1/2+x,1/2-y,1/2+z
loop_
_atom_site_type_symbol
_atom_site_label
_atom_site_fract_x
_atom_site_fract_y
_atom_site_fract_z
Si Si1 0.500000 0.375001 0.750000
Si Si2 0.000000 0.344175 0.750000
Si Si3 0.690038 0.807663 0.956658
Si Si4 0.339432 0.974864 0.127253
Si Si5 0.780807 0.933992 0.613850
Si Si6 0.000000 0.621161 0.750000
O O1 0.347868 0.339166 0.847800
O O2 0.442917 0.410447 0.632702
O O3 0.934175 0.308305 0.638500
O O4 0.854533 0.385202 0.845465
O O5 0.750000 0.750000 0.000000
O O6 0.604454 0.841964 0.109426
O O7 0.388291 0.919614 0.193069
O O8 0.281610 0.019877 0.257266
O O9 0.211876 0.960318 0.044231
O O10 0.500000 0.000000 0.000000
#
# Coordination Sequence:
#
# PCOD9267862 Si02
#       6
#     4   4   8   8   8   4
#     4  10  25  44  62  94 142 160 201 284 334 352
#     4  10  19  40  68  86 124 172 209 252 318 392
#     4  11  24  46  68  93 122 169 223 276 320 370
#     4  12  19  35  64  96 126 170 217 244 301 407
#     4  11  21  37  62  92 130 170 204 251 318 384
#     4  12  22  40  70  96 120 174 226 254 302 406
#
# _framework density 19.194050000000001
#
# number of rings (size 3 to 8) (size 9 to 14) (size 15 to 20)
#    0.000    0.889    6.667    2.000    0.000    0.889 
#    4.000    3.333    0.000    0.000    0.000    0.000 
#    0.000    0.000    0.000    0.000    0.000    0.000 
#
# Total GULP energy -100608.499931 kJ/mol
# GULP energy per Si atom -5589.361107 kJ/mol
# Density = 1.915036 g / cm^3
# Si number density = 19.194050 Si / 1000 Ang^3
#
#
#
# Elastic Constant Matrix: (Units=GPa)
#
#
# Indices 1 2 3 4 5 6 
#
# 1 115.1252 56.5384 54.8453 0.0000 39.2023 0.0000
# 2 56.5384 121.7993 59.7643 0.0000 28.3232 0.0000
# 3 54.8453 59.7643 123.5097 0.0000 31.9600 0.0000
# 4 0.0000 0.0000 0.0000 39.1075 0.0000 11.4449
# 5 39.2023 28.3232 31.9600 0.0000 44.7172 0.0000
# 6 0.0000 0.0000 0.0000 11.4449 0.0000 35.8342
#
#
#
# Elastic Compliance Matrix: (Units=1/GPa)
#
#
# Indices 1 2 3 4 5 6 
#
# 1 0.014592 -0.003498 -0.002515 0.000000 -0.008779 0.000000
# 2 -0.003498 0.012158 -0.003841 0.000000 -0.001889 0.000000
# 3 -0.002515 -0.003841 0.012112 0.000000 -0.004019 0.000000
# 4 0.000000 0.000000 0.000000 0.028207 0.000000 -0.009009
# 5 -0.008779 -0.001889 -0.004019 0.000000 0.034128 0.000000
# 6 0.000000 0.000000 0.000000 -0.009009 0.000000 0.030784
#
#
# Mechanical properties :
#
#
# Convention : Reuss Voigt Hill
#
# Bulk Modulus (GPa) = 52.21006 78.08112 65.14559
# Shear Modulus (GPa) = 31.63113 36.55085 34.09099
#
# Velocity S-wave (km/s) = 4.06392 4.36854 4.21898
# Velocity P-wave (km/s) = 7.02003 8.13718 7.59916
#
# Compressibility (1/GPa) = 0.01915340
#
# Stress axis : x y z
#
# Youngs Moduli (GPa) = 68.53257 82.25193 82.56309
#
# Poissons Ratio (x) = 0.28769 0.20768
# Poissons Ratio (y) = 0.23970 0.31712
# Poissons Ratio (z) = 0.17239 0.31593
#
# Static dielectric constant tensor:
#      x y z
#    x 1.677410 0.000000 0.009060 
#    y 0.000000 1.660940 0.000000 
#    z 0.009060 0.000000 1.647320 
# 
# From -- ./inp_files/23120.got.cif
#   From: 2010.05.17/outbox.cif.g08.bks.cpg/sg15_12_cif.got.tgz:23120.got - 2010.06.03 18:47:42.
