data_PCOD9267746
_publ_section_title
;
Structure prediction by ZEFSAII (Michael W. Deem and Ramdas Pophale) SiO2 
 PCOD9267746
Probable space group: C 2/C
;
_chemical_formula_sum "Si O2"
_cell_formula_units_Z 60
_cell_length_a 8.620695
_cell_length_b 24.093130
_cell_length_c 15.774547
_cell_angle_alpha 90.000000
_cell_angle_beta 130.171300
_cell_angle_gamma 90.000000
_cell_volume 2503.534268
_symmetry_space_group_name_H-M "C 2/C"
_symmetry_group_IT_number 15
_symmetry_cell_setting 'monoclinic'
loop_
_space_group_symop_operation_xyz
x,y,z
-x,y,1/2-z
-x,-y,-z
x,-y,1/2+z
1/2+x,1/2+y,z
1/2-x,1/2+y,1/2-z
1/2-x,1/2-y,-z
1/2+x,1/2-y,1/2+z
loop_
_atom_site_type_symbol
_atom_site_label
_atom_site_fract_x
_atom_site_fract_y
_atom_site_fract_z
Si Si1 0.740344 0.126309 0.320922
Si Si2 0.349425 0.621320 0.835600
Si Si3 0.449767 0.715809 0.098184
Si Si4 0.767349 0.504510 0.390227
Si Si5 0.000000 0.698266 0.750000
Si Si6 0.783987 0.377884 0.888617
Si Si7 0.754250 0.883154 0.100915
Si Si8 0.762371 0.501555 0.185804
O O1 0.500000 0.137077 0.250000
O O2 0.749054 0.122300 0.222513
O O3 0.790955 0.063002 0.370498
O O4 0.889949 0.177547 0.397880
O O5 0.575223 0.645381 0.897103
O O6 0.267230 0.622321 0.707698
O O7 0.330645 0.558975 0.867746
O O8 0.195246 0.659445 0.834648
O O9 0.563220 0.761737 0.194956
O O10 0.340538 0.670907 0.117226
O O11 0.250000 0.750000 0.000000
O O12 0.701670 0.564288 0.398786
O O13 0.680055 0.447332 0.391216
O O14 0.743237 0.505428 0.280946
O O15 0.000000 0.500000 0.500000
O O16 0.024366 0.373361 0.992090
O O17 0.000000 0.495604 0.250000
#
# Coordination Sequence:
#
# PCOD9267746 Si02
#       8
#     8   8   8   8   4   8   8   8
#     4  10  22  42  68  93 124 161 221 271 326 380
#     4  10  20  36  59  91 135 168 212 257 325 386
#     4  12  26  45  65  92 123 173 221 268 321 384
#     4   8  16  30  58  88 123 153 203 259 312 381
#     4  12  24  44  60  90 130 174 212 258 322 388
#     4  10  19  40  63  88 125 161 214 267 316 375
#     4   9  19  35  59  97 121 167 211 260 321 380
#     4   9  17  33  61  91 124 169 203 265 329 380
#
# _framework density 23.966118000000002
#
# number of rings (size 3 to 8) (size 9 to 14) (size 15 to 20)
#    0.000    2.133    2.000    0.800    1.867    1.067 
#    4.800    1.333    0.000    4.000    0.000    0.000 
#    0.000    0.000    0.000    0.000    0.000    0.000 
#
# Total GULP energy -167253.471311 kJ/mol
# GULP energy per Si atom -5575.115710 kJ/mol
# Density = 2.391157 g / cm^3
# Si number density = 23.966118 Si / 1000 Ang^3
#
#
#
# Elastic Constant Matrix: (Units=GPa)
#
#
# Indices 1 2 3 4 5 6 
#
# 1 94.5597 45.8360 17.0999 0.0000 34.8756 0.0000
# 2 45.8360 134.7268 21.6966 0.0000 10.7575 0.0000
# 3 17.0999 21.6966 94.8819 0.0000 24.8233 0.0000
# 4 0.0000 0.0000 0.0000 9.9742 0.0000 2.4073
# 5 34.8756 10.7575 24.8233 0.0000 36.7883 0.0000
# 6 0.0000 0.0000 0.0000 2.4073 0.0000 28.4052
#
#
#
# Elastic Compliance Matrix: (Units=1/GPa)
#
#
# Indices 1 2 3 4 5 6 
#
# 1 0.019823 -0.005663 0.002678 0.000000 -0.018943 0.000000
# 2 -0.005663 0.009375 -0.002199 0.000000 0.004110 0.000000
# 3 0.002678 -0.002199 0.013426 0.000000 -0.010955 0.000000
# 4 0.000000 0.000000 0.000000 0.102352 0.000000 -0.008674
# 5 -0.018943 0.004110 -0.010955 0.000000 0.051331 0.000000
# 6 0.000000 0.000000 0.000000 -0.008674 0.000000 0.035940
#
#
# Mechanical properties :
#
#
# Convention : Reuss Voigt Hill
#
# Bulk Modulus (GPa) = 31.00069 54.82594 42.91331
# Shear Modulus (GPa) = 19.73438 31.00258 25.36848
#
# Velocity S-wave (km/s) = 2.87266 3.60057 3.25701
# Velocity P-wave (km/s) = 4.89553 6.34126 5.66470
#
# Compressibility (1/GPa) = 0.03225735
#
# Stress axis : x y z
#
# Youngs Moduli (GPa) = 50.44746 106.66866 74.48442
#
# Poissons Ratio (x) = 0.60403 -0.19950
# Poissons Ratio (y) = 0.28567 0.16376
# Poissons Ratio (z) = -0.13512 0.23452
#
# Static dielectric constant tensor:
#      x y z
#    x 2.022680 0.000000 0.102840 
#    y 0.000000 1.985850 0.000000 
#    z 0.102840 0.000000 2.024400 
# 
# From -- ./inp_files/234084.got.cif
#   From: 2010.05.17/outbox.cif.g08.bks.cpg/sg15_118_cif.got.tgz:234084.got - 2010.06.03 18:47:42.
