data_PCOD9267838
_publ_section_title
;
Structure prediction by ZEFSAII (Michael W. Deem and Ramdas Pophale) SiO2 
 PCOD9267838
Probable space group: C 2/C
;
_chemical_formula_sum "Si O2"
_cell_formula_units_Z 36
_cell_length_a 14.402626
_cell_length_b 8.984664
_cell_length_c 12.764189
_cell_angle_alpha 90.000000
_cell_angle_beta 77.687381
_cell_angle_gamma 90.000000
_cell_volume 1613.729379
_symmetry_space_group_name_H-M "C 2/C"
_symmetry_group_IT_number 15
_symmetry_cell_setting 'monoclinic'
loop_
_space_group_symop_operation_xyz
x,y,z
-x,y,1/2-z
-x,-y,-z
x,-y,1/2+z
1/2+x,1/2+y,z
1/2-x,1/2+y,1/2-z
1/2-x,1/2-y,-z
1/2+x,1/2-y,1/2+z
loop_
_atom_site_type_symbol
_atom_site_label
_atom_site_fract_x
_atom_site_fract_y
_atom_site_fract_z
Si Si1 0.000000 0.886602 0.250000
Si Si2 0.045337 0.609818 0.574877
Si Si3 0.078163 0.115497 0.937804
Si Si4 0.142073 0.624066 0.756360
Si Si5 0.313240 0.546095 0.258647
O O1 0.969679 0.803851 0.152780
O O2 0.906655 0.986487 0.296544
O O3 0.951914 0.668133 0.657794
O O4 0.889613 0.549043 0.845631
O O5 0.000000 0.500000 0.500000
O O6 0.098181 0.751665 0.511707
O O7 0.160968 0.015650 0.865228
O O8 0.000000 0.000000 0.000000
O O9 0.212417 0.524834 0.807829
O O10 0.194023 0.779788 0.726209
#
# Coordination Sequence:
#
# PCOD9267838 Si02
#       5
#     4   8   8   8   8
#     4   8  20  38  62  88 128 162 214 260 318 378
#     4  11  25  44  67  92 132 172 214 268 320 384
#     4  10  19  40  67  90 122 176 213 248 330 377
#     4  11  24  45  64  95 133 166 216 266 327 375
#     4  10  22  41  68  93 129 172 208 274 314 386
#
# _framework density 22.308574
#
# number of rings (size 3 to 8) (size 9 to 14) (size 15 to 20)
#    1.333    0.444    2.222    2.667    3.111    4.444 
#    4.000    2.222    0.000    0.000    0.000    0.000 
#    0.000    0.000    0.000    0.000    0.000    0.000 
#
# Total GULP energy -100244.118852 kJ/mol
# GULP energy per Si atom -5569.117714 kJ/mol
# Density = 2.225780 g / cm^3
# Si number density = 22.308574 Si / 1000 Ang^3
#
#
#
# Elastic Constant Matrix: (Units=GPa)
#
#
# Indices 1 2 3 4 5 6 
#
# 1 91.0630 22.5248 -2.7746 0.0000 2.1059 0.0000
# 2 22.5248 49.5535 1.8915 0.0000 9.5024 0.0000
# 3 -2.7746 1.8915 44.5382 0.0000 12.2715 0.0000
# 4 0.0000 0.0000 0.0000 27.4534 0.0000 1.5433
# 5 2.1059 9.5024 12.2715 0.0000 32.0673 0.0000
# 6 0.0000 0.0000 0.0000 1.5433 0.0000 29.4031
#
#
#
# Elastic Compliance Matrix: (Units=1/GPa)
#
#
# Indices 1 2 3 4 5 6 
#
# 1 0.012427 -0.005791 0.000863 0.000000 0.000570 0.000000
# 2 -0.005791 0.024130 0.000536 0.000000 -0.006975 0.000000
# 3 0.000863 0.000536 0.025200 0.000000 -0.009859 0.000000
# 4 0.000000 0.000000 0.000000 0.036533 0.000000 -0.001917
# 5 0.000570 -0.006975 -0.009859 0.000000 0.036987 0.000000
# 6 0.000000 0.000000 0.000000 -0.001917 0.000000 0.034111
#
#
# Mechanical properties :
#
#
# Convention : Reuss Voigt Hill
#
# Bulk Modulus (GPa) = 18.87727 25.38203 22.12965
# Shear Modulus (GPa) = 25.53260 28.68563 27.10912
#
# Velocity S-wave (km/s) = 3.38675 3.58977 3.48974
# Velocity P-wave (km/s) = 4.87582 5.34644 5.11654
#
# Compressibility (1/GPa) = 0.05297375
#
# Stress axis : x y z
#
# Youngs Moduli (GPa) = 80.47037 41.44290 39.68239
#
# Poissons Ratio (x) = 0.23999 -0.03425
# Poissons Ratio (y) = 0.46600 -0.02128
# Poissons Ratio (z) = -0.06946 -0.02223
#
# Static dielectric constant tensor:
#      x y z
#    x 1.887450 0.000000 0.021570 
#    y 0.000000 1.788660 0.000000 
#    z 0.021570 0.000000 1.889230 
# 
# From -- ./inp_files/208437.got.cif
#   From: 2010.05.17/outbox.cif.g08.bks.cpg/sg15_105_cif.got.tgz:208437.got - 2010.06.03 18:47:42.
