data_PCOD9267221
_publ_section_title
;
Structure prediction by ZEFSAII (Michael W. Deem and Ramdas Pophale) SiO2 
 PCOD9267221
Probable space group: C 2/C
;
_chemical_formula_sum "Si O2"
_cell_formula_units_Z 48
_cell_length_a 17.267606
_cell_length_b 9.226807
_cell_length_c 17.018047
_cell_angle_alpha 90.000000
_cell_angle_beta 123.621033
_cell_angle_gamma 90.000000
_cell_volume 2257.830096
_symmetry_space_group_name_H-M "C 2/C"
_symmetry_group_IT_number 15
_symmetry_cell_setting 'monoclinic'
loop_
_space_group_symop_operation_xyz
x,y,z
-x,y,1/2-z
-x,-y,-z
x,-y,1/2+z
1/2+x,1/2+y,z
1/2-x,1/2+y,1/2-z
1/2-x,1/2-y,-z
1/2+x,1/2-y,1/2+z
loop_
_atom_site_type_symbol
_atom_site_label
_atom_site_fract_x
_atom_site_fract_y
_atom_site_fract_z
Si Si1 0.530535 0.672990 0.357877
Si Si2 0.195266 0.650726 0.240882
Si Si3 0.662624 0.556587 0.915745
Si Si4 0.866382 0.033543 0.778606
Si Si5 0.316682 0.760801 0.440367
Si Si6 0.447741 0.926828 0.399100
O O1 0.500000 0.687771 0.250000
O O2 0.632484 0.603984 0.422092
O O3 0.458224 0.554566 0.354329
O O4 0.516618 0.826457 0.389462
O O5 0.279115 0.577098 0.238005
O O6 0.237050 0.665326 0.352450
O O7 0.108393 0.543701 0.183233
O O8 0.163405 0.813912 0.198712
O O9 0.618358 0.574445 0.804473
O O10 0.768059 0.606005 0.958692
O O11 0.630379 0.665259 0.966060
O O12 0.374073 0.821751 0.400348
O O13 0.500000 0.000000 0.500000
#
# Coordination Sequence:
#
# PCOD9267221 Si02
#       6
#     8   8   8   8   8   8
#     4  10  22  44  64  99 134 166 219 276 333 387
#     4  11  20  40  65  93 125 181 213 268 322 402
#     4   9  20  39  66  93 125 172 210 280 318 396
#     4  10  19  38  68  93 129 167 225 262 335 393
#     4  10  21  42  67  92 130 172 227 258 336 402
#     4  12  26  43  63 100 135 169 222 276 325 398
#
# _framework density 21.259349
#
# number of rings (size 3 to 8) (size 9 to 14) (size 15 to 20)
#    0.000    1.667    5.000    0.000    2.333    2.000 
#    9.000    0.833    0.000    0.000    0.000    0.000 
#    0.000    0.000    0.000    0.000    0.000    0.000 
#
# Total GULP energy -133741.360651 kJ/mol
# GULP energy per Si atom -5572.556694 kJ/mol
# Density = 2.121096 g / cm^3
# Si number density = 21.259349 Si / 1000 Ang^3
#
#
#
# Elastic Constant Matrix: (Units=GPa)
#
#
# Indices 1 2 3 4 5 6 
#
# 1 47.5654 49.5358 22.2177 0.0000 -4.7685 0.0000
# 2 49.5358 132.7430 57.8094 0.0000 -6.4445 0.0000
# 3 22.2177 57.8094 65.9276 0.0000 3.3327 0.0000
# 4 0.0000 0.0000 0.0000 37.6784 0.0000 1.8576
# 5 -4.7685 -6.4445 3.3327 0.0000 16.3866 0.0000
# 6 0.0000 0.0000 0.0000 1.8576 0.0000 52.4382
#
#
#
# Elastic Compliance Matrix: (Units=1/GPa)
#
#
# Indices 1 2 3 4 5 6 
#
# 1 0.034879 -0.012129 -0.001406 0.000000 0.005666 0.000000
# 2 -0.012129 0.017265 -0.011333 0.000000 0.005565 0.000000
# 3 -0.001406 -0.011333 0.026094 0.000000 -0.010173 0.000000
# 4 0.000000 0.000000 0.000000 0.026587 0.000000 -0.000942
# 5 0.005666 0.005565 -0.010173 0.000000 0.066932 0.000000
# 6 0.000000 0.000000 0.000000 -0.000942 0.000000 0.019103
#
#
# Mechanical properties :
#
#
# Convention : Reuss Voigt Hill
#
# Bulk Modulus (GPa) = 35.08355 56.15130 45.61742
# Shear Modulus (GPa) = 19.99228 29.07886 24.53557
#
# Velocity S-wave (km/s) = 3.06992 3.70241 3.40090
# Velocity P-wave (km/s) = 5.39484 6.68932 6.07665
#
# Compressibility (1/GPa) = 0.02850339
#
# Stress axis : x y z
#
# Youngs Moduli (GPa) = 28.67015 57.91996 38.32353
#
# Poissons Ratio (x) = 0.70250 0.05387
# Poissons Ratio (y) = 0.34773 0.43432
# Poissons Ratio (z) = 0.04030 0.65641
#
# Static dielectric constant tensor:
#      x y z
#    x 1.884540 0.000000 0.030590 
#    y 0.000000 3.521240 0.000000 
#    z 0.030590 0.000000 1.775070 
# 
# From -- ./inp_files/209303.got.cif
#   From: 2010.05.17/outbox.cif.g08.bks.cpg/sg15_105_cif.got.tgz:209303.got - 2010.06.03 18:47:42.
