data_PCOD9267664
_publ_section_title
;
Structure prediction by ZEFSAII (Michael W. Deem and Ramdas Pophale) SiO2 
 PCOD9267664
Probable space group: C 2/C
;
_chemical_formula_sum "Si O2"
_cell_formula_units_Z 56
_cell_length_a 7.724199
_cell_length_b 21.442367
_cell_length_c 15.337232
_cell_angle_alpha 90.000000
_cell_angle_beta 56.464983
_cell_angle_gamma 90.000000
_cell_volume 2117.405120
_symmetry_space_group_name_H-M "C 2/C"
_symmetry_group_IT_number 15
_symmetry_cell_setting 'monoclinic'
loop_
_space_group_symop_operation_xyz
x,y,z
-x,y,1/2-z
-x,-y,-z
x,-y,1/2+z
1/2+x,1/2+y,z
1/2-x,1/2+y,1/2-z
1/2-x,1/2-y,-z
1/2+x,1/2-y,1/2+z
loop_
_atom_site_type_symbol
_atom_site_label
_atom_site_fract_x
_atom_site_fract_y
_atom_site_fract_z
Si Si1 0.493460 0.193723 0.524323
Si Si2 0.431710 0.147882 0.361161
Si Si3 0.406371 0.963218 0.944097
Si Si4 0.822764 0.410473 0.405674
Si Si5 0.966415 0.063065 0.661739
Si Si6 0.581252 0.579132 0.358954
Si Si7 0.474638 0.713022 0.347420
O O1 0.380390 0.186122 0.462444
O O2 0.524856 0.137779 0.587055
O O3 0.419044 0.252605 0.601235
O O4 0.730759 0.208676 0.431819
O O5 0.500000 0.177400 0.250000
O O6 0.564226 0.093132 0.373904
O O7 0.268131 0.095909 0.372630
O O8 0.409006 0.019982 0.874892
O O9 0.185900 0.939626 0.048768
O O10 0.500000 0.000000 0.000000
O O11 0.705931 0.398435 0.346047
O O12 0.628267 0.419458 0.525468
O O13 0.000000 0.087251 0.750000
O O14 0.903088 0.989519 0.684261
O O15 0.568616 0.644510 0.312268
O O16 0.500000 0.748494 0.250000
#
# Coordination Sequence:
#
# PCOD9267664 Si02
#       7
#     8   8   8   8   8   8   8
#     4  10  23  40  62  88 123 155 205 261 300 360
#     4  12  23  36  60  94 119 156 204 259 309 358
#     4  11  21  36  58  87 128 155 198 255 299 364
#     4  10  19  40  58  83 126 163 192 243 305 368
#     4  11  22  37  60  91 125 168 202 241 312 378
#     4  10  20  37  62  84 120 158 203 249 300 361
#     4  10  21  42  64  85 113 162 206 250 308 365
#
# _framework density 26.447465999999999
#
# number of rings (size 3 to 8) (size 9 to 14) (size 15 to 20)
#    0.000    1.429    4.286    2.143    2.000    0.571 
#    2.571    0.714    0.000    6.000    0.000    0.000 
#    0.000    0.000    0.000    0.000    0.000    0.000 
#
# Total GULP energy -156064.541669 kJ/mol
# GULP energy per Si atom -5573.733631 kJ/mol
# Density = 2.638727 g / cm^3
# Si number density = 26.447466 Si / 1000 Ang^3
#
#
#
# Elastic Constant Matrix: (Units=GPa)
#
#
# Indices 1 2 3 4 5 6 
#
# 1 73.2353 27.6233 52.4055 0.0000 30.6544 0.0000
# 2 27.6233 84.8133 49.2171 0.0000 12.6421 0.0000
# 3 52.4055 49.2171 137.9124 0.0000 46.7739 0.0000
# 4 0.0000 0.0000 0.0000 23.9919 0.0000 4.1557
# 5 30.6544 12.6421 46.7739 0.0000 63.4173 0.0000
# 6 0.0000 0.0000 0.0000 4.1557 0.0000 32.4280
#
#
#
# Elastic Compliance Matrix: (Units=1/GPa)
#
#
# Indices 1 2 3 4 5 6 
#
# 1 0.020690 -0.003098 -0.004766 0.000000 -0.005868 0.000000
# 2 -0.003098 0.015411 -0.005052 0.000000 0.002152 0.000000
# 3 -0.004766 -0.005052 0.012992 0.000000 -0.006271 0.000000
# 4 0.000000 0.000000 0.000000 0.042627 0.000000 -0.005463
# 5 -0.005868 0.002152 -0.006271 0.000000 0.022802 0.000000
# 6 0.000000 0.000000 0.000000 -0.005463 0.000000 0.031538
#
#
# Mechanical properties :
#
#
# Convention : Reuss Voigt Hill
#
# Bulk Modulus (GPa) = 42.99265 61.60587 52.29926
# Shear Modulus (GPa) = 27.83267 35.08179 31.45723
#
# Velocity S-wave (km/s) = 3.24755 3.64603 3.45254
# Velocity P-wave (km/s) = 5.50938 6.40850 5.97588
#
# Compressibility (1/GPa) = 0.02325979
#
# Stress axis : x y z
#
# Youngs Moduli (GPa) = 48.33256 64.89007 76.97027
#
# Poissons Ratio (x) = 0.20104 0.36685
# Poissons Ratio (y) = 0.14974 0.38887
# Poissons Ratio (z) = 0.23036 0.32783
#
# Static dielectric constant tensor:
#      x y z
#    x 2.997070 0.000000 0.666090 
#    y 0.000000 2.341360 0.000000 
#    z 0.666090 0.000000 2.703630 
# 
# From -- ./inp_files/137718.got.cif
#   From: 2010.05.17/outbox.cif.g08.bks.cpg/sg15_69_cif.got.tgz:137718.got - 2010.06.03 18:47:42.
