data_PCOD9267304
_publ_section_title
;
Structure prediction by ZEFSAII (Michael W. Deem and Ramdas Pophale) SiO2 
 PCOD9267304
Probable space group: C 2/C
;
_chemical_formula_sum "Si O2"
_cell_formula_units_Z 56
_cell_length_a 13.141761
_cell_length_b 21.296403
_cell_length_c 17.761811
_cell_angle_alpha 90.000000
_cell_angle_beta 146.086089
_cell_angle_gamma 90.000000
_cell_volume 2773.573707
_symmetry_space_group_name_H-M "C 2/C"
_symmetry_group_IT_number 15
_symmetry_cell_setting 'monoclinic'
loop_
_space_group_symop_operation_xyz
x,y,z
-x,y,1/2-z
-x,-y,-z
x,-y,1/2+z
1/2+x,1/2+y,z
1/2-x,1/2+y,1/2-z
1/2-x,1/2-y,-z
1/2+x,1/2-y,1/2+z
loop_
_atom_site_type_symbol
_atom_site_label
_atom_site_fract_x
_atom_site_fract_y
_atom_site_fract_z
Si Si1 0.536562 0.485881 0.893026
Si Si2 0.845261 0.486276 0.206712
Si Si3 0.500825 0.170856 0.977671
Si Si4 0.842611 0.864098 0.592510
Si Si5 0.192196 0.601316 0.229630
Si Si6 0.999421 0.181970 0.028504
Si Si7 0.832200 0.104048 0.788794
O O1 0.648845 0.440359 0.906863
O O2 0.358738 0.442760 0.801241
O O3 0.468426 0.555457 0.830857
O O4 0.662068 0.492353 0.044474
O O5 0.906018 0.554506 0.273410
O O6 0.806858 0.442380 0.253454
O O7 0.000000 0.457479 0.250000
O O8 0.515171 0.245102 0.998791
O O9 0.293906 0.150991 0.834483
O O10 0.645367 0.157015 0.999440
O O11 0.571138 0.128187 0.089179
O O12 0.891615 0.835888 0.540115
O O13 0.000000 0.844863 0.750000
O O14 0.294385 0.659700 0.330037
O O15 0.929431 0.141223 0.915728
#
# Coordination Sequence:
#
# PCOD9267304 Si02
#       7
#     8   8   8   8   8   8   8
#     4  10  19  39  59  78 119 157 190 245 296 345
#     4  11  20  37  63  85 110 150 206 248 291 358
#     4  12  24  36  56  94 118 156 197 241 291 361
#     4  11  21  37  56  85 123 160 189 238 300 345
#     4  10  20  40  58  80 118 157 192 246 301 338
#     4  11  21  40  60  78 125 168 194 229 294 371
#     4  11  22  36  60  87 113 156 208 238 290 358
#
# _framework density 20.190559
#
# number of rings (size 3 to 8) (size 9 to 14) (size 15 to 20)
#    0.000    1.143    7.143    3.000    0.000    2.286 
#    2.571    0.000    0.000    0.857    0.000    0.000 
#    0.000    0.000    0.000    0.000    0.000    0.000 
#
# Total GULP energy -156235.410403 kJ/mol
# GULP energy per Si atom -5579.836086 kJ/mol
# Density = 2.014460 g / cm^3
# Si number density = 20.190559 Si / 1000 Ang^3
#
#
#
# Elastic Constant Matrix: (Units=GPa)
#
#
# Indices 1 2 3 4 5 6 
#
# 1 9.3978 11.7019 -9.6646 -0.0596 -3.3999 -0.0560
# 2 11.7019 103.8431 3.1348 -0.0542 -5.9969 -0.0504
# 3 -9.6646 3.1348 78.7695 -0.1197 -16.3622 -0.1124
# 4 -0.0596 -0.0542 -0.1197 122.5850 -0.0675 94.4816
# 5 -3.3999 -5.9969 -16.3622 -0.0675 19.5875 -0.0634
# 6 -0.0560 -0.0504 -0.1124 94.4816 -0.0634 110.9457
#
#
#
# Elastic Compliance Matrix: (Units=1/GPa)
#
#
# Indices 1 2 3 4 5 6 
#
# 1 0.186395 -0.018832 0.035261 0.000086 0.056042 0.000080
# 2 -0.018832 0.011711 -0.003280 -0.000005 -0.002423 -0.000005
# 3 0.035261 -0.003280 0.022039 0.000029 0.023526 0.000027
# 4 0.000086 -0.000005 0.000029 0.023739 0.000054 -0.020216
# 5 0.056042 -0.002423 0.023526 0.000054 0.079691 0.000050
# 6 0.000080 -0.000005 0.000027 -0.020216 0.000050 0.026230
#
#
# Mechanical properties :
#
#
# Convention : Reuss Voigt Hill
#
# Bulk Modulus (GPa) = 4.05776 22.48384 13.27080
# Shear Modulus (GPa) = 12.32570 63.07954 37.70262
#
# Velocity S-wave (km/s) = 2.47345 5.59553 4.32596
# Velocity P-wave (km/s) = 3.18925 7.27369 5.61595
#
# Compressibility (1/GPa) = 0.24644116
#
# Stress axis : x y z
#
# Youngs Moduli (GPa) = 5.36495 85.38846 45.37394
#
# Poissons Ratio (x) = 1.60808 -1.59991
# Poissons Ratio (y) = 0.10104 0.14883
# Poissons Ratio (z) = -0.18917 0.28008
#
# Static dielectric constant tensor:
#      x y z
#    x 1.785740 0.000000 0.007260 
#    y 0.000000 1.734070 0.000000 
#    z 0.007260 0.000000 1.729230 
# 
# From -- ./inp_files/206902.got.cif
#   From: 2010.05.17/outbox.cif.g08.bks.cpg/sg15_104_cif.got.tgz:206902.got - 2010.06.03 18:47:42.
