data_PCOD9267365
_publ_section_title
;
Structure prediction by ZEFSAII (Michael W. Deem and Ramdas Pophale) SiO2 
 PCOD9267365
Probable space group: C 2/C
;
_chemical_formula_sum "Si O2"
_cell_formula_units_Z 56
_cell_length_a 19.517898
_cell_length_b 10.436498
_cell_length_c 23.493817
_cell_angle_alpha 90.000000
_cell_angle_beta 29.534348
_cell_angle_gamma 90.000000
_cell_volume 2359.066019
_symmetry_space_group_name_H-M "C 2/C"
_symmetry_group_IT_number 15
_symmetry_cell_setting 'monoclinic'
loop_
_space_group_symop_operation_xyz
x,y,z
-x,y,1/2-z
-x,-y,-z
x,-y,1/2+z
1/2+x,1/2+y,z
1/2-x,1/2+y,1/2-z
1/2-x,1/2-y,-z
1/2+x,1/2-y,1/2+z
loop_
_atom_site_type_symbol
_atom_site_label
_atom_site_fract_x
_atom_site_fract_y
_atom_site_fract_z
Si Si1 0.325985 0.204436 0.002620
Si Si2 0.213758 0.267727 0.654261
Si Si3 0.446401 0.057180 0.623807
Si Si4 0.336505 0.488684 0.023423
Si Si5 0.985568 0.680625 0.040790
Si Si6 0.636704 0.394218 0.315883
Si Si7 0.343470 0.457959 0.383831
O O1 0.245182 0.074966 0.079146
O O2 0.250000 0.250000 0.000000
O O3 0.485784 0.152364 0.879418
O O4 0.319741 0.336489 0.042437
O O5 0.219417 0.420843 0.638519
O O6 0.368480 0.250796 0.566441
O O7 0.128344 0.182779 0.761877
O O8 0.196859 0.183584 0.609357
O O9 0.525116 0.110317 0.510701
O O10 0.285620 0.044886 0.721065
O O11 0.491613 0.910321 0.591900
O O12 0.497852 0.521743 0.922754
O O13 0.327615 0.526746 0.963016
O O14 0.866773 0.781238 0.135813
O O15 0.500000 0.479618 0.250000
#
# Coordination Sequence:
#
# PCOD9267365 Si02
#       7
#     8   8   8   8   8   8   8
#     4  10  23  42  60  90 127 165 203 260 319 368
#     4  10  19  39  61  89 123 160 208 259 308 366
#     4  10  20  39  63  85 126 164 205 251 318 375
#     4  10  22  39  62  91 130 158 205 264 314 367
#     4   9  20  37  60  89 120 161 206 263 297 379
#     4  10  21  37  62  95 116 159 215 248 318 372
#     4  11  20  38  66  89 120 173 213 245 309 389
#
# _framework density 23.738208
#
# number of rings (size 3 to 8) (size 9 to 14) (size 15 to 20)
#    0.000    2.000    2.857    0.429    2.000    0.000 
#    5.143    2.857    0.000    0.000    0.000    0.000 
#    0.000    0.000    0.000    0.000    0.000    0.000 
#
# Total GULP energy -155878.725234 kJ/mol
# GULP energy per Si atom -5567.097330 kJ/mol
# Density = 2.368418 g / cm^3
# Si number density = 23.738208 Si / 1000 Ang^3
#
#
#
# Elastic Constant Matrix: (Units=GPa)
#
#
# Indices 1 2 3 4 5 6 
#
# 1 82.1284 9.0260 4.8639 -0.0001 -13.6164 0.0000
# 2 9.0260 123.5279 15.5172 -0.0005 -24.6158 0.0001
# 3 4.8639 15.5172 38.1174 -0.0010 -14.5671 0.0001
# 4 -0.0001 -0.0005 -0.0010 19.8817 0.0002 -4.0191
# 5 -13.6164 -24.6158 -14.5671 0.0002 27.4634 0.0000
# 6 0.0000 0.0001 0.0001 -4.0191 0.0000 25.0331
#
#
#
# Elastic Compliance Matrix: (Units=1/GPa)
#
#
# Indices 1 2 3 4 5 6 
#
# 1 0.013314 0.000393 0.001001 0.000000 0.007485 0.000000
# 2 0.000393 0.009887 -0.000770 0.000000 0.008648 0.000000
# 3 0.001001 -0.000770 0.033045 0.000001 0.017334 0.000000
# 4 0.000000 0.000000 0.000001 0.051985 0.000001 0.008346
# 5 0.007485 0.008648 0.017334 0.000001 0.057069 0.000000
# 6 0.000000 0.000000 0.000000 0.008346 0.000000 0.041287
#
#
# Mechanical properties :
#
#
# Convention : Reuss Voigt Hill
#
# Bulk Modulus (GPa) = 17.39293 33.62089 25.50691
# Shear Modulus (GPa) = 22.27147 28.76674 25.51910
#
# Velocity S-wave (km/s) = 3.06635 3.48492 3.28231
# Velocity P-wave (km/s) = 4.45865 5.51242 5.01330
#
# Compressibility (1/GPa) = 0.05749463
#
# Stress axis : x y z
#
# Youngs Moduli (GPa) = 75.10619 101.14645 30.26189
#
# Poissons Ratio (x) = -0.03973 -0.03031
# Poissons Ratio (y) = -0.02950 0.02330
# Poissons Ratio (z) = -0.07522 0.07788
#
# Static dielectric constant tensor:
#      x y z
#    x 2.022960 0.000000 0.018340 
#    y 0.000000 2.074010 0.000000 
#    z 0.018340 0.000000 1.993010 
# 
# From -- ./inp_files/300717.got.cif
#   From: 2010.05.17/outbox.cif.g08.bks.cpg/sg15_151_cif.got.tgz:300717.got - 2010.06.03 18:47:42.
