data_PCOD9267860
_publ_section_title
;
Structure prediction by ZEFSAII (Michael W. Deem and Ramdas Pophale) SiO2 
 PCOD9267860
Probable space group: C 2/C
;
_chemical_formula_sum "Si O2"
_cell_formula_units_Z 48
_cell_length_a 7.753811
_cell_length_b 21.495809
_cell_length_c 16.513255
_cell_angle_alpha 90.000000
_cell_angle_beta 62.976109
_cell_angle_gamma 90.000000
_cell_volume 2451.829460
_symmetry_space_group_name_H-M "C 2/C"
_symmetry_group_IT_number 15
_symmetry_cell_setting 'monoclinic'
loop_
_space_group_symop_operation_xyz
x,y,z
-x,y,1/2-z
-x,-y,-z
x,-y,1/2+z
1/2+x,1/2+y,z
1/2-x,1/2+y,1/2-z
1/2-x,1/2-y,-z
1/2+x,1/2-y,1/2+z
loop_
_atom_site_type_symbol
_atom_site_label
_atom_site_fract_x
_atom_site_fract_y
_atom_site_fract_z
Si Si1 0.805714 0.631486 0.608364
Si Si2 0.202635 0.963378 0.844476
Si Si3 0.000000 0.642557 0.250000
Si Si4 0.045866 0.122004 0.508746
Si Si5 0.753782 0.769756 0.592900
Si Si6 0.629386 0.909100 0.145629
Si Si7 0.000000 0.959365 0.250000
O O1 0.723460 0.621673 0.535105
O O2 0.775733 0.704576 0.634380
O O3 0.674539 0.585655 0.689096
O O4 0.021492 0.611399 0.586494
O O5 0.322071 0.906114 0.779220
O O6 0.343455 0.016493 0.851163
O O7 0.074433 0.935784 0.943816
O O8 0.070001 0.997848 0.808097
O O9 0.927084 0.689335 0.336367
O O10 0.066769 0.182514 0.447126
O O11 0.844768 0.119111 0.598849
O O12 0.750000 0.750000 0.500000
O O13 0.500000 0.888309 0.250000
#
# Coordination Sequence:
#
# PCOD9267860 Si02
#       7
#     8   8   4   8   8   8   4
#     4  11  21  38  65  90 119 171 207 253 321 364
#     4  11  22  41  60  97 128 165 210 261 319 379
#     4  10  19  40  68  82 133 168 202 264 318 368
#     4  10  23  42  62  89 131 162 207 274 301 370
#     4   9  21  40  64  93 120 166 216 254 312 378
#     4  12  22  38  63  96 125 163 210 254 318 382
#     4  12  21  38  64  92 131 164 206 262 318 378
#
# _framework density 19.577217999999998
#
# number of rings (size 3 to 8) (size 9 to 14) (size 15 to 20)
#    0.000    1.333    4.167    1.000    0.000    2.667 
#    9.000    0.000   11.000    0.000    0.000    0.000 
#    0.000    0.000    0.000    0.000    0.000    0.000 
#
# Total GULP energy -133696.385907 kJ/mol
# GULP energy per Si atom -5570.682746 kJ/mol
# Density = 1.953266 g / cm^3
# Si number density = 19.577218 Si / 1000 Ang^3
#
#
#
# Elastic Constant Matrix: (Units=GPa)
#
#
# Indices 1 2 3 4 5 6 
#
# 1 92.2038 45.7159 29.4236 0.0000 10.7606 0.0000
# 2 45.7159 134.6312 41.2593 0.0000 2.8754 0.0000
# 3 29.4236 41.2593 93.8459 0.0000 -15.3659 0.0000
# 4 0.0000 0.0000 0.0000 1.5363 0.0000 -1.4671
# 5 10.7606 2.8754 -15.3659 0.0000 27.5613 0.0000
# 6 0.0000 0.0000 0.0000 -1.4671 0.0000 12.4042
#
#
#
# Elastic Compliance Matrix: (Units=1/GPa)
#
#
# Indices 1 2 3 4 5 6 
#
# 1 0.014942 -0.003549 -0.004423 0.000000 -0.007929 0.000000
# 2 -0.003549 0.009709 -0.003406 0.000000 -0.001526 0.000000
# 3 -0.004423 -0.003406 0.015275 0.000000 0.010598 0.000000
# 4 0.000000 0.000000 0.000000 0.733773 0.000000 0.086784
# 5 -0.007929 -0.001526 0.010598 0.000000 0.045446 0.000000
# 6 0.000000 0.000000 0.000000 0.086784 0.000000 0.090882
#
#
# Mechanical properties :
#
#
# Convention : Reuss Voigt Hill
#
# Bulk Modulus (GPa) = 58.23727 61.49762 59.86745
# Shear Modulus (GPa) = 5.32761 21.91916 13.62339
#
# Velocity S-wave (km/s) = 1.65144 3.34971 2.64081
# Velocity P-wave (km/s) = 5.78346 6.81482 6.32021
#
# Compressibility (1/GPa) = 0.01717113
#
# Stress axis : x y z
#
# Youngs Moduli (GPa) = 66.92589 102.99573 65.46616
#
# Poissons Ratio (x) = 0.36553 0.28954
# Poissons Ratio (y) = 0.23752 0.22296
# Poissons Ratio (z) = 0.29599 0.35078
#
# Static dielectric constant tensor:
#      x y z
#    x 1.700390 0.000000 0.002310 
#    y 0.000000 1.745640 0.000000 
#    z 0.002310 0.000000 1.716440 
# 
# From -- ./inp_files/191515.got.cif
#   From: 2010.05.17/outbox.cif.g08.bks.cpg/sg15_96_cif.got.tgz:191515.got - 2010.06.03 18:47:42.
