data_PCOD9267161
_publ_section_title
;
Structure prediction by ZEFSAII (Michael W. Deem and Ramdas Pophale) SiO2 
 PCOD9267161
Probable space group: C 2/C
;
_chemical_formula_sum "Si O2"
_cell_formula_units_Z 64
_cell_length_a 23.784317
_cell_length_b 7.356718
_cell_length_c 14.441569
_cell_angle_alpha 90.000000
_cell_angle_beta 104.285780
_cell_angle_gamma 90.000000
_cell_volume 2448.766981
_symmetry_space_group_name_H-M "C 2/C"
_symmetry_group_IT_number 15
_symmetry_cell_setting 'monoclinic'
loop_
_space_group_symop_operation_xyz
x,y,z
-x,y,1/2-z
-x,-y,-z
x,-y,1/2+z
1/2+x,1/2+y,z
1/2-x,1/2+y,1/2-z
1/2-x,1/2-y,-z
1/2+x,1/2-y,1/2+z
loop_
_atom_site_type_symbol
_atom_site_label
_atom_site_fract_x
_atom_site_fract_y
_atom_site_fract_z
Si Si1 0.867050 0.126334 0.530952
Si Si2 0.045601 0.662284 0.333819
Si Si3 0.701001 0.514103 0.831260
Si Si4 0.099979 0.767278 0.017450
Si Si5 0.232394 0.426258 0.801152
Si Si6 0.888475 0.499615 0.309486
Si Si7 0.491774 0.775379 0.352085
Si Si8 0.301397 0.994242 0.012348
O O1 0.927611 0.225499 0.573196
O O2 0.854074 0.022254 0.623903
O O3 0.822346 0.295204 0.502830
O O4 0.870766 0.964211 0.460272
O O5 0.094271 0.579549 0.284665
O O6 0.012706 0.486529 0.357469
O O7 0.000000 0.765353 0.250000
O O8 0.709932 0.421810 0.736470
O O9 0.712244 0.722434 0.810061
O O10 0.752369 0.445531 0.918827
O O11 0.037855 0.803176 0.942931
O O12 0.143262 0.637567 0.975052
O O13 0.094727 0.652485 0.108845
O O14 0.180471 0.517218 0.720604
O O15 0.229086 0.516608 0.900233
O O16 0.923690 0.312988 0.342519
O O17 0.500000 0.706166 0.250000
#
# Coordination Sequence:
#
# PCOD9267161 Si02
#       8
#     8   8   8   8   8   8   8   8
#     4  11  23  41  62  93 125 169 212 263 323 381
#     4   9  18  40  66  82 125 169 203 258 327 376
#     4  11  25  42  65  93 132 169 217 272 322 384
#     4  12  23  37  69  97 128 164 221 263 318 390
#     4  11  22  41  66  92 126 173 212 264 325 385
#     4  10  19  38  66  93 124 168 215 257 322 386
#     4   9  19  39  67  90 126 178 207 258 325 384
#     4  11  23  46  62  90 135 173 209 269 329 378
#
# _framework density 26.135601000000001
#
# number of rings (size 3 to 8) (size 9 to 14) (size 15 to 20)
#    0.000    1.750    5.000    2.625    1.750    3.000 
#    0.000    2.500    0.000    0.000    0.000    0.000 
#    0.000    0.000    0.000    0.000    0.000    0.000 
#
# Total GULP energy -178969.292530 kJ/mol
# GULP energy per Si atom -5592.790392 kJ/mol
# Density = 2.607612 g / cm^3
# Si number density = 26.135601 Si / 1000 Ang^3
#
#
#
# Elastic Constant Matrix: (Units=GPa)
#
#
# Indices 1 2 3 4 5 6 
#
# 1 41.9920 5.5396 2.9782 0.0000 23.9591 0.0000
# 2 5.5396 94.0985 11.6033 0.0000 6.8127 0.0000
# 3 2.9782 11.6033 87.9441 0.0000 13.5726 0.0000
# 4 0.0000 0.0000 0.0000 13.8058 0.0000 -5.1427
# 5 23.9591 6.8127 13.5726 0.0000 33.6150 0.0000
# 6 0.0000 0.0000 0.0000 -5.1427 0.0000 24.7716
#
#
#
# Elastic Compliance Matrix: (Units=1/GPa)
#
#
# Indices 1 2 3 4 5 6 
#
# 1 0.041068 -0.000628 0.003402 0.000000 -0.030517 0.000000
# 2 -0.000628 0.010907 -0.001222 0.000000 -0.001270 0.000000
# 3 0.003402 -0.001222 0.012534 0.000000 -0.007238 0.000000
# 4 0.000000 0.000000 0.000000 0.078504 0.000000 0.016298
# 5 -0.030517 -0.001270 -0.007238 0.000000 0.054679 0.000000
# 6 0.000000 0.000000 0.000000 0.016298 0.000000 0.043752
#
#
# Mechanical properties :
#
#
# Convention : Reuss Voigt Hill
#
# Bulk Modulus (GPa) = 14.79007 29.36409 22.07708
# Shear Modulus (GPa) = 19.16612 28.03273 23.59943
#
# Velocity S-wave (km/s) = 2.71095 3.27859 3.00819
# Velocity P-wave (km/s) = 3.93323 5.05884 4.53112
#
# Compressibility (1/GPa) = 0.06761292
#
# Stress axis : x y z
#
# Youngs Moduli (GPa) = 24.35007 91.68671 79.78378
#
# Poissons Ratio (x) = 0.05755 -0.27141
# Poissons Ratio (y) = 0.01528 0.09748
# Poissons Ratio (z) = -0.08284 0.11202
#
# Static dielectric constant tensor:
#      x y z
#    x 2.164170 0.000000 0.023420 
#    y 0.000000 2.033210 0.000000 
#    z 0.023420 0.000000 2.087880 
# 
# From -- ./inp_files/176622.got.cif
#   From: 2010.05.17/outbox.cif.g08.bks.cpg/sg15_89_cif.got.tgz:176622.got - 2010.06.03 18:47:42.
