data_PCOD9267656
_publ_section_title
;
Structure prediction by ZEFSAII (Michael W. Deem and Ramdas Pophale) SiO2 
 PCOD9267656
Probable space group: C 2/C
;
_chemical_formula_sum "Si O2"
_cell_formula_units_Z 48
_cell_length_a 13.149226
_cell_length_b 8.379626
_cell_length_c 27.568214
_cell_angle_alpha 90.000000
_cell_angle_beta 135.654372
_cell_angle_gamma 90.000000
_cell_volume 2123.250917
_symmetry_space_group_name_H-M "C 2/C"
_symmetry_group_IT_number 15
_symmetry_cell_setting 'monoclinic'
loop_
_space_group_symop_operation_xyz
x,y,z
-x,y,1/2-z
-x,-y,-z
x,-y,1/2+z
1/2+x,1/2+y,z
1/2-x,1/2+y,1/2-z
1/2-x,1/2-y,-z
1/2+x,1/2-y,1/2+z
loop_
_atom_site_type_symbol
_atom_site_label
_atom_site_fract_x
_atom_site_fract_y
_atom_site_fract_z
Si Si1 0.655315 0.174352 0.924466
Si Si2 0.062562 0.175154 0.716826
Si Si3 0.393995 0.402872 0.428547
Si Si4 0.835753 0.490474 0.718086
Si Si5 0.920242 0.177954 0.276089
Si Si6 0.905879 0.302797 0.573124
O O1 0.768750 0.169368 0.919037
O O2 0.524882 0.277179 0.857092
O O3 0.599921 0.994543 0.919255
O O4 0.750000 0.250000 0.000000
O O5 0.159208 0.333488 0.748111
O O6 0.000000 0.172720 0.750000
O O7 0.939726 0.211380 0.634932
O O8 0.131127 0.002100 0.733370
O O9 0.500000 0.500000 0.500000
O O10 0.301188 0.524260 0.363986
O O11 0.477635 0.269359 0.425526
O O12 0.822114 0.666596 0.735134
O O13 0.000000 0.494920 0.750000
O O14 0.000000 0.168593 0.250000
O O15 0.750000 0.250000 0.500000
#
# Coordination Sequence:
#
# PCOD9267656 Si02
#       6
#     8   8   8   8   8   8
#     4  12  24  46  73 105 156 199 251 334 388 459
#     4  10  21  40  73 106 138 199 249 305 383 465
#     4  12  26  46  75 113 151 205 263 315 399 483
#     4  10  19  44  74  98 147 194 240 319 384 447
#     4  10  19  39  73  97 141 196 244 304 391 447
#     4  12  25  45  74 108 152 205 257 317 400 467
#
# _framework density 22.606843999999999
#
# number of rings (size 3 to 8) (size 9 to 14) (size 15 to 20)
#    0.000    1.000    6.667    2.000    0.000    0.667 
#    3.000    1.667    0.000    0.000    0.000    0.000 
#    0.000    0.000    0.000    0.000    0.000    0.000 
#
# Total GULP energy -134026.049543 kJ/mol
# GULP energy per Si atom -5584.418731 kJ/mol
# Density = 2.255539 g / cm^3
# Si number density = 22.606844 Si / 1000 Ang^3
#
#
#
# Elastic Constant Matrix: (Units=GPa)
#
#
# Indices 1 2 3 4 5 6 
#
# 1 120.1752 61.2221 20.9498 0.0000 -6.7435 0.0000
# 2 61.2221 214.9335 53.0972 0.0000 -5.7903 0.0000
# 3 20.9498 53.0972 166.8008 0.0000 -12.2156 0.0000
# 4 0.0000 0.0000 0.0000 47.0148 0.0000 0.6096
# 5 -6.7435 -5.7903 -12.2156 0.0000 32.2052 0.0000
# 6 0.0000 0.0000 0.0000 0.6096 0.0000 45.2503
#
#
#
# Elastic Compliance Matrix: (Units=1/GPa)
#
#
# Indices 1 2 3 4 5 6 
#
# 1 0.009822 -0.002692 -0.000269 0.000000 0.001471 0.000000
# 2 -0.002692 0.005790 -0.001512 0.000000 -0.000096 0.000000
# 3 -0.000269 -0.001512 0.006672 0.000000 0.002202 0.000000
# 4 0.000000 0.000000 0.000000 0.021274 0.000000 -0.000287
# 5 0.001471 -0.000096 0.002202 0.000000 0.032177 0.000000
# 6 0.000000 0.000000 0.000000 -0.000287 0.000000 0.022103
#
#
# Mechanical properties :
#
#
# Convention : Reuss Voigt Hill
#
# Bulk Modulus (GPa) = 74.97376 85.82754 80.40065
# Shear Modulus (GPa) = 44.95228 49.33675 47.14451
#
# Velocity S-wave (km/s) = 4.46403 4.67666 4.57158
# Velocity P-wave (km/s) = 7.73345 8.19813 7.96918
#
# Compressibility (1/GPa) = 0.01333800
#
# Stress axis : x y z
#
# Youngs Moduli (GPa) = 101.81416 172.70395 149.88847
#
# Poissons Ratio (x) = 0.46485 0.04033
# Poissons Ratio (y) = 0.27404 0.22666
# Poissons Ratio (z) = 0.02740 0.26116
#
# Static dielectric constant tensor:
#      x y z
#    x 1.876920 0.000000 -0.099270 
#    y 0.000000 1.828440 0.000000 
#    z -0.099270 0.000000 2.456130 
# 
# From -- ./inp_files/312997.got.cif
#   From: 2010.05.17/outbox.cif.g08.bks.cpg/sg15_157_cif.got.tgz:312997.got - 2010.06.03 18:47:42.
