data_PCOD9267361
_publ_section_title
;
Structure prediction by ZEFSAII (Michael W. Deem and Ramdas Pophale) SiO2 
 PCOD9267361
Probable space group: C 2/C
;
_chemical_formula_sum "Si O2"
_cell_formula_units_Z 56
_cell_length_a 23.751290
_cell_length_b 8.880883
_cell_length_c 15.847287
_cell_angle_alpha 90.000000
_cell_angle_beta 56.587219
_cell_angle_gamma 90.000000
_cell_volume 2790.241020
_symmetry_space_group_name_H-M "C 2/C"
_symmetry_group_IT_number 15
_symmetry_cell_setting 'monoclinic'
loop_
_space_group_symop_operation_xyz
x,y,z
-x,y,1/2-z
-x,-y,-z
x,-y,1/2+z
1/2+x,1/2+y,z
1/2-x,1/2+y,1/2-z
1/2-x,1/2-y,-z
1/2+x,1/2-y,1/2+z
loop_
_atom_site_type_symbol
_atom_site_label
_atom_site_fract_x
_atom_site_fract_y
_atom_site_fract_z
Si Si1 0.833400 0.173371 0.461591
Si Si2 0.703891 0.136985 0.824037
Si Si3 0.512518 0.658875 0.143465
Si Si4 0.767461 0.847744 0.852176
Si Si5 0.049232 0.640354 0.952469
Si Si6 0.194686 0.841102 0.992941
Si Si7 0.460870 0.686580 0.862432
O O1 0.907767 0.180300 0.437220
O O2 0.832128 0.161878 0.360586
O O3 0.792780 0.313213 0.532486
O O4 0.795815 0.019667 0.519570
O O5 0.729621 0.216662 0.718765
O O6 0.626353 0.085460 0.877221
O O7 0.697886 0.267726 0.898739
O O8 0.751713 0.005003 0.819737
O O9 0.500000 0.711099 0.250000
O O10 0.470739 0.748148 0.107802
O O11 0.505172 0.477236 0.149327
O O12 0.039580 0.725511 0.049454
O O13 0.000000 0.500000 0.000000
O O14 0.250000 0.750000 0.000000
O O15 0.118871 0.827578 0.093045
O O16 0.500000 0.755165 0.750000
#
# Coordination Sequence:
#
# PCOD9267361 Si02
#       7
#     8   8   8   8   8   8   8
#     4  10  21  38  60  87 120 163 199 256 300 370
#     4  11  23  40  61  89 121 161 202 257 306 373
#     4  10  20  39  63  87 119 160 209 246 305 364
#     4  11  22  39  59  88 123 154 211 245 315 364
#     4  11  23  40  60  89 128 159 201 255 314 366
#     4  10  19  39  61  87 121 158 202 253 308 360
#     4   9  21  40  61  89 119 161 209 249 308 372
#
# _framework density 20.069952000000001
#
# number of rings (size 3 to 8) (size 9 to 14) (size 15 to 20)
#    0.000    1.714    1.429    3.000    0.000    0.571 
#    7.714    0.000    0.000    0.000    0.000    0.000 
#    0.000    0.000    0.000    0.000    0.000    0.000 
#
# Total GULP energy -156231.445660 kJ/mol
# GULP energy per Si atom -5579.694488 kJ/mol
# Density = 2.002427 g / cm^3
# Si number density = 20.069952 Si / 1000 Ang^3
#
#
#
# Elastic Constant Matrix: (Units=GPa)
#
#
# Indices 1 2 3 4 5 6 
#
# 1 64.7658 7.4898 17.6558 0.0000 13.0759 0.0000
# 2 7.4898 53.0409 21.4718 0.0000 8.7481 0.0000
# 3 17.6558 21.4718 94.1981 0.0000 14.5511 0.0000
# 4 0.0000 0.0000 0.0000 29.9366 0.0000 3.2087
# 5 13.0759 8.7481 14.5511 0.0000 21.0738 0.0000
# 6 0.0000 0.0000 0.0000 3.2087 0.0000 30.1949
#
#
#
# Elastic Compliance Matrix: (Units=1/GPa)
#
#
# Indices 1 2 3 4 5 6 
#
# 1 0.017933 -0.000185 -0.001805 0.000000 -0.009804 0.000000
# 2 -0.000185 0.021471 -0.003918 0.000000 -0.006093 0.000000
# 3 -0.001805 -0.003918 0.012787 0.000000 -0.006083 0.000000
# 4 0.000000 0.000000 0.000000 0.033789 0.000000 -0.003591
# 5 -0.009804 -0.006093 -0.006083 0.000000 0.060265 0.000000
# 6 0.000000 0.000000 0.000000 -0.003591 0.000000 0.033500
#
#
# Mechanical properties :
#
#
# Convention : Reuss Voigt Hill
#
# Bulk Modulus (GPa) = 24.76764 33.91551 29.34158
# Shear Modulus (GPa) = 24.38815 27.26689 25.82752
#
# Velocity S-wave (km/s) = 3.48969 3.68991 3.59120
# Velocity P-wave (km/s) = 5.34834 5.92362 5.64331
#
# Compressibility (1/GPa) = 0.04037527
#
# Stress axis : x y z
#
# Youngs Moduli (GPa) = 55.76314 46.57550 78.20464
#
# Poissons Ratio (x) = 0.00860 0.14113
# Poissons Ratio (y) = 0.01030 0.30643
# Poissons Ratio (z) = 0.10063 0.18250
#
# Static dielectric constant tensor:
#      x y z
#    x 1.749590 0.000000 0.006870 
#    y 0.000000 1.702780 0.000000 
#    z 0.006870 0.000000 1.726990 
# 
# From -- ./inp_files/172271.got.cif
#   From: 2010.05.17/outbox.cif.g08.bks.cpg/sg15_87_cif.got.tgz:172271.got - 2010.06.03 18:47:42.
