data_PCOD9267792
_publ_section_title
;
Structure prediction by ZEFSAII (Michael W. Deem and Ramdas Pophale) SiO2 
 PCOD9267792
Probable space group: C 2/C
;
_chemical_formula_sum "Si O2"
_cell_formula_units_Z 56
_cell_length_a 29.891312
_cell_length_b 9.266350
_cell_length_c 17.561126
_cell_angle_alpha 90.000000
_cell_angle_beta 28.126595
_cell_angle_gamma 90.000000
_cell_volume 2293.058984
_symmetry_space_group_name_H-M "C 2/C"
_symmetry_group_IT_number 15
_symmetry_cell_setting 'monoclinic'
loop_
_space_group_symop_operation_xyz
x,y,z
-x,y,1/2-z
-x,-y,-z
x,-y,1/2+z
1/2+x,1/2+y,z
1/2-x,1/2+y,1/2-z
1/2-x,1/2-y,-z
1/2+x,1/2-y,1/2+z
loop_
_atom_site_type_symbol
_atom_site_label
_atom_site_fract_x
_atom_site_fract_y
_atom_site_fract_z
Si Si1 0.614886 0.153538 0.665044
Si Si2 0.189120 0.511133 0.298850
Si Si3 0.000000 0.585420 0.250000
Si Si4 0.960594 0.246751 0.666014
Si Si5 0.223437 0.812891 0.696491
Si Si6 0.099801 0.060397 0.259138
Si Si7 0.500000 0.000000 0.000000
Si Si8 0.713606 0.073511 0.099358
O O1 0.574844 0.029515 0.670680
O O2 0.705816 0.208766 0.481592
O O3 0.564549 0.300475 0.764887
O O4 0.634493 0.060384 0.713586
O O5 0.209513 0.341205 0.257275
O O6 0.231063 0.577532 0.311765
O O7 0.077233 0.534081 0.455166
O O8 0.234148 0.591686 0.157043
O O9 0.983086 0.693317 0.345716
O O10 0.848083 0.297686 0.844800
O O11 0.986620 0.336048 0.552948
O O12 0.966867 0.077034 0.646446
O O13 0.132784 0.884850 0.792118
O O14 0.197886 0.994977 0.076032
#
# Coordination Sequence:
#
# PCOD9267792 Si02
#       8
#     8   8   4   8   8   8   4   8
#     4  10  19  40  65  88 126 172 215 274 338 399
#     4  11  22  41  65  92 135 172 225 272 341 404
#     4  10  22  40  60  90 126 176 216 262 350 398
#     4  10  22  38  63  90 128 170 216 265 331 408
#     4  11  23  39  64 100 127 172 226 281 332 406
#     4  11  20  39  66  95 123 164 227 280 326 381
#     4  10  24  44  62  86 138 184 198 268 354 406
#     4   9  18  38  63  88 122 162 207 269 330 389
#
# _framework density 24.421526
#
# number of rings (size 3 to 8) (size 9 to 14) (size 15 to 20)
#    0.000    1.714    2.857    2.143    4.000    0.571 
#    2.571    2.143    0.000    0.000    0.000    0.000 
#    0.000    0.000    0.000    0.000    0.000    0.000 
#
# Total GULP energy -155926.940228 kJ/mol
# GULP energy per Si atom -5568.819294 kJ/mol
# Density = 2.436594 g / cm^3
# Si number density = 24.421526 Si / 1000 Ang^3
#
#
#
# Elastic Constant Matrix: (Units=GPa)
#
#
# Indices 1 2 3 4 5 6 
#
# 1 142.0739 79.6580 18.5374 0.0000 22.5484 0.0000
# 2 79.6580 225.2346 8.9003 0.0000 11.8678 -0.0002
# 3 18.5374 8.9003 41.3455 0.0001 2.3557 -0.0001
# 4 0.0000 0.0000 0.0001 21.8084 -0.0001 -5.2860
# 5 22.5484 11.8678 2.3557 -0.0001 23.4560 0.0001
# 6 0.0000 -0.0002 -0.0001 -5.2860 0.0001 39.9080
#
#
#
# Elastic Compliance Matrix: (Units=1/GPa)
#
#
# Indices 1 2 3 4 5 6 
#
# 1 0.010589 -0.003170 -0.003597 0.000000 -0.008214 0.000000
# 2 -0.003170 0.005541 0.000216 0.000000 0.000222 0.000000
# 3 -0.003597 0.000216 0.025709 0.000000 0.000767 0.000000
# 4 0.000000 0.000000 0.000000 0.047375 0.000000 0.006275
# 5 -0.008214 0.000222 0.000767 0.000000 0.050340 0.000000
# 6 0.000000 0.000000 0.000000 0.006275 0.000000 0.025889
#
#
# Mechanical properties :
#
#
# Convention : Reuss Voigt Hill
#
# Bulk Modulus (GPa) = 34.79945 69.20505 52.00225
# Shear Modulus (GPa) = 26.57826 37.13835 31.85831
#
# Velocity S-wave (km/s) = 3.30254 3.90387 3.61573
# Velocity P-wave (km/s) = 5.36868 6.97994 6.22665
#
# Compressibility (1/GPa) = 0.02873608
#
# Stress axis : x y z
#
# Youngs Moduli (GPa) = 94.43810 180.48272 38.89680
#
# Poissons Ratio (x) = 0.57213 0.13992
# Poissons Ratio (y) = 0.29937 -0.00840
# Poissons Ratio (z) = 0.33971 -0.03897
#
# Static dielectric constant tensor:
#      x y z
#    x 1.915330 0.000000 -0.015100 
#    y 0.000000 1.915630 0.000000 
#    z -0.015100 0.000000 1.702350 
# 
# From -- ./inp_files/222040.got.cif
#   From: 2010.05.17/outbox.cif.g08.bks.cpg/sg15_112_cif.got.tgz:222040.got - 2010.06.03 18:47:42.
