data_PCOD9267781
_publ_section_title
;
Structure prediction by ZEFSAII (Michael W. Deem and Ramdas Pophale) SiO2 
 PCOD9267781
Probable space group: C 2/C
;
_chemical_formula_sum "Si O2"
_cell_formula_units_Z 60
_cell_length_a 20.953139
_cell_length_b 14.708133
_cell_length_c 26.410968
_cell_angle_alpha 90.000000
_cell_angle_beta 158.413192
_cell_angle_gamma 90.000000
_cell_volume 2994.560597
_symmetry_space_group_name_H-M "C 2/C"
_symmetry_group_IT_number 15
_symmetry_cell_setting 'monoclinic'
loop_
_space_group_symop_operation_xyz
x,y,z
-x,y,1/2-z
-x,-y,-z
x,-y,1/2+z
1/2+x,1/2+y,z
1/2-x,1/2+y,1/2-z
1/2-x,1/2-y,-z
1/2+x,1/2-y,1/2+z
loop_
_atom_site_type_symbol
_atom_site_label
_atom_site_fract_x
_atom_site_fract_y
_atom_site_fract_z
Si Si1 0.737288 0.760042 0.742539
Si Si2 0.166116 0.417304 0.513111
Si Si3 0.647103 0.259434 0.059686
Si Si4 0.104026 0.419103 0.274867
Si Si5 0.486747 0.091094 0.076448
Si Si6 0.500000 0.546899 0.750000
Si Si7 0.836389 0.179412 0.710263
Si Si8 0.075431 0.380780 0.749516
O O1 0.687227 0.738906 0.648625
O O2 0.670623 0.862379 0.704297
O O3 0.644817 0.693906 0.715577
O O4 0.942056 0.756424 0.900314
O O5 0.218924 0.330336 0.584502
O O6 0.332836 0.480042 0.622447
O O7 0.042367 0.392330 0.374717
O O8 0.039318 0.484845 0.450975
O O9 0.741536 0.348117 0.108057
O O10 0.170100 0.522035 0.312628
O O11 0.000000 0.421314 0.250000
O O12 0.444108 0.113936 0.104378
O O13 0.351623 0.139903 0.940601
O O14 0.464963 0.613909 0.772682
O O15 0.837088 0.282994 0.690677
O O16 0.000000 0.382602 0.750000
#
# Coordination Sequence:
#
# PCOD9267781 Si02
#       8
#     8   8   8   8   8   4   8   8
#     4  11  23  43  65 102 131 183 224 277 345 400
#     4  10  23  43  66  98 134 177 232 281 337 407
#     4  12  24  44  71  91 139 181 231 278 339 406
#     4  10  23  43  63  96 132 173 223 289 341 393
#     4   9  20  39  62  91 135 173 221 273 327 408
#     4  10  22  42  68 104 132 184 230 280 342 410
#     4  10  19  40  64  98 135 170 227 274 335 413
#     4   9  18  36  59  93 133 167 211 276 339 390
#
# _framework density 20.036328999999999
#
# number of rings (size 3 to 8) (size 9 to 14) (size 15 to 20)
#    0.000    1.867    3.333    0.000    0.933    2.667 
#   12.000    7.333    0.000    0.000    0.000    0.000 
#    0.000    0.000    0.000    0.000    0.000    0.000 
#
# Total GULP energy -167119.829650 kJ/mol
# GULP energy per Si atom -5570.660988 kJ/mol
# Density = 1.999073 g / cm^3
# Si number density = 20.036329 Si / 1000 Ang^3
#
#
#
# Elastic Constant Matrix: (Units=GPa)
#
#
# Indices 1 2 3 4 5 6 
#
# 1 64.0502 32.5175 14.7749 0.0010 -3.6575 0.0021
# 2 32.5175 110.3731 22.2699 -0.0007 4.0925 0.0075
# 3 14.7749 22.2699 57.2431 0.0073 4.8215 0.0140
# 4 0.0010 -0.0007 0.0073 22.1326 0.0007 -4.8414
# 5 -3.6575 4.0925 4.8215 0.0007 31.4886 0.0007
# 6 0.0021 0.0075 0.0140 -4.8414 0.0007 9.6628
#
#
#
# Elastic Compliance Matrix: (Units=1/GPa)
#
#
# Indices 1 2 3 4 5 6 
#
# 1 0.019149 -0.005114 -0.003238 0.000001 0.003385 0.000005
# 2 -0.005114 0.011213 -0.002907 0.000001 -0.001606 -0.000003
# 3 -0.003238 -0.002907 0.019690 -0.000013 -0.003013 -0.000032
# 4 0.000001 0.000001 -0.000013 0.050744 0.000000 0.025424
# 5 0.003385 -0.001606 -0.003013 0.000000 0.032821 0.000003
# 6 0.000005 -0.000003 -0.000032 0.025424 0.000003 0.116228
#
#
# Mechanical properties :
#
#
# Convention : Reuss Voigt Hill
#
# Bulk Modulus (GPa) = 36.31878 41.19900 38.75889
# Shear Modulus (GPa) = 17.75943 23.46375 20.61159
#
# Velocity S-wave (km/s) = 2.98041 3.42579 3.21083
# Velocity P-wave (km/s) = 5.47810 6.02120 5.75606
#
# Compressibility (1/GPa) = 0.02753396
#
# Stress axis : x y z
#
# Youngs Moduli (GPa) = 52.22151 89.18318 50.78737
#
# Poissons Ratio (x) = 0.45606 0.16446
# Poissons Ratio (y) = 0.26705 0.14764
# Poissons Ratio (z) = 0.16910 0.25926
#
# Static dielectric constant tensor:
#      x y z
#    x 1.755630 0.000000 0.002960 
#    y 0.000000 1.743510 0.000000 
#    z 0.002960 0.000000 1.699770 
# 
# From -- ./inp_files/301204.got.cif
#   From: 2010.05.17/outbox.cif.g08.bks.cpg/sg15_151_cif.got.tgz:301204.got - 2010.06.03 18:47:42.
