data_PCOD9267124
_publ_section_title
;
Structure prediction by ZEFSAII (Michael W. Deem and Ramdas Pophale) SiO2 
 PCOD9267124
Probable space group: C 2/C
;
_chemical_formula_sum "Si O2"
_cell_formula_units_Z 52
_cell_length_a 16.132337
_cell_length_b 9.332002
_cell_length_c 23.387252
_cell_angle_alpha 90.000000
_cell_angle_beta 42.835671
_cell_angle_gamma 90.000000
_cell_volume 2393.839628
_symmetry_space_group_name_H-M "C 2/C"
_symmetry_group_IT_number 15
_symmetry_cell_setting 'monoclinic'
loop_
_space_group_symop_operation_xyz
x,y,z
-x,y,1/2-z
-x,-y,-z
x,-y,1/2+z
1/2+x,1/2+y,z
1/2-x,1/2+y,1/2-z
1/2-x,1/2-y,-z
1/2+x,1/2-y,1/2+z
loop_
_atom_site_type_symbol
_atom_site_label
_atom_site_fract_x
_atom_site_fract_y
_atom_site_fract_z
Si Si1 0.500000 0.862318 0.750000
Si Si2 0.102769 0.275773 0.578585
Si Si3 0.047456 0.190088 0.354698
Si Si4 0.073541 0.447912 0.017645
Si Si5 0.567408 0.569403 0.912137
Si Si6 0.165720 0.624737 0.696597
Si Si7 0.317579 0.675539 0.412539
O O1 0.556083 0.775558 0.667934
O O2 0.606353 0.967962 0.720756
O O3 0.250000 0.250000 0.500000
O O4 0.074287 0.434001 0.567427
O O5 0.023545 0.170228 0.577845
O O6 0.118547 0.287289 0.274471
O O7 0.987820 0.300706 0.429746
O O8 0.936947 0.106571 0.378837
O O9 0.118570 0.063364 0.348790
O O10 0.217036 0.421482 0.933387
O O11 0.000000 0.500000 0.000000
O O12 0.688792 0.640027 0.874492
O O13 0.500000 0.500000 0.000000
O O14 0.132076 0.704598 0.655099
O O15 0.250000 0.750000 0.500000
#
# Coordination Sequence:
#
# PCOD9267124 Si02
#       7
#     4   8   8   8   8   8   8
#     4  12  24  48  72 102 148 196 236 298 370 432
#     4  12  26  49  73 107 148 194 238 300 370 429
#     4  11  23  43  65 100 132 183 233 284 351 425
#     4  11  22  41  72 101 137 179 238 293 353 418
#     4  12  27  46  71 103 143 185 239 298 363 430
#     4  12  23  43  71 100 141 184 235 300 355 421
#     4  10  19  38  65  95 129 176 232 277 340 425
#
# _framework density 21.722424
#
# number of rings (size 3 to 8) (size 9 to 14) (size 15 to 20)
#    0.000    0.615    3.077    6.462    2.154    1.231 
#    5.538    0.000    0.000    0.000    0.000    0.000 
#    0.000    0.000    0.000    0.000    0.000    0.000 
#
# Total GULP energy -145244.515850 kJ/mol
# GULP energy per Si atom -5586.327533 kJ/mol
# Density = 2.167298 g / cm^3
# Si number density = 21.722424 Si / 1000 Ang^3
#
#
#
# Elastic Constant Matrix: (Units=GPa)
#
#
# Indices 1 2 3 4 5 6 
#
# 1 99.4347 18.3907 24.7219 0.0000 -5.4535 0.0000
# 2 18.3907 67.9215 7.8326 0.0000 6.5689 0.0000
# 3 24.7219 7.8326 108.6096 0.0000 7.8175 0.0000
# 4 0.0000 0.0000 0.0000 38.3580 0.0000 5.6609
# 5 -5.4535 6.5689 7.8175 0.0000 32.5105 0.0000
# 6 0.0000 0.0000 0.0000 5.6609 0.0000 40.1536
#
#
#
# Elastic Compliance Matrix: (Units=1/GPa)
#
#
# Indices 1 2 3 4 5 6 
#
# 1 0.011455 -0.003108 -0.002612 0.000000 0.003178 0.000000
# 2 -0.003108 0.015943 -0.000176 0.000000 -0.003700 0.000000
# 3 -0.002612 -0.000176 0.010017 0.000000 -0.002811 0.000000
# 4 0.000000 0.000000 0.000000 0.026624 0.000000 -0.003753
# 5 0.003178 -0.003700 -0.002811 0.000000 0.032716 0.000000
# 6 0.000000 0.000000 0.000000 -0.003753 0.000000 0.025434
#
#
# Mechanical properties :
#
#
# Convention : Reuss Voigt Hill
#
# Bulk Modulus (GPa) = 39.02740 41.98403 40.50571
# Shear Modulus (GPa) = 35.08252 37.20580 36.14416
#
# Velocity S-wave (km/s) = 4.02311 4.14307 4.08353
# Velocity P-wave (km/s) = 6.29174 6.50047 6.39696
#
# Compressibility (1/GPa) = 0.02562303
#
# Stress axis : x y z
#
# Youngs Moduli (GPa) = 87.29536 62.72537 99.83132
#
# Poissons Ratio (x) = 0.19494 0.26077
# Poissons Ratio (y) = 0.27130 0.01757
# Poissons Ratio (z) = 0.22802 0.01104
#
# Static dielectric constant tensor:
#      x y z
#    x 1.781610 0.000000 -0.013410 
#    y 0.000000 1.775990 0.000000 
#    z -0.013410 0.000000 1.785610 
# 
# From -- ./inp_files/243631.got.cif
#   From: 2010.05.17/outbox.cif.g08.bks.cpg/sg15_122_cif.got.tgz:243631.got - 2010.06.03 18:47:42.
