data_PCOD9267105
_publ_section_title
;
Structure prediction by ZEFSAII (Michael W. Deem and Ramdas Pophale) SiO2 
 PCOD9267105
Probable space group: C 2/C
;
_chemical_formula_sum "Si O2"
_cell_formula_units_Z 56
_cell_length_a 12.077631
_cell_length_b 12.801880
_cell_length_c 19.006532
_cell_angle_alpha 90.000000
_cell_angle_beta 53.467708
_cell_angle_gamma 90.000000
_cell_volume 2361.325658
_symmetry_space_group_name_H-M "C 2/C"
_symmetry_group_IT_number 15
_symmetry_cell_setting 'monoclinic'
loop_
_space_group_symop_operation_xyz
x,y,z
-x,y,1/2-z
-x,-y,-z
x,-y,1/2+z
1/2+x,1/2+y,z
1/2-x,1/2+y,1/2-z
1/2-x,1/2-y,-z
1/2+x,1/2-y,1/2+z
loop_
_atom_site_type_symbol
_atom_site_label
_atom_site_fract_x
_atom_site_fract_y
_atom_site_fract_z
Si Si1 0.134601 0.672715 0.513635
Si Si2 0.159259 0.719372 0.897587
Si Si3 0.439935 0.551986 0.913030
Si Si4 0.240553 0.988040 0.642619
Si Si5 0.058408 0.264790 0.647706
Si Si6 0.149283 0.519200 0.103230
Si Si7 0.795719 0.927358 0.684379
O O1 0.250000 0.750000 0.500000
O O2 0.186551 0.601084 0.430272
O O3 0.101011 0.590272 0.589497
O O4 0.002850 0.735368 0.535780
O O5 0.176063 0.596045 0.884575
O O6 0.275507 0.747119 0.910657
O O7 0.202665 0.801888 0.821440
O O8 0.394628 0.515159 0.852029
O O9 0.492736 0.670504 0.881465
O O10 0.559710 0.477572 0.895116
O O11 0.298639 0.541363 0.010303
O O12 0.217254 0.956504 0.730553
O O13 0.047474 0.383590 0.625165
O O14 0.000000 0.254807 0.750000
O O15 0.180810 0.527319 0.174539
#
# Coordination Sequence:
#
# PCOD9267105 Si02
#       7
#     8   8   8   8   8   8   8
#     4  11  24  44  67  93 128 171 218 265 324 395
#     4  10  22  41  65  93 127 169 214 264 329 392
#     4  10  19  38  65  92 127 170 217 266 319 387
#     4  10  22  40  63  94 127 169 215 269 326 386
#     4  10  21  40  64  93 125 165 216 270 324 384
#     4  10  23  39  59  93 129 166 210 265 325 391
#     4  11  22  40  65  98 131 168 218 269 321 383
#
# _framework density 23.715492000000001
#
# number of rings (size 3 to 8) (size 9 to 14) (size 15 to 20)
#    0.000    1.714    0.000    5.143    0.000    5.714 
#    0.000    8.571    0.000    0.000    0.000    0.000 
#    0.000    0.000    0.000    0.000    0.000    0.000 
#
# Total GULP energy -156503.074639 kJ/mol
# GULP energy per Si atom -5589.395523 kJ/mol
# Density = 2.366151 g / cm^3
# Si number density = 23.715492 Si / 1000 Ang^3
#
#
#
# Elastic Constant Matrix: (Units=GPa)
#
#
# Indices 1 2 3 4 5 6 
#
# 1 96.8288 33.6864 28.8168 0.0000 -1.5427 0.0000
# 2 33.6864 108.7738 17.2433 0.0000 9.0229 0.0000
# 3 28.8168 17.2433 82.3983 0.0000 28.6639 0.0000
# 4 0.0000 0.0000 0.0000 31.1321 0.0000 -6.0542
# 5 -1.5427 9.0229 28.6639 0.0000 34.2820 0.0000
# 6 0.0000 0.0000 0.0000 -6.0542 0.0000 16.7229
#
#
#
# Elastic Compliance Matrix: (Units=1/GPa)
#
#
# Indices 1 2 3 4 5 6 
#
# 1 0.013667 -0.003795 -0.006412 0.000000 0.006975 0.000000
# 2 -0.003795 0.010597 0.000196 0.000000 -0.003124 0.000000
# 3 -0.006412 0.000196 0.020385 0.000000 -0.017385 0.000000
# 4 0.000000 0.000000 0.000000 0.034554 0.000000 0.012510
# 5 0.006975 -0.003124 -0.017385 0.000000 0.044842 0.000000
# 6 0.000000 0.000000 0.000000 0.012510 0.000000 0.064327
#
#
# Mechanical properties :
#
#
# Convention : Reuss Voigt Hill
#
# Bulk Modulus (GPa) = 40.60429 49.72153 45.16291
# Shear Modulus (GPa) = 23.08385 30.31102 26.69743
#
# Velocity S-wave (km/s) = 3.12327 3.57895 3.35884
# Velocity P-wave (km/s) = 5.49227 6.17170 5.84187
#
# Compressibility (1/GPa) = 0.02462794
#
# Stress axis : x y z
#
# Youngs Moduli (GPa) = 73.16869 94.36991 49.05540
#
# Poissons Ratio (x) = 0.35811 0.31454
# Poissons Ratio (y) = 0.27765 -0.00963
# Poissons Ratio (z) = 0.46916 -0.01852
#
# Static dielectric constant tensor:
#      x y z
#    x 1.742060 0.000000 -0.262920 
#    y 0.000000 1.950580 0.000000 
#    z -0.262920 0.000000 1.645430 
# 
# From -- ./inp_files/198212.got.cif
#   From: 2010.05.17/outbox.cif.g08.bks.cpg/sg15_100_cif.got.tgz:198212.got - 2010.06.03 18:47:42.
