data_PCOD9267437
_publ_section_title
;
Structure prediction by ZEFSAII (Michael W. Deem and Ramdas Pophale) SiO2 
 PCOD9267437
Probable space group: C 2/C
;
_chemical_formula_sum "Si O2"
_cell_formula_units_Z 52
_cell_length_a 20.641009
_cell_length_b 14.073940
_cell_length_c 8.682953
_cell_angle_alpha 90.000000
_cell_angle_beta 64.909796
_cell_angle_gamma 90.000000
_cell_volume 2284.390229
_symmetry_space_group_name_H-M "C 2/C"
_symmetry_group_IT_number 15
_symmetry_cell_setting 'monoclinic'
loop_
_space_group_symop_operation_xyz
x,y,z
-x,y,1/2-z
-x,-y,-z
x,-y,1/2+z
1/2+x,1/2+y,z
1/2-x,1/2+y,1/2-z
1/2-x,1/2-y,-z
1/2+x,1/2-y,1/2+z
loop_
_atom_site_type_symbol
_atom_site_label
_atom_site_fract_x
_atom_site_fract_y
_atom_site_fract_z
Si Si1 0.595307 0.616033 0.112175
Si Si2 0.719310 0.678453 0.161998
Si Si3 0.922215 0.263752 0.126325
Si Si4 0.650076 0.894777 0.772521
Si Si5 0.500000 0.549350 0.750000
Si Si6 0.065769 0.222380 0.842617
Si Si7 0.579350 0.049436 0.659794
O O1 0.673542 0.602041 0.108003
O O2 0.557191 0.670277 0.293388
O O3 0.553057 0.522149 0.107432
O O4 0.598618 0.693824 0.975301
O O5 0.660413 0.738045 0.320222
O O6 0.776284 0.630430 0.216476
O O7 0.750000 0.750000 0.000000
O O8 0.923776 0.356996 0.230018
O O9 0.985983 0.266341 0.940724
O O10 0.619098 0.800244 0.724015
O O11 0.640678 0.980356 0.662888
O O12 0.597287 0.921598 0.967957
O O13 0.553916 0.621366 0.776897
O O14 0.500000 0.004835 0.750000
#
# Coordination Sequence:
#
# PCOD9267437 Si02
#       7
#     8   8   8   8   4   8   8
#     4  10  19  39  63  89 121 160 209 251 316 376
#     4  10  19  41  65  91 120 170 213 249 319 389
#     4  10  20  39  68  87 122 165 213 257 316 379
#     4  12  25  42  66  96 132 172 216 265 321 385
#     4  12  26  36  62 108 120 162 218 270 318 382
#     4  12  22  41  66  90 134 163 212 271 318 376
#     4  12  23  41  68  97 123 170 226 265 315 380
#
# _framework density 22.763186000000001
#
# number of rings (size 3 to 8) (size 9 to 14) (size 15 to 20)
#    0.923    0.000    7.692    0.923    1.077    0.000 
#    8.308    0.000    0.000    1.846    0.000    0.000 
#    0.000    0.000    0.000    0.000    0.000    0.000 
#
# Total GULP energy -144973.155685 kJ/mol
# GULP energy per Si atom -5575.890603 kJ/mol
# Density = 2.271138 g / cm^3
# Si number density = 22.763186 Si / 1000 Ang^3
#
#
#
# Elastic Constant Matrix: (Units=GPa)
#
#
# Indices 1 2 3 4 5 6 
#
# 1 147.7895 35.8898 1.1888 0.0000 -1.4608 0.0000
# 2 35.8898 111.3189 10.9952 0.0000 9.8821 0.0000
# 3 1.1888 10.9952 28.8487 0.0000 0.3043 0.0000
# 4 0.0000 0.0000 0.0000 15.5662 0.0000 13.5144
# 5 -1.4608 9.8821 0.3043 0.0000 20.8251 0.0000
# 6 0.0000 0.0000 0.0000 13.5144 0.0000 50.6729
#
#
#
# Elastic Compliance Matrix: (Units=1/GPa)
#
#
# Indices 1 2 3 4 5 6 
#
# 1 0.007412 -0.002611 0.000671 0.000000 0.001749 0.000000
# 2 -0.002611 0.010672 -0.003905 0.000000 -0.005190 0.000000
# 3 0.000671 -0.003905 0.036110 0.000000 0.001373 0.000000
# 4 0.000000 0.000000 0.000000 0.083599 0.000000 -0.022296
# 5 0.001749 -0.005190 0.001373 0.000000 0.050584 0.000000
# 6 0.000000 0.000000 0.000000 -0.022296 0.000000 0.025681
#
#
# Mechanical properties :
#
#
# Convention : Reuss Voigt Hill
#
# Bulk Modulus (GPa) = 23.52727 42.67830 33.10279
# Shear Modulus (GPa) = 20.84067 33.40505 27.12286
#
# Velocity S-wave (km/s) = 3.02908 3.83496 3.45559
# Velocity P-wave (km/s) = 4.75309 6.19667 5.52225
#
# Compressibility (1/GPa) = 0.04250387
#
# Stress axis : x y z
#
# Youngs Moduli (GPa) = 134.90835 93.70696 27.69333
#
# Poissons Ratio (x) = 0.24471 -0.01859
# Poissons Ratio (y) = 0.35230 0.10814
# Poissons Ratio (z) = -0.09058 0.36592
#
# Static dielectric constant tensor:
#      x y z
#    x 1.920840 0.000000 0.003370 
#    y 0.000000 1.816990 0.000000 
#    z 0.003370 0.000000 1.899170 
# 
# From -- ./inp_files/110944.got.cif
#   From: 2010.05.17/outbox.cif.g08.bks.cpg/sg15_56_cif.got.tgz:110944.got - 2010.06.03 18:47:42.
