data_PCOD9267421
_publ_section_title
;
Structure prediction by ZEFSAII (Michael W. Deem and Ramdas Pophale) SiO2 
 PCOD9267421
Probable space group: C 2/C
;
_chemical_formula_sum "Si O2"
_cell_formula_units_Z 48
_cell_length_a 12.149223
_cell_length_b 20.422841
_cell_length_c 15.474220
_cell_angle_alpha 90.000000
_cell_angle_beta 31.231198
_cell_angle_gamma 90.000000
_cell_volume 1990.746957
_symmetry_space_group_name_H-M "C 2/C"
_symmetry_group_IT_number 15
_symmetry_cell_setting 'monoclinic'
loop_
_space_group_symop_operation_xyz
x,y,z
-x,y,1/2-z
-x,-y,-z
x,-y,1/2+z
1/2+x,1/2+y,z
1/2-x,1/2+y,1/2-z
1/2-x,1/2-y,-z
1/2+x,1/2-y,1/2+z
loop_
_atom_site_type_symbol
_atom_site_label
_atom_site_fract_x
_atom_site_fract_y
_atom_site_fract_z
Si Si1 0.241701 0.568413 0.125551
Si Si2 0.125796 0.702376 0.253664
Si Si3 0.613131 0.168371 0.910939
Si Si4 0.618797 0.032517 0.841247
Si Si5 0.787742 0.177371 0.445225
Si Si6 0.667494 0.542483 0.057689
O O1 0.286298 0.643326 0.120515
O O2 0.251919 0.523234 0.203896
O O3 0.000000 0.574084 0.250000
O O4 0.361789 0.524075 0.975225
O O5 0.000000 0.719421 0.250000
O O6 0.969324 0.675269 0.434351
O O7 0.246437 0.767757 0.202556
O O8 0.403215 0.165465 0.993263
O O9 0.718420 0.099487 0.811381
O O10 0.417864 0.042438 0.913039
O O11 0.500000 0.000000 0.000000
O O12 0.750000 0.250000 0.500000
O O13 0.833044 0.116736 0.480551
O O14 0.000000 0.179806 0.250000
O O15 0.500000 0.541693 0.250000
#
# Coordination Sequence:
#
# PCOD9267421 Si02
#       6
#     8   8   8   8   8   8
#     4   9  19  38  65  89 122 166 211 256 319 384
#     4  11  23  42  61  92 132 172 214 264 310 385
#     4  11  23  40  65  94 127 167 217 260 324 385
#     4  10  19  39  63  85 119 162 204 258 312 375
#     4  10  21  38  65  91 126 160 201 270 326 381
#     4   9  20  38  61  91 119 153 207 262 318 377
#
# _framework density 24.111553000000001
#
# number of rings (size 3 to 8) (size 9 to 14) (size 15 to 20)
#    0.000    2.000    1.667    1.500    0.000    4.667 
#    3.000    0.833    0.000    0.000    0.000    0.000 
#    0.000    0.000    0.000    0.000    0.000    0.000 
#
# Total GULP energy -133795.070910 kJ/mol
# GULP energy per Si atom -5574.794621 kJ/mol
# Density = 2.405667 g / cm^3
# Si number density = 24.111553 Si / 1000 Ang^3
#
#
#
# Elastic Constant Matrix: (Units=GPa)
#
#
# Indices 1 2 3 4 5 6 
#
# 1 56.3195 12.6403 2.8767 0.0696 -11.3516 -0.0207
# 2 12.6403 222.6138 38.9956 0.0704 -0.4628 -0.0222
# 3 2.8767 38.9956 35.2286 0.0893 3.9602 -0.0246
# 4 0.0696 0.0704 0.0893 59.1966 -0.0399 -0.1744
# 5 -11.3516 -0.4628 3.9602 -0.0399 34.6811 0.0191
# 6 -0.0207 -0.0222 -0.0246 -0.1744 0.0191 31.6117
#
#
#
# Elastic Compliance Matrix: (Units=1/GPa)
#
#
# Indices 1 2 3 4 5 6 
#
# 1 0.019319 -0.000843 -0.001371 -0.000015 0.006469 0.000007
# 2 -0.000843 0.005631 -0.006221 0.000004 0.000510 -0.000002
# 3 -0.001371 -0.006221 0.035906 -0.000048 -0.004632 0.000025
# 4 -0.000015 0.000004 -0.000048 0.016893 0.000020 0.000093
# 5 0.006469 0.000510 -0.004632 0.000020 0.031487 -0.000018
# 6 0.000007 -0.000002 0.000025 0.000093 -0.000018 0.031634
#
#
# Mechanical properties :
#
#
# Convention : Reuss Voigt Hill
#
# Bulk Modulus (GPa) = 22.73577 47.02078 34.87828
# Shear Modulus (GPa) = 29.00180 42.40784 35.70482
#
# Velocity S-wave (km/s) = 3.47193 4.19838 3.85231
# Velocity P-wave (km/s) = 5.05196 6.56091 5.85524
#
# Compressibility (1/GPa) = 0.04398356
#
# Stress axis : x y z
#
# Youngs Moduli (GPa) = 51.76263 177.59356 27.85087
#
# Poissons Ratio (x) = 0.14977 0.03819
# Poissons Ratio (y) = 0.04365 0.17327
# Poissons Ratio (z) = 0.07098 1.10488
#
# Static dielectric constant tensor:
#      x y z
#    x 1.994560 0.000000 -0.008650 
#    y 0.000000 2.092080 0.000030 
#    z -0.008650 0.000030 1.915790 
# 
# From -- ./inp_files/147347.got.cif
#   From: 2010.05.17/outbox.cif.g08.bks.cpg/sg15_74_cif.got.tgz:147347.got - 2010.06.03 18:47:42.
