data_PCOD9267281
_publ_section_title
;
Structure prediction by ZEFSAII (Michael W. Deem and Ramdas Pophale) SiO2 
 PCOD9267281
Probable space group: C 2/C
;
_chemical_formula_sum "Si O2"
_cell_formula_units_Z 48
_cell_length_a 17.562237
_cell_length_b 15.171913
_cell_length_c 16.602499
_cell_angle_alpha 90.000000
_cell_angle_beta 33.640462
_cell_angle_gamma 90.000000
_cell_volume 2450.684619
_symmetry_space_group_name_H-M "C 2/C"
_symmetry_group_IT_number 15
_symmetry_cell_setting 'monoclinic'
loop_
_space_group_symop_operation_xyz
x,y,z
-x,y,1/2-z
-x,-y,-z
x,-y,1/2+z
1/2+x,1/2+y,z
1/2-x,1/2+y,1/2-z
1/2-x,1/2-y,-z
1/2+x,1/2-y,1/2+z
loop_
_atom_site_type_symbol
_atom_site_label
_atom_site_fract_x
_atom_site_fract_y
_atom_site_fract_z
Si Si1 0.500000 0.078665 0.750000
Si Si2 0.000000 0.025007 0.750000
Si Si3 0.737853 0.356803 0.692446
Si Si4 0.986199 0.601784 0.481820
Si Si5 0.793334 0.472533 0.028499
Si Si6 0.178644 0.333967 0.224346
Si Si7 0.960061 0.935795 0.961264
O O1 0.442976 0.138049 0.728454
O O2 0.372595 0.017039 0.885364
O O3 0.146319 0.070104 0.638963
O O4 0.969302 0.972556 0.860991
O O5 0.763234 0.441986 0.613012
O O6 0.739340 0.261704 0.649744
O O7 0.582080 0.364678 0.859764
O O8 0.859298 0.361240 0.651291
O O9 0.901420 0.592192 0.474982
O O10 0.891850 0.656112 0.626621
O O11 0.000000 0.500000 0.500000
O O12 0.307717 0.399677 0.108184
O O13 0.000000 0.000000 0.000000
#
# Coordination Sequence:
#
# PCOD9267281 Si02
#       7
#     4   4   8   8   8   8   8
#     4  12  22  33  58  86 119 160 186 226 302 361
#     4  10  20  37  54  88 113 148 196 242 300 329
#     4  10  22  36  55  83 117 157 187 239 293 348
#     4  10  19  39  58  76 113 156 201 237 271 344
#     4  10  21  37  57  81 117 150 199 233 283 350
#     4  12  22  36  55  87 119 151 195 233 302 358
#     4  11  23  37  56  84 118 154 199 246 288 352
#
# _framework density 19.586364
#
# number of rings (size 3 to 8) (size 9 to 14) (size 15 to 20)
#    0.000    1.333    5.000    4.000    0.000    3.333 
#    0.000    0.000    0.000    0.000    0.000   30.333 
#    0.000    0.000    0.000    0.000    0.000    0.000 
#
# Total GULP energy -133647.062152 kJ/mol
# GULP energy per Si atom -5568.627590 kJ/mol
# Density = 1.954178 g / cm^3
# Si number density = 19.586364 Si / 1000 Ang^3
#
#
#
# Elastic Constant Matrix: (Units=GPa)
#
#
# Indices 1 2 3 4 5 6 
#
# 1 89.6028 5.6109 23.3703 0.0000 -17.3829 0.0000
# 2 5.6109 7.5081 7.5780 0.0000 11.0906 0.0001
# 3 23.3703 7.5780 43.7715 -0.0002 -31.3324 -0.0006
# 4 0.0000 0.0000 -0.0002 17.7473 0.0001 -8.4248
# 5 -17.3829 11.0906 -31.3324 0.0001 40.2375 0.0001
# 6 0.0000 0.0001 -0.0006 -8.4248 0.0001 -9.5710
#
#
#
# Elastic Compliance Matrix: (Units=1/GPa)
#
#
# Indices 1 2 3 4 5 6 
#
# 1 0.012884 0.003068 -0.009108 0.000000 -0.002372 0.000000
# 2 0.003068 -0.108934 0.089612 -0.000002 0.101130 -0.000004
# 3 -0.009108 0.089612 -0.018758 0.000001 -0.043241 0.000001
# 4 0.000000 -0.000002 0.000001 0.039741 0.000001 -0.034981
# 5 -0.002372 0.101130 -0.043241 0.000001 -0.037718 0.000003
# 6 0.000000 -0.000004 0.000001 -0.034981 0.000003 -0.073690
#
#
# Mechanical properties :
#
#
# Convention : Reuss Voigt Hill
#
# Bulk Modulus (GPa) = 19.10723 23.77787 21.44255
# Shear Modulus (GPa) = -14.87321 16.63764 0.88221
#
# Velocity S-wave (km/s) = -2.75865 2.91769 0.67186
# Velocity P-wave (km/s) = 0.60852 4.84943 3.40196
#
# Compressibility (1/GPa) = 0.05233620
#
# Stress axis : x y z
#
# Youngs Moduli (GPa) = 77.61799 -9.17987 -53.31008
#
# Poissons Ratio (x) = 0.02816 -0.48553
# Poissons Ratio (y) = -0.23812 4.77723
# Poissons Ratio (z) = 0.70692 0.82263
#
# Static dielectric constant tensor:
#      x y z
#    x 1.700110 0.000000 0.039190 
#    y 0.000000 1.708760 0.000000 
#    z 0.039190 0.000000 1.729140 
# 
# From -- ./inp_files/211343.got.cif
#   From: 2010.05.17/outbox.cif.g08.bks.cpg/sg15_106_cif.got.tgz:211343.got - 2010.06.03 18:47:42.
