data_PCOD9267264
_publ_section_title
;
Structure prediction by ZEFSAII (Michael W. Deem and Ramdas Pophale) SiO2 
 PCOD9267264
Probable space group: C 2/C
;
_chemical_formula_sum "Si O2"
_cell_formula_units_Z 32
_cell_length_a 9.286754
_cell_length_b 15.800946
_cell_length_c 8.242521
_cell_angle_alpha 90.000000
_cell_angle_beta 94.284591
_cell_angle_gamma 90.000000
_cell_volume 1206.123153
_symmetry_space_group_name_H-M "C 2/C"
_symmetry_group_IT_number 15
_symmetry_cell_setting 'monoclinic'
loop_
_space_group_symop_operation_xyz
x,y,z
-x,y,1/2-z
-x,-y,-z
x,-y,1/2+z
1/2+x,1/2+y,z
1/2-x,1/2+y,1/2-z
1/2-x,1/2-y,-z
1/2+x,1/2-y,1/2+z
loop_
_atom_site_type_symbol
_atom_site_label
_atom_site_fract_x
_atom_site_fract_y
_atom_site_fract_z
Si Si1 0.113017 0.089998 0.409240
Si Si2 0.500000 0.952386 0.250000
Si Si3 0.500000 0.358462 0.250000
Si Si4 0.697382 0.932154 0.999511
Si Si5 0.330965 0.196961 0.247554
O O1 0.237122 0.162043 0.390311
O O2 0.000000 0.092770 0.250000
O O3 0.040134 0.099009 0.580586
O O4 0.804638 0.000022 0.587677
O O5 0.410978 0.900638 0.372093
O O6 0.391017 0.009309 0.135461
O O7 0.360804 0.295551 0.226325
O O8 0.747924 0.851871 0.903889
O O9 0.500000 0.166849 0.250000
#
# Coordination Sequence:
#
# PCOD9267264 Si02
#       5
#     8   4   4   8   8
#     4  12  27  48  75 119 164 199 248 322 404 467
#     4  10  19  38  74 110 141 196 256 334 361 432
#     4  10  27  54  76 104 161 216 252 310 393 466
#     4  11  20  43  73 117 148 191 269 329 367 450
#     4  10  22  49  81 107 147 200 277 309 370 460
#
# _framework density 26.531286999999999
#
# number of rings (size 3 to 8) (size 9 to 14) (size 15 to 20)
#    0.750    0.500    3.750    2.250    0.000    4.000 
#    4.500    0.000    0.000    0.000    0.000    0.000 
#    0.000    0.000    0.000    0.000    0.000    0.000 
#
# Total GULP energy -89359.314817 kJ/mol
# GULP energy per Si atom -5584.957176 kJ/mol
# Density = 2.647090 g / cm^3
# Si number density = 26.531287 Si / 1000 Ang^3
#
#
#
# Elastic Constant Matrix: (Units=GPa)
#
#
# Indices 1 2 3 4 5 6 
#
# 1 139.4397 18.1481 71.2114 0.0000 4.7627 0.0000
# 2 18.1481 22.7914 27.4434 0.0000 -10.5448 0.0000
# 3 71.2114 27.4434 205.4811 0.0000 -48.0386 0.0000
# 4 0.0000 0.0000 0.0000 32.9694 0.0000 -6.7486
# 5 4.7627 -10.5448 -48.0386 0.0000 61.4043 0.0000
# 6 0.0000 0.0000 0.0000 -6.7486 0.0000 40.3261
#
#
#
# Elastic Compliance Matrix: (Units=1/GPa)
#
#
# Indices 1 2 3 4 5 6 
#
# 1 0.010013 -0.005543 -0.003836 0.000000 -0.004729 0.000000
# 2 -0.005543 0.056298 -0.003962 0.000000 0.006998 0.000000
# 3 -0.003836 -0.003962 0.008121 0.000000 0.005970 0.000000
# 4 0.000000 0.000000 0.000000 0.031407 0.000000 0.005256
# 5 -0.004729 0.006998 0.005970 0.000000 0.022525 0.000000
# 6 0.000000 0.000000 0.000000 0.005256 0.000000 0.025677
#
#
# Mechanical properties :
#
#
# Convention : Reuss Voigt Hill
#
# Bulk Modulus (GPa) = 20.94173 66.81313 43.87743
# Shear Modulus (GPa) = 25.42721 43.66723 34.54722
#
# Velocity S-wave (km/s) = 3.09914 4.06134 3.61242
# Velocity P-wave (km/s) = 4.55155 6.87242 5.82867
#
# Compressibility (1/GPa) = 0.04775155
#
# Stress axis : x y z
#
# Youngs Moduli (GPa) = 99.86725 17.76252 123.14082
#
# Poissons Ratio (x) = 0.09846 0.47231
# Poissons Ratio (y) = 0.55356 0.48788
# Poissons Ratio (z) = 0.38304 0.07037
#
# Static dielectric constant tensor:
#      x y z
#    x 2.197880 0.000000 0.024860 
#    y 0.000000 2.055840 0.000000 
#    z 0.024860 0.000000 2.091870 
# 
# From -- ./inp_files/22173.got.cif
#   From: 2010.05.17/outbox.cif.g08.bks.cpg/sg15_12_cif.got.tgz:22173.got - 2010.06.03 18:47:42.
