data_PCOD9267857
_publ_section_title
;
Structure prediction by ZEFSAII (Michael W. Deem and Ramdas Pophale) SiO2 
 PCOD9267857
Probable space group: C 2/C
;
_chemical_formula_sum "Si O2"
_cell_formula_units_Z 56
_cell_length_a 12.005450
_cell_length_b 11.377749
_cell_length_c 17.972999
_cell_angle_alpha 90.000000
_cell_angle_beta 98.025914
_cell_angle_gamma 90.000000
_cell_volume 2430.974855
_symmetry_space_group_name_H-M "C 2/C"
_symmetry_group_IT_number 15
_symmetry_cell_setting 'monoclinic'
loop_
_space_group_symop_operation_xyz
x,y,z
-x,y,1/2-z
-x,-y,-z
x,-y,1/2+z
1/2+x,1/2+y,z
1/2-x,1/2+y,1/2-z
1/2-x,1/2-y,-z
1/2+x,1/2-y,1/2+z
loop_
_atom_site_type_symbol
_atom_site_label
_atom_site_fract_x
_atom_site_fract_y
_atom_site_fract_z
Si Si1 0.937978 0.268742 0.909858
Si Si2 0.500000 0.792510 0.250000
Si Si3 0.500000 0.817824 0.750000
Si Si4 0.259513 0.028678 0.383269
Si Si5 0.675509 0.980922 0.267896
Si Si6 0.020111 0.069958 0.336427
Si Si7 0.827664 0.636286 0.003824
Si Si8 0.828049 0.032580 0.913344
O O1 0.833058 0.357335 0.909522
O O2 0.902614 0.144878 0.942943
O O3 0.962764 0.253059 0.822647
O O4 0.049660 0.328891 0.954490
O O5 0.595382 0.879022 0.231375
O O6 0.540786 0.706123 0.318559
O O7 0.399804 0.906896 0.715972
O O8 0.128110 0.022218 0.390318
O O9 0.252199 0.025749 0.293499
O O10 0.327328 0.918456 0.421759
O O11 0.746288 0.925488 0.339858
O O12 0.000000 0.018539 0.250000
O O13 0.912721 0.055158 0.378763
O O14 0.757402 0.534299 0.040436
O O15 0.750000 0.750000 0.000000
#
# Coordination Sequence:
#
# PCOD9267857 Si02
#       8
#     8   4   4   8   8   8   8   8
#     4  11  25  45  74 103 136 190 238 302 355 431
#     4   9  20  35  66 104 134 171 219 298 346 406
#     4   9  20  39  70 100 142 169 241 294 362 414
#     4  11  24  46  71 100 139 183 234 294 356 421
#     4  10  19  40  68 102 133 181 229 294 349 423
#     4  10  22  40  61 103 136 174 230 281 347 413
#     4  12  29  48  68 101 147 192 235 292 362 432
#     4  12  25  43  70 100 142 186 239 285 360 425
#
# _framework density 23.036026
#
# number of rings (size 3 to 8) (size 9 to 14) (size 15 to 20)
#    0.429    0.857    2.857    2.143    3.000    4.000 
#    0.000    0.000    0.000    0.000    0.000    0.000 
#    0.000    0.000    0.000    0.000    0.000    0.000 
#
# Total GULP energy -156267.460447 kJ/mol
# GULP energy per Si atom -5580.980730 kJ/mol
# Density = 2.298360 g / cm^3
# Si number density = 23.036026 Si / 1000 Ang^3
#
#
#
# Elastic Constant Matrix: (Units=GPa)
#
#
# Indices 1 2 3 4 5 6 
#
# 1 111.5608 19.4819 36.7932 0.0000 19.1382 0.0000
# 2 19.4819 87.2974 17.7717 0.0000 0.6420 0.0000
# 3 36.7932 17.7717 59.5282 0.0000 14.3326 0.0000
# 4 0.0000 0.0000 0.0000 19.5266 0.0000 0.7960
# 5 19.1382 0.6420 14.3326 0.0000 31.1211 0.0000
# 6 0.0000 0.0000 0.0000 0.7960 0.0000 21.0583
#
#
#
# Elastic Compliance Matrix: (Units=1/GPa)
#
#
# Indices 1 2 3 4 5 6 
#
# 1 0.011932 -0.001442 -0.005831 0.000000 -0.004622 0.000000
# 2 -0.001442 0.012442 -0.003346 0.000000 0.002171 0.000000
# 3 -0.005831 -0.003346 0.023081 0.000000 -0.006975 0.000000
# 4 0.000000 0.000000 0.000000 0.051291 0.000000 -0.001939
# 5 -0.004622 0.002171 -0.006975 0.000000 0.038142 0.000000
# 6 0.000000 0.000000 0.000000 -0.001939 0.000000 0.047561
#
#
# Mechanical properties :
#
#
# Convention : Reuss Voigt Hill
#
# Bulk Modulus (GPa) = 38.14375 45.16444 41.65409
# Shear Modulus (GPa) = 23.31803 26.63051 24.97427
#
# Velocity S-wave (km/s) = 3.18503 3.40374 3.29620
# Velocity P-wave (km/s) = 5.48818 5.92418 5.71034
#
# Compressibility (1/GPa) = 0.02621662
#
# Stress axis : x y z
#
# Youngs Moduli (GPa) = 83.81093 80.37263 43.32504
#
# Poissons Ratio (x) = 0.11587 0.25265
# Poissons Ratio (y) = 0.12082 0.14497
# Poissons Ratio (z) = 0.48874 0.26894
#
# Static dielectric constant tensor:
#      x y z
#    x 1.897040 0.000000 -0.001010 
#    y 0.000000 1.850850 0.000000 
#    z -0.001010 0.000000 1.988560 
# 
# From -- ./inp_files/237145.got.cif
#   From: 2010.05.17/outbox.cif.g08.bks.cpg/sg15_119_cif.got.tgz:237145.got - 2010.06.03 18:47:42.
