data_PCOD9267582
_publ_section_title
;
Structure prediction by ZEFSAII (Michael W. Deem and Ramdas Pophale) SiO2 
 PCOD9267582
Probable space group: C 2/C
;
_chemical_formula_sum "Si O2"
_cell_formula_units_Z 44
_cell_length_a 12.511934
_cell_length_b 8.411835
_cell_length_c 17.776992
_cell_angle_alpha 90.000000
_cell_angle_beta 75.642150
_cell_angle_gamma 90.000000
_cell_volume 1812.559567
_symmetry_space_group_name_H-M "C 2/C"
_symmetry_group_IT_number 15
_symmetry_cell_setting 'monoclinic'
loop_
_space_group_symop_operation_xyz
x,y,z
-x,y,1/2-z
-x,-y,-z
x,-y,1/2+z
1/2+x,1/2+y,z
1/2-x,1/2+y,1/2-z
1/2-x,1/2-y,-z
1/2+x,1/2-y,1/2+z
loop_
_atom_site_type_symbol
_atom_site_label
_atom_site_fract_x
_atom_site_fract_y
_atom_site_fract_z
Si Si1 0.143582 0.561030 0.820093
Si Si2 0.676974 0.359776 0.094304
Si Si3 0.500801 0.862861 0.561257
Si Si4 0.334741 0.587082 0.189289
Si Si5 0.000000 0.882128 0.250000
Si Si6 0.876624 0.062583 0.529670
O O1 0.206462 0.612176 0.886075
O O2 0.038833 0.452897 0.856289
O O3 0.227479 0.462514 0.754439
O O4 0.125704 0.737907 0.793132
O O5 0.618665 0.227257 0.050469
O O6 0.601379 0.321547 0.181657
O O7 0.668506 0.520932 0.044993
O O8 0.402681 0.739973 0.554373
O O9 0.500000 0.000000 0.500000
O O10 0.435559 0.477176 0.196803
O O11 0.316828 0.540565 0.104915
O O12 0.000000 0.000000 0.500000
#
# Coordination Sequence:
#
# PCOD9267582 Si02
#       6
#     8   8   8   8   4   8
#     4  11  25  42  65  99 131 171 223 275 328 403
#     4  10  23  42  69  90 131 175 213 269 339 386
#     4  11  23  40  67  95 132 168 219 270 331 397
#     4  11  22  41  65  93 130 167 220 269 326 393
#     4  10  20  40  68  86 126 176 212 258 340 378
#     4  10  19  39  67  90 126 172 212 270 328 390
#
# _framework density 24.275062999999999
#
# number of rings (size 3 to 8) (size 9 to 14) (size 15 to 20)
#    0.000    1.455    3.636    3.273    2.545    3.636 
#    3.273    0.000    0.000    0.000    0.000    0.000 
#    0.000    0.000    0.000    0.000    0.000    0.000 
#
# Total GULP energy -122528.670528 kJ/mol
# GULP energy per Si atom -5569.485024 kJ/mol
# Density = 2.421981 g / cm^3
# Si number density = 24.275063 Si / 1000 Ang^3
#
#
#
# Elastic Constant Matrix: (Units=GPa)
#
#
# Indices 1 2 3 4 5 6 
#
# 1 51.4913 -3.9782 -3.5400 0.0000 10.1192 0.0000
# 2 -3.9782 119.4378 26.3429 0.0000 -8.4978 0.0000
# 3 -3.5400 26.3429 107.0284 0.0000 -15.4070 0.0000
# 4 0.0000 0.0000 0.0000 31.3351 0.0000 -0.9048
# 5 10.1192 -8.4978 -15.4070 0.0000 37.3454 0.0000
# 6 0.0000 0.0000 0.0000 -0.9048 0.0000 21.0298
#
#
#
# Elastic Compliance Matrix: (Units=1/GPa)
#
#
# Indices 1 2 3 4 5 6 
#
# 1 0.020527 0.000333 -0.000205 0.000000 -0.005571 0.000000
# 2 0.000333 0.008908 -0.002023 0.000000 0.001102 0.000000
# 3 -0.000205 -0.002023 0.010393 0.000000 0.003883 0.000000
# 4 0.000000 0.000000 0.000000 0.031953 0.000000 0.001375
# 5 -0.005571 0.001102 0.003883 0.000000 0.030139 0.000000
# 6 0.000000 0.000000 0.000000 0.001375 0.000000 0.047611
#
#
# Mechanical properties :
#
#
# Convention : Reuss Voigt Hill
#
# Bulk Modulus (GPa) = 27.74819 35.06742 31.40780
# Shear Modulus (GPa) = 30.24165 35.21758 32.72962
#
# Velocity S-wave (km/s) = 3.53341 3.81303 3.67588
# Velocity P-wave (km/s) = 5.30115 5.81918 5.56619
#
# Compressibility (1/GPa) = 0.03603839
#
# Stress axis : x y z
#
# Youngs Moduli (GPa) = 48.71594 112.25570 96.21487
#
# Poissons Ratio (x) = -0.03733 0.01971
# Poissons Ratio (y) = -0.01620 0.19463
# Poissons Ratio (z) = 0.00998 0.22708
#
# Static dielectric constant tensor:
#      x y z
#    x 1.900120 0.000000 0.058870 
#    y 0.000000 2.112690 0.000000 
#    z 0.058870 0.000000 1.943770 
# 
# From -- ./inp_files/202570.got.cif
#   From: 2010.05.17/outbox.cif.g08.bks.cpg/sg15_102_cif.got.tgz:202570.got - 2010.06.03 18:47:42.
