data_PCOD9267326
_publ_section_title
;
Structure prediction by ZEFSAII (Michael W. Deem and Ramdas Pophale) SiO2 
 PCOD9267326
Probable space group: C 2/C
;
_chemical_formula_sum "Si O2"
_cell_formula_units_Z 64
_cell_length_a 26.128924
_cell_length_b 9.028224
_cell_length_c 12.570442
_cell_angle_alpha 90.000000
_cell_angle_beta 77.927673
_cell_angle_gamma 90.000000
_cell_volume 2899.758984
_symmetry_space_group_name_H-M "C 2/C"
_symmetry_group_IT_number 15
_symmetry_cell_setting 'monoclinic'
loop_
_space_group_symop_operation_xyz
x,y,z
-x,y,1/2-z
-x,-y,-z
x,-y,1/2+z
1/2+x,1/2+y,z
1/2-x,1/2+y,1/2-z
1/2-x,1/2-y,-z
1/2+x,1/2-y,1/2+z
loop_
_atom_site_type_symbol
_atom_site_label
_atom_site_fract_x
_atom_site_fract_y
_atom_site_fract_z
Si Si1 0.955496 0.191772 0.001950
Si Si2 0.966055 0.904055 0.868475
Si Si3 0.871791 0.427433 0.979196
Si Si4 0.723176 0.955172 0.320932
Si Si5 0.646283 0.543982 0.387768
Si Si6 0.214475 0.788035 0.677240
Si Si7 0.695625 0.697267 0.572772
Si Si8 0.860156 0.223449 0.477266
O O1 0.966425 0.077343 0.901347
O O2 0.925848 0.342295 0.982051
O O3 0.007803 0.193518 0.048429
O O4 0.912702 0.104302 0.092425
O O5 0.906154 0.855868 0.889593
O O6 0.000000 0.879335 0.750000
O O7 0.827964 0.407370 0.091103
O O8 0.843935 0.334988 0.895082
O O9 0.875096 0.603339 0.969550
O O10 0.717853 0.883273 0.208499
O O11 0.778798 0.891721 0.341622
O O12 0.730609 0.128925 0.332167
O O13 0.679093 0.626531 0.282028
O O14 0.668059 0.599868 0.493483
O O15 0.643568 0.367438 0.410144
O O16 0.192000 0.796556 0.569668
O O17 0.750000 0.750000 0.500000
#
# Coordination Sequence:
#
# PCOD9267326 Si02
#       8
#     8   8   8   8   8   8   8   8
#     4   9  19  41  67  89 121 167 199 258 323 381
#     4  10  21  39  70  95 118 156 214 259 317 388
#     4  10  22  41  59  85 129 166 207 255 319 366
#     4  11  24  36  58  88 125 176 209 262 297 365
#     4  10  19  39  60  83 124 161 206 258 311 365
#     4  12  24  38  60  93 129 165 225 259 305 368
#     4   9  16  37  56  74 112 170 201 243 303 347
#     4  11  25  38  63  96 122 167 205 267 317 385
#
# _framework density 22.070800999999999
#
# number of rings (size 3 to 8) (size 9 to 14) (size 15 to 20)
#    0.000    1.750    5.000    0.750    3.500    1.000 
#    0.000    0.625    5.500    0.000    0.000    0.000 
#    0.000    0.000    0.000    0.000    0.000    0.000 
#
# Total GULP energy -178373.225035 kJ/mol
# GULP energy per Si atom -5574.163282 kJ/mol
# Density = 2.202057 g / cm^3
# Si number density = 22.070801 Si / 1000 Ang^3
#
#
#
# Elastic Constant Matrix: (Units=GPa)
#
#
# Indices 1 2 3 4 5 6 
#
# 1 67.2028 7.4281 -0.7941 0.0000 -1.0557 0.0000
# 2 7.4281 120.7936 11.9657 0.0000 4.4187 0.0000
# 3 -0.7941 11.9657 27.2642 0.0000 -3.8501 0.0000
# 4 0.0000 0.0000 0.0000 19.6405 0.0000 -0.1822
# 5 -1.0557 4.4187 -3.8501 0.0000 22.4871 0.0000
# 6 0.0000 0.0000 0.0000 -0.1822 0.0000 42.0274
#
#
#
# Elastic Compliance Matrix: (Units=1/GPa)
#
#
# Indices 1 2 3 4 5 6 
#
# 1 0.015028 -0.001070 0.001062 0.000000 0.001098 0.000000
# 2 -0.001070 0.008860 -0.004276 0.000000 -0.002523 0.000000
# 3 0.001062 -0.004276 0.039671 0.000000 0.007682 0.000000
# 4 0.000000 0.000000 0.000000 0.050917 0.000000 0.000221
# 5 0.001098 -0.002523 0.007682 0.000000 0.046333 0.000000
# 6 0.000000 0.000000 0.000000 0.000221 0.000000 0.023795
#
#
# Mechanical properties :
#
#
# Convention : Reuss Voigt Hill
#
# Bulk Modulus (GPa) = 18.18441 28.05113 23.11777
# Shear Modulus (GPa) = 23.64047 29.94173 26.79110
#
# Velocity S-wave (km/s) = 3.27635 3.68723 3.48784
# Velocity P-wave (km/s) = 4.75075 5.55561 5.16887
#
# Compressibility (1/GPa) = 0.05499215
#
# Stress axis : x y z
#
# Youngs Moduli (GPa) = 66.54094 112.86366 25.20761
#
# Poissons Ratio (x) = 0.12071 -0.02677
# Poissons Ratio (y) = 0.07117 0.10779
# Poissons Ratio (z) = -0.07067 0.48261
#
# Static dielectric constant tensor:
#      x y z
#    x 1.852370 0.000000 -0.004660 
#    y 0.000000 1.960110 0.000000 
#    z -0.004660 0.000000 1.853080 
# 
# From -- ./inp_files/176599.got.cif
#   From: 2010.05.17/outbox.cif.g08.bks.cpg/sg15_89_cif.got.tgz:176599.got - 2010.06.03 18:47:42.
