data_PCOD9267089
_publ_section_title
;
Structure prediction by ZEFSAII (Michael W. Deem and Ramdas Pophale) SiO2 
 PCOD9267089
Probable space group: C 2/C
;
_chemical_formula_sum "Si O2"
_cell_formula_units_Z 56
_cell_length_a 12.016840
_cell_length_b 14.407572
_cell_length_c 17.900821
_cell_angle_alpha 90.000000
_cell_angle_beta 115.683511
_cell_angle_gamma 90.000000
_cell_volume 2793.033024
_symmetry_space_group_name_H-M "C 2/C"
_symmetry_group_IT_number 15
_symmetry_cell_setting 'monoclinic'
loop_
_space_group_symop_operation_xyz
x,y,z
-x,y,1/2-z
-x,-y,-z
x,-y,1/2+z
1/2+x,1/2+y,z
1/2-x,1/2+y,1/2-z
1/2-x,1/2-y,-z
1/2+x,1/2-y,1/2+z
loop_
_atom_site_type_symbol
_atom_site_label
_atom_site_fract_x
_atom_site_fract_y
_atom_site_fract_z
Si Si1 0.000000 0.406650 0.750000
Si Si2 0.807583 0.544823 0.717743
Si Si3 0.789094 0.200895 0.702000
Si Si4 0.000000 0.845573 0.750000
Si Si5 0.350936 0.806096 0.115832
Si Si6 0.960323 0.753051 0.134955
Si Si7 0.123462 0.110220 0.141985
Si Si8 0.560211 0.722698 0.503108
O O1 0.902421 0.465530 0.767673
O O2 0.066664 0.344316 0.831874
O O3 0.775786 0.614925 0.775445
O O4 0.870878 0.603167 0.670211
O O5 0.696690 0.484459 0.649536
O O6 0.907899 0.219460 0.789990
O O7 0.702401 0.292736 0.672245
O O8 0.850666 0.184164 0.638062
O O9 0.902095 0.779495 0.679499
O O10 0.933159 0.904591 0.792718
O O11 0.423151 0.798105 0.058576
O O12 0.202955 0.799082 0.063518
O O13 0.983748 0.748887 0.054174
O O14 0.014052 0.136252 0.053609
#
# Coordination Sequence:
#
# PCOD9267089 Si02
#       8
#     4   8   8   4   8   8   8   8
#     4  10  23  36  67  90 118 162 213 264 293 358
#     4  12  21  39  65  93 122 153 222 255 300 363
#     4  10  21  38  65  86 120 165 206 254 305 356
#     4  10  19  38  65  88 118 158 223 240 303 360
#     4  10  21  38  63  90 118 170 194 258 302 367
#     4  10  19  44  61  86 124 169 196 254 315 363
#     4  11  22  37  61  97 121 163 203 263 306 370
#     4  10  22  39  63  86 133 162 199 247 328 369
#
# _framework density 20.049889
#
# number of rings (size 3 to 8) (size 9 to 14) (size 15 to 20)
#    0.000    1.714    5.714    0.429    2.000    2.286 
#    0.000    2.143    0.000    0.000    0.000    0.000 
#    0.000    0.000    0.000    0.000    0.000    0.000 
#
# Total GULP energy -155964.103068 kJ/mol
# GULP energy per Si atom -5570.146538 kJ/mol
# Density = 2.000425 g / cm^3
# Si number density = 20.049889 Si / 1000 Ang^3
#
#
#
# Elastic Constant Matrix: (Units=GPa)
#
#
# Indices 1 2 3 4 5 6 
#
# 1 94.5163 24.4963 39.8801 0.0000 -31.5399 0.0000
# 2 24.4963 59.8663 14.3852 0.0000 -13.7486 0.0000
# 3 39.8801 14.3852 71.4896 0.0000 -27.5977 0.0000
# 4 0.0000 0.0000 0.0000 16.3329 0.0000 -3.8990
# 5 -31.5399 -13.7486 -27.5977 0.0000 50.4975 0.0000
# 6 0.0000 0.0000 0.0000 -3.8990 0.0000 39.9136
#
#
#
# Elastic Compliance Matrix: (Units=1/GPa)
#
#
# Indices 1 2 3 4 5 6 
#
# 1 0.015975 -0.003800 -0.005950 0.000000 0.005691 0.000000
# 2 -0.003800 0.018992 -0.000788 0.000000 0.002367 0.000000
# 3 -0.005950 -0.000788 0.020213 0.000000 0.007116 0.000000
# 4 0.000000 0.000000 0.000000 0.062688 0.000000 0.006124
# 5 0.005691 0.002367 0.007116 0.000000 0.027891 0.000000
# 6 0.000000 0.000000 0.000000 0.006124 0.000000 0.025652
#
#
# Mechanical properties :
#
#
# Convention : Reuss Voigt Hill
#
# Bulk Modulus (GPa) = 29.32252 42.59949 35.96101
# Shear Modulus (GPa) = 24.52744 31.15616 27.84180
#
# Velocity S-wave (km/s) = 3.50139 3.94627 3.73047
# Velocity P-wave (km/s) = 5.56802 6.48513 6.04400
#
# Compressibility (1/GPa) = 0.03410348
#
# Stress axis : x y z
#
# Youngs Moduli (GPa) = 62.59930 52.65472 49.47398
#
# Poissons Ratio (x) = 0.20008 0.29435
# Poissons Ratio (y) = 0.23787 0.03899
# Poissons Ratio (z) = 0.37245 0.04150
#
# Static dielectric constant tensor:
#      x y z
#    x 1.777660 0.000000 0.013780 
#    y 0.000000 1.717340 0.000000 
#    z 0.013780 0.000000 1.733350 
# 
# From -- ./inp_files/237669.got.cif
#   From: 2010.05.17/outbox.cif.g08.bks.cpg/sg15_119_cif.got.tgz:237669.got - 2010.06.03 18:47:42.
