data_PCOD9267245
_publ_section_title
;
Structure prediction by ZEFSAII (Michael W. Deem and Ramdas Pophale) SiO2 
 PCOD9267245
Probable space group: C 2/C
;
_chemical_formula_sum "Si O2"
_cell_formula_units_Z 40
_cell_length_a 21.649340
_cell_length_b 10.972559
_cell_length_c 12.080955
_cell_angle_alpha 90.000000
_cell_angle_beta 35.341843
_cell_angle_gamma 90.000000
_cell_volume 1660.054327
_symmetry_space_group_name_H-M "C 2/C"
_symmetry_group_IT_number 15
_symmetry_cell_setting 'monoclinic'
loop_
_space_group_symop_operation_xyz
x,y,z
-x,y,1/2-z
-x,-y,-z
x,-y,1/2+z
1/2+x,1/2+y,z
1/2-x,1/2+y,1/2-z
1/2-x,1/2-y,-z
1/2+x,1/2-y,1/2+z
loop_
_atom_site_type_symbol
_atom_site_label
_atom_site_fract_x
_atom_site_fract_y
_atom_site_fract_z
Si Si1 0.387524 0.448230 0.213404
Si Si2 0.500000 0.099067 0.250000
Si Si3 0.449974 0.864671 0.066104
Si Si4 0.114215 0.794501 0.467233
Si Si5 0.500000 0.483287 0.250000
Si Si6 0.183807 0.402644 0.043494
O O1 0.328628 0.346649 0.225719
O O2 0.426450 0.406056 0.276355
O O3 0.304118 0.555902 0.349925
O O4 0.500000 0.500000 0.000000
O O5 0.460461 0.165540 0.420955
O O6 0.599707 0.010573 0.136934
O O7 0.338282 0.871421 0.295161
O O8 0.516925 0.776095 0.048586
O O9 0.500000 0.000000 0.000000
O O10 0.078650 0.919453 0.576977
O O11 0.158692 0.703388 0.492614
#
# Coordination Sequence:
#
# PCOD9267245 Si02
#       6
#     8   4   8   8   4   8
#     4  10  26  43  66 106 152 194 243 304 360 450
#     4  10  21  39  70 114 140 164 249 325 360 418
#     4  10  19  38  70 106 141 177 236 309 366 433
#     4  11  20  44  72 104 142 191 249 299 374 439
#     4  10  21  47  64  96 154 194 251 289 362 452
#     4  11  20  43  73 106 143 192 243 304 369 446
#
# _framework density 24.095596
#
# number of rings (size 3 to 8) (size 9 to 14) (size 15 to 20)
#    0.000    1.600    6.000    0.000    0.000    4.800 
#    7.200    4.000    0.000    0.000    0.000    0.000 
#    0.000    0.000    0.000    0.000    0.000    0.000 
#
# Total GULP energy -111535.566315 kJ/mol
# GULP energy per Si atom -5576.778316 kJ/mol
# Density = 2.404075 g / cm^3
# Si number density = 24.095596 Si / 1000 Ang^3
#
#
#
# Elastic Constant Matrix: (Units=GPa)
#
#
# Indices 1 2 3 4 5 6 
#
# 1 107.4324 25.2269 90.9810 0.0000 31.6147 0.0000
# 2 25.2269 65.0738 48.0047 0.0000 12.7188 0.0000
# 3 90.9810 48.0047 154.8720 0.0000 11.1301 0.0000
# 4 0.0000 0.0000 0.0000 -22.6214 0.0000 -206.9480
# 5 31.6147 12.7188 11.1301 0.0000 44.0185 0.0000
# 6 0.0000 0.0000 0.0000 -206.9480 0.0000 -828.7451
#
#
#
# Elastic Compliance Matrix: (Units=1/GPa)
#
#
# Indices 1 2 3 4 5 6 
#
# 1 0.026324 0.004561 -0.015710 0.000000 -0.016252 0.000000
# 2 0.004561 0.021534 -0.008832 0.000000 -0.007265 0.000000
# 3 -0.015710 -0.008832 0.017752 0.000000 0.009346 0.000000
# 4 0.000000 0.000000 0.000000 0.034416 0.000000 -0.008594
# 5 -0.016252 -0.007265 0.009346 0.000000 0.034126 0.000000
# 6 0.000000 0.000000 0.000000 -0.008594 0.000000 0.000939
#
#
# Mechanical properties :
#
#
# Convention : Reuss Voigt Hill
#
# Bulk Modulus (GPa) = 38.99003 72.86705 55.92854
# Shear Modulus (GPa) = 27.23263 -150.59190 -61.67963
#
# Velocity S-wave (km/s) = 3.36548 -7.91412 -5.06492
# Velocity P-wave (km/s) = 5.59629 7.29415 3.30804
#
# Compressibility (1/GPa) = 0.02564758
#
# Stress axis : x y z
#
# Youngs Moduli (GPa) = 37.98819 46.43741 56.33228
#
# Poissons Ratio (x) = -0.21179 0.88498
# Poissons Ratio (y) = -0.17325 0.49753
# Poissons Ratio (z) = 0.59679 0.41014
#
# Static dielectric constant tensor:
#      x y z
#    x 2.045190 0.000000 0.154190 
#    y 0.000000 2.029690 0.000000 
#    z 0.154190 0.000000 2.100540 
# 
# From -- ./inp_files/111411.got.cif
#   From: 2010.05.17/outbox.cif.g08.bks.cpg/sg15_56_cif.got.tgz:111411.got - 2010.06.03 18:47:42.
