data_PCOD9267300
_publ_section_title
;
Structure prediction by ZEFSAII (Michael W. Deem and Ramdas Pophale) SiO2 
 PCOD9267300
Probable space group: C 2/C
;
_chemical_formula_sum "Si O2"
_cell_formula_units_Z 40
_cell_length_a 25.286493
_cell_length_b 18.879834
_cell_length_c 9.443135
_cell_angle_alpha 90.000000
_cell_angle_beta 28.081514
_cell_angle_gamma 90.000000
_cell_volume 2122.131574
_symmetry_space_group_name_H-M "C 2/C"
_symmetry_group_IT_number 15
_symmetry_cell_setting 'monoclinic'
loop_
_space_group_symop_operation_xyz
x,y,z
-x,y,1/2-z
-x,-y,-z
x,-y,1/2+z
1/2+x,1/2+y,z
1/2-x,1/2+y,1/2-z
1/2-x,1/2-y,-z
1/2+x,1/2-y,1/2+z
loop_
_atom_site_type_symbol
_atom_site_label
_atom_site_fract_x
_atom_site_fract_y
_atom_site_fract_z
Si Si1 0.073891 0.292661 0.816276
Si Si2 0.543525 0.066438 0.808433
Si Si3 0.000000 0.814040 0.250000
Si Si4 0.717479 0.692732 0.871874
Si Si5 0.500000 0.706070 0.250000
Si Si6 0.751944 0.146314 0.389892
O O1 0.013538 0.238663 0.851172
O O2 0.193095 0.310670 0.465420
O O3 0.008081 0.364705 0.994006
O O4 0.071766 0.254193 0.972409
O O5 0.500000 0.062379 0.750000
O O6 0.676426 0.083876 0.504286
O O7 0.500000 0.000000 0.000000
O O8 0.884168 0.856582 0.539515
O O9 0.711168 0.776553 0.927904
O O10 0.595138 0.666288 0.113484
O O11 0.758084 0.652289 0.916333
#
# Coordination Sequence:
#
# PCOD9267300 Si02
#       6
#     8   8   4   8   4   8
#     4  11  20  35  57  90 126 159 199 247 311 356
#     4  12  26  41  61  86 123 169 210 248 289 365
#     4  10  20  36  71  93 122 160 186 268 318 368
#     4  10  20  32  61  89 127 159 188 261 308 378
#     4  12  18  34  51  97 124 152 190 248 322 364
#     4  10  19  39  58  91 122 154 209 244 316 358
#
# _framework density 18.848973000000001
#
# number of rings (size 3 to 8) (size 9 to 14) (size 15 to 20)
#    0.000    1.200    5.000    3.000    4.200    1.600 
#    0.000    0.000    0.000    2.400    0.000    0.000 
#    0.000    0.000    0.000    0.000    0.000    0.000 
#
# Total GULP energy -111637.481641 kJ/mol
# GULP energy per Si atom -5581.874082 kJ/mol
# Density = 1.880607 g / cm^3
# Si number density = 18.848973 Si / 1000 Ang^3
#
#
#
# Elastic Constant Matrix: (Units=GPa)
#
#
# Indices 1 2 3 4 5 6 
#
# 1 131.6431 26.2587 62.7729 0.0000 -7.6087 0.0000
# 2 26.2587 47.1170 28.9646 0.0000 -5.3395 0.0000
# 3 62.7729 28.9646 140.5471 0.0000 -5.6406 0.0000
# 4 0.0000 0.0000 0.0000 17.5975 0.0000 -2.0237
# 5 -7.6087 -5.3395 -5.6406 0.0000 44.1507 0.0000
# 6 0.0000 0.0000 0.0000 -2.0237 0.0000 1.9101
#
#
#
# Elastic Compliance Matrix: (Units=1/GPa)
#
#
# Indices 1 2 3 4 5 6 
#
# 1 0.010104 -0.003183 -0.003822 0.000000 0.000868 0.000000
# 2 -0.003183 0.025542 -0.003760 0.000000 0.002060 0.000000
# 3 -0.003822 -0.003760 0.009601 0.000000 0.000113 0.000000
# 4 0.000000 0.000000 0.000000 0.064711 0.000000 0.068559
# 5 0.000868 0.002060 0.000113 0.000000 0.023063 0.000000
# 6 0.000000 0.000000 0.000000 0.068559 0.000000 0.596163
#
#
# Mechanical properties :
#
#
# Convention : Reuss Voigt Hill
#
# Bulk Modulus (GPa) = 42.16123 61.69996 51.93059
# Shear Modulus (GPa) = 6.59093 26.15239 16.37166
#
# Velocity S-wave (km/s) = 1.87198 3.72892 2.95035
# Velocity P-wave (km/s) = 5.20470 7.16552 6.26233
#
# Compressibility (1/GPa) = 0.02371847
#
# Stress axis : x y z
#
# Youngs Moduli (GPa) = 98.97239 39.15068 104.15203
#
# Poissons Ratio (x) = 0.12462 0.39805
# Poissons Ratio (y) = 0.31504 0.39156
# Poissons Ratio (z) = 0.37826 0.14719
#
# Static dielectric constant tensor:
#      x y z
#    x 1.713830 0.000000 -0.027480 
#    y 0.000000 1.608690 0.000000 
#    z -0.027480 0.000000 1.727720 
# 
# From -- ./inp_files/30325.got.cif
#   From: 2010.05.17/outbox.cif.g08.bks.cpg/sg15_16_cif.got.tgz:30325.got - 2010.06.03 18:47:42.
