data_PCOD9267615
_publ_section_title
;
Structure prediction by ZEFSAII (Michael W. Deem and Ramdas Pophale) SiO2 
 PCOD9267615
Probable space group: C 2/C
;
_chemical_formula_sum "Si O2"
_cell_formula_units_Z 48
_cell_length_a 10.734354
_cell_length_b 16.393468
_cell_length_c 13.011915
_cell_angle_alpha 90.000000
_cell_angle_beta 95.323756
_cell_angle_gamma 90.000000
_cell_volume 2279.872216
_symmetry_space_group_name_H-M "C 2/C"
_symmetry_group_IT_number 15
_symmetry_cell_setting 'monoclinic'
loop_
_space_group_symop_operation_xyz
x,y,z
-x,y,1/2-z
-x,-y,-z
x,-y,1/2+z
1/2+x,1/2+y,z
1/2-x,1/2+y,1/2-z
1/2-x,1/2-y,-z
1/2+x,1/2-y,1/2+z
loop_
_atom_site_type_symbol
_atom_site_label
_atom_site_fract_x
_atom_site_fract_y
_atom_site_fract_z
Si Si1 0.532853 0.407433 0.531587
Si Si2 0.899384 0.544959 0.564782
Si Si3 0.894207 0.753194 0.046477
Si Si4 0.796644 0.388037 0.667869
Si Si5 0.775492 0.855894 0.607431
Si Si6 0.937290 0.714179 0.639473
O O1 0.500000 0.500000 0.500000
O O2 0.555637 0.345987 0.435645
O O3 0.658551 0.390040 0.605445
O O4 0.417116 0.381873 0.593558
O O5 0.848452 0.472743 0.630642
O O6 0.805141 0.595400 0.482801
O O7 0.936608 0.617012 0.643679
O O8 0.000000 0.500000 0.500000
O O9 0.886996 0.685566 0.135098
O O10 0.750000 0.750000 0.000000
O O11 0.979607 0.727021 0.956725
O O12 0.777857 0.381213 0.787151
O O13 0.801528 0.757689 0.614411
O O14 0.000000 0.745189 0.750000
#
# Coordination Sequence:
#
# PCOD9267615 Si02
#       6
#     8   8   8   8   8   8
#     4  10  19  39  68  95 129 174 229 288 332 397
#     4  12  26  42  66 100 140 178 221 285 341 412
#     4   9  19  36  63  92 127 169 214 273 332 392
#     4  11  22  41  66  99 133 175 228 282 346 405
#     4  11  24  44  69  96 135 180 230 278 340 404
#     4  11  23  43  70  95 132 178 231 268 347 414
#
# _framework density 21.053812000000001
#
# number of rings (size 3 to 8) (size 9 to 14) (size 15 to 20)
#    0.000    1.333    3.333    4.000    2.333    0.000 
#    3.000    0.000    0.000    0.000    0.000    0.000 
#    0.000    0.000    0.000    0.000    0.000    0.000 
#
# Total GULP energy -133645.158723 kJ/mol
# GULP energy per Si atom -5568.548280 kJ/mol
# Density = 2.100589 g / cm^3
# Si number density = 21.053812 Si / 1000 Ang^3
#
#
#
# Elastic Constant Matrix: (Units=GPa)
#
#
# Indices 1 2 3 4 5 6 
#
# 1 75.3313 52.0732 34.2300 0.0000 -26.4444 0.0000
# 2 52.0732 176.2938 55.8929 0.0000 -14.9379 0.0000
# 3 34.2300 55.8929 101.7029 0.0000 -24.3309 0.0000
# 4 0.0000 0.0000 0.0000 26.5790 0.0000 -3.1155
# 5 -26.4444 -14.9379 -24.3309 0.0000 28.7366 0.0000
# 6 0.0000 0.0000 0.0000 -3.1155 0.0000 38.2530
#
#
#
# Elastic Compliance Matrix: (Units=1/GPa)
#
#
# Indices 1 2 3 4 5 6 
#
# 1 0.023684 -0.005212 -0.000678 0.000000 0.018511 0.000000
# 2 -0.005212 0.008021 -0.003516 0.000000 -0.003604 0.000000
# 3 -0.000678 -0.003516 0.014304 0.000000 0.009659 0.000000
# 4 0.000000 0.000000 0.000000 0.037986 0.000000 0.003094
# 5 0.018511 -0.003604 0.009659 0.000000 0.058138 0.000000
# 6 0.000000 0.000000 0.000000 0.003094 0.000000 0.026394
#
#
# Mechanical properties :
#
#
# Convention : Reuss Voigt Hill
#
# Bulk Modulus (GPa) = 36.77013 70.85779 53.81396
# Shear Modulus (GPa) = 25.45742 32.78917 29.12330
#
# Velocity S-wave (km/s) = 3.48107 3.95067 3.72328
# Velocity P-wave (km/s) = 5.80171 7.38505 6.64074
#
# Compressibility (1/GPa) = 0.02719599
#
# Stress axis : x y z
#
# Youngs Moduli (GPa) = 42.22256 124.66764 69.91033
#
# Poissons Ratio (x) = 0.64979 0.04742
# Poissons Ratio (y) = 0.22007 0.24582
# Poissons Ratio (z) = 0.02864 0.43836
#
# Static dielectric constant tensor:
#      x y z
#    x 1.760710 0.000000 0.019360 
#    y 0.000000 1.896530 0.000000 
#    z 0.019360 0.000000 1.795540 
# 
# From -- ./inp_files/87398.got.cif
#   From: 2010.05.17/outbox.cif.g08.bks.cpg/sg15_44_cif.got.tgz:87398.got - 2010.06.03 18:47:42.
