data_PCOD9267885
_publ_section_title
;
Structure prediction by ZEFSAII (Michael W. Deem and Ramdas Pophale) SiO2 
 PCOD9267885
Probable space group: C 2/C
;
_chemical_formula_sum "Si O2"
_cell_formula_units_Z 44
_cell_length_a 10.768296
_cell_length_b 15.826805
_cell_length_c 9.924223
_cell_angle_alpha 90.000000
_cell_angle_beta 86.976743
_cell_angle_gamma 90.000000
_cell_volume 1689.008684
_symmetry_space_group_name_H-M "C 2/C"
_symmetry_group_IT_number 15
_symmetry_cell_setting 'monoclinic'
loop_
_space_group_symop_operation_xyz
x,y,z
-x,y,1/2-z
-x,-y,-z
x,-y,1/2+z
1/2+x,1/2+y,z
1/2-x,1/2+y,1/2-z
1/2-x,1/2-y,-z
1/2+x,1/2-y,1/2+z
loop_
_atom_site_type_symbol
_atom_site_label
_atom_site_fract_x
_atom_site_fract_y
_atom_site_fract_z
Si Si1 0.566100 0.937600 0.600076
Si Si2 0.000000 0.007370 0.750000
Si Si3 0.730658 0.570110 0.883167
Si Si4 0.207295 0.217502 0.721863
Si Si5 0.153065 0.147371 0.145811
Si Si6 0.509861 0.747480 0.541949
O O1 0.500000 0.935866 0.750000
O O2 0.554239 0.844127 0.540221
O O3 0.500000 0.000000 0.500000
O O4 0.700174 0.981526 0.613108
O O5 0.903599 0.943648 0.822934
O O6 0.915132 0.057390 0.648195
O O7 0.778268 0.633317 0.763975
O O8 0.747018 0.624337 0.018713
O O9 0.287616 0.301692 0.734835
O O10 0.132818 0.201042 0.590358
O O11 0.099664 0.236225 0.840465
O O12 0.048540 0.208041 0.087605
#
# Coordination Sequence:
#
# PCOD9267885 Si02
#       6
#     8   4   8   8   8   8
#     4  12  25  44  71 106 140 179 232 292 348 410
#     4  12  26  42  66 102 142 168 232 296 350 402
#     4  11  24  41  71  97 137 177 226 281 354 409
#     4  10  19  40  69  90 126 180 228 265 335 425
#     4  11  23  44  65  99 132 184 226 281 341 420
#     4  10  20  40  70  91 129 182 231 264 344 420
#
# _framework density 26.050784
#
# number of rings (size 3 to 8) (size 9 to 14) (size 15 to 20)
#    0.000    1.091    1.818    8.182    2.545    0.000 
#    6.545    1.818    0.000    0.000    0.000    0.000 
#    0.000    0.000    0.000    0.000    0.000    0.000 
#
# Total GULP energy -123175.097799 kJ/mol
# GULP energy per Si atom -5598.868082 kJ/mol
# Density = 2.599149 g / cm^3
# Si number density = 26.050784 Si / 1000 Ang^3
#
#
#
# Elastic Constant Matrix: (Units=GPa)
#
#
# Indices 1 2 3 4 5 6 
#
# 1 79.4073 22.7841 20.2654 0.0000 16.1802 0.0000
# 2 22.7841 154.5706 8.5690 0.0000 18.4578 0.0000
# 3 20.2654 8.5690 76.0499 0.0000 18.2010 0.0000
# 4 0.0000 0.0000 0.0000 -3.6358 0.0000 15.3358
# 5 16.1802 18.4578 18.2010 0.0000 33.5029 0.0000
# 6 0.0000 0.0000 0.0000 15.3358 0.0000 47.8759
#
#
#
# Elastic Compliance Matrix: (Units=1/GPa)
#
#
# Indices 1 2 3 4 5 6 
#
# 1 0.014658 -0.001434 -0.002574 0.000000 -0.004891 0.000000
# 2 -0.001434 0.007067 0.000404 0.000000 -0.003421 0.000000
# 3 -0.002574 0.000404 0.015570 0.000000 -0.007438 0.000000
# 4 0.000000 0.000000 0.000000 -0.116984 0.000000 0.037473
# 5 -0.004891 -0.003421 -0.007438 0.000000 0.038136 0.000000
# 6 0.000000 0.000000 0.000000 0.037473 0.000000 0.008884
#
#
# Mechanical properties :
#
#
# Convention : Reuss Voigt Hill
#
# Bulk Modulus (GPa) = 33.23567 45.91832 39.57700
# Shear Modulus (GPa) = -323.98165 32.77589 -145.60288
#
# Velocity S-wave (km/s) = -11.16402 3.55089 -7.48420
# Velocity P-wave (km/s) = 12.38527 5.87167 7.71098
#
# Compressibility (1/GPa) = 0.03008815
#
# Stress axis : x y z
#
# Youngs Moduli (GPa) = 68.22123 141.50387 64.22696
#
# Poissons Ratio (x) = 0.20291 0.16532
# Poissons Ratio (y) = 0.09782 -0.02598
# Poissons Ratio (z) = 0.17560 -0.05724
#
# Static dielectric constant tensor:
#      x y z
#    x 4.021920 0.000000 -1.505820 
#    y 0.000000 1.997420 0.000000 
#    z -1.505820 0.000000 3.203510 
# 
# From -- ./inp_files/86085.got.cif
#   From: 2010.05.17/outbox.cif.g08.bks.cpg/sg15_44_cif.got.tgz:86085.got - 2010.06.03 18:47:42.
