data_PCOD9267500
_publ_section_title
;
Structure prediction by ZEFSAII (Michael W. Deem and Ramdas Pophale) SiO2 
 PCOD9267500
Probable space group: C 2/C
;
_chemical_formula_sum "Si O2"
_cell_formula_units_Z 56
_cell_length_a 22.606856
_cell_length_b 21.320581
_cell_length_c 15.299839
_cell_angle_alpha 90.000000
_cell_angle_beta 159.129551
_cell_angle_gamma 90.000000
_cell_volume 2627.171373
_symmetry_space_group_name_H-M "C 2/C"
_symmetry_group_IT_number 15
_symmetry_cell_setting 'monoclinic'
loop_
_space_group_symop_operation_xyz
x,y,z
-x,y,1/2-z
-x,-y,-z
x,-y,1/2+z
1/2+x,1/2+y,z
1/2-x,1/2+y,1/2-z
1/2-x,1/2-y,-z
1/2+x,1/2-y,1/2+z
loop_
_atom_site_type_symbol
_atom_site_label
_atom_site_fract_x
_atom_site_fract_y
_atom_site_fract_z
Si Si1 0.354478 0.180140 0.983602
Si Si2 0.727909 0.339260 0.874722
Si Si3 0.026682 0.746493 0.065756
Si Si4 0.347309 0.045936 0.901956
Si Si5 0.187290 0.508723 0.832849
Si Si6 0.979732 0.355456 0.361446
Si Si7 0.147817 0.020015 0.267575
O O1 0.298127 0.117407 0.854463
O O2 0.198335 0.215686 0.810452
O O3 0.500000 0.159549 0.250000
O O4 0.440575 0.229179 0.037255
O O5 0.598444 0.289266 0.662484
O O6 0.639680 0.405612 0.766029
O O7 0.827900 0.322212 0.100368
O O8 0.866400 0.353076 0.992157
O O9 0.036949 0.681658 0.025817
O O10 0.259922 0.016237 0.695129
O O11 0.306071 0.004832 0.930432
O O12 0.541870 0.041836 0.146331
O O13 0.092206 0.574995 0.721626
O O14 0.326712 0.496522 0.098134
O O15 0.000000 0.000000 0.000000
#
# Coordination Sequence:
#
# PCOD9267500 Si02
#       7
#     8   8   8   8   8   8   8
#     4  12  26  42  64  91 128 173 222 270 326 387
#     4  10  21  37  64  92 126 163 204 260 327 376
#     4  12  23  43  63  91 129 170 214 266 321 388
#     4  11  22  40  66  90 121 167 217 261 313 388
#     4  10  21  39  66  91 121 167 210 258 318 383
#     4  10  19  39  64  93 122 160 208 260 317 395
#     4  11  22  38  61  93 130 159 204 263 322 377
#
# _framework density 21.315701000000001
#
# number of rings (size 3 to 8) (size 9 to 14) (size 15 to 20)
#    0.000    1.143    4.286    3.000    0.000    0.571 
#    0.000    0.000    0.000    0.000    0.000    0.000 
#    0.000    0.000    0.000    0.000    0.000    0.000 
#
# Total GULP energy -156354.783820 kJ/mol
# GULP energy per Si atom -5584.099422 kJ/mol
# Density = 2.126719 g / cm^3
# Si number density = 21.315701 Si / 1000 Ang^3
#
#
#
# Elastic Constant Matrix: (Units=GPa)
#
#
# Indices 1 2 3 4 5 6 
#
# 1 44.3483 3.5615 5.6510 0.0000 -13.2197 0.0000
# 2 3.5615 62.5677 1.1030 0.0000 6.3280 0.0000
# 3 5.6510 1.1030 98.8210 0.0000 -16.6995 0.0000
# 4 0.0000 0.0000 0.0000 33.4448 0.0000 -1.1948
# 5 -13.2197 6.3280 -16.6995 0.0000 32.3406 0.0000
# 6 0.0000 0.0000 0.0000 -1.1948 0.0000 25.6127
#
#
#
# Elastic Compliance Matrix: (Units=1/GPa)
#
#
# Indices 1 2 3 4 5 6 
#
# 1 0.026110 -0.002651 0.000469 0.000000 0.011434 0.000000
# 2 -0.002651 0.016631 -0.000840 0.000000 -0.004772 0.000000
# 3 0.000469 -0.000840 0.011134 0.000000 0.006105 0.000000
# 4 0.000000 0.000000 0.000000 0.029950 0.000000 0.001397
# 5 0.011434 -0.004772 0.006105 0.000000 0.039681 0.000000
# 6 0.000000 0.000000 0.000000 0.001397 0.000000 0.039108
#
#
# Mechanical properties :
#
#
# Convention : Reuss Voigt Hill
#
# Bulk Modulus (GPa) = 20.90766 25.15202 23.02984
# Shear Modulus (GPa) = 27.08531 31.30773 29.19652
#
# Velocity S-wave (km/s) = 3.56852 3.83660 3.70499
# Velocity P-wave (km/s) = 5.17774 5.60816 5.39724
#
# Compressibility (1/GPa) = 0.04782935
#
# Stress axis : x y z
#
# Youngs Moduli (GPa) = 38.29928 60.12867 89.81862
#
# Poissons Ratio (x) = 0.15940 -0.04209
# Poissons Ratio (y) = 0.10153 0.07548
# Poissons Ratio (z) = -0.01795 0.05053
#
# Static dielectric constant tensor:
#      x y z
#    x 1.796360 0.000000 -0.012990 
#    y 0.000000 1.759190 0.000000 
#    z -0.012990 0.000000 1.820460 
# 
# From -- ./inp_files/174783.got.cif
#   From: 2010.05.17/outbox.cif.g08.bks.cpg/sg15_88_cif.got.tgz:174783.got - 2010.06.03 18:47:42.
