data_PCOD9267871
_publ_section_title
;
Structure prediction by ZEFSAII (Michael W. Deem and Ramdas Pophale) SiO2 
 PCOD9267871
Probable space group: C 2/C
;
_chemical_formula_sum "Si O2"
_cell_formula_units_Z 44
_cell_length_a 26.012909
_cell_length_b 12.185912
_cell_length_c 12.007311
_cell_angle_alpha 90.000000
_cell_angle_beta 150.466073
_cell_angle_gamma 90.000000
_cell_volume 1876.228641
_symmetry_space_group_name_H-M "C 2/C"
_symmetry_group_IT_number 15
_symmetry_cell_setting 'monoclinic'
loop_
_space_group_symop_operation_xyz
x,y,z
-x,y,1/2-z
-x,-y,-z
x,-y,1/2+z
1/2+x,1/2+y,z
1/2-x,1/2+y,1/2-z
1/2-x,1/2-y,-z
1/2+x,1/2-y,1/2+z
loop_
_atom_site_type_symbol
_atom_site_label
_atom_site_fract_x
_atom_site_fract_y
_atom_site_fract_z
Si Si1 0.283790 0.973890 0.597868
Si Si2 0.606434 0.900591 0.885341
Si Si3 0.917501 0.822532 0.295307
Si Si4 0.695086 0.621584 0.589003
Si Si5 0.411028 0.185051 0.498964
Si Si6 0.000000 0.038619 0.750000
O O1 0.369820 0.988513 0.665359
O O2 0.186331 0.895397 0.380115
O O3 0.231972 0.087573 0.536112
O O4 0.344124 0.906831 0.809153
O O5 0.500000 0.907015 0.750000
O O6 0.610457 0.784314 0.829279
O O7 0.703708 0.903857 0.148834
O O8 0.952035 0.770731 0.479412
O O9 0.991079 0.891339 0.348644
O O10 0.661630 0.742412 0.557820
O O11 0.601598 0.538179 0.442457
O O12 0.500000 0.144788 0.750000
#
# Coordination Sequence:
#
# PCOD9267871 Si02
#       6
#     8   8   8   8   8   4
#     4  10  22  40  64  91 128 168 212 261 315 380
#     4  11  21  39  66  88 123 174 217 249 312 388
#     4  10  19  40  68  91 121 168 219 261 313 381
#     4  11  22  37  63  97 125 162 209 264 313 375
#     4  11  21  38  64  95 127 165 202 267 323 364
#     4  10  22  36  66 100 122 158 218 276 310 374
#
# _framework density 23.451298999999999
#
# number of rings (size 3 to 8) (size 9 to 14) (size 15 to 20)
#    0.000    1.455    5.455    1.091    0.000    3.636 
#    0.000    1.818    0.000    7.636    0.000    0.000 
#    0.000    0.000    0.000    0.000    0.000    0.000 
#
# Total GULP energy -122939.182744 kJ/mol
# GULP energy per Si atom -5588.144670 kJ/mol
# Density = 2.339792 g / cm^3
# Si number density = 23.451299 Si / 1000 Ang^3
#
#
#
# Elastic Constant Matrix: (Units=GPa)
#
#
# Indices 1 2 3 4 5 6 
#
# 1 121.1056 21.5977 -3.3254 0.0000 25.5500 0.0000
# 2 21.5977 36.3785 -2.7195 0.0000 -4.5728 0.0000
# 3 -3.3254 -2.7195 76.4330 0.0000 7.0584 0.0000
# 4 0.0000 0.0000 0.0000 6.3108 0.0000 -7.6873
# 5 25.5500 -4.5728 7.0584 0.0000 25.4681 0.0000
# 6 0.0000 0.0000 0.0000 -7.6873 0.0000 38.5084
#
#
#
# Elastic Compliance Matrix: (Units=1/GPa)
#
#
# Indices 1 2 3 4 5 6 
#
# 1 0.013330 -0.009748 0.001672 0.000000 -0.015587 0.000000
# 2 -0.009748 0.035275 -0.000674 0.000000 0.016300 0.000000
# 3 0.001672 -0.000674 0.013648 0.000000 -0.005581 0.000000
# 4 0.000000 0.000000 0.000000 0.209370 0.000000 0.041796
# 5 -0.015587 0.016300 -0.005581 0.000000 0.059375 0.000000
# 6 0.000000 0.000000 0.000000 0.041796 0.000000 0.034312
#
#
# Mechanical properties :
#
#
# Convention : Reuss Voigt Hill
#
# Bulk Modulus (GPa) = 22.34520 29.44696 25.89608
# Shear Modulus (GPa) = 12.57147 28.61511 20.59329
#
# Velocity S-wave (km/s) = 2.31782 3.49692 2.96654
# Velocity P-wave (km/s) = 4.08804 5.37480 4.77496
#
# Compressibility (1/GPa) = 0.04475234
#
# Stress axis : x y z
#
# Youngs Moduli (GPa) = 75.01878 28.34898 73.27318
#
# Poissons Ratio (x) = 0.27635 -0.12255
# Poissons Ratio (y) = 0.73129 0.04941
# Poissons Ratio (z) = -0.12547 0.01912
#
# Static dielectric constant tensor:
#      x y z
#    x 1.920040 0.000000 -0.023040 
#    y 0.000000 1.905380 0.000000 
#    z -0.023040 0.000000 1.837030 
# 
# From -- ./inp_files/123258.got.cif
#   From: 2010.05.17/outbox.cif.g08.bks.cpg/sg15_62_cif.got.tgz:123258.got - 2010.06.03 18:47:42.
