data_PCOD9267435
_publ_section_title
;
Structure prediction by ZEFSAII (Michael W. Deem and Ramdas Pophale) SiO2 
 PCOD9267435
Probable space group: C 2/C
;
_chemical_formula_sum "Si O2"
_cell_formula_units_Z 64
_cell_length_a 23.175103
_cell_length_b 14.728372
_cell_length_c 18.008067
_cell_angle_alpha 90.000000
_cell_angle_beta 148.497724
_cell_angle_gamma 90.000000
_cell_volume 3211.861196
_symmetry_space_group_name_H-M "C 2/C"
_symmetry_group_IT_number 15
_symmetry_cell_setting 'monoclinic'
loop_
_space_group_symop_operation_xyz
x,y,z
-x,y,1/2-z
-x,-y,-z
x,-y,1/2+z
1/2+x,1/2+y,z
1/2-x,1/2+y,1/2-z
1/2-x,1/2-y,-z
1/2+x,1/2-y,1/2+z
loop_
_atom_site_type_symbol
_atom_site_label
_atom_site_fract_x
_atom_site_fract_y
_atom_site_fract_z
Si Si1 0.096718 0.079048 0.252111
Si Si2 0.202438 0.240426 0.287892
Si Si3 0.441531 0.978319 0.540105
Si Si4 0.695570 0.233211 0.258938
Si Si5 0.804593 0.443985 0.646743
Si Si6 0.997051 0.651382 0.966780
Si Si7 0.264770 0.405609 0.095407
Si Si8 0.351521 0.614545 0.018890
O O1 0.169725 0.140912 0.278269
O O2 0.126039 0.109585 0.368446
O O3 0.965802 0.093957 0.101938
O O4 0.133649 0.975145 0.283366
O O5 0.227791 0.247100 0.228369
O O6 0.093634 0.300684 0.182329
O O7 0.301772 0.289218 0.439974
O O8 0.564228 0.965389 0.709164
O O9 0.441240 0.914172 0.466890
O O10 0.343810 0.947949 0.485638
O O11 0.429802 0.082255 0.501223
O O12 0.716262 0.134836 0.316885
O O13 0.710506 0.310854 0.336790
O O14 0.571527 0.225050 0.090479
O O15 0.762985 0.404955 0.522343
O O16 0.736933 0.534472 0.592545
#
# Coordination Sequence:
#
# PCOD9267435 Si02
#       8
#     8   8   8   8   8   8   8   8
#     4  10  24  40  64  93 124 163 207 252 316 379
#     4  12  21  40  63  91 123 161 204 256 314 374
#     4  10  19  39  63  89 118 161 209 259 306 358
#     4  11  24  37  60  93 127 165 206 256 314 373
#     4  10  22  41  66  89 122 167 214 258 310 369
#     4  10  21  36  60  88 122 157 205 256 308 364
#     4  11  22  41  61  91 129 166 209 260 307 375
#     4  10  22  44  64  90 125 162 204 259 315 376
#
# _framework density 19.926141000000001
#
# number of rings (size 3 to 8) (size 9 to 14) (size 15 to 20)
#    0.000    1.500    2.500    2.625    0.000    2.000 
#    0.000    3.125    0.000    0.000    0.000    0.000 
#    0.000    0.000    0.000    0.000    0.000    0.000 
#
# Total GULP energy -178758.653944 kJ/mol
# GULP energy per Si atom -5586.207936 kJ/mol
# Density = 1.988079 g / cm^3
# Si number density = 19.926141 Si / 1000 Ang^3
#
#
#
# Elastic Constant Matrix: (Units=GPa)
#
#
# Indices 1 2 3 4 5 6 
#
# 1 51.0957 13.1086 1.8033 0.0000 6.8736 0.0000
# 2 13.1086 39.2071 17.9972 0.0000 -8.2621 0.0000
# 3 1.8033 17.9972 66.6557 0.0000 11.0274 0.0000
# 4 0.0000 0.0000 0.0000 28.2154 0.0000 1.1615
# 5 6.8736 -8.2621 11.0274 0.0000 24.5411 0.0000
# 6 0.0000 0.0000 0.0000 1.1615 0.0000 27.0733
#
#
#
# Elastic Compliance Matrix: (Units=1/GPa)
#
#
# Indices 1 2 3 4 5 6 
#
# 1 0.024759 -0.013654 0.005320 0.000000 -0.013922 0.000000
# 2 -0.013654 0.042268 -0.015157 0.000000 0.024865 0.000000
# 3 0.005320 -0.015157 0.021651 0.000000 -0.016322 0.000000
# 4 0.000000 0.000000 0.000000 0.035504 0.000000 -0.001523
# 5 -0.013922 0.024865 -0.016322 0.000000 0.060352 0.000000
# 6 0.000000 0.000000 0.000000 -0.001523 0.000000 0.037002
#
#
# Mechanical properties :
#
#
# Convention : Reuss Voigt Hill
#
# Bulk Modulus (GPa) = 23.98256 24.75297 24.36777
# Shear Modulus (GPa) = 17.70434 24.23590 20.97012
#
# Velocity S-wave (km/s) = 2.98400 3.49131 3.24758
# Velocity P-wave (km/s) = 4.89226 5.35740 5.13010
#
# Compressibility (1/GPa) = 0.04169697
#
# Stress axis : x y z
#
# Youngs Moduli (GPa) = 40.38923 23.65872 46.18713
#
# Poissons Ratio (x) = 0.32303 -0.24571
# Poissons Ratio (y) = 0.55147 0.70004
# Poissons Ratio (z) = -0.21487 0.35858
#
# Static dielectric constant tensor:
#      x y z
#    x 1.688840 0.000000 0.006330 
#    y 0.000000 1.689880 0.000000 
#    z 0.006330 0.000000 1.719410 
# 
# From -- ./inp_files/219751.got.cif
#   From: 2010.05.17/outbox.cif.g08.bks.cpg/sg15_110_cif.got.tgz:219751.got - 2010.06.03 18:47:42.
