data_PCOD9267119
_publ_section_title
;
Structure prediction by ZEFSAII (Michael W. Deem and Ramdas Pophale) SiO2 
 PCOD9267119
Probable space group: C 2/C
;
_chemical_formula_sum "Si O2"
_cell_formula_units_Z 56
_cell_length_a 9.771334
_cell_length_b 13.549896
_cell_length_c 20.902443
_cell_angle_alpha 90.000000
_cell_angle_beta 84.740257
_cell_angle_gamma 90.000000
_cell_volume 2755.842204
_symmetry_space_group_name_H-M "C 2/C"
_symmetry_group_IT_number 15
_symmetry_cell_setting 'monoclinic'
loop_
_space_group_symop_operation_xyz
x,y,z
-x,y,1/2-z
-x,-y,-z
x,-y,1/2+z
1/2+x,1/2+y,z
1/2-x,1/2+y,1/2-z
1/2-x,1/2-y,-z
1/2+x,1/2-y,1/2+z
loop_
_atom_site_type_symbol
_atom_site_label
_atom_site_fract_x
_atom_site_fract_y
_atom_site_fract_z
Si Si1 0.597837 0.528964 0.801872
Si Si2 0.942334 0.582168 0.954677
Si Si3 0.598643 0.897288 0.189516
Si Si4 0.489078 0.679421 0.152803
Si Si5 0.298480 0.222640 0.568380
Si Si6 0.344807 0.389704 0.973041
Si Si7 0.054832 0.901302 0.068015
O O1 0.500000 0.569455 0.750000
O O2 0.748810 0.576587 0.792074
O O3 0.570465 0.410384 0.802359
O O4 0.544968 0.556399 0.874560
O O5 0.911673 0.555389 0.881609
O O6 0.069282 0.654947 0.943948
O O7 0.805823 0.628889 0.992479
O O8 0.000000 0.500000 0.000000
O O9 0.500000 0.936278 0.250000
O O10 0.548194 0.781998 0.180623
O O11 0.355250 0.697059 0.113833
O O12 0.612404 0.646272 0.099248
O O13 0.250000 0.250000 0.500000
O O14 0.165699 0.165288 0.598971
O O15 0.363496 0.508867 0.969220
O O16 0.460166 0.352306 0.017897
#
# Coordination Sequence:
#
# PCOD9267119 Si02
#       7
#     8   8   8   8   8   8   8
#     4  11  25  44  72  91 128 188 232 272 343 417
#     4  11  23  38  65  98 132 171 226 283 336 401
#     4  11  26  45  69  97 142 182 229 282 349 417
#     4  10  24  42  70  98 137 171 225 288 343 408
#     4  11  22  35  61  97 135 167 206 278 351 397
#     4  10  19  38  65  94 132 169 213 281 339 399
#     4  10  20  37  62  96 129 166 222 269 337 403
#
# _framework density 20.320467000000001
#
# number of rings (size 3 to 8) (size 9 to 14) (size 15 to 20)
#    0.000    1.429    4.286    0.429    6.000    3.429 
#    0.000    0.000    6.286    0.000    0.000    0.000 
#    0.000    0.000    0.000    0.000    0.000    0.000 
#
# Total GULP energy -155948.570854 kJ/mol
# GULP energy per Si atom -5569.591816 kJ/mol
# Density = 2.027422 g / cm^3
# Si number density = 20.320467 Si / 1000 Ang^3
#
#
#
# Elastic Constant Matrix: (Units=GPa)
#
#
# Indices 1 2 3 4 5 6 
#
# 1 147.7884 19.9051 41.6626 0.0000 15.3723 0.0000
# 2 19.9051 36.4751 18.4959 0.0000 11.4720 0.0000
# 3 41.6626 18.4959 76.9068 0.0000 25.5934 0.0000
# 4 0.0000 0.0000 0.0000 22.2576 0.0000 13.3015
# 5 15.3723 11.4720 25.5934 0.0000 35.6841 0.0000
# 6 0.0000 0.0000 0.0000 13.3015 0.0000 25.1517
#
#
#
# Elastic Compliance Matrix: (Units=1/GPa)
#
#
# Indices 1 2 3 4 5 6 
#
# 1 0.008186 -0.002533 -0.003839 0.000000 0.000042 0.000000
# 2 -0.002533 0.033056 -0.004471 0.000000 -0.006329 0.000000
# 3 -0.003839 -0.004471 0.019872 0.000000 -0.011161 0.000000
# 4 0.000000 0.000000 0.000000 0.065690 0.000000 -0.034740
# 5 0.000042 -0.006329 -0.011161 0.000000 0.038046 0.000000
# 6 0.000000 0.000000 0.000000 -0.034740 0.000000 0.058131
#
#
# Mechanical properties :
#
#
# Convention : Reuss Voigt Hill
#
# Bulk Modulus (GPa) = 25.36361 46.81084 36.08723
# Shear Modulus (GPa) = 19.39412 28.69246 24.04329
#
# Velocity S-wave (km/s) = 3.09271 3.76173 3.44351
# Velocity P-wave (km/s) = 5.02613 6.47718 5.79723
#
# Compressibility (1/GPa) = 0.03942656
#
# Stress axis : x y z
#
# Youngs Moduli (GPa) = 122.16672 30.25138 50.32185
#
# Poissons Ratio (x) = 0.07664 0.19318
# Poissons Ratio (y) = 0.30950 0.22501
# Poissons Ratio (z) = 0.46898 0.13527
#
# Static dielectric constant tensor:
#      x y z
#    x 1.741030 0.000000 0.018690 
#    y 0.000000 1.908240 0.000000 
#    z 0.018690 0.000000 1.790610 
# 
# From -- ./inp_files/231602.got.cif
#   From: 2010.05.17/outbox.cif.g08.bks.cpg/sg15_116_cif.got.tgz:231602.got - 2010.06.03 18:47:42.
