data_PCOD9267960
_publ_section_title
;
Structure prediction by ZEFSAII (Michael W. Deem and Ramdas Pophale) SiO2 
 PCOD9267960
Probable space group: C 2/C
;
_chemical_formula_sum "Si O2"
_cell_formula_units_Z 64
_cell_length_a 11.959011
_cell_length_b 8.286815
_cell_length_c 26.991189
_cell_angle_alpha 90.000000
_cell_angle_beta 86.022191
_cell_angle_gamma 90.000000
_cell_volume 2668.440013
_symmetry_space_group_name_H-M "C 2/C"
_symmetry_group_IT_number 15
_symmetry_cell_setting 'monoclinic'
loop_
_space_group_symop_operation_xyz
x,y,z
-x,y,1/2-z
-x,-y,-z
x,-y,1/2+z
1/2+x,1/2+y,z
1/2-x,1/2+y,1/2-z
1/2-x,1/2-y,-z
1/2+x,1/2-y,1/2+z
loop_
_atom_site_type_symbol
_atom_site_label
_atom_site_fract_x
_atom_site_fract_y
_atom_site_fract_z
Si Si1 0.676380 0.842710 0.075440
Si Si2 0.613235 0.801613 0.578381
Si Si3 0.482468 0.811731 0.017225
Si Si4 0.353731 0.038892 0.749471
Si Si5 0.672966 0.825182 0.381218
Si Si6 0.375103 0.684162 0.742341
Si Si7 0.868543 0.305477 0.630593
Si Si8 0.017323 0.314452 0.176110
O O1 0.604337 0.756820 0.034222
O O2 0.795987 0.783587 0.090229
O O3 0.595818 0.832271 0.126456
O O4 0.674859 0.031055 0.062861
O O5 0.574141 0.723729 0.527637
O O6 0.701162 0.722331 0.612111
O O7 0.496865 0.822791 0.610349
O O8 0.396645 0.809354 0.065527
O O9 0.500000 0.000000 0.000000
O O10 0.226989 0.072564 0.738076
O O11 0.391850 0.193434 0.782152
O O12 0.448529 0.039176 0.704007
O O13 0.358392 0.857756 0.769653
O O14 0.595134 0.729534 0.342992
O O15 0.679248 0.014185 0.368695
O O16 0.500000 0.622662 0.750000
O O17 0.361610 0.715851 0.683605
#
# Coordination Sequence:
#
# PCOD9267960 Si02
#       8
#     8   8   8   8   8   8   8   8
#     4  10  21  41  66  87 127 163 200 253 307 365
#     4  11  23  41  64  93 124 163 206 251 307 369
#     4   9  18  41  66  89 123 169 201 248 312 360
#     4  11  22  41  66  85 124 162 206 252 312 360
#     4  11  21  39  68  89 125 163 203 255 305 365
#     4  12  25  42  63  92 124 163 206 258 304 369
#     4  12  23  42  61  93 125 161 204 254 312 362
#     4  10  19  41  63  86 118 171 195 248 312 361
#
# _framework density 23.984051999999998
#
# number of rings (size 3 to 8) (size 9 to 14) (size 15 to 20)
#    0.000    1.250    7.500    0.375    1.750    0.500 
#    6.750    0.625    0.000    0.000    0.000    0.000 
#    0.000    0.000    0.000    0.000    0.000    0.000 
#
# Total GULP energy -178180.067459 kJ/mol
# GULP energy per Si atom -5568.127108 kJ/mol
# Density = 2.392946 g / cm^3
# Si number density = 23.984052 Si / 1000 Ang^3
#
#
#
# Elastic Constant Matrix: (Units=GPa)
#
#
# Indices 1 2 3 4 5 6 
#
# 1 173.8822 37.2824 9.9023 0.0000 52.6814 0.0000
# 2 37.2824 18.5548 8.0040 0.0000 12.1849 0.0000
# 3 9.9023 8.0040 78.4684 0.0000 35.8971 0.0000
# 4 0.0000 0.0000 0.0000 14.9444 0.0000 8.6891
# 5 52.6814 12.1849 35.8971 0.0000 46.7386 0.0000
# 6 0.0000 0.0000 0.0000 8.6891 0.0000 28.7840
#
#
#
# Elastic Compliance Matrix: (Units=1/GPa)
#
#
# Indices 1 2 3 4 5 6 
#
# 1 0.016009 -0.023723 0.008981 0.000000 -0.018757 0.000000
# 2 -0.023723 0.100335 -0.011573 0.000000 0.009471 0.000000
# 3 0.008981 -0.011573 0.024731 0.000000 -0.026100 0.000000
# 4 0.000000 0.000000 0.000000 0.081160 0.000000 -0.024500
# 5 -0.018757 0.009471 -0.026100 0.000000 0.060114 0.000000
# 6 0.000000 0.000000 0.000000 -0.024500 0.000000 0.042137
#
#
# Mechanical properties :
#
#
# Convention : Reuss Voigt Hill
#
# Bulk Modulus (GPa) = 11.30678 42.36476 26.83577
# Shear Modulus (GPa) = 12.29711 32.47453 22.38582
#
# Velocity S-wave (km/s) = 2.26679 3.68367 3.05841
# Velocity P-wave (km/s) = 3.40230 5.98286 4.86674
#
# Compressibility (1/GPa) = 0.08844248
#
# Stress axis : x y z
#
# Youngs Moduli (GPa) = 62.46458 9.96661 40.43505
#
# Poissons Ratio (x) = 0.23644 -0.36313
# Poissons Ratio (y) = 1.48187 0.46797
# Poissons Ratio (z) = -0.56096 0.11535
#
# Static dielectric constant tensor:
#      x y z
#    x 1.967450 0.000000 0.119590 
#    y 0.000000 1.935530 0.000000 
#    z 0.119590 0.000000 2.087070 
# 
# From -- ./inp_files/310325.got.cif
#   From: 2010.05.17/outbox.cif.g08.bks.cpg/sg15_156_cif.got.tgz:310325.got - 2010.06.03 18:47:42.
