data_PCOD9267783
_publ_section_title
;
Structure prediction by ZEFSAII (Michael W. Deem and Ramdas Pophale) SiO2 
 PCOD9267783
Probable space group: C 2/C
;
_chemical_formula_sum "Si O2"
_cell_formula_units_Z 44
_cell_length_a 20.247230
_cell_length_b 19.197152
_cell_length_c 5.391690
_cell_angle_alpha 90.000000
_cell_angle_beta 120.997073
_cell_angle_gamma 90.000000
_cell_volume 1796.413290
_symmetry_space_group_name_H-M "C 2/C"
_symmetry_group_IT_number 15
_symmetry_cell_setting 'monoclinic'
loop_
_space_group_symop_operation_xyz
x,y,z
-x,y,1/2-z
-x,-y,-z
x,-y,1/2+z
1/2+x,1/2+y,z
1/2-x,1/2+y,1/2-z
1/2-x,1/2-y,-z
1/2+x,1/2-y,1/2+z
loop_
_atom_site_type_symbol
_atom_site_label
_atom_site_fract_x
_atom_site_fract_y
_atom_site_fract_z
Si Si1 0.500000 0.457356 0.750000
Si Si2 0.642814 0.043989 0.780353
Si Si3 0.598563 0.660729 0.317100
Si Si4 0.123904 0.705675 0.212076
Si Si5 0.000000 0.400777 0.250000
Si Si6 0.500000 0.730477 0.750000
Si Si7 0.252739 0.826962 0.879504
O O1 0.500000 0.500000 0.500000
O O2 0.422766 0.410670 0.596447
O O3 0.551611 0.060487 0.643043
O O4 0.659311 0.002744 0.558139
O O5 0.691716 0.115848 0.883553
O O6 0.619765 0.724167 0.539407
O O7 0.665843 0.648636 0.246197
O O8 0.521542 0.683686 0.022877
O O9 0.210217 0.679709 0.324988
O O10 0.078982 0.725696 0.374446
O O11 0.065039 0.647896 0.996861
O O12 0.250000 0.750000 0.000000
#
# Coordination Sequence:
#
# PCOD9267783 Si02
#       7
#     4   8   8   8   4   4   8
#     4  12  26  42  68  96 127 187 244 286 354 428
#     4  11  25  46  68 101 144 190 231 284 356 426
#     4  11  22  43  61  95 134 170 230 305 359 417
#     4  10  20  39  64  99 132 171 224 295 358 422
#     4  10  19  40  65 101 137 178 238 272 340 424
#     4  12  19  34  71  93 140 171 226 292 382 408
#     4   9  23  46  68 100 139 183 242 293 366 429
#
# _framework density 24.493251000000001
#
# number of rings (size 3 to 8) (size 9 to 14) (size 15 to 20)
#    0.000    1.455    3.636    1.091    0.000    5.091 
#    6.545    0.000    0.000    0.000    0.000    0.000 
#    0.000    0.000    0.000    0.000    0.000    0.000 
#
# Total GULP energy -122830.874067 kJ/mol
# GULP energy per Si atom -5583.221549 kJ/mol
# Density = 2.443750 g / cm^3
# Si number density = 24.493251 Si / 1000 Ang^3
#
#
#
# Elastic Constant Matrix: (Units=GPa)
#
#
# Indices 1 2 3 4 5 6 
#
# 1 198.8174 48.1846 21.7867 0.0000 -6.8201 0.0000
# 2 48.1846 120.1129 45.2013 0.0000 -4.9125 0.0000
# 3 21.7867 45.2013 64.3802 0.0000 -19.0809 0.0000
# 4 0.0000 0.0000 0.0000 18.0454 0.0000 -39.9804
# 5 -6.8201 -4.9125 -19.0809 0.0000 34.1399 0.0000
# 6 0.0000 0.0000 0.0000 -39.9804 0.0000 -0.9847
#
#
#
# Elastic Compliance Matrix: (Units=1/GPa)
#
#
# Indices 1 2 3 4 5 6 
#
# 1 0.005594 -0.002150 -0.000173 0.000000 0.000712 0.000000
# 2 -0.002150 0.012475 -0.009140 0.000000 -0.003743 0.000000
# 3 -0.000173 -0.009140 0.025898 0.000000 0.013125 0.000000
# 4 0.000000 0.000000 0.000000 0.000609 0.000000 -0.024737
# 5 0.000712 -0.003743 0.013125 0.000000 0.036230 0.000000
# 6 0.000000 0.000000 0.000000 -0.024737 0.000000 -0.011165
#
#
# Mechanical properties :
#
#
# Convention : Reuss Voigt Hill
#
# Bulk Modulus (GPa) = 47.52519 68.18398 57.85459
# Shear Modulus (GPa) = 50.21047 28.11599 39.16323
#
# Velocity S-wave (km/s) = 4.53257 3.39175 4.00301
# Velocity P-wave (km/s) = 6.84381 6.57548 6.71099
#
# Compressibility (1/GPa) = 0.02104147
#
# Stress axis : x y z
#
# Youngs Moduli (GPa) = 178.75795 80.16290 38.61252
#
# Poissons Ratio (x) = 0.17236 0.00666
# Poissons Ratio (y) = 0.38435 0.35292
# Poissons Ratio (z) = 0.03085 0.73270
#
# Static dielectric constant tensor:
#      x y z
#    x 2.011530 0.000000 -0.035860 
#    y 0.000000 2.015240 0.000000 
#    z -0.035860 0.000000 2.009390 
# 
# From -- ./inp_files/12893.got.cif
#   From: 2010.05.17/outbox.cif.g08.bks.cpg/sg15_7_cif.got.tgz:12893.got - 2010.06.03 18:47:42.
