data_PCOD9267854
_publ_section_title
;
Structure prediction by ZEFSAII (Michael W. Deem and Ramdas Pophale) SiO2 
 PCOD9267854
Probable space group: C 2/C
;
_chemical_formula_sum "Si O2"
_cell_formula_units_Z 36
_cell_length_a 15.798802
_cell_length_b 9.954702
_cell_length_c 14.701714
_cell_angle_alpha 90.000000
_cell_angle_beta 37.903128
_cell_angle_gamma 90.000000
_cell_volume 1420.433469
_symmetry_space_group_name_H-M "C 2/C"
_symmetry_group_IT_number 15
_symmetry_cell_setting 'monoclinic'
loop_
_space_group_symop_operation_xyz
x,y,z
-x,y,1/2-z
-x,-y,-z
x,-y,1/2+z
1/2+x,1/2+y,z
1/2-x,1/2+y,1/2-z
1/2-x,1/2-y,-z
1/2+x,1/2-y,1/2+z
loop_
_atom_site_type_symbol
_atom_site_label
_atom_site_fract_x
_atom_site_fract_y
_atom_site_fract_z
Si Si1 0.780824 0.029066 0.747492
Si Si2 0.500000 0.082812 0.250000
Si Si3 0.233459 0.604666 0.592971
Si Si4 0.977052 0.813604 0.639351
Si Si5 0.907349 0.700131 0.139936
O O1 0.648891 0.932055 0.865402
O O2 0.898597 0.954781 0.704356
O O3 0.797702 0.020866 0.623327
O O4 0.790700 0.186655 0.760242
O O5 0.474328 0.161722 0.178478
O O6 0.362363 0.993000 0.383608
O O7 0.372090 0.677277 0.441465
O O8 0.124254 0.703629 0.733041
O O9 0.002864 0.772461 0.512863
#
# Coordination Sequence:
#
# PCOD9267854 Si02
#       5
#     8   4   8   8   8
#     4  10  19  40  67  97 122 171 222 264 313 392
#     4  10  24  42  60 102 138 170 206 288 334 376
#     4  10  22  39  68  95 134 168 222 268 325 390
#     4  11  20  42  71  98 123 180 226 264 314 402
#     4  10  21  40  69  93 135 170 220 268 328 385
#
# _framework density 25.344374999999999
#
# number of rings (size 3 to 8) (size 9 to 14) (size 15 to 20)
#    0.000    1.778    4.444    2.667    0.000    4.444 
#    0.000   11.111    0.000    0.000    0.000    0.000 
#    0.000    0.000    0.000    0.000    0.000    0.000 
#
# Total GULP energy -100558.491831 kJ/mol
# GULP energy per Si atom -5586.582880 kJ/mol
# Density = 2.528669 g / cm^3
# Si number density = 25.344375 Si / 1000 Ang^3
#
#
#
# Elastic Constant Matrix: (Units=GPa)
#
#
# Indices 1 2 3 4 5 6 
#
# 1 165.7551 68.0694 41.5409 0.0000 -32.4486 0.0000
# 2 68.0694 123.6485 38.7041 0.0000 -23.0880 0.0000
# 3 41.5409 38.7041 79.4479 0.0000 -43.7753 0.0000
# 4 0.0000 0.0000 0.0000 24.9321 0.0000 -16.8353
# 5 -32.4486 -23.0880 -43.7753 0.0000 42.4578 0.0000
# 6 0.0000 0.0000 0.0000 -16.8353 0.0000 55.2381
#
#
#
# Elastic Compliance Matrix: (Units=1/GPa)
#
#
# Indices 1 2 3 4 5 6 
#
# 1 0.008474 -0.003800 -0.000347 0.000000 0.004052 0.000000
# 2 -0.003800 0.011262 -0.003995 0.000000 -0.000898 0.000000
# 3 -0.000347 -0.003995 0.030959 0.000000 0.029482 0.000000
# 4 0.000000 0.000000 0.000000 0.050502 0.000000 0.015392
# 5 0.004052 -0.000898 0.029482 0.000000 0.056558 0.000000
# 6 0.000000 0.000000 0.000000 0.015392 0.000000 0.022795
#
#
# Mechanical properties :
#
#
# Convention : Reuss Voigt Hill
#
# Bulk Modulus (GPa) = 29.05976 73.94226 51.50101
# Shear Modulus (GPa) = 24.00367 39.22807 31.61587
#
# Velocity S-wave (km/s) = 3.08084 3.93848 3.53576
# Velocity P-wave (km/s) = 4.91389 7.06544 6.08551
#
# Compressibility (1/GPa) = 0.03441185
#
# Stress axis : x y z
#
# Youngs Moduli (GPa) = 118.01489 88.79610 32.30110
#
# Poissons Ratio (x) = 0.33738 0.01120
# Poissons Ratio (y) = 0.44840 0.12903
# Poissons Ratio (z) = 0.04093 0.35472
#
# Static dielectric constant tensor:
#      x y z
#    x 1.977870 0.000000 0.007450 
#    y 0.000000 2.054170 0.000000 
#    z 0.007450 0.000000 2.156520 
# 
# From -- ./inp_files/248273.got.cif
#   From: 2010.05.17/outbox.cif.g08.bks.cpg/sg15_125_cif.got.tgz:248273.got - 2010.06.03 18:47:42.
