data_PCOD9267405
_publ_section_title
;
Structure prediction by ZEFSAII (Michael W. Deem and Ramdas Pophale) SiO2 
 PCOD9267405
Probable space group: C 2/C
;
_chemical_formula_sum "Si O2"
_cell_formula_units_Z 48
_cell_length_a 17.640146
_cell_length_b 9.127152
_cell_length_c 13.499643
_cell_angle_alpha 90.000000
_cell_angle_beta 89.186569
_cell_angle_gamma 90.000000
_cell_volume 2173.281451
_symmetry_space_group_name_H-M "C 2/C"
_symmetry_group_IT_number 15
_symmetry_cell_setting 'monoclinic'
loop_
_space_group_symop_operation_xyz
x,y,z
-x,y,1/2-z
-x,-y,-z
x,-y,1/2+z
1/2+x,1/2+y,z
1/2-x,1/2+y,1/2-z
1/2-x,1/2-y,-z
1/2+x,1/2-y,1/2+z
loop_
_atom_site_type_symbol
_atom_site_label
_atom_site_fract_x
_atom_site_fract_y
_atom_site_fract_z
Si Si1 0.800081 0.048871 0.820473
Si Si2 0.362300 0.896186 0.250976
Si Si3 0.904326 0.705823 0.309821
Si Si4 0.575111 0.609592 0.316945
Si Si5 0.328617 0.710553 0.447026
Si Si6 0.958154 0.825768 0.093832
O O1 0.711814 0.037516 0.799556
O O2 0.822838 0.219011 0.827197
O O3 0.851974 0.969663 0.735329
O O4 0.822544 0.959412 0.917236
O O5 0.404827 0.781220 0.178232
O O6 0.336182 0.801509 0.345968
O O7 0.407644 0.033090 0.294474
O O8 0.928922 0.771473 0.202716
O O9 0.956800 0.766330 0.397633
O O10 0.500000 0.601488 0.250000
O O11 0.551284 0.502165 0.406032
O O12 0.250000 0.750000 0.500000
O O13 0.402435 0.736774 0.512413
#
# Coordination Sequence:
#
# PCOD9267405 Si02
#       6
#     8   8   8   8   8   8
#     4  10  20  40  61  86 121 167 204 252 315 376
#     4  11  23  37  64  92 125 160 214 259 312 374
#     4  10  20  39  61  89 122 166 200 254 319 368
#     4  10  19  39  62  91 118 164 209 242 311 377
#     4  11  23  39  61  90 122 165 212 260 308 365
#     4  10  20  39  63  84 126 161 204 252 308 375
#
# _framework density 22.086417000000001
#
# number of rings (size 3 to 8) (size 9 to 14) (size 15 to 20)
#    0.000    1.667    3.333    5.000    2.333    1.333 
#    0.000    5.000    0.000    0.000    0.000    0.000 
#    0.000    0.000    0.000    0.000    0.000    0.000 
#
# Total GULP energy -133869.036968 kJ/mol
# GULP energy per Si atom -5577.876540 kJ/mol
# Density = 2.203615 g / cm^3
# Si number density = 22.086417 Si / 1000 Ang^3
#
#
#
# Elastic Constant Matrix: (Units=GPa)
#
#
# Indices 1 2 3 4 5 6 
#
# 1 73.2915 18.4900 18.1722 0.0000 26.3297 0.0000
# 2 18.4900 140.2043 3.7261 0.0000 -7.8168 0.0000
# 3 18.1722 3.7261 44.9507 0.0000 16.2490 0.0000
# 4 0.0000 0.0000 0.0000 8.2435 0.0000 10.9885
# 5 26.3297 -7.8168 16.2490 0.0000 33.0791 0.0000
# 6 0.0000 0.0000 0.0000 10.9885 0.0000 24.0401
#
#
#
# Elastic Compliance Matrix: (Units=1/GPa)
#
#
# Indices 1 2 3 4 5 6 
#
# 1 0.021050 -0.003637 -0.002238 0.000000 -0.016515 0.000000
# 2 -0.003637 0.007938 -0.001109 0.000000 0.005316 0.000000
# 3 -0.002238 -0.001109 0.027594 0.000000 -0.012035 0.000000
# 4 0.000000 0.000000 0.000000 0.310488 0.000000 -0.141921
# 5 -0.016515 0.005316 -0.012035 0.000000 0.050544 0.000000
# 6 0.000000 0.000000 0.000000 -0.141921 0.000000 0.106468
#
#
# Mechanical properties :
#
#
# Convention : Reuss Voigt Hill
#
# Bulk Modulus (GPa) = 23.46761 37.69144 30.57952
# Shear Modulus (GPa) = 9.05380 27.60975 18.33177
#
# Velocity S-wave (km/s) = 2.02686 3.53948 2.88410
# Velocity P-wave (km/s) = 4.01572 5.81433 4.99662
#
# Compressibility (1/GPa) = 0.04261193
#
# Stress axis : x y z
#
# Youngs Moduli (GPa) = 47.50684 125.97689 36.23987
#
# Poissons Ratio (x) = 0.45821 0.08112
# Poissons Ratio (y) = 0.17279 0.04019
# Poissons Ratio (z) = 0.10634 0.13972
#
# Static dielectric constant tensor:
#      x y z
#    x 2.066620 0.000000 -0.153160 
#    y 0.000000 1.866470 0.000000 
#    z -0.153160 0.000000 1.837830 
# 
# From -- ./inp_files/159697.got.cif
#   From: 2010.05.17/outbox.cif.g08.bks.cpg/sg15_80_cif.got.tgz:159697.got - 2010.06.03 18:47:42.
