data_PCOD9267906
_publ_section_title
;
Structure prediction by ZEFSAII (Michael W. Deem and Ramdas Pophale) SiO2 
 PCOD9267906
Probable space group: C 2/C
;
_chemical_formula_sum "Si O2"
_cell_formula_units_Z 52
_cell_length_a 9.703495
_cell_length_b 21.282976
_cell_length_c 19.921755
_cell_angle_alpha 90.000000
_cell_angle_beta 149.903338
_cell_angle_gamma 90.000000
_cell_volume 2063.121104
_symmetry_space_group_name_H-M "C 2/C"
_symmetry_group_IT_number 15
_symmetry_cell_setting 'monoclinic'
loop_
_space_group_symop_operation_xyz
x,y,z
-x,y,1/2-z
-x,-y,-z
x,-y,1/2+z
1/2+x,1/2+y,z
1/2-x,1/2+y,1/2-z
1/2-x,1/2-y,-z
1/2+x,1/2-y,1/2+z
loop_
_atom_site_type_symbol
_atom_site_label
_atom_site_fract_x
_atom_site_fract_y
_atom_site_fract_z
Si Si1 0.500000 0.000000 0.500000
Si Si2 0.881071 0.356263 0.989435
Si Si3 0.151674 0.146020 0.142591
Si Si4 0.500000 0.940013 0.250000
Si Si5 0.985535 0.536358 0.354892
Si Si6 0.714113 0.279701 0.254049
Si Si7 0.500000 0.270985 0.750000
Si Si8 0.549269 0.372155 0.443134
O O1 0.587074 0.927785 0.517530
O O2 0.655043 0.993632 0.640190
O O3 0.645957 0.351082 0.947901
O O4 0.756954 0.315312 0.875957
O O5 0.152327 0.323354 0.132987
O O6 0.299257 0.084630 0.234914
O O7 0.312728 0.208948 0.231508
O O8 0.126817 0.143437 0.052282
O O9 0.745999 0.901108 0.321778
O O10 0.602937 0.984973 0.353149
O O11 0.243616 0.574267 0.494314
O O12 0.461316 0.314120 0.111935
O O13 0.932721 0.270825 0.285501
#
# Coordination Sequence:
#
# PCOD9267906 Si02
#       8
#     4   8   8   4   8   8   4   8
#     4  12  26  44  64  98 148 182 236 294 362 428
#     4  11  23  42  66 105 138 190 236 296 365 433
#     4  11  23  44  72 102 142 187 244 298 364 433
#     4  12  25  48  74 102 139 186 248 296 354 438
#     4  12  27  45  69 103 138 194 238 294 367 433
#     4  11  22  40  69 104 138 181 243 300 357 431
#     4  10  19  40  70  98 135 184 236 298 358 428
#     4  12  24  45  72 104 140 186 242 302 359 434
#
# _framework density 25.204529999999998
#
# number of rings (size 3 to 8) (size 9 to 14) (size 15 to 20)
#    0.000    0.615    1.538    9.231    2.154    0.615 
#    5.538    1.538    0.000    0.000    0.000    0.000 
#    0.000    0.000    0.000    0.000    0.000    0.000 
#
# Total GULP energy -145293.374734 kJ/mol
# GULP energy per Si atom -5588.206721 kJ/mol
# Density = 2.514716 g / cm^3
# Si number density = 25.204530 Si / 1000 Ang^3
#
#
#
# Elastic Constant Matrix: (Units=GPa)
#
#
# Indices 1 2 3 4 5 6 
#
# 1 72.8955 3.6667 11.7529 0.0038 -5.4449 0.0069
# 2 3.6667 111.7493 41.8762 0.0086 -8.3343 -0.0235
# 3 11.7529 41.8762 103.8850 0.0144 -20.7239 0.0707
# 4 0.0038 0.0086 0.0144 -16.5157 -0.0351 -13.7135
# 5 -5.4449 -8.3343 -20.7239 -0.0351 38.8035 -0.0426
# 6 0.0069 -0.0235 0.0707 -13.7135 -0.0426 -94.3029
#
#
#
# Elastic Compliance Matrix: (Units=1/GPa)
#
#
# Indices 1 2 3 4 5 6 
#
# 1 0.014030 0.000158 -0.001401 0.000000 0.001255 -0.000001
# 2 0.000158 0.010543 -0.004266 0.000008 0.000008 -0.000007
# 3 -0.001401 -0.004266 0.012627 -0.000011 0.005631 0.000010
# 4 0.000000 0.000008 -0.000011 -0.068864 -0.000056 0.010014
# 5 0.001255 0.000008 0.005631 -0.000056 0.028956 -0.000001
# 6 -0.000001 -0.000007 0.000010 0.010014 -0.000001 -0.012060
#
#
# Mechanical properties :
#
#
# Convention : Reuss Voigt Hill
#
# Bulk Modulus (GPa) = 38.19307 44.79127 41.49217
# Shear Modulus (GPa) = 1004.63031 1.01257 502.82144
#
# Velocity S-wave (km/s) = 19.98641 0.63452 14.13964
# Velocity P-wave (km/s) = 23.40502 4.28328 16.82470
#
# Compressibility (1/GPa) = 0.02618276
#
# Stress axis : x y z
#
# Youngs Moduli (GPa) = 71.27655 94.85295 79.19232
#
# Poissons Ratio (x) = -0.01500 0.11093
# Poissons Ratio (y) = -0.01127 0.33783
# Poissons Ratio (z) = 0.09984 0.40464
#
# Static dielectric constant tensor:
#      x y z
#    x 1.743850 -0.000030 0.022880 
#    y -0.000030 1.969040 0.000000 
#    z 0.022880 0.000000 1.970390 
# 
# From -- ./inp_files/240572.got.cif
#   From: 2010.05.17/outbox.cif.g08.bks.cpg/sg15_121_cif.got.tgz:240572.got - 2010.06.03 18:47:42.
