data_PCOD9267934
_publ_section_title
;
Structure prediction by ZEFSAII (Michael W. Deem and Ramdas Pophale) SiO2 
 PCOD9267934
Probable space group: C 2/C
;
_chemical_formula_sum "Si O2"
_cell_formula_units_Z 40
_cell_length_a 7.580233
_cell_length_b 16.629032
_cell_length_c 14.925377
_cell_angle_alpha 90.000000
_cell_angle_beta 49.154003
_cell_angle_gamma 90.000000
_cell_volume 1423.202457
_symmetry_space_group_name_H-M "C 2/C"
_symmetry_group_IT_number 15
_symmetry_cell_setting 'monoclinic'
loop_
_space_group_symop_operation_xyz
x,y,z
-x,y,1/2-z
-x,-y,-z
x,-y,1/2+z
1/2+x,1/2+y,z
1/2-x,1/2+y,1/2-z
1/2-x,1/2-y,-z
1/2+x,1/2-y,1/2+z
loop_
_atom_site_type_symbol
_atom_site_label
_atom_site_fract_x
_atom_site_fract_y
_atom_site_fract_z
Si Si1 0.580556 0.494033 0.828111
Si Si2 0.647053 0.775783 0.878651
Si Si3 0.418164 0.340561 0.959431
Si Si4 0.877851 0.361981 0.184201
Si Si5 0.635138 0.922542 0.498480
O O1 0.500000 0.482470 0.750000
O O2 0.792654 0.554774 0.755653
O O3 0.373916 0.539298 0.950871
O O4 0.592845 0.409096 0.871424
O O5 0.487310 0.718345 0.995576
O O6 0.758038 0.715243 0.769754
O O7 0.836767 0.802855 0.891102
O O8 0.522886 0.859944 0.894122
O O9 0.159438 0.364188 0.083301
O O10 0.790841 0.369371 0.111733
O O11 0.500000 0.000000 0.500000
#
# Coordination Sequence:
#
# PCOD9267934 Si02
#       5
#     8   8   8   8   8
#     4  10  21  36  63  85 119 164 198 244 307 359
#     4  10  21  36  61  85 118 156 197 257 297 344
#     4  10  21  40  58  91 121 155 207 248 295 369
#     4  10  21  37  59  92 120 154 201 252 295 358
#     4  10  19  41  59  88 118 159 202 249 291 372
#
# _framework density 28.105629
#
# number of rings (size 3 to 8) (size 9 to 14) (size 15 to 20)
#    0.000    2.000    4.000    0.600    0.000    6.400 
#    0.000    0.000    0.000    0.000    0.000    0.000 
#    0.000    0.000    0.000    0.000    0.000    0.000 
#
# Total GULP energy -111829.096428 kJ/mol
# GULP energy per Si atom -5591.454821 kJ/mol
# Density = 2.804166 g / cm^3
# Si number density = 28.105629 Si / 1000 Ang^3
#
#
#
# Elastic Constant Matrix: (Units=GPa)
#
#
# Indices 1 2 3 4 5 6 
#
# 1 45.7463 9.8821 26.6903 0.0000 3.2332 0.0000
# 2 9.8821 216.0710 109.6822 0.0000 -26.8441 0.0000
# 3 26.6903 109.6822 155.3619 0.0000 -9.7391 0.0000
# 4 0.0000 0.0000 0.0000 70.9280 0.0000 -11.9018
# 5 3.2332 -26.8441 -9.7391 0.0000 49.4782 0.0000
# 6 0.0000 0.0000 0.0000 -11.9018 0.0000 32.4686
#
#
#
# Elastic Compliance Matrix: (Units=1/GPa)
#
#
# Indices 1 2 3 4 5 6 
#
# 1 0.024815 0.001323 -0.005319 0.000000 -0.001951 0.000000
# 2 0.001323 0.007735 -0.005498 0.000000 0.003028 0.000000
# 3 -0.005319 -0.005498 0.011205 0.000000 -0.000430 0.000000
# 4 0.000000 0.000000 0.000000 0.015023 0.000000 0.005507
# 5 -0.001951 0.003028 -0.000430 0.000000 0.021896 0.000000
# 6 0.000000 0.000000 0.000000 0.005507 0.000000 0.032818
#
#
# Mechanical properties :
#
#
# Convention : Reuss Voigt Hill
#
# Bulk Modulus (GPa) = 40.37782 78.85426 59.61604
# Shear Modulus (GPa) = 35.52750 48.63661 42.08206
#
# Velocity S-wave (km/s) = 3.55923 4.16443 3.87367
# Velocity P-wave (km/s) = 5.59361 7.15826 6.42375
#
# Compressibility (1/GPa) = 0.02476607
#
# Stress axis : x y z
#
# Youngs Moduli (GPa) = 40.29763 129.28846 89.24651
#
# Poissons Ratio (x) = -0.17104 0.47474
# Poissons Ratio (y) = -0.05331 0.49067
# Poissons Ratio (z) = 0.21436 0.71082
#
# Static dielectric constant tensor:
#      x y z
#    x 2.240880 0.000000 0.028710 
#    y 0.000000 2.342760 0.000000 
#    z 0.028710 0.000000 2.256840 
# 
# From -- ./inp_files/197601.got.cif
#   From: 2010.05.17/outbox.cif.g08.bks.cpg/sg15_99_cif.got.tgz:197601.got - 2010.06.03 18:47:42.
