data_PCOD9267904
_publ_section_title
;
Structure prediction by ZEFSAII (Michael W. Deem and Ramdas Pophale) SiO2 
 PCOD9267904
Probable space group: C 2/C
;
_chemical_formula_sum "Si O2"
_cell_formula_units_Z 28
_cell_length_a 8.674569
_cell_length_b 11.559839
_cell_length_c 12.481685
_cell_angle_alpha 90.000000
_cell_angle_beta 63.377373
_cell_angle_gamma 90.000000
_cell_volume 1118.920988
_symmetry_space_group_name_H-M "C 2/C"
_symmetry_group_IT_number 15
_symmetry_cell_setting 'monoclinic'
loop_
_space_group_symop_operation_xyz
x,y,z
-x,y,1/2-z
-x,-y,-z
x,-y,1/2+z
1/2+x,1/2+y,z
1/2-x,1/2+y,1/2-z
1/2-x,1/2-y,-z
1/2+x,1/2-y,1/2+z
loop_
_atom_site_type_symbol
_atom_site_label
_atom_site_fract_x
_atom_site_fract_y
_atom_site_fract_z
Si Si1 0.632543 0.354031 0.869168
Si Si2 0.523199 0.391083 0.365352
Si Si3 0.363610 0.825640 0.382644
Si Si4 0.000000 0.454605 0.750000
O O1 0.522923 0.469237 0.873932
O O2 0.539393 0.250107 0.837223
O O3 0.829830 0.380838 0.777513
O O4 0.609573 0.342801 0.004886
O O5 0.500000 0.358859 0.250000
O O6 0.710567 0.353977 0.346909
O O7 0.250000 0.750000 0.500000
O O8 0.443542 0.956543 0.363073
#
# Coordination Sequence:
#
# PCOD9267904 Si02
#       4
#     8   8   8   4
#     4  10  19  40  70  96 140 180 214 282 338 391
#     4  10  21  38  69 102 134 174 230 275 331 400
#     4   9  19  39  65  97 134 171 225 272 331 404
#     4   8  20  38  66 104 130 168 234 260 334 412
#
# _framework density 25.024107999999998
#
# number of rings (size 3 to 8) (size 9 to 14) (size 15 to 20)
#    0.857    1.714    0.000    1.714    0.000    0.000 
#    2.571    7.143    6.286    0.000    0.000    0.000 
#    0.000    0.000    0.000    0.000    0.000    0.000 
#
# Total GULP energy -77996.701169 kJ/mol
# GULP energy per Si atom -5571.192941 kJ/mol
# Density = 2.496715 g / cm^3
# Si number density = 25.024108 Si / 1000 Ang^3
#
#
#
# Elastic Constant Matrix: (Units=GPa)
#
#
# Indices 1 2 3 4 5 6 
#
# 1 147.6080 72.6253 56.0458 0.0000 -18.7425 0.0000
# 2 72.6253 136.4362 12.4916 0.0000 -0.6925 0.0000
# 3 56.0458 12.4916 107.9296 0.0000 1.8298 0.0000
# 4 0.0000 0.0000 0.0000 230.8068 0.0000 -41.6883
# 5 -18.7425 -0.6925 1.8298 0.0000 66.4190 0.0000
# 6 0.0000 0.0000 0.0000 -41.6883 0.0000 55.9869
#
#
#
# Elastic Compliance Matrix: (Units=1/GPa)
#
#
# Indices 1 2 3 4 5 6 
#
# 1 0.012420 -0.006061 -0.005809 0.000000 0.003601 0.000000
# 2 -0.006061 0.010366 0.001976 0.000000 -0.001657 0.000000
# 3 -0.005809 0.001976 0.012086 0.000000 -0.001952 0.000000
# 4 0.000000 0.000000 0.000000 0.005006 0.000000 0.003727
# 5 0.003601 -0.001657 -0.001952 0.000000 0.016109 0.000000
# 6 0.000000 0.000000 0.000000 0.003727 0.000000 0.020637
#
#
# Mechanical properties :
#
#
# Convention : Reuss Voigt Hill
#
# Bulk Modulus (GPa) = 66.29595 74.92213 70.60904
# Shear Modulus (GPa) = 49.29033 87.36328 68.32680
#
# Velocity S-wave (km/s) = 4.44296 5.91502 5.23103
# Velocity P-wave (km/s) = 7.27119 8.75528 8.04752
#
# Compressibility (1/GPa) = 0.01508388
#
# Stress axis : x y z
#
# Youngs Moduli (GPa) = 80.51767 96.46577 82.73929
#
# Poissons Ratio (x) = 0.58467 0.48062
# Poissons Ratio (y) = 0.48801 -0.16346
# Poissons Ratio (z) = 0.46772 -0.19058
#
# Static dielectric constant tensor:
#      x y z
#    x 1.898010 0.000000 -0.090820 
#    y 0.000000 1.936080 0.000000 
#    z -0.090820 0.000000 1.775900 
# 
# From -- ./inp_files/131669.got.cif
#   From: 2010.05.17/outbox.cif.g08.bks.cpg/sg15_66_cif.got.tgz:131669.got - 2010.06.03 18:47:42.
