data_PCOD9267682
_publ_section_title
;
Structure prediction by ZEFSAII (Michael W. Deem and Ramdas Pophale) SiO2 
 PCOD9267682
Probable space group: C 2/C
;
_chemical_formula_sum "Si O2"
_cell_formula_units_Z 48
_cell_length_a 12.412880
_cell_length_b 26.284642
_cell_length_c 7.457289
_cell_angle_alpha 90.000000
_cell_angle_beta 52.121569
_cell_angle_gamma 90.000000
_cell_volume 1920.463713
_symmetry_space_group_name_H-M "C 2/C"
_symmetry_group_IT_number 15
_symmetry_cell_setting 'monoclinic'
loop_
_space_group_symop_operation_xyz
x,y,z
-x,y,1/2-z
-x,-y,-z
x,-y,1/2+z
1/2+x,1/2+y,z
1/2-x,1/2+y,1/2-z
1/2-x,1/2-y,-z
1/2+x,1/2-y,1/2+z
loop_
_atom_site_type_symbol
_atom_site_label
_atom_site_fract_x
_atom_site_fract_y
_atom_site_fract_z
Si Si1 0.011874 0.132713 0.023459
Si Si2 0.800101 0.960471 0.091723
Si Si3 0.273471 0.569969 0.202904
Si Si4 0.469700 0.083980 0.565601
Si Si5 0.665542 0.268437 0.256346
Si Si6 0.431774 0.197653 0.627087
O O1 0.000000 0.146159 0.250000
O O2 0.864230 0.120264 0.090387
O O3 0.094249 0.079331 0.932223
O O4 0.090282 0.177341 0.843602
O O5 0.653302 0.955107 0.339689
O O6 0.835361 0.019606 0.050570
O O7 0.783970 0.941396 0.905073
O O8 0.114052 0.576005 0.321863
O O9 0.500000 0.081836 0.750000
O O10 0.413754 0.140056 0.578599
O O11 0.545754 0.228311 0.404807
O O12 0.787344 0.274278 0.276604
O O13 0.750000 0.250000 0.000000
O O14 0.500000 0.193337 0.750000
#
# Coordination Sequence:
#
# PCOD9267682 Si02
#       6
#     8   8   8   8   8   8
#     4  10  22  41  69  94 134 181 232 273 335 419
#     4  10  19  40  60  96 133 174 223 278 332 403
#     4  10  21  36  65  97 131 176 224 280 332 407
#     4   9  19  37  64  92 128 171 228 274 327 397
#     4  12  26  46  67 102 140 171 224 300 364 408
#     4  11  24  44  73  96 128 181 237 277 340 431
#
# _framework density 24.993963999999998
#
# number of rings (size 3 to 8) (size 9 to 14) (size 15 to 20)
#    0.000    1.667    1.667    2.500    4.667    0.000 
#    3.000    0.000    0.000    0.000    0.000    0.000 
#    0.000    0.000    0.000    0.000    0.000    0.000 
#
# Total GULP energy -134341.568651 kJ/mol
# GULP energy per Si atom -5597.565360 kJ/mol
# Density = 2.493708 g / cm^3
# Si number density = 24.993964 Si / 1000 Ang^3
#
#
#
# Elastic Constant Matrix: (Units=GPa)
#
#
# Indices 1 2 3 4 5 6 
#
# 1 63.6650 21.1549 27.9745 0.0000 -19.6043 0.0000
# 2 21.1549 94.6130 56.5268 0.0000 0.6876 0.0000
# 3 27.9745 56.5268 108.3989 0.0000 -22.2195 0.0000
# 4 0.0000 0.0000 0.0000 39.0919 0.0000 -18.8447
# 5 -19.6043 0.6876 -22.2195 0.0000 30.8223 0.0000
# 6 0.0000 0.0000 0.0000 -18.8447 0.0000 27.7013
#
#
#
# Elastic Compliance Matrix: (Units=1/GPa)
#
#
# Indices 1 2 3 4 5 6 
#
# 1 0.021619 -0.004749 -0.000308 0.000000 0.013635 0.000000
# 2 -0.004749 0.017878 -0.010324 0.000000 -0.010862 0.000000
# 3 -0.000308 -0.010324 0.017243 0.000000 0.012465 0.000000
# 4 0.000000 0.000000 0.000000 0.038063 0.000000 0.025894
# 5 0.013635 -0.010862 0.012465 0.000000 0.050344 0.000000
# 6 0.000000 0.000000 0.000000 0.025894 0.000000 0.053714
#
#
# Mechanical properties :
#
#
# Convention : Reuss Voigt Hill
#
# Bulk Modulus (GPa) = 38.49268 53.10993 45.80130
# Shear Modulus (GPa) = 20.98343 30.25782 25.62063
#
# Velocity S-wave (km/s) = 2.90062 3.48315 3.20515
# Velocity P-wave (km/s) = 5.16259 6.12141 5.66233
#
# Compressibility (1/GPa) = 0.02597897
#
# Stress axis : x y z
#
# Youngs Moduli (GPa) = 46.25553 55.93428 57.99376
#
# Poissons Ratio (x) = 0.26563 0.01786
# Poissons Ratio (y) = 0.21967 0.59871
# Poissons Ratio (z) = 0.01424 0.57745
#
# Static dielectric constant tensor:
#      x y z
#    x 2.006280 0.000000 0.025960 
#    y 0.000000 1.952580 0.000000 
#    z 0.025960 0.000000 2.012810 
# 
# From -- ./inp_files/43844.got.cif
#   From: 2010.05.17/outbox.cif.g08.bks.cpg/sg15_22_cif.got.tgz:43844.got - 2010.06.03 18:47:42.
