data_PCOD9267104
_publ_section_title
;
Structure prediction by ZEFSAII (Michael W. Deem and Ramdas Pophale) SiO2 
 PCOD9267104
Probable space group: C 2/C
;
_chemical_formula_sum "Si O2"
_cell_formula_units_Z 32
_cell_length_a 11.103907
_cell_length_b 9.436200
_cell_length_c 10.912615
_cell_angle_alpha 90.000000
_cell_angle_beta 83.812073
_cell_angle_gamma 90.000000
_cell_volume 1136.747626
_symmetry_space_group_name_H-M "C 2/C"
_symmetry_group_IT_number 15
_symmetry_cell_setting 'monoclinic'
loop_
_space_group_symop_operation_xyz
x,y,z
-x,y,1/2-z
-x,-y,-z
x,-y,1/2+z
1/2+x,1/2+y,z
1/2-x,1/2+y,1/2-z
1/2-x,1/2-y,-z
1/2+x,1/2-y,1/2+z
loop_
_atom_site_type_symbol
_atom_site_label
_atom_site_fract_x
_atom_site_fract_y
_atom_site_fract_z
Si Si1 0.901023 0.858084 0.163222
Si Si2 0.311093 0.043518 0.558918
Si Si3 0.587450 0.644214 0.452871
Si Si4 0.131147 0.594259 0.702579
O O1 0.759370 0.822213 0.187933
O O2 0.000000 0.805508 0.250000
O O3 0.905946 0.031619 0.156698
O O4 0.957532 0.822232 0.024630
O O5 0.351731 0.205934 0.570023
O O6 0.168848 0.061906 0.547437
O O7 0.348809 0.982686 0.686546
O O8 0.369973 0.977507 0.431273
O O9 0.000000 0.659924 0.750000
#
# Coordination Sequence:
#
# PCOD9267104 Si02
#       4
#     8   8   8   8
#     4  10  19  38  65  91 126 166 216 266 312 373
#     4  10  21  41  64  94 130 169 211 260 326 382
#     4   9  20  38  64  93 124 169 215 264 317 376
#     4  11  23  40  63  92 132 170 206 264 321 379
#
# _framework density 28.150483999999999
#
# number of rings (size 3 to 8) (size 9 to 14) (size 15 to 20)
#    0.000    2.000    2.500    0.750    0.000    2.000 
#    4.500    1.250    0.000    0.000    0.000    0.000 
#    0.000    0.000    0.000    0.000    0.000    0.000 
#
# Total GULP energy -89375.694657 kJ/mol
# GULP energy per Si atom -5585.980916 kJ/mol
# Density = 2.808641 g / cm^3
# Si number density = 28.150484 Si / 1000 Ang^3
#
#
#
# Elastic Constant Matrix: (Units=GPa)
#
#
# Indices 1 2 3 4 5 6 
#
# 1 193.0953 11.6369 52.6542 0.0000 -24.5048 0.0000
# 2 11.6369 76.2430 13.1227 0.0000 3.7014 0.0000
# 3 52.6542 13.1227 130.5074 0.0000 -14.3249 0.0000
# 4 0.0000 0.0000 0.0000 16.9026 0.0000 0.4102
# 5 -24.5048 3.7014 -14.3249 0.0000 89.9742 0.0000
# 6 0.0000 0.0000 0.0000 0.4102 0.0000 34.7472
#
#
#
# Elastic Compliance Matrix: (Units=1/GPa)
#
#
# Indices 1 2 3 4 5 6 
#
# 1 0.005983 -0.000596 -0.002211 0.000000 0.001302 0.000000
# 2 -0.000596 0.013460 -0.001213 0.000000 -0.000909 0.000000
# 3 -0.002211 -0.001213 0.008769 0.000000 0.000844 0.000000
# 4 0.000000 0.000000 0.000000 0.059180 0.000000 -0.000699
# 5 0.001302 -0.000909 0.000844 0.000000 0.011641 0.000000
# 6 0.000000 0.000000 0.000000 -0.000699 0.000000 0.028788
#
#
# Mechanical properties :
#
#
# Convention : Reuss Voigt Hill
#
# Bulk Modulus (GPa) = 49.57269 61.63037 55.60153
# Shear Modulus (GPa) = 35.06737 49.82026 42.44381
#
# Velocity S-wave (km/s) = 3.53329 4.21144 3.88718
# Velocity P-wave (km/s) = 5.85608 6.75197 6.31992
#
# Compressibility (1/GPa) = 0.02017240
#
# Stress axis : x y z
#
# Youngs Moduli (GPa) = 167.14506 74.29548 114.03784
#
# Poissons Ratio (x) = 0.04427 0.25214
# Poissons Ratio (y) = 0.09959 0.13830
# Poissons Ratio (z) = 0.36956 0.09010
#
# Static dielectric constant tensor:
#      x y z
#    x 2.231940 0.000000 0.106940 
#    y 0.000000 2.175320 0.000000 
#    z 0.106940 0.000000 2.380460 
# 
# From -- ./inp_files/83854.got.cif
#   From: 2010.05.17/outbox.cif.g08.bks.cpg/sg15_42_cif.got.tgz:83854.got - 2010.06.03 18:47:42.
