data_PCOD9267260
_publ_section_title
;
Structure prediction by ZEFSAII (Michael W. Deem and Ramdas Pophale) SiO2 
 PCOD9267260
Probable space group: C 2/C
;
_chemical_formula_sum "Si O2"
_cell_formula_units_Z 52
_cell_length_a 27.636719
_cell_length_b 16.564616
_cell_length_c 8.545244
_cell_angle_alpha 90.000000
_cell_angle_beta 38.417635
_cell_angle_gamma 90.000000
_cell_volume 2430.837114
_symmetry_space_group_name_H-M "C 2/C"
_symmetry_group_IT_number 15
_symmetry_cell_setting 'monoclinic'
loop_
_space_group_symop_operation_xyz
x,y,z
-x,y,1/2-z
-x,-y,-z
x,-y,1/2+z
1/2+x,1/2+y,z
1/2-x,1/2+y,1/2-z
1/2-x,1/2-y,-z
1/2+x,1/2-y,1/2+z
loop_
_atom_site_type_symbol
_atom_site_label
_atom_site_fract_x
_atom_site_fract_y
_atom_site_fract_z
Si Si1 0.159033 0.861509 0.917922
Si Si2 0.364642 0.324334 0.866382
Si Si3 0.937438 0.024162 0.291131
Si Si4 0.923770 0.399517 0.650019
Si Si5 0.296041 0.189056 0.271783
Si Si6 0.000000 0.535051 0.250000
Si Si7 0.478360 0.253323 0.128243
O O1 0.176988 0.830737 0.696692
O O2 0.237163 0.866336 0.820566
O O3 0.104720 0.795853 0.144406
O O4 0.106207 0.942233 0.042784
O O5 0.368367 0.412260 0.935141
O O6 0.455074 0.313494 0.591715
O O7 0.338742 0.249998 0.040461
O O8 0.000000 0.062318 0.250000
O O9 0.000000 0.000000 0.000000
O O10 0.847862 0.366379 0.754921
O O11 0.934734 0.420825 0.806833
O O12 0.979240 0.320879 0.507131
O O13 0.952871 0.476919 0.484820
O O14 0.250000 0.250000 0.500000
O O15 0.500000 0.228203 0.250000
#
# Coordination Sequence:
#
# PCOD9267260 Si02
#       7
#     8   8   8   8   8   4   8
#     4  11  23  46  63 101 146 186 223 280 357 422
#     4  11  25  42  71 101 137 184 234 287 343 416
#     4  12  23  42  71 108 139 178 233 294 348 408
#     4  11  22  45  67 101 126 174 223 285 342 403
#     4  12  27  44  67 100 139 182 230 282 350 426
#     4  10  24  44  72  96 130 164 230 288 340 396
#     4  10  19  38  72  97 129 175 233 284 328 409
#
# _framework density 21.391808000000001
#
# number of rings (size 3 to 8) (size 9 to 14) (size 15 to 20)
#    0.000    0.923    5.385    1.846    4.308    0.000 
#    5.538    0.000    0.000    0.000    0.000    0.000 
#    0.000    0.000    0.000    0.000    0.000    0.000 
#
# Total GULP energy -144844.576663 kJ/mol
# GULP energy per Si atom -5570.945256 kJ/mol
# Density = 2.134312 g / cm^3
# Si number density = 21.391808 Si / 1000 Ang^3
#
#
#
# Elastic Constant Matrix: (Units=GPa)
#
#
# Indices 1 2 3 4 5 6 
#
# 1 170.7496 48.0357 39.1726 0.0000 -10.1442 0.0000
# 2 48.0357 74.6326 12.1573 0.0000 -3.9800 0.0000
# 3 39.1726 12.1573 50.0698 0.0000 6.1229 0.0000
# 4 0.0000 0.0000 0.0000 16.8014 0.0000 -0.8523
# 5 -10.1442 -3.9800 6.1229 0.0000 24.6712 0.0000
# 6 0.0000 0.0000 0.0000 -0.8523 0.0000 39.8826
#
#
#
# Elastic Compliance Matrix: (Units=1/GPa)
#
#
# Indices 1 2 3 4 5 6 
#
# 1 0.008828 -0.004401 -0.006389 0.000000 0.004506 0.000000
# 2 -0.004401 0.016392 -0.000659 0.000000 0.000998 0.000000
# 3 -0.006389 -0.000659 0.026262 0.000000 -0.009251 0.000000
# 4 0.000000 0.000000 0.000000 0.059583 0.000000 0.001273
# 5 0.004506 0.000998 -0.009251 0.000000 0.044843 0.000000
# 6 0.000000 0.000000 0.000000 0.001273 0.000000 0.025101
#
#
# Mechanical properties :
#
#
# Convention : Reuss Voigt Hill
#
# Bulk Modulus (GPa) = 34.98471 54.90924 44.94698
# Shear Modulus (GPa) = 23.42628 29.34346 26.38487
#
# Velocity S-wave (km/s) = 3.31283 3.70768 3.51580
# Velocity P-wave (km/s) = 5.56982 6.63727 6.12683
#
# Compressibility (1/GPa) = 0.02858391
#
# Stress axis : x y z
#
# Youngs Moduli (GPa) = 113.27527 61.00476 38.07785
#
# Poissons Ratio (x) = 0.26848 0.24328
# Poissons Ratio (y) = 0.49852 0.02510
# Poissons Ratio (z) = 0.72373 0.04021
#
# Static dielectric constant tensor:
#      x y z
#    x 2.193190 0.000000 0.262810 
#    y 0.000000 1.825920 0.000000 
#    z 0.262810 0.000000 1.876530 
# 
# From -- ./inp_files/66980.got.cif
#   From: 2010.05.17/outbox.cif.g08.bks.cpg/sg15_34_cif.got.tgz:66980.got - 2010.06.03 18:47:42.
