data_PCOD9267826
_publ_section_title
;
Structure prediction by ZEFSAII (Michael W. Deem and Ramdas Pophale) SiO2 
 PCOD9267826
Probable space group: C 2/C
;
_chemical_formula_sum "Si O2"
_cell_formula_units_Z 48
_cell_length_a 19.516020
_cell_length_b 7.237196
_cell_length_c 24.904867
_cell_angle_alpha 90.000000
_cell_angle_beta 146.535827
_cell_angle_gamma 90.000000
_cell_volume 1939.656141
_symmetry_space_group_name_H-M "C 2/C"
_symmetry_group_IT_number 15
_symmetry_cell_setting 'monoclinic'
loop_
_space_group_symop_operation_xyz
x,y,z
-x,y,1/2-z
-x,-y,-z
x,-y,1/2+z
1/2+x,1/2+y,z
1/2-x,1/2+y,1/2-z
1/2-x,1/2-y,-z
1/2+x,1/2-y,1/2+z
loop_
_atom_site_type_symbol
_atom_site_label
_atom_site_fract_x
_atom_site_fract_y
_atom_site_fract_z
Si Si1 0.571779 0.423358 0.155497
Si Si2 0.629852 0.253817 0.309224
Si Si3 0.874772 0.357480 0.230317
Si Si4 0.318383 0.965604 0.926220
Si Si5 0.162526 0.550501 0.178931
Si Si6 0.888544 0.773081 0.566411
O O1 0.611308 0.328279 0.237023
O O2 0.685417 0.563873 0.217685
O O3 0.587986 0.245447 0.128090
O O4 0.443013 0.532391 0.078827
O O5 0.500000 0.303455 0.250000
O O6 0.745859 0.366542 0.406977
O O7 0.645774 0.035179 0.320260
O O8 0.013716 0.277527 0.322951
O O9 0.779092 0.198371 0.152170
O O10 0.859918 0.440594 0.280780
O O11 0.364297 0.033045 0.897740
O O12 0.401682 0.870690 0.025514
O O13 0.750000 0.750000 0.500000
#
# Coordination Sequence:
#
# PCOD9267826 Si02
#       6
#     8   8   8   8   8   8
#     4  10  19  40  66  96 135 171 222 288 326 395
#     4  10  22  40  66  93 126 183 227 259 330 407
#     4  11  24  45  68  96 138 180 220 287 336 398
#     4  11  24  43  71  98 134 183 219 283 347 396
#     4  10  19  42  71  95 128 182 230 270 343 399
#     4  12  26  42  67 103 141 180 227 279 343 405
#
# _framework density 24.746655000000001
#
# number of rings (size 3 to 8) (size 9 to 14) (size 15 to 20)
#    0.000    1.333    5.000    1.000    2.333    1.333 
#    6.000    4.167    0.000    0.000    0.000    0.000 
#    0.000    0.000    0.000    0.000    0.000    0.000 
#
# Total GULP energy -133994.110863 kJ/mol
# GULP energy per Si atom -5583.087953 kJ/mol
# Density = 2.469033 g / cm^3
# Si number density = 24.746655 Si / 1000 Ang^3
#
#
#
# Elastic Constant Matrix: (Units=GPa)
#
#
# Indices 1 2 3 4 5 6 
#
# 1 84.3362 14.1999 13.6607 0.0000 21.6924 0.0000
# 2 14.1999 112.4198 8.6281 0.0001 14.6224 0.0002
# 3 13.6607 8.6281 90.1272 0.0001 11.6712 0.0000
# 4 0.0000 0.0001 0.0001 15.5897 0.0000 10.9167
# 5 21.6924 14.6224 11.6712 0.0000 36.9609 0.0000
# 6 0.0000 0.0002 0.0000 10.9167 0.0000 32.8743
#
#
#
# Elastic Compliance Matrix: (Units=1/GPa)
#
#
# Indices 1 2 3 4 5 6 
#
# 1 0.014123 -0.000703 -0.001080 0.000000 -0.007670 0.000000
# 2 -0.000703 0.009429 -0.000382 0.000000 -0.003197 0.000000
# 3 -0.001080 -0.000382 0.011671 0.000000 -0.002900 0.000000
# 4 0.000000 0.000000 0.000000 0.083580 0.000000 -0.027755
# 5 -0.007670 -0.003197 -0.002900 0.000000 0.033738 0.000000
# 6 0.000000 0.000000 0.000000 -0.027755 0.000000 0.039636
#
#
# Mechanical properties :
#
#
# Convention : Reuss Voigt Hill
#
# Bulk Modulus (GPa) = 32.37023 39.98452 36.17738
# Shear Modulus (GPa) = 24.17720 33.77795 28.97757
#
# Velocity S-wave (km/s) = 3.12907 3.69853 3.42566
# Velocity P-wave (km/s) = 5.11506 5.86783 5.50433
#
# Compressibility (1/GPa) = 0.03089258
#
# Stress axis : x y z
#
# Youngs Moduli (GPa) = 70.80427 106.05325 85.68011
#
# Poissons Ratio (x) = 0.07460 0.09255
# Poissons Ratio (y) = 0.04981 0.03274
# Poissons Ratio (z) = 0.07648 0.04052
#
# Static dielectric constant tensor:
#      x y z
#    x 2.092360 0.000000 0.031340 
#    y 0.000000 2.007740 0.000000 
#    z 0.031340 0.000000 1.967140 
# 
# From -- ./inp_files/300566.got.cif
#   From: 2010.05.17/outbox.cif.g08.bks.cpg/sg15_151_cif.got.tgz:300566.got - 2010.06.03 18:47:42.
