data_PCOD9267488
_publ_section_title
;
Structure prediction by ZEFSAII (Michael W. Deem and Ramdas Pophale) SiO2 
 PCOD9267488
Probable space group: C 2/C
;
_chemical_formula_sum "Si O2"
_cell_formula_units_Z 60
_cell_length_a 13.921002
_cell_length_b 8.604708
_cell_length_c 25.318079
_cell_angle_alpha 90.000000
_cell_angle_beta 72.214114
_cell_angle_gamma 90.000000
_cell_volume 2887.803841
_symmetry_space_group_name_H-M "C 2/C"
_symmetry_group_IT_number 15
_symmetry_cell_setting 'monoclinic'
loop_
_space_group_symop_operation_xyz
x,y,z
-x,y,1/2-z
-x,-y,-z
x,-y,1/2+z
1/2+x,1/2+y,z
1/2-x,1/2+y,1/2-z
1/2-x,1/2-y,-z
1/2+x,1/2-y,1/2+z
loop_
_atom_site_type_symbol
_atom_site_label
_atom_site_fract_x
_atom_site_fract_y
_atom_site_fract_z
Si Si1 0.341062 0.002703 0.613038
Si Si2 0.695394 0.249234 0.680770
Si Si3 0.500000 0.000000 0.500000
Si Si4 0.487742 0.483319 0.809899
Si Si5 0.267146 0.071350 0.376042
Si Si6 0.148911 0.840531 0.086886
Si Si7 0.330340 0.263429 0.695515
Si Si8 0.580066 0.361743 0.981070
O O1 0.287247 0.863422 0.652860
O O2 0.428332 0.945011 0.560377
O O3 0.251430 0.080135 0.592200
O O4 0.373917 0.127616 0.651417
O O5 0.593310 0.345278 0.686670
O O6 0.697030 0.203571 0.741967
O O7 0.704251 0.102421 0.641520
O O8 0.534923 0.811771 0.481589
O O9 0.500000 0.561186 0.750000
O O10 0.441719 0.587847 0.863742
O O11 0.591399 0.403755 0.809686
O O12 0.343316 0.158115 0.402095
O O13 0.262861 0.167857 0.322039
O O14 0.157864 0.092533 0.421550
O O15 0.139482 0.863639 0.026620
O O16 0.500000 0.500000 0.000000
#
# Coordination Sequence:
#
# PCOD9267488 Si02
#       8
#     8   8   4   8   8   8   8   8
#     4  10  22  40  62  94 126 170 214 259 332 377
#     4  10  21  39  63  94 123 167 216 264 325 390
#     4  12  24  42  64  92 134 158 218 264 310 388
#     4   9  20  39  62  90 127 161 209 266 320 381
#     4  11  22  40  60  92 125 165 214 259 322 383
#     4  10  22  42  63  88 126 172 203 260 322 381
#     4  10  19  39  64  89 127 165 210 271 319 382
#     4  12  25  44  66  93 130 168 218 266 325 381
#
# _framework density 20.777035000000001
#
# number of rings (size 3 to 8) (size 9 to 14) (size 15 to 20)
#    0.000    1.600    2.667    2.800    0.000    2.133 
#    2.400    5.333    0.000    0.000    0.000    0.000 
#    0.000    0.000    0.000    0.000    0.000    0.000 
#
# Total GULP energy -167074.986298 kJ/mol
# GULP energy per Si atom -5569.166210 kJ/mol
# Density = 2.072975 g / cm^3
# Si number density = 20.777035 Si / 1000 Ang^3
#
#
#
# Elastic Constant Matrix: (Units=GPa)
#
#
# Indices 1 2 3 4 5 6 
#
# 1 27.8056 2.6410 23.0559 0.0000 -2.0748 0.0000
# 2 2.6410 64.3001 16.5571 0.0000 -7.0625 0.0000
# 3 23.0559 16.5571 110.8324 0.0000 -4.9977 0.0000
# 4 0.0000 0.0000 0.0000 34.8248 0.0000 -4.2959
# 5 -2.0748 -7.0625 -4.9977 0.0000 33.5655 0.0000
# 6 0.0000 0.0000 0.0000 -4.2959 0.0000 15.1263
#
#
#
# Elastic Compliance Matrix: (Units=1/GPa)
#
#
# Indices 1 2 3 4 5 6 
#
# 1 0.043553 0.000718 -0.009100 0.000000 0.001488 0.000000
# 2 0.000718 0.016505 -0.002473 0.000000 0.003149 0.000000
# 3 -0.009100 -0.002473 0.011312 0.000000 0.000601 0.000000
# 4 0.000000 0.000000 0.000000 0.029758 0.000000 0.008451
# 5 0.001488 0.003149 0.000601 0.000000 0.030637 0.000000
# 6 0.000000 0.000000 0.000000 0.008451 0.000000 0.068510
#
#
# Mechanical properties :
#
#
# Convention : Reuss Voigt Hill
#
# Bulk Modulus (GPa) = 20.13714 31.93843 26.03778
# Shear Modulus (GPa) = 20.96098 27.41559 24.18829
#
# Velocity S-wave (km/s) = 3.17969 3.63645 3.41572
# Velocity P-wave (km/s) = 4.81598 5.74779 5.30239
#
# Compressibility (1/GPa) = 0.04965949
#
# Stress axis : x y z
#
# Youngs Moduli (GPa) = 22.96077 60.58666 88.39969
#
# Poissons Ratio (x) = -0.04349 0.80445
# Poissons Ratio (y) = -0.01648 0.21862
# Poissons Ratio (z) = 0.20895 0.14983
#
# Static dielectric constant tensor:
#      x y z
#    x 1.756550 0.000000 0.003010 
#    y 0.000000 1.751800 0.000000 
#    z 0.003010 0.000000 1.742770 
# 
# From -- ./inp_files/272725.got.cif
#   From: 2010.05.17/outbox.cif.g08.bks.cpg/sg15_137_cif.got.tgz:272725.got - 2010.06.03 18:47:42.
