data_PCOD9267144
_publ_section_title
;
Structure prediction by ZEFSAII (Michael W. Deem and Ramdas Pophale) SiO2 
 PCOD9267144
Probable space group: C 2/C
;
_chemical_formula_sum "Si O2"
_cell_formula_units_Z 60
_cell_length_a 15.658784
_cell_length_b 9.727778
_cell_length_c 22.161444
_cell_angle_alpha 90.000000
_cell_angle_beta 118.386203
_cell_angle_gamma 90.000000
_cell_volume 2969.856541
_symmetry_space_group_name_H-M "C 2/C"
_symmetry_group_IT_number 15
_symmetry_cell_setting 'monoclinic'
loop_
_space_group_symop_operation_xyz
x,y,z
-x,y,1/2-z
-x,-y,-z
x,-y,1/2+z
1/2+x,1/2+y,z
1/2-x,1/2+y,1/2-z
1/2-x,1/2-y,-z
1/2+x,1/2-y,1/2+z
loop_
_atom_site_type_symbol
_atom_site_label
_atom_site_fract_x
_atom_site_fract_y
_atom_site_fract_z
Si Si1 0.927840 0.094663 0.014437
Si Si2 0.102333 0.744448 0.610871
Si Si3 0.278594 0.362805 0.959502
Si Si4 0.361292 0.553664 0.284705
Si Si5 0.347980 0.952434 0.173074
Si Si6 0.352356 0.024157 0.309980
Si Si7 0.000000 0.762510 0.750000
Si Si8 0.356282 0.314463 0.368500
O O1 0.996737 0.183659 0.079951
O O2 0.888596 0.192626 0.948512
O O3 0.842900 0.991364 0.007169
O O4 0.000000 0.000000 0.000000
O O5 0.151170 0.779648 0.563370
O O6 0.171513 0.826946 0.680210
O O7 0.097254 0.590794 0.632365
O O8 0.192498 0.439612 0.891022
O O9 0.250000 0.250000 0.000000
O O10 0.263749 0.499266 0.221428
O O11 0.432256 0.634564 0.264842
O O12 0.402678 0.433609 0.341796
O O13 0.432143 0.841118 0.187825
O O14 0.254803 0.862004 0.161809
O O15 0.377803 0.018325 0.247575
O O16 0.373200 0.172982 0.342069
#
# Coordination Sequence:
#
# PCOD9267144 Si02
#       8
#     8   8   8   8   8   8   4   8
#     4   9  18  38  62  88 121 170 217 263 323 379
#     4  11  20  40  67  92 123 174 219 269 326 397
#     4  10  21  42  68  93 134 181 224 268 331 402
#     4  11  20  38  65  91 126 176 212 262 339 396
#     4  10  21  39  64  93 135 171 206 282 345 371
#     4  11  20  38  66  96 124 168 227 265 330 407
#     4  12  22  40  60 104 138 158 216 292 338 380
#     4  10  19  38  66  88 122 178 219 258 329 404
#
# _framework density 20.202995999999999
#
# number of rings (size 3 to 8) (size 9 to 14) (size 15 to 20)
#    0.000    1.600    8.000    0.800    0.000    0.533 
#    7.200    2.000    0.000    3.200    0.000    0.000 
#    0.000    0.000    0.000    0.000    0.000    0.000 
#
# Total GULP energy -167014.341754 kJ/mol
# GULP energy per Si atom -5567.144725 kJ/mol
# Density = 2.015701 g / cm^3
# Si number density = 20.202996 Si / 1000 Ang^3
#
#
#
# Elastic Constant Matrix: (Units=GPa)
#
#
# Indices 1 2 3 4 5 6 
#
# 1 74.9258 37.8463 44.3367 0.0000 -9.0378 0.0000
# 2 37.8463 145.6947 59.7705 0.0000 -3.5380 0.0000
# 3 44.3367 59.7705 64.2693 0.0000 4.9085 0.0000
# 4 0.0000 0.0000 0.0000 33.2238 0.0000 -1.7846
# 5 -9.0378 -3.5380 4.9085 0.0000 22.1380 0.0000
# 6 0.0000 0.0000 0.0000 -1.7846 0.0000 32.5993
#
#
#
# Elastic Compliance Matrix: (Units=1/GPa)
#
#
# Indices 1 2 3 4 5 6 
#
# 1 0.027390 0.002520 -0.022504 0.000000 0.016574 0.000000
# 2 0.002520 0.011714 -0.013075 0.000000 0.005800 0.000000
# 3 -0.022504 -0.013075 0.044865 0.000000 -0.021225 0.000000
# 4 0.000000 0.000000 0.000000 0.030188 0.000000 0.001653
# 5 0.016574 0.005800 -0.021225 0.000000 0.057570 0.000000
# 6 0.000000 0.000000 0.000000 0.001653 0.000000 0.030766
#
#
# Mechanical properties :
#
#
# Convention : Reuss Voigt Hill
#
# Bulk Modulus (GPa) = 56.02396 63.19966 59.61181
# Shear Modulus (GPa) = 18.21077 27.12130 22.66603
#
# Velocity S-wave (km/s) = 3.00557 3.66791 3.35313
# Velocity P-wave (km/s) = 6.31152 7.02056 6.67546
#
# Compressibility (1/GPa) = 0.01784951
#
# Stress axis : x y z
#
# Youngs Moduli (GPa) = 36.51012 85.36746 22.28885
#
# Poissons Ratio (x) = -0.21512 0.50160
# Poissons Ratio (y) = -0.09200 0.29144
# Poissons Ratio (z) = 0.82164 1.11622
#
# Static dielectric constant tensor:
#      x y z
#    x 1.784280 0.000000 0.060760 
#    y 0.000000 1.733340 0.000000 
#    z 0.060760 0.000000 1.883860 
# 
# From -- ./inp_files/276594.got.cif
#   From: 2010.05.17/outbox.cif.g08.bks.cpg/sg15_139_cif.got.tgz:276594.got - 2010.06.03 18:47:42.
