data_PCOD9267173
_publ_section_title
;
Structure prediction by ZEFSAII (Michael W. Deem and Ramdas Pophale) SiO2 
 PCOD9267173
Probable space group: C 2/C
;
_chemical_formula_sum "Si O2"
_cell_formula_units_Z 52
_cell_length_a 5.319905
_cell_length_b 34.846110
_cell_length_c 14.473799
_cell_angle_alpha 90.000000
_cell_angle_beta 103.385339
_cell_angle_gamma 90.000000
_cell_volume 2610.237171
_symmetry_space_group_name_H-M "C 2/C"
_symmetry_group_IT_number 15
_symmetry_cell_setting 'monoclinic'
loop_
_space_group_symop_operation_xyz
x,y,z
-x,y,1/2-z
-x,-y,-z
x,-y,1/2+z
1/2+x,1/2+y,z
1/2-x,1/2+y,1/2-z
1/2-x,1/2-y,-z
1/2+x,1/2-y,1/2+z
loop_
_atom_site_type_symbol
_atom_site_label
_atom_site_fract_x
_atom_site_fract_y
_atom_site_fract_z
Si Si1 0.950398 0.540103 0.547115
Si Si2 0.382296 0.888075 0.933249
Si Si3 0.536807 0.322168 0.621287
Si Si4 0.500000 0.703583 0.750000
Si Si5 0.000000 0.365275 0.750000
Si Si6 0.022540 0.071043 0.640901
Si Si7 0.500000 0.254375 0.750000
Si Si8 0.854349 0.848736 0.066824
O O1 0.818705 0.570214 0.465004
O O2 0.758963 0.545197 0.620009
O O3 0.000000 0.500000 0.500000
O O4 0.242248 0.554238 0.590896
O O5 0.162395 0.857239 0.895773
O O6 0.501308 0.891360 0.841173
O O7 0.577706 0.867948 0.021810
O O8 0.767079 0.336553 0.706632
O O9 0.457072 0.281893 0.657416
O O10 0.606584 0.321795 0.519250
O O11 0.742602 0.729306 0.739780
O O12 0.608498 0.676625 0.840332
O O13 0.000000 0.074902 0.750000
O O14 0.038164 0.113797 0.596518
#
# Coordination Sequence:
#
# PCOD9267173 Si02
#       8
#     8   8   8   4   4   8   4   8
#     4  11  24  43  67 104 145 172 219 287 343 395
#     4  10  21  39  70  95 126 184 226 276 336 413
#     4  11  21  42  68  94 128 180 228 277 345 417
#     4  12  29  46  62 102 135 174 223 298 344 400
#     4  10  19  38  66  96 127 166 240 279 320 414
#     4  11  22  44  72  99 131 187 230 272 332 410
#     4  12  28  42  66  92 140 172 221 293 358 398
#     4  10  24  42  70  94 131 175 237 276 333 416
#
# _framework density 19.921559999999999
#
# number of rings (size 3 to 8) (size 9 to 14) (size 15 to 20)
#    0.000    1.231    3.846    1.385    4.308    1.231 
#    2.769    0.000    0.000    0.000    0.000    0.000 
#    0.000    0.000    0.000    0.000    0.000    0.000 
#
# Total GULP energy -144856.120168 kJ/mol
# GULP energy per Si atom -5571.389237 kJ/mol
# Density = 1.987622 g / cm^3
# Si number density = 19.921560 Si / 1000 Ang^3
#
#
#
# Elastic Constant Matrix: (Units=GPa)
#
#
# Indices 1 2 3 4 5 6 
#
# 1 100.8973 54.3849 40.8318 0.0000 -6.8110 0.0000
# 2 54.3849 126.4141 75.4708 0.0000 -2.2386 0.0000
# 3 40.8318 75.4708 126.7025 0.0000 1.1313 0.0000
# 4 0.0000 0.0000 0.0000 58.7825 0.0000 55.0043
# 5 -6.8110 -2.2386 1.1313 0.0000 24.4781 0.0000
# 6 0.0000 0.0000 0.0000 55.0043 0.0000 149.3981
#
#
#
# Elastic Compliance Matrix: (Units=1/GPa)
#
#
# Indices 1 2 3 4 5 6 
#
# 1 0.013313 -0.004794 -0.001464 0.000000 0.003334 0.000000
# 2 -0.004794 0.014055 -0.006829 0.000000 0.000267 0.000000
# 3 -0.001464 -0.006829 0.012447 0.000000 -0.001607 0.000000
# 4 0.000000 0.000000 0.000000 0.025953 0.000000 -0.009555
# 5 0.003334 0.000267 -0.001607 0.000000 0.041879 0.000000
# 6 0.000000 0.000000 0.000000 -0.009555 0.000000 0.010211
#
#
# Mechanical properties :
#
#
# Convention : Reuss Voigt Hill
#
# Bulk Modulus (GPa) = 73.31985 77.26541 75.29263
# Shear Modulus (GPa) = 33.65206 58.75351 46.20278
#
# Velocity S-wave (km/s) = 4.11448 5.43658 4.82107
# Velocity P-wave (km/s) = 7.71078 8.84746 8.29861
#
# Compressibility (1/GPa) = 0.01363887
#
# Stress axis : x y z
#
# Youngs Moduli (GPa) = 75.11595 71.14995 80.34283
#
# Poissons Ratio (x) = 0.34109 0.11766
# Poissons Ratio (y) = 0.36010 0.54868
# Poissons Ratio (z) = 0.11000 0.48590
#
# Static dielectric constant tensor:
#      x y z
#    x 1.850080 0.000000 -0.122060 
#    y 0.000000 1.715110 0.000000 
#    z -0.122060 0.000000 1.786600 
# 
# From -- ./inp_files/130896.got.cif
#   From: 2010.05.17/outbox.cif.g08.bks.cpg/sg15_66_cif.got.tgz:130896.got - 2010.06.03 18:47:42.
