data_PCOD9267929
_publ_section_title
;
Structure prediction by ZEFSAII (Michael W. Deem and Ramdas Pophale) SiO2 
 PCOD9267929
Probable space group: C 2/C
;
_chemical_formula_sum "Si O2"
_cell_formula_units_Z 48
_cell_length_a 7.745749
_cell_length_b 13.151981
_cell_length_c 25.048276
_cell_angle_alpha 90.000000
_cell_angle_beta 52.176529
_cell_angle_gamma 90.000000
_cell_volume 2015.610790
_symmetry_space_group_name_H-M "C 2/C"
_symmetry_group_IT_number 15
_symmetry_cell_setting 'monoclinic'
loop_
_space_group_symop_operation_xyz
x,y,z
-x,y,1/2-z
-x,-y,-z
x,-y,1/2+z
1/2+x,1/2+y,z
1/2-x,1/2+y,1/2-z
1/2-x,1/2-y,-z
1/2+x,1/2-y,1/2+z
loop_
_atom_site_type_symbol
_atom_site_label
_atom_site_fract_x
_atom_site_fract_y
_atom_site_fract_z
Si Si1 0.580331 0.897401 0.162677
Si Si2 0.432105 0.459679 0.429389
Si Si3 0.000000 0.770231 0.250000
Si Si4 0.397516 0.898143 0.690325
Si Si5 0.500000 0.707244 0.250000
Si Si6 0.372743 0.647532 0.051939
Si Si7 0.851386 0.364607 0.102978
O O1 0.512986 0.790978 0.199937
O O2 0.549094 0.896340 0.104238
O O3 0.825476 0.923132 0.134117
O O4 0.417544 0.989177 0.209050
O O5 0.468924 0.572906 0.444655
O O6 0.382215 0.385931 0.488911
O O7 0.251288 0.445148 0.418374
O O8 0.134584 0.689033 0.259505
O O9 0.155215 0.833462 0.181389
O O10 0.187492 0.872654 0.695935
O O11 0.626680 0.875397 0.618877
O O12 0.414058 0.764418 0.057712
#
# Coordination Sequence:
#
# PCOD9267929 Si02
#       7
#     8   8   4   8   4   8   8
#     4  11  24  40  63  97 127 171 225 265 336 400
#     4  10  22  43  68  92 130 176 217 274 331 397
#     4  10  19  41  56  82 126 164 211 269 322 386
#     4  10  22  41  64  89 129 170 217 273 330 401
#     4  12  23  43  62  94 138 176 219 283 332 402
#     4   9  21  43  66  93 131 173 216 274 337 384
#     4  11  22  38  64  94 126 169 221 267 328 397
#
# _framework density 23.814121
#
# number of rings (size 3 to 8) (size 9 to 14) (size 15 to 20)
#    0.000    1.667    1.667    3.000    0.000    2.667 
#    3.000    7.500    0.000    0.000    0.000    0.000 
#    0.000    0.000    0.000    0.000    0.000    0.000 
#
# Total GULP energy -134041.862410 kJ/mol
# GULP energy per Si atom -5585.077600 kJ/mol
# Density = 2.375992 g / cm^3
# Si number density = 23.814121 Si / 1000 Ang^3
#
#
#
# Elastic Constant Matrix: (Units=GPa)
#
#
# Indices 1 2 3 4 5 6 
#
# 1 54.1251 16.2410 13.1779 0.0000 6.4505 0.0001
# 2 16.2410 44.5748 16.4945 0.0000 -13.7638 0.0001
# 3 13.1779 16.4945 65.8382 0.0000 7.3925 0.0001
# 4 0.0000 0.0000 0.0000 27.3903 0.0000 6.2333
# 5 6.4505 -13.7638 7.3925 0.0000 23.4664 -0.0001
# 6 0.0001 0.0001 0.0001 6.2333 -0.0001 23.4654
#
#
#
# Elastic Compliance Matrix: (Units=1/GPa)
#
#
# Indices 1 2 3 4 5 6 
#
# 1 0.024175 -0.013337 0.000132 0.000000 -0.014510 0.000000
# 2 -0.013337 0.041063 -0.011127 0.000000 0.031256 0.000000
# 3 0.000132 -0.011127 0.019372 0.000000 -0.012666 0.000000
# 4 0.000000 0.000000 0.000000 0.038858 0.000000 -0.010322
# 5 -0.014510 0.031256 -0.012666 0.000000 0.068925 0.000000
# 6 0.000000 0.000000 0.000000 -0.010322 0.000000 0.045358
#
#
# Mechanical properties :
#
#
# Convention : Reuss Voigt Hill
#
# Bulk Modulus (GPa) = 27.82109 28.48501 28.15305
# Shear Modulus (GPa) = 16.75611 22.77272 19.76442
#
# Velocity S-wave (km/s) = 2.65546 3.09572 2.88400
# Velocity P-wave (km/s) = 4.59456 4.97647 4.78932
#
# Compressibility (1/GPa) = 0.03594395
#
# Stress axis : x y z
#
# Youngs Moduli (GPa) = 41.36526 24.35304 51.62015
#
# Poissons Ratio (x) = 0.32480 -0.00680
# Poissons Ratio (y) = 0.55170 0.57440
# Poissons Ratio (z) = -0.00545 0.27099
#
# Static dielectric constant tensor:
#      x y z
#    x 0.719840 0.000000 0.165490 
#    y 0.000000 1.870000 0.000000 
#    z 0.165490 0.000000 1.917650 
# 
# From -- ./inp_files/287557.got.cif
#   From: 2010.05.17/outbox.cif.g08.bks.cpg/sg15_144_cif.got.tgz:287557.got - 2010.06.03 18:47:42.
