data_PCOD9267805
_publ_section_title
;
Structure prediction by ZEFSAII (Michael W. Deem and Ramdas Pophale) SiO2 
 PCOD9267805
Probable space group: C 2/C
;
_chemical_formula_sum "Si O2"
_cell_formula_units_Z 56
_cell_length_a 14.714574
_cell_length_b 16.687076
_cell_length_c 19.601997
_cell_angle_alpha 90.000000
_cell_angle_beta 32.503295
_cell_angle_gamma 90.000000
_cell_volume 2586.330261
_symmetry_space_group_name_H-M "C 2/C"
_symmetry_group_IT_number 15
_symmetry_cell_setting 'monoclinic'
loop_
_space_group_symop_operation_xyz
x,y,z
-x,y,1/2-z
-x,-y,-z
x,-y,1/2+z
1/2+x,1/2+y,z
1/2-x,1/2+y,1/2-z
1/2-x,1/2-y,-z
1/2+x,1/2-y,1/2+z
loop_
_atom_site_type_symbol
_atom_site_label
_atom_site_fract_x
_atom_site_fract_y
_atom_site_fract_z
Si Si1 0.250469 0.634972 0.770179
Si Si2 0.942179 0.372167 0.360399
Si Si3 0.908969 0.176925 0.438295
Si Si4 0.121824 0.440525 0.614429
Si Si5 0.724407 0.230181 0.341008
Si Si6 0.522853 0.492454 0.066397
Si Si7 0.017792 0.412467 0.525746
O O1 0.331244 0.715689 0.689133
O O2 0.362272 0.555990 0.694393
O O3 0.091073 0.625389 0.820136
O O4 0.172202 0.636207 0.893910
O O5 0.766141 0.331519 0.493327
O O6 0.900270 0.463894 0.372926
O O7 0.000000 0.340770 0.250000
O O8 0.853708 0.220715 0.544607
O O9 0.071304 0.216788 0.298727
O O10 0.959359 0.084120 0.420259
O O11 0.317752 0.437212 0.512278
O O12 0.060175 0.416422 0.578603
O O13 0.000000 0.406167 0.750000
O O14 0.644290 0.142219 0.387426
O O15 0.500000 0.500000 0.000000
O O16 0.000000 0.500000 0.500000
#
# Coordination Sequence:
#
# PCOD9267805 Si02
#       7
#     8   8   8   8   8   8   8
#     4  12  23  43  69 104 144 191 240 306 368 426
#     4  10  19  40  66 102 144 183 237 298 359 445
#     4  11  24  42  68 106 143 194 243 294 366 442
#     4  10  23  42  73 106 136 189 251 298 362 441
#     4  12  25  44  68 103 151 195 238 302 372 433
#     4  11  22  42  78 100 136 190 248 299 359 443
#     4  12  26  46  72 102 148 193 242 305 366 439
#
# _framework density 21.652301000000001
#
# number of rings (size 3 to 8) (size 9 to 14) (size 15 to 20)
#    0.000    0.857    5.714    2.571    2.000    1.143 
#    2.571    0.714    0.000    0.000    0.000    0.000 
#    0.000    0.000    0.000    0.000    0.000    0.000 
#
# Total GULP energy -156249.050535 kJ/mol
# GULP energy per Si atom -5580.323233 kJ/mol
# Density = 2.160302 g / cm^3
# Si number density = 21.652301 Si / 1000 Ang^3
#
#
#
# Elastic Constant Matrix: (Units=GPa)
#
#
# Indices 1 2 3 4 5 6 
#
# 1 113.7555 30.0885 65.2418 -0.0024 1.8278 0.0005
# 2 30.0885 95.4213 56.3835 -0.0049 -5.9036 0.0016
# 3 65.2418 56.3835 158.4116 -0.0101 -2.9992 0.0029
# 4 -0.0024 -0.0049 -0.0101 37.6905 0.0017 5.7302
# 5 1.8278 -5.9036 -2.9992 0.0017 41.0656 -0.0002
# 6 0.0005 0.0016 0.0029 5.7302 -0.0002 30.2852
#
#
#
# Elastic Compliance Matrix: (Units=1/GPa)
#
#
# Indices 1 2 3 4 5 6 
#
# 1 0.011634 -0.001124 -0.004410 -0.000001 -0.001002 0.000000
# 2 -0.001124 0.013481 -0.004303 0.000000 0.001674 0.000000
# 3 -0.004410 -0.004303 0.009666 0.000002 0.000284 -0.000001
# 4 -0.000001 0.000000 0.000002 0.027318 -0.000001 -0.005169
# 5 -0.001002 0.001674 0.000284 -0.000001 0.024657 0.000000
# 6 0.000000 0.000000 -0.000001 -0.005169 0.000000 0.033997
#
#
# Mechanical properties :
#
#
# Convention : Reuss Voigt Hill
#
# Bulk Modulus (GPa) = 66.20503 74.55732 70.38117
# Shear Modulus (GPa) = 34.37292 36.19991 35.28642
#
# Velocity S-wave (km/s) = 3.98866 4.09329 4.04131
# Velocity P-wave (km/s) = 7.20107 7.53981 7.37238
#
# Compressibility (1/GPa) = 0.01510459
#
# Stress axis : x y z
#
# Youngs Moduli (GPa) = 85.95827 74.17945 103.45515
#
# Poissons Ratio (x) = 0.08341 0.45624
# Poissons Ratio (y) = 0.09666 0.44521
# Poissons Ratio (z) = 0.37908 0.31923
#
# Static dielectric constant tensor:
#      x y z
#    x 1.826110 0.000000 -0.037470 
#    y 0.000000 1.817680 0.000000 
#    z -0.037470 0.000000 1.864180 
# 
# From -- ./inp_files/245119.got.cif
#   From: 2010.05.17/outbox.cif.g08.bks.cpg/sg15_123_cif.got.tgz:245119.got - 2010.06.03 18:47:42.
