data_PCOD9267667
_publ_section_title
;
Structure prediction by ZEFSAII (Michael W. Deem and Ramdas Pophale) SiO2 
 PCOD9267667
Probable space group: C 2/C
;
_chemical_formula_sum "Si O2"
_cell_formula_units_Z 52
_cell_length_a 8.089677
_cell_length_b 28.601927
_cell_length_c 14.875102
_cell_angle_alpha 90.000000
_cell_angle_beta 134.781572
_cell_angle_gamma 90.000000
_cell_volume 2442.984941
_symmetry_space_group_name_H-M "C 2/C"
_symmetry_group_IT_number 15
_symmetry_cell_setting 'monoclinic'
loop_
_space_group_symop_operation_xyz
x,y,z
-x,y,1/2-z
-x,-y,-z
x,-y,1/2+z
1/2+x,1/2+y,z
1/2-x,1/2+y,1/2-z
1/2-x,1/2-y,-z
1/2+x,1/2-y,1/2+z
loop_
_atom_site_type_symbol
_atom_site_label
_atom_site_fract_x
_atom_site_fract_y
_atom_site_fract_z
Si Si1 0.000000 0.722851 0.750000
Si Si2 0.170624 0.902948 0.735792
Si Si3 0.000000 0.538332 0.750000
Si Si4 0.896637 0.204153 0.343472
Si Si5 0.513042 0.678314 0.590699
Si Si6 0.551619 0.027906 0.429002
Si Si7 0.500000 0.733966 0.750000
Si Si8 0.988626 0.074073 0.526354
O O1 0.936873 0.760445 0.647348
O O2 0.210081 0.689774 0.797957
O O3 0.139758 0.846982 0.712527
O O4 0.421162 0.922498 0.862861
O O5 0.000000 0.918830 0.750000
O O6 0.099254 0.922361 0.610386
O O7 0.054393 0.505196 0.687603
O O8 0.764284 0.565136 0.635139
O O9 0.655887 0.231806 0.250807
O O10 0.949957 0.198831 0.469094
O O11 0.391346 0.700903 0.631330
O O12 0.457371 0.623909 0.562460
O O13 0.824518 0.036504 0.513190
O O14 0.500000 0.000000 0.500000
#
# Coordination Sequence:
#
# PCOD9267667 Si02
#       8
#     4   8   4   8   8   8   4   8
#     4  10  19  40  58  96 128 174 218 270 333 398
#     4  11  23  43  69 102 137 176 228 282 347 411
#     4  12  25  45  70  96 136 174 232 283 351 412
#     4  10  21  37  63  93 131 170 222 270 326 399
#     4  10  22  38  63  88 132 174 218 272 329 397
#     4  12  27  44  72 100 137 181 226 288 346 419
#     4  10  22  37  60  92 130 176 218 269 328 392
#     4  11  25  46  68 101 136 179 225 290 343 415
#
# _framework density 21.285435
#
# number of rings (size 3 to 8) (size 9 to 14) (size 15 to 20)
#    0.000    1.231    2.308    2.769    6.462    1.231 
#    0.000    3.077    0.000    0.000    0.000    0.000 
#    0.000    0.000    0.000    0.000    0.000    0.000 
#
# Total GULP energy -145008.370311 kJ/mol
# GULP energy per Si atom -5577.245012 kJ/mol
# Density = 2.123699 g / cm^3
# Si number density = 21.285435 Si / 1000 Ang^3
#
#
#
# Elastic Constant Matrix: (Units=GPa)
#
#
# Indices 1 2 3 4 5 6 
#
# 1 82.9356 27.5301 25.2521 0.0000 -11.5359 0.0000
# 2 27.5301 75.1063 38.5603 0.0000 -10.0380 0.0000
# 3 25.2521 38.5603 80.8331 0.0000 -10.6891 0.0000
# 4 0.0000 0.0000 0.0000 7.1212 0.0000 7.9635
# 5 -11.5359 -10.0380 -10.6891 0.0000 46.3211 0.0000
# 6 0.0000 0.0000 0.0000 7.9635 0.0000 19.9901
#
#
#
# Elastic Compliance Matrix: (Units=1/GPa)
#
#
# Indices 1 2 3 4 5 6 
#
# 1 0.014334 -0.003721 -0.002411 0.000000 0.002207 0.000000
# 2 -0.003721 0.018770 -0.007608 0.000000 0.001385 0.000000
# 3 -0.002411 -0.007608 0.016974 0.000000 0.001668 0.000000
# 4 0.000000 0.000000 0.000000 0.253242 0.000000 -0.100884
# 5 0.002207 0.001385 0.001668 0.000000 0.022823 0.000000
# 6 0.000000 0.000000 0.000000 -0.100884 0.000000 0.090214
#
#
# Mechanical properties :
#
#
# Convention : Reuss Voigt Hill
#
# Bulk Modulus (GPa) = 44.25326 46.83999 45.54663
# Shear Modulus (GPa) = 11.07739 24.52199 17.79969
#
# Velocity S-wave (km/s) = 2.28375 3.39788 2.89492
# Velocity P-wave (km/s) = 5.27158 6.11944 5.71126
#
# Compressibility (1/GPa) = 0.02259720
#
# Stress axis : x y z
#
# Youngs Moduli (GPa) = 69.76486 53.27736 58.91298
#
# Poissons Ratio (x) = 0.19826 0.14203
# Poissons Ratio (y) = 0.25962 0.44822
# Poissons Ratio (z) = 0.16819 0.40534
#
# Static dielectric constant tensor:
#      x y z
#    x 1.804980 0.000000 0.020270 
#    y 0.000000 1.774600 0.000000 
#    z 0.020270 0.000000 1.768680 
# 
# From -- ./inp_files/139912.got.cif
#   From: 2010.05.17/outbox.cif.g08.bks.cpg/sg15_70_cif.got.tgz:139912.got - 2010.06.03 18:47:42.
