data_PCOD9267884
_publ_section_title
;
Structure prediction by ZEFSAII (Michael W. Deem and Ramdas Pophale) SiO2 
 PCOD9267884
Probable space group: C 2/C
;
_chemical_formula_sum "Si O2"
_cell_formula_units_Z 64
_cell_length_a 14.856657
_cell_length_b 16.187222
_cell_length_c 24.174565
_cell_angle_alpha 90.000000
_cell_angle_beta 32.108635
_cell_angle_gamma 90.000000
_cell_volume 3090.130347
_symmetry_space_group_name_H-M "C 2/C"
_symmetry_group_IT_number 15
_symmetry_cell_setting 'monoclinic'
loop_
_space_group_symop_operation_xyz
x,y,z
-x,y,1/2-z
-x,-y,-z
x,-y,1/2+z
1/2+x,1/2+y,z
1/2-x,1/2+y,1/2-z
1/2-x,1/2-y,-z
1/2+x,1/2-y,1/2+z
loop_
_atom_site_type_symbol
_atom_site_label
_atom_site_fract_x
_atom_site_fract_y
_atom_site_fract_z
Si Si1 0.733580 0.995968 0.765537
Si Si2 0.199107 0.054669 0.147856
Si Si3 0.943157 0.962166 0.470813
Si Si4 0.729889 0.301155 0.779888
Si Si5 0.144864 0.500318 0.549937
Si Si6 0.533269 0.290472 0.992837
Si Si7 0.904415 0.694213 0.436701
Si Si8 0.329696 0.748627 0.310067
O O1 0.728038 0.990292 0.835319
O O2 0.765271 0.900338 0.731071
O O3 0.550789 0.027587 0.839162
O O4 0.896619 0.041025 0.654609
O O5 0.205019 0.153941 0.152507
O O6 0.000000 0.032454 0.250000
O O7 0.287142 0.032630 0.044306
O O8 0.789416 0.011713 0.521545
O O9 0.892106 0.869031 0.513541
O O10 0.000000 0.000000 0.500000
O O11 0.623056 0.279934 0.888454
O O12 0.656878 0.258884 0.763031
O O13 0.926446 0.277704 0.683119
O O14 0.129302 0.401318 0.553908
O O15 0.555409 0.211328 0.020102
O O16 0.332925 0.302521 0.090362
O O17 0.750000 0.750000 0.500000
O O18 0.500000 0.777839 0.250000
#
# Coordination Sequence:
#
# PCOD9267884 Si02
#       8
#     8   8   8   8   8   8   8   8
#     4  10  21  40  62  91 124 163 209 254 310 379
#     4  10  19  40  69  90 124 160 206 266 321 365
#     4  12  24  41  63  90 128 169 210 257 308 375
#     4   9  20  39  62  84 122 167 196 246 314 364
#     4  11  23  42  66  94 125 163 210 262 322 366
#     4  11  22  42  61  89 129 163 206 252 308 377
#     4  10  21  41  60  90 125 158 201 251 310 379
#     4   9  21  40  63  89 121 164 208 253 309 367
#
# _framework density 20.711100999999999
#
# number of rings (size 3 to 8) (size 9 to 14) (size 15 to 20)
#    0.000    1.750    3.750    1.125    0.000    1.500 
#   13.500    0.000    0.000    0.000    0.000    0.000 
#    0.000    0.000    0.000    0.000    0.000    0.000 
#
# Total GULP energy -178694.019298 kJ/mol
# GULP energy per Si atom -5584.188103 kJ/mol
# Density = 2.066396 g / cm^3
# Si number density = 20.711101 Si / 1000 Ang^3
#
#
#
# Elastic Constant Matrix: (Units=GPa)
#
#
# Indices 1 2 3 4 5 6 
#
# 1 110.0888 2.2995 51.0006 0.0008 -8.8978 0.0000
# 2 2.2995 8.6690 -6.6543 0.0005 2.2789 0.0000
# 3 51.0006 -6.6543 102.9401 0.0021 13.2552 -0.0001
# 4 0.0008 0.0005 0.0021 9.7791 -0.0006 -7.3928
# 5 -8.8978 2.2789 13.2552 -0.0006 32.1510 0.0000
# 6 0.0000 0.0000 -0.0001 -7.3928 0.0000 23.5921
#
#
#
# Elastic Compliance Matrix: (Units=1/GPa)
#
#
# Indices 1 2 3 4 5 6 
#
# 1 0.014197 -0.012894 -0.008967 0.000003 0.008540 0.000001
# 2 -0.012894 0.138039 0.017986 -0.000016 -0.020768 -0.000005
# 3 -0.008967 0.017986 0.016689 -0.000006 -0.010637 -0.000002
# 4 0.000003 -0.000016 -0.000006 0.134003 0.000007 0.041991
# 5 0.008540 -0.020768 -0.010637 0.000007 0.039324 0.000002
# 6 0.000001 -0.000005 -0.000002 0.041991 0.000002 0.055545
#
#
# Mechanical properties :
#
#
# Convention : Reuss Voigt Hill
#
# Bulk Modulus (GPa) = 6.20446 34.99884 20.60165
# Shear Modulus (GPa) = 10.88674 24.77458 17.83066
#
# Velocity S-wave (km/s) = 2.29519 3.46236 2.93733
# Velocity P-wave (km/s) = 3.16640 5.73753 4.63386
#
# Compressibility (1/GPa) = 0.16117442
#
# Stress axis : x y z
#
# Youngs Moduli (GPa) = 70.43597 7.24434 59.91842
#
# Poissons Ratio (x) = 0.09341 0.53729
# Poissons Ratio (y) = 0.90820 -1.07767
# Poissons Ratio (z) = 0.63160 -0.13029
#
# Static dielectric constant tensor:
#      x y z
#    x 1.785650 0.000000 -0.063970 
#    y 0.000000 1.750120 0.000000 
#    z -0.063970 0.000000 1.746370 
# 
# From -- ./inp_files/174237.got.cif
#   From: 2010.05.17/outbox.cif.g08.bks.cpg/sg15_88_cif.got.tgz:174237.got - 2010.06.03 18:47:42.
