data_PCOD9267759
_publ_section_title
;
Structure prediction by ZEFSAII (Michael W. Deem and Ramdas Pophale) SiO2 
 PCOD9267759
Probable space group: C 2/C
;
_chemical_formula_sum "Si O2"
_cell_formula_units_Z 64
_cell_length_a 16.747350
_cell_length_b 20.930510
_cell_length_c 23.222905
_cell_angle_alpha 90.000000
_cell_angle_beta 157.502792
_cell_angle_gamma 90.000000
_cell_volume 3114.806110
_symmetry_space_group_name_H-M "C 2/C"
_symmetry_group_IT_number 15
_symmetry_cell_setting 'monoclinic'
loop_
_space_group_symop_operation_xyz
x,y,z
-x,y,1/2-z
-x,-y,-z
x,-y,1/2+z
1/2+x,1/2+y,z
1/2-x,1/2+y,1/2-z
1/2-x,1/2-y,-z
1/2+x,1/2-y,1/2+z
loop_
_atom_site_type_symbol
_atom_site_label
_atom_site_fract_x
_atom_site_fract_y
_atom_site_fract_z
Si Si1 0.952983 0.227808 0.005054
Si Si2 0.429390 0.647664 0.606705
Si Si3 0.095799 0.740922 0.152103
Si Si4 0.717796 0.023346 0.427215
Si Si5 0.243828 0.150020 0.423298
Si Si6 0.254701 0.008764 0.422043
Si Si7 0.323081 0.125743 0.941756
Si Si8 0.237885 0.616555 0.929843
O O1 0.203447 0.230667 0.174505
O O2 0.860664 0.223771 0.879275
O O3 0.870767 0.291371 0.982306
O O4 0.876984 0.166771 0.989148
O O5 0.424141 0.715302 0.570380
O O6 0.357894 0.587002 0.520952
O O7 0.667112 0.642461 0.786366
O O8 0.296572 0.639680 0.576959
O O9 0.015322 0.672706 0.075798
O O10 0.500000 0.035831 0.250000
O O11 0.678324 0.004011 0.467497
O O12 0.813997 0.956309 0.469759
O O13 0.300396 0.080825 0.433862
O O14 0.264750 0.137953 0.505328
O O15 0.000000 0.162588 0.250000
O O16 0.000000 0.000955 0.250000
O O17 0.358074 0.949619 0.458748
O O18 0.000000 0.618834 0.750000
#
# Coordination Sequence:
#
# PCOD9267759 Si02
#       8
#     8   8   8   8   8   8   8   8
#     4  12  24  39  55  86 127 159 190 237 286 341
#     4  10  20  40  63  84 115 150 193 245 288 344
#     4  12  25  39  55  85 123 158 193 233 293 346
#     4   9  18  33  59  92 111 138 193 249 290 328
#     4  10  20  36  63  91 112 151 203 239 283 339
#     4   9  16  33  61  87 112 141 192 252 284 329
#     4  10  19  40  64  85 111 152 195 242 292 340
#     4  10  20  38  63  86 116 156 195 237 285 343
#
# _framework density 20.547025000000001
#
# number of rings (size 3 to 8) (size 9 to 14) (size 15 to 20)
#    0.000    1.750    3.750    2.625    0.000    2.000 
#    2.250    2.500    0.000    0.000    0.000    0.000 
#    0.000    0.000    0.000    0.000    0.000    0.000 
#
# Total GULP energy -178469.644378 kJ/mol
# GULP energy per Si atom -5577.176387 kJ/mol
# Density = 2.050026 g / cm^3
# Si number density = 20.547025 Si / 1000 Ang^3
#
#
#
# Elastic Constant Matrix: (Units=GPa)
#
#
# Indices 1 2 3 4 5 6 
#
# 1 23.3782 3.7004 1.4461 0.0070 -7.6288 0.0102
# 2 3.7004 136.1993 19.6571 0.0248 14.1885 0.0028
# 3 1.4461 19.6571 83.3204 0.0429 -19.3590 -0.0002
# 4 0.0070 0.0248 0.0429 7.8736 -0.0051 -15.3559
# 5 -7.6288 14.1885 -19.3590 -0.0051 25.6875 0.0042
# 6 0.0102 0.0028 -0.0002 -15.3559 0.0042 9.8010
#
#
#
# Elastic Compliance Matrix: (Units=1/GPa)
#
#
# Indices 1 2 3 4 5 6 
#
# 1 0.049987 -0.004267 0.005014 0.000078 0.020981 0.000063
# 2 -0.004267 0.009063 -0.004269 -0.000002 -0.009491 0.000003
# 3 0.005014 -0.004269 0.016749 0.000045 0.016470 0.000060
# 4 0.000078 -0.000002 0.000045 -0.061784 0.000062 -0.096801
# 5 0.020981 -0.009491 0.016470 0.000062 0.062815 0.000051
# 6 0.000063 0.000003 0.000060 -0.096801 0.000051 -0.049634
#
#
# Mechanical properties :
#
#
# Convention : Reuss Voigt Hill
#
# Bulk Modulus (GPa) = 14.54482 32.50057 23.52270
# Shear Modulus (GPa) = 87.47621 23.21206 55.34413
#
# Velocity S-wave (km/s) = 6.53193 3.36475 5.19556
# Velocity P-wave (km/s) = 7.99889 5.56304 6.88947
#
# Compressibility (1/GPa) = 0.06875298
#
# Stress axis : x y z
#
# Youngs Moduli (GPa) = 20.00535 110.33904 59.70642
#
# Poissons Ratio (x) = 0.47087 -0.29937
# Poissons Ratio (y) = 0.08537 0.25490
# Poissons Ratio (z) = -0.10031 0.47106
#
# Static dielectric constant tensor:
#      x y z
#    x 1.754310 0.000000 -0.009370 
#    y 0.000000 1.784590 -0.000010 
#    z -0.009370 -0.000010 1.712170 
# 
# From -- ./inp_files/278135.got.cif
#   From: 2010.05.17/outbox.cif.g08.bks.cpg/sg15_140_cif.got.tgz:278135.got - 2010.06.03 18:47:42.
