data_PCOD9267035
_publ_section_title
;
Structure prediction by ZEFSAII (Michael W. Deem and Ramdas Pophale) SiO2 
 PCOD9267035
Probable space group: C 2/C
;
_chemical_formula_sum "Si O2"
_cell_formula_units_Z 52
_cell_length_a 11.426132
_cell_length_b 19.553536
_cell_length_c 18.167916
_cell_angle_alpha 90.000000
_cell_angle_beta 139.725455
_cell_angle_gamma 90.000000
_cell_volume 2624.008201
_symmetry_space_group_name_H-M "C 2/C"
_symmetry_group_IT_number 15
_symmetry_cell_setting 'monoclinic'
loop_
_space_group_symop_operation_xyz
x,y,z
-x,y,1/2-z
-x,-y,-z
x,-y,1/2+z
1/2+x,1/2+y,z
1/2-x,1/2+y,1/2-z
1/2-x,1/2-y,-z
1/2+x,1/2-y,1/2+z
loop_
_atom_site_type_symbol
_atom_site_label
_atom_site_fract_x
_atom_site_fract_y
_atom_site_fract_z
Si Si1 0.694430 0.186887 0.569960
Si Si2 0.000000 0.422244 0.250000
Si Si3 0.271826 0.864350 0.256067
Si Si4 0.909187 0.163249 0.528482
Si Si5 0.035991 0.558550 0.079210
Si Si6 0.233543 0.980636 0.551646
Si Si7 0.411050 0.492670 0.787956
O O1 0.727991 0.182433 0.672403
O O2 0.846911 0.160117 0.585241
O O3 0.664162 0.265633 0.536073
O O4 0.531210 0.133113 0.478276
O O5 0.957521 0.378541 0.302418
O O6 0.821066 0.468894 0.152829
O O7 0.190475 0.935765 0.246444
O O8 0.124488 0.836217 0.128631
O O9 0.835006 0.094007 0.455770
O O10 0.904051 0.535607 0.081290
O O11 0.244012 0.559691 0.204330
O O12 0.000000 0.500000 0.000000
O O13 0.069008 0.012659 0.424942
O O14 0.500000 0.494042 0.750000
#
# Coordination Sequence:
#
# PCOD9267035 Si02
#       7
#     8   4   8   8   8   8   8
#     4  10  19  38  64  89 124 158 202 264 322 369
#     4  12  24  40  60  86 128 180 204 250 312 372
#     4  11  21  38  59  84 123 168 207 250 317 376
#     4   9  21  38  61  94 118 156 208 262 320 376
#     4  11  17  33  59  94 122 155 200 258 313 369
#     4  10  21  37  55  88 127 157 204 254 310 371
#     4  11  19  32  62  91 120 155 204 264 320 362
#
# _framework density 19.817011999999998
#
# number of rings (size 3 to 8) (size 9 to 14) (size 15 to 20)
#    0.000    1.538    4.615    2.308    0.000    2.462 
#    8.308    0.769    1.692    0.000    0.000    0.000 
#    0.000    0.000    0.000    0.000    0.000    0.000 
#
# Total GULP energy -145063.171087 kJ/mol
# GULP energy per Si atom -5579.352734 kJ/mol
# Density = 1.977191 g / cm^3
# Si number density = 19.817012 Si / 1000 Ang^3
#
#
#
# Elastic Constant Matrix: (Units=GPa)
#
#
# Indices 1 2 3 4 5 6 
#
# 1 77.4523 30.6561 27.9502 0.0000 5.3758 0.0000
# 2 30.6561 48.1012 29.7865 0.0000 -2.9032 0.0000
# 3 27.9502 29.7865 83.0648 0.0000 13.4491 0.0000
# 4 0.0000 0.0000 0.0000 20.5328 0.0000 -2.0456
# 5 5.3758 -2.9032 13.4491 0.0000 29.0968 0.0000
# 6 0.0000 0.0000 0.0000 -2.0456 0.0000 19.9364
#
#
#
# Elastic Compliance Matrix: (Units=1/GPa)
#
#
# Indices 1 2 3 4 5 6 
#
# 1 0.017973 -0.010659 -0.001638 0.000000 -0.003627 0.000000
# 2 -0.010659 0.034729 -0.010535 0.000000 0.010304 0.000000
# 3 -0.001638 -0.010535 0.017823 0.000000 -0.008987 0.000000
# 4 0.000000 0.000000 0.000000 0.049206 0.000000 0.005049
# 5 -0.003627 0.010304 -0.008987 0.000000 0.040220 0.000000
# 6 0.000000 0.000000 0.000000 0.005049 0.000000 0.050678
#
#
# Mechanical properties :
#
#
# Convention : Reuss Voigt Hill
#
# Bulk Modulus (GPa) = 40.22582 42.82266 41.52424
# Shear Modulus (GPa) = 18.89797 21.92824 20.41310
#
# Velocity S-wave (km/s) = 3.09143 3.33007 3.21297
# Velocity P-wave (km/s) = 5.75198 6.03670 5.89606
#
# Compressibility (1/GPa) = 0.02485966
#
# Stress axis : x y z
#
# Youngs Moduli (GPa) = 55.63902 28.79478 56.10780
#
# Poissons Ratio (x) = 0.30693 0.09191
# Poissons Ratio (y) = 0.59306 0.59110
# Poissons Ratio (z) = 0.09115 0.30336
#
# Static dielectric constant tensor:
#      x y z
#    x 1.734260 0.000000 -0.017880 
#    y 0.000000 1.704880 0.000000 
#    z -0.017880 0.000000 1.774120 
# 
# From -- ./inp_files/200312.got.cif
#   From: 2010.05.17/outbox.cif.g08.bks.cpg/sg15_101_cif.got.tgz:200312.got - 2010.06.03 18:47:42.
