data_PCOD9267071
_publ_section_title
;
Structure prediction by ZEFSAII (Michael W. Deem and Ramdas Pophale) SiO2 
 PCOD9267071
Probable space group: C 2/C
;
_chemical_formula_sum "Si O2"
_cell_formula_units_Z 48
_cell_length_a 12.555454
_cell_length_b 29.470387
_cell_length_c 10.672833
_cell_angle_alpha 90.000000
_cell_angle_beta 35.804490
_cell_angle_gamma 90.000000
_cell_volume 2310.306514
_symmetry_space_group_name_H-M "C 2/C"
_symmetry_group_IT_number 15
_symmetry_cell_setting 'monoclinic'
loop_
_space_group_symop_operation_xyz
x,y,z
-x,y,1/2-z
-x,-y,-z
x,-y,1/2+z
1/2+x,1/2+y,z
1/2-x,1/2+y,1/2-z
1/2-x,1/2-y,-z
1/2+x,1/2-y,1/2+z
loop_
_atom_site_type_symbol
_atom_site_label
_atom_site_fract_x
_atom_site_fract_y
_atom_site_fract_z
Si Si1 0.995510 0.949603 0.452193
Si Si2 0.712489 0.706991 0.781435
Si Si3 0.296797 0.071158 0.484773
Si Si4 0.883837 0.853133 0.649423
Si Si5 0.911124 0.298204 0.468674
Si Si6 0.208289 0.677355 0.050673
O O1 0.845779 0.945444 0.484198
O O2 0.932713 0.906199 0.594839
O O3 0.000000 0.000000 0.500000
O O4 0.200584 0.943086 0.204778
O O5 0.687596 0.706469 0.654579
O O6 0.916301 0.690140 0.610405
O O7 0.570211 0.673997 0.982610
O O8 0.685530 0.755208 0.874019
O O9 0.500000 0.057130 0.250000
O O10 0.295669 0.125627 0.495126
O O11 0.797993 0.832071 0.600894
O O12 0.735655 0.838417 0.893070
O O13 0.000000 0.287290 0.250000
O O14 0.000000 0.693745 0.250000
#
# Coordination Sequence:
#
# PCOD9267071 Si02
#       6
#     8   8   8   8   8   8
#     4  10  21  39  64  94 129 167 213 260 330 395
#     4  12  23  41  65  90 125 174 217 262 325 385
#     4   9  19  37  63  92 127 165 201 262 330 388
#     4  11  23  41  65  95 129 167 213 278 327 386
#     4  12  27  44  61  89 130 182 225 262 319 387
#     4  10  19  38  64  96 127 158 209 267 334 383
#
# _framework density 20.776463
#
# number of rings (size 3 to 8) (size 9 to 14) (size 15 to 20)
#    0.000    1.333    5.000    1.000    0.000    1.333 
#    3.000    4.167    0.000    0.000    0.000    0.000 
#    0.000    0.000    0.000    0.000    0.000    0.000 
#
# Total GULP energy -133892.782476 kJ/mol
# GULP energy per Si atom -5578.865937 kJ/mol
# Density = 2.072918 g / cm^3
# Si number density = 20.776463 Si / 1000 Ang^3
#
#
#
# Elastic Constant Matrix: (Units=GPa)
#
#
# Indices 1 2 3 4 5 6 
#
# 1 42.4546 20.0797 16.9256 0.0000 -6.0803 0.0000
# 2 20.0797 139.6824 69.1718 0.0000 2.2281 0.0000
# 3 16.9256 69.1718 152.0409 0.0000 -12.9557 0.0000
# 4 0.0000 0.0000 0.0000 21.3379 0.0000 -0.2457
# 5 -6.0803 2.2281 -12.9557 0.0000 39.8124 0.0000
# 6 0.0000 0.0000 0.0000 -0.2457 0.0000 23.2408
#
#
#
# Elastic Compliance Matrix: (Units=1/GPa)
#
#
# Indices 1 2 3 4 5 6 
#
# 1 0.026082 -0.003270 -0.001091 0.000000 0.003811 0.000000
# 2 -0.003270 0.009799 -0.004303 0.000000 -0.002448 0.000000
# 3 -0.001091 -0.004303 0.008910 0.000000 0.002973 0.000000
# 4 0.000000 0.000000 0.000000 0.046871 0.000000 0.000495
# 5 0.003811 -0.002448 0.002973 0.000000 0.026804 0.000000
# 6 0.000000 0.000000 0.000000 0.000495 0.000000 0.043033
#
#
# Mechanical properties :
#
#
# Convention : Reuss Voigt Hill
#
# Bulk Modulus (GPa) = 36.41235 60.72579 48.56907
# Shear Modulus (GPa) = 26.59857 32.07829 29.33843
#
# Velocity S-wave (km/s) = 3.58191 3.93360 3.76187
# Velocity P-wave (km/s) = 5.88817 7.06559 6.50358
#
# Compressibility (1/GPa) = 0.02746321
#
# Stress axis : x y z
#
# Youngs Moduli (GPa) = 38.34068 102.05242 112.23942
#
# Poissons Ratio (x) = 0.33369 0.12247
# Poissons Ratio (y) = 0.12537 0.48293
# Poissons Ratio (z) = 0.04183 0.43909
#
# Static dielectric constant tensor:
#      x y z
#    x 1.838670 0.000000 0.038440 
#    y 0.000000 1.720870 0.000000 
#    z 0.038440 0.000000 1.799750 
# 
# From -- ./inp_files/101260.got.cif
#   From: 2010.05.17/outbox.cif.g08.bks.cpg/sg15_51_cif.got.tgz:101260.got - 2010.06.03 18:47:42.
