data_PCOD9267573
_publ_section_title
;
Structure prediction by ZEFSAII (Michael W. Deem and Ramdas Pophale) SiO2 
 PCOD9267573
Probable space group: C 2/C
;
_chemical_formula_sum "Si O2"
_cell_formula_units_Z 32
_cell_length_a 8.369578
_cell_length_b 14.576972
_cell_length_c 10.030870
_cell_angle_alpha 90.000000
_cell_angle_beta 93.665003
_cell_angle_gamma 90.000000
_cell_volume 1221.294428
_symmetry_space_group_name_H-M "C 2/C"
_symmetry_group_IT_number 15
_symmetry_cell_setting 'monoclinic'
loop_
_space_group_symop_operation_xyz
x,y,z
-x,y,1/2-z
-x,-y,-z
x,-y,1/2+z
1/2+x,1/2+y,z
1/2-x,1/2+y,1/2-z
1/2-x,1/2-y,-z
1/2+x,1/2-y,1/2+z
loop_
_atom_site_type_symbol
_atom_site_label
_atom_site_fract_x
_atom_site_fract_y
_atom_site_fract_z
Si Si1 0.244543 0.535789 0.585824
Si Si2 0.656756 0.597899 0.183692
Si Si3 0.917247 0.359490 0.060087
Si Si4 0.851224 0.759876 0.309297
O O1 0.356136 0.578709 0.474824
O O2 0.307512 0.494317 0.728244
O O3 0.175272 0.444838 0.510441
O O4 0.092980 0.602307 0.596637
O O5 0.500000 0.635731 0.250000
O O6 0.796350 0.672110 0.218115
O O7 0.803432 0.318788 0.166824
O O8 0.918776 0.279511 0.950910
O O9 0.000000 0.810337 0.250000
#
# Coordination Sequence:
#
# PCOD9267573 Si02
#       4
#     8   8   8   8
#     4  10  21  41  68  99 136 180 234 279 340 405
#     4  11  23  41  66 101 138 181 231 283 338 407
#     4   9  20  36  68 100 129 182 225 278 341 410
#     4  10  19  39  66  97 142 175 219 281 350 402
#
# _framework density 26.201708
#
# number of rings (size 3 to 8) (size 9 to 14) (size 15 to 20)
#    0.000    2.000    2.500    0.750    0.000    1.000 
#    4.500    3.750    0.000    0.000    0.000    0.000 
#    0.000    0.000    0.000    0.000    0.000    0.000 
#
# Total GULP energy -89583.530069 kJ/mol
# GULP energy per Si atom -5598.970629 kJ/mol
# Density = 2.614207 g / cm^3
# Si number density = 26.201708 Si / 1000 Ang^3
#
#
#
# Elastic Constant Matrix: (Units=GPa)
#
#
# Indices 1 2 3 4 5 6 
#
# 1 83.8854 36.9592 47.3476 0.0000 -38.6397 0.0000
# 2 36.9592 98.2114 72.2142 0.0000 -4.2330 0.0000
# 3 47.3476 72.2142 124.2160 0.0000 -29.2093 0.0000
# 4 0.0000 0.0000 0.0000 29.4740 0.0000 -7.0909
# 5 -38.6397 -4.2330 -29.2093 0.0000 54.6300 0.0000
# 6 0.0000 0.0000 0.0000 -7.0909 0.0000 50.2524
#
#
#
# Elastic Compliance Matrix: (Units=1/GPa)
#
#
# Indices 1 2 3 4 5 6 
#
# 1 0.022386 -0.007109 -0.000922 0.000000 0.014790 0.000000
# 2 -0.007109 0.021187 -0.011900 0.000000 -0.009749 0.000000
# 3 -0.000922 -0.011900 0.017100 0.000000 0.007569 0.000000
# 4 0.000000 0.000000 0.000000 0.035121 0.000000 0.004956
# 5 0.014790 -0.009749 0.007569 0.000000 0.032057 0.000000
# 6 0.000000 0.000000 0.000000 0.004956 0.000000 0.020599
#
#
# Mechanical properties :
#
#
# Convention : Reuss Voigt Hill
#
# Bulk Modulus (GPa) = 48.05211 68.81717 58.43464
# Shear Modulus (GPa) = 25.60819 36.85739 31.23279
#
# Velocity S-wave (km/s) = 3.12965 3.75464 3.45630
# Velocity P-wave (km/s) = 5.60702 6.71698 6.18694
#
# Compressibility (1/GPa) = 0.02081074
#
# Stress axis : x y z
#
# Youngs Moduli (GPa) = 44.67031 47.19802 58.47879
#
# Poissons Ratio (x) = 0.33552 0.05395
# Poissons Ratio (y) = 0.31755 0.69592
# Poissons Ratio (z) = 0.04121 0.56167
#
# Static dielectric constant tensor:
#      x y z
#    x 2.027190 0.000000 0.013060 
#    y 0.000000 2.033600 0.000000 
#    z 0.013060 0.000000 2.071290 
# 
# From -- ./inp_files/75318.got.cif
#   From: 2010.05.17/outbox.cif.g08.bks.cpg/sg15_38_cif.got.tgz:75318.got - 2010.06.03 18:47:42.
