data_PCOD9267075
_publ_section_title
;
Structure prediction by ZEFSAII (Michael W. Deem and Ramdas Pophale) SiO2 
 PCOD9267075
Probable space group: C 2/C
;
_chemical_formula_sum "Si O2"
_cell_formula_units_Z 32
_cell_length_a 18.870467
_cell_length_b 12.291522
_cell_length_c 7.681865
_cell_angle_alpha 90.000000
_cell_angle_beta 122.475994
_cell_angle_gamma 90.000000
_cell_volume 1503.142113
_symmetry_space_group_name_H-M "C 2/C"
_symmetry_group_IT_number 15
_symmetry_cell_setting 'monoclinic'
loop_
_space_group_symop_operation_xyz
x,y,z
-x,y,1/2-z
-x,-y,-z
x,-y,1/2+z
1/2+x,1/2+y,z
1/2-x,1/2+y,1/2-z
1/2-x,1/2-y,-z
1/2+x,1/2-y,1/2+z
loop_
_atom_site_type_symbol
_atom_site_label
_atom_site_fract_x
_atom_site_fract_y
_atom_site_fract_z
Si Si1 0.041416 0.381158 0.546575
Si Si2 0.776376 0.366420 0.603027
Si Si3 0.773927 0.903190 0.565009
Si Si4 0.113435 0.289080 0.279469
O O1 0.122491 0.379110 0.777223
O O2 0.080183 0.348724 0.409808
O O3 0.000000 0.500000 0.500000
O O4 0.961761 0.300146 0.457579
O O5 0.750000 0.250000 0.500000
O O6 0.750155 0.374022 0.769912
O O7 0.728531 0.467872 0.453667
O O8 0.857282 0.833233 0.638593
O O9 0.698549 0.854774 0.345409
#
# Coordination Sequence:
#
# PCOD9267075 Si02
#       4
#     8   8   8   8
#     4  10  19  38  64  97 123 163 220 267 314 376
#     4  11  25  40  66  96 129 169 218 265 326 390
#     4  10  22  40  63  91 131 167 213 262 326 384
#     4   9  20  37  62  92 126 167 203 270 322 370
#
# _framework density 21.288737000000001
#
# number of rings (size 3 to 8) (size 9 to 14) (size 15 to 20)
#    0.000    2.000    2.500    0.000   10.500    0.000 
#    0.000    1.250    0.000    0.000    0.000    0.000 
#    0.000    0.000    0.000    0.000    0.000    0.000 
#
# Total GULP energy -89263.254043 kJ/mol
# GULP energy per Si atom -5578.953378 kJ/mol
# Density = 2.124028 g / cm^3
# Si number density = 21.288737 Si / 1000 Ang^3
#
#
#
# Elastic Constant Matrix: (Units=GPa)
#
#
# Indices 1 2 3 4 5 6 
#
# 1 75.6436 54.5845 40.3230 0.0000 12.9195 0.0000
# 2 54.5845 214.0119 70.6475 0.0000 31.1772 0.0000
# 3 40.3230 70.6475 66.5262 0.0000 26.0136 0.0000
# 4 0.0000 0.0000 0.0000 44.3906 0.0000 9.5896
# 5 12.9195 31.1772 26.0136 0.0000 42.1793 0.0000
# 6 0.0000 0.0000 0.0000 9.5896 0.0000 43.4715
#
#
#
# Elastic Compliance Matrix: (Units=1/GPa)
#
#
# Indices 1 2 3 4 5 6 
#
# 1 0.020041 -0.001747 -0.011066 0.000000 0.001977 0.000000
# 2 -0.001747 0.007368 -0.006385 0.000000 -0.000973 0.000000
# 3 -0.011066 -0.006385 0.033404 0.000000 -0.012493 0.000000
# 4 0.000000 0.000000 0.000000 0.023655 0.000000 -0.005218
# 5 0.001977 -0.000973 -0.012493 0.000000 0.031527 0.000000
# 6 0.000000 0.000000 0.000000 -0.005218 0.000000 0.024155
#
#
# Mechanical properties :
#
#
# Convention : Reuss Voigt Hill
#
# Bulk Modulus (GPa) = 44.60540 76.36576 60.48558
# Shear Modulus (GPa) = 26.87929 38.71671 32.79800
#
# Velocity S-wave (km/s) = 3.55717 4.26919 3.92934
# Velocity P-wave (km/s) = 6.15381 7.76213 7.00428
#
# Compressibility (1/GPa) = 0.02241881
#
# Stress axis : x y z
#
# Youngs Moduli (GPa) = 49.89666 135.72956 29.93627
#
# Poissons Ratio (x) = 0.23709 0.33127
# Poissons Ratio (y) = 0.08716 0.19114
# Poissons Ratio (z) = 0.55214 0.86660
#
# Static dielectric constant tensor:
#      x y z
#    x 1.839670 0.000000 -0.002630 
#    y 0.000000 1.772640 0.000000 
#    z -0.002630 0.000000 1.883510 
# 
# From -- ./inp_files/36800.got.cif
#   From: 2010.05.17/outbox.cif.g08.bks.cpg/sg15_19_cif.got.tgz:36800.got - 2010.06.03 18:47:42.
