data_PCOD9267457
_publ_section_title
;
Structure prediction by ZEFSAII (Michael W. Deem and Ramdas Pophale) SiO2 
 PCOD9267457
Probable space group: C 2/C
;
_chemical_formula_sum "Si O2"
_cell_formula_units_Z 52
_cell_length_a 8.041080
_cell_length_b 16.478534
_cell_length_c 18.793146
_cell_angle_alpha 90.000000
_cell_angle_beta 85.680682
_cell_angle_gamma 90.000000
_cell_volume 2483.117116
_symmetry_space_group_name_H-M "C 2/C"
_symmetry_group_IT_number 15
_symmetry_cell_setting 'monoclinic'
loop_
_space_group_symop_operation_xyz
x,y,z
-x,y,1/2-z
-x,-y,-z
x,-y,1/2+z
1/2+x,1/2+y,z
1/2-x,1/2+y,1/2-z
1/2-x,1/2-y,-z
1/2+x,1/2-y,1/2+z
loop_
_atom_site_type_symbol
_atom_site_label
_atom_site_fract_x
_atom_site_fract_y
_atom_site_fract_z
Si Si1 0.929943 0.682181 0.148333
Si Si2 0.281587 0.653243 0.211004
Si Si3 0.500000 0.797850 0.250000
Si Si4 0.948937 0.021465 0.112630
Si Si5 0.270253 0.650084 0.637254
Si Si6 0.569799 0.876310 0.012162
Si Si7 0.242708 0.040974 0.521020
O O1 0.792338 0.644574 0.206574
O O2 0.898174 0.778663 0.152573
O O3 0.114143 0.659621 0.169242
O O4 0.910674 0.654960 0.068151
O O5 0.387813 0.736070 0.206908
O O6 0.398192 0.582559 0.176519
O O7 0.374958 0.850659 0.299940
O O8 0.856981 0.936279 0.128919
O O9 0.137447 0.994522 0.089945
O O10 0.882424 0.061297 0.040112
O O11 0.175162 0.672120 0.566871
O O12 0.373405 0.888407 0.034712
O O13 0.650426 0.965842 0.012122
#
# Coordination Sequence:
#
# PCOD9267457 Si02
#       7
#     8   8   4   8   8   8   8
#     4  10  21  40  63  91 123 168 206 253 315 384
#     4  10  22  40  65  84 125 166 211 250 304 377
#     4  10  24  44  58  92 122 164 206 258 308 380
#     4  10  20  40  60  92 118 166 200 257 304 368
#     4  10  23  40  63  91 130 155 206 263 315 365
#     4  10  19  39  63  94 122 164 199 262 314 366
#     4   9  20  35  62  91 128 148 211 256 299 372
#
# _framework density 20.941420000000001
#
# number of rings (size 3 to 8) (size 9 to 14) (size 15 to 20)
#    0.000    2.154    1.538    0.462    4.308    2.462 
#    2.769    4.615    0.000    0.000    0.000    0.000 
#    0.000    0.000    0.000    0.000    0.000    0.000 
#
# Total GULP energy -145083.769019 kJ/mol
# GULP energy per Si atom -5580.144962 kJ/mol
# Density = 2.089376 g / cm^3
# Si number density = 20.941420 Si / 1000 Ang^3
#
#
#
# Elastic Constant Matrix: (Units=GPa)
#
#
# Indices 1 2 3 4 5 6 
#
# 1 64.2067 6.3899 21.7813 0.0000 -19.4660 0.0000
# 2 6.3899 18.3128 20.7223 0.0000 -2.1735 0.0000
# 3 21.7813 20.7223 74.7231 0.0000 -6.9109 0.0000
# 4 0.0000 0.0000 0.0000 29.6238 0.0000 -3.0109
# 5 -19.4660 -2.1735 -6.9109 0.0000 22.3961 0.0000
# 6 0.0000 0.0000 0.0000 -3.0109 0.0000 1.9558
#
#
#
# Elastic Compliance Matrix: (Units=1/GPa)
#
#
# Indices 1 2 3 4 5 6 
#
# 1 0.022801 -0.000260 -0.004883 0.000000 0.018286 0.000000
# 2 -0.000260 0.079601 -0.021932 0.000000 0.000731 0.000000
# 3 -0.004883 -0.021932 0.020895 0.000000 0.000075 0.000000
# 4 0.000000 0.000000 0.000000 0.040018 0.000000 0.061607
# 5 0.018286 0.000731 0.000075 0.000000 0.060638 0.000000
# 6 0.000000 0.000000 0.000000 0.061607 0.000000 0.606139
#
#
# Mechanical properties :
#
#
# Convention : Reuss Voigt Hill
#
# Bulk Modulus (GPa) = 14.46177 28.33663 21.39920
# Shear Modulus (GPa) = 5.51090 18.01842 11.76466
#
# Velocity S-wave (km/s) = 1.62397 2.93647 2.37278
# Velocity P-wave (km/s) = 3.23067 5.00579 4.21279
#
# Compressibility (1/GPa) = 0.06914781
#
# Stress axis : x y z
#
# Youngs Moduli (GPa) = 43.85789 12.56260 47.85800
#
# Poissons Ratio (x) = 0.00327 0.23369
# Poissons Ratio (y) = 0.01141 1.04960
# Poissons Ratio (z) = 0.21416 0.27552
#
# Static dielectric constant tensor:
#      x y z
#    x 1.785880 0.000000 0.026260 
#    y 0.000000 1.712500 0.000000 
#    z 0.026260 0.000000 1.767010 
# 
# From -- ./inp_files/190386.got.cif
#   From: 2010.05.17/outbox.cif.g08.bks.cpg/sg15_96_cif.got.tgz:190386.got - 2010.06.03 18:47:42.
