data_PCOD9267470
_publ_section_title
;
Structure prediction by ZEFSAII (Michael W. Deem and Ramdas Pophale) SiO2 
 PCOD9267470
Probable space group: C 2/C
;
_chemical_formula_sum "Si O2"
_cell_formula_units_Z 44
_cell_length_a 10.894071
_cell_length_b 15.973921
_cell_length_c 26.637426
_cell_angle_alpha 90.000000
_cell_angle_beta 24.126320
_cell_angle_gamma 90.000000
_cell_volume 1894.748126
_symmetry_space_group_name_H-M "C 2/C"
_symmetry_group_IT_number 15
_symmetry_cell_setting 'monoclinic'
loop_
_space_group_symop_operation_xyz
x,y,z
-x,y,1/2-z
-x,-y,-z
x,-y,1/2+z
1/2+x,1/2+y,z
1/2-x,1/2+y,1/2-z
1/2-x,1/2-y,-z
1/2+x,1/2-y,1/2+z
loop_
_atom_site_type_symbol
_atom_site_label
_atom_site_fract_x
_atom_site_fract_y
_atom_site_fract_z
Si Si1 0.468108 0.080921 0.572236
Si Si2 0.093669 0.607495 0.053185
Si Si3 0.241273 0.259046 0.944014
Si Si4 0.937363 0.848920 0.199060
Si Si5 0.000000 0.214919 0.250000
Si Si6 0.116227 0.333031 0.655045
O O1 0.723083 0.138468 0.451908
O O2 0.190338 0.104728 0.639550
O O3 0.366828 0.110310 0.666193
O O4 0.547812 0.985030 0.548374
O O5 0.806637 0.662314 0.143289
O O6 0.103544 0.612059 0.109845
O O7 0.405582 0.642807 0.913632
O O8 0.941748 0.208425 0.040701
O O9 0.250000 0.250000 0.000000
O O10 0.461551 0.235857 0.816491
O O11 0.920338 0.751358 0.220167
O O12 0.000000 0.373841 0.750000
#
# Coordination Sequence:
#
# PCOD9267470 Si02
#       6
#     8   8   8   8   4   8
#     4  10  21  38  61  90 123 161 202 264 318 367
#     4  12  24  36  64  98 124 158 214 268 324 374
#     4  11  24  41  63  92 126 168 215 264 315 384
#     4  10  19  39  64  85 125 162 208 256 321 373
#     4  12  24  34  66  96 124 152 214 262 314 388
#     4  11  21  43  64  86 124 173 208 258 324 389
#
# _framework density 23.222083999999999
#
# number of rings (size 3 to 8) (size 9 to 14) (size 15 to 20)
#    0.000    1.091    7.273    3.273    2.545    0.000 
#    0.000    0.909    2.000    0.000    0.000    0.000 
#    0.000    0.000    0.000    0.000    0.000    0.000 
#
# Total GULP energy -122716.051134 kJ/mol
# GULP energy per Si atom -5578.002324 kJ/mol
# Density = 2.316923 g / cm^3
# Si number density = 23.222084 Si / 1000 Ang^3
#
#
#
# Elastic Constant Matrix: (Units=GPa)
#
#
# Indices 1 2 3 4 5 6 
#
# 1 98.6479 5.7139 29.1190 -0.0050 41.4078 0.0228
# 2 5.7139 48.1787 7.8258 0.1082 12.5301 -0.0393
# 3 29.1190 7.8258 169.4225 -0.0548 44.7737 0.0578
# 4 -0.0050 0.1082 -0.0548 25.4970 0.0516 12.3454
# 5 41.4078 12.5301 44.7737 0.0516 49.4085 -0.0631
# 6 0.0228 -0.0393 0.0578 12.3454 -0.0631 18.1047
#
#
#
# Elastic Compliance Matrix: (Units=1/GPa)
#
#
# Indices 1 2 3 4 5 6 
#
# 1 0.015915 0.001778 0.001087 0.000093 -0.014774 -0.000134
# 2 0.001778 0.022468 0.000731 -0.000128 -0.007850 0.000104
# 3 0.001087 0.000731 0.007852 0.000084 -0.008212 -0.000111
# 4 0.000093 -0.000128 0.000084 0.058555 -0.000234 -0.039929
# 5 -0.014774 -0.007850 -0.008212 -0.000234 0.042054 0.000334
# 6 -0.000134 0.000104 -0.000111 -0.039929 0.000334 0.082463
#
#
# Mechanical properties :
#
#
# Convention : Reuss Voigt Hill
#
# Bulk Modulus (GPa) = 18.71702 44.61851 31.66777
# Shear Modulus (GPa) = 20.83992 36.84142 28.84067
#
# Velocity S-wave (km/s) = 2.99894 3.98739 3.52795
# Velocity P-wave (km/s) = 4.47985 6.36039 5.50107
#
# Compressibility (1/GPa) = 0.05342730
#
# Stress axis : x y z
#
# Youngs Moduli (GPa) = 62.83542 44.50679 127.35407
#
# Poissons Ratio (x) = -0.07913 -0.13843
# Poissons Ratio (y) = -0.11172 -0.09311
# Poissons Ratio (z) = -0.06830 -0.03254
#
# Static dielectric constant tensor:
#      x y z
#    x 2.011120 0.000040 0.046830 
#    y 0.000040 1.895480 -0.000390 
#    z 0.046830 -0.000390 1.389270 
# 
# From -- ./inp_files/270328.got.cif
#   From: 2010.05.17/outbox.cif.g08.bks.cpg/sg15_136_cif.got.tgz:270328.got - 2010.06.03 18:47:42.
