data_PCOD9267735
_publ_section_title
;
Structure prediction by ZEFSAII (Michael W. Deem and Ramdas Pophale) SiO2 
 PCOD9267735
Probable space group: C 2/C
;
_chemical_formula_sum "Si O2"
_cell_formula_units_Z 60
_cell_length_a 8.642521
_cell_length_b 11.520546
_cell_length_c 27.868583
_cell_angle_alpha 90.000000
_cell_angle_beta 99.919658
_cell_angle_gamma 90.000000
_cell_volume 2733.296793
_symmetry_space_group_name_H-M "C 2/C"
_symmetry_group_IT_number 15
_symmetry_cell_setting 'monoclinic'
loop_
_space_group_symop_operation_xyz
x,y,z
-x,y,1/2-z
-x,-y,-z
x,-y,1/2+z
1/2+x,1/2+y,z
1/2-x,1/2+y,1/2-z
1/2-x,1/2-y,-z
1/2+x,1/2-y,1/2+z
loop_
_atom_site_type_symbol
_atom_site_label
_atom_site_fract_x
_atom_site_fract_y
_atom_site_fract_z
Si Si1 0.655644 0.020815 0.581842
Si Si2 0.109423 0.149303 0.167375
Si Si3 0.887459 0.231397 0.432004
Si Si4 0.067261 0.901640 0.470462
Si Si5 0.970265 0.375137 0.696380
Si Si6 0.500000 0.501255 0.250000
Si Si7 0.695403 0.085612 0.689874
Si Si8 0.493338 0.781626 0.598453
O O1 0.550045 0.137418 0.571617
O O2 0.781580 0.041346 0.546842
O O3 0.736295 0.043266 0.637899
O O4 0.565405 0.898546 0.578713
O O5 0.048152 0.153179 0.108825
O O6 0.287341 0.101481 0.177622
O O7 0.131375 0.284368 0.183043
O O8 0.018375 0.081596 0.203708
O O9 0.908292 0.196748 0.487889
O O10 0.697294 0.223790 0.415195
O O11 0.960381 0.838037 0.424827
O O12 0.000000 0.000000 0.500000
O O13 0.029440 0.292879 0.656615
O O14 0.000000 0.323751 0.750000
O O15 0.064338 0.494856 0.699127
O O16 0.655594 0.427445 0.268069
#
# Coordination Sequence:
#
# PCOD9267735 Si02
#       8
#     8   8   8   8   8   4   8   8
#     4   9  19  39  62  81 113 151 199 247 287 353
#     4  10  23  40  59  88 123 158 202 248 299 358
#     4   9  20  39  59  83 112 154 198 243 297 347
#     4  11  23  36  57  87 122 152 186 250 301 356
#     4  10  19  40  63  84 120 158 199 247 295 355
#     4  12  24  34  62  92 116 162 202 238 300 372
#     4  10  23  39  61  89 121 160 199 251 300 351
#     4   9  19  37  63  83 107 156 202 233 294 359
#
# _framework density 21.951514
#
# number of rings (size 3 to 8) (size 9 to 14) (size 15 to 20)
#    0.000    2.133    1.333    2.400    3.733    2.667 
#    0.000    0.000   11.733    0.000    0.000    0.000 
#    0.000    0.000    0.000    0.000    0.000    0.000 
#
# Total GULP energy -167318.846195 kJ/mol
# GULP energy per Si atom -5577.294873 kJ/mol
# Density = 2.190155 g / cm^3
# Si number density = 21.951514 Si / 1000 Ang^3
#
#
#
# Elastic Constant Matrix: (Units=GPa)
#
#
# Indices 1 2 3 4 5 6 
#
# 1 20.5799 30.1681 18.0654 0.0000 -4.0689 0.0000
# 2 30.1681 96.7987 34.1076 0.0000 -5.9588 0.0000
# 3 18.0654 34.1076 121.0688 0.0000 -28.8232 0.0000
# 4 0.0000 0.0000 0.0000 30.5166 0.0000 2.0465
# 5 -4.0689 -5.9588 -28.8232 0.0000 29.0911 0.0000
# 6 0.0000 0.0000 0.0000 2.0465 0.0000 21.7428
#
#
#
# Elastic Compliance Matrix: (Units=1/GPa)
#
#
# Indices 1 2 3 4 5 6 
#
# 1 0.093774 -0.027014 -0.005990 0.000000 0.001648 0.000000
# 2 -0.027014 0.019279 -0.001780 0.000000 -0.001593 0.000000
# 3 -0.005990 -0.001780 0.012261 0.000000 0.010946 0.000000
# 4 0.000000 0.000000 0.000000 0.032977 0.000000 -0.003104
# 5 0.001648 -0.001593 0.010946 0.000000 0.045124 0.000000
# 6 0.000000 0.000000 0.000000 -0.003104 0.000000 0.046284
#
#
# Mechanical properties :
#
#
# Convention : Reuss Voigt Hill
#
# Bulk Modulus (GPa) = 17.93796 44.79219 31.36508
# Shear Modulus (GPa) = 14.79957 26.67718 20.73838
#
# Velocity S-wave (km/s) = 2.59934 3.48987 3.07699
# Velocity P-wave (km/s) = 4.14706 6.05708 5.19068
#
# Compressibility (1/GPa) = 0.05574770
#
# Stress axis : x y z
#
# Youngs Moduli (GPa) = 10.66390 51.87071 81.56120
#
# Poissons Ratio (x) = 1.40121 0.48855
# Poissons Ratio (y) = 0.28807 0.14514
# Poissons Ratio (z) = 0.06388 0.09230
#
# Static dielectric constant tensor:
#      x y z
#    x 1.817770 0.000000 -0.007790 
#    y 0.000000 1.929260 0.000000 
#    z -0.007790 0.000000 1.890070 
# 
# From -- ./inp_files/288043.got.cif
#   From: 2010.05.17/outbox.cif.g08.bks.cpg/sg15_145_cif.got.tgz:288043.got - 2010.06.03 18:47:42.
