data_PCOD9267320
_publ_section_title
;
Structure prediction by ZEFSAII (Michael W. Deem and Ramdas Pophale) SiO2 
 PCOD9267320
Probable space group: C 2/C
;
_chemical_formula_sum "Si O2"
_cell_formula_units_Z 56
_cell_length_a 19.876520
_cell_length_b 22.549202
_cell_length_c 8.213247
_cell_angle_alpha 90.000000
_cell_angle_beta 143.611590
_cell_angle_gamma 90.000000
_cell_volume 2183.879101
_symmetry_space_group_name_H-M "C 2/C"
_symmetry_group_IT_number 15
_symmetry_cell_setting 'monoclinic'
loop_
_space_group_symop_operation_xyz
x,y,z
-x,y,1/2-z
-x,-y,-z
x,-y,1/2+z
1/2+x,1/2+y,z
1/2-x,1/2+y,1/2-z
1/2-x,1/2-y,-z
1/2+x,1/2-y,1/2+z
loop_
_atom_site_type_symbol
_atom_site_label
_atom_site_fract_x
_atom_site_fract_y
_atom_site_fract_z
Si Si1 0.197477 0.879710 0.595317
Si Si2 0.328012 0.475873 0.736149
Si Si3 0.553209 0.724303 0.675518
Si Si4 0.588812 0.948103 0.137360
Si Si5 0.434745 0.846297 0.954659
Si Si6 0.681288 0.309353 0.901994
Si Si7 0.704680 0.581942 0.648184
O O1 0.136843 0.939917 0.534269
O O2 0.130272 0.832935 0.354447
O O3 0.207756 0.847418 0.792042
O O4 0.322770 0.885073 0.767049
O O5 0.192863 0.460656 0.462607
O O6 0.340609 0.546168 0.785318
O O7 0.367053 0.445732 0.644760
O O8 0.500000 0.737728 0.750000
O O9 0.602345 0.785160 0.701616
O O10 0.450353 0.706215 0.358550
O O11 0.524487 0.886163 0.033244
O O12 0.665329 0.940703 0.124579
O O13 0.500000 0.000000 0.000000
O O14 0.500000 0.832830 0.250000
O O15 0.750000 0.250000 0.000000
O O16 0.706867 0.348446 0.112025
#
# Coordination Sequence:
#
# PCOD9267320 Si02
#       7
#     8   8   8   8   8   8   8
#     4  10  20  37  58  80 116 150 190 231 287 344
#     4   9  19  37  55  81 112 151 183 230 290 334
#     4  10  23  39  57  85 113 148 193 238 283 340
#     4  10  21  33  55  82 115 146 182 229 289 342
#     4  12  20  37  59  84 114 153 188 229 289 345
#     4  10  19  39  60  81 115 154 190 235 290 345
#     4   9  19  35  56  83 111 149 189 234 285 341
#
# _framework density 25.642446
#
# number of rings (size 3 to 8) (size 9 to 14) (size 15 to 20)
#    0.857    1.143    1.429    3.000    0.000    0.000 
#    7.714    3.571    0.000    0.000    0.000    0.000 
#    0.000    0.000    0.000    0.000    0.000    0.000 
#
# Total GULP energy -156369.496308 kJ/mol
# GULP energy per Si atom -5584.624868 kJ/mol
# Density = 2.558408 g / cm^3
# Si number density = 25.642446 Si / 1000 Ang^3
#
#
#
# Elastic Constant Matrix: (Units=GPa)
#
#
# Indices 1 2 3 4 5 6 
#
# 1 37.5205 -8.5227 6.5636 0.0000 -8.4456 0.0000
# 2 -8.5227 129.3896 22.7411 0.0000 -20.1028 0.0000
# 3 6.5636 22.7411 74.8910 0.0000 4.4618 0.0000
# 4 0.0000 0.0000 0.0000 42.3342 0.0000 -11.5910
# 5 -8.4456 -20.1028 4.4618 0.0000 23.8504 0.0000
# 6 0.0000 0.0000 0.0000 -11.5910 0.0000 36.1916
#
#
#
# Elastic Compliance Matrix: (Units=1/GPa)
#
#
# Indices 1 2 3 4 5 6 
#
# 1 0.033014 0.005950 -0.005759 0.000000 0.017783 0.000000
# 2 0.005950 0.010785 -0.004514 0.000000 0.012041 0.000000
# 3 -0.005759 -0.004514 0.015752 0.000000 -0.008791 0.000000
# 4 0.000000 0.000000 0.000000 0.025892 0.000000 0.008292
# 5 0.017783 0.012041 -0.008791 0.000000 0.060019 0.000000
# 6 0.000000 0.000000 0.000000 0.008292 0.000000 0.030286
#
#
# Mechanical properties :
#
#
# Convention : Reuss Voigt Hill
#
# Bulk Modulus (GPa) = 19.64509 31.48501 25.56505
# Shear Modulus (GPa) = 24.83092 35.20985 30.02039
#
# Velocity S-wave (km/s) = 3.11521 3.70957 3.42531
# Velocity P-wave (km/s) = 4.54062 5.53651 5.06311
#
# Compressibility (1/GPa) = 0.05090331
#
# Stress axis : x y z
#
# Youngs Moduli (GPa) = 30.29036 92.72500 63.48474
#
# Poissons Ratio (x) = -0.55168 0.36564
# Poissons Ratio (y) = -0.18022 0.28655
# Poissons Ratio (z) = 0.17446 0.41853
#
# Static dielectric constant tensor:
#      x y z
#    x 2.065980 0.000000 -0.060970 
#    y 0.000000 2.526090 0.000000 
#    z -0.060970 0.000000 2.058880 
# 
# From -- ./inp_files/124171.got.cif
#   From: 2010.05.17/outbox.cif.g08.bks.cpg/sg15_63_cif.got.tgz:124171.got - 2010.06.03 18:47:42.
