data_PCOD9267372
_publ_section_title
;
Structure prediction by ZEFSAII (Michael W. Deem and Ramdas Pophale) SiO2 
 PCOD9267372
Probable space group: C 2/C
;
_chemical_formula_sum "Si O2"
_cell_formula_units_Z 48
_cell_length_a 11.115956
_cell_length_b 15.729825
_cell_length_c 22.947936
_cell_angle_alpha 90.000000
_cell_angle_beta 149.522599
_cell_angle_gamma 90.000000
_cell_volume 2035.130570
_symmetry_space_group_name_H-M "C 2/C"
_symmetry_group_IT_number 15
_symmetry_cell_setting 'monoclinic'
loop_
_space_group_symop_operation_xyz
x,y,z
-x,y,1/2-z
-x,-y,-z
x,-y,1/2+z
1/2+x,1/2+y,z
1/2-x,1/2+y,1/2-z
1/2-x,1/2-y,-z
1/2+x,1/2-y,1/2+z
loop_
_atom_site_type_symbol
_atom_site_label
_atom_site_fract_x
_atom_site_fract_y
_atom_site_fract_z
Si Si1 0.000000 0.001063 0.750000
Si Si2 0.159232 0.232175 0.550193
Si Si3 0.685136 0.986407 0.524888
Si Si4 0.427335 0.172147 0.059501
Si Si5 0.655681 0.092134 0.695157
Si Si6 0.500000 0.094240 0.750000
Si Si7 0.868117 0.786479 0.816385
O O1 0.101270 0.951996 0.847327
O O2 0.179782 0.057755 0.787610
O O3 0.289412 0.153491 0.636354
O O4 0.382041 0.278161 0.612854
O O5 0.046420 0.297001 0.549112
O O6 0.954377 0.203290 0.419241
O O7 0.704127 0.081188 0.504880
O O8 0.500000 0.000000 0.500000
O O9 0.600855 0.922016 0.441148
O O10 0.647934 0.161310 0.197201
O O11 0.250000 0.250000 0.000000
O O12 0.624655 0.050579 0.746027
O O13 0.724138 0.189399 0.730168
#
# Coordination Sequence:
#
# PCOD9267372 Si02
#       7
#     4   8   8   8   8   4   8
#     4  10  20  40  65  89 130 166 222 270 330 384
#     4  10  19  39  61  91 120 164 215 266 325 385
#     4  10  23  41  61  98 129 171 221 276 334 394
#     4  12  23  39  67  94 134 169 219 277 335 401
#     4  10  20  42  61  92 127 171 211 269 329 394
#     4  10  20  40  67  83 130 166 208 262 328 402
#     4  10  21  39  65  89 126 166 221 265 324 405
#
# _framework density 23.585709000000001
#
# number of rings (size 3 to 8) (size 9 to 14) (size 15 to 20)
#    0.000    1.667    3.333    3.000    0.000    0.667 
#   30.000    2.500    0.000    0.000    0.000    0.000 
#    0.000    0.000    0.000    0.000    0.000    0.000 
#
# Total GULP energy -133691.373836 kJ/mol
# GULP energy per Si atom -5570.473910 kJ/mol
# Density = 2.353203 g / cm^3
# Si number density = 23.585709 Si / 1000 Ang^3
#
#
#
# Elastic Constant Matrix: (Units=GPa)
#
#
# Indices 1 2 3 4 5 6 
#
# 1 101.8344 14.5318 34.5778 -0.0001 -19.7911 -0.0004
# 2 14.5318 51.7285 15.1772 -0.0002 -3.9042 -0.0006
# 3 34.5778 15.1772 154.0650 -0.0006 -37.7975 -0.0030
# 4 -0.0001 -0.0002 -0.0006 25.9846 -0.0001 11.8885
# 5 -19.7911 -3.9042 -37.7975 -0.0001 36.1272 -0.0004
# 6 -0.0004 -0.0006 -0.0030 11.8885 -0.0004 56.5666
#
#
#
# Elastic Compliance Matrix: (Units=1/GPa)
#
#
# Indices 1 2 3 4 5 6 
#
# 1 0.011510 -0.002532 -0.001149 0.000000 0.004830 0.000000
# 2 -0.002532 0.020464 -0.001676 0.000000 -0.000928 0.000000
# 3 -0.001149 -0.001676 0.009034 0.000000 0.008641 0.000001
# 4 0.000000 0.000000 0.000000 0.042579 0.000000 -0.008949
# 5 0.004830 -0.000928 0.008641 0.000000 0.039266 0.000001
# 6 0.000000 0.000000 0.000001 -0.008949 0.000001 0.019559
#
#
# Mechanical properties :
#
#
# Convention : Reuss Voigt Hill
#
# Bulk Modulus (GPa) = 33.00832 48.46684 40.73758
# Shear Modulus (GPa) = 30.63307 39.95840 35.29574
#
# Velocity S-wave (km/s) = 3.60779 4.12051 3.87264
# Velocity P-wave (km/s) = 5.60182 6.57510 6.10787
#
# Compressibility (1/GPa) = 0.03029539
#
# Stress axis : x y z
#
# Youngs Moduli (GPa) = 86.88172 48.86514 110.69823
#
# Poissons Ratio (x) = 0.12372 0.12719
# Poissons Ratio (y) = 0.21997 0.18548
# Poissons Ratio (z) = 0.09982 0.08188
#
# Static dielectric constant tensor:
#      x y z
#    x 1.866740 0.000000 0.070290 
#    y 0.000000 1.900050 0.000000 
#    z 0.070290 0.000000 2.301200 
# 
# From -- ./inp_files/270686.got.cif
#   From: 2010.05.17/outbox.cif.g08.bks.cpg/sg15_136_cif.got.tgz:270686.got - 2010.06.03 18:47:42.
