data_PCOD9267284
_publ_section_title
;
Structure prediction by ZEFSAII (Michael W. Deem and Ramdas Pophale) SiO2 
 PCOD9267284
Probable space group: C 2/C
;
_chemical_formula_sum "Si O2"
_cell_formula_units_Z 64
_cell_length_a 12.751506
_cell_length_b 18.583727
_cell_length_c 15.203255
_cell_angle_alpha 90.000000
_cell_angle_beta 88.592121
_cell_angle_gamma 90.000000
_cell_volume 3601.635447
_symmetry_space_group_name_H-M "C 2/C"
_symmetry_group_IT_number 15
_symmetry_cell_setting 'monoclinic'
loop_
_space_group_symop_operation_xyz
x,y,z
-x,y,1/2-z
-x,-y,-z
x,-y,1/2+z
1/2+x,1/2+y,z
1/2-x,1/2+y,1/2-z
1/2-x,1/2-y,-z
1/2+x,1/2-y,1/2+z
loop_
_atom_site_type_symbol
_atom_site_label
_atom_site_fract_x
_atom_site_fract_y
_atom_site_fract_z
Si Si1 0.377738 0.998687 0.477984
Si Si2 0.071759 0.834697 0.664276
Si Si3 0.321589 0.204143 0.743895
Si Si4 0.672273 0.842993 0.559370
Si Si5 0.379775 0.795953 0.748726
Si Si6 0.603319 0.273588 0.939436
Si Si7 0.623858 0.961458 0.226253
Si Si8 0.714170 0.080476 0.355978
O O1 0.361863 0.976320 0.377349
O O2 0.317118 0.948812 0.548037
O O3 0.500000 0.000000 0.500000
O O4 0.342063 0.080959 0.485102
O O5 0.120839 0.756510 0.687511
O O6 0.166667 0.890464 0.651444
O O7 0.000000 0.855251 0.750000
O O8 0.996057 0.822080 0.582797
O O9 0.200698 0.229452 0.749376
O O10 0.368714 0.228493 0.649116
O O11 0.342102 0.120631 0.756775
O O12 0.648393 0.842127 0.663346
O O13 0.596329 0.783540 0.517610
O O14 0.792574 0.819593 0.544303
O O15 0.500000 0.774334 0.750000
O O16 0.356072 0.850393 0.669578
O O17 0.500000 0.969857 0.250000
O O18 0.687097 0.017200 0.286762
#
# Coordination Sequence:
#
# PCOD9267284 Si02
#       8
#     8   8   8   8   8   8   8   8
#     4  12  24  35  57  89 118 152 189 240 303 349
#     4   9  19  37  62  82 113 156 196 239 296 341
#     4   9  20  35  58  85 109 146 196 241 280 342
#     4  10  20  35  60  85 110 144 196 241 283 348
#     4  10  19  39  58  78 115 154 185 233 297 350
#     4   9  18  36  62  85 106 143 200 245 278 334
#     4  12  22  38  60  84 119 152 194 247 294 349
#     4  11  22  39  58  87 118 154 198 239 292 360
#
# _framework density 17.769705999999999
#
# number of rings (size 3 to 8) (size 9 to 14) (size 15 to 20)
#    0.000    1.750    2.500    3.750    1.750    0.000 
#    2.250    2.500    0.000    0.000    0.000    0.000 
#    0.000    0.000    0.000    0.000    0.000    0.000 
#
# Total GULP energy -178596.555519 kJ/mol
# GULP energy per Si atom -5581.142360 kJ/mol
# Density = 1.772926 g / cm^3
# Si number density = 17.769706 Si / 1000 Ang^3
#
#
#
# Elastic Constant Matrix: (Units=GPa)
#
#
# Indices 1 2 3 4 5 6 
#
# 1 132.2451 61.4136 34.1452 0.0000 8.2814 0.0000
# 2 61.4136 102.6469 39.9097 0.0000 6.4603 0.0000
# 3 34.1452 39.9097 86.7063 0.0000 4.3643 0.0000
# 4 0.0000 0.0000 0.0000 29.2902 0.0000 9.2952
# 5 8.2814 6.4603 4.3643 0.0000 23.0960 0.0000
# 6 0.0000 0.0000 0.0000 9.2952 0.0000 16.9428
#
#
#
# Elastic Compliance Matrix: (Units=1/GPa)
#
#
# Indices 1 2 3 4 5 6 
#
# 1 0.010723 -0.005710 -0.001495 0.000000 -0.001965 0.000000
# 2 -0.005710 0.015030 -0.004605 0.000000 -0.001286 0.000000
# 3 -0.001495 -0.004605 0.014286 0.000000 -0.000875 0.000000
# 4 0.000000 0.000000 0.000000 0.041338 0.000000 -0.022679
# 5 -0.001965 -0.001286 -0.000875 0.000000 0.044527 0.000000
# 6 0.000000 0.000000 0.000000 -0.022679 0.000000 0.071464
#
#
# Mechanical properties :
#
#
# Convention : Reuss Voigt Hill
#
# Bulk Modulus (GPa) = 60.91001 65.83726 63.37364
# Shear Modulus (GPa) = 22.07887 26.27445 24.17666
#
# Velocity S-wave (km/s) = 3.52874 3.84944 3.69257
# Velocity P-wave (km/s) = 7.13824 7.54243 7.34312
#
# Compressibility (1/GPa) = 0.01641766
#
# Stress axis : x y z
#
# Youngs Moduli (GPa) = 93.26029 66.53430 70.00093
#
# Poissons Ratio (x) = 0.37993 0.10468
# Poissons Ratio (y) = 0.53254 0.32232
# Poissons Ratio (z) = 0.13946 0.30636
#
# Static dielectric constant tensor:
#      x y z
#    x 1.607370 0.000000 0.015900 
#    y 0.000000 1.588150 0.000000 
#    z 0.015900 0.000000 1.625620 
# 
# From -- ./inp_files/146066.got.cif
#   From: 2010.05.17/outbox.cif.g08.bks.cpg/sg15_74_cif.got.tgz:146066.got - 2010.06.03 18:47:42.
