data_PCOD9267101
_publ_section_title
;
Structure prediction by ZEFSAII (Michael W. Deem and Ramdas Pophale) SiO2 
 PCOD9267101
Probable space group: C 2/C
;
_chemical_formula_sum "Si O2"
_cell_formula_units_Z 52
_cell_length_a 8.475481
_cell_length_b 26.803163
_cell_length_c 14.345573
_cell_angle_alpha 90.000000
_cell_angle_beta 46.061052
_cell_angle_gamma 90.000000
_cell_volume 2346.652615
_symmetry_space_group_name_H-M "C 2/C"
_symmetry_group_IT_number 15
_symmetry_cell_setting 'monoclinic'
loop_
_space_group_symop_operation_xyz
x,y,z
-x,y,1/2-z
-x,-y,-z
x,-y,1/2+z
1/2+x,1/2+y,z
1/2-x,1/2+y,1/2-z
1/2-x,1/2-y,-z
1/2+x,1/2-y,1/2+z
loop_
_atom_site_type_symbol
_atom_site_label
_atom_site_fract_x
_atom_site_fract_y
_atom_site_fract_z
Si Si1 0.350225 0.509901 0.219303
Si Si2 0.523643 0.592074 0.440336
Si Si3 0.234357 0.904702 0.193123
Si Si4 0.860675 0.341210 0.429906
Si Si5 0.236220 0.662290 0.309316
Si Si6 0.000000 0.253099 0.250000
Si Si7 0.922879 0.581476 0.417285
O O1 0.500000 0.512767 0.250000
O O2 0.513212 0.536620 0.080975
O O3 0.300202 0.452042 0.225997
O O4 0.120299 0.541806 0.315538
O O5 0.307290 0.622140 0.553488
O O6 0.615387 0.624254 0.312933
O O7 0.712632 0.583381 0.438082
O O8 0.394770 0.863486 0.168056
O O9 0.000000 0.886254 0.250000
O O10 0.356155 0.926728 0.051432
O O11 0.786206 0.340291 0.568795
O O12 0.869900 0.288611 0.374263
O O13 0.337297 0.717067 0.257733
O O14 0.005717 0.639124 0.373926
#
# Coordination Sequence:
#
# PCOD9267101 Si02
#       7
#     8   8   8   8   8   4   8
#     4  10  19  38  65  91 122 171 214 255 319 383
#     4  11  21  40  68  99 131 165 217 270 318 389
#     4  10  23  42  60  87 134 174 214 259 323 383
#     4  11  24  42  67  91 131 174 212 268 328 383
#     4  10  20  41  67  93 124 167 214 263 326 385
#     4  12  24  40  68  96 128 166 230 264 326 388
#     4  10  22  38  65  97 129 164 214 272 313 384
#
# _framework density 22.159223000000001
#
# number of rings (size 3 to 8) (size 9 to 14) (size 15 to 20)
#    0.000    1.538    1.538    5.538    3.231    1.231 
#    2.769    6.154    0.000    0.000    0.000    0.000 
#    0.000    0.000    0.000    0.000    0.000    0.000 
#
# Total GULP energy -144832.500295 kJ/mol
# GULP energy per Si atom -5570.480781 kJ/mol
# Density = 2.210879 g / cm^3
# Si number density = 22.159223 Si / 1000 Ang^3
#
#
#
# Elastic Constant Matrix: (Units=GPa)
#
#
# Indices 1 2 3 4 5 6 
#
# 1 67.4539 44.5039 4.0645 0.0000 -22.0620 0.0000
# 2 44.5039 119.2698 19.4635 0.0000 -8.6212 0.0000
# 3 4.0645 19.4635 72.8721 0.0000 2.4359 0.0000
# 4 0.0000 0.0000 0.0000 50.0943 0.0000 -3.7390
# 5 -22.0620 -8.6212 2.4359 0.0000 42.6178 0.0000
# 6 0.0000 0.0000 0.0000 -3.7390 0.0000 30.8340
#
#
#
# Elastic Compliance Matrix: (Units=1/GPa)
#
#
# Indices 1 2 3 4 5 6 
#
# 1 0.023607 -0.008128 0.000502 0.000000 0.010548 0.000000
# 2 -0.008128 0.011723 -0.002621 0.000000 -0.001686 0.000000
# 3 0.000502 -0.002621 0.014431 0.000000 -0.001095 0.000000
# 4 0.000000 0.000000 0.000000 0.020145 0.000000 0.002443
# 5 0.010548 -0.001686 -0.001095 0.000000 0.028646 0.000000
# 6 0.000000 0.000000 0.000000 0.002443 0.000000 0.032728
#
#
# Mechanical properties :
#
#
# Convention : Reuss Voigt Hill
#
# Bulk Modulus (GPa) = 34.16931 43.96220 39.06575
# Shear Modulus (GPa) = 30.95363 37.48015 34.21689
#
# Velocity S-wave (km/s) = 3.74153 4.11713 3.93381
# Velocity P-wave (km/s) = 5.84113 6.51792 6.18878
#
# Compressibility (1/GPa) = 0.02926603
#
# Stress axis : x y z
#
# Youngs Moduli (GPa) = 42.35981 85.30128 69.29302
#
# Poissons Ratio (x) = 0.69334 -0.03476
# Poissons Ratio (y) = 0.34431 0.18165
# Poissons Ratio (z) = -0.02125 0.22361
#
# Static dielectric constant tensor:
#      x y z
#    x 1.823350 0.000000 0.015770 
#    y 0.000000 1.819540 0.000000 
#    z 0.015770 0.000000 1.950450 
# 
# From -- ./inp_files/139723.got.cif
#   From: 2010.05.17/outbox.cif.g08.bks.cpg/sg15_70_cif.got.tgz:139723.got - 2010.06.03 18:47:42.
