data_PCOD9267419
_publ_section_title
;
Structure prediction by ZEFSAII (Michael W. Deem and Ramdas Pophale) SiO2 
 PCOD9267419
Probable space group: C 2/C
;
_chemical_formula_sum "Si O2"
_cell_formula_units_Z 64
_cell_length_a 11.807357
_cell_length_b 30.428051
_cell_length_c 12.460407
_cell_angle_alpha 90.000000
_cell_angle_beta 38.924979
_cell_angle_gamma 90.000000
_cell_volume 2812.727747
_symmetry_space_group_name_H-M "C 2/C"
_symmetry_group_IT_number 15
_symmetry_cell_setting 'monoclinic'
loop_
_space_group_symop_operation_xyz
x,y,z
-x,y,1/2-z
-x,-y,-z
x,-y,1/2+z
1/2+x,1/2+y,z
1/2-x,1/2+y,1/2-z
1/2-x,1/2-y,-z
1/2+x,1/2-y,1/2+z
loop_
_atom_site_type_symbol
_atom_site_label
_atom_site_fract_x
_atom_site_fract_y
_atom_site_fract_z
Si Si1 0.559554 0.565622 0.050636
Si Si2 0.014117 0.559524 0.057506
Si Si3 0.284878 0.201807 0.426330
Si Si4 0.728872 0.497429 0.256918
Si Si5 0.631364 0.108157 0.547054
Si Si6 0.685903 0.624298 0.650956
Si Si7 0.702032 0.199640 0.556501
Si Si8 0.489145 0.655694 0.503339
O O1 0.673797 0.544223 0.868307
O O2 0.692752 0.582545 0.042996
O O3 0.451653 0.609288 0.092872
O O4 0.436485 0.524362 0.166932
O O5 0.151748 0.520777 0.926528
O O6 0.142200 0.596196 0.011598
O O7 0.948304 0.582951 0.995699
O O8 0.847256 0.534094 0.233401
O O9 0.500000 0.196897 0.250000
O O10 0.250000 0.250000 0.500000
O O11 0.213820 0.169409 0.569505
O O12 0.154345 0.185842 0.423982
O O13 0.500000 0.107971 0.750000
O O14 0.683158 0.159205 0.485189
O O15 0.500000 0.601897 0.750000
O O16 0.644809 0.638477 0.803025
O O17 0.500000 0.201690 0.750000
O O18 0.750000 0.250000 0.500000
O O19 0.857823 0.181787 0.520592
#
# Coordination Sequence:
#
# PCOD9267419 Si02
#       8
#     8   8   8   8   8   8   8   8
#     4  10  20  41  61  88 123 165 202 249 313 363
#     4  11  21  40  59  93 123 159 207 256 311 355
#     4  11  25  43  66  96 124 163 216 255 316 379
#     4  10  22  37  61  86 123 158 212 252 298 371
#     4  10  19  39  63  84 122 162 194 242 317 369
#     4  10  21  41  64  89 126 169 204 254 317 370
#     4  10  22  40  63  94 121 162 208 245 305 378
#     4  10  21  42  66  88 132 169 201 260 316 371
#
# _framework density 22.753713999999999
#
# number of rings (size 3 to 8) (size 9 to 14) (size 15 to 20)
#    0.000    1.750    2.500    2.625    1.750    3.500 
#    9.000    2.500    0.000    0.000    0.000    0.000 
#    0.000    0.000    0.000    0.000    0.000    0.000 
#
# Total GULP energy -178522.421456 kJ/mol
# GULP energy per Si atom -5578.825670 kJ/mol
# Density = 2.270193 g / cm^3
# Si number density = 22.753714 Si / 1000 Ang^3
#
#
#
# Elastic Constant Matrix: (Units=GPa)
#
#
# Indices 1 2 3 4 5 6 
#
# 1 63.7129 60.6551 18.4126 0.0000 -22.7896 0.0000
# 2 60.6551 152.8293 25.0786 0.0000 -26.2613 0.0000
# 3 18.4126 25.0786 59.5066 0.0000 -25.0054 0.0000
# 4 0.0000 0.0000 0.0000 33.9779 0.0000 -19.5066
# 5 -22.7896 -26.2613 -25.0054 0.0000 30.8355 0.0000
# 6 0.0000 0.0000 0.0000 -19.5066 0.0000 20.8291
#
#
#
# Elastic Compliance Matrix: (Units=1/GPa)
#
#
# Indices 1 2 3 4 5 6 
#
# 1 0.029595 -0.009384 0.000956 0.000000 0.014656 0.000000
# 2 -0.009384 0.010662 -0.001044 0.000000 0.001298 0.000000
# 3 0.000956 -0.001044 0.025594 0.000000 0.020572 0.000000
# 4 0.000000 0.000000 0.000000 0.063654 0.000000 0.059613
# 5 0.014656 0.001298 0.020572 0.000000 0.061050 0.000000
# 6 0.000000 0.000000 0.000000 0.059613 0.000000 0.103837
#
#
# Mechanical properties :
#
#
# Convention : Reuss Voigt Hill
#
# Bulk Modulus (GPa) = 21.31905 53.81572 37.56738
# Shear Modulus (GPa) = 15.19881 28.58866 21.89373
#
# Velocity S-wave (km/s) = 2.58732 3.54847 3.10531
# Velocity P-wave (km/s) = 4.27965 6.36330 5.42250
#
# Compressibility (1/GPa) = 0.04690641
#
# Stress axis : x y z
#
# Youngs Moduli (GPa) = 33.78894 93.78996 39.07209
#
# Poissons Ratio (x) = 0.88016 -0.03736
# Poissons Ratio (y) = 0.31709 0.04081
# Poissons Ratio (z) = -0.03231 0.09795
#
# Static dielectric constant tensor:
#      x y z
#    x 1.907960 0.000000 0.009790 
#    y 0.000000 1.869420 0.000000 
#    z 0.009790 0.000000 1.993220 
# 
# From -- ./inp_files/149166.got.cif
#   From: 2010.05.17/outbox.cif.g08.bks.cpg/sg15_75_cif.got.tgz:149166.got - 2010.06.03 18:47:42.
