data_PCOD9267852
_publ_section_title
;
Structure prediction by ZEFSAII (Michael W. Deem and Ramdas Pophale) SiO2 
 PCOD9267852
Probable space group: C 2/C
;
_chemical_formula_sum "Si O2"
_cell_formula_units_Z 56
_cell_length_a 26.249746
_cell_length_b 18.761802
_cell_length_c 6.921284
_cell_angle_alpha 90.000000
_cell_angle_beta 139.497224
_cell_angle_gamma 90.000000
_cell_volume 2213.886618
_symmetry_space_group_name_H-M "C 2/C"
_symmetry_group_IT_number 15
_symmetry_cell_setting 'monoclinic'
loop_
_space_group_symop_operation_xyz
x,y,z
-x,y,1/2-z
-x,-y,-z
x,-y,1/2+z
1/2+x,1/2+y,z
1/2-x,1/2+y,1/2-z
1/2-x,1/2-y,-z
1/2+x,1/2-y,1/2+z
loop_
_atom_site_type_symbol
_atom_site_label
_atom_site_fract_x
_atom_site_fract_y
_atom_site_fract_z
Si Si1 0.000000 0.667392 0.750000
Si Si2 0.084655 0.207543 0.307199
Si Si3 0.700487 0.556108 0.156820
Si Si4 0.974681 0.918688 0.396207
Si Si5 0.219987 0.106419 0.650970
Si Si6 0.895497 0.401050 0.602953
Si Si7 0.879294 0.565433 0.605172
Si Si8 0.000000 0.292926 0.750000
O O1 0.933667 0.731914 0.593445
O O2 0.932280 0.606167 0.606606
O O3 0.169582 0.173441 0.566023
O O4 0.065069 0.245471 0.043031
O O5 0.027060 0.139914 0.150163
O O6 0.706880 0.591886 0.384963
O O7 0.785052 0.566880 0.297993
O O8 0.618577 0.584585 0.836288
O O9 0.694986 0.470190 0.167335
O O10 0.000000 0.905469 0.250000
O O11 0.000000 0.000000 0.500000
O O12 0.311599 0.120156 0.939710
O O13 0.906565 0.483139 0.688743
O O14 0.890867 0.403691 0.354241
O O15 0.963141 0.340967 0.821265
#
# Coordination Sequence:
#
# PCOD9267852 Si02
#       8
#     4   8   8   8   8   8   8   4
#     4  12  27  44  59  92 138 174 220 258 331 386
#     4  12  25  41  62  90 133 173 213 266 324 392
#     4  10  19  40  67  96 126 160 221 274 320 374
#     4  12  22  38  65  94 126 169 215 270 315 389
#     4  10  21  41  65  98 125 166 218 270 323 382
#     4  10  23  41  72  95 125 167 221 272 325 386
#     4  10  23  43  67  97 126 170 218 276 316 390
#     4  12  23  42  61  96 126 176 206 262 331 388
#
# _framework density 25.294882999999999
#
# number of rings (size 3 to 8) (size 9 to 14) (size 15 to 20)
#    0.000    1.143    5.000    0.429    3.000    2.857 
#    2.571    0.714    0.000    0.000    0.000    0.000 
#    0.000    0.000    0.000    0.000    0.000    0.000 
#
# Total GULP energy -156479.944939 kJ/mol
# GULP energy per Si atom -5588.569462 kJ/mol
# Density = 2.523731 g / cm^3
# Si number density = 25.294883 Si / 1000 Ang^3
#
#
#
# Elastic Constant Matrix: (Units=GPa)
#
#
# Indices 1 2 3 4 5 6 
#
# 1 126.0138 64.3758 30.4399 0.0000 34.9356 0.0000
# 2 64.3758 186.7183 52.3796 0.0000 47.0737 0.0000
# 3 30.4399 52.3796 105.9825 0.0000 52.3308 0.0000
# 4 0.0000 0.0000 0.0000 24.3370 0.0000 -23.6721
# 5 34.9356 47.0737 52.3308 0.0000 49.6836 0.0000
# 6 0.0000 0.0000 0.0000 -23.6721 0.0000 22.6797
#
#
#
# Elastic Compliance Matrix: (Units=1/GPa)
#
#
# Indices 1 2 3 4 5 6 
#
# 1 0.010683 -0.002380 0.001466 0.000000 -0.006801 0.000000
# 2 -0.002380 0.007574 -0.000714 0.000000 -0.004751 0.000000
# 3 0.001466 -0.000714 0.019883 0.000000 -0.021297 0.000000
# 4 0.000000 0.000000 0.000000 -2.696991 0.000000 -2.814998
# 5 -0.006801 -0.004751 -0.021297 0.000000 0.051842 0.000000
# 6 0.000000 0.000000 0.000000 -2.814998 0.000000 -2.894077
#
#
# Mechanical properties :
#
#
# Convention : Reuss Voigt Hill
#
# Bulk Modulus (GPa) = 28.66605 79.23389 53.94997
# Shear Modulus (GPa) = -0.91138 37.44136 18.26499
#
# Velocity S-wave (km/s) = -0.60090 3.85150 2.69007
# Velocity P-wave (km/s) = 3.29786 7.15338 5.56986
#
# Compressibility (1/GPa) = 0.03488447
#
# Stress axis : x y z
#
# Youngs Moduli (GPa) = 93.60872 132.02710 50.29420
#
# Poissons Ratio (x) = 0.31420 -0.07374
# Poissons Ratio (y) = 0.22277 0.03591
# Poissons Ratio (z) = -0.13724 0.09427
#
# Static dielectric constant tensor:
#      x y z
#    x 2.155950 0.000000 -0.106830 
#    y 0.000000 1.935540 0.000000 
#    z -0.106830 0.000000 2.041790 
# 
# From -- ./inp_files/67229.got.cif
#   From: 2010.05.17/outbox.cif.g08.bks.cpg/sg15_34_cif.got.tgz:67229.got - 2010.06.03 18:47:42.
