data_PCOD9267149
_publ_section_title
;
Structure prediction by ZEFSAII (Michael W. Deem and Ramdas Pophale) SiO2 
 PCOD9267149
Probable space group: C 2/C
;
_chemical_formula_sum "Si O2"
_cell_formula_units_Z 56
_cell_length_a 25.248319
_cell_length_b 5.899067
_cell_length_c 16.617914
_cell_angle_alpha 90.000000
_cell_angle_beta 109.771127
_cell_angle_gamma 90.000000
_cell_volume 2329.193805
_symmetry_space_group_name_H-M "C 2/C"
_symmetry_group_IT_number 15
_symmetry_cell_setting 'monoclinic'
loop_
_space_group_symop_operation_xyz
x,y,z
-x,y,1/2-z
-x,-y,-z
x,-y,1/2+z
1/2+x,1/2+y,z
1/2-x,1/2+y,1/2-z
1/2-x,1/2-y,-z
1/2+x,1/2-y,1/2+z
loop_
_atom_site_type_symbol
_atom_site_label
_atom_site_fract_x
_atom_site_fract_y
_atom_site_fract_z
Si Si1 0.563562 0.197558 0.164147
Si Si2 0.167739 0.580675 0.711347
Si Si3 0.324185 0.835899 0.116837
Si Si4 0.292974 0.854514 0.932896
Si Si5 0.038887 0.155658 0.962683
Si Si6 0.359270 0.467827 0.898024
Si Si7 0.559599 0.571664 0.303642
O O1 0.502481 0.152903 0.094287
O O2 0.599449 0.350186 0.120713
O O3 0.561954 0.353749 0.243797
O O4 0.601742 0.978050 0.188151
O O5 0.191121 0.520479 0.811085
O O6 0.193790 0.461948 0.646768
O O7 0.172715 0.843468 0.690484
O O8 0.273491 0.654873 0.087563
O O9 0.383748 0.718379 0.165460
O O10 0.321844 0.953586 0.028401
O O11 0.318772 0.600629 0.937033
O O12 0.053523 0.012695 0.891351
O O13 0.097744 0.205180 0.036092
O O14 0.000000 0.000000 0.000000
O O15 0.500000 0.690896 0.250000
#
# Coordination Sequence:
#
# PCOD9267149 Si02
#       7
#     8   8   8   8   8   8   8
#     4   9  20  37  58  93 127 164 217 269 320 393
#     4  11  24  39  67  99 131 172 221 274 332 391
#     4  11  23  45  66  96 134 178 219 277 329 393
#     4  10  25  44  64  99 136 171 226 272 326 399
#     4   9  18  34  64  87 124 173 210 267 330 391
#     4  10  19  39  62  92 127 171 211 262 338 388
#     4  10  19  38  66  89 125 174 217 268 334 390
#
# _framework density 24.042650999999999
#
# number of rings (size 3 to 8) (size 9 to 14) (size 15 to 20)
#    0.000    2.000    2.857    0.000    2.000    1.714 
#    0.000    5.000    0.000    0.000    0.000    0.000 
#    0.000    0.000    0.000    0.000    0.000    0.000 
#
# Total GULP energy -156144.882895 kJ/mol
# GULP energy per Si atom -5576.602961 kJ/mol
# Density = 2.398793 g / cm^3
# Si number density = 24.042651 Si / 1000 Ang^3
#
#
#
# Elastic Constant Matrix: (Units=GPa)
#
#
# Indices 1 2 3 4 5 6 
#
# 1 123.5504 13.9030 59.2380 0.0000 -9.1537 0.0000
# 2 13.9030 14.2850 17.7179 0.0000 -0.8372 0.0000
# 3 59.2380 17.7179 172.0718 0.0000 -16.8694 0.0000
# 4 0.0000 0.0000 0.0000 18.4248 0.0000 -12.0076
# 5 -9.1537 -0.8372 -16.8694 0.0000 42.0483 0.0000
# 6 0.0000 0.0000 0.0000 -12.0076 0.0000 22.5762
#
#
#
# Elastic Compliance Matrix: (Units=1/GPa)
#
#
# Indices 1 2 3 4 5 6 
#
# 1 0.010215 -0.006469 -0.002754 0.000000 0.000990 0.000000
# 2 -0.006469 0.084478 -0.006709 0.000000 -0.002418 0.000000
# 3 -0.002754 -0.006709 0.007680 0.000000 0.002348 0.000000
# 4 0.000000 0.000000 0.000000 0.083068 0.000000 0.044182
# 5 0.000990 -0.002418 0.002348 0.000000 0.024892 0.000000
# 6 0.000000 0.000000 0.000000 0.044182 0.000000 0.067793
#
#
# Mechanical properties :
#
#
# Convention : Reuss Voigt Hill
#
# Bulk Modulus (GPa) = 14.18199 54.62502 34.40351
# Shear Modulus (GPa) = 14.99278 31.21308 23.10293
#
# Velocity S-wave (km/s) = 2.49989 3.60702 3.10322
# Velocity P-wave (km/s) = 3.77413 6.33378 5.21349
#
# Compressibility (1/GPa) = 0.07051197
#
# Stress axis : x y z
#
# Youngs Moduli (GPa) = 97.89109 11.83737 130.19996
#
# Poissons Ratio (x) = 0.07657 0.35852
# Poissons Ratio (y) = 0.63324 0.87346
# Poissons Ratio (z) = 0.26956 0.07941
#
# Static dielectric constant tensor:
#      x y z
#    x 1.931570 0.000000 0.024930 
#    y 0.000000 1.864660 0.000000 
#    z 0.024930 0.000000 2.016650 
# 
# From -- ./inp_files/221302.got.cif
#   From: 2010.05.17/outbox.cif.g08.bks.cpg/sg15_111_cif.got.tgz:221302.got - 2010.06.03 18:47:42.
