data_PCOD9267954
_publ_section_title
;
Structure prediction by ZEFSAII (Michael W. Deem and Ramdas Pophale) SiO2 
 PCOD9267954
Probable space group: C 2/C
;
_chemical_formula_sum "Si O2"
_cell_formula_units_Z 36
_cell_length_a 27.380954
_cell_length_b 8.978246
_cell_length_c 9.480605
_cell_angle_alpha 90.000000
_cell_angle_beta 38.181954
_cell_angle_gamma 90.000000
_cell_volume 1440.713498
_symmetry_space_group_name_H-M "C 2/C"
_symmetry_group_IT_number 15
_symmetry_cell_setting 'monoclinic'
loop_
_space_group_symop_operation_xyz
x,y,z
-x,y,1/2-z
-x,-y,-z
x,-y,1/2+z
1/2+x,1/2+y,z
1/2-x,1/2+y,1/2-z
1/2-x,1/2-y,-z
1/2+x,1/2-y,1/2+z
loop_
_atom_site_type_symbol
_atom_site_label
_atom_site_fract_x
_atom_site_fract_y
_atom_site_fract_z
Si Si1 0.500000 0.286617 0.250000
Si Si2 0.919654 0.973066 0.092665
Si Si3 0.911249 0.572998 0.265417
Si Si4 0.289352 0.690454 0.054909
Si Si5 0.118269 0.667226 0.474706
O O1 0.426881 0.389176 0.468709
O O2 0.478711 0.184007 0.166058
O O3 0.848009 0.940686 0.365888
O O4 0.911924 0.828093 0.008259
O O5 0.000000 0.000000 0.000000
O O6 0.837186 0.665789 0.499251
O O7 0.893268 0.570777 0.141427
O O8 0.926778 0.414687 0.298789
O O9 0.209581 0.659379 0.319988
O O10 0.250000 0.750000 0.000000
#
# Coordination Sequence:
#
# PCOD9267954 Si02
#       5
#     4   8   8   8   8
#     4  12  22  38  66  92 130 176 222 272 326 396
#     4  10  19  41  62  91 126 172 217 267 327 393
#     4  10  22  40  64  94 133 169 219 274 329 391
#     4   8  18  39  64  90 129 167 216 269 324 385
#     4  10  22  44  67  96 132 176 218 277 329 395
#
# _framework density 24.987617
#
# number of rings (size 3 to 8) (size 9 to 14) (size 15 to 20)
#    0.000    2.667    4.444    0.000    0.000    7.111 
#    4.000    2.222    0.000    0.000    0.000    0.000 
#    0.000    0.000    0.000    0.000    0.000    0.000 
#
# Total GULP energy -100317.933575 kJ/mol
# GULP energy per Si atom -5573.218532 kJ/mol
# Density = 2.493074 g / cm^3
# Si number density = 24.987617 Si / 1000 Ang^3
#
#
#
# Elastic Constant Matrix: (Units=GPa)
#
#
# Indices 1 2 3 4 5 6 
#
# 1 97.2412 34.0040 33.5212 0.0000 -4.4688 0.0000
# 2 34.0040 93.8386 56.2289 0.0000 -15.0387 0.0000
# 3 33.5212 56.2289 109.4635 0.0000 -31.3860 0.0000
# 4 0.0000 0.0000 0.0000 42.7543 0.0000 -1.7604
# 5 -4.4688 -15.0387 -31.3860 0.0000 36.1691 0.0000
# 6 0.0000 0.0000 0.0000 -1.7604 0.0000 43.9978
#
#
#
# Elastic Compliance Matrix: (Units=1/GPa)
#
#
# Indices 1 2 3 4 5 6 
#
# 1 0.012230 -0.003124 -0.002769 0.000000 -0.002190 0.000000
# 2 -0.003124 0.016203 -0.007382 0.000000 -0.000055 0.000000
# 3 -0.002769 -0.007382 0.017036 0.000000 0.011372 0.000000
# 4 0.000000 0.000000 0.000000 0.023428 0.000000 0.000937
# 5 -0.002190 -0.000055 0.011372 0.000000 0.037222 0.000000
# 6 0.000000 0.000000 0.000000 0.000937 0.000000 0.022766
#
#
# Mechanical properties :
#
#
# Convention : Reuss Voigt Hill
#
# Bulk Modulus (GPa) = 52.85518 60.89462 56.87490
# Shear Modulus (GPa) = 30.91355 36.37016 33.64186
#
# Velocity S-wave (km/s) = 3.52114 3.81928 3.67323
# Velocity P-wave (km/s) = 6.14245 6.62359 6.38755
#
# Compressibility (1/GPa) = 0.01891962
#
# Stress axis : x y z
#
# Youngs Moduli (GPa) = 81.76776 61.71561 58.69922
#
# Poissons Ratio (x) = 0.19278 0.16251
# Poissons Ratio (y) = 0.25542 0.43334
# Poissons Ratio (z) = 0.22638 0.45561
#
# Static dielectric constant tensor:
#      x y z
#    x 2.100910 0.000000 -0.157610 
#    y 0.000000 2.011130 0.000000 
#    z -0.157610 0.000000 2.245080 
# 
# From -- ./inp_files/125235.got.cif
#   From: 2010.05.17/outbox.cif.g08.bks.cpg/sg15_63_cif.got.tgz:125235.got - 2010.06.03 18:47:42.
