data_PCOD9267450
_publ_section_title
;
Structure prediction by ZEFSAII (Michael W. Deem and Ramdas Pophale) SiO2 
 PCOD9267450
Probable space group: C 2/C
;
_chemical_formula_sum "Si O2"
_cell_formula_units_Z 56
_cell_length_a 17.950393
_cell_length_b 9.235323
_cell_length_c 15.926046
_cell_angle_alpha 90.000000
_cell_angle_beta 117.389944
_cell_angle_gamma 90.000000
_cell_volume 2344.208222
_symmetry_space_group_name_H-M "C 2/C"
_symmetry_group_IT_number 15
_symmetry_cell_setting 'monoclinic'
loop_
_space_group_symop_operation_xyz
x,y,z
-x,y,1/2-z
-x,-y,-z
x,-y,1/2+z
1/2+x,1/2+y,z
1/2-x,1/2+y,1/2-z
1/2-x,1/2-y,-z
1/2+x,1/2-y,1/2+z
loop_
_atom_site_type_symbol
_atom_site_label
_atom_site_fract_x
_atom_site_fract_y
_atom_site_fract_z
Si Si1 0.086914 0.403491 0.108048
Si Si2 0.534239 0.682792 0.939253
Si Si3 0.868510 0.938730 0.441718
Si Si4 0.646962 0.622129 0.225856
Si Si5 0.585689 0.076355 0.877968
Si Si6 0.800668 0.628060 0.419935
Si Si7 0.000000 0.663178 0.250000
Si Si8 0.500000 0.339775 0.750000
O O1 0.138119 0.290034 0.192767
O O2 0.134871 0.550765 0.111839
O O3 0.996569 0.432676 0.103523
O O4 0.073799 0.311965 0.015687
O O5 0.455606 0.629771 0.953211
O O6 0.503473 0.741082 0.834523
O O7 0.603124 0.553954 0.973224
O O8 0.813719 0.799940 0.434249
O O9 0.831137 0.029452 0.344709
O O10 0.711388 0.596327 0.333852
O O11 0.553567 0.578690 0.208481
O O12 0.567791 0.232400 0.827926
O O13 0.576493 0.950329 0.804543
O O14 0.669574 0.067808 0.975021
#
# Coordination Sequence:
#
# PCOD9267450 Si02
#       8
#     8   8   8   8   8   8   4   4
#     4  10  19  39  63  92 123 170 213 264 303 387
#     4  10  20  37  62  90 128 164 216 252 315 374
#     4  10  22  38  60  97 123 164 212 263 314 375
#     4  10  23  39  62  92 128 168 210 263 320 372
#     4  10  20  35  65  91 122 163 219 254 311 375
#     4  12  20  36  65  96 127 159 211 272 312 370
#     4  11  20  35  58 100 119 171 208 260 303 379
#     4   9  22  41  56  86 125 169 216 250 311 391
#
# _framework density 23.888660999999999
#
# number of rings (size 3 to 8) (size 9 to 14) (size 15 to 20)
#    0.000    1.714    2.857    2.143    2.000    1.143 
#    0.000    0.000    0.000    0.857    0.000    0.000 
#    0.000    0.000    0.000    0.000    0.000    0.000 
#
# Total GULP energy -156590.894439 kJ/mol
# GULP energy per Si atom -5592.531944 kJ/mol
# Density = 2.383429 g / cm^3
# Si number density = 23.888661 Si / 1000 Ang^3
#
#
#
# Elastic Constant Matrix: (Units=GPa)
#
#
# Indices 1 2 3 4 5 6 
#
# 1 40.5572 18.7818 20.6847 0.0000 -5.1033 0.0000
# 2 18.7818 113.5528 47.6773 0.0000 0.7167 0.0000
# 3 20.6847 47.6773 192.1971 0.0000 15.8236 0.0000
# 4 0.0000 0.0000 0.0000 44.1929 0.0000 -4.3624
# 5 -5.1033 0.7167 15.8236 0.0000 30.4821 0.0000
# 6 0.0000 0.0000 0.0000 -4.3624 0.0000 17.4358
#
#
#
# Elastic Compliance Matrix: (Units=1/GPa)
#
#
# Indices 1 2 3 4 5 6 
#
# 1 0.028489 -0.003626 -0.002681 0.000000 0.006246 0.000000
# 2 -0.003626 0.010326 -0.002195 0.000000 0.000290 0.000000
# 3 -0.002681 -0.002195 0.006340 0.000000 -0.003688 0.000000
# 4 0.000000 0.000000 0.000000 0.023201 0.000000 0.005805
# 5 0.006246 0.000290 -0.003688 0.000000 0.035760 0.000000
# 6 0.000000 0.000000 0.000000 0.005805 0.000000 0.058806
#
#
# Mechanical properties :
#
#
# Convention : Reuss Voigt Hill
#
# Bulk Modulus (GPa) = 35.52294 57.84385 46.68340
# Shear Modulus (GPa) = 26.41189 35.69971 31.05580
#
# Velocity S-wave (km/s) = 3.32870 3.86997 3.60949
# Velocity P-wave (km/s) = 5.44758 6.65097 6.07913
#
# Compressibility (1/GPa) = 0.02815082
#
# Stress axis : x y z
#
# Youngs Moduli (GPa) = 35.10134 96.84235 157.73612
#
# Poissons Ratio (x) = 0.35114 0.42287
# Poissons Ratio (y) = 0.12728 0.34625
# Poissons Ratio (z) = 0.09410 0.21258
#
# Static dielectric constant tensor:
#      x y z
#    x 1.904300 0.000000 -0.032450 
#    y 0.000000 1.953230 0.000000 
#    z -0.032450 0.000000 1.958510 
# 
# From -- ./inp_files/214054.got.cif
#   From: 2010.05.17/outbox.cif.g08.bks.cpg/sg15_108_cif.got.tgz:214054.got - 2010.06.03 18:47:42.
