data_PCOD9267504
_publ_section_title
;
Structure prediction by ZEFSAII (Michael W. Deem and Ramdas Pophale) SiO2 
 PCOD9267504
Probable space group: C 2/C
;
_chemical_formula_sum "Si O2"
_cell_formula_units_Z 64
_cell_length_a 14.593466
_cell_length_b 19.729291
_cell_length_c 15.798334
_cell_angle_alpha 90.000000
_cell_angle_beta 137.515719
_cell_angle_gamma 90.000000
_cell_volume 3072.094023
_symmetry_space_group_name_H-M "C 2/C"
_symmetry_group_IT_number 15
_symmetry_cell_setting 'monoclinic'
loop_
_space_group_symop_operation_xyz
x,y,z
-x,y,1/2-z
-x,-y,-z
x,-y,1/2+z
1/2+x,1/2+y,z
1/2-x,1/2+y,1/2-z
1/2-x,1/2-y,-z
1/2+x,1/2-y,1/2+z
loop_
_atom_site_type_symbol
_atom_site_label
_atom_site_fract_x
_atom_site_fract_y
_atom_site_fract_z
Si Si1 0.120193 0.763739 0.264806
Si Si2 0.120725 0.643037 0.959499
Si Si3 0.657156 0.535080 0.335124
Si Si4 0.649531 0.603693 0.879647
Si Si5 0.825365 0.624073 0.703168
Si Si6 0.656859 0.350542 0.575873
Si Si7 0.595209 0.273750 0.060080
Si Si8 0.345105 0.505667 0.362528
O O1 0.183957 0.837225 0.335608
O O2 0.236732 0.709060 0.349674
O O3 0.057312 0.751544 0.129138
O O4 0.000000 0.753298 0.250000
O O5 0.154250 0.642246 0.882047
O O6 0.964966 0.617448 0.850051
O O7 0.236493 0.596338 0.080740
O O8 0.114079 0.715210 0.003906
O O9 0.500000 0.555694 0.250000
O O10 0.717050 0.470270 0.428607
O O11 0.655980 0.506520 0.239193
O O12 0.500000 0.582756 0.750000
O O13 0.632330 0.634754 0.960368
O O14 0.734650 0.686696 0.671817
O O15 0.739860 0.555864 0.657159
O O16 0.524360 0.327856 0.539323
O O17 0.710116 0.421265 0.647939
O O18 0.500000 0.500000 0.500000
#
# Coordination Sequence:
#
# PCOD9267504 Si02
#       8
#     8   8   8   8   8   8   8   8
#     4  11  23  41  60 102 139 173 219 281 343 410
#     4  11  26  47  68 101 143 180 229 291 353 412
#     4  11  24  42  70 104 134 176 230 284 348 419
#     4  10  19  39  64  93 128 173 213 265 332 403
#     4  11  25  48  70  97 139 185 230 290 353 409
#     4  12  23  39  68  96 129 179 226 273 342 408
#     4  12  23  43  70  96 135 180 235 279 341 417
#     4  12  23  44  72  98 134 179 234 289 337 415
#
# _framework density 20.832695999999999
#
# number of rings (size 3 to 8) (size 9 to 14) (size 15 to 20)
#    0.000    0.750    3.750    6.000    0.000    0.500 
#    6.750    0.000    0.000    0.000    0.000    0.000 
#    0.000    0.000    0.000    0.000    0.000    0.000 
#
# Total GULP energy -178499.503174 kJ/mol
# GULP energy per Si atom -5578.109474 kJ/mol
# Density = 2.078528 g / cm^3
# Si number density = 20.832696 Si / 1000 Ang^3
#
#
#
# Elastic Constant Matrix: (Units=GPa)
#
#
# Indices 1 2 3 4 5 6 
#
# 1 89.6395 46.7482 40.4633 0.0001 -1.3988 0.0000
# 2 46.7482 134.1207 40.0191 0.0001 6.4698 0.0000
# 3 40.4633 40.0191 64.6915 0.0000 2.8534 0.0000
# 4 0.0001 0.0001 0.0000 14.8301 0.0000 3.1281
# 5 -1.3988 6.4698 2.8534 0.0000 37.9185 0.0000
# 6 0.0000 0.0000 0.0000 3.1281 0.0000 51.9722
#
#
#
# Elastic Compliance Matrix: (Units=1/GPa)
#
#
# Indices 1 2 3 4 5 6 
#
# 1 0.016788 -0.003413 -0.008470 0.000000 0.001839 0.000000
# 2 -0.003413 0.009887 -0.003915 0.000000 -0.001518 0.000000
# 3 -0.008470 -0.003915 0.023239 0.000000 -0.001393 0.000000
# 4 0.000000 0.000000 0.000000 0.068297 0.000000 -0.004111
# 5 0.001839 -0.001518 -0.001393 0.000000 0.026804 0.000000
# 6 0.000000 0.000000 0.000000 -0.004111 0.000000 0.019488
#
#
# Mechanical properties :
#
#
# Convention : Reuss Voigt Hill
#
# Bulk Modulus (GPa) = 54.59010 60.32364 57.45687
# Shear Modulus (GPa) = 24.72737 31.69223 28.20980
#
# Velocity S-wave (km/s) = 3.44895 3.90458 3.68382
# Velocity P-wave (km/s) = 6.49009 7.02473 6.76269
#
# Compressibility (1/GPa) = 0.01831834
#
# Stress axis : x y z
#
# Youngs Moduli (GPa) = 59.56691 101.14546 43.03096
#
# Poissons Ratio (x) = 0.34518 0.36449
# Poissons Ratio (y) = 0.20329 0.16844
# Poissons Ratio (z) = 0.50456 0.39593
#
# Static dielectric constant tensor:
#      x y z
#    x 1.800330 0.000000 -0.020040 
#    y 0.000000 1.836240 0.000000 
#    z -0.020040 0.000000 1.650270 
# 
# From -- ./inp_files/155511.got.cif
#   From: 2010.05.17/outbox.cif.g08.bks.cpg/sg15_78_cif.got.tgz:155511.got - 2010.06.03 18:47:42.
