data_PCOD9267942
_publ_section_title
;
Structure prediction by ZEFSAII (Michael W. Deem and Ramdas Pophale) SiO2 
 PCOD9267942
Probable space group: C 2/C
;
_chemical_formula_sum "Si O2"
_cell_formula_units_Z 44
_cell_length_a 14.289343
_cell_length_b 33.785648
_cell_length_c 5.105981
_cell_angle_alpha 90.000000
_cell_angle_beta 117.292468
_cell_angle_gamma 90.000000
_cell_volume 2190.624306
_symmetry_space_group_name_H-M "C 2/C"
_symmetry_group_IT_number 15
_symmetry_cell_setting 'monoclinic'
loop_
_space_group_symop_operation_xyz
x,y,z
-x,y,1/2-z
-x,-y,-z
x,-y,1/2+z
1/2+x,1/2+y,z
1/2-x,1/2+y,1/2-z
1/2-x,1/2-y,-z
1/2+x,1/2-y,1/2+z
loop_
_atom_site_type_symbol
_atom_site_label
_atom_site_fract_x
_atom_site_fract_y
_atom_site_fract_z
Si Si1 0.270497 0.597976 0.979942
Si Si2 0.217135 0.647408 0.407211
Si Si3 0.500000 0.242273 0.750000
Si Si4 0.500000 0.619880 0.250000
Si Si5 0.000000 0.311922 0.750000
Si Si6 0.909738 0.806342 0.327843
Si Si7 0.379813 0.026417 0.565175
O O1 0.234673 0.631779 0.137760
O O2 0.396664 0.594695 0.183513
O O3 0.245072 0.613112 0.654513
O O4 0.205079 0.559296 0.970138
O O5 0.298168 0.683339 0.563128
O O6 0.099881 0.661629 0.305842
O O7 0.525164 0.214554 0.536833
O O8 0.407568 0.273199 0.549965
O O9 0.543373 0.651424 0.517082
O O10 0.000000 0.791362 0.250000
O O11 0.500000 0.041881 0.750000
O O12 0.368810 0.009420 0.258954
#
# Coordination Sequence:
#
# PCOD9267942 Si02
#       7
#     8   8   4   4   4   8   8
#     4  11  22  40  65  92 118 164 192 257 298 348
#     4  11  25  38  64  87 125 151 206 252 304 354
#     4  11  24  40  62  80 122 159 204 247 312 362
#     4   9  20  36  64  92 118 147 216 249 294 348
#     4  12  26  42  52  94 120 154 200 258 310 366
#     4  10  19  41  61  86 111 162 207 248 293 367
#     4  10  22  40  62  91 127 163 201 232 282 364
#
# _framework density 20.085598999999998
#
# number of rings (size 3 to 8) (size 9 to 14) (size 15 to 20)
#    0.000    1.455    2.727    2.182    2.545    1.455 
#    0.000    0.909    0.000    0.000    0.000    0.000 
#    0.000    0.000    0.000    0.000    0.000    0.000 
#
# Total GULP energy -122817.192003 kJ/mol
# GULP energy per Si atom -5582.599636 kJ/mol
# Density = 2.003988 g / cm^3
# Si number density = 20.085599 Si / 1000 Ang^3
#
#
#
# Elastic Constant Matrix: (Units=GPa)
#
#
# Indices 1 2 3 4 5 6 
#
# 1 118.2602 28.8238 9.5868 0.0000 29.3088 0.0000
# 2 28.8238 39.8678 -1.4375 0.0000 20.2179 0.0000
# 3 9.5868 -1.4375 35.3913 0.0000 -2.6605 0.0000
# 4 0.0000 0.0000 0.0000 13.6751 0.0000 -2.6969
# 5 29.3088 20.2179 -2.6605 0.0000 41.8329 0.0000
# 6 0.0000 0.0000 0.0000 -2.6969 0.0000 -83.7712
#
#
#
# Elastic Compliance Matrix: (Units=1/GPa)
#
#
# Indices 1 2 3 4 5 6 
#
# 1 0.011519 -0.005629 -0.003769 0.000000 -0.005589 0.000000
# 2 -0.005629 0.035978 0.001985 0.000000 -0.013318 0.000000
# 3 -0.003769 0.001985 0.029625 0.000000 0.003565 0.000000
# 4 0.000000 0.000000 0.000000 0.072664 0.000000 -0.002339
# 5 -0.005589 -0.013318 0.003565 0.000000 0.034484 0.000000
# 6 0.000000 0.000000 0.000000 -0.002339 0.000000 -0.011862
#
#
# Mechanical properties :
#
#
# Convention : Reuss Voigt Hill
#
# Bulk Modulus (GPa) = 16.05252 29.71839 22.88546
# Shear Modulus (GPa) = 24.03841 4.78375 14.41108
#
# Velocity S-wave (km/s) = 3.46323 1.54494 2.68149
# Velocity P-wave (km/s) = 4.89912 4.24387 4.58322
#
# Compressibility (1/GPa) = 0.06229552
#
# Stress axis : x y z
#
# Youngs Moduli (GPa) = 86.81525 27.79450 33.75510
#
# Poissons Ratio (x) = 0.15646 0.12722
# Poissons Ratio (y) = 0.48871 -0.06700
# Poissons Ratio (z) = 0.32721 -0.05517
#
# Static dielectric constant tensor:
#      x y z
#    x 2.091500 0.000000 0.577310 
#    y 0.000000 1.697610 0.000000 
#    z 0.577310 0.000000 2.750730 
# 
# From -- ./inp_files/8330.got.cif
#   From: 2010.05.17/outbox.cif.g08.bks.cpg/sg15_5_cif.got.tgz:8330.got - 2010.06.03 18:47:42.
