data_PCOD9267698
_publ_section_title
;
Structure prediction by ZEFSAII (Michael W. Deem and Ramdas Pophale) SiO2 
 PCOD9267698
Probable space group: C 2/C
;
_chemical_formula_sum "Si O2"
_cell_formula_units_Z 40
_cell_length_a 8.179838
_cell_length_b 15.383245
_cell_length_c 12.425789
_cell_angle_alpha 90.000000
_cell_angle_beta 98.478250
_cell_angle_gamma 90.000000
_cell_volume 1546.480679
_symmetry_space_group_name_H-M "C 2/C"
_symmetry_group_IT_number 15
_symmetry_cell_setting 'monoclinic'
loop_
_space_group_symop_operation_xyz
x,y,z
-x,y,1/2-z
-x,-y,-z
x,-y,1/2+z
1/2+x,1/2+y,z
1/2-x,1/2+y,1/2-z
1/2-x,1/2-y,-z
1/2+x,1/2-y,1/2+z
loop_
_atom_site_type_symbol
_atom_site_label
_atom_site_fract_x
_atom_site_fract_y
_atom_site_fract_z
Si Si1 0.814410 0.070494 0.687236
Si Si2 0.429762 0.704310 0.091122
Si Si3 0.650824 0.049859 0.456304
Si Si4 0.247739 0.876835 0.737120
Si Si5 0.227841 0.363904 0.385580
O O1 0.768551 0.087833 0.560035
O O2 0.723548 0.137141 0.757093
O O3 0.000000 0.076484 0.750000
O O4 0.761036 0.971248 0.707059
O O5 0.276840 0.683941 0.160024
O O6 0.584655 0.652744 0.153029
O O7 0.429266 0.808814 0.088751
O O8 0.379243 0.673213 0.968827
O O9 0.622012 0.113047 0.350350
O O10 0.500000 0.000000 0.500000
O O11 0.737262 0.965591 0.413054
#
# Coordination Sequence:
#
# PCOD9267698 Si02
#       5
#     8   8   8   8   8
#     4  11  20  39  66  94 121 171 227 267 319 396
#     4  10  19  40  61  95 119 170 212 276 325 383
#     4  11  24  40  61  97 131 172 213 275 331 395
#     4  10  20  37  66  88 123 166 224 260 319 399
#     4  10  22  37  62  89 133 161 215 273 334 378
#
# _framework density 25.865179000000001
#
# number of rings (size 3 to 8) (size 9 to 14) (size 15 to 20)
#    0.000    1.600    4.000    1.200    0.000    9.600 
#    0.000    8.000    0.000    0.000    0.000    0.000 
#    0.000    0.000    0.000    0.000    0.000    0.000 
#
# Total GULP energy -111507.111988 kJ/mol
# GULP energy per Si atom -5575.355599 kJ/mol
# Density = 2.580631 g / cm^3
# Si number density = 25.865179 Si / 1000 Ang^3
#
#
#
# Elastic Constant Matrix: (Units=GPa)
#
#
# Indices 1 2 3 4 5 6 
#
# 1 57.9259 -13.8907 33.1333 0.0000 4.4715 0.0000
# 2 -13.8907 60.2160 23.7012 0.0000 3.4602 0.0000
# 3 33.1333 23.7012 204.7047 0.0000 16.7367 0.0000
# 4 0.0000 0.0000 0.0000 40.6789 0.0000 -1.2699
# 5 4.4715 3.4602 16.7367 0.0000 30.1226 0.0000
# 6 0.0000 0.0000 0.0000 -1.2699 0.0000 23.6537
#
#
#
# Elastic Compliance Matrix: (Units=1/GPa)
#
#
# Indices 1 2 3 4 5 6 
#
# 1 0.021312 0.006618 -0.004080 0.000000 -0.001657 0.000000
# 2 0.006618 0.019479 -0.003209 0.000000 -0.001437 0.000000
# 3 -0.004080 -0.003209 0.006115 0.000000 -0.002423 0.000000
# 4 0.000000 0.000000 0.000000 0.024624 0.000000 0.001322
# 5 -0.001657 -0.001437 -0.002423 0.000000 0.034955 0.000000
# 6 0.000000 0.000000 0.000000 0.001322 0.000000 0.042348
#
#
# Mechanical properties :
#
#
# Convention : Reuss Voigt Hill
#
# Bulk Modulus (GPa) = 21.94766 45.41490 33.68128
# Shear Modulus (GPa) = 30.23628 37.55125 33.89377
#
# Velocity S-wave (km/s) = 3.42277 3.81439 3.62387
# Velocity P-wave (km/s) = 4.91165 6.08242 5.52812
#
# Compressibility (1/GPa) = 0.04556295
#
# Stress axis : x y z
#
# Youngs Moduli (GPa) = 46.92166 51.33720 163.52708
#
# Poissons Ratio (x) = -0.33973 0.66724
# Poissons Ratio (y) = -0.31051 0.52475
# Poissons Ratio (z) = 0.19145 0.16474
#
# Static dielectric constant tensor:
#      x y z
#    x 2.184910 0.000000 -0.093290 
#    y 0.000000 2.010620 0.000000 
#    z -0.093290 0.000000 2.036340 
# 
# From -- ./inp_files/76926.got.cif
#   From: 2010.05.17/outbox.cif.g08.bks.cpg/sg15_39_cif.got.tgz:76926.got - 2010.06.03 18:47:42.
