data_PCOD9267729
_publ_section_title
;
Structure prediction by ZEFSAII (Michael W. Deem and Ramdas Pophale) SiO2 
 PCOD9267729
Probable space group: C 2/C
;
_chemical_formula_sum "Si O2"
_cell_formula_units_Z 52
_cell_length_a 23.499881
_cell_length_b 11.627513
_cell_length_c 10.813814
_cell_angle_alpha 90.000000
_cell_angle_beta 119.807179
_cell_angle_gamma 90.000000
_cell_volume 2563.908840
_symmetry_space_group_name_H-M "C 2/C"
_symmetry_group_IT_number 15
_symmetry_cell_setting 'monoclinic'
loop_
_space_group_symop_operation_xyz
x,y,z
-x,y,1/2-z
-x,-y,-z
x,-y,1/2+z
1/2+x,1/2+y,z
1/2-x,1/2+y,1/2-z
1/2-x,1/2-y,-z
1/2+x,1/2-y,1/2+z
loop_
_atom_site_type_symbol
_atom_site_label
_atom_site_fract_x
_atom_site_fract_y
_atom_site_fract_z
Si Si1 0.598939 0.202050 0.710414
Si Si2 0.341597 0.425017 0.695072
Si Si3 0.747997 0.649403 0.175355
Si Si4 0.113376 0.380145 0.946877
Si Si5 0.840296 0.815409 0.166009
Si Si6 0.290010 0.043690 0.577526
Si Si7 0.000000 0.551829 0.750000
O O1 0.599224 0.335514 0.748693
O O2 0.610095 0.178591 0.577029
O O3 0.661537 0.148465 0.849991
O O4 0.536315 0.131985 0.689734
O O5 0.300375 0.377153 0.766981
O O6 0.363314 0.557843 0.728495
O O7 0.284514 0.421287 0.529629
O O8 0.796626 0.757824 0.227295
O O9 0.791057 0.535739 0.200119
O O10 0.705875 0.665227 0.004538
O O11 0.111417 0.282297 0.836689
O O12 0.178943 0.456335 0.991020
O O13 0.054370 0.469290 0.868287
#
# Coordination Sequence:
#
# PCOD9267729 Si02
#       7
#     8   8   8   8   8   8   4
#     4  11  21  37  58  84 115 154 188 247 299 325
#     4  11  20  31  56  86 128 153 177 236 288 359
#     4   9  17  31  53  78 118 158 180 220 271 350
#     4  10  19  40  63  80 112 157 197 244 282 342
#     4   9  19  34  52  83 114 152 195 214 284 350
#     4   9  20  32  54  90 118 148 192 227 280 363
#     4  10  24  40  64  84 104 142 218 256 278 336
#
# _framework density 20.281531999999999
#
# number of rings (size 3 to 8) (size 9 to 14) (size 15 to 20)
#    0.000    2.154    1.538    2.769    2.154    0.000 
#    0.000    0.769    0.000    1.846    0.000    0.000 
#    0.000    0.000    0.000    0.000    0.000    0.000 
#
# Total GULP energy -144897.872648 kJ/mol
# GULP energy per Si atom -5572.995102 kJ/mol
# Density = 2.023537 g / cm^3
# Si number density = 20.281532 Si / 1000 Ang^3
#
#
#
# Elastic Constant Matrix: (Units=GPa)
#
#
# Indices 1 2 3 4 5 6 
#
# 1 65.8843 47.2762 14.1704 0.0000 -5.2650 0.0000
# 2 47.2762 167.9049 27.0718 0.0000 -4.5226 0.0000
# 3 14.1704 27.0718 29.1550 0.0000 -9.0810 0.0000
# 4 0.0000 0.0000 0.0000 18.4166 0.0000 2.8601
# 5 -5.2650 -4.5226 -9.0810 0.0000 20.2954 0.0000
# 6 0.0000 0.0000 0.0000 2.8601 0.0000 29.1824
#
#
#
# Elastic Compliance Matrix: (Units=1/GPa)
#
#
# Indices 1 2 3 4 5 6 
#
# 1 0.019740 -0.004773 -0.004530 0.000000 0.002030 0.000000
# 2 -0.004773 0.008202 -0.005940 0.000000 -0.002068 0.000000
# 3 -0.004530 -0.005940 0.047916 0.000000 0.018941 0.000000
# 4 0.000000 0.000000 0.000000 0.055138 0.000000 -0.005404
# 5 0.002030 -0.002068 0.018941 0.000000 0.057813 0.000000
# 6 0.000000 0.000000 0.000000 -0.005404 0.000000 0.034797
#
#
# Mechanical properties :
#
#
# Convention : Reuss Voigt Hill
#
# Bulk Modulus (GPa) = 22.04010 48.88679 35.46344
# Shear Modulus (GPa) = 18.57251 25.20727 21.88989
#
# Velocity S-wave (km/s) = 3.02939 3.52926 3.28884
# Velocity P-wave (km/s) = 4.80905 6.38467 5.65203
#
# Compressibility (1/GPa) = 0.04537185
#
# Stress axis : x y z
#
# Youngs Moduli (GPa) = 50.65978 121.92658 20.86969
#
# Poissons Ratio (x) = 0.58195 0.09454
# Poissons Ratio (y) = 0.24179 0.12397
# Poissons Ratio (z) = 0.22948 0.72425
#
# Static dielectric constant tensor:
#      x y z
#    x 1.754630 0.000000 -0.020970 
#    y 0.000000 1.806580 0.000000 
#    z -0.020970 0.000000 1.726560 
# 
# From -- ./inp_files/110949.got.cif
#   From: 2010.05.17/outbox.cif.g08.bks.cpg/sg15_56_cif.got.tgz:110949.got - 2010.06.03 18:47:42.
