data_PCOD9267774
_publ_section_title
;
Structure prediction by ZEFSAII (Michael W. Deem and Ramdas Pophale) SiO2 
 PCOD9267774
Probable space group: C 2/C
;
_chemical_formula_sum "Si O2"
_cell_formula_units_Z 32
_cell_length_a 13.599713
_cell_length_b 12.946035
_cell_length_c 8.310681
_cell_angle_alpha 90.000000
_cell_angle_beta 59.984608
_cell_angle_gamma 90.000000
_cell_volume 1266.970154
_symmetry_space_group_name_H-M "C 2/C"
_symmetry_group_IT_number 15
_symmetry_cell_setting 'monoclinic'
loop_
_space_group_symop_operation_xyz
x,y,z
-x,y,1/2-z
-x,-y,-z
x,-y,1/2+z
1/2+x,1/2+y,z
1/2-x,1/2+y,1/2-z
1/2-x,1/2-y,-z
1/2+x,1/2-y,1/2+z
loop_
_atom_site_type_symbol
_atom_site_label
_atom_site_fract_x
_atom_site_fract_y
_atom_site_fract_z
Si Si1 0.000000 0.833164 0.750000
Si Si2 0.868989 0.365977 0.340778
Si Si3 0.941257 0.874377 0.459976
Si Si4 0.500000 0.170290 0.250000
Si Si5 0.799440 0.550149 0.234252
O O1 0.889861 0.756703 0.826761
O O2 0.006856 0.890056 0.574281
O O3 0.815488 0.426669 0.235236
O O4 0.805273 0.409639 0.548374
O O5 0.000000 0.401683 0.250000
O O6 0.815834 0.915217 0.587493
O O7 0.000000 0.914866 0.250000
O O8 0.945544 0.750234 0.423473
O O9 0.404223 0.104541 0.240228
#
# Coordination Sequence:
#
# PCOD9267774 Si02
#       5
#     4   8   8   4   8
#     4  10  21  44  68  95 130 168 224 272 315 388
#     4  10  22  39  64  95 127 164 221 273 319 380
#     4  10  24  42  65  98 134 173 219 268 326 393
#     4  10  19  40  64  93 132 166 218 270 327 374
#     4  12  22  40  67  97 132 172 215 278 327 383
#
# _framework density 25.257104999999999
#
# number of rings (size 3 to 8) (size 9 to 14) (size 15 to 20)
#    1.500    0.000    3.750    1.500    3.500    1.000 
#    4.500    1.250    0.000    0.000    0.000    0.000 
#    0.000    0.000    0.000    0.000    0.000    0.000 
#
# Total GULP energy -89526.991560 kJ/mol
# GULP energy per Si atom -5595.436972 kJ/mol
# Density = 2.519962 g / cm^3
# Si number density = 25.257105 Si / 1000 Ang^3
#
#
#
# Elastic Constant Matrix: (Units=GPa)
#
#
# Indices 1 2 3 4 5 6 
#
# 1 61.4634 56.6753 37.0743 0.0000 1.3728 0.0000
# 2 56.6753 102.7283 50.0136 0.0000 2.8189 0.0000
# 3 37.0743 50.0136 175.7239 0.0000 8.7030 0.0000
# 4 0.0000 0.0000 0.0000 2.5345 0.0000 70.2472
# 5 1.3728 2.8189 8.7030 0.0000 55.7520 0.0000
# 6 0.0000 0.0000 0.0000 70.2472 0.0000 -92.6216
#
#
#
# Elastic Compliance Matrix: (Units=1/GPa)
#
#
# Indices 1 2 3 4 5 6 
#
# 1 0.033790 -0.017613 -0.002136 0.000000 0.000392 0.000000
# 2 -0.017613 0.020481 -0.002100 0.000000 -0.000274 0.000000
# 3 -0.002136 -0.002100 0.006783 0.000000 -0.000900 0.000000
# 4 0.000000 0.000000 0.000000 0.017917 0.000000 0.013589
# 5 0.000392 -0.000274 -0.000900 0.000000 0.018081 0.000000
# 6 0.000000 0.000000 0.000000 0.013589 0.000000 -0.000490
#
#
# Mechanical properties :
#
#
# Convention : Reuss Voigt Hill
#
# Bulk Modulus (GPa) = 57.60912 69.71578 63.66245
# Shear Modulus (GPa) = 34.23568 6.20980 20.22274
#
# Velocity S-wave (km/s) = 3.68569 1.56970 2.83269
# Velocity P-wave (km/s) = 6.40086 5.56306 5.99661
#
# Compressibility (1/GPa) = 0.01735836
#
# Stress axis : x y z
#
# Youngs Moduli (GPa) = 29.59425 48.82481 147.41679
#
# Poissons Ratio (x) = 0.85996 0.31481
# Poissons Ratio (y) = 0.52125 0.30953
# Poissons Ratio (z) = 0.06320 0.10252
#
# Static dielectric constant tensor:
#      x y z
#    x 1.939900 0.000000 0.032960 
#    y 0.000000 2.017190 0.000000 
#    z 0.032960 0.000000 1.980700 
# 
# From -- ./inp_files/38474.got.cif
#   From: 2010.05.17/outbox.cif.g08.bks.cpg/sg15_20_cif.got.tgz:38474.got - 2010.06.03 18:47:42.
