data_PCOD9267166
_publ_section_title
;
Structure prediction by ZEFSAII (Michael W. Deem and Ramdas Pophale) SiO2 
 PCOD9267166
Probable space group: C 2/C
;
_chemical_formula_sum "Si O2"
_cell_formula_units_Z 56
_cell_length_a 8.507546
_cell_length_b 17.176577
_cell_length_c 26.073932
_cell_angle_alpha 90.000000
_cell_angle_beta 47.333149
_cell_angle_gamma 90.000000
_cell_volume 2801.664026
_symmetry_space_group_name_H-M "C 2/C"
_symmetry_group_IT_number 15
_symmetry_cell_setting 'monoclinic'
loop_
_space_group_symop_operation_xyz
x,y,z
-x,y,1/2-z
-x,-y,-z
x,-y,1/2+z
1/2+x,1/2+y,z
1/2-x,1/2+y,1/2-z
1/2-x,1/2-y,-z
1/2+x,1/2-y,1/2+z
loop_
_atom_site_type_symbol
_atom_site_label
_atom_site_fract_x
_atom_site_fract_y
_atom_site_fract_z
Si Si1 0.972679 0.865036 0.357023
Si Si2 0.791436 0.479359 0.578536
Si Si3 0.077734 0.704076 0.175193
Si Si4 0.542936 0.585474 0.427340
Si Si5 0.320460 0.408193 0.082370
Si Si6 0.885192 0.568608 0.720460
Si Si7 0.254140 0.909913 0.694760
O O1 0.867509 0.784449 0.364930
O O2 0.054714 0.868931 0.397775
O O3 0.182731 0.877182 0.275509
O O4 0.823130 0.939581 0.381495
O O5 0.626826 0.431915 0.579537
O O6 0.836232 0.431644 0.619938
O O7 0.000000 0.500000 0.500000
O O8 0.276219 0.645046 0.129715
O O9 0.000000 0.717759 0.250000
O O10 0.883780 0.662264 0.188196
O O11 0.649276 0.501563 0.416645
O O12 0.421929 0.612461 0.505572
O O13 0.067104 0.395337 0.143861
O O14 0.803212 0.485939 0.718285
O O15 0.000000 0.556261 0.750000
O O16 0.000000 0.896949 0.750000
#
# Coordination Sequence:
#
# PCOD9267166 Si02
#       7
#     8   8   8   8   8   8   8
#     4  10  24  41  67  97 131 171 224 275 333 387
#     4  11  24  42  69 102 130 171 224 281 328 399
#     4  12  27  43  65  98 137 180 218 278 338 400
#     4  10  21  42  65  98 130 176 220 264 339 407
#     4   9  19  38  71  93 126 172 225 266 318 411
#     4  10  19  38  66  94 124 176 226 270 320 399
#     4  12  23  38  67  95 132 172 225 276 330 384
#
# _framework density 19.988121
#
# number of rings (size 3 to 8) (size 9 to 14) (size 15 to 20)
#    0.000    1.429    2.857    2.143    8.000    2.286 
#    0.000    0.714    0.000    0.000    0.000    0.000 
#    0.000    0.000    0.000    0.000    0.000    0.000 
#
# Total GULP energy -156629.774102 kJ/mol
# GULP energy per Si atom -5593.920504 kJ/mol
# Density = 1.994263 g / cm^3
# Si number density = 19.988121 Si / 1000 Ang^3
#
#
#
# Elastic Constant Matrix: (Units=GPa)
#
#
# Indices 1 2 3 4 5 6 
#
# 1 71.5543 39.8206 32.1651 -0.0001 -4.9107 -0.0001
# 2 39.8206 64.1993 32.2173 0.0004 13.4052 -0.0002
# 3 32.1651 32.2173 105.0176 0.0001 -2.9806 -0.0002
# 4 -0.0001 0.0004 0.0001 15.3690 -0.0002 5.7622
# 5 -4.9107 13.4052 -2.9806 -0.0002 32.4331 0.0001
# 6 -0.0001 -0.0002 -0.0002 5.7622 0.0001 20.6770
#
#
#
# Elastic Compliance Matrix: (Units=1/GPa)
#
#
# Indices 1 2 3 4 5 6 
#
# 1 0.024855 -0.016434 -0.002277 0.000001 0.010347 0.000000
# 2 -0.016434 0.031710 -0.005150 -0.000001 -0.016068 0.000000
# 3 -0.002277 -0.005150 0.011881 0.000000 0.002876 0.000000
# 4 0.000001 -0.000001 0.000000 0.072658 0.000001 -0.020248
# 5 0.010347 -0.016068 0.002876 0.000001 0.039305 0.000000
# 6 0.000000 0.000000 0.000000 -0.020248 0.000000 0.054006
#
#
# Mechanical properties :
#
#
# Convention : Reuss Voigt Hill
#
# Bulk Modulus (GPa) = 48.25750 49.90857 49.08304
# Shear Modulus (GPa) = 17.29830 22.80036 20.04933
#
# Velocity S-wave (km/s) = 2.94501 3.38108 3.17055
# Velocity P-wave (km/s) = 5.97993 6.34552 6.16544
#
# Compressibility (1/GPa) = 0.02072217
#
# Stress axis : x y z
#
# Youngs Moduli (GPa) = 40.23338 31.53596 84.16537
#
# Poissons Ratio (x) = 0.51827 0.19167
# Poissons Ratio (y) = 0.66121 0.43349
# Poissons Ratio (z) = 0.09162 0.16242
#
# Static dielectric constant tensor:
#      x y z
#    x 1.709250 0.000000 0.004090 
#    y 0.000000 1.667210 0.000000 
#    z 0.004090 0.000000 1.712670 
# 
# From -- ./inp_files/289719.got.cif
#   From: 2010.05.17/outbox.cif.g08.bks.cpg/sg15_145_cif.got.tgz:289719.got - 2010.06.03 18:47:42.
