data_PCOD9267019
_publ_section_title
;
Structure prediction by ZEFSAII (Michael W. Deem and Ramdas Pophale) SiO2 
 PCOD9267019
Probable space group: C 2/C
;
_chemical_formula_sum "Si O2"
_cell_formula_units_Z 48
_cell_length_a 13.305331
_cell_length_b 21.464099
_cell_length_c 12.159155
_cell_angle_alpha 90.000000
_cell_angle_beta 138.464317
_cell_angle_gamma 90.000000
_cell_volume 2302.564656
_symmetry_space_group_name_H-M "C 2/C"
_symmetry_group_IT_number 15
_symmetry_cell_setting 'monoclinic'
loop_
_space_group_symop_operation_xyz
x,y,z
-x,y,1/2-z
-x,-y,-z
x,-y,1/2+z
1/2+x,1/2+y,z
1/2-x,1/2+y,1/2-z
1/2-x,1/2-y,-z
1/2+x,1/2-y,1/2+z
loop_
_atom_site_type_symbol
_atom_site_label
_atom_site_fract_x
_atom_site_fract_y
_atom_site_fract_z
Si Si1 0.358074 0.597615 0.220149
Si Si2 0.334142 0.457906 0.164370
Si Si3 0.825141 0.354173 0.592172
Si Si4 0.177048 0.318229 0.426206
Si Si5 0.108606 0.133866 0.587406
Si Si6 0.853621 0.233997 0.711599
O O1 0.500000 0.603283 0.250000
O O2 0.289938 0.528192 0.157262
O O3 0.448601 0.611980 0.406067
O O4 0.226420 0.644729 0.076407
O O5 0.500000 0.463209 0.250000
O O6 0.341170 0.416049 0.279803
O O7 0.249158 0.419370 0.999463
O O8 0.795245 0.304783 0.666297
O O9 0.774894 0.309522 0.448975
O O10 0.000000 0.367350 0.750000
O O11 0.250000 0.250000 0.500000
O O12 0.264432 0.355905 0.401317
O O13 0.000000 0.314331 0.250000
O O14 0.096885 0.200899 0.636935
O O15 0.000000 0.230655 0.750000
#
# Coordination Sequence:
#
# PCOD9267019 Si02
#       6
#     8   8   8   8   8   8
#     4   9  20  39  66  89 117 160 208 255 291 353
#     4  10  20  38  61  94 128 159 196 238 303 379
#     4   9  17  31  48  80 131 153 185 233 293 359
#     4  11  24  47  62  86 116 158 212 264 301 346
#     4  10  19  38  64  87 122 160 205 247 304 357
#     4   9  18  35  55  86 126 157 195 240 303 375
#
# _framework density 20.846319000000001
#
# number of rings (size 3 to 8) (size 9 to 14) (size 15 to 20)
#    0.000    2.333    0.000    4.000    0.000    1.333 
#   36.000    0.833    0.000    0.000    0.000    0.000 
#    0.000    0.000    0.000    0.000    0.000    0.000 
#
# Total GULP energy -133712.152024 kJ/mol
# GULP energy per Si atom -5571.339668 kJ/mol
# Density = 2.079887 g / cm^3
# Si number density = 20.846319 Si / 1000 Ang^3
#
#
#
# Elastic Constant Matrix: (Units=GPa)
#
#
# Indices 1 2 3 4 5 6 
#
# 1 32.4543 4.0243 15.8322 0.0000 6.4775 0.0000
# 2 4.0243 165.7827 85.1216 0.0000 13.7322 0.0000
# 3 15.8322 85.1216 127.5512 0.0000 30.1801 0.0000
# 4 0.0000 0.0000 0.0000 12.6070 0.0000 -1.6501
# 5 6.4775 13.7322 30.1801 0.0000 33.8860 0.0000
# 6 0.0000 0.0000 0.0000 -1.6501 0.0000 20.0445
#
#
#
# Elastic Compliance Matrix: (Units=1/GPa)
#
#
# Indices 1 2 3 4 5 6 
#
# 1 0.033459 0.001833 -0.004672 0.000000 -0.002978 0.000000
# 2 0.001833 0.009408 -0.006995 0.000000 0.002067 0.000000
# 3 -0.004672 -0.006995 0.015465 0.000000 -0.010046 0.000000
# 4 0.000000 0.000000 0.000000 0.080185 0.000000 0.006601
# 5 -0.002978 0.002067 -0.010046 0.000000 0.038190 0.000000
# 6 0.000000 0.000000 0.000000 0.006601 0.000000 0.050432
#
#
# Mechanical properties :
#
#
# Convention : Reuss Voigt Hill
#
# Bulk Modulus (GPa) = 25.86365 59.52715 42.69540
# Shear Modulus (GPa) = 19.25345 28.02818 23.64082
#
# Velocity S-wave (km/s) = 3.04236 3.67074 3.37122
# Velocity P-wave (km/s) = 4.97745 6.82517 5.97319
#
# Compressibility (1/GPa) = 0.03866430
#
# Stress axis : x y z
#
# Youngs Moduli (GPa) = 29.88761 106.29392 64.66213
#
# Poissons Ratio (x) = -0.19486 0.30209
# Poissons Ratio (y) = -0.05479 0.45231
# Poissons Ratio (z) = 0.13963 0.74353
#
# Static dielectric constant tensor:
#      x y z
#    x 1.789340 0.000000 -0.044730 
#    y 0.000000 1.796020 0.000000 
#    z -0.044730 0.000000 1.781010 
# 
# From -- ./inp_files/100072.got.cif
#   From: 2010.05.17/outbox.cif.g08.bks.cpg/sg15_51_cif.got.tgz:100072.got - 2010.06.03 18:47:42.
