data_PCOD9267393
_publ_section_title
;
Structure prediction by ZEFSAII (Michael W. Deem and Ramdas Pophale) SiO2 
 PCOD9267393
Probable space group: C 2/C
;
_chemical_formula_sum "Si O2"
_cell_formula_units_Z 64
_cell_length_a 14.340497
_cell_length_b 25.849397
_cell_length_c 12.581935
_cell_angle_alpha 90.000000
_cell_angle_beta 43.019021
_cell_angle_gamma 90.000000
_cell_volume 3181.998322
_symmetry_space_group_name_H-M "C 2/C"
_symmetry_group_IT_number 15
_symmetry_cell_setting 'monoclinic'
loop_
_space_group_symop_operation_xyz
x,y,z
-x,y,1/2-z
-x,-y,-z
x,-y,1/2+z
1/2+x,1/2+y,z
1/2-x,1/2+y,1/2-z
1/2-x,1/2-y,-z
1/2+x,1/2-y,1/2+z
loop_
_atom_site_type_symbol
_atom_site_label
_atom_site_fract_x
_atom_site_fract_y
_atom_site_fract_z
Si Si1 0.335960 0.970823 0.408042
Si Si2 0.099401 0.714727 0.767929
Si Si3 0.839464 0.710562 0.105518
Si Si4 0.340750 0.912931 0.855175
Si Si5 0.311392 0.101121 0.735113
Si Si6 0.858737 0.131936 0.818855
Si Si7 0.860578 0.748263 0.316454
Si Si8 0.125947 0.407930 0.920666
O O1 0.500000 0.968525 0.250000
O O2 0.276115 0.936131 0.362588
O O3 0.313138 0.946689 0.543074
O O4 0.296574 0.030397 0.433193
O O5 0.219172 0.756147 0.654024
O O6 0.165324 0.659437 0.740916
O O7 0.000000 0.709921 0.750000
O O8 0.992476 0.730007 0.950108
O O9 0.819871 0.716227 0.247584
O O10 0.839813 0.650650 0.072882
O O11 0.500000 0.905452 0.750000
O O12 0.326855 0.913696 0.739599
O O13 0.251967 0.872028 0.994359
O O14 0.202223 0.102564 0.731830
O O15 0.460656 0.085787 0.563264
O O16 0.880938 0.191639 0.766504
O O17 0.000000 0.112015 0.750000
O O18 0.750000 0.750000 0.500000
O O19 0.000000 0.727728 0.250000
#
# Coordination Sequence:
#
# PCOD9267393 Si02
#       8
#     8   8   8   8   8   8   8   8
#     4   9  21  36  63  95 118 152 196 259 306 346
#     4  11  22  38  61  88 120 160 201 241 291 355
#     4  11  22  37  59  88 120 160 195 243 292 351
#     4  11  22  37  67  92 117 154 201 257 298 350
#     4  10  19  39  62  87 124 159 196 245 304 355
#     4  11  24  40  58  89 126 163 196 241 303 364
#     4  11  23  37  58  86 123 158 199 241 290 354
#     4  10  21  37  61  94 123 147 203 252 299 350
#
# _framework density 20.113147000000001
#
# number of rings (size 3 to 8) (size 9 to 14) (size 15 to 20)
#    0.000    1.500    2.500    3.750    3.500    3.500 
#    0.000    0.625    0.000    0.000    0.000    0.000 
#    0.000    0.000    0.000    0.000    0.000    0.000 
#
# Total GULP energy -178825.544069 kJ/mol
# GULP energy per Si atom -5588.298252 kJ/mol
# Density = 2.006737 g / cm^3
# Si number density = 20.113147 Si / 1000 Ang^3
#
#
#
# Elastic Constant Matrix: (Units=GPa)
#
#
# Indices 1 2 3 4 5 6 
#
# 1 99.9339 23.6602 8.0495 0.0000 4.9437 0.0000
# 2 23.6602 73.7134 13.1049 0.0000 -2.2508 0.0000
# 3 8.0495 13.1049 45.0357 0.0000 3.4752 0.0000
# 4 0.0000 0.0000 0.0000 28.5943 0.0000 7.8634
# 5 4.9437 -2.2508 3.4752 0.0000 34.0137 0.0000
# 6 0.0000 0.0000 0.0000 7.8634 0.0000 12.6133
#
#
#
# Elastic Compliance Matrix: (Units=1/GPa)
#
#
# Indices 1 2 3 4 5 6 
#
# 1 0.010971 -0.003427 -0.000830 0.000000 -0.001737 0.000000
# 2 -0.003427 0.015441 -0.004030 0.000000 0.001932 0.000000
# 3 -0.000830 -0.004030 0.023724 0.000000 -0.002570 0.000000
# 4 0.000000 0.000000 0.000000 0.042208 0.000000 -0.026313
# 5 -0.001737 0.001932 -0.002570 0.000000 0.030043 0.000000
# 6 0.000000 0.000000 0.000000 -0.026313 0.000000 0.095686
#
#
# Mechanical properties :
#
#
# Convention : Reuss Voigt Hill
#
# Bulk Modulus (GPa) = 29.79453 34.25692 32.02572
# Shear Modulus (GPa) = 20.33900 26.63547 23.48724
#
# Velocity S-wave (km/s) = 3.18343 3.64302 3.42095
# Velocity P-wave (km/s) = 5.32522 5.89614 5.61794
#
# Compressibility (1/GPa) = 0.03356321
#
# Stress axis : x y z
#
# Youngs Moduli (GPa) = 91.15195 64.76099 42.15166
#
# Poissons Ratio (x) = 0.22193 0.03497
# Poissons Ratio (y) = 0.31236 0.16986
# Poissons Ratio (z) = 0.07563 0.26098
#
# Static dielectric constant tensor:
#      x y z
#    x 1.701080 0.000000 0.021860 
#    y 0.000000 1.728120 0.000000 
#    z 0.021860 0.000000 1.726740 
# 
# From -- ./inp_files/101310.got.cif
#   From: 2010.05.17/outbox.cif.g08.bks.cpg/sg15_51_cif.got.tgz:101310.got - 2010.06.03 18:47:42.
