data_PCOD9267847
_publ_section_title
;
Structure prediction by ZEFSAII (Michael W. Deem and Ramdas Pophale) SiO2 
 PCOD9267847
Probable space group: C 2/C
;
_chemical_formula_sum "Si O2"
_cell_formula_units_Z 48
_cell_length_a 14.669329
_cell_length_b 31.761708
_cell_length_c 5.495520
_cell_angle_alpha 90.000000
_cell_angle_beta 116.647568
_cell_angle_gamma 90.000000
_cell_volume 2288.519342
_symmetry_space_group_name_H-M "C 2/C"
_symmetry_group_IT_number 15
_symmetry_cell_setting 'monoclinic'
loop_
_space_group_symop_operation_xyz
x,y,z
-x,y,1/2-z
-x,-y,-z
x,-y,1/2+z
1/2+x,1/2+y,z
1/2-x,1/2+y,1/2-z
1/2-x,1/2-y,-z
1/2+x,1/2-y,1/2+z
loop_
_atom_site_type_symbol
_atom_site_label
_atom_site_fract_x
_atom_site_fract_y
_atom_site_fract_z
Si Si1 0.000000 0.776429 0.750000
Si Si2 0.845698 0.473978 0.353859
Si Si3 0.161632 0.837179 0.785420
Si Si4 0.500000 0.776005 0.750000
Si Si5 0.184436 0.095995 0.685433
Si Si6 0.500000 0.090583 0.250000
Si Si7 0.500000 0.374249 0.250000
Si Si8 0.838905 0.344196 0.671386
O O1 0.103277 0.804905 0.889776
O O2 0.002771 0.749722 0.504948
O O3 0.854021 0.504145 0.600789
O O4 0.739940 0.448395 0.248809
O O5 0.933242 0.439099 0.497358
O O6 0.076815 0.843576 0.479538
O O7 0.272060 0.826350 0.813563
O O8 0.173644 0.883796 0.908554
O O9 0.400238 0.805999 0.627272
O O10 0.073325 0.097647 0.671300
O O11 0.258020 0.129956 0.910218
O O12 0.574189 0.120510 0.179956
#
# Coordination Sequence:
#
# PCOD9267847 Si02
#       8
#     4   8   8   4   8   4   4   8
#     4  12  26  42  68  94 134 172 222 277 339 382
#     4  11  25  43  66 102 140 170 211 271 333 386
#     4  11  22  41  70  94 125 177 229 271 324 395
#     4  11  27  46  60 102 140 170 216 278 334 390
#     4  10  22  40  70  93 126 178 225 269 319 401
#     4   9  20  46  67  97 130 188 216 261 314 409
#     4  10  19  40  67  95 122 168 236 274 313 383
#     4   9  23  43  66  95 132 178 222 266 322 393
#
# _framework density 20.974260000000001
#
# number of rings (size 3 to 8) (size 9 to 14) (size 15 to 20)
#    0.000    1.667    1.667    1.000   11.667    1.333 
#    3.000    0.833    0.000    0.000    0.000    0.000 
#    0.000    0.000    0.000    0.000    0.000    0.000 
#
# Total GULP energy -133918.027661 kJ/mol
# GULP energy per Si atom -5579.917819 kJ/mol
# Density = 2.092652 g / cm^3
# Si number density = 20.974260 Si / 1000 Ang^3
#
#
#
# Elastic Constant Matrix: (Units=GPa)
#
#
# Indices 1 2 3 4 5 6 
#
# 1 168.9654 55.0057 28.8455 0.0000 7.3456 0.0000
# 2 55.0057 93.2493 29.6848 0.0000 -2.5868 0.0000
# 3 28.8455 29.6848 49.7765 0.0000 -13.9133 0.0000
# 4 0.0000 0.0000 0.0000 18.6645 0.0000 2.5680
# 5 7.3456 -2.5868 -13.9133 0.0000 22.6525 0.0000
# 6 0.0000 0.0000 0.0000 2.5680 0.0000 -11.4156
#
#
#
# Elastic Compliance Matrix: (Units=1/GPa)
#
#
# Indices 1 2 3 4 5 6 
#
# 1 0.008017 -0.003597 -0.004035 0.000000 -0.005489 0.000000
# 2 -0.003597 0.015162 -0.007422 0.000000 -0.001661 0.000000
# 3 -0.004035 -0.007422 0.032576 0.000000 0.020469 0.000000
# 4 0.000000 0.000000 0.000000 0.051969 0.000000 0.011691
# 5 -0.005489 -0.001661 0.020469 0.000000 0.058308 0.000000
# 6 0.000000 0.000000 0.000000 0.011691 0.000000 -0.084969
#
#
# Mechanical properties :
#
#
# Convention : Reuss Voigt Hill
#
# Bulk Modulus (GPa) = 38.99068 59.89592 49.44330
# Shear Modulus (GPa) = 41.76466 19.21063 30.48765
#
# Velocity S-wave (km/s) = 4.46717 3.02969 3.81671
# Velocity P-wave (km/s) = 6.72589 6.39199 6.56106
#
# Compressibility (1/GPa) = 0.02564715
#
# Stress axis : x y z
#
# Youngs Moduli (GPa) = 124.73998 65.95342 30.69772
#
# Poissons Ratio (x) = 0.23721 0.12386
# Poissons Ratio (y) = 0.44865 0.22784
# Poissons Ratio (z) = 0.50331 0.48952
#
# Static dielectric constant tensor:
#      x y z
#    x 1.914870 0.000000 0.050430 
#    y 0.000000 1.750980 0.000000 
#    z 0.050430 0.000000 1.850990 
# 
# From -- ./inp_files/9199.got.cif
#   From: 2010.05.17/outbox.cif.g08.bks.cpg/sg15_5_cif.got.tgz:9199.got - 2010.06.03 18:47:42.
