data_PCOD9267936
_publ_section_title
;
Structure prediction by ZEFSAII (Michael W. Deem and Ramdas Pophale) SiO2 
 PCOD9267936
Probable space group: C 2/C
;
_chemical_formula_sum "Si O2"
_cell_formula_units_Z 48
_cell_length_a 18.904996
_cell_length_b 15.705236
_cell_length_c 9.587050
_cell_angle_alpha 90.000000
_cell_angle_beta 136.546017
_cell_angle_gamma 90.000000
_cell_volume 1957.719179
_symmetry_space_group_name_H-M "C 2/C"
_symmetry_group_IT_number 15
_symmetry_cell_setting 'monoclinic'
loop_
_space_group_symop_operation_xyz
x,y,z
-x,y,1/2-z
-x,-y,-z
x,-y,1/2+z
1/2+x,1/2+y,z
1/2-x,1/2+y,1/2-z
1/2-x,1/2-y,-z
1/2+x,1/2-y,1/2+z
loop_
_atom_site_type_symbol
_atom_site_label
_atom_site_fract_x
_atom_site_fract_y
_atom_site_fract_z
Si Si1 0.099943 0.390785 0.312529
Si Si2 0.411083 0.873941 0.523865
Si Si3 0.181728 0.131303 0.828633
Si Si4 0.846793 0.786158 0.485957
Si Si5 0.171027 0.063200 0.322391
Si Si6 0.643220 0.698391 0.077649
O O1 0.102969 0.289167 0.352639
O O2 0.205005 0.430990 0.521657
O O3 0.000000 0.420334 0.250000
O O4 0.094989 0.410274 0.140971
O O5 0.500000 0.907391 0.750000
O O6 0.299565 0.876500 0.439413
O O7 0.437439 0.773874 0.538465
O O8 0.121375 0.184866 0.623741
O O9 0.142371 0.034897 0.792196
O O10 0.179036 0.176971 0.973288
O O11 0.846252 0.874176 0.570858
O O12 0.735908 0.742578 0.297834
O O13 0.117567 0.111044 0.117368
#
# Coordination Sequence:
#
# PCOD9267936 Si02
#       6
#     8   8   8   8   8   8
#     4  11  23  38  62  83 117 162 195 233 289 349
#     4  11  23  39  57  88 121 152 197 241 284 348
#     4  11  23  35  63  93 117 147 192 248 297 340
#     4  10  19  41  60  81 115 154 206 236 272 349
#     4  11  20  40  61  88 118 153 193 242 295 344
#     4  10  20  37  62  84 113 158 198 240 279 340
#
# _framework density 24.518328
#
# number of rings (size 3 to 8) (size 9 to 14) (size 15 to 20)
#    0.000    1.333    5.000    4.000    7.000    0.667 
#    0.000    1.667    0.000    6.000    0.000    0.000 
#    0.000    0.000    0.000    0.000    0.000    0.000 
#
# Total GULP energy -134115.257540 kJ/mol
# GULP energy per Si atom -5588.135731 kJ/mol
# Density = 2.446252 g / cm^3
# Si number density = 24.518328 Si / 1000 Ang^3
#
#
#
# Elastic Constant Matrix: (Units=GPa)
#
#
# Indices 1 2 3 4 5 6 
#
# 1 74.4493 9.2801 28.7166 0.0000 -24.3619 0.0000
# 2 9.2801 145.2248 32.2045 0.0000 -7.8090 0.0000
# 3 28.7166 32.2045 99.5359 0.0000 -31.4434 0.0000
# 4 0.0000 0.0000 0.0000 -1.8011 0.0000 -6.6529
# 5 -24.3619 -7.8090 -31.4434 0.0000 31.3270 0.0000
# 6 0.0000 0.0000 0.0000 -6.6529 0.0000 7.0810
#
#
#
# Elastic Compliance Matrix: (Units=1/GPa)
#
#
# Indices 1 2 3 4 5 6 
#
# 1 0.018111 -0.000226 -0.001055 0.000000 0.012969 0.000000
# 2 -0.000226 0.007435 -0.002651 0.000000 -0.000983 0.000000
# 3 -0.001055 -0.002651 0.015728 0.000000 0.014305 0.000000
# 4 0.000000 0.000000 0.000000 -0.124195 0.000000 -0.116688
# 5 0.012969 -0.000983 0.014305 0.000000 0.056120 0.000000
# 6 0.000000 0.000000 0.000000 -0.116688 0.000000 0.031589
#
#
# Mechanical properties :
#
#
# Convention : Reuss Voigt Hill
#
# Bulk Modulus (GPa) = 29.93162 51.06806 40.49984
# Shear Modulus (GPa) = 210.18438 23.92196 117.05317
#
# Velocity S-wave (km/s) = 9.26885 3.12697 6.91699
# Velocity P-wave (km/s) = 11.25980 5.82332 8.96365
#
# Compressibility (1/GPa) = 0.03340948
#
# Stress axis : x y z
#
# Youngs Moduli (GPa) = 55.21554 134.49283 63.58235
#
# Poissons Ratio (x) = 0.03039 0.06709
# Poissons Ratio (y) = 0.01248 0.16856
# Poissons Ratio (z) = 0.05826 0.35655
#
# Static dielectric constant tensor:
#      x y z
#    x 1.998130 0.000000 0.054950 
#    y 0.000000 1.982000 0.000000 
#    z 0.054950 0.000000 1.988800 
# 
# From -- ./inp_files/56256.got.cif
#   From: 2010.05.17/outbox.cif.g08.bks.cpg/sg15_29_cif.got.tgz:56256.got - 2010.06.03 18:47:42.
