data_PCOD9267383
_publ_section_title
;
Structure prediction by ZEFSAII (Michael W. Deem and Ramdas Pophale) SiO2 
 PCOD9267383
Probable space group: C 2/C
;
_chemical_formula_sum "Si O2"
_cell_formula_units_Z 56
_cell_length_a 8.467473
_cell_length_b 26.178949
_cell_length_c 14.717142
_cell_angle_alpha 90.000000
_cell_angle_beta 55.517290
_cell_angle_gamma 90.000000
_cell_volume 2689.139092
_symmetry_space_group_name_H-M "C 2/C"
_symmetry_group_IT_number 15
_symmetry_cell_setting 'monoclinic'
loop_
_space_group_symop_operation_xyz
x,y,z
-x,y,1/2-z
-x,-y,-z
x,-y,1/2+z
1/2+x,1/2+y,z
1/2-x,1/2+y,1/2-z
1/2-x,1/2-y,-z
1/2+x,1/2-y,1/2+z
loop_
_atom_site_type_symbol
_atom_site_label
_atom_site_fract_x
_atom_site_fract_y
_atom_site_fract_z
Si Si1 0.045021 0.742556 0.466492
Si Si2 0.690699 0.404661 0.805077
Si Si3 0.163033 0.167607 0.057164
Si Si4 0.146584 0.799376 0.123997
Si Si5 0.732715 0.597403 0.494640
Si Si6 0.124648 0.577560 0.450406
Si Si7 0.936720 0.005142 0.870856
O O1 0.958031 0.753915 0.396598
O O2 0.860820 0.719288 0.580502
O O3 0.118642 0.794722 0.488409
O O4 0.221423 0.703647 0.410767
O O5 0.533418 0.359676 0.851112
O O6 0.799272 0.405420 0.674387
O O7 0.583874 0.459519 0.844632
O O8 0.791775 0.399432 0.869821
O O9 0.304821 0.119322 0.999525
O O10 0.171038 0.847174 0.048685
O O11 0.000000 0.814425 0.250000
O O12 0.573143 0.553480 0.559815
O O13 0.899815 0.579766 0.508769
O O14 0.232907 0.524898 0.435531
O O15 0.000000 0.023254 0.750000
#
# Coordination Sequence:
#
# PCOD9267383 Si02
#       7
#     8   8   8   8   8   8   8
#     4  10  22  42  60  86 114 154 196 234 284 338
#     4  10  21  36  59  90 114 146 196 241 284 340
#     4  10  19  39  62  80 118 146 192 238 283 329
#     4  11  24  40  59  87 118 150 193 234 284 348
#     4  12  20  38  57  85 120 157 182 237 293 344
#     4  10  21  36  59  90 114 146 196 241 284 340
#     4   9  20  37  59  83 111 153 194 233 291 345
#
# _framework density 20.824508999999999
#
# number of rings (size 3 to 8) (size 9 to 14) (size 15 to 20)
#    0.000    1.714    2.857    3.000    0.000    2.286 
#    0.000    2.143    0.000    0.000    0.000    0.000 
#    0.000    0.000    0.000    0.000    0.000    0.000 
#
# Total GULP energy -156106.038640 kJ/mol
# GULP energy per Si atom -5575.215666 kJ/mol
# Density = 2.077711 g / cm^3
# Si number density = 20.824509 Si / 1000 Ang^3
#
#
#
# Elastic Constant Matrix: (Units=GPa)
#
#
# Indices 1 2 3 4 5 6 
#
# 1 67.8697 21.3673 -9.5085 0.0000 1.2198 0.0000
# 2 21.3673 91.9939 14.9231 0.0000 -2.1121 0.0000
# 3 -9.5085 14.9231 37.8723 0.0000 8.3075 0.0000
# 4 0.0000 0.0000 0.0000 24.5366 0.0000 10.9265
# 5 1.2198 -2.1121 8.3075 0.0000 17.6791 0.0000
# 6 0.0000 0.0000 0.0000 10.9265 0.0000 -9.0757
#
#
#
# Elastic Compliance Matrix: (Units=1/GPa)
#
#
# Indices 1 2 3 4 5 6 
#
# 1 0.017660 -0.005497 0.007817 0.000000 -0.005548 0.000000
# 2 -0.005497 0.013576 -0.007992 0.000000 0.005757 0.000000
# 3 0.007817 -0.007992 0.035504 0.000000 -0.018178 0.000000
# 4 0.000000 0.000000 0.000000 0.026531 0.000000 0.031942
# 5 -0.005548 0.005757 -0.018178 0.000000 0.066176 0.000000
# 6 0.000000 0.000000 0.000000 0.031942 0.000000 -0.071729
#
#
# Mechanical properties :
#
#
# Convention : Reuss Voigt Hill
#
# Bulk Modulus (GPa) = 18.05247 27.92218 22.98732
# Shear Modulus (GPa) = 42.54303 18.02494 30.28398
#
# Velocity S-wave (km/s) = 4.52478 2.94524 3.81760
# Velocity P-wave (km/s) = 5.99882 5.00033 5.52219
#
# Compressibility (1/GPa) = 0.05539409
#
# Stress axis : x y z
#
# Youngs Moduli (GPa) = 56.62617 73.66050 28.16601
#
# Poissons Ratio (x) = 0.40493 -0.22017
# Poissons Ratio (y) = 0.31129 0.22511
# Poissons Ratio (z) = -0.44265 0.58872
#
# Static dielectric constant tensor:
#      x y z
#    x 1.792190 0.000000 -0.007430 
#    y 0.000000 1.749750 0.000000 
#    z -0.007430 0.000000 1.730230 
# 
# From -- ./inp_files/138538.got.cif
#   From: 2010.05.17/outbox.cif.g08.bks.cpg/sg15_70_cif.got.tgz:138538.got - 2010.06.03 18:47:42.
