data_PCOD9267938
_publ_section_title
;
Structure prediction by ZEFSAII (Michael W. Deem and Ramdas Pophale) SiO2 
 PCOD9267938
Probable space group: C 2/C
;
_chemical_formula_sum "Si O2"
_cell_formula_units_Z 48
_cell_length_a 9.793791
_cell_length_b 11.630956
_cell_length_c 21.900909
_cell_angle_alpha 90.000000
_cell_angle_beta 71.854743
_cell_angle_gamma 90.000000
_cell_volume 2370.693566
_symmetry_space_group_name_H-M "C 2/C"
_symmetry_group_IT_number 15
_symmetry_cell_setting 'monoclinic'
loop_
_space_group_symop_operation_xyz
x,y,z
-x,y,1/2-z
-x,-y,-z
x,-y,1/2+z
1/2+x,1/2+y,z
1/2-x,1/2+y,1/2-z
1/2-x,1/2-y,-z
1/2+x,1/2-y,1/2+z
loop_
_atom_site_type_symbol
_atom_site_label
_atom_site_fract_x
_atom_site_fract_y
_atom_site_fract_z
Si Si1 0.500000 0.166467 0.750000
Si Si2 0.005723 0.357326 0.385214
Si Si3 0.798523 0.721200 0.178610
Si Si4 0.500000 0.322732 0.250000
Si Si5 0.502754 0.402470 0.578771
Si Si6 0.811641 0.901323 0.066604
Si Si7 0.215092 0.023993 0.640866
O O1 0.494263 0.102249 0.685851
O O2 0.354848 0.240136 0.772799
O O3 0.147012 0.402909 0.398420
O O4 0.012517 0.218587 0.385062
O O5 0.852858 0.396825 0.432876
O O6 0.921994 0.746674 0.209899
O O7 0.823483 0.803324 0.116534
O O8 0.779986 0.590779 0.161489
O O9 0.379980 0.403221 0.298318
O O10 0.578684 0.378005 0.503538
O O11 0.358627 0.475875 0.588060
O O12 0.609792 0.483716 0.601931
#
# Coordination Sequence:
#
# PCOD9267938 Si02
#       7
#     4   8   8   4   8   8   8
#     4  10  19  41  60  90 124 159 209 254 310 368
#     4  11  24  41  64  96 126 166 211 261 313 372
#     4  11  23  42  65  92 129 162 209 261 312 376
#     4  12  25  43  62  96 130 165 207 258 320 372
#     4  11  23  44  67  88 130 168 211 260 313 371
#     4  10  23  44  65  93 125 170 209 262 314 365
#     4  12  25  39  68  95 124 170 208 256 320 374
#
# _framework density 20.247240000000001
#
# number of rings (size 3 to 8) (size 9 to 14) (size 15 to 20)
#    0.000    1.000    6.667    1.000    0.000    2.667 
#    0.000    1.667    0.000    0.000    0.000    0.000 
#    0.000    0.000    0.000    0.000    0.000    0.000 
#
# Total GULP energy -134095.417885 kJ/mol
# GULP energy per Si atom -5587.309079 kJ/mol
# Density = 2.020116 g / cm^3
# Si number density = 20.247240 Si / 1000 Ang^3
#
#
#
# Elastic Constant Matrix: (Units=GPa)
#
#
# Indices 1 2 3 4 5 6 
#
# 1 100.2683 44.9764 -1.0435 0.0000 -4.3896 0.0000
# 2 44.9764 41.2307 -1.2507 0.0000 -5.2493 0.0000
# 3 -1.0435 -1.2507 38.6174 0.0000 7.1885 0.0000
# 4 0.0000 0.0000 0.0000 11.0141 0.0000 16.6206
# 5 -4.3896 -5.2493 7.1885 0.0000 19.2284 0.0000
# 6 0.0000 0.0000 0.0000 16.6206 0.0000 56.5849
#
#
#
# Elastic Compliance Matrix: (Units=1/GPa)
#
#
# Indices 1 2 3 4 5 6 
#
# 1 0.019566 -0.021525 0.000101 0.000000 -0.001447 0.000000
# 2 -0.021525 0.048816 -0.000609 0.000000 0.008640 0.000000
# 3 0.000101 -0.000609 0.027842 0.000000 -0.010552 0.000000
# 4 0.000000 0.000000 0.000000 0.163075 0.000000 -0.047900
# 5 -0.001447 0.008640 -0.010552 0.000000 0.057980 0.000000
# 6 0.000000 0.000000 0.000000 -0.047900 0.000000 0.031742
#
#
# Mechanical properties :
#
#
# Convention : Reuss Voigt Hill
#
# Bulk Modulus (GPa) = 19.17237 29.49788 24.33513
# Shear Modulus (GPa) = 12.18105 26.52775 19.35440
#
# Velocity S-wave (km/s) = 2.45545 3.62358 3.09512
# Velocity P-wave (km/s) = 4.18672 5.66636 4.98178
#
# Compressibility (1/GPa) = 0.05215838
#
# Stress axis : x y z
#
# Youngs Moduli (GPa) = 51.10860 20.48514 35.91658
#
# Poissons Ratio (x) = 0.44094 -0.00363
# Poissons Ratio (y) = 1.10011 0.02187
# Poissons Ratio (z) = -0.00516 0.01248
#
# Static dielectric constant tensor:
#      x y z
#    x 1.725740 0.000000 0.008390 
#    y 0.000000 1.703410 0.000000 
#    z 0.008390 0.000000 1.725900 
# 
# From -- ./inp_files/263130.got.cif
#   From: 2010.05.17/outbox.cif.g08.bks.cpg/sg15_132_cif.got.tgz:263130.got - 2010.06.03 18:47:42.
