data_PCOD9267140
_publ_section_title
;
Structure prediction by ZEFSAII (Michael W. Deem and Ramdas Pophale) SiO2 
 PCOD9267140
Probable space group: C 2/C
;
_chemical_formula_sum "Si O2"
_cell_formula_units_Z 64
_cell_length_a 17.955466
_cell_length_b 11.487745
_cell_length_c 31.136258
_cell_angle_alpha 90.000000
_cell_angle_beta 151.845838
_cell_angle_gamma 90.000000
_cell_volume 3030.384585
_symmetry_space_group_name_H-M "C 2/C"
_symmetry_group_IT_number 15
_symmetry_cell_setting 'monoclinic'
loop_
_space_group_symop_operation_xyz
x,y,z
-x,y,1/2-z
-x,-y,-z
x,-y,1/2+z
1/2+x,1/2+y,z
1/2-x,1/2+y,1/2-z
1/2-x,1/2-y,-z
1/2+x,1/2-y,1/2+z
loop_
_atom_site_type_symbol
_atom_site_label
_atom_site_fract_x
_atom_site_fract_y
_atom_site_fract_z
Si Si1 0.886338 0.761731 0.968145
Si Si2 0.729270 0.803361 0.663910
Si Si3 0.804237 0.047812 0.481850
Si Si4 0.269687 0.083500 0.477104
Si Si5 0.316097 0.903199 0.155890
Si Si6 0.688612 0.017260 0.594771
Si Si7 0.525757 0.263194 0.638629
Si Si8 0.609692 0.567916 0.107808
O O1 0.773962 0.830242 0.943772
O O2 0.795620 0.656078 0.899029
O O3 0.941819 0.856969 0.960568
O O4 0.040598 0.714818 0.071785
O O5 0.769277 0.728340 0.641980
O O6 0.842727 0.749394 0.757638
O O7 0.758637 0.939570 0.668944
O O8 0.741668 0.027525 0.497114
O O9 0.737551 0.944402 0.418121
O O10 0.989878 0.023582 0.568836
O O11 0.431790 0.154102 0.569918
O O12 0.118995 0.161830 0.414477
O O13 0.258015 0.039770 0.422822
O O14 0.500000 0.913412 0.250000
O O15 0.246560 0.989578 0.156925
O O16 0.500000 0.000000 0.500000
O O17 0.618297 0.334832 0.648824
#
# Coordination Sequence:
#
# PCOD9267140 Si02
#       8
#     8   8   8   8   8   8   8   8
#     4  10  19  40  63  84 118 172 200 235 314 378
#     4  11  21  37  59  92 115 157 208 254 301 360
#     4  10  19  38  66  86 117 157 203 250 303 366
#     4  10  22  39  59  95 118 157 202 255 307 362
#     4  11  21  34  62  93 115 149 206 258 299 352
#     4  10  23  38  58  84 123 162 201 238 307 383
#     4  10  22  37  63  91 124 153 204 261 304 351
#     4  10  19  41  63  84 123 164 199 248 311 368
#
# _framework density 21.119430999999999
#
# number of rings (size 3 to 8) (size 9 to 14) (size 15 to 20)
#    0.000    1.750    2.500    3.000    5.250    0.500 
#   11.250    0.000   11.000    0.000    0.000    0.000 
#    0.000    0.000    0.000    0.000    0.000    0.000 
#
# Total GULP energy -178373.786586 kJ/mol
# GULP energy per Si atom -5574.180831 kJ/mol
# Density = 2.107136 g / cm^3
# Si number density = 21.119431 Si / 1000 Ang^3
#
#
#
# Elastic Constant Matrix: (Units=GPa)
#
#
# Indices 1 2 3 4 5 6 
#
# 1 53.8000 1.3796 -15.5169 0.0001 0.4552 0.0000
# 2 1.3796 89.0476 -2.1104 0.0001 1.0973 0.0000
# 3 -15.5169 -2.1104 34.9966 0.0006 2.7361 0.0001
# 4 0.0001 0.0001 0.0006 18.5497 0.0001 -7.9676
# 5 0.4552 1.0973 2.7361 0.0001 22.6442 0.0000
# 6 0.0000 0.0000 0.0001 -7.9676 0.0000 22.6177
#
#
#
# Elastic Compliance Matrix: (Units=1/GPa)
#
#
# Indices 1 2 3 4 5 6 
#
# 1 0.021370 -0.000084 0.009594 0.000000 -0.001585 0.000000
# 2 -0.000084 0.011255 0.000690 0.000000 -0.000627 0.000000
# 3 0.009594 0.000690 0.033201 -0.000001 -0.004238 -0.000001
# 4 0.000000 0.000000 -0.000001 0.063521 0.000000 0.022377
# 5 -0.001585 -0.000627 -0.004238 0.000000 0.044736 0.000000
# 6 0.000000 0.000000 -0.000001 0.022377 0.000000 0.052096
#
#
# Mechanical properties :
#
#
# Convention : Reuss Voigt Hill
#
# Bulk Modulus (GPa) = 11.59734 16.14986 13.87360
# Shear Modulus (GPa) = 21.32011 25.70179 23.51095
#
# Velocity S-wave (km/s) = 3.18071 3.49230 3.34014
# Velocity P-wave (km/s) = 4.35804 4.89133 4.63236
#
# Compressibility (1/GPa) = 0.08622670
#
# Stress axis : x y z
#
# Youngs Moduli (GPa) = 46.79461 88.84667 30.11957
#
# Poissons Ratio (x) = 0.00748 -0.28897
# Poissons Ratio (y) = 0.00394 -0.02080
# Poissons Ratio (z) = -0.44894 -0.06134
#
# Static dielectric constant tensor:
#      x y z
#    x 1.772120 0.000000 -0.000500 
#    y 0.000000 1.826820 0.000000 
#    z -0.000500 0.000000 1.899220 
# 
# From -- ./inp_files/316235.got.cif
#   From: 2010.05.17/outbox.cif.g08.bks.cpg/sg15_159_cif.got.tgz:316235.got - 2010.06.03 18:47:42.
