data_PCOD9267797
_publ_section_title
;
Structure prediction by ZEFSAII (Michael W. Deem and Ramdas Pophale) SiO2 
 PCOD9267797
Probable space group: C 2/C
;
_chemical_formula_sum "Si O2"
_cell_formula_units_Z 52
_cell_length_a 9.262072
_cell_length_b 32.306969
_cell_length_c 10.489428
_cell_angle_alpha 90.000000
_cell_angle_beta 56.460946
_cell_angle_gamma 90.000000
_cell_volume 2616.174358
_symmetry_space_group_name_H-M "C 2/C"
_symmetry_group_IT_number 15
_symmetry_cell_setting 'monoclinic'
loop_
_space_group_symop_operation_xyz
x,y,z
-x,y,1/2-z
-x,-y,-z
x,-y,1/2+z
1/2+x,1/2+y,z
1/2-x,1/2+y,1/2-z
1/2-x,1/2-y,-z
1/2+x,1/2-y,1/2+z
loop_
_atom_site_type_symbol
_atom_site_label
_atom_site_fract_x
_atom_site_fract_y
_atom_site_fract_z
Si Si1 0.804976 0.623227 0.897903
Si Si2 0.709616 0.732737 0.379585
Si Si3 0.500000 0.834676 0.750000
Si Si4 0.390540 0.008139 0.182060
Si Si5 0.306685 0.282304 0.081283
Si Si6 0.325274 0.433519 0.253905
Si Si7 0.029911 0.405246 0.933570
O O1 0.757097 0.671428 0.915037
O O2 0.681976 0.595503 0.867853
O O3 0.000000 0.619230 0.750000
O O4 0.828935 0.606282 0.028326
O O5 0.750000 0.750000 0.500000
O O6 0.513314 0.718159 0.477384
O O7 0.740675 0.765642 0.250782
O O8 0.839385 0.694775 0.297864
O O9 0.480166 0.864887 0.878855
O O10 0.500000 0.992734 0.250000
O O11 0.383948 0.057784 0.190454
O O12 0.216175 0.981368 0.261226
O O13 0.500000 0.000000 0.000000
O O14 0.250000 0.250000 0.000000
O O15 0.500000 0.429126 0.250000
O O16 0.152959 0.420320 0.417286
#
# Coordination Sequence:
#
# PCOD9267797 Si02
#       7
#     8   8   4   8   8   8   8
#     4  10  22  40  65  93 132 172 226 270 329 400
#     4  12  26  44  66  97 132 174 222 278 335 399
#     4  12  24  42  68  94 134 170 226 268 342 394
#     4  10  19  40  65  91 126 172 215 259 328 394
#     4  12  25  44  68  96 133 179 226 277 336 396
#     4  10  22  38  65  98 127 168 219 271 322 395
#     4  10  22  41  66  91 128 177 213 270 332 396
#
# _framework density 19.876351
#
# number of rings (size 3 to 8) (size 9 to 14) (size 15 to 20)
#    0.000    1.231    2.308    4.615    6.462    0.000 
#    0.000    8.462    0.000    0.000    0.000    0.000 
#    0.000    0.000    0.000    0.000    0.000    0.000 
#
# Total GULP energy -145182.592536 kJ/mol
# GULP energy per Si atom -5583.945867 kJ/mol
# Density = 1.983111 g / cm^3
# Si number density = 19.876351 Si / 1000 Ang^3
#
#
#
# Elastic Constant Matrix: (Units=GPa)
#
#
# Indices 1 2 3 4 5 6 
#
# 1 156.0377 49.2020 23.9954 0.0000 22.7028 0.0000
# 2 49.2020 117.2344 15.0419 0.0000 14.4732 0.0000
# 3 23.9954 15.0419 48.1335 0.0000 17.8684 0.0000
# 4 0.0000 0.0000 0.0000 30.3992 0.0000 5.3054
# 5 22.7028 14.4732 17.8684 0.0000 25.7495 0.0000
# 6 0.0000 0.0000 0.0000 5.3054 0.0000 39.0865
#
#
#
# Elastic Compliance Matrix: (Units=1/GPa)
#
#
# Indices 1 2 3 4 5 6 
#
# 1 0.008154 -0.002655 -0.001509 0.000000 -0.004650 0.000000
# 2 -0.002655 0.010089 -0.000799 0.000000 -0.002776 0.000000
# 3 -0.001509 -0.000799 0.028444 0.000000 -0.017958 0.000000
# 4 0.000000 0.000000 0.000000 0.033694 0.000000 -0.004573
# 5 -0.004650 -0.002776 -0.017958 0.000000 0.056958 0.000000
# 6 0.000000 0.000000 0.000000 -0.004573 0.000000 0.026205
#
#
# Mechanical properties :
#
#
# Convention : Reuss Voigt Hill
#
# Bulk Modulus (GPa) = 27.20196 55.32048 41.26122
# Shear Modulus (GPa) = 26.92157 34.59146 30.75652
#
# Velocity S-wave (km/s) = 3.68428 4.17626 3.93796
# Velocity P-wave (km/s) = 5.64038 7.15175 6.44055
#
# Compressibility (1/GPa) = 0.03676206
#
# Stress axis : x y z
#
# Youngs Moduli (GPa) = 122.63265 99.11541 35.15642
#
# Poissons Ratio (x) = 0.26311 0.05306
# Poissons Ratio (y) = 0.32554 0.02809
# Poissons Ratio (z) = 0.18509 0.07920
#
# Static dielectric constant tensor:
#      x y z
#    x 1.674600 0.000000 0.030010 
#    y 0.000000 1.728080 0.000000 
#    z 0.030010 0.000000 1.705150 
# 
# From -- ./inp_files/81205.got.cif
#   From: 2010.05.17/outbox.cif.g08.bks.cpg/sg15_41_cif.got.tgz:81205.got - 2010.06.03 18:47:42.
