data_PCOD9267057
_publ_section_title
;
Structure prediction by ZEFSAII (Michael W. Deem and Ramdas Pophale) SiO2 
 PCOD9267057
Probable space group: C 2/C
;
_chemical_formula_sum "Si O2"
_cell_formula_units_Z 56
_cell_length_a 5.771008
_cell_length_b 29.091022
_cell_length_c 18.829175
_cell_angle_alpha 90.000000
_cell_angle_beta 126.605945
_cell_angle_gamma 90.000000
_cell_volume 2537.612439
_symmetry_space_group_name_H-M "C 2/C"
_symmetry_group_IT_number 15
_symmetry_cell_setting 'monoclinic'
loop_
_space_group_symop_operation_xyz
x,y,z
-x,y,1/2-z
-x,-y,-z
x,-y,1/2+z
1/2+x,1/2+y,z
1/2-x,1/2+y,1/2-z
1/2-x,1/2-y,-z
1/2+x,1/2-y,1/2+z
loop_
_atom_site_type_symbol
_atom_site_label
_atom_site_fract_x
_atom_site_fract_y
_atom_site_fract_z
Si Si1 0.319310 0.565093 0.419955
Si Si2 0.867311 0.208534 0.397896
Si Si3 0.979474 0.124784 0.328971
Si Si4 0.653490 0.102642 0.699969
Si Si5 0.003879 0.310431 0.414275
Si Si6 0.880839 0.348802 0.533685
Si Si7 0.072897 0.480765 0.435266
O O1 0.325141 0.584092 0.341816
O O2 0.300234 0.610234 0.465682
O O3 0.079748 0.526831 0.389270
O O4 0.614563 0.541274 0.495531
O O5 0.629558 0.193441 0.412578
O O6 0.843381 0.172847 0.329061
O O7 0.877794 0.260452 0.373289
O O8 0.172575 0.198816 0.495450
O O9 0.306039 0.128429 0.416098
O O10 0.000000 0.119069 0.250000
O O11 0.500000 0.093161 0.750000
O O12 0.503241 0.149806 0.645115
O O13 0.594960 0.059533 0.636090
O O14 0.000000 0.110215 0.750000
O O15 0.810421 0.329701 0.444074
O O16 0.000000 0.500000 0.500000
#
# Coordination Sequence:
#
# PCOD9267057 Si02
#       7
#     8   8   8   8   8   8   8
#     4  10  22  39  70  93 118 170 227 282 347 411
#     4   9  20  37  67  97 123 181 238 281 324 419
#     4  10  21  38  55  93 136 162 205 277 350 406
#     4  12  30  49  69 106 152 190 229 300 375 435
#     4  10  21  41  66  93 131 180 237 281 336 414
#     4  10  19  38  64  93 123 168 220 288 338 404
#     4  11  24  47  71  93 124 178 236 289 342 428
#
# _framework density 22.067988
#
# number of rings (size 3 to 8) (size 9 to 14) (size 15 to 20)
#    0.000    1.714    0.000    4.714    8.000    2.857 
#    7.714    0.000    0.000    0.000    0.000    0.000 
#    0.000    0.000    0.000    0.000    0.000    0.000 
#
# Total GULP energy -156227.988219 kJ/mol
# GULP energy per Si atom -5579.571008 kJ/mol
# Density = 2.201776 g / cm^3
# Si number density = 22.067988 Si / 1000 Ang^3
#
#
#
# Elastic Constant Matrix: (Units=GPa)
#
#
# Indices 1 2 3 4 5 6 
#
# 1 80.2466 31.9899 31.0414 0.0000 -21.5056 0.0000
# 2 31.9899 158.2130 54.0382 0.0000 -21.0053 0.0000
# 3 31.0414 54.0382 67.7415 0.0000 -26.7095 0.0000
# 4 0.0000 0.0000 0.0000 12.4137 0.0000 1.1907
# 5 -21.5056 -21.0053 -26.7095 0.0000 42.0741 0.0000
# 6 0.0000 0.0000 0.0000 1.1907 0.0000 18.1402
#
#
#
# Elastic Compliance Matrix: (Units=1/GPa)
#
#
# Indices 1 2 3 4 5 6 
#
# 1 0.015915 -0.001012 -0.004638 0.000000 0.004685 0.000000
# 2 -0.001012 0.008752 -0.006668 0.000000 -0.000381 0.000000
# 3 -0.004638 -0.006668 0.026623 0.000000 0.011201 0.000000
# 4 0.000000 0.000000 0.000000 0.081066 0.000000 -0.005321
# 5 0.004685 -0.000381 0.011201 0.000000 0.033083 0.000000
# 6 0.000000 0.000000 0.000000 -0.005321 0.000000 0.055475
#
#
# Mechanical properties :
#
#
# Convention : Reuss Voigt Hill
#
# Bulk Modulus (GPa) = 37.51866 60.03778 48.77822
# Shear Modulus (GPa) = 19.65133 27.13439 23.39286
#
# Velocity S-wave (km/s) = 2.98735 3.51034 3.25935
# Velocity P-wave (km/s) = 5.37934 6.61021 6.02628
#
# Compressibility (1/GPa) = 0.02665340
#
# Stress axis : x y z
#
# Youngs Moduli (GPa) = 62.83519 114.25758 37.56118
#
# Poissons Ratio (x) = 0.11558 0.17423
# Poissons Ratio (y) = 0.06356 0.25047
# Poissons Ratio (z) = 0.29146 0.76190
#
# Static dielectric constant tensor:
#      x y z
#    x 1.892860 0.000000 -0.008090 
#    y 0.000000 1.827450 0.000000 
#    z -0.008090 0.000000 1.864450 
# 
# From -- ./inp_files/186780.got.cif
#   From: 2010.05.17/outbox.cif.g08.bks.cpg/sg15_94_cif.got.tgz:186780.got - 2010.06.03 18:47:42.
