data_PCOD9267491
_publ_section_title
;
Structure prediction by ZEFSAII (Michael W. Deem and Ramdas Pophale) SiO2 
 PCOD9267491
Probable space group: C 2/C
;
_chemical_formula_sum "Si O2"
_cell_formula_units_Z 40
_cell_length_a 8.593872
_cell_length_b 10.730815
_cell_length_c 20.244052
_cell_angle_alpha 90.000000
_cell_angle_beta 86.833686
_cell_angle_gamma 90.000000
_cell_volume 1864.041328
_symmetry_space_group_name_H-M "C 2/C"
_symmetry_group_IT_number 15
_symmetry_cell_setting 'monoclinic'
loop_
_space_group_symop_operation_xyz
x,y,z
-x,y,1/2-z
-x,-y,-z
x,-y,1/2+z
1/2+x,1/2+y,z
1/2-x,1/2+y,1/2-z
1/2-x,1/2-y,-z
1/2+x,1/2-y,1/2+z
loop_
_atom_site_type_symbol
_atom_site_label
_atom_site_fract_x
_atom_site_fract_y
_atom_site_fract_z
Si Si1 0.551266 0.096751 0.663546
Si Si2 0.515336 0.844401 0.619651
Si Si3 0.385357 0.667832 0.125267
Si Si4 0.914906 0.306760 0.478065
Si Si5 0.106639 0.903115 0.311982
O O1 0.450108 0.221653 0.671067
O O2 0.608045 0.105633 0.585178
O O3 0.706536 0.095126 0.703429
O O4 0.466439 0.963729 0.664976
O O5 0.699750 0.826079 0.625290
O O6 0.479557 0.864665 0.543439
O O7 0.429581 0.719628 0.644693
O O8 0.465699 0.703149 0.053631
O O9 0.431582 0.531706 0.149328
O O10 0.750000 0.250000 0.500000
O O11 0.000000 0.896545 0.250000
#
# Coordination Sequence:
#
# PCOD9267491 Si02
#       5
#     8   8   8   8   8
#     4   9  22  40  57  90 121 154 194 244 299 358
#     4  11  20  39  63  92 118 157 198 247 303 358
#     4   9  23  39  60  91 123 154 197 242 303 361
#     4  10  19  39  64  90 130 152 190 248 309 366
#     4  11  24  42  60  84 120 162 209 248 292 353
#
# _framework density 21.458752
#
# number of rings (size 3 to 8) (size 9 to 14) (size 15 to 20)
#    1.200    0.800    2.000    1.200    0.000    7.200 
#    0.000    1.000    0.000    0.000    0.000    0.000 
#    0.000    0.000    0.000    0.000    0.000    0.000 
#
# Total GULP energy -111575.339261 kJ/mol
# GULP energy per Si atom -5578.766963 kJ/mol
# Density = 2.140991 g / cm^3
# Si number density = 21.458752 Si / 1000 Ang^3
#
#
#
# Elastic Constant Matrix: (Units=GPa)
#
#
# Indices 1 2 3 4 5 6 
#
# 1 43.0068 34.2114 17.9231 0.0000 22.0816 0.0000
# 2 34.2114 148.1258 22.7183 0.0000 2.4878 0.0000
# 3 17.9231 22.7183 95.9926 0.0000 22.0785 0.0000
# 4 0.0000 0.0000 0.0000 22.7205 0.0000 10.4498
# 5 22.0816 2.4878 22.0785 0.0000 42.0323 0.0000
# 6 0.0000 0.0000 0.0000 10.4498 0.0000 25.8497
#
#
#
# Elastic Compliance Matrix: (Units=1/GPa)
#
#
# Indices 1 2 3 4 5 6 
#
# 1 0.041564 -0.009126 -0.000799 0.000000 -0.020875 0.000000
# 2 -0.009126 0.009019 -0.001604 0.000000 0.005103 0.000000
# 3 -0.000799 -0.001604 0.012316 0.000000 -0.005954 0.000000
# 4 0.000000 0.000000 0.000000 0.054065 0.000000 -0.021856
# 5 -0.020875 0.005103 -0.005954 0.000000 0.037584 0.000000
# 6 0.000000 0.000000 0.000000 -0.021856 0.000000 0.047520
#
#
# Mechanical properties :
#
#
# Convention : Reuss Voigt Hill
#
# Bulk Modulus (GPa) = 25.10116 48.53677 36.81896
# Shear Modulus (GPa) = 20.97249 32.27198 26.62223
#
# Velocity S-wave (km/s) = 3.12963 3.88223 3.52607
# Velocity P-wave (km/s) = 4.97818 6.53937 5.81144
#
# Compressibility (1/GPa) = 0.03983880
#
# Stress axis : x y z
#
# Youngs Moduli (GPa) = 24.05956 110.87433 81.19580
#
# Poissons Ratio (x) = 1.01188 0.06489
# Poissons Ratio (y) = 0.21958 0.13027
# Poissons Ratio (z) = 0.01923 0.17788
#
# Static dielectric constant tensor:
#      x y z
#    x 1.737730 0.000000 -0.013450 
#    y 0.000000 1.799690 0.000000 
#    z -0.013450 0.000000 1.811020 
# 
# From -- ./inp_files/262844.got.cif
#   From: 2010.05.17/outbox.cif.g08.bks.cpg/sg15_132_cif.got.tgz:262844.got - 2010.06.03 18:47:42.
