data_PCOD9267996
_publ_section_title
;
Structure prediction by ZEFSAII (Michael W. Deem and Ramdas Pophale) SiO2 
 PCOD9267996
Probable space group: C 2/C
;
_chemical_formula_sum "Si O2"
_cell_formula_units_Z 60
_cell_length_a 11.319960
_cell_length_b 16.841375
_cell_length_c 16.571584
_cell_angle_alpha 90.000000
_cell_angle_beta 83.083923
_cell_angle_gamma 90.000000
_cell_volume 3136.279825
_symmetry_space_group_name_H-M "C 2/C"
_symmetry_group_IT_number 15
_symmetry_cell_setting 'monoclinic'
loop_
_space_group_symop_operation_xyz
x,y,z
-x,y,1/2-z
-x,-y,-z
x,-y,1/2+z
1/2+x,1/2+y,z
1/2-x,1/2+y,1/2-z
1/2-x,1/2-y,-z
1/2+x,1/2-y,1/2+z
loop_
_atom_site_type_symbol
_atom_site_label
_atom_site_fract_x
_atom_site_fract_y
_atom_site_fract_z
Si Si1 0.790350 0.413158 0.297340
Si Si2 0.713923 0.373405 0.132567
Si Si3 0.330741 0.571034 0.531143
Si Si4 0.629828 0.082903 0.260240
Si Si5 0.308090 0.702671 0.161620
Si Si6 0.000000 0.288720 0.250000
Si Si7 0.921547 0.896079 0.515038
Si Si8 0.378946 0.007836 0.060935
O O1 0.710189 0.408681 0.223087
O O2 0.713623 0.395041 0.381555
O O3 0.845473 0.501866 0.292857
O O4 0.896282 0.349045 0.286750
O O5 0.734766 0.280925 0.144404
O O6 0.827330 0.419815 0.084533
O O7 0.609922 0.388755 0.077165
O O8 0.388012 0.484895 0.544451
O O9 0.439010 0.619154 0.483520
O O10 0.219146 0.553707 0.483801
O O11 0.500000 0.116406 0.250000
O O12 0.732519 0.145097 0.227000
O O13 0.618839 0.053597 0.353777
O O14 0.430189 0.733183 0.192744
O O15 0.340517 0.659279 0.076149
O O16 0.500000 0.000000 0.000000
#
# Coordination Sequence:
#
# PCOD9267996 Si02
#       8
#     8   8   8   8   8   4   8   8
#     4  10  19  41  65  89 119 168 221 255 311 391
#     4   9  22  40  61  89 124 171 205 256 332 374
#     4  10  21  37  63  93 119 160 213 266 309 377
#     4  11  22  39  66  93 119 164 220 266 308 383
#     4  11  23  41  63  89 132 167 204 267 329 387
#     4  10  24  40  64  88 132 168 208 262 340 380
#     4  10  21  40  60  90 130 162 207 260 323 381
#     4  10  22  38  67  95 122 159 223 269 313 384
#
# _framework density 19.130946000000002
#
# number of rings (size 3 to 8) (size 9 to 14) (size 15 to 20)
#    0.000    1.867    2.000    1.200    7.467    0.533 
#    4.800    0.667    0.000    0.000    0.000    0.000 
#    0.000    0.000    0.000    0.000    0.000    0.000 
#
# Total GULP energy -167254.026784 kJ/mol
# GULP energy per Si atom -5575.134226 kJ/mol
# Density = 1.908740 g / cm^3
# Si number density = 19.130946 Si / 1000 Ang^3
#
#
#
# Elastic Constant Matrix: (Units=GPa)
#
#
# Indices 1 2 3 4 5 6 
#
# 1 98.8107 14.8501 45.7770 0.0000 0.3356 0.0000
# 2 14.8501 64.5411 20.0652 0.0000 -0.8789 0.0000
# 3 45.7770 20.0652 84.0513 0.0000 -14.4287 0.0000
# 4 0.0000 0.0000 0.0000 19.2250 0.0000 1.0922
# 5 0.3356 -0.8789 -14.4287 0.0000 17.6873 0.0000
# 6 0.0000 0.0000 0.0000 1.0922 0.0000 12.4046
#
#
#
# Elastic Compliance Matrix: (Units=1/GPa)
#
#
# Indices 1 2 3 4 5 6 
#
# 1 0.014418 -0.000617 -0.009021 0.000000 -0.007663 0.000000
# 2 -0.000617 0.016885 -0.004126 0.000000 -0.002515 0.000000
# 3 -0.009021 -0.004126 0.020687 0.000000 0.016842 0.000000
# 4 0.000000 0.000000 0.000000 0.052277 0.000000 -0.004603
# 5 -0.007663 -0.002515 0.016842 0.000000 0.070297 0.000000
# 6 0.000000 0.000000 0.000000 -0.004603 0.000000 0.081020
#
#
# Mechanical properties :
#
#
# Convention : Reuss Voigt Hill
#
# Bulk Modulus (GPa) = 40.88205 45.42086 43.15145
# Shear Modulus (GPa) = 17.16642 20.97745 19.07194
#
# Velocity S-wave (km/s) = 2.99877 3.31497 3.16082
# Velocity P-wave (km/s) = 5.77980 6.20045 5.99382
#
# Compressibility (1/GPa) = 0.02446061
#
# Stress axis : x y z
#
# Youngs Moduli (GPa) = 69.35617 59.22545 48.34026
#
# Poissons Ratio (x) = 0.03656 0.43607
# Poissons Ratio (y) = 0.04282 0.19947
# Poissons Ratio (z) = 0.62565 0.24439
#
# Static dielectric constant tensor:
#      x y z
#    x 1.699650 0.000000 0.016030 
#    y 0.000000 1.667320 0.000000 
#    z 0.016030 0.000000 1.670050 
# 
# From -- ./inp_files/145611.got.cif
#   From: 2010.05.17/outbox.cif.g08.bks.cpg/sg15_73_cif.got.tgz:145611.got - 2010.06.03 18:47:42.
