data_PCOD9267548
_publ_section_title
;
Structure prediction by ZEFSAII (Michael W. Deem and Ramdas Pophale) SiO2 
 PCOD9267548
Probable space group: C 2/C
;
_chemical_formula_sum "Si O2"
_cell_formula_units_Z 60
_cell_length_a 7.324389
_cell_length_b 14.411066
_cell_length_c 25.440227
_cell_angle_alpha 90.000000
_cell_angle_beta 61.461986
_cell_angle_gamma 90.000000
_cell_volume 2359.013490
_symmetry_space_group_name_H-M "C 2/C"
_symmetry_group_IT_number 15
_symmetry_cell_setting 'monoclinic'
loop_
_space_group_symop_operation_xyz
x,y,z
-x,y,1/2-z
-x,-y,-z
x,-y,1/2+z
1/2+x,1/2+y,z
1/2-x,1/2+y,1/2-z
1/2-x,1/2-y,-z
1/2+x,1/2-y,1/2+z
loop_
_atom_site_type_symbol
_atom_site_label
_atom_site_fract_x
_atom_site_fract_y
_atom_site_fract_z
Si Si1 0.138065 0.088249 0.629317
Si Si2 0.500000 0.476488 0.250000
Si Si3 0.338806 0.253933 0.135343
Si Si4 0.268005 0.134529 0.235571
Si Si5 0.787686 0.669699 0.453103
Si Si6 0.242513 0.407179 0.648125
Si Si7 0.881194 0.596690 0.900317
Si Si8 0.259544 0.014196 0.018144
O O1 0.373808 0.097185 0.618097
O O2 0.131295 0.000600 0.589603
O O3 0.040417 0.179071 0.616084
O O4 0.983800 0.080017 0.699644
O O5 0.691707 0.543896 0.215339
O O6 0.228517 0.223184 0.204400
O O7 0.460481 0.168166 0.091086
O O8 0.183320 0.310831 0.120838
O O9 0.162660 0.116383 0.307099
O O10 0.514147 0.128563 0.196675
O O11 0.750000 0.750000 0.500000
O O12 0.685822 0.659295 0.409261
O O13 0.709200 0.577809 0.492481
O O14 0.191339 0.508879 0.627636
O O15 0.761309 0.592053 0.973137
O O16 0.500000 0.000000 0.000000
#
# Coordination Sequence:
#
# PCOD9267548 Si02
#       8
#     8   4   8   8   8   8   8   8
#     4  11  23  43  68  97 132 177 223 277 332 396
#     4  12  24  44  66  90 130 174 230 264 328 404
#     4  11  24  42  67  98 138 168 222 277 339 394
#     4  10  22  43  62  93 125 175 219 273 329 395
#     4  10  19  39  65  96 131 172 211 270 338 396
#     4   9  19  41  70  83 128 175 217 265 331 390
#     4  10  21  44  69 101 128 175 224 279 327 405
#     4   9  20  40  70  93 133 174 221 270 329 396
#
# _framework density 25.434360000000002
#
# number of rings (size 3 to 8) (size 9 to 14) (size 15 to 20)
#    0.000    1.867    2.667    0.800    1.867    2.667 
#   12.000    2.667    0.000    0.000    0.000    0.000 
#    0.000    0.000    0.000    0.000    0.000    0.000 
#
# Total GULP energy -167129.245964 kJ/mol
# GULP energy per Si atom -5570.974865 kJ/mol
# Density = 2.537647 g / cm^3
# Si number density = 25.434360 Si / 1000 Ang^3
#
#
#
# Elastic Constant Matrix: (Units=GPa)
#
#
# Indices 1 2 3 4 5 6 
#
# 1 93.8115 3.5841 15.9170 -0.0003 5.5043 -0.0002
# 2 3.5841 30.4539 30.6372 -0.0001 5.3331 -0.0002
# 3 15.9170 30.6372 194.6932 -0.0003 11.9605 -0.0001
# 4 -0.0003 -0.0001 -0.0003 66.6617 0.0002 15.6820
# 5 5.5043 5.3331 11.9605 0.0002 35.4875 0.0001
# 6 -0.0002 -0.0002 -0.0001 15.6820 0.0001 37.7142
#
#
#
# Elastic Compliance Matrix: (Units=1/GPa)
#
#
# Indices 1 2 3 4 5 6 
#
# 1 0.010881 -0.000271 -0.000761 0.000000 -0.001390 0.000000
# 2 -0.000271 0.039548 -0.005962 0.000000 -0.003892 0.000000
# 3 -0.000761 -0.005962 0.006203 0.000000 -0.001076 0.000000
# 4 0.000000 0.000000 0.000000 0.016628 0.000000 -0.006914
# 5 -0.001390 -0.003892 -0.001076 0.000000 0.029342 0.000000
# 6 0.000000 0.000000 0.000000 -0.006914 0.000000 0.029390
#
#
# Mechanical properties :
#
#
# Convention : Reuss Voigt Hill
#
# Bulk Modulus (GPa) = 23.45079 46.58168 35.01623
# Shear Modulus (GPa) = 31.21199 45.89405 38.55302
#
# Velocity S-wave (km/s) = 3.50688 4.25244 3.89753
# Velocity P-wave (km/s) = 5.06338 6.51654 5.83537
#
# Compressibility (1/GPa) = 0.04264249
#
# Stress axis : x y z
#
# Youngs Moduli (GPa) = 91.90501 25.28576 161.21556
#
# Poissons Ratio (x) = 0.00685 0.12277
# Poissons Ratio (y) = 0.02491 0.96118
# Poissons Ratio (z) = 0.06999 0.15076
#
# Static dielectric constant tensor:
#      x y z
#    x 2.178440 0.000000 0.099330 
#    y 0.000000 2.101630 0.000000 
#    z 0.099330 0.000000 2.102440 
# 
# From -- ./inp_files/264685.got.cif
#   From: 2010.05.17/outbox.cif.g08.bks.cpg/sg15_133_cif.got.tgz:264685.got - 2010.06.03 18:47:42.
