data_PCOD9267761
_publ_section_title
;
Structure prediction by ZEFSAII (Michael W. Deem and Ramdas Pophale) SiO2 
 PCOD9267761
Probable space group: C 2/C
;
_chemical_formula_sum "Si O2"
_cell_formula_units_Z 60
_cell_length_a 12.349745
_cell_length_b 17.808916
_cell_length_c 28.074771
_cell_angle_alpha 90.000000
_cell_angle_beta 152.136838
_cell_angle_gamma 90.000000
_cell_volume 2885.789420
_symmetry_space_group_name_H-M "C 2/C"
_symmetry_group_IT_number 15
_symmetry_cell_setting 'monoclinic'
loop_
_space_group_symop_operation_xyz
x,y,z
-x,y,1/2-z
-x,-y,-z
x,-y,1/2+z
1/2+x,1/2+y,z
1/2-x,1/2+y,1/2-z
1/2-x,1/2-y,-z
1/2+x,1/2-y,1/2+z
loop_
_atom_site_type_symbol
_atom_site_label
_atom_site_fract_x
_atom_site_fract_y
_atom_site_fract_z
Si Si1 0.395700 0.539610 0.857696
Si Si2 0.754620 0.772576 0.555929
Si Si3 0.355763 0.820023 0.239164
Si Si4 0.000000 0.437280 0.750000
Si Si5 0.712544 0.888343 0.929756
Si Si6 0.612825 0.564386 0.363527
Si Si7 0.952617 0.259529 0.525376
Si Si8 0.374506 0.916954 0.876427
O O1 0.266330 0.610256 0.783177
O O2 0.549566 0.496828 0.878424
O O3 0.201981 0.485351 0.803630
O O4 0.544465 0.574551 0.959430
O O5 0.750000 0.750000 0.500000
O O6 0.779557 0.861819 0.570869
O O7 0.537404 0.747892 0.503910
O O8 0.974262 0.730271 0.664168
O O9 0.500000 0.851047 0.250000
O O10 0.159108 0.768928 0.139571
O O11 0.872241 0.394383 0.657224
O O12 0.534078 0.935325 0.893362
O O13 0.742464 0.798560 0.952091
O O14 0.374681 0.594957 0.246373
O O15 0.785083 0.537877 0.388043
O O16 0.970965 0.348407 0.541657
#
# Coordination Sequence:
#
# PCOD9267761 Si02
#       8
#     8   8   8   4   8   8   8   8
#     4  11  23  39  61  92 124 165 206 256 311 377
#     4  10  20  33  59  90 122 161 200 254 309 369
#     4   9  17  35  58  85 118 159 204 251 302 365
#     4  12  24  40  56  90 130 160 196 258 318 372
#     4  11  24  38  64  91 121 165 207 259 315 365
#     4  10  21  38  62  89 122 162 207 247 312 375
#     4   9  19  36  61  88 114 153 210 251 302 370
#     4  10  19  40  64  86 118 161 210 254 304 369
#
# _framework density 20.791537999999999
#
# number of rings (size 3 to 8) (size 9 to 14) (size 15 to 20)
#    0.000    1.867    3.333    0.800    1.867    1.600 
#    0.000    0.000    2.933    0.000    0.000    0.000 
#    0.000    0.000    0.000    0.000    0.000    0.000 
#
# Total GULP energy -167053.995247 kJ/mol
# GULP energy per Si atom -5568.466508 kJ/mol
# Density = 2.074422 g / cm^3
# Si number density = 20.791538 Si / 1000 Ang^3
#
#
#
# Elastic Constant Matrix: (Units=GPa)
#
#
# Indices 1 2 3 4 5 6 
#
# 1 100.4024 18.0824 18.5235 0.0003 -11.7117 0.0002
# 2 18.0824 58.8604 7.9757 0.0000 -8.8703 0.0003
# 3 18.5235 7.9757 50.1192 0.0011 -12.5416 -0.0005
# 4 0.0003 0.0000 0.0011 20.9662 -0.0008 3.1580
# 5 -11.7117 -8.8703 -12.5416 -0.0008 35.5590 -0.0016
# 6 0.0002 0.0003 -0.0005 3.1580 -0.0016 15.0818
#
#
#
# Elastic Compliance Matrix: (Units=1/GPa)
#
#
# Indices 1 2 3 4 5 6 
#
# 1 0.011274 -0.002738 -0.003260 0.000000 0.001880 0.000000
# 2 -0.002738 0.018480 -0.001098 0.000000 0.003321 0.000000
# 3 -0.003260 -0.001098 0.023027 -0.000001 0.006774 0.000002
# 4 0.000000 0.000000 -0.000001 0.049249 0.000000 -0.010312
# 5 0.001880 0.003321 0.006774 0.000000 0.031959 0.000003
# 6 0.000000 0.000000 0.000002 -0.010312 0.000003 0.068464
#
#
# Mechanical properties :
#
#
# Convention : Reuss Voigt Hill
#
# Bulk Modulus (GPa) = 25.91486 33.17168 29.54327
# Shear Modulus (GPa) = 21.78562 25.30811 23.54686
#
# Velocity S-wave (km/s) = 3.24050 3.49267 3.36895
# Velocity P-wave (km/s) = 5.14707 5.67926 5.41970
#
# Compressibility (1/GPa) = 0.03858790
#
# Stress axis : x y z
#
# Youngs Moduli (GPa) = 88.70019 54.11319 43.42683
#
# Poissons Ratio (x) = 0.14818 0.14159
# Poissons Ratio (y) = 0.24289 0.04767
# Poissons Ratio (z) = 0.28921 0.05940
#
# Static dielectric constant tensor:
#      x y z
#    x 1.800330 0.000000 0.024510 
#    y 0.000000 1.784080 0.000000 
#    z 0.024510 0.000000 1.746490 
# 
# From -- ./inp_files/293578.got.cif
#   From: 2010.05.17/outbox.cif.g08.bks.cpg/sg15_147_cif.got.tgz:293578.got - 2010.06.03 18:47:42.
