data_PCOD9267044
_publ_section_title
;
Structure prediction by ZEFSAII (Michael W. Deem and Ramdas Pophale) SiO2 
 PCOD9267044
Probable space group: C 2/C
;
_chemical_formula_sum "Si O2"
_cell_formula_units_Z 56
_cell_length_a 5.196999
_cell_length_b 19.668393
_cell_length_c 23.373144
_cell_angle_alpha 90.000000
_cell_angle_beta 95.237682
_cell_angle_gamma 90.000000
_cell_volume 2379.148146
_symmetry_space_group_name_H-M "C 2/C"
_symmetry_group_IT_number 15
_symmetry_cell_setting 'monoclinic'
loop_
_space_group_symop_operation_xyz
x,y,z
-x,y,1/2-z
-x,-y,-z
x,-y,1/2+z
1/2+x,1/2+y,z
1/2-x,1/2+y,1/2-z
1/2-x,1/2-y,-z
1/2+x,1/2-y,1/2+z
loop_
_atom_site_type_symbol
_atom_site_label
_atom_site_fract_x
_atom_site_fract_y
_atom_site_fract_z
Si Si1 0.532268 0.178487 0.021871
Si Si2 0.612719 0.287489 0.189245
Si Si3 0.056453 0.020675 0.376627
Si Si4 0.589012 0.675535 0.375110
Si Si5 0.745467 0.286100 0.411222
Si Si6 0.095775 0.468589 0.943096
Si Si7 0.745599 0.423295 0.214742
O O1 0.811421 0.171860 0.056575
O O2 0.437201 0.250608 0.045220
O O3 0.399349 0.112938 0.047752
O O4 0.467342 0.177840 0.953201
O O5 0.500000 0.271748 0.250000
O O6 0.719111 0.218964 0.161389
O O7 0.418785 0.324149 0.139419
O O8 0.826439 0.347467 0.195779
O O9 0.883510 0.012296 0.430359
O O10 0.039816 0.099106 0.355648
O O11 0.362562 0.010776 0.394530
O O12 0.890833 0.974183 0.331455
O O13 0.346989 0.723927 0.375289
O O14 0.000000 0.500000 0.000000
O O15 0.500000 0.408169 0.250000
O O16 0.000000 0.453260 0.250000
#
# Coordination Sequence:
#
# PCOD9267044 Si02
#       7
#     8   8   8   8   8   8   8
#     4   9  20  36  58  97 134 170 222 270 342 413
#     4  10  25  42  67  98 133 174 236 295 347 408
#     4  11  24  46  69  97 141 177 232 277 349 414
#     4  10  21  40  67  98 131 182 218 297 338 419
#     4  10  19  38  64  90 133 175 219 274 352 399
#     4  11  23  40  65 101 139 178 223 284 331 420
#     4  11  26  49  71  97 137 184 234 291 347 421
#
# _framework density 23.537835000000001
#
# number of rings (size 3 to 8) (size 9 to 14) (size 15 to 20)
#    0.000    1.714    1.429    1.714    6.000    1.143 
#    2.571    0.000    0.000    0.000    0.000    0.000 
#    0.000    0.000    0.000    0.000    0.000    0.000 
#
# Total GULP energy -156013.241991 kJ/mol
# GULP energy per Si atom -5571.901500 kJ/mol
# Density = 2.348426 g / cm^3
# Si number density = 23.537835 Si / 1000 Ang^3
#
#
#
# Elastic Constant Matrix: (Units=GPa)
#
#
# Indices 1 2 3 4 5 6 
#
# 1 79.6823 22.7979 23.9272 0.0000 4.2477 0.0000
# 2 22.7979 67.9095 53.7327 0.0000 12.7667 0.0000
# 3 23.9272 53.7327 129.5903 0.0000 17.0937 0.0000
# 4 0.0000 0.0000 0.0000 16.5814 0.0000 1.9302
# 5 4.2477 12.7667 17.0937 0.0000 36.8152 0.0000
# 6 0.0000 0.0000 0.0000 1.9302 0.0000 24.2649
#
#
#
# Elastic Compliance Matrix: (Units=1/GPa)
#
#
# Indices 1 2 3 4 5 6 
#
# 1 0.013962 -0.003966 -0.000961 0.000000 0.000211 0.000000
# 2 -0.003966 0.023500 -0.008519 0.000000 -0.003736 0.000000
# 3 -0.000961 -0.008519 0.011741 0.000000 -0.002387 0.000000
# 4 0.000000 0.000000 0.000000 0.060872 0.000000 -0.004842
# 5 0.000211 -0.003736 -0.002387 0.000000 0.029542 0.000000
# 6 0.000000 0.000000 0.000000 -0.004842 0.000000 0.041597
#
#
# Mechanical properties :
#
#
# Convention : Reuss Voigt Hill
#
# Bulk Modulus (GPa) = 44.82192 53.12198 48.97195
# Shear Modulus (GPa) = 23.19722 27.31391 25.25557
#
# Velocity S-wave (km/s) = 3.14272 3.41020 3.27919
# Velocity P-wave (km/s) = 5.67915 6.17444 5.93197
#
# Compressibility (1/GPa) = 0.02231051
#
# Stress axis : x y z
#
# Youngs Moduli (GPa) = 71.62287 42.55376 85.17159
#
# Poissons Ratio (x) = 0.16878 0.08186
# Poissons Ratio (y) = 0.28408 0.72554
# Poissons Ratio (z) = 0.06884 0.36250
#
# Static dielectric constant tensor:
#      x y z
#    x 1.959990 0.000000 -0.019510 
#    y 0.000000 2.026940 0.000000 
#    z -0.019510 0.000000 1.978770 
# 
# From -- ./inp_files/261398.got.cif
#   From: 2010.05.17/outbox.cif.g08.bks.cpg/sg15_131_cif.got.tgz:261398.got - 2010.06.03 18:47:42.
