data_PCOD9267928
_publ_section_title
;
Structure prediction by ZEFSAII (Michael W. Deem and Ramdas Pophale) SiO2 
 PCOD9267928
Probable space group: C 2/C
;
_chemical_formula_sum "Si O2"
_cell_formula_units_Z 40
_cell_length_a 7.531723
_cell_length_b 18.201604
_cell_length_c 10.817380
_cell_angle_alpha 90.000000
_cell_angle_beta 95.485896
_cell_angle_gamma 90.000000
_cell_volume 1476.156303
_symmetry_space_group_name_H-M "C 2/C"
_symmetry_group_IT_number 15
_symmetry_cell_setting 'monoclinic'
loop_
_space_group_symop_operation_xyz
x,y,z
-x,y,1/2-z
-x,-y,-z
x,-y,1/2+z
1/2+x,1/2+y,z
1/2-x,1/2+y,1/2-z
1/2-x,1/2-y,-z
1/2+x,1/2-y,1/2+z
loop_
_atom_site_type_symbol
_atom_site_label
_atom_site_fract_x
_atom_site_fract_y
_atom_site_fract_z
Si Si1 0.199084 0.867629 0.291429
Si Si2 0.209669 0.360777 0.482752
Si Si3 0.083994 0.124691 0.141308
Si Si4 0.081298 0.711393 0.384762
Si Si5 0.330493 0.980266 0.824880
O O1 0.166379 0.789739 0.354067
O O2 0.000000 0.893865 0.250000
O O3 0.284934 0.937352 0.361978
O O4 0.295086 0.857562 0.164782
O O5 0.418188 0.373984 0.535824
O O6 0.417664 0.204337 0.470036
O O7 0.134536 0.430536 0.553167
O O8 0.250346 0.160137 0.085180
O O9 0.174855 0.057182 0.226774
O O10 0.000000 0.171336 0.250000
O O11 0.000000 0.684403 0.250000
O O12 0.500000 0.983805 0.750000
#
# Coordination Sequence:
#
# PCOD9267928 Si02
#       5
#     8   8   8   8   8
#     4  11  28  45  70 115 154 183 260 315 358 450
#     4  11  23  48  81  98 150 206 237 306 392 428
#     4  10  19  40  79 102 139 197 249 293 374 445
#     4  11  21  46  70 105 149 190 246 310 363 443
#     4  11  22  46  75 109 149 195 251 308 366 448
#
# _framework density 27.097403
#
# number of rings (size 3 to 8) (size 9 to 14) (size 15 to 20)
#    0.000    1.200    6.000    1.800    0.000    8.000 
#    3.600    4.000    4.400    0.000    0.000    0.000 
#    0.000    0.000    0.000    0.000    0.000    0.000 
#
# Total GULP energy -111807.953776 kJ/mol
# GULP energy per Si atom -5590.397689 kJ/mol
# Density = 2.703573 g / cm^3
# Si number density = 27.097403 Si / 1000 Ang^3
#
#
#
# Elastic Constant Matrix: (Units=GPa)
#
#
# Indices 1 2 3 4 5 6 
#
# 1 184.6196 66.5054 43.8887 0.0000 -24.4583 0.0000
# 2 66.5054 179.3548 58.7135 0.0000 -8.1405 0.0000
# 3 43.8887 58.7135 132.5970 0.0000 -16.8946 0.0000
# 4 0.0000 0.0000 0.0000 -38.0628 0.0000 -77.5001
# 5 -24.4583 -8.1405 -16.8946 0.0000 37.8837 0.0000
# 6 0.0000 0.0000 0.0000 -77.5001 0.0000 -30.4697
#
#
#
# Elastic Compliance Matrix: (Units=1/GPa)
#
#
# Indices 1 2 3 4 5 6 
#
# 1 0.006854 -0.002088 -0.000888 0.000000 0.003581 0.000000
# 2 -0.002088 0.007158 -0.002602 0.000000 -0.000971 0.000000
# 3 -0.000888 -0.002602 0.009376 0.000000 0.003049 0.000000
# 4 0.000000 0.000000 0.000000 0.006287 0.000000 -0.015991
# 5 0.003581 -0.000971 0.003049 0.000000 0.029859 0.000000
# 6 0.000000 0.000000 0.000000 -0.015991 0.000000 0.007854
#
#
# Mechanical properties :
#
#
# Convention : Reuss Voigt Hill
#
# Bulk Modulus (GPa) = 81.75297 92.75406 87.25352
# Shear Modulus (GPa) = 60.51714 15.70116 38.10915
#
# Velocity S-wave (km/s) = 4.73093 2.40976 3.75424
# Velocity P-wave (km/s) = 7.75098 6.48435 7.14579
#
# Compressibility (1/GPa) = 0.01223197
#
# Stress axis : x y z
#
# Youngs Moduli (GPa) = 145.89481 139.71141 106.65487
#
# Poissons Ratio (x) = 0.29178 0.09468
# Poissons Ratio (y) = 0.30470 0.27749
# Poissons Ratio (z) = 0.12952 0.36350
#
# Static dielectric constant tensor:
#      x y z
#    x 2.205340 0.000000 0.105550 
#    y 0.000000 2.199340 0.000000 
#    z 0.105550 0.000000 2.188220 
# 
# From -- ./inp_files/76821.got.cif
#   From: 2010.05.17/outbox.cif.g08.bks.cpg/sg15_39_cif.got.tgz:76821.got - 2010.06.03 18:47:42.
