data_PCOD9267799
_publ_section_title
;
Structure prediction by ZEFSAII (Michael W. Deem and Ramdas Pophale) SiO2 
 PCOD9267799
Probable space group: C 2/C
;
_chemical_formula_sum "Si O2"
_cell_formula_units_Z 60
_cell_length_a 21.568194
_cell_length_b 7.851749
_cell_length_c 24.544151
_cell_angle_alpha 90.000000
_cell_angle_beta 140.711073
_cell_angle_gamma 90.000000
_cell_volume 2632.028468
_symmetry_space_group_name_H-M "C 2/C"
_symmetry_group_IT_number 15
_symmetry_cell_setting 'monoclinic'
loop_
_space_group_symop_operation_xyz
x,y,z
-x,y,1/2-z
-x,-y,-z
x,-y,1/2+z
1/2+x,1/2+y,z
1/2-x,1/2+y,1/2-z
1/2-x,1/2-y,-z
1/2+x,1/2-y,1/2+z
loop_
_atom_site_type_symbol
_atom_site_label
_atom_site_fract_x
_atom_site_fract_y
_atom_site_fract_z
Si Si1 0.096509 0.983345 0.635118
Si Si2 0.364323 0.978786 0.405225
Si Si3 0.383869 0.631763 0.958697
Si Si4 0.724066 0.843199 0.426260
Si Si5 0.859450 0.325620 0.587099
Si Si6 0.160214 0.920760 0.789129
Si Si7 0.500000 0.412799 0.250000
Si Si8 0.008465 0.650171 0.088436
O O1 0.154347 0.024625 0.619126
O O2 0.065898 0.172748 0.634895
O O3 0.144599 0.872808 0.715190
O O4 0.995495 0.902975 0.547515
O O5 0.374534 0.169041 0.438159
O O6 0.250442 0.945502 0.341487
O O7 0.409530 0.010944 0.375459
O O8 0.434186 0.854055 0.486233
O O9 0.324272 0.581281 0.971043
O O10 0.750000 0.750000 0.500000
O O11 0.688530 0.718492 0.353920
O O12 0.652732 0.996392 0.390178
O O13 0.750000 0.250000 0.500000
O O14 0.915847 0.194781 0.663712
O O15 0.932523 0.367457 0.586394
O O16 0.057205 0.986133 0.742023
#
# Coordination Sequence:
#
# PCOD9267799 Si02
#       8
#     8   8   8   8   8   8   4   8
#     4  10  20  40  68  92 133 171 233 287 343 420
#     4   9  20  40  66  94 128 172 229 279 346 421
#     4   9  20  40  63  96 128 185 229 272 349 423
#     4  11  24  43  69 101 142 188 236 288 367 449
#     4  12  24  43  68 103 143 187 234 293 359 441
#     4  11  24  44  66 100 134 184 231 303 364 420
#     4  12  26  44  68 100 136 180 238 298 366 432
#     4  10  19  40  65  92 129 174 223 278 344 420
#
# _framework density 22.796106999999999
#
# number of rings (size 3 to 8) (size 9 to 14) (size 15 to 20)
#    0.000    1.600    1.333    4.000    1.867    0.533 
#    4.800   14.667    0.000    0.000    0.000    0.000 
#    0.000    0.000    0.000    0.000    0.000    0.000 
#
# Total GULP energy -167286.968368 kJ/mol
# GULP energy per Si atom -5576.232279 kJ/mol
# Density = 2.274422 g / cm^3
# Si number density = 22.796107 Si / 1000 Ang^3
#
#
#
# Elastic Constant Matrix: (Units=GPa)
#
#
# Indices 1 2 3 4 5 6 
#
# 1 153.7565 12.7291 5.7719 0.0000 -3.3161 0.0001
# 2 12.7291 41.9504 16.3012 0.0000 -6.0441 0.0003
# 3 5.7719 16.3012 84.9872 0.0000 -11.5714 0.0000
# 4 0.0000 0.0000 0.0000 31.4081 0.0000 1.7088
# 5 -3.3161 -6.0441 -11.5714 0.0000 38.5156 0.0000
# 6 0.0001 0.0003 0.0000 1.7088 0.0000 24.9524
#
#
#
# Elastic Compliance Matrix: (Units=1/GPa)
#
#
# Indices 1 2 3 4 5 6 
#
# 1 0.006674 -0.001973 -0.000040 0.000000 0.000253 0.000000
# 2 -0.001973 0.026606 -0.004613 0.000000 0.002620 0.000000
# 3 -0.000040 -0.004613 0.013090 0.000000 0.003206 0.000000
# 4 0.000000 0.000000 0.000000 0.031958 0.000000 -0.002189
# 5 0.000253 0.002620 0.003206 0.000000 0.027359 0.000000
# 6 0.000000 0.000000 0.000000 -0.002189 0.000000 0.040226
#
#
# Mechanical properties :
#
#
# Convention : Reuss Voigt Hill
#
# Bulk Modulus (GPa) = 30.19452 38.92207 34.55830
# Shear Modulus (GPa) = 29.37621 35.36801 32.37211
#
# Velocity S-wave (km/s) = 3.59367 3.94317 3.77247
# Velocity P-wave (km/s) = 5.52210 6.15163 5.84534
#
# Compressibility (1/GPa) = 0.03311859
#
# Stress axis : x y z
#
# Youngs Moduli (GPa) = 149.83293 37.58534 76.39185
#
# Poissons Ratio (x) = 0.07416 0.00309
# Poissons Ratio (y) = 0.29562 0.35237
# Poissons Ratio (z) = 0.00605 0.17337
#
# Static dielectric constant tensor:
#      x y z
#    x 1.916980 0.000000 0.022340 
#    y 0.000000 1.880220 0.000000 
#    z 0.022340 0.000000 1.874000 
# 
# From -- ./inp_files/279717.got.cif
#   From: 2010.05.17/outbox.cif.g08.bks.cpg/sg15_140_cif.got.tgz:279717.got - 2010.06.03 18:47:42.
