data_PCOD9267510
_publ_section_title
;
Structure prediction by ZEFSAII (Michael W. Deem and Ramdas Pophale) SiO2 
 PCOD9267510
Probable space group: C 2/C
;
_chemical_formula_sum "Si O2"
_cell_formula_units_Z 56
_cell_length_a 23.228914
_cell_length_b 19.464272
_cell_length_c 13.594658
_cell_angle_alpha 90.000000
_cell_angle_beta 155.980480
_cell_angle_gamma 90.000000
_cell_volume 2501.962676
_symmetry_space_group_name_H-M "C 2/C"
_symmetry_group_IT_number 15
_symmetry_cell_setting 'monoclinic'
loop_
_space_group_symop_operation_xyz
x,y,z
-x,y,1/2-z
-x,-y,-z
x,-y,1/2+z
1/2+x,1/2+y,z
1/2-x,1/2+y,1/2-z
1/2-x,1/2-y,-z
1/2+x,1/2-y,1/2+z
loop_
_atom_site_type_symbol
_atom_site_label
_atom_site_fract_x
_atom_site_fract_y
_atom_site_fract_z
Si Si1 0.160949 0.830289 0.466453
Si Si2 0.163004 0.003668 0.724824
Si Si3 0.384298 0.283739 0.325129
Si Si4 0.611097 0.074855 0.838088
Si Si5 0.867628 0.110608 0.972717
Si Si6 0.418394 0.163121 0.883255
Si Si7 0.157019 0.436933 0.824115
O O1 0.262631 0.771038 0.668912
O O2 0.161532 0.813977 0.351019
O O3 0.237055 0.904644 0.591211
O O4 0.000000 0.829975 0.250000
O O5 0.173945 0.035904 0.634611
O O6 0.255284 0.055550 0.937118
O O7 0.000000 0.000000 0.500000
O O8 0.238372 0.932327 0.872139
O O9 0.406378 0.341438 0.440700
O O10 0.524437 0.239787 0.521683
O O11 0.500000 0.059022 0.750000
O O12 0.576190 0.142308 0.723424
O O13 0.608199 0.016188 0.747772
O O14 0.737122 0.146555 0.822662
O O15 0.000000 0.103261 0.250000
O O16 0.526935 0.115813 0.116438
#
# Coordination Sequence:
#
# PCOD9267510 Si02
#       7
#     8   8   8   8   8   8   8
#     4  10  19  39  64  96 127 167 213 271 322 383
#     4  10  22  43  62  93 129 170 208 270 328 379
#     4  10  22  41  62  94 131 170 219 265 325 379
#     4  10  21  41  63  88 129 169 211 268 318 387
#     4  12  25  43  66  95 132 175 217 268 328 388
#     4  11  23  41  66  99 123 172 223 264 320 402
#     4   9  21  39  64  94 129 161 214 267 326 387
#
# _framework density 22.382427
#
# number of rings (size 3 to 8) (size 9 to 14) (size 15 to 20)
#    0.857    0.857    1.429    3.000    0.000    1.143 
#    7.714    0.000    0.000    0.000    0.000    0.000 
#    0.000    0.000    0.000    0.000    0.000    0.000 
#
# Total GULP energy -156167.052988 kJ/mol
# GULP energy per Si atom -5577.394750 kJ/mol
# Density = 2.233148 g / cm^3
# Si number density = 22.382427 Si / 1000 Ang^3
#
#
#
# Elastic Constant Matrix: (Units=GPa)
#
#
# Indices 1 2 3 4 5 6 
#
# 1 52.1214 9.0067 23.9742 0.0000 11.0346 0.0000
# 2 9.0067 52.1088 1.7267 0.0000 -17.9879 0.0000
# 3 23.9742 1.7267 127.3812 0.0000 -4.4993 0.0000
# 4 0.0000 0.0000 0.0000 2.8630 0.0000 2.3491
# 5 11.0346 -17.9879 -4.4993 0.0000 42.3167 0.0000
# 6 0.0000 0.0000 0.0000 2.3491 0.0000 25.7314
#
#
#
# Elastic Compliance Matrix: (Units=1/GPa)
#
#
# Indices 1 2 3 4 5 6 
#
# 1 0.024989 -0.007719 -0.004963 0.000000 -0.010325 0.000000
# 2 -0.007719 0.024875 0.001566 0.000000 0.012753 0.000000
# 3 -0.004963 0.001566 0.008866 0.000000 0.002903 0.000000
# 4 0.000000 0.000000 0.000000 0.377564 0.000000 -0.034469
# 5 -0.010325 0.012753 0.002903 0.000000 0.032053 0.000000
# 6 0.000000 0.000000 0.000000 -0.034469 0.000000 0.042010
#
#
# Mechanical properties :
#
#
# Convention : Reuss Voigt Hill
#
# Bulk Modulus (GPa) = 27.39886 33.44739 30.42312
# Shear Modulus (GPa) = 9.17844 27.30915 18.24379
#
# Velocity S-wave (km/s) = 2.02722 3.49680 2.85808
# Velocity P-wave (km/s) = 4.21276 5.59281 4.95111
#
# Compressibility (1/GPa) = 0.03649787
#
# Stress axis : x y z
#
# Youngs Moduli (GPa) = 40.01827 40.20055 112.79245
#
# Poissons Ratio (x) = 0.31030 0.55980
# Poissons Ratio (y) = 0.30889 -0.17663
# Poissons Ratio (z) = 0.19862 -0.06295
#
# Static dielectric constant tensor:
#      x y z
#    x 1.808280 0.000000 -0.000480 
#    y 0.000000 1.894710 0.000000 
#    z -0.000480 0.000000 1.833940 
# 
# From -- ./inp_files/114769.got.cif
#   From: 2010.05.17/outbox.cif.g08.bks.cpg/sg15_58_cif.got.tgz:114769.got - 2010.06.03 18:47:42.
