data_PCOD9267433
_publ_section_title
;
Structure prediction by ZEFSAII (Michael W. Deem and Ramdas Pophale) SiO2 
 PCOD9267433
Probable space group: C 2/C
;
_chemical_formula_sum "Si O2"
_cell_formula_units_Z 40
_cell_length_a 20.523210
_cell_length_b 10.038647
_cell_length_c 9.156302
_cell_angle_alpha 90.000000
_cell_angle_beta 99.418807
_cell_angle_gamma 90.000000
_cell_volume 1860.997601
_symmetry_space_group_name_H-M "C 2/C"
_symmetry_group_IT_number 15
_symmetry_cell_setting 'monoclinic'
loop_
_space_group_symop_operation_xyz
x,y,z
-x,y,1/2-z
-x,-y,-z
x,-y,1/2+z
1/2+x,1/2+y,z
1/2-x,1/2+y,1/2-z
1/2-x,1/2-y,-z
1/2+x,1/2-y,1/2+z
loop_
_atom_site_type_symbol
_atom_site_label
_atom_site_fract_x
_atom_site_fract_y
_atom_site_fract_z
Si Si1 0.607644 0.837375 0.987284
Si Si2 0.220015 0.687890 0.340297
Si Si3 0.697808 0.108803 0.784501
Si Si4 0.991310 0.140081 0.420134
Si Si5 0.558381 0.890133 0.394074
O O1 0.641747 0.803041 0.845662
O O2 0.557716 0.959049 0.950535
O O3 0.662088 0.901356 0.114180
O O4 0.577387 0.709181 0.055668
O O5 0.250000 0.750000 0.500000
O O6 0.250884 0.770349 0.217934
O O7 0.233150 0.530673 0.330927
O O8 0.633671 0.127966 0.863331
O O9 0.000000 0.117809 0.250000
O O10 0.042795 0.257847 0.480933
O O11 0.000000 0.000000 0.500000
O O12 0.500000 0.886104 0.250000
#
# Coordination Sequence:
#
# PCOD9267433 Si02
#       5
#     8   8   8   8   8
#     4  10  20  40  62  90 119 165 215 252 307 385
#     4   9  21  38  61  89 121 159 208 261 310 372
#     4  10  19  39  63  88 125 159 207 258 314 366
#     4  11  23  40  58  91 132 162 203 260 318 368
#     4  10  20  37  65  90 124 165 211 255 308 385
#
# _framework density 21.493846999999999
#
# number of rings (size 3 to 8) (size 9 to 14) (size 15 to 20)
#    0.000    2.000    4.000    0.600    0.000    2.400 
#    3.600    9.000    0.000    0.000    0.000    0.000 
#    0.000    0.000    0.000    0.000    0.000    0.000 
#
# Total GULP energy -111335.434584 kJ/mol
# GULP energy per Si atom -5566.771729 kJ/mol
# Density = 2.144493 g / cm^3
# Si number density = 21.493847 Si / 1000 Ang^3
#
#
#
# Elastic Constant Matrix: (Units=GPa)
#
#
# Indices 1 2 3 4 5 6 
#
# 1 78.4756 54.6575 10.7475 0.0000 -25.4556 0.0000
# 2 54.6575 183.6513 31.3451 0.0000 -8.6953 0.0000
# 3 10.7475 31.3451 23.0279 0.0000 -6.9239 0.0000
# 4 0.0000 0.0000 0.0000 36.8414 0.0000 -6.6418
# 5 -25.4556 -8.6953 -6.9239 0.0000 33.2766 0.0000
# 6 0.0000 0.0000 0.0000 -6.6418 0.0000 38.5848
#
#
#
# Elastic Compliance Matrix: (Units=1/GPa)
#
#
# Indices 1 2 3 4 5 6 
#
# 1 0.021756 -0.006258 0.003069 0.000000 0.015646 0.000000
# 2 -0.006258 0.008894 -0.010588 0.000000 -0.004666 0.000000
# 3 0.003069 -0.010588 0.060036 0.000000 0.012072 0.000000
# 4 0.000000 0.000000 0.000000 0.028013 0.000000 0.004822
# 5 0.015646 -0.004666 0.012072 0.000000 0.043313 0.000000
# 6 0.000000 0.000000 0.000000 0.004822 0.000000 0.026747
#
#
# Mechanical properties :
#
#
# Convention : Reuss Voigt Hill
#
# Bulk Modulus (GPa) = 15.84016 53.18389 34.51203
# Shear Modulus (GPa) = 21.06522 34.30086 27.68304
#
# Velocity S-wave (km/s) = 3.13398 3.99914 3.59270
# Velocity P-wave (km/s) = 4.52564 6.79129 5.77075
#
# Compressibility (1/GPa) = 0.06313068
#
# Stress axis : x y z
#
# Youngs Moduli (GPa) = 45.96333 112.43705 16.65664
#
# Poissons Ratio (x) = 0.70363 -0.05111
# Poissons Ratio (y) = 0.28764 0.17637
# Poissons Ratio (z) = -0.14104 1.19054
#
# Static dielectric constant tensor:
#      x y z
#    x 1.965020 0.000000 -0.094320 
#    y 0.000000 1.809570 0.000000 
#    z -0.094320 0.000000 1.881380 
# 
# From -- ./inp_files/109685.got.cif
#   From: 2010.05.17/outbox.cif.g08.bks.cpg/sg15_55_cif.got.tgz:109685.got - 2010.06.03 18:47:42.
