data_PCOD9267694
_publ_section_title
;
Structure prediction by ZEFSAII (Michael W. Deem and Ramdas Pophale) SiO2 
 PCOD9267694
Probable space group: C 2/C
;
_chemical_formula_sum "Si O2"
_cell_formula_units_Z 56
_cell_length_a 11.653811
_cell_length_b 16.692664
_cell_length_c 16.063435
_cell_angle_alpha 90.000000
_cell_angle_beta 118.622908
_cell_angle_gamma 90.000000
_cell_volume 2742.984925
_symmetry_space_group_name_H-M "C 2/C"
_symmetry_group_IT_number 15
_symmetry_cell_setting 'monoclinic'
loop_
_space_group_symop_operation_xyz
x,y,z
-x,y,1/2-z
-x,-y,-z
x,-y,1/2+z
1/2+x,1/2+y,z
1/2-x,1/2+y,1/2-z
1/2-x,1/2-y,-z
1/2+x,1/2-y,1/2+z
loop_
_atom_site_type_symbol
_atom_site_label
_atom_site_fract_x
_atom_site_fract_y
_atom_site_fract_z
Si Si1 0.806456 0.427960 0.993396
Si Si2 0.142129 0.517016 0.256396
Si Si3 0.594019 0.692592 0.350611
Si Si4 0.012423 0.196515 0.513698
Si Si5 0.732428 0.415849 0.541584
Si Si6 0.209937 0.639859 0.836267
Si Si7 0.020251 0.376668 0.578018
O O1 0.717265 0.360935 0.919331
O O2 0.942401 0.424683 0.992270
O O3 0.720647 0.508240 0.974928
O O4 0.842501 0.402879 0.098932
O O5 0.249115 0.550028 0.358624
O O6 0.178317 0.423560 0.252478
O O7 0.121769 0.581774 0.177042
O O8 0.000000 0.516304 0.250000
O O9 0.500000 0.652355 0.250000
O O10 0.526069 0.706637 0.417587
O O11 0.645632 0.772562 0.320804
O O12 0.881259 0.149674 0.494571
O O13 0.136373 0.147631 0.592000
O O14 0.029219 0.283332 0.560334
O O15 0.874918 0.385179 0.563484
#
# Coordination Sequence:
#
# PCOD9267694 Si02
#       7
#     8   8   8   8   8   8   8
#     4  10  20  39  62  89 124 161 212 260 309 379
#     4   9  21  37  61  87 121 156 211 257 307 373
#     4  11  22  37  64  93 123 159 210 269 320 374
#     4  11  22  39  65  90 129 163 204 266 325 380
#     4  10  23  38  61  92 124 168 206 252 325 377
#     4  10  19  40  61  90 118 159 208 268 318 370
#     4  11  20  41  66  89 125 171 212 257 307 393
#
# _framework density 20.415717000000001
#
# number of rings (size 3 to 8) (size 9 to 14) (size 15 to 20)
#    0.000    1.714    2.857    2.143    2.000    5.143 
#    2.571    0.000    9.429    0.000    0.000    0.000 
#    0.000    0.000    0.000    0.000    0.000    0.000 
#
# Total GULP energy -155945.426433 kJ/mol
# GULP energy per Si atom -5569.479515 kJ/mol
# Density = 2.036925 g / cm^3
# Si number density = 20.415717 Si / 1000 Ang^3
#
#
#
# Elastic Constant Matrix: (Units=GPa)
#
#
# Indices 1 2 3 4 5 6 
#
# 1 96.8982 47.2761 22.5745 0.0000 0.7060 0.0000
# 2 47.2761 140.0209 40.5875 0.0000 -0.3575 0.0000
# 3 22.5745 40.5875 54.4366 0.0000 13.5596 0.0000
# 4 0.0000 0.0000 0.0000 69.9770 0.0000 -12.5958
# 5 0.7060 -0.3575 13.5596 0.0000 15.5176 0.0000
# 6 0.0000 0.0000 0.0000 -12.5958 0.0000 41.8017
#
#
#
# Elastic Compliance Matrix: (Units=1/GPa)
#
#
# Indices 1 2 3 4 5 6 
#
# 1 0.012702 -0.003304 -0.003376 0.000000 0.002296 0.000000
# 2 -0.003304 0.010787 -0.008656 0.000000 0.007962 0.000000
# 3 -0.003376 -0.008656 0.033534 0.000000 -0.029348 0.000000
# 4 0.000000 0.000000 0.000000 0.015110 0.000000 0.004553
# 5 0.002296 0.007962 -0.029348 0.000000 0.090167 0.000000
# 6 0.000000 0.000000 0.000000 0.004553 0.000000 0.025294
#
#
# Mechanical properties :
#
#
# Convention : Reuss Voigt Hill
#
# Bulk Modulus (GPa) = 37.94849 56.91467 47.43158
# Shear Modulus (GPa) = 22.02178 37.52045 29.77111
#
# Velocity S-wave (km/s) = 3.28787 4.29163 3.82284
# Velocity P-wave (km/s) = 5.74819 7.24540 6.53978
#
# Compressibility (1/GPa) = 0.02635151
#
# Stress axis : x y z
#
# Youngs Moduli (GPa) = 78.72812 92.70642 29.82083
#
# Poissons Ratio (x) = 0.30633 0.10066
# Poissons Ratio (y) = 0.26014 0.25812
# Poissons Ratio (z) = 0.26575 0.80242
#
# Static dielectric constant tensor:
#      x y z
#    x 1.769480 0.000000 -0.018740 
#    y 0.000000 1.816050 0.000000 
#    z -0.018740 0.000000 1.749060 
# 
# From -- ./inp_files/198435.got.cif
#   From: 2010.05.17/outbox.cif.g08.bks.cpg/sg15_100_cif.got.tgz:198435.got - 2010.06.03 18:47:42.
