data_PCOD9267067
_publ_section_title
;
Structure prediction by ZEFSAII (Michael W. Deem and Ramdas Pophale) SiO2 
 PCOD9267067
Probable space group: C 2/C
;
_chemical_formula_sum "Si O2"
_cell_formula_units_Z 48
_cell_length_a 18.367669
_cell_length_b 20.798776
_cell_length_c 10.883603
_cell_angle_alpha 90.000000
_cell_angle_beta 34.366874
_cell_angle_gamma 90.000000
_cell_volume 2347.040919
_symmetry_space_group_name_H-M "C 2/C"
_symmetry_group_IT_number 15
_symmetry_cell_setting 'monoclinic'
loop_
_space_group_symop_operation_xyz
x,y,z
-x,y,1/2-z
-x,-y,-z
x,-y,1/2+z
1/2+x,1/2+y,z
1/2-x,1/2+y,1/2-z
1/2-x,1/2-y,-z
1/2+x,1/2-y,1/2+z
loop_
_atom_site_type_symbol
_atom_site_label
_atom_site_fract_x
_atom_site_fract_y
_atom_site_fract_z
Si Si1 0.140333 0.922483 0.106827
Si Si2 0.510274 0.255094 0.497891
Si Si3 0.221689 0.202664 0.341714
Si Si4 0.799470 0.941965 0.972494
Si Si5 0.040846 0.899744 0.513707
Si Si6 0.668757 0.185351 0.578237
O O1 0.114325 0.908130 0.284754
O O2 0.000000 0.942796 0.250000
O O3 0.180787 0.858525 0.978737
O O4 0.235201 0.983445 0.964244
O O5 0.660407 0.241217 0.257800
O O6 0.407694 0.259814 0.527095
O O7 0.506591 0.324619 0.568034
O O8 0.461314 0.205247 0.669468
O O9 0.288778 0.179476 0.122128
O O10 0.700381 0.885158 0.086523
O O11 0.871997 0.920468 0.994920
O O12 0.906543 0.937838 0.714060
O O13 0.750000 0.250000 0.500000
#
# Coordination Sequence:
#
# PCOD9267067 Si02
#       6
#     8   8   8   8   8   8
#     4  12  23  39  57  95 134 177 210 266 329 403
#     4  11  22  40  67  97 128 165 224 273 331 378
#     4  11  24  39  65  97 136 168 218 270 336 387
#     4  11  22  35  65  94 129 170 218 275 316 387
#     4  11  21  35  62  93 126 162 223 266 326 374
#     4  10  19  38  64  95 122 161 220 272 321 373
#
# _framework density 20.451283
#
# number of rings (size 3 to 8) (size 9 to 14) (size 15 to 20)
#    0.000    1.000    6.667    3.000    4.667    0.667 
#    0.000    0.833    0.000    0.000    0.000    0.000 
#    0.000    0.000    0.000    0.000    0.000    0.000 
#
# Total GULP energy -133731.373033 kJ/mol
# GULP energy per Si atom -5572.140543 kJ/mol
# Density = 2.040474 g / cm^3
# Si number density = 20.451283 Si / 1000 Ang^3
#
#
#
# Elastic Constant Matrix: (Units=GPa)
#
#
# Indices 1 2 3 4 5 6 
#
# 1 66.5950 34.9150 51.3972 0.0000 -5.5920 0.0000
# 2 34.9150 107.0019 42.6136 0.0000 3.4873 0.0000
# 3 51.3972 42.6136 70.5138 0.0006 11.9281 -0.0001
# 4 0.0000 0.0000 0.0006 12.0728 -0.0002 -0.4767
# 5 -5.5920 3.4873 11.9281 -0.0002 26.9876 0.0001
# 6 0.0000 0.0000 -0.0001 -0.4767 0.0001 18.0169
#
#
#
# Elastic Compliance Matrix: (Units=1/GPa)
#
#
# Indices 1 2 3 4 5 6 
#
# 1 0.047799 -0.001022 -0.038823 0.000002 0.027195 0.000000
# 2 -0.001022 0.012414 -0.006972 0.000000 0.001265 0.000000
# 3 -0.038823 -0.006972 0.051772 -0.000003 -0.030026 0.000000
# 4 0.000002 0.000000 -0.000003 0.082917 0.000003 0.002194
# 5 0.027195 0.001265 -0.030026 0.000003 0.055797 0.000000
# 6 0.000000 0.000000 0.000000 0.002194 0.000000 0.055561
#
#
# Mechanical properties :
#
#
# Convention : Reuss Voigt Hill
#
# Bulk Modulus (GPa) = 54.49037 55.77358 55.13197
# Shear Modulus (GPa) = 12.31496 19.09446 15.70471
#
# Velocity S-wave (km/s) = 2.45656 3.05889 2.77412
# Velocity P-wave (km/s) = 5.89475 6.30923 6.10551
#
# Compressibility (1/GPa) = 0.01835187
#
# Stress axis : x y z
#
# Youngs Moduli (GPa) = 20.92109 80.55270 19.31553
#
# Poissons Ratio (x) = 0.08231 0.74989
# Poissons Ratio (y) = 0.02138 0.13466
# Poissons Ratio (z) = 0.81222 0.56158
#
# Static dielectric constant tensor:
#      x y z
#    x 1.963690 0.000000 -0.098800 
#    y 0.000000 1.744800 0.000000 
#    z -0.098800 0.000000 1.779640 
# 
# From -- ./inp_files/114194.got.cif
#   From: 2010.05.17/outbox.cif.g08.bks.cpg/sg15_58_cif.got.tgz:114194.got - 2010.06.03 18:47:42.
