data_PCOD9267567
_publ_section_title
;
Structure prediction by ZEFSAII (Michael W. Deem and Ramdas Pophale) SiO2 
 PCOD9267567
Probable space group: C 2/C
;
_chemical_formula_sum "Si O2"
_cell_formula_units_Z 48
_cell_length_a 9.280861
_cell_length_b 26.048771
_cell_length_c 15.906730
_cell_angle_alpha 90.000000
_cell_angle_beta 36.229784
_cell_angle_gamma 90.000000
_cell_volume 2272.805742
_symmetry_space_group_name_H-M "C 2/C"
_symmetry_group_IT_number 15
_symmetry_cell_setting 'monoclinic'
loop_
_space_group_symop_operation_xyz
x,y,z
-x,y,1/2-z
-x,-y,-z
x,-y,1/2+z
1/2+x,1/2+y,z
1/2-x,1/2+y,1/2-z
1/2-x,1/2-y,-z
1/2+x,1/2-y,1/2+z
loop_
_atom_site_type_symbol
_atom_site_label
_atom_site_fract_x
_atom_site_fract_y
_atom_site_fract_z
Si Si1 0.764900 0.170352 0.254923
Si Si2 0.814770 0.353010 0.259762
Si Si3 0.250262 0.448945 0.313292
Si Si4 0.274631 0.195334 0.032462
Si Si5 0.722009 0.065362 0.343893
Si Si6 0.499683 0.269229 0.157491
O O1 0.747122 0.194632 0.357378
O O2 0.659250 0.113446 0.313210
O O3 0.656335 0.217121 0.254329
O O4 0.048922 0.163508 0.101868
O O5 0.735099 0.409615 0.270923
O O6 0.604746 0.310488 0.359978
O O7 0.000000 0.352205 0.250000
O O8 0.975241 0.330609 0.107957
O O9 0.500000 0.442749 0.250000
O O10 0.234332 0.509076 0.297207
O O11 0.998885 0.437603 0.483908
O O12 0.250000 0.250000 0.000000
O O13 0.000000 0.074511 0.250000
O O14 0.500000 0.294554 0.250000
O O15 0.750000 0.250000 0.000000
#
# Coordination Sequence:
#
# PCOD9267567 Si02
#       6
#     8   8   8   8   8   8
#     4  11  21  37  65  88 125 165 211 264 305 392
#     4  12  24  40  66  92 129 169 216 263 323 397
#     4  10  22  39  66  96 128 164 219 277 326 388
#     4  11  20  36  60  93 118 162 218 254 306 376
#     4  10  19  39  66  96 123 170 222 265 322 395
#     4  12  28  43  62  96 139 174 212 269 336 394
#
# _framework density 21.11927
#
# number of rings (size 3 to 8) (size 9 to 14) (size 15 to 20)
#    0.000    1.000    5.000    2.500    4.667    0.000 
#    0.000    0.833    0.000   14.000    0.000    0.000 
#    0.000    0.000    0.000    0.000    0.000    0.000 
#
# Total GULP energy -133824.219667 kJ/mol
# GULP energy per Si atom -5576.009153 kJ/mol
# Density = 2.107120 g / cm^3
# Si number density = 21.119270 Si / 1000 Ang^3
#
#
#
# Elastic Constant Matrix: (Units=GPa)
#
#
# Indices 1 2 3 4 5 6 
#
# 1 98.1389 44.9622 13.3076 0.0000 -2.8024 0.0000
# 2 44.9622 178.8523 -0.5997 0.0000 -4.1837 0.0000
# 3 13.3076 -0.5997 62.4056 0.0000 -20.1153 0.0000
# 4 0.0000 0.0000 0.0000 29.0953 0.0000 2.0147
# 5 -2.8024 -4.1837 -20.1153 0.0000 26.4715 0.0000
# 6 0.0000 0.0000 0.0000 2.0147 0.0000 29.8636
#
#
#
# Elastic Compliance Matrix: (Units=1/GPa)
#
#
# Indices 1 2 3 4 5 6 
#
# 1 0.011962 -0.003054 -0.003083 0.000000 -0.001559 0.000000
# 2 -0.003054 0.006401 0.001238 0.000000 0.001629 0.000000
# 3 -0.003083 0.001238 0.022053 0.000000 0.016627 0.000000
# 4 0.000000 0.000000 0.000000 0.034531 0.000000 -0.002330
# 5 -0.001559 0.001629 0.016627 0.000000 0.050503 0.000000
# 6 0.000000 0.000000 0.000000 -0.002330 0.000000 0.033643
#
#
# Mechanical properties :
#
#
# Convention : Reuss Voigt Hill
#
# Bulk Modulus (GPa) = 32.65989 50.52635 41.59312
# Shear Modulus (GPa) = 27.91772 35.86786 31.89279
#
# Velocity S-wave (km/s) = 3.63975 4.12557 3.89025
# Velocity P-wave (km/s) = 5.75863 6.83155 6.31790
#
# Compressibility (1/GPa) = 0.03061859
#
# Stress axis : x y z
#
# Youngs Moduli (GPa) = 83.59560 156.21998 45.34565
#
# Poissons Ratio (x) = 0.47710 0.13979
# Poissons Ratio (y) = 0.25531 -0.05613
# Poissons Ratio (z) = 0.25770 -0.19338
#
# Static dielectric constant tensor:
#      x y z
#    x 1.946710 0.000000 0.066910 
#    y 0.000000 1.801130 0.000000 
#    z 0.066910 0.000000 1.894310 
# 
# From -- ./inp_files/138913.got.cif
#   From: 2010.05.17/outbox.cif.g08.bks.cpg/sg15_70_cif.got.tgz:138913.got - 2010.06.03 18:47:42.
