data_PCOD9267423
_publ_section_title
;
Structure prediction by ZEFSAII (Michael W. Deem and Ramdas Pophale) SiO2 
 PCOD9267423
Probable space group: C 2/C
;
_chemical_formula_sum "Si O2"
_cell_formula_units_Z 56
_cell_length_a 10.440771
_cell_length_b 9.550736
_cell_length_c 25.185509
_cell_angle_alpha 90.000000
_cell_angle_beta 95.886231
_cell_angle_gamma 90.000000
_cell_volume 2498.183087
_symmetry_space_group_name_H-M "C 2/C"
_symmetry_group_IT_number 15
_symmetry_cell_setting 'monoclinic'
loop_
_space_group_symop_operation_xyz
x,y,z
-x,y,1/2-z
-x,-y,-z
x,-y,1/2+z
1/2+x,1/2+y,z
1/2-x,1/2+y,1/2-z
1/2-x,1/2-y,-z
1/2+x,1/2-y,1/2+z
loop_
_atom_site_type_symbol
_atom_site_label
_atom_site_fract_x
_atom_site_fract_y
_atom_site_fract_z
Si Si1 0.137380 0.112132 0.047634
Si Si2 0.647595 0.656421 0.925539
Si Si3 0.004763 0.347283 0.842917
Si Si4 0.595562 0.616259 0.378414
Si Si5 0.822771 0.261523 0.750988
Si Si6 0.193603 0.572710 0.883815
Si Si7 0.127237 0.038916 0.204735
O O1 0.233899 0.236532 0.069439
O O2 0.012013 0.119495 0.078948
O O3 0.225919 0.974524 0.061051
O O4 0.108027 0.131495 0.984582
O O5 0.531712 0.726821 0.887214
O O6 0.685309 0.512484 0.898835
O O7 0.095739 0.312188 0.796251
O O8 0.058364 0.489260 0.870982
O O9 0.869260 0.337199 0.807366
O O10 0.663777 0.764835 0.378100
O O11 0.513702 0.571879 0.323284
O O12 0.682152 0.318490 0.731941
O O13 0.850568 0.097523 0.758163
O O14 0.285202 0.510259 0.841657
#
# Coordination Sequence:
#
# PCOD9267423 Si02
#       7
#     8   8   8   8   8   8   8
#     4   9  21  40  61  86 122 154 190 239 297 342
#     4  10  19  39  63  86 117 155 196 240 286 354
#     4   9  19  38  58  76 116 154 189 240 293 342
#     4  11  21  39  62  88 119 154 194 241 292 344
#     4  10  20  37  57  80 114 152 194 238 297 338
#     4   9  21  39  57  87 117 150 193 241 290 352
#     4  10  22  38  57  86 115 153 194 244 291 344
#
# _framework density 22.416291999999999
#
# number of rings (size 3 to 8) (size 9 to 14) (size 15 to 20)
#    0.000    2.286    1.429    1.286    2.000    1.714 
#    2.571    6.429    0.000    0.000    0.000    0.000 
#    0.000    0.000    0.000    0.000    0.000    0.000 
#
# Total GULP energy -156404.976939 kJ/mol
# GULP energy per Si atom -5585.892034 kJ/mol
# Density = 2.236527 g / cm^3
# Si number density = 22.416292 Si / 1000 Ang^3
#
#
#
# Elastic Constant Matrix: (Units=GPa)
#
#
# Indices 1 2 3 4 5 6 
#
# 1 42.7251 16.8927 24.0882 0.0000 3.8012 0.0000
# 2 16.8927 139.8036 37.4907 0.0000 11.3308 0.0000
# 3 24.0882 37.4907 111.3441 0.0000 24.8975 0.0000
# 4 0.0000 0.0000 0.0000 29.6180 0.0000 5.8097
# 5 3.8012 11.3308 24.8975 0.0000 18.4077 0.0000
# 6 0.0000 0.0000 0.0000 5.8097 0.0000 24.3784
#
#
#
# Elastic Compliance Matrix: (Units=1/GPa)
#
#
# Indices 1 2 3 4 5 6 
#
# 1 0.027280 -0.001972 -0.006092 0.000000 0.003820 0.000000
# 2 -0.001972 0.008048 -0.001815 0.000000 -0.002091 0.000000
# 3 -0.006092 -0.001815 0.014879 0.000000 -0.017750 0.000000
# 4 0.000000 0.000000 0.000000 0.035419 0.000000 -0.008441
# 5 0.003820 -0.002091 -0.017750 0.000000 0.078830 0.000000
# 6 0.000000 0.000000 0.000000 -0.008441 0.000000 0.043032
#
#
# Mechanical properties :
#
#
# Convention : Reuss Voigt Hill
#
# Bulk Modulus (GPa) = 32.84344 50.09064 41.46704
# Shear Modulus (GPa) = 21.06183 28.84090 24.95137
#
# Velocity S-wave (km/s) = 3.06858 3.59082 3.33992
# Velocity P-wave (km/s) = 5.21903 6.29175 5.78033
#
# Compressibility (1/GPa) = 0.03044748
#
# Stress axis : x y z
#
# Youngs Moduli (GPa) = 36.65699 124.26205 67.20719
#
# Poissons Ratio (x) = 0.24508 0.40942
# Poissons Ratio (y) = 0.07230 0.12201
# Poissons Ratio (z) = 0.22331 0.22560
#
# Static dielectric constant tensor:
#      x y z
#    x 1.879350 0.000000 0.006530 
#    y 0.000000 1.818700 0.000000 
#    z 0.006530 0.000000 1.873300 
# 
# From -- ./inp_files/291600.got.cif
#   From: 2010.05.17/outbox.cif.g08.bks.cpg/sg15_146_cif.got.tgz:291600.got - 2010.06.03 18:47:42.
