data_PCOD9267888
_publ_section_title
;
Structure prediction by ZEFSAII (Michael W. Deem and Ramdas Pophale) SiO2 
 PCOD9267888
Probable space group: C 2/C
;
_chemical_formula_sum "Si O2"
_cell_formula_units_Z 56
_cell_length_a 11.323539
_cell_length_b 15.567772
_cell_length_c 16.846987
_cell_angle_alpha 90.000000
_cell_angle_beta 119.382956
_cell_angle_gamma 90.000000
_cell_volume 2587.786275
_symmetry_space_group_name_H-M "C 2/C"
_symmetry_group_IT_number 15
_symmetry_cell_setting 'monoclinic'
loop_
_space_group_symop_operation_xyz
x,y,z
-x,y,1/2-z
-x,-y,-z
x,-y,1/2+z
1/2+x,1/2+y,z
1/2-x,1/2+y,1/2-z
1/2-x,1/2-y,-z
1/2+x,1/2-y,1/2+z
loop_
_atom_site_type_symbol
_atom_site_label
_atom_site_fract_x
_atom_site_fract_y
_atom_site_fract_z
Si Si1 0.490789 0.045640 0.622895
Si Si2 0.655122 0.071549 0.089038
Si Si3 0.595101 0.461858 0.355618
Si Si4 0.375246 0.691945 0.506926
Si Si5 0.292803 0.914755 0.192944
Si Si6 0.320001 0.250591 0.434306
Si Si7 0.422212 0.550520 0.403703
O O1 0.426033 0.079230 0.520674
O O2 0.608859 0.102590 0.701139
O O3 0.378286 0.040023 0.652000
O O4 0.551493 0.952866 0.623506
O O5 0.723368 0.162482 0.122111
O O6 0.752866 0.989693 0.114930
O O7 0.500000 0.441979 0.250000
O O8 0.596344 0.379751 0.414825
O O9 0.541416 0.551461 0.378618
O O10 0.250000 0.750000 0.500000
O O11 0.515288 0.740345 0.525584
O O12 0.352023 0.632336 0.420295
O O13 0.235336 0.831004 0.132741
O O14 0.179177 0.984715 0.172087
O O15 0.250000 0.250000 0.500000
O O16 0.500000 0.500000 0.500000
#
# Coordination Sequence:
#
# PCOD9267888 Si02
#       7
#     8   8   8   8   8   8   8
#     4  10  23  40  65  96 133 186 217 287 343 423
#     4  11  24  41  69  99 138 176 236 276 360 420
#     4  11  23  45  72 101 135 189 235 289 352 431
#     4  11  26  43  72 102 142 183 235 291 357 419
#     4  11  21  42  68  96 136 179 235 279 351 411
#     4  12  24  43  69 107 136 180 235 300 351 418
#     4  10  19  40  69  92 131 184 230 272 351 423
#
# _framework density 21.640118000000001
#
# number of rings (size 3 to 8) (size 9 to 14) (size 15 to 20)
#    0.000    1.143    4.286    3.429    6.000    0.000 
#    2.571    4.286    0.000    0.000    0.000    0.000 
#    0.000    0.000    0.000    0.000    0.000    0.000 
#
# Total GULP energy -155928.919768 kJ/mol
# GULP energy per Si atom -5568.889992 kJ/mol
# Density = 2.159086 g / cm^3
# Si number density = 21.640118 Si / 1000 Ang^3
#
#
#
# Elastic Constant Matrix: (Units=GPa)
#
#
# Indices 1 2 3 4 5 6 
#
# 1 134.3781 50.0897 28.1153 0.0000 -14.2196 0.0000
# 2 50.0897 84.5386 16.8848 0.0000 -18.1222 0.0000
# 3 28.1153 16.8848 84.6232 0.0000 2.8875 0.0000
# 4 0.0000 0.0000 0.0000 13.6827 0.0000 -3.3219
# 5 -14.2196 -18.1222 2.8875 0.0000 26.8305 0.0000
# 6 0.0000 0.0000 0.0000 -3.3219 0.0000 39.6986
#
#
#
# Elastic Compliance Matrix: (Units=1/GPa)
#
#
# Indices 1 2 3 4 5 6 
#
# 1 0.010042 -0.004994 -0.002415 0.000000 0.002209 0.000000
# 2 -0.004994 0.017170 -0.002080 0.000000 0.009174 0.000000
# 3 -0.002415 -0.002080 0.013175 0.000000 -0.004103 0.000000
# 4 0.000000 0.000000 0.000000 0.074601 0.000000 0.006242
# 5 0.002209 0.009174 -0.004103 0.000000 0.045080 0.000000
# 6 0.000000 0.000000 0.000000 0.006242 0.000000 0.025712
#
#
# Mechanical properties :
#
#
# Convention : Reuss Voigt Hill
#
# Bulk Modulus (GPa) = 46.71068 54.85772 50.78420
# Shear Modulus (GPa) = 23.59666 29.93901 26.76784
#
# Velocity S-wave (km/s) = 3.30572 3.72357 3.52085
# Velocity P-wave (km/s) = 6.01685 6.62508 6.32828
#
# Compressibility (1/GPa) = 0.02140838
#
# Stress axis : x y z
#
# Youngs Moduli (GPa) = 99.57761 58.24095 75.90408
#
# Poissons Ratio (x) = 0.29087 0.18334
# Poissons Ratio (y) = 0.49732 0.15786
# Poissons Ratio (z) = 0.24052 0.12112
#
# Static dielectric constant tensor:
#      x y z
#    x 1.921500 0.000000 0.000720 
#    y 0.000000 0.814510 0.000000 
#    z 0.000720 0.000000 1.820820 
# 
# From -- ./inp_files/197932.got.cif
#   From: 2010.05.17/outbox.cif.g08.bks.cpg/sg15_99_cif.got.tgz:197932.got - 2010.06.03 18:47:42.
