data_PCOD9267229
_publ_section_title
;
Structure prediction by ZEFSAII (Michael W. Deem and Ramdas Pophale) SiO2 
 PCOD9267229
Probable space group: C 2/C
;
_chemical_formula_sum "Si O2"
_cell_formula_units_Z 36
_cell_length_a 15.703719
_cell_length_b 9.750946
_cell_length_c 11.516830
_cell_angle_alpha 90.000000
_cell_angle_beta 58.907157
_cell_angle_gamma 90.000000
_cell_volume 1510.164279
_symmetry_space_group_name_H-M "C 2/C"
_symmetry_group_IT_number 15
_symmetry_cell_setting 'monoclinic'
loop_
_space_group_symop_operation_xyz
x,y,z
-x,y,1/2-z
-x,-y,-z
x,-y,1/2+z
1/2+x,1/2+y,z
1/2-x,1/2+y,1/2-z
1/2-x,1/2-y,-z
1/2+x,1/2-y,1/2+z
loop_
_atom_site_type_symbol
_atom_site_label
_atom_site_fract_x
_atom_site_fract_y
_atom_site_fract_z
Si Si1 0.804012 0.473890 0.280498
Si Si2 0.013222 0.849305 0.112761
Si Si3 0.500000 0.137884 0.750000
Si Si4 0.285815 0.757274 0.106687
Si Si5 0.113284 0.860723 0.514659
O O1 0.770482 0.630722 0.294162
O O2 0.780539 0.399641 0.175918
O O3 0.729854 0.399841 0.426788
O O4 0.918081 0.450569 0.237482
O O5 0.000000 0.789847 0.250000
O O6 0.055316 0.003134 0.097743
O O7 0.097729 0.775292 0.979799
O O8 0.918394 0.847364 0.097939
O O9 0.568266 0.235791 0.619669
O O10 0.250000 0.750000 0.000000
#
# Coordination Sequence:
#
# PCOD9267229 Si02
#       5
#     8   8   4   8   8
#     4  11  26  46  73 106 149 194 244 303 369 443
#     4  10  19  38  68  99 132 182 248 299 342 429
#     4  12  22  44  66 110 150 186 244 312 380 426
#     4  11  25  48  74 107 146 195 247 305 369 440
#     4  10  21  37  67  98 136 191 242 292 351 435
#
# _framework density 23.838466
#
# number of rings (size 3 to 8) (size 9 to 14) (size 15 to 20)
#    0.000    1.333    3.333    2.000    0.000    5.333 
#    6.000    2.222    0.000    0.000    0.000    0.000 
#    0.000    0.000    0.000    0.000    0.000    0.000 
#
# Total GULP energy -100683.185675 kJ/mol
# GULP energy per Si atom -5593.510315 kJ/mol
# Density = 2.378421 g / cm^3
# Si number density = 23.838466 Si / 1000 Ang^3
#
#
#
# Elastic Constant Matrix: (Units=GPa)
#
#
# Indices 1 2 3 4 5 6 
#
# 1 119.3425 14.7793 19.7885 0.0000 -18.4072 0.0000
# 2 14.7793 89.1776 39.2241 0.0000 7.1190 0.0000
# 3 19.7885 39.2241 67.3978 0.0000 5.9437 0.0000
# 4 0.0000 0.0000 0.0000 23.8501 0.0000 14.3609
# 5 -18.4072 7.1190 5.9437 0.0000 38.2001 0.0000
# 6 0.0000 0.0000 0.0000 14.3609 0.0000 -33.2382
#
#
#
# Elastic Compliance Matrix: (Units=1/GPa)
#
#
# Indices 1 2 3 4 5 6 
#
# 1 0.009771 -0.000773 -0.002887 0.000000 0.005302 0.000000
# 2 -0.000773 0.015214 -0.008460 0.000000 -0.001891 0.000000
# 3 -0.002887 -0.008460 0.020879 0.000000 -0.003063 0.000000
# 4 0.000000 0.000000 0.000000 0.033272 0.000000 0.014376
# 5 0.005302 -0.001891 -0.003063 0.000000 0.029562 0.000000
# 6 0.000000 0.000000 0.000000 0.014376 0.000000 -0.023875
#
#
# Mechanical properties :
#
#
# Convention : Reuss Voigt Hill
#
# Bulk Modulus (GPa) = 46.24509 47.05574 46.65042
# Shear Modulus (GPa) = 43.00284 19.23745 31.12015
#
# Velocity S-wave (km/s) = 4.25187 2.84384 3.61703
# Velocity P-wave (km/s) = 6.59894 5.52861 6.08735
#
# Compressibility (1/GPa) = 0.02162392
#
# Stress axis : x y z
#
# Youngs Moduli (GPa) = 102.34034 65.72924 47.89565
#
# Poissons Ratio (x) = 0.05081 0.13826
# Poissons Ratio (y) = 0.07910 0.40522
# Poissons Ratio (z) = 0.29542 0.55610
#
# Static dielectric constant tensor:
#      x y z
#    x 2.186700 0.000000 -0.081740 
#    y 0.000000 1.879570 0.000000 
#    z -0.081740 0.000000 1.954550 
# 
# From -- ./inp_files/94455.got.cif
#   From: 2010.05.17/outbox.cif.g08.bks.cpg/sg15_48_cif.got.tgz:94455.got - 2010.06.03 18:47:42.
