data_PCOD9267962
_publ_section_title
;
Structure prediction by ZEFSAII (Michael W. Deem and Ramdas Pophale) SiO2 
 PCOD9267962
Probable space group: C 2/C
;
_chemical_formula_sum "Si O2"
_cell_formula_units_Z 28
_cell_length_a 6.860591
_cell_length_b 14.215553
_cell_length_c 12.118865
_cell_angle_alpha 90.000000
_cell_angle_beta 100.568391
_cell_angle_gamma 90.000000
_cell_volume 1161.868452
_symmetry_space_group_name_H-M "C 2/C"
_symmetry_group_IT_number 15
_symmetry_cell_setting 'monoclinic'
loop_
_space_group_symop_operation_xyz
x,y,z
-x,y,1/2-z
-x,-y,-z
x,-y,1/2+z
1/2+x,1/2+y,z
1/2-x,1/2+y,1/2-z
1/2-x,1/2-y,-z
1/2+x,1/2-y,1/2+z
loop_
_atom_site_type_symbol
_atom_site_label
_atom_site_fract_x
_atom_site_fract_y
_atom_site_fract_z
Si Si1 0.500000 0.148300 0.250000
Si Si2 0.209690 0.663672 0.918740
Si Si3 0.236738 0.177211 0.828965
Si Si4 0.205752 0.519535 0.085556
O O1 0.361615 0.219630 0.161407
O O2 0.637567 0.081887 0.185798
O O3 0.292929 0.668070 0.805301
O O4 0.971944 0.671875 0.876425
O O5 0.250000 0.750000 0.000000
O O6 0.304704 0.581017 0.001110
O O7 0.181702 0.075967 0.874245
O O8 0.000000 0.500000 0.000000
#
# Coordination Sequence:
#
# PCOD9267962 Si02
#       4
#     4   8   8   8
#     4  12  22  42  66  94 130 162 216 272 304 378
#     4  10  19  41  63  86 128 168 198 260 326 366
#     4  10  23  40  65  94 123 165 217 254 320 383
#     4  10  21  39  64  88 126 168 206 262 316 370
#
# _framework density 24.099112000000002
#
# number of rings (size 3 to 8) (size 9 to 14) (size 15 to 20)
#    0.000    1.714    2.857    3.429    0.000    4.571 
#    5.143    1.429    0.000    0.000    0.000    0.000 
#    0.000    0.000    0.000    0.000    0.000    0.000 
#
# Total GULP energy -77969.229117 kJ/mol
# GULP energy per Si atom -5569.230651 kJ/mol
# Density = 2.404426 g / cm^3
# Si number density = 24.099112 Si / 1000 Ang^3
#
#
#
# Elastic Constant Matrix: (Units=GPa)
#
#
# Indices 1 2 3 4 5 6 
#
# 1 60.4421 24.7738 13.1702 0.0000 5.0503 0.0000
# 2 24.7738 122.0251 51.8744 0.0000 11.3594 0.0000
# 3 13.1702 51.8744 122.8846 0.0000 -3.7518 0.0000
# 4 0.0000 0.0000 0.0000 70.9411 0.0000 14.2112
# 5 5.0503 11.3594 -3.7518 0.0000 28.7949 0.0000
# 6 0.0000 0.0000 0.0000 14.2112 0.0000 33.6890
#
#
#
# Elastic Compliance Matrix: (Units=1/GPa)
#
#
# Indices 1 2 3 4 5 6 
#
# 1 0.018176 -0.003230 -0.000646 0.000000 -0.001998 0.000000
# 2 -0.003230 0.011180 -0.004509 0.000000 -0.004431 0.000000
# 3 -0.000646 -0.004509 0.010209 0.000000 0.003222 0.000000
# 4 0.000000 0.000000 0.000000 0.015397 0.000000 -0.006495
# 5 -0.001998 -0.004431 0.003222 0.000000 0.037247 0.000000
# 6 0.000000 0.000000 0.000000 -0.006495 0.000000 0.032423
#
#
# Mechanical properties :
#
#
# Convention : Reuss Voigt Hill
#
# Bulk Modulus (GPa) = 43.86608 53.88764 48.87686
# Shear Modulus (GPa) = 33.55733 41.05389 37.30561
#
# Velocity S-wave (km/s) = 3.73563 4.13188 3.93874
# Velocity P-wave (km/s) = 6.07029 6.72106 6.40395
#
# Compressibility (1/GPa) = 0.02279666
#
# Stress axis : x y z
#
# Youngs Moduli (GPa) = 55.01714 89.44586 97.95702
#
# Poissons Ratio (x) = 0.28888 0.06325
# Poissons Ratio (y) = 0.17769 0.44165
# Poissons Ratio (z) = 0.03552 0.40328
#
# Static dielectric constant tensor:
#      x y z
#    x 2.057900 0.000000 -0.000530 
#    y 0.000000 1.451600 0.000000 
#    z -0.000530 0.000000 1.886330 
# 
# From -- ./inp_files/75020.got.cif
#   From: 2010.05.17/outbox.cif.g08.bks.cpg/sg15_38_cif.got.tgz:75020.got - 2010.06.03 18:47:42.
