data_PCOD9267251
_publ_section_title
;
Structure prediction by ZEFSAII (Michael W. Deem and Ramdas Pophale) SiO2 
 PCOD9267251
Probable space group: C 2/C
;
_chemical_formula_sum "Si O2"
_cell_formula_units_Z 60
_cell_length_a 5.617409
_cell_length_b 17.946703
_cell_length_c 30.844729
_cell_angle_alpha 90.000000
_cell_angle_beta 111.758197
_cell_angle_gamma 90.000000
_cell_volume 2888.042371
_symmetry_space_group_name_H-M "C 2/C"
_symmetry_group_IT_number 15
_symmetry_cell_setting 'monoclinic'
loop_
_space_group_symop_operation_xyz
x,y,z
-x,y,1/2-z
-x,-y,-z
x,-y,1/2+z
1/2+x,1/2+y,z
1/2-x,1/2+y,1/2-z
1/2-x,1/2-y,-z
1/2+x,1/2-y,1/2+z
loop_
_atom_site_type_symbol
_atom_site_label
_atom_site_fract_x
_atom_site_fract_y
_atom_site_fract_z
Si Si1 0.497616 0.798736 0.316681
Si Si2 0.892573 0.197148 0.976189
Si Si3 0.690870 0.224440 0.431282
Si Si4 0.757001 0.002733 0.150781
Si Si5 0.939056 0.368698 0.407957
Si Si6 0.149579 0.458252 0.301939
Si Si7 0.891852 0.335945 0.837848
Si Si8 0.000000 0.712508 0.250000
O O1 0.432822 0.830923 0.359883
O O2 0.629892 0.868615 0.301969
O O3 0.701682 0.733000 0.331397
O O4 0.243508 0.765286 0.277161
O O5 0.725179 0.129771 0.946798
O O6 0.933782 0.252191 0.938444
O O7 0.750000 0.250000 0.000000
O O8 0.147381 0.181019 0.021093
O O9 0.799852 0.306816 0.427823
O O10 0.642362 0.180929 0.383834
O O11 0.684886 0.949823 0.105243
O O12 0.528362 0.983568 0.169756
O O13 0.053189 0.981530 0.180266
O O14 0.738112 0.091491 0.150224
O O15 0.000000 0.486356 0.250000
O O16 0.950550 0.335958 0.790280
#
# Coordination Sequence:
#
# PCOD9267251 Si02
#       8
#     8   8   8   8   8   8   8   4
#     4  11  24  40  68  93 131 173 240 282 344 394
#     4   9  19  36  67 104 126 166 220 286 345 409
#     4  10  19  38  70  97 132 170 228 279 345 409
#     4  11  28  41  66  95 139 183 228 274 353 400
#     4  10  20  40  67  98 131 174 226 285 336 411
#     4  11  25  44  65  92 126 181 234 288 328 403
#     4  12  25  43  63  98 138 186 224 287 340 421
#     4  12  26  40  66 102 134 184 234 296 344 408
#
# _framework density 20.775320000000001
#
# number of rings (size 3 to 8) (size 9 to 14) (size 15 to 20)
#    0.000    1.333    2.667    2.400   10.267    1.067 
#    0.000    0.667    0.000    7.200    0.000    0.000 
#    0.000    0.000    0.000    0.000    0.000    0.000 
#
# Total GULP energy -167177.107285 kJ/mol
# GULP energy per Si atom -5572.570243 kJ/mol
# Density = 2.072803 g / cm^3
# Si number density = 20.775320 Si / 1000 Ang^3
#
#
#
# Elastic Constant Matrix: (Units=GPa)
#
#
# Indices 1 2 3 4 5 6 
#
# 1 61.6045 20.9766 21.0953 0.0000 11.3916 0.0000
# 2 20.9766 72.6301 8.5140 0.0000 10.4315 0.0000
# 3 21.0953 8.5140 106.4054 0.0000 9.2841 0.0000
# 4 0.0000 0.0000 0.0000 -3.1848 0.0000 -6.4651
# 5 11.3916 10.4315 9.2841 0.0000 41.1047 0.0000
# 6 0.0000 0.0000 0.0000 -6.4651 0.0000 28.5350
#
#
#
# Elastic Compliance Matrix: (Units=1/GPa)
#
#
# Indices 1 2 3 4 5 6 
#
# 1 0.019604 -0.004785 -0.003199 0.000000 -0.003496 0.000000
# 2 -0.004785 0.015532 -0.000067 0.000000 -0.002600 0.000000
# 3 -0.003199 -0.000067 0.010159 0.000000 -0.001391 0.000000
# 4 0.000000 0.000000 0.000000 -0.215073 0.000000 -0.048728
# 5 -0.003496 -0.002600 -0.001391 0.000000 0.026271 0.000000
# 6 0.000000 0.000000 0.000000 -0.048728 0.000000 0.024005
#
#
# Mechanical properties :
#
#
# Convention : Reuss Voigt Hill
#
# Bulk Modulus (GPa) = 34.25482 37.97911 36.11697
# Shear Modulus (GPa) = -53.37829 25.96124 -13.70852
#
# Velocity S-wave (km/s) = -5.07434 3.53883 -2.57153
# Velocity P-wave (km/s) = 4.21993 5.91763 2.93347
#
# Compressibility (1/GPa) = 0.02919297
#
# Stress axis : x y z
#
# Youngs Moduli (GPa) = 51.01111 64.38462 98.43579
#
# Poissons Ratio (x) = 0.30806 0.31486
# Poissons Ratio (y) = 0.24407 0.00662
# Poissons Ratio (z) = 0.16316 0.00433
#
# Static dielectric constant tensor:
#      x y z
#    x 1.896260 0.000000 0.014910 
#    y 0.000000 1.755450 0.000000 
#    z 0.014910 0.000000 1.804410 
# 
# From -- ./inp_files/305813.got.cif
#   From: 2010.05.17/outbox.cif.g08.bks.cpg/sg15_153_cif.got.tgz:305813.got - 2010.06.03 18:47:42.
