data_PCOD9267440
_publ_section_title
;
Structure prediction by ZEFSAII (Michael W. Deem and Ramdas Pophale) SiO2 
 PCOD9267440
Probable space group: C 2/C
;
_chemical_formula_sum "Si O2"
_cell_formula_units_Z 56
_cell_length_a 23.050698
_cell_length_b 9.173770
_cell_length_c 15.116562
_cell_angle_alpha 90.000000
_cell_angle_beta 63.308134
_cell_angle_gamma 90.000000
_cell_volume 2855.932910
_symmetry_space_group_name_H-M "C 2/C"
_symmetry_group_IT_number 15
_symmetry_cell_setting 'monoclinic'
loop_
_space_group_symop_operation_xyz
x,y,z
-x,y,1/2-z
-x,-y,-z
x,-y,1/2+z
1/2+x,1/2+y,z
1/2-x,1/2+y,1/2-z
1/2-x,1/2-y,-z
1/2+x,1/2-y,1/2+z
loop_
_atom_site_type_symbol
_atom_site_label
_atom_site_fract_x
_atom_site_fract_y
_atom_site_fract_z
Si Si1 0.827776 0.775546 0.841187
Si Si2 0.963247 0.705610 0.536965
Si Si3 0.958342 0.225662 0.692002
Si Si4 0.577315 0.979824 0.205691
Si Si5 0.404589 0.933705 0.502944
Si Si6 0.316187 0.334377 0.051612
Si Si7 0.876415 0.029595 0.159824
O O1 0.886460 0.662559 0.783975
O O2 0.760817 0.686256 0.889494
O O3 0.828870 0.892887 0.762339
O O4 0.835121 0.845588 0.934479
O O5 0.915611 0.566896 0.561841
O O6 0.928612 0.849594 0.594017
O O7 0.991509 0.732684 0.419555
O O8 0.027225 0.655179 0.546008
O O9 0.917451 0.370558 0.743930
O O10 0.000000 0.185089 0.750000
O O11 0.913796 0.097917 0.686027
O O12 0.500000 0.956586 0.250000
O O13 0.606215 0.996994 0.087370
O O14 0.349720 0.816395 0.561015
O O15 0.342235 0.461279 0.097021
#
# Coordination Sequence:
#
# PCOD9267440 Si02
#       7
#     8   8   8   8   8   8   8
#     4  10  25  44  66  91 127 167 220 257 313 384
#     4  11  22  38  61  99 123 164 208 264 317 380
#     4  11  23  38  60  97 133 159 206 268 323 376
#     4  10  19  39  63  91 117 166 207 252 313 375
#     4  10  20  37  65  84 127 163 212 254 309 380
#     4  10  24  46  63  91 127 172 213 267 309 375
#     4  12  26  38  66  93 129 169 205 269 330 372
#
# _framework density 19.608305000000001
#
# number of rings (size 3 to 8) (size 9 to 14) (size 15 to 20)
#    0.000    1.429    4.286    1.286    4.000    4.000 
#    0.000    0.000    0.000    6.000    0.000    0.000 
#    0.000    0.000    0.000    0.000    0.000    0.000 
#
# Total GULP energy -156385.161974 kJ/mol
# GULP energy per Si atom -5585.184356 kJ/mol
# Density = 1.956368 g / cm^3
# Si number density = 19.608305 Si / 1000 Ang^3
#
#
#
# Elastic Constant Matrix: (Units=GPa)
#
#
# Indices 1 2 3 4 5 6 
#
# 1 57.6610 48.2986 22.8381 0.0000 13.1610 0.0000
# 2 48.2986 117.9465 56.9621 0.0000 4.7032 0.0000
# 3 22.8381 56.9621 81.5113 0.0000 20.3061 0.0000
# 4 0.0000 0.0000 0.0000 35.2418 0.0000 10.5916
# 5 13.1610 4.7032 20.3061 0.0000 28.6999 0.0000
# 6 0.0000 0.0000 0.0000 10.5916 0.0000 18.3383
#
#
#
# Elastic Compliance Matrix: (Units=1/GPa)
#
#
# Indices 1 2 3 4 5 6 
#
# 1 0.031151 -0.014809 0.005554 0.000000 -0.015788 0.000000
# 2 -0.014809 0.020493 -0.013386 0.000000 0.012904 0.000000
# 3 0.005554 -0.013386 0.024468 0.000000 -0.017665 0.000000
# 4 0.000000 0.000000 0.000000 0.034335 0.000000 -0.019831
# 5 -0.015788 0.012904 -0.017665 0.000000 0.052467 0.000000
# 6 0.000000 0.000000 0.000000 -0.019831 0.000000 0.065985
#
#
# Mechanical properties :
#
#
# Convention : Reuss Voigt Hill
#
# Bulk Modulus (GPa) = 32.43756 57.03515 44.73636
# Shear Modulus (GPa) = 17.57735 25.05734 21.31734
#
# Velocity S-wave (km/s) = 2.99728 3.57864 3.30079
# Velocity P-wave (km/s) = 5.34387 6.79897 6.11486
#
# Compressibility (1/GPa) = 0.03082845
#
# Stress axis : x y z
#
# Youngs Moduli (GPa) = 32.10194 48.79727 40.87048
#
# Poissons Ratio (x) = 0.72263 -0.22699
# Poissons Ratio (y) = 0.47539 0.54711
# Poissons Ratio (z) = -0.17829 0.65322
#
# Static dielectric constant tensor:
#      x y z
#    x 1.687260 0.000000 0.035350 
#    y 0.000000 1.680770 0.000000 
#    z 0.035350 0.000000 1.727820 
# 
# From -- ./inp_files/172260.got.cif
#   From: 2010.05.17/outbox.cif.g08.bks.cpg/sg15_87_cif.got.tgz:172260.got - 2010.06.03 18:47:42.
