data_PCOD9267794
_publ_section_title
;
Structure prediction by ZEFSAII (Michael W. Deem and Ramdas Pophale) SiO2 
 PCOD9267794
Probable space group: C 2/C
;
_chemical_formula_sum "Si O2"
_cell_formula_units_Z 52
_cell_length_a 26.168163
_cell_length_b 6.790998
_cell_length_c 16.131963
_cell_angle_alpha 90.000000
_cell_angle_beta 119.136686
_cell_angle_gamma 90.000000
_cell_volume 2504.017729
_symmetry_space_group_name_H-M "C 2/C"
_symmetry_group_IT_number 15
_symmetry_cell_setting 'monoclinic'
loop_
_space_group_symop_operation_xyz
x,y,z
-x,y,1/2-z
-x,-y,-z
x,-y,1/2+z
1/2+x,1/2+y,z
1/2-x,1/2+y,1/2-z
1/2-x,1/2-y,-z
1/2+x,1/2-y,1/2+z
loop_
_atom_site_type_symbol
_atom_site_label
_atom_site_fract_x
_atom_site_fract_y
_atom_site_fract_z
Si Si1 0.178496 0.319980 0.530838
Si Si2 0.394857 0.425464 0.271204
Si Si3 0.067835 0.933310 0.954739
Si Si4 0.315277 0.770731 0.149713
Si Si5 0.958798 0.762779 0.943032
Si Si6 0.365515 0.966499 0.836934
Si Si7 0.500000 0.554971 0.750000
O O1 0.133739 0.138045 0.508199
O O2 0.245933 0.263618 0.594423
O O3 0.169447 0.373788 0.426544
O O4 0.162187 0.466926 0.592851
O O5 0.349056 0.560679 0.184412
O O6 0.426364 0.578937 0.357742
O O7 0.365507 0.252220 0.299700
O O8 0.448255 0.336989 0.258685
O O9 0.026876 0.794937 0.979392
O O10 0.037635 0.921349 0.841903
O O11 0.058023 0.154907 0.979942
O O12 0.332995 0.898361 0.243546
O O13 0.930422 0.557233 0.897925
#
# Coordination Sequence:
#
# PCOD9267794 Si02
#       7
#     8   8   8   8   8   8   4
#     4  11  23  44  67  93 132 177 217 272 328 384
#     4  10  20  42  62  94 127 169 213 265 328 387
#     4  10  19  40  65  89 130 175 207 267 334 381
#     4  10  25  45  63  97 135 168 221 271 322 395
#     4   9  21  39  62  93 129 162 216 267 321 394
#     4  11  24  41  69  99 128 171 220 271 327 391
#     4  10  20  36  66  88 126 174 206 270 326 386
#
# _framework density 20.766625000000001
#
# number of rings (size 3 to 8) (size 9 to 14) (size 15 to 20)
#    0.000    1.846    3.077    0.000    2.154    1.846 
#    2.769    1.538    0.000    0.000    0.000    0.000 
#    0.000    0.000    0.000    0.000    0.000    0.000 
#
# Total GULP energy -144948.575461 kJ/mol
# GULP energy per Si atom -5574.945210 kJ/mol
# Density = 2.071936 g / cm^3
# Si number density = 20.766625 Si / 1000 Ang^3
#
#
#
# Elastic Constant Matrix: (Units=GPa)
#
#
# Indices 1 2 3 4 5 6 
#
# 1 105.1162 11.6447 38.2727 0.0000 2.0877 0.0000
# 2 11.6447 54.2710 34.6832 0.0000 -3.1421 0.0000
# 3 38.2727 34.6832 116.5518 0.0000 -3.8641 0.0000
# 4 0.0000 0.0000 0.0000 26.5351 0.0000 -1.1934
# 5 2.0877 -3.1421 -3.8641 0.0000 41.6925 0.0000
# 6 0.0000 0.0000 0.0000 -1.1934 0.0000 3.3378
#
#
#
# Elastic Compliance Matrix: (Units=1/GPa)
#
#
# Indices 1 2 3 4 5 6 
#
# 1 0.010837 -0.000103 -0.003557 0.000000 -0.000880 0.000000
# 2 -0.000103 0.022804 -0.006716 0.000000 0.001101 0.000000
# 3 -0.003557 -0.006716 0.011772 0.000000 0.000763 0.000000
# 4 0.000000 0.000000 0.000000 0.038302 0.000000 0.013694
# 5 -0.000880 0.001101 0.000763 0.000000 0.024183 0.000000
# 6 0.000000 0.000000 0.000000 0.013694 0.000000 0.304493
#
#
# Mechanical properties :
#
#
# Convention : Reuss Voigt Hill
#
# Bulk Modulus (GPa) = 40.54951 49.46002 45.00476
# Shear Modulus (GPa) = 11.32855 27.06896 19.19875
#
# Velocity S-wave (km/s) = 2.33816 3.61430 3.04386
# Velocity P-wave (km/s) = 5.18247 6.42544 5.83714
#
# Compressibility (1/GPa) = 0.02466121
#
# Stress axis : x y z
#
# Youngs Moduli (GPa) = 92.27341 43.85265 84.94965
#
# Poissons Ratio (x) = 0.00451 0.30219
# Poissons Ratio (y) = 0.00950 0.57048
# Poissons Ratio (z) = 0.32824 0.29449
#
# Static dielectric constant tensor:
#      x y z
#    x 1.778400 0.000000 -0.066900 
#    y 0.000000 1.720960 0.000000 
#    z -0.066900 0.000000 1.799670 
# 
# From -- ./inp_files/221345.got.cif
#   From: 2010.05.17/outbox.cif.g08.bks.cpg/sg15_111_cif.got.tgz:221345.got - 2010.06.03 18:47:42.
