data_PCOD9267391
_publ_section_title
;
Structure prediction by ZEFSAII (Michael W. Deem and Ramdas Pophale) SiO2 
 PCOD9267391
Probable space group: C 2/C
;
_chemical_formula_sum "Si O2"
_cell_formula_units_Z 64
_cell_length_a 26.044156
_cell_length_b 19.903992
_cell_length_c 19.748238
_cell_angle_alpha 90.000000
_cell_angle_beta 18.982682
_cell_angle_gamma 90.000000
_cell_volume 3329.962394
_symmetry_space_group_name_H-M "C 2/C"
_symmetry_group_IT_number 15
_symmetry_cell_setting 'monoclinic'
loop_
_space_group_symop_operation_xyz
x,y,z
-x,y,1/2-z
-x,-y,-z
x,-y,1/2+z
1/2+x,1/2+y,z
1/2-x,1/2+y,1/2-z
1/2-x,1/2-y,-z
1/2+x,1/2-y,1/2+z
loop_
_atom_site_type_symbol
_atom_site_label
_atom_site_fract_x
_atom_site_fract_y
_atom_site_fract_z
Si Si1 0.456767 0.055346 0.224780
Si Si2 0.315274 0.774575 0.346047
Si Si3 0.098034 0.593539 0.693592
Si Si4 0.110167 0.184492 0.977954
Si Si5 0.956757 0.055356 0.224793
Si Si6 0.610208 0.184487 0.977913
Si Si7 0.098037 0.906474 0.193585
Si Si8 0.684668 0.274585 0.154013
O O1 0.500000 0.062300 0.250000
O O2 0.274105 0.076542 0.447760
O O3 0.470413 0.976374 0.192055
O O4 0.561866 0.107557 0.052714
O O5 0.250000 0.750000 0.500000
O O6 0.389010 0.847918 0.268083
O O7 0.176328 0.782995 0.465064
O O8 0.453135 0.724187 0.152032
O O9 0.274095 0.576548 0.447772
O O10 0.000000 0.614988 0.750000
O O11 0.249986 0.189108 0.750016
O O12 0.061850 0.107562 0.052731
O O13 0.000000 0.062316 0.250000
O O14 0.970410 0.976386 0.192063
O O15 0.676391 0.216994 0.964992
O O16 0.453189 0.224195 0.151981
O O17 0.110956 0.847928 0.231951
O O18 0.000000 0.885026 0.250000
O O19 0.750000 0.250000 0.000000
#
# Coordination Sequence:
#
# PCOD9267391 Si02
#       8
#     8   8   8   8   8   8   8   8
#     4  10  19  39  62  87 118 158 203 253 296 359
#     4  12  22  41  65  91 115 164 210 250 294 366
#     4  10  20  34  65  93 113 148 215 255 284 344
#     4  12  25  41  59  90 129 160 194 256 320 360
#     4  10  19  39  62  87 118 158 203 253 296 359
#     4  12  25  41  59  90 129 160 194 256 320 360
#     4  10  20  34  65  93 113 148 215 255 284 344
#     4  12  22  41  65  91 115 164 210 250 294 366
#
# _framework density 19.219436000000002
#
# number of rings (size 3 to 8) (size 9 to 14) (size 15 to 20)
#    0.000    1.000    5.000    3.000    0.000    0.000 
#    0.000    2.500    0.000    0.000    0.000    0.000 
#    0.000    0.000    0.000    0.000    0.000    0.000 
#
# Total GULP energy -178821.489643 kJ/mol
# GULP energy per Si atom -5588.171551 kJ/mol
# Density = 1.917569 g / cm^3
# Si number density = 19.219436 Si / 1000 Ang^3
#
#
#
# Elastic Constant Matrix: (Units=GPa)
#
#
# Indices 1 2 3 4 5 6 
#
# 1 46.1074 -6.9851 0.0815 0.0094 -18.7200 -0.0042
# 2 -6.9851 92.3722 15.4057 0.0118 11.9416 -0.0034
# 3 0.0815 15.4057 75.1434 0.0060 6.9818 -0.0124
# 4 0.0094 0.0118 0.0060 34.3873 -0.0054 -9.4763
# 5 -18.7200 11.9416 6.9818 -0.0054 37.5870 0.0054
# 6 -0.0042 -0.0034 -0.0124 -9.4763 0.0054 4.6464
#
#
#
# Elastic Compliance Matrix: (Units=1/GPa)
#
#
# Indices 1 2 3 4 5 6 
#
# 1 0.027337 0.000530 -0.001412 -0.000009 0.013709 -0.000012
# 2 0.000530 0.011608 -0.002099 -0.000005 -0.003034 -0.000004
# 3 -0.001412 -0.002099 0.013984 0.000020 -0.002634 0.000077
# 4 -0.000009 -0.000005 0.000020 0.066398 -0.000016 0.135418
# 5 0.013709 -0.003034 -0.002634 -0.000016 0.034886 -0.000070
# 6 -0.000012 -0.000004 0.000077 0.135418 -0.000070 0.491403
#
#
# Mechanical properties :
#
#
# Convention : Reuss Voigt Hill
#
# Bulk Modulus (GPa) = 21.29049 25.62526 23.45787
# Shear Modulus (GPa) = 7.49363 28.99887 18.24625
#
# Velocity S-wave (km/s) = 1.97673 3.88858 3.08452
# Velocity P-wave (km/s) = 4.03876 5.78994 4.99174
#
# Compressibility (1/GPa) = 0.04696933
#
# Stress axis : x y z
#
# Youngs Moduli (GPa) = 36.58012 86.14680 71.50808
#
# Poissons Ratio (x) = -0.04570 0.10098
# Poissons Ratio (y) = -0.01941 0.15006
# Poissons Ratio (z) = 0.05166 0.18078
#
# Static dielectric constant tensor:
#      x y z
#    x 1.689530 0.000000 -0.043240 
#    y 0.000000 1.713780 0.000000 
#    z -0.043240 0.000000 1.659550 
# 
# From -- ./inp_files/50264.got.cif
#   From: 2010.05.17/outbox.cif.g08.bks.cpg/sg15_26_cif.got.tgz:50264.got - 2010.06.03 18:47:42.
