data_PCOD9267397
_publ_section_title
;
Structure prediction by ZEFSAII (Michael W. Deem and Ramdas Pophale) SiO2 
 PCOD9267397
Probable space group: C 2/C
;
_chemical_formula_sum "Si O2"
_cell_formula_units_Z 52
_cell_length_a 8.952777
_cell_length_b 10.989602
_cell_length_c 23.618424
_cell_angle_alpha 90.000000
_cell_angle_beta 58.023182
_cell_angle_gamma 90.000000
_cell_volume 1971.155472
_symmetry_space_group_name_H-M "C 2/C"
_symmetry_group_IT_number 15
_symmetry_cell_setting 'monoclinic'
loop_
_space_group_symop_operation_xyz
x,y,z
-x,y,1/2-z
-x,-y,-z
x,-y,1/2+z
1/2+x,1/2+y,z
1/2-x,1/2+y,1/2-z
1/2-x,1/2-y,-z
1/2+x,1/2-y,1/2+z
loop_
_atom_site_type_symbol
_atom_site_label
_atom_site_fract_x
_atom_site_fract_y
_atom_site_fract_z
Si Si1 0.004832 0.922337 0.632843
Si Si2 0.500000 0.430436 0.750000
Si Si3 0.430364 0.860718 0.005523
Si Si4 0.693505 0.506469 0.486834
Si Si5 0.245717 0.301377 0.104359
Si Si6 0.277808 0.755121 0.848071
Si Si7 0.316382 0.740760 0.712690
O O1 0.015715 0.000812 0.687760
O O2 0.141726 0.969414 0.560501
O O3 0.086491 0.792816 0.635796
O O4 0.821194 0.885006 0.641789
O O5 0.677816 0.351544 0.727570
O O6 0.587494 0.769376 0.956734
O O7 0.302840 0.873210 0.976209
O O8 0.332964 0.814428 0.081581
O O9 0.500000 0.000000 0.000000
O O10 0.500000 0.500000 0.500000
O O11 0.799123 0.410591 0.428506
O O12 0.290351 0.337017 0.160108
O O13 0.273915 0.696764 0.785178
O O14 0.479464 0.777891 0.824978
#
# Coordination Sequence:
#
# PCOD9267397 Si02
#       7
#     8   4   8   8   8   8   8
#     4  10  19  39  62  89 124 171 213 270 327 399
#     4   8  18  36  64  92 116 170 228 256 340 408
#     4  12  24  40  68  98 135 180 231 282 347 417
#     4  12  25  37  59  99 127 168 217 274 338 398
#     4  11  22  43  65  91 134 181 219 278 335 410
#     4  10  20  38  65  96 129 171 224 277 341 405
#     4   9  20  37  67  93 123 178 221 270 347 408
#
# _framework density 26.380468
#
# number of rings (size 3 to 8) (size 9 to 14) (size 15 to 20)
#    0.000    1.538    3.077    2.308    2.154    1.231 
#    0.000    3.077    0.000    0.000    0.000    0.000 
#    0.000    0.000    0.000    0.000    0.000    0.000 
#
# Total GULP energy -145449.318126 kJ/mol
# GULP energy per Si atom -5594.204543 kJ/mol
# Density = 2.632042 g / cm^3
# Si number density = 26.380468 Si / 1000 Ang^3
#
#
#
# Elastic Constant Matrix: (Units=GPa)
#
#
# Indices 1 2 3 4 5 6 
#
# 1 163.9864 35.5305 53.9693 0.0000 -12.2322 0.0000
# 2 35.5305 87.9202 38.9889 0.0000 9.7569 0.0000
# 3 53.9693 38.9889 194.4760 0.0000 21.4171 0.0000
# 4 0.0000 0.0000 0.0000 36.9201 0.0000 12.4213
# 5 -12.2322 9.7569 21.4171 0.0000 53.0297 0.0000
# 6 0.0000 0.0000 0.0000 12.4213 0.0000 38.8129
#
#
#
# Elastic Compliance Matrix: (Units=1/GPa)
#
#
# Indices 1 2 3 4 5 6 
#
# 1 0.007488 -0.002512 -0.001900 0.000000 0.002957 0.000000
# 2 -0.002512 0.013419 -0.001735 0.000000 -0.002348 0.000000
# 3 -0.001900 -0.001735 0.006311 0.000000 -0.002668 0.000000
# 4 0.000000 0.000000 0.000000 0.030354 0.000000 -0.009714
# 5 0.002957 -0.002348 -0.002668 0.000000 0.021049 0.000000
# 6 0.000000 0.000000 0.000000 -0.009714 0.000000 0.028873
#
#
# Mechanical properties :
#
#
# Convention : Reuss Voigt Hill
#
# Bulk Modulus (GPa) = 67.00189 78.15110 72.57650
# Shear Modulus (GPa) = 40.07642 46.94545 43.51093
#
# Velocity S-wave (km/s) = 3.90188 4.22305 4.06564
# Velocity P-wave (km/s) = 6.76410 7.31217 7.04347
#
# Compressibility (1/GPa) = 0.01492495
#
# Stress axis : x y z
#
# Youngs Moduli (GPa) = 133.54407 74.52267 158.45576
#
# Poissons Ratio (x) = 0.18717 0.30109
# Poissons Ratio (y) = 0.33541 0.27487
# Poissons Ratio (z) = 0.25375 0.12927
#
# Static dielectric constant tensor:
#      x y z
#    x 2.174090 0.000000 0.068980 
#    y 0.000000 2.159240 0.000000 
#    z 0.068980 0.000000 2.229760 
# 
# From -- ./inp_files/264163.got.cif
#   From: 2010.05.17/outbox.cif.g08.bks.cpg/sg15_133_cif.got.tgz:264163.got - 2010.06.03 18:47:42.
