data_PCOD9267804
_publ_section_title
;
Structure prediction by ZEFSAII (Michael W. Deem and Ramdas Pophale) SiO2 
 PCOD9267804
Probable space group: C 2/C
;
_chemical_formula_sum "Si O2"
_cell_formula_units_Z 44
_cell_length_a 13.191111
_cell_length_b 13.842365
_cell_length_c 9.161772
_cell_angle_alpha 90.000000
_cell_angle_beta 69.042734
_cell_angle_gamma 90.000000
_cell_volume 1562.237617
_symmetry_space_group_name_H-M "C 2/C"
_symmetry_group_IT_number 15
_symmetry_cell_setting 'monoclinic'
loop_
_space_group_symop_operation_xyz
x,y,z
-x,y,1/2-z
-x,-y,-z
x,-y,1/2+z
1/2+x,1/2+y,z
1/2-x,1/2+y,1/2-z
1/2-x,1/2-y,-z
1/2+x,1/2-y,1/2+z
loop_
_atom_site_type_symbol
_atom_site_label
_atom_site_fract_x
_atom_site_fract_y
_atom_site_fract_z
Si Si1 0.000000 0.043204 0.250000
Si Si2 0.323294 0.903106 0.230302
Si Si3 0.000000 0.547877 0.250000
Si Si4 0.274345 0.484496 0.964983
Si Si5 0.137287 0.676975 0.362710
Si Si6 0.250000 0.250000 0.500000
Si Si7 0.551042 0.282257 0.919160
O O1 0.103009 0.989619 0.134940
O O2 0.051319 0.116404 0.340565
O O3 0.219855 0.937825 0.375416
O O4 0.388998 0.803979 0.203556
O O5 0.399996 0.976587 0.282476
O O6 0.293165 0.923084 0.073988
O O7 0.029673 0.615606 0.369504
O O8 0.215737 0.396219 0.907850
O O9 0.202906 0.713728 0.189501
O O10 0.075552 0.756628 0.488213
O O11 0.373145 0.283307 0.479678
#
# Coordination Sequence:
#
# PCOD9267804 Si02
#       7
#     4   8   4   8   8   4   8
#     4  12  27  44  68 105 144 186 240 302 361 428
#     4  11  25  44  73 103 140 185 241 294 365 421
#     4  10  19  40  66 101 124 174 226 294 335 416
#     4  11  26  45  70 103 147 189 238 301 360 438
#     4  11  22  42  68 100 142 179 239 289 358 422
#     4  12  24  42  66 106 142 190 224 306 352 436
#     4  12  25  43  72 103 141 187 242 294 358 423
#
# _framework density 28.164729000000001
#
# number of rings (size 3 to 8) (size 9 to 14) (size 15 to 20)
#    0.000    0.727    3.636    3.818    5.091    5.091 
#    0.000    0.000    0.000    0.000    0.000    0.000 
#    0.000    0.000    0.000    0.000    0.000    0.000 
#
# Total GULP energy -122491.531939 kJ/mol
# GULP energy per Si atom -5567.796906 kJ/mol
# Density = 2.810063 g / cm^3
# Si number density = 28.164729 Si / 1000 Ang^3
#
#
#
# Elastic Constant Matrix: (Units=GPa)
#
#
# Indices 1 2 3 4 5 6 
#
# 1 119.2398 25.9812 26.6524 0.0000 -16.7818 0.0000
# 2 25.9812 89.3227 31.9973 0.0000 -13.6416 0.0000
# 3 26.6524 31.9973 120.0923 0.0000 -5.4555 0.0000
# 4 0.0000 0.0000 0.0000 50.5581 0.0000 12.9329
# 5 -16.7818 -13.6416 -5.4555 0.0000 60.1463 0.0000
# 6 0.0000 0.0000 0.0000 12.9329 0.0000 20.1981
#
#
#
# Elastic Compliance Matrix: (Units=1/GPa)
#
#
# Indices 1 2 3 4 5 6 
#
# 1 0.009423 -0.001890 -0.001494 0.000000 0.002065 0.000000
# 2 -0.001890 0.013148 -0.002984 0.000000 0.002184 0.000000
# 3 -0.001494 -0.002984 0.009443 0.000000 -0.000237 0.000000
# 4 0.000000 0.000000 0.000000 0.023653 0.000000 -0.015145
# 5 0.002065 0.002184 -0.000237 0.000000 0.017676 0.000000
# 6 0.000000 0.000000 0.000000 -0.015145 0.000000 0.059207
#
#
# Mechanical properties :
#
#
# Convention : Reuss Voigt Hill
#
# Bulk Modulus (GPa) = 51.87662 55.32407 53.60035
# Shear Modulus (GPa) = 32.95705 42.44877 37.70291
#
# Velocity S-wave (km/s) = 3.42446 3.88643 3.66274
# Velocity P-wave (km/s) = 5.83908 6.31069 6.07946
#
# Compressibility (1/GPa) = 0.01927651
#
# Stress axis : x y z
#
# Youngs Moduli (GPa) = 106.12497 76.05842 105.90058
#
# Poissons Ratio (x) = 0.14378 0.15819
# Poissons Ratio (y) = 0.20061 0.31604
# Poissons Ratio (z) = 0.15853 0.22698
#
# Static dielectric constant tensor:
#      x y z
#    x 2.174460 0.000000 0.041120 
#    y 0.000000 2.260890 0.000000 
#    z 0.041120 0.000000 1.362470 
# 
# From -- ./inp_files/39117.got.cif
#   From: 2010.05.17/outbox.cif.g08.bks.cpg/sg15_20_cif.got.tgz:39117.got - 2010.06.03 18:47:42.
