data_PCOD9267317
_publ_section_title
;
Structure prediction by ZEFSAII (Michael W. Deem and Ramdas Pophale) SiO2 
 PCOD9267317
Probable space group: C 2/C
;
_chemical_formula_sum "Si O2"
_cell_formula_units_Z 56
_cell_length_a 15.149330
_cell_length_b 7.469145
_cell_length_c 23.570987
_cell_angle_alpha 90.000000
_cell_angle_beta 119.065063
_cell_angle_gamma 90.000000
_cell_volume 2331.243345
_symmetry_space_group_name_H-M "C 2/C"
_symmetry_group_IT_number 15
_symmetry_cell_setting 'monoclinic'
loop_
_space_group_symop_operation_xyz
x,y,z
-x,y,1/2-z
-x,-y,-z
x,-y,1/2+z
1/2+x,1/2+y,z
1/2-x,1/2+y,1/2-z
1/2-x,1/2-y,-z
1/2+x,1/2-y,1/2+z
loop_
_atom_site_type_symbol
_atom_site_label
_atom_site_fract_x
_atom_site_fract_y
_atom_site_fract_z
Si Si1 0.802459 0.014247 0.945201
Si Si2 0.588379 0.440487 0.904585
Si Si3 0.367328 0.557795 0.345934
Si Si4 0.000000 0.500000 0.500000
Si Si5 0.428420 0.995395 0.106765
Si Si6 0.221515 0.572833 0.105608
Si Si7 0.000000 0.548783 0.750000
Si Si8 0.198679 0.270418 0.271941
O O1 0.689208 0.949119 0.922625
O O2 0.792668 0.224553 0.924625
O O3 0.857555 0.920742 0.909892
O O4 0.872122 0.008413 0.021386
O O5 0.476290 0.512345 0.861392
O O6 0.574875 0.223833 0.898324
O O7 0.675786 0.500410 0.889689
O O8 0.280524 0.422698 0.301535
O O9 0.340729 0.732671 0.302653
O O10 0.026166 0.551600 0.439611
O O11 0.119605 0.519611 0.554457
O O12 0.485642 0.045411 0.183823
O O13 0.248130 0.605101 0.179388
O O14 0.100159 0.669325 0.776159
#
# Coordination Sequence:
#
# PCOD9267317 Si02
#       8
#     8   8   8   4   8   8   4   8
#     4  10  19  39  59  93 125 166 217 270 317 382
#     4  11  18  38  64  92 121 167 221 273 312 389
#     4  11  23  37  66  96 130 168 219 270 331 392
#     4  12  22  34  64 100 126 168 214 280 318 372
#     4  11  21  36  66  97 126 168 228 274 311 384
#     4  10  20  35  62  92 126 162 224 267 313 380
#     4  12  20  42  68  92 122 176 232 268 316 388
#     4  11  23  40  63 100 127 168 223 273 324 391
#
# _framework density 24.021515999999998
#
# number of rings (size 3 to 8) (size 9 to 14) (size 15 to 20)
#    0.000    1.143    8.571    1.286    2.000    0.000 
#    0.000    0.000    0.000   22.286    0.000    0.000 
#    0.000    0.000    0.000    0.000    0.000    0.000 
#
# Total GULP energy -156029.054655 kJ/mol
# GULP energy per Si atom -5572.466238 kJ/mol
# Density = 2.396684 g / cm^3
# Si number density = 24.021516 Si / 1000 Ang^3
#
#
#
# Elastic Constant Matrix: (Units=GPa)
#
#
# Indices 1 2 3 4 5 6 
#
# 1 110.4350 32.2690 -43.9269 0.0000 36.7857 0.0000
# 2 32.2690 34.8225 35.9325 0.0000 -4.7356 0.0000
# 3 -43.9269 35.9325 -45.2594 0.0000 37.0729 0.0000
# 4 0.0000 0.0000 0.0000 3.9548 0.0000 -21.6278
# 5 36.7857 -4.7356 37.0729 0.0000 52.8743 0.0000
# 6 0.0000 0.0000 0.0000 -21.6278 0.0000 -17.4215
#
#
#
# Elastic Compliance Matrix: (Units=1/GPa)
#
#
# Indices 1 2 3 4 5 6 
#
# 1 0.006540 0.000332 -0.006216 0.000000 -0.000162 0.000000
# 2 0.000332 0.017867 0.009518 0.000000 -0.005304 0.000000
# 3 -0.006216 0.009518 -0.002709 0.000000 0.007076 0.000000
# 4 0.000000 0.000000 0.000000 0.032463 0.000000 -0.040301
# 5 -0.000162 -0.005304 0.007076 0.000000 0.013589 0.000000
# 6 0.000000 0.000000 0.000000 -0.040301 0.000000 -0.007369
#
#
# Mechanical properties :
#
#
# Convention : Reuss Voigt Hill
#
# Bulk Modulus (GPa) = 34.52411 16.50524 25.51468
# Shear Modulus (GPa) = 79.66030 12.92973 46.29502
#
# Velocity S-wave (km/s) = 5.76490 2.32255 4.39479
# Velocity P-wave (km/s) = 7.66260 3.75210 6.03298
#
# Compressibility (1/GPa) = 0.02896526
#
# Stress axis : x y z
#
# Youngs Moduli (GPa) = 152.91640 55.96964 -369.12488
#
# Poissons Ratio (x) = -0.01858 -2.29442
# Poissons Ratio (y) = -0.05077 3.51328
# Poissons Ratio (z) = 0.95050 -0.53271
#
# Static dielectric constant tensor:
#      x y z
#    x 1.910770 0.000000 -0.045940 
#    y 0.000000 1.977500 0.000000 
#    z -0.045940 0.000000 1.914080 
# 
# From -- ./inp_files/273278.got.cif
#   From: 2010.05.17/outbox.cif.g08.bks.cpg/sg15_137_cif.got.tgz:273278.got - 2010.06.03 18:47:42.
