data_PCOD9267289
_publ_section_title
;
Structure prediction by ZEFSAII (Michael W. Deem and Ramdas Pophale) SiO2 
 PCOD9267289
Probable space group: C 2/C
;
_chemical_formula_sum "Si O2"
_cell_formula_units_Z 60
_cell_length_a 24.257013
_cell_length_b 5.553773
_cell_length_c 17.311360
_cell_angle_alpha 90.000000
_cell_angle_beta 92.188036
_cell_angle_gamma 90.000000
_cell_volume 2330.450478
_symmetry_space_group_name_H-M "C 2/C"
_symmetry_group_IT_number 15
_symmetry_cell_setting 'monoclinic'
loop_
_space_group_symop_operation_xyz
x,y,z
-x,y,1/2-z
-x,-y,-z
x,-y,1/2+z
1/2+x,1/2+y,z
1/2-x,1/2+y,1/2-z
1/2-x,1/2-y,-z
1/2+x,1/2-y,1/2+z
loop_
_atom_site_type_symbol
_atom_site_label
_atom_site_fract_x
_atom_site_fract_y
_atom_site_fract_z
Si Si1 0.921044 0.557669 0.334096
Si Si2 0.367489 0.066990 0.691225
Si Si3 0.757160 0.698644 0.859895
Si Si4 0.500000 0.646135 0.750000
Si Si5 0.105491 0.224399 0.512746
Si Si6 0.976680 0.223775 0.118477
Si Si7 0.347672 0.229317 0.053543
Si Si8 0.761435 0.190395 0.821539
O O1 0.873967 0.419446 0.284109
O O2 0.900668 0.740446 0.396833
O O3 0.970986 0.400483 0.371361
O O4 0.948064 0.689081 0.262565
O O5 0.369887 0.819274 0.641720
O O6 0.419206 0.209430 0.658794
O O7 0.305617 0.169751 0.670290
O O8 0.715740 0.729836 0.928646
O O9 0.779938 0.431080 0.864602
O O10 0.729917 0.700395 0.770724
O O11 0.788649 0.951101 0.857261
O O12 0.505160 0.501337 0.829459
O O13 0.044512 0.214726 0.470008
O O14 0.135500 0.475984 0.486772
O O15 0.130961 0.970330 0.486401
#
# Coordination Sequence:
#
# PCOD9267289 Si02
#       8
#     8   8   8   4   8   8   8   8
#     4  12  24  40  54  86 113 152 195 244 285 344
#     4  10  19  39  58  84 118 146 200 234 296 331
#     4   9  16  33  55  87 119 143 186 230 297 332
#     4  12  22  38  66  76 112 154 194 246 294 328
#     4  11  26  38  60  84 116 154 197 232 289 341
#     4  11  22  40  56  82 113 155 189 243 287 343
#     4  10  21  40  60  85 115 154 185 241 282 350
#     4   9  18  29  57  90 114 145 183 244 280 345
#
# _framework density 25.746092000000001
#
# number of rings (size 3 to 8) (size 9 to 14) (size 15 to 20)
#    0.000    1.600    2.667    3.600    3.733    1.600 
#    0.000    0.000    0.000    1.600    0.000    0.000 
#    0.000    0.000    0.000    0.000    0.000    0.000 
#
# Total GULP energy -167446.074112 kJ/mol
# GULP energy per Si atom -5581.535804 kJ/mol
# Density = 2.568749 g / cm^3
# Si number density = 25.746092 Si / 1000 Ang^3
#
#
#
# Elastic Constant Matrix: (Units=GPa)
#
#
# Indices 1 2 3 4 5 6 
#
# 1 90.3284 31.7834 42.6605 0.0000 0.1722 0.0000
# 2 31.7834 170.8693 10.8941 0.0000 -16.3955 0.0000
# 3 42.6605 10.8941 74.4539 0.0000 9.9055 0.0000
# 4 0.0000 0.0000 0.0000 34.7984 0.0000 -22.2606
# 5 0.1722 -16.3955 9.9055 0.0000 44.8960 0.0000
# 6 0.0000 0.0000 0.0000 -22.2606 0.0000 19.7353
#
#
#
# Elastic Compliance Matrix: (Units=1/GPa)
#
#
# Indices 1 2 3 4 5 6 
#
# 1 0.016170 -0.002325 -0.009070 0.000000 0.001090 0.000000
# 2 -0.002325 0.006508 0.000064 0.000000 0.002371 0.000000
# 3 -0.009070 0.000064 0.019174 0.000000 -0.004172 0.000000
# 4 0.000000 0.000000 0.000000 0.103206 0.000000 0.116412
# 5 0.001090 0.002371 -0.004172 0.000000 0.024056 0.000000
# 6 0.000000 0.000000 0.000000 0.116412 0.000000 0.181979
#
#
# Mechanical properties :
#
#
# Convention : Reuss Voigt Hill
#
# Bulk Modulus (GPa) = 52.10775 56.25862 54.18318
# Shear Modulus (GPa) = 13.15262 36.57351 24.86307
#
# Velocity S-wave (km/s) = 2.26267 3.77310 3.11095
# Velocity P-wave (km/s) = 5.20666 6.39379 5.83051
#
# Compressibility (1/GPa) = 0.01919100
#
# Stress axis : x y z
#
# Youngs Moduli (GPa) = 61.84150 153.64893 52.15457
#
# Poissons Ratio (x) = 0.35723 0.47305
# Poissons Ratio (y) = 0.14378 -0.00336
# Poissons Ratio (z) = 0.56091 -0.00989
#
# Static dielectric constant tensor:
#      x y z
#    x 2.204380 0.000000 0.139300 
#    y 0.000000 2.102660 0.000000 
#    z 0.139300 0.000000 2.100110 
# 
# From -- ./inp_files/223631.got.cif
#   From: 2010.05.17/outbox.cif.g08.bks.cpg/sg15_112_cif.got.tgz:223631.got - 2010.06.03 18:47:42.
