data_PCOD9267627
_publ_section_title
;
Structure prediction by ZEFSAII (Michael W. Deem and Ramdas Pophale) SiO2 
 PCOD9267627
Probable space group: C 2/C
;
_chemical_formula_sum "Si O2"
_cell_formula_units_Z 48
_cell_length_a 12.368139
_cell_length_b 6.876014
_cell_length_c 23.994896
_cell_angle_alpha 90.000000
_cell_angle_beta 90.343766
_cell_angle_gamma 90.000000
_cell_volume 2040.573135
_symmetry_space_group_name_H-M "C 2/C"
_symmetry_group_IT_number 15
_symmetry_cell_setting 'monoclinic'
loop_
_space_group_symop_operation_xyz
x,y,z
-x,y,1/2-z
-x,-y,-z
x,-y,1/2+z
1/2+x,1/2+y,z
1/2-x,1/2+y,1/2-z
1/2-x,1/2-y,-z
1/2+x,1/2-y,1/2+z
loop_
_atom_site_type_symbol
_atom_site_label
_atom_site_fract_x
_atom_site_fract_y
_atom_site_fract_z
Si Si1 0.054006 0.052183 0.602619
Si Si2 0.315141 0.278107 0.304627
Si Si3 0.894635 0.450321 0.230765
Si Si4 0.684321 0.457075 0.896793
Si Si5 0.242282 0.975610 0.517426
Si Si6 0.606497 0.878940 0.891471
O O1 0.118955 0.059817 0.660901
O O2 0.005300 0.270718 0.594463
O O3 0.134014 0.002221 0.553183
O O4 0.945585 0.922430 0.604283
O O5 0.222523 0.355025 0.263429
O O6 0.392261 0.138322 0.270428
O O7 0.250926 0.156778 0.351341
O O8 0.901182 0.509659 0.166235
O O9 0.000000 0.331765 0.250000
O O10 0.685891 0.690538 0.884427
O O11 0.732416 0.418350 0.958241
O O12 0.250000 0.750000 0.500000
O O13 0.343687 0.005558 0.558793
#
# Coordination Sequence:
#
# PCOD9267627 Si02
#       6
#     8   8   8   8   8   8
#     4  10  21  40  65  90 131 162 204 262 323 365
#     4  12  25  42  65  92 128 165 216 271 309 384
#     4  12  24  44  64  90 125 166 219 263 322 369
#     4   9  22  40  62  96 127 163 209 249 325 377
#     4  10  19  39  69  94 128 172 206 256 320 386
#     4   9  20  41  65  91 125 167 208 258 319 376
#
# _framework density 23.522801000000001
#
# number of rings (size 3 to 8) (size 9 to 14) (size 15 to 20)
#    1.000    0.667    3.333    1.500    0.000    2.000 
#    6.000    0.833    0.000    0.000    0.000    0.000 
#    0.000    0.000    0.000    0.000    0.000    0.000 
#
# Total GULP energy -134113.606108 kJ/mol
# GULP energy per Si atom -5588.066921 kJ/mol
# Density = 2.346926 g / cm^3
# Si number density = 23.522801 Si / 1000 Ang^3
#
#
#
# Elastic Constant Matrix: (Units=GPa)
#
#
# Indices 1 2 3 4 5 6 
#
# 1 132.5894 14.9225 48.6876 0.0000 9.9465 0.0000
# 2 14.9225 44.4968 18.4765 0.0000 -6.2736 0.0000
# 3 48.6876 18.4765 126.7524 0.0000 12.8331 0.0000
# 4 0.0000 0.0000 0.0000 23.7482 0.0000 1.5909
# 5 9.9465 -6.2736 12.8331 0.0000 43.8348 0.0000
# 6 0.0000 0.0000 0.0000 1.5909 0.0000 34.4280
#
#
#
# Elastic Compliance Matrix: (Units=1/GPa)
#
#
# Indices 1 2 3 4 5 6 
#
# 1 0.008978 -0.001960 -0.003018 0.000000 -0.001434 0.000000
# 2 -0.001960 0.025276 -0.003445 0.000000 0.005071 0.000000
# 3 -0.003018 -0.003445 0.009822 0.000000 -0.002684 0.000000
# 4 0.000000 0.000000 0.000000 0.042239 0.000000 -0.001952
# 5 -0.001434 0.005071 -0.002684 0.000000 0.024650 0.000000
# 6 0.000000 0.000000 0.000000 -0.001952 0.000000 0.029136
#
#
# Mechanical properties :
#
#
# Convention : Reuss Voigt Hill
#
# Bulk Modulus (GPa) = 36.72237 52.00132 44.36185
# Shear Modulus (GPa) = 30.11587 35.18569 32.65078
#
# Velocity S-wave (km/s) = 3.58199 3.87177 3.72969
# Velocity P-wave (km/s) = 5.72301 6.49170 6.11944
#
# Compressibility (1/GPa) = 0.02723136
#
# Stress axis : x y z
#
# Youngs Moduli (GPa) = 111.37778 39.56281 101.80722
#
# Poissons Ratio (x) = 0.07755 0.30724
# Poissons Ratio (y) = 0.21832 0.35072
# Poissons Ratio (z) = 0.33612 0.13629
#
# Static dielectric constant tensor:
#      x y z
#    x 1.911370 0.000000 0.082110 
#    y 0.000000 1.939570 0.000000 
#    z 0.082110 0.000000 1.847770 
# 
# From -- ./inp_files/267739.got.cif
#   From: 2010.05.17/outbox.cif.g08.bks.cpg/sg15_134_cif.got.tgz:267739.got - 2010.06.03 18:47:42.
