data_PCOD9267287
_publ_section_title
;
Structure prediction by ZEFSAII (Michael W. Deem and Ramdas Pophale) SiO2 
 PCOD9267287
Probable space group: C 2/C
;
_chemical_formula_sum "Si O2"
_cell_formula_units_Z 52
_cell_length_a 15.295799
_cell_length_b 11.336923
_cell_length_c 17.585707
_cell_angle_alpha 90.000000
_cell_angle_beta 88.163478
_cell_angle_gamma 90.000000
_cell_volume 3047.923474
_symmetry_space_group_name_H-M "C 2/C"
_symmetry_group_IT_number 15
_symmetry_cell_setting 'monoclinic'
loop_
_space_group_symop_operation_xyz
x,y,z
-x,y,1/2-z
-x,-y,-z
x,-y,1/2+z
1/2+x,1/2+y,z
1/2-x,1/2+y,1/2-z
1/2-x,1/2-y,-z
1/2+x,1/2-y,1/2+z
loop_
_atom_site_type_symbol
_atom_site_label
_atom_site_fract_x
_atom_site_fract_y
_atom_site_fract_z
Si Si1 0.500000 0.780688 0.750000
Si Si2 0.421857 0.032717 0.359683
Si Si3 0.841108 0.640679 0.737068
Si Si4 0.144667 0.886273 0.187458
Si Si5 0.970396 0.319967 0.090445
Si Si6 0.923105 0.849938 0.814518
Si Si7 0.158885 0.722378 0.043569
O O1 0.513495 0.868077 0.677686
O O2 0.416718 0.693622 0.756082
O O3 0.346588 0.101509 0.407515
O O4 0.382892 0.959599 0.289726
O O5 0.471992 0.938949 0.410868
O O6 0.742875 0.613519 0.716221
O O7 0.900861 0.657786 0.660683
O O8 0.849257 0.761862 0.784390
O O9 0.142964 0.823762 0.105630
O O10 0.110034 0.018115 0.178302
O O11 0.033566 0.212603 0.113672
O O12 0.917352 0.290602 0.016492
O O13 0.000000 0.849220 0.750000
O O14 0.250000 0.750000 0.000000
#
# Coordination Sequence:
#
# PCOD9267287 Si02
#       7
#     4   8   8   8   8   8   8
#     4  10  20  34  52  88 112 138 194 238 282 318
#     4  10  20  37  62  83 109 152 200 238 275 335
#     4  10  20  35  63  84 111 150 195 242 275 337
#     4  11  22  35  56  86 118 146 187 243 286 336
#     4  10  19  39  58  82 116 154 189 231 285 346
#     4   9  20  36  57  84 111 149 190 232 291 330
#     4  11  23  36  55  88 116 154 190 230 295 343
#
# _framework density 17.060794999999999
#
# number of rings (size 3 to 8) (size 9 to 14) (size 15 to 20)
#    0.000    1.846    3.846    1.385    4.308    0.615 
#    0.000    0.000    0.000    1.846    0.000    0.000 
#    0.000    0.000    0.000    0.000    0.000    0.000 
#
# Total GULP energy -144947.010974 kJ/mol
# GULP energy per Si atom -5574.885037 kJ/mol
# Density = 1.702196 g / cm^3
# Si number density = 17.060795 Si / 1000 Ang^3
#
#
#
# Elastic Constant Matrix: (Units=GPa)
#
#
# Indices 1 2 3 4 5 6 
#
# 1 84.0794 50.3384 25.1897 0.0000 0.6648 0.0000
# 2 50.3384 133.5486 32.4792 0.0000 3.5334 0.0000
# 3 25.1897 32.4792 69.9448 0.0000 8.4135 0.0000
# 4 0.0000 0.0000 0.0000 13.4099 0.0000 -5.4279
# 5 0.6648 3.5334 8.4135 0.0000 26.6481 0.0000
# 6 0.0000 0.0000 0.0000 -5.4279 0.0000 23.8415
#
#
#
# Elastic Compliance Matrix: (Units=1/GPa)
#
#
# Indices 1 2 3 4 5 6 
#
# 1 0.016075 -0.005239 -0.003526 0.000000 0.001407 0.000000
# 2 -0.005239 0.010149 -0.002786 0.000000 -0.000336 0.000000
# 3 -0.003526 -0.002786 0.017469 0.000000 -0.005058 0.000000
# 4 0.000000 0.000000 0.000000 0.082141 0.000000 0.018701
# 5 0.001407 -0.000336 -0.005058 0.000000 0.039132 0.000000
# 6 0.000000 0.000000 0.000000 0.018701 0.000000 0.046201
#
#
# Mechanical properties :
#
#
# Convention : Reuss Voigt Hill
#
# Bulk Modulus (GPa) = 48.56213 55.95417 52.25815
# Shear Modulus (GPa) = 20.73545 24.75093 22.74319
#
# Velocity S-wave (km/s) = 3.49002 3.81300 3.65508
# Velocity P-wave (km/s) = 6.69076 7.22865 6.96490
#
# Compressibility (1/GPa) = 0.02059218
#
# Stress axis : x y z
#
# Youngs Moduli (GPa) = 62.20723 98.53200 57.24528
#
# Poissons Ratio (x) = 0.51621 0.20183
# Poissons Ratio (y) = 0.32590 0.15946
# Poissons Ratio (z) = 0.21933 0.27447
#
# Static dielectric constant tensor:
#      x y z
#    x 1.566980 0.000000 -0.011510 
#    y 0.000000 1.582470 0.000000 
#    z -0.011510 0.000000 1.578520 
# 
# From -- ./inp_files/203562.got.cif
#   From: 2010.05.17/outbox.cif.g08.bks.cpg/sg15_102_cif.got.tgz:203562.got - 2010.06.03 18:47:42.
