data_PCOD9267465
_publ_section_title
;
Structure prediction by ZEFSAII (Michael W. Deem and Ramdas Pophale) SiO2 
 PCOD9267465
Probable space group: C 2/C
;
_chemical_formula_sum "Si O2"
_cell_formula_units_Z 64
_cell_length_a 8.226501
_cell_length_b 29.428203
_cell_length_c 12.894955
_cell_angle_alpha 90.000000
_cell_angle_beta 76.555567
_cell_angle_gamma 90.000000
_cell_volume 3036.205395
_symmetry_space_group_name_H-M "C 2/C"
_symmetry_group_IT_number 15
_symmetry_cell_setting 'monoclinic'
loop_
_space_group_symop_operation_xyz
x,y,z
-x,y,1/2-z
-x,-y,-z
x,-y,1/2+z
1/2+x,1/2+y,z
1/2-x,1/2+y,1/2-z
1/2-x,1/2-y,-z
1/2+x,1/2-y,1/2+z
loop_
_atom_site_type_symbol
_atom_site_label
_atom_site_fract_x
_atom_site_fract_y
_atom_site_fract_z
Si Si1 0.573118 0.172736 0.352952
Si Si2 0.197851 0.944392 0.014140
Si Si3 0.867288 0.107845 0.361852
Si Si4 0.474151 0.917494 0.137374
Si Si5 0.377660 0.650151 0.041542
Si Si6 0.329352 0.729109 0.213543
Si Si7 0.840017 0.322859 0.091068
Si Si8 0.674511 0.455513 0.469726
O O1 0.500000 0.163633 0.250000
O O2 0.694470 0.130354 0.357017
O O3 0.682326 0.218132 0.316056
O O4 0.453997 0.180179 0.469536
O O5 0.330653 0.941196 0.088168
O O6 0.996491 0.944987 0.068303
O O7 0.219650 0.898599 0.941912
O O8 0.221556 0.991892 0.952053
O O9 0.869369 0.056607 0.403891
O O10 0.000000 0.113014 0.250000
O O11 0.938510 0.137187 0.448172
O O12 0.500000 0.934525 0.250000
O O13 0.415548 0.865012 0.143125
O O14 0.660833 0.925259 0.067878
O O15 0.323592 0.689825 0.127146
O O16 0.342120 0.665679 0.930021
O O17 0.500000 0.724022 0.250000
O O18 0.328620 0.777319 0.157775
#
# Coordination Sequence:
#
# PCOD9267465 Si02
#       8
#     8   8   8   8   8   8   8   8
#     4  12  22  38  64  94 121 164 215 265 325 388
#     4   9  22  41  66  96 131 171 220 275 327 390
#     4  11  19  39  64  93 122 162 210 268 327 378
#     4  11  23  43  67  93 137 178 218 268 329 396
#     4  10  19  39  64  82 127 163 199 268 324 364
#     4  12  23  40  60  91 126 161 210 262 318 383
#     4  11  24  41  64  90 125 169 213 268 321 386
#     4  10  21  42  69  94 131 175 217 270 337 388
#
# _framework density 21.078942999999999
#
# number of rings (size 3 to 8) (size 9 to 14) (size 15 to 20)
#    0.000    1.250    5.000    1.125    0.000    1.000 
#    6.750    1.875    0.000    0.000    0.000    0.000 
#    0.000    0.000    0.000    0.000    0.000    0.000 
#
# Total GULP energy -178281.647666 kJ/mol
# GULP energy per Si atom -5571.301490 kJ/mol
# Density = 2.103097 g / cm^3
# Si number density = 21.078943 Si / 1000 Ang^3
#
#
#
# Elastic Constant Matrix: (Units=GPa)
#
#
# Indices 1 2 3 4 5 6 
#
# 1 113.0263 7.7933 31.4660 0.0000 33.5870 0.0000
# 2 7.7933 77.3218 -9.6399 0.0000 -4.1177 0.0000
# 3 31.4660 -9.6399 38.8173 0.0000 14.7027 0.0000
# 4 0.0000 0.0000 0.0000 17.7611 0.0000 3.6631
# 5 33.5870 -4.1177 14.7027 0.0000 26.0057 0.0000
# 6 0.0000 0.0000 0.0000 3.6631 0.0000 4.1699
#
#
#
# Elastic Compliance Matrix: (Units=1/GPa)
#
#
# Indices 1 2 3 4 5 6 
#
# 1 0.016371 -0.003519 -0.007539 0.000000 -0.017438 0.000000
# 2 -0.003519 0.014104 0.004820 0.000000 0.004053 0.000000
# 3 -0.007539 0.004820 0.037021 0.000000 -0.010430 0.000000
# 4 0.000000 0.000000 0.000000 0.068760 0.000000 -0.060402
# 5 -0.017438 0.004053 -0.010430 0.000000 0.067513 0.000000
# 6 0.000000 0.000000 0.000000 -0.060402 0.000000 0.292873
#
#
# Mechanical properties :
#
#
# Convention : Reuss Voigt Hill
#
# Bulk Modulus (GPa) = 18.17536 32.04494 25.11015
# Shear Modulus (GPa) = 9.47942 22.89041 16.18491
#
# Velocity S-wave (km/s) = 2.12294 3.29893 2.77397
# Velocity P-wave (km/s) = 3.82758 5.45398 4.71149
#
# Compressibility (1/GPa) = 0.05501954
#
# Stress axis : x y z
#
# Youngs Moduli (GPa) = 61.08360 70.90014 27.01198
#
# Poissons Ratio (x) = 0.24947 0.20366
# Poissons Ratio (y) = 0.21493 -0.13020
# Poissons Ratio (z) = 0.46054 -0.34173
#
# Static dielectric constant tensor:
#      x y z
#    x 1.846900 0.000000 -0.034260 
#    y 0.000000 1.788280 0.000000 
#    z -0.034260 0.000000 1.787210 
# 
# From -- ./inp_files/82578.got.cif
#   From: 2010.05.17/outbox.cif.g08.bks.cpg/sg15_42_cif.got.tgz:82578.got - 2010.06.03 18:47:42.
