data_PCOD9267434
_publ_section_title
;
Structure prediction by ZEFSAII (Michael W. Deem and Ramdas Pophale) SiO2 
 PCOD9267434
Probable space group: C 2/C
;
_chemical_formula_sum "Si O2"
_cell_formula_units_Z 44
_cell_length_a 11.483178
_cell_length_b 15.940973
_cell_length_c 12.408818
_cell_angle_alpha 90.000000
_cell_angle_beta 120.479959
_cell_angle_gamma 90.000000
_cell_volume 1957.569417
_symmetry_space_group_name_H-M "C 2/C"
_symmetry_group_IT_number 15
_symmetry_cell_setting 'monoclinic'
loop_
_space_group_symop_operation_xyz
x,y,z
-x,y,1/2-z
-x,-y,-z
x,-y,1/2+z
1/2+x,1/2+y,z
1/2-x,1/2+y,1/2-z
1/2-x,1/2-y,-z
1/2+x,1/2-y,1/2+z
loop_
_atom_site_type_symbol
_atom_site_label
_atom_site_fract_x
_atom_site_fract_y
_atom_site_fract_z
Si Si1 0.752013 0.474183 0.082346
Si Si2 0.000000 0.581430 0.250000
Si Si3 0.996981 0.722650 0.075376
Si Si4 0.868132 0.881763 0.112589
Si Si5 0.125284 0.313412 0.418373
Si Si6 0.753784 0.834683 0.266745
O O1 0.868791 0.523441 0.201267
O O2 0.827582 0.409394 0.037104
O O3 0.679690 0.411313 0.131997
O O4 0.662121 0.539810 0.976845
O O5 0.027665 0.640756 0.365135
O O6 0.752684 0.634236 0.858382
O O7 0.017471 0.710820 0.958188
O O8 0.895277 0.797635 0.057155
O O9 0.000000 0.894184 0.250000
O O10 0.250000 0.250000 0.500000
O O11 0.143569 0.242762 0.685460
O O12 0.128742 0.315224 0.288072
#
# Coordination Sequence:
#
# PCOD9267434 Si02
#       6
#     8   4   8   8   8   8
#     4  10  24  38  65  92 125 165 209 260 308 377
#     4  12  24  40  60 100 122 164 210 258 316 372
#     4  10  19  39  63  88 125 166 208 255 311 374
#     4  10  20  40  63  93 122 164 212 259 307 366
#     4   8  18  38  63  84 124 164 196 255 310 366
#     4   8  18  40  59  86 123 166 198 257 310 362
#
# _framework density 22.476853999999999
#
# number of rings (size 3 to 8) (size 9 to 14) (size 15 to 20)
#    1.091    1.455    2.727    0.000    2.545    4.364 
#    0.000    0.000    2.000    0.000    0.000    0.000 
#    0.000    0.000    0.000    0.000    0.000    0.000 
#
# Total GULP energy -122592.302795 kJ/mol
# GULP energy per Si atom -5572.377400 kJ/mol
# Density = 2.242570 g / cm^3
# Si number density = 22.476854 Si / 1000 Ang^3
#
#
#
# Elastic Constant Matrix: (Units=GPa)
#
#
# Indices 1 2 3 4 5 6 
#
# 1 115.0913 14.2435 21.8830 0.0000 -34.1886 0.0000
# 2 14.2435 102.8652 32.7785 0.0000 -14.6774 0.0000
# 3 21.8830 32.7785 106.7038 0.0000 -26.1405 0.0000
# 4 0.0000 0.0000 0.0000 -5.6698 0.0000 -26.3256
# 5 -34.1886 -14.6774 -26.1405 0.0000 37.7780 0.0000
# 6 0.0000 0.0000 0.0000 -26.3256 0.0000 14.4783
#
#
#
# Elastic Compliance Matrix: (Units=1/GPa)
#
#
# Indices 1 2 3 4 5 6 
#
# 1 0.011892 -0.000184 0.000285 0.000000 0.010887 0.000000
# 2 -0.000184 0.010945 -0.002798 0.000000 0.002150 0.000000
# 3 0.000285 -0.002798 0.012005 0.000000 0.007477 0.000000
# 4 0.000000 0.000000 0.000000 -0.018679 0.000000 -0.033963
# 5 0.010887 0.002150 0.007477 0.000000 0.042333 0.000000
# 6 0.000000 0.000000 0.000000 -0.033963 0.000000 0.007315
#
#
# Mechanical properties :
#
#
# Convention : Reuss Voigt Hill
#
# Bulk Modulus (GPa) = 33.95841 51.38556 42.67198
# Shear Modulus (GPa) = 61.71335 26.36764 44.04049
#
# Velocity S-wave (km/s) = 5.24557 3.42877 4.43128
# Velocity P-wave (km/s) = 7.19923 6.21180 6.72367
#
# Compressibility (1/GPa) = 0.02944779
#
# Stress axis : x y z
#
# Youngs Moduli (GPa) = 84.09368 91.36377 83.30126
#
# Poissons Ratio (x) = 0.01680 -0.02374
# Poissons Ratio (y) = 0.01547 0.23307
# Poissons Ratio (z) = -0.02397 0.25562
#
# Static dielectric constant tensor:
#      x y z
#    x 1.964420 0.000000 0.130720 
#    y 0.000000 1.765590 0.000000 
#    z 0.130720 0.000000 1.945850 
# 
# From -- ./inp_files/162070.got.cif
#   From: 2010.05.17/outbox.cif.g08.bks.cpg/sg15_82_cif.got.tgz:162070.got - 2010.06.03 18:47:42.
