data_PCOD9267876
_publ_section_title
;
Structure prediction by ZEFSAII (Michael W. Deem and Ramdas Pophale) SiO2 
 PCOD9267876
Probable space group: C 2/C
;
_chemical_formula_sum "Si O2"
_cell_formula_units_Z 56
_cell_length_a 15.081049
_cell_length_b 6.979768
_cell_length_c 23.665986
_cell_angle_alpha 90.000000
_cell_angle_beta 69.337101
_cell_angle_gamma 90.000000
_cell_volume 2330.886412
_symmetry_space_group_name_H-M "C 2/C"
_symmetry_group_IT_number 15
_symmetry_cell_setting 'monoclinic'
loop_
_space_group_symop_operation_xyz
x,y,z
-x,y,1/2-z
-x,-y,-z
x,-y,1/2+z
1/2+x,1/2+y,z
1/2-x,1/2+y,1/2-z
1/2-x,1/2-y,-z
1/2+x,1/2-y,1/2+z
loop_
_atom_site_type_symbol
_atom_site_label
_atom_site_fract_x
_atom_site_fract_y
_atom_site_fract_z
Si Si1 0.879389 0.716197 0.732365
Si Si2 0.558170 0.721087 0.126467
Si Si3 0.519689 0.224247 0.503067
Si Si4 0.309408 0.253607 0.543883
Si Si5 0.081281 0.084390 0.698366
Si Si6 0.239322 0.606874 0.172701
Si Si7 0.273125 0.197650 0.060333
O O1 0.815314 0.558469 0.779165
O O2 0.822471 0.809013 0.693044
O O3 0.982586 0.661454 0.682142
O O4 0.897061 0.893355 0.770481
O O5 0.533119 0.746389 0.067036
O O6 0.546869 0.498240 0.146722
O O7 0.671203 0.754023 0.110178
O O8 0.418972 0.306962 0.506246
O O9 0.619871 0.271244 0.451452
O O10 0.500000 0.000000 0.500000
O O11 0.250000 0.250000 0.500000
O O12 0.276638 0.402062 0.599616
O O13 0.291248 0.031294 0.566940
O O14 0.166830 0.222466 0.679917
O O15 0.000000 0.192065 0.750000
O O16 0.250000 0.250000 0.000000
#
# Coordination Sequence:
#
# PCOD9267876 Si02
#       7
#     8   8   8   8   8   8   8
#     4  11  24  40  72 105 137 196 249 306 382 445
#     4  10  19  40  68  94 142 190 241 303 371 439
#     4   9  19  36  66 100 136 190 240 292 361 447
#     4  11  23  42  68 105 154 185 242 316 365 447
#     4  10  23  42  70 100 140 184 240 301 369 442
#     4  12  23  44  72 103 150 189 252 311 375 454
#     4   9  19  38  69  96 135 189 239 287 365 438
#
# _framework density 24.025196000000001
#
# number of rings (size 3 to 8) (size 9 to 14) (size 15 to 20)
#    0.000    1.714    4.286    0.000    0.000    5.143 
#    0.000    2.857    3.143    0.000    0.000    0.000 
#    0.000    0.000    0.000    0.000    0.000    0.000 
#
# Total GULP energy -156121.160107 kJ/mol
# GULP energy per Si atom -5575.755718 kJ/mol
# Density = 2.397051 g / cm^3
# Si number density = 24.025196 Si / 1000 Ang^3
#
#
#
# Elastic Constant Matrix: (Units=GPa)
#
#
# Indices 1 2 3 4 5 6 
#
# 1 224.7041 41.5475 80.1227 0.0000 -36.4168 0.0000
# 2 41.5475 83.7443 26.0922 -0.0001 -14.2381 0.0003
# 3 80.1227 26.0922 124.7218 -0.0001 -17.4713 0.0002
# 4 0.0000 -0.0001 -0.0001 -2.7769 0.0000 38.3603
# 5 -36.4168 -14.2381 -17.4713 0.0000 50.9275 0.0001
# 6 0.0000 0.0003 0.0002 38.3603 0.0001 -56.5602
#
#
#
# Elastic Compliance Matrix: (Units=1/GPa)
#
#
# Indices 1 2 3 4 5 6 
#
# 1 0.006441 -0.001635 -0.003377 0.000000 0.002990 0.000000
# 2 -0.001635 0.013577 -0.001494 0.000000 0.002114 0.000000
# 3 -0.003377 -0.001494 0.010613 0.000000 0.000808 0.000000
# 4 0.000000 0.000000 0.000000 0.043030 0.000000 0.029184
# 5 0.002990 0.002114 0.000808 0.000000 0.022643 0.000000
# 6 0.000000 0.000000 0.000000 0.029184 0.000000 0.002113
#
#
# Mechanical properties :
#
#
# Convention : Reuss Voigt Hill
#
# Bulk Modulus (GPa) = 56.75468 80.96611 68.86039
# Shear Modulus (GPa) = 42.62510 17.34526 29.98518
#
# Velocity S-wave (km/s) = 4.21668 2.68985 3.53664
# Velocity P-wave (km/s) = 6.88341 6.58944 6.73803
#
# Compressibility (1/GPa) = 0.01761969
#
# Stress axis : x y z
#
# Youngs Moduli (GPa) = 155.24506 73.65283 94.22336
#
# Poissons Ratio (x) = 0.12043 0.31820
# Poissons Ratio (y) = 0.25385 0.14075
# Poissons Ratio (z) = 0.52427 0.11002
#
# Static dielectric constant tensor:
#      x y z
#    x 1.920490 0.000000 -0.098010 
#    y 0.000000 2.064660 0.000000 
#    z -0.098010 0.000000 2.030610 
# 
# From -- ./inp_files/312356.got.cif
#   From: 2010.05.17/outbox.cif.g08.bks.cpg/sg15_157_cif.got.tgz:312356.got - 2010.06.03 18:47:42.
