data_PCOD9267758
_publ_section_title
;
Structure prediction by ZEFSAII (Michael W. Deem and Ramdas Pophale) SiO2 
 PCOD9267758
Probable space group: C 2/C
;
_chemical_formula_sum "Si O2"
_cell_formula_units_Z 48
_cell_length_a 28.538381
_cell_length_b 14.182251
_cell_length_c 13.013715
_cell_angle_alpha 90.000000
_cell_angle_beta 27.229494
_cell_angle_gamma 90.000000
_cell_volume 2410.015130
_symmetry_space_group_name_H-M "C 2/C"
_symmetry_group_IT_number 15
_symmetry_cell_setting 'monoclinic'
loop_
_space_group_symop_operation_xyz
x,y,z
-x,y,1/2-z
-x,-y,-z
x,-y,1/2+z
1/2+x,1/2+y,z
1/2-x,1/2+y,1/2-z
1/2-x,1/2-y,-z
1/2+x,1/2-y,1/2+z
loop_
_atom_site_type_symbol
_atom_site_label
_atom_site_fract_x
_atom_site_fract_y
_atom_site_fract_z
Si Si1 0.533997 0.394193 0.906646
Si Si2 0.683426 0.087045 0.381778
Si Si3 0.748598 0.579927 0.883384
Si Si4 0.186492 0.775407 0.728994
Si Si5 0.416174 0.938944 0.223310
Si Si6 0.040577 0.728272 0.555188
O O1 0.630804 0.399857 0.639826
O O2 0.583879 0.332870 0.902054
O O3 0.447454 0.328247 0.023615
O O4 0.500000 0.500000 0.000000
O O5 0.749195 0.155453 0.324779
O O6 0.603174 0.040182 0.618836
O O7 0.631050 0.154056 0.398765
O O8 0.744539 0.004670 0.208961
O O9 0.810702 0.672456 0.724531
O O10 0.811415 0.551357 0.863836
O O11 0.250000 0.750000 0.500000
O O12 0.458127 0.831580 0.149533
O O13 0.500000 0.000000 0.000000
O O14 0.000000 0.745439 0.750000
#
# Coordination Sequence:
#
# PCOD9267758 Si02
#       6
#     8   8   8   8   8   8
#     4  11  23  40  64  87 125 171 205 254 310 368
#     4  11  22  37  65  97 119 161 213 257 304 365
#     4  11  21  40  65  90 123 163 207 258 307 366
#     4  10  19  40  64  84 120 171 207 245 304 372
#     4  11  19  36  64  93 122 153 203 263 307 356
#     4  10  20  36  62  92 116 160 215 242 291 383
#
# _framework density 19.916886999999999
#
# number of rings (size 3 to 8) (size 9 to 14) (size 15 to 20)
#    0.000    1.333    6.667    3.000    0.000    2.667 
#    0.000    2.500    3.667    0.000    0.000    0.000 
#    0.000    0.000    0.000    0.000    0.000    0.000 
#
# Total GULP energy -133684.317901 kJ/mol
# GULP energy per Si atom -5570.179913 kJ/mol
# Density = 1.987155 g / cm^3
# Si number density = 19.916887 Si / 1000 Ang^3
#
#
#
# Elastic Constant Matrix: (Units=GPa)
#
#
# Indices 1 2 3 4 5 6 
#
# 1 72.5030 44.3811 12.9661 0.0000 -7.6009 0.0000
# 2 44.3811 140.5579 26.6123 0.0000 7.8013 0.0000
# 3 12.9661 26.6123 30.9077 0.0000 -3.5512 0.0000
# 4 0.0000 0.0000 0.0000 37.7717 0.0000 4.3764
# 5 -7.6009 7.8013 -3.5512 0.0000 15.0650 0.0000
# 6 0.0000 0.0000 0.0000 4.3764 0.0000 39.5189
#
#
#
# Elastic Compliance Matrix: (Units=1/GPa)
#
#
# Indices 1 2 3 4 5 6 
#
# 1 0.019411 -0.006685 -0.000888 0.000000 0.013046 0.000000
# 2 -0.006685 0.011426 -0.008327 0.000000 -0.011253 0.000000
# 3 -0.000888 -0.008327 0.041464 0.000000 0.013638 0.000000
# 4 0.000000 0.000000 0.000000 0.026819 0.000000 -0.002970
# 5 0.013046 -0.011253 0.013638 0.000000 0.082003 0.000000
# 6 0.000000 0.000000 0.000000 -0.002970 0.000000 0.025633
#
#
# Mechanical properties :
#
#
# Convention : Reuss Voigt Hill
#
# Bulk Modulus (GPa) = 24.69084 45.76527 35.22806
# Shear Modulus (GPa) = 19.83676 29.13840 24.48758
#
# Velocity S-wave (km/s) = 3.15933 3.82907 3.51021
# Velocity P-wave (km/s) = 5.07271 6.52511 5.84420
#
# Compressibility (1/GPa) = 0.04050085
#
# Stress axis : x y z
#
# Youngs Moduli (GPa) = 51.51685 87.51674 24.11749
#
# Poissons Ratio (x) = 0.58504 0.02142
# Poissons Ratio (y) = 0.34439 0.20082
# Poissons Ratio (z) = 0.04576 0.72874
#
# Static dielectric constant tensor:
#      x y z
#    x 1.761600 0.000000 -0.028110 
#    y 0.000000 1.756920 0.000000 
#    z -0.028110 0.000000 1.724710 
# 
# From -- ./inp_files/181710.got.cif
#   From: 2010.05.17/outbox.cif.g08.bks.cpg/sg15_91_cif.got.tgz:181710.got - 2010.06.03 18:47:42.
