data_PCOD9267020
_publ_section_title
;
Structure prediction by ZEFSAII (Michael W. Deem and Ramdas Pophale) SiO2 
 PCOD9267020
Probable space group: C 2/C
;
_chemical_formula_sum "Si O2"
_cell_formula_units_Z 44
_cell_length_a 6.953769
_cell_length_b 16.304084
_cell_length_c 21.740870
_cell_angle_alpha 90.000000
_cell_angle_beta 45.153498
_cell_angle_gamma 90.000000
_cell_volume 1747.587655
_symmetry_space_group_name_H-M "C 2/C"
_symmetry_group_IT_number 15
_symmetry_cell_setting 'monoclinic'
loop_
_space_group_symop_operation_xyz
x,y,z
-x,y,1/2-z
-x,-y,-z
x,-y,1/2+z
1/2+x,1/2+y,z
1/2-x,1/2+y,1/2-z
1/2-x,1/2-y,-z
1/2+x,1/2-y,1/2+z
loop_
_atom_site_type_symbol
_atom_site_label
_atom_site_fract_x
_atom_site_fract_y
_atom_site_fract_z
Si Si1 0.000000 0.873548 0.750000
Si Si2 0.038419 0.372632 0.668725
Si Si3 0.606443 0.859517 0.472091
Si Si4 0.331056 0.949120 0.350646
Si Si5 0.468088 0.686751 0.519284
Si Si6 0.674253 0.506929 0.110044
O O1 0.713951 0.827918 0.808326
O O2 0.997218 0.934993 0.807645
O O3 0.030582 0.469431 0.653302
O O4 0.326518 0.341820 0.580308
O O5 0.000000 0.362724 0.750000
O O6 0.412747 0.780901 0.514342
O O7 0.848319 0.825378 0.460339
O O8 0.427540 0.932726 0.540745
O O9 0.745460 0.914373 0.387176
O O10 0.500000 0.927168 0.250000
O O11 0.277708 0.874428 0.409406
O O12 0.032942 0.985223 0.398761
#
# Coordination Sequence:
#
# PCOD9267020 Si02
#       6
#     4   8   8   8   8   8
#     4  12  20  38  68  90 120 172 208 260 316 366
#     4  11  22  39  65  94 126 165 213 254 311 384
#     4   9  20  38  62  93 121 164 215 253 324 383
#     4  10  20  38  64  92 123 161 215 258 312 382
#     4  10  20  38  63  92 130 166 201 271 319 366
#     4  10  19  38  64  87 122 164 210 257 310 391
#
# _framework density 25.177562999999999
#
# number of rings (size 3 to 8) (size 9 to 14) (size 15 to 20)
#    0.000    1.818    5.455    0.545    0.000    0.000 
#    3.273    0.909    0.000    0.000    0.000    0.000 
#    0.000    0.000    0.000    0.000    0.000    0.000 
#
# Total GULP energy -122597.261574 kJ/mol
# GULP energy per Si atom -5572.602799 kJ/mol
# Density = 2.512026 g / cm^3
# Si number density = 25.177563 Si / 1000 Ang^3
#
#
#
# Elastic Constant Matrix: (Units=GPa)
#
#
# Indices 1 2 3 4 5 6 
#
# 1 88.9640 13.7610 -2.9766 -0.0011 -25.5213 0.0021
# 2 13.7610 141.3828 51.7913 0.0010 -1.3136 0.0010
# 3 -2.9766 51.7913 99.8519 -0.0023 -2.4702 0.0037
# 4 -0.0011 0.0010 -0.0023 22.9810 0.0021 -9.3903
# 5 -25.5213 -1.3136 -2.4702 0.0021 33.1930 -0.0022
# 6 0.0021 0.0010 0.0037 -9.3903 -0.0022 19.5657
#
#
#
# Elastic Compliance Matrix: (Units=1/GPa)
#
#
# Indices 1 2 3 4 5 6 
#
# 1 0.014911 -0.001990 0.001761 0.000000 0.011517 -0.000001
# 2 -0.001990 0.008998 -0.004764 -0.000001 -0.001528 0.000000
# 3 0.001761 -0.004764 0.012590 0.000001 0.002103 -0.000002
# 4 0.000000 -0.000001 0.000001 0.054130 -0.000002 0.025979
# 5 0.011517 -0.001528 0.002103 -0.000002 0.039078 0.000002
# 6 -0.000001 0.000000 -0.000002 0.025979 0.000002 0.063578
#
#
# Mechanical properties :
#
#
# Convention : Reuss Voigt Hill
#
# Bulk Modulus (GPa) = 37.71493 50.59446 44.15470
# Shear Modulus (GPa) = 23.57299 32.98946 28.28123
#
# Velocity S-wave (km/s) = 3.06317 3.62370 3.35516
# Velocity P-wave (km/s) = 5.24622 6.13571 5.70831
#
# Compressibility (1/GPa) = 0.02651470
#
# Stress axis : x y z
#
# Youngs Moduli (GPa) = 67.06405 111.14094 79.42592
#
# Poissons Ratio (x) = 0.22112 -0.13990
# Poissons Ratio (y) = 0.13343 0.37838
# Poissons Ratio (z) = -0.11812 0.52947
#
# Static dielectric constant tensor:
#      x y z
#    x 2.187240 0.000000 -0.132280 
#    y 0.000000 2.029650 0.000010 
#    z -0.132280 0.000010 2.248570 
# 
# From -- ./inp_files/288576.got.cif
#   From: 2010.05.17/outbox.cif.g08.bks.cpg/sg15_145_cif.got.tgz:288576.got - 2010.06.03 18:47:42.
