data_PCOD9267760
_publ_section_title
;
Structure prediction by ZEFSAII (Michael W. Deem and Ramdas Pophale) SiO2 
 PCOD9267760
Probable space group: C 2/C
;
_chemical_formula_sum "Si O2"
_cell_formula_units_Z 32
_cell_length_a 18.166468
_cell_length_b 7.410846
_cell_length_c 19.013144
_cell_angle_alpha 90.000000
_cell_angle_beta 45.347107
_cell_angle_gamma 90.000000
_cell_volume 1820.926334
_symmetry_space_group_name_H-M "C 2/C"
_symmetry_group_IT_number 15
_symmetry_cell_setting 'monoclinic'
loop_
_space_group_symop_operation_xyz
x,y,z
-x,y,1/2-z
-x,-y,-z
x,-y,1/2+z
1/2+x,1/2+y,z
1/2-x,1/2+y,1/2-z
1/2-x,1/2-y,-z
1/2+x,1/2-y,1/2+z
loop_
_atom_site_type_symbol
_atom_site_label
_atom_site_fract_x
_atom_site_fract_y
_atom_site_fract_z
Si Si1 0.529250 0.527761 0.061095
Si Si2 0.761345 0.597065 0.433847
Si Si3 0.049655 0.625042 0.641592
Si Si4 0.435803 0.756725 0.723124
O O1 0.531526 0.726040 0.094638
O O2 0.450942 0.402096 0.158268
O O3 0.500000 0.500000 0.000000
O O4 0.647137 0.462668 0.991275
O O5 0.750000 0.750000 0.500000
O O6 0.833508 0.437399 0.417450
O O7 0.823864 0.683670 0.326305
O O8 0.000000 0.684261 0.750000
O O9 0.992106 0.439131 0.659404
O O10 0.500000 0.702572 0.750000
#
# Coordination Sequence:
#
# PCOD9267760 Si02
#       4
#     8   8   8   8
#     4  12  23  38  59  92 122 152 194 249 309 345
#     4  10  19  40  64  85 112 162 200 237 292 354
#     4   9  20  38  65  83 112 157 207 233 282 365
#     4   9  19  40  60  83 118 153 203 242 279 356
#
# _framework density 17.573474000000001
#
# number of rings (size 3 to 8) (size 9 to 14) (size 15 to 20)
#    0.000    2.500    5.000    1.500    0.000    1.000 
#    9.000    0.000    0.000    0.000    0.000    0.000 
#    0.000    0.000    0.000    0.000    0.000    0.000 
#
# Total GULP energy -89150.262832 kJ/mol
# GULP energy per Si atom -5571.891427 kJ/mol
# Density = 1.753348 g / cm^3
# Si number density = 17.573474 Si / 1000 Ang^3
#
#
#
# Elastic Constant Matrix: (Units=GPa)
#
#
# Indices 1 2 3 4 5 6 
#
# 1 79.2621 61.2654 29.8967 0.0000 15.4403 0.0000
# 2 61.2654 95.3101 52.7573 0.0003 26.8740 0.0000
# 3 29.8967 52.7573 66.8982 -0.0001 5.1017 -0.0001
# 4 0.0000 0.0003 -0.0001 29.0244 0.0000 0.8800
# 5 15.4403 26.8740 5.1017 0.0000 33.7464 0.0000
# 6 0.0000 0.0000 -0.0001 0.8800 0.0000 -3.2981
#
#
#
# Elastic Compliance Matrix: (Units=1/GPa)
#
#
# Indices 1 2 3 4 5 6 
#
# 1 0.025573 -0.019271 0.003531 0.000000 0.003111 0.000000
# 2 -0.019271 0.040801 -0.022013 0.000000 -0.020347 0.000000
# 3 0.003531 -0.022013 0.029861 0.000000 0.011400 0.000000
# 4 0.000000 0.000000 0.000000 0.034177 0.000000 0.009119
# 5 0.003111 -0.020347 0.011400 0.000000 0.042689 0.000000
# 6 0.000000 0.000000 0.000000 0.009119 0.000000 -0.300772
#
#
# Mechanical properties :
#
#
# Convention : Reuss Voigt Hill
#
# Bulk Modulus (GPa) = 48.23838 58.81212 53.52525
# Shear Modulus (GPa) = -110.48405 18.39794 -46.04305
#
# Velocity S-wave (km/s) = -7.93765 3.23912 -5.12418
# Velocity P-wave (km/s) = 7.51660 6.89407 2.11790
#
# Compressibility (1/GPa) = 0.02073038
#
# Stress axis : x y z
#
# Youngs Moduli (GPa) = 39.10306 24.50900 33.48899
#
# Poissons Ratio (x) = 0.47230 -0.11825
# Poissons Ratio (y) = 0.75354 0.73719
# Poissons Ratio (z) = -0.13808 0.53952
#
# Static dielectric constant tensor:
#      x y z
#    x 1.546840 0.000000 0.038050 
#    y 0.000000 1.619570 0.000000 
#    z 0.038050 0.000000 1.599840 
# 
# From -- ./inp_files/149852.got.cif
#   From: 2010.05.17/outbox.cif.g08.bks.cpg/sg15_75_cif.got.tgz:149852.got - 2010.06.03 18:47:42.
