data_PCOD9267668
_publ_section_title
;
Structure prediction by ZEFSAII (Michael W. Deem and Ramdas Pophale) SiO2 
 PCOD9267668
Probable space group: C 2/C
;
_chemical_formula_sum "Si O2"
_cell_formula_units_Z 40
_cell_length_a 7.648354
_cell_length_b 17.233569
_cell_length_c 15.736174
_cell_angle_alpha 90.000000
_cell_angle_beta 83.007952
_cell_angle_gamma 90.000000
_cell_volume 2058.735075
_symmetry_space_group_name_H-M "C 2/C"
_symmetry_group_IT_number 15
_symmetry_cell_setting 'monoclinic'
loop_
_space_group_symop_operation_xyz
x,y,z
-x,y,1/2-z
-x,-y,-z
x,-y,1/2+z
1/2+x,1/2+y,z
1/2-x,1/2+y,1/2-z
1/2-x,1/2-y,-z
1/2+x,1/2-y,1/2+z
loop_
_atom_site_type_symbol
_atom_site_label
_atom_site_fract_x
_atom_site_fract_y
_atom_site_fract_z
Si Si1 0.000000 0.657072 0.750000
Si Si2 0.374146 0.594014 0.675252
Si Si3 0.501824 0.731559 0.093758
Si Si4 0.500000 0.857609 0.750000
Si Si5 0.918171 0.743560 0.090936
Si Si6 0.368113 0.420568 0.678040
O O1 0.171542 0.608902 0.714099
O O2 0.947423 0.712514 0.674212
O O3 0.500000 0.599803 0.750000
O O4 0.421731 0.664592 0.610450
O O5 0.390849 0.506754 0.640063
O O6 0.713135 0.720721 0.090930
O O7 0.409778 0.649151 0.111542
O O8 0.478503 0.769278 0.002736
O O9 0.516028 0.803049 0.831656
O O10 0.673244 0.908622 0.726600
O O11 0.500000 0.411472 0.750000
#
# Coordination Sequence:
#
# PCOD9267668 Si02
#       6
#     4   8   8   4   8   8
#     4  10  19  40  59  78 112 152 184 232 279 334
#     4  10  21  36  58  83 113 149 186 229 284 334
#     4  10  20  38  62  83 116 149 186 237 284 323
#     4  12  21  38  61  86 108 150 196 230 271 346
#     4  10  21  37  62  86 111 149 195 229 277 340
#     4  11  21  37  58  83 116 150 181 234 289 327
#
# _framework density 19.429404999999999
#
# number of rings (size 3 to 8) (size 9 to 14) (size 15 to 20)
#    0.000    1.600    4.000    1.800    0.000    1.600 
#    0.000    0.000    0.000    4.800    0.000    0.000 
#    0.000    0.000    0.000    0.000    0.000    0.000 
#
# Total GULP energy -111704.191600 kJ/mol
# GULP energy per Si atom -5585.209580 kJ/mol
# Density = 1.938518 g / cm^3
# Si number density = 19.429405 Si / 1000 Ang^3
#
#
#
# Elastic Constant Matrix: (Units=GPa)
#
#
# Indices 1 2 3 4 5 6 
#
# 1 65.4093 12.2959 -2.7216 0.0000 9.5480 0.0000
# 2 12.2959 81.2415 13.9903 0.0000 -0.3872 0.0000
# 3 -2.7216 13.9903 87.4275 0.0000 2.3833 0.0000
# 4 0.0000 0.0000 0.0000 6.5495 0.0000 16.3200
# 5 9.5480 -0.3872 2.3833 0.0000 16.3034 0.0000
# 6 0.0000 0.0000 0.0000 16.3200 0.0000 59.0122
#
#
#
# Elastic Compliance Matrix: (Units=1/GPa)
#
#
# Indices 1 2 3 4 5 6 
#
# 1 0.017415 -0.002908 0.001293 0.000000 -0.010457 0.000000
# 2 -0.002908 0.013149 -0.002259 0.000000 0.002346 0.000000
# 3 0.001293 -0.002259 0.011909 0.000000 -0.002552 0.000000
# 4 0.000000 0.000000 0.000000 0.491109 0.000000 -0.135817
# 5 -0.010457 0.002346 -0.002552 0.000000 0.067890 0.000000
# 6 0.000000 0.000000 0.000000 -0.135817 0.000000 0.054506
#
#
# Mechanical properties :
#
#
# Convention : Reuss Voigt Hill
#
# Bulk Modulus (GPa) = 28.79750 31.24527 30.02139
# Shear Modulus (GPa) = 7.40408 30.40728 18.90568
#
# Velocity S-wave (km/s) = 1.95423 3.96032 3.12275
# Velocity P-wave (km/s) = 4.46608 6.08510 5.33734
#
# Compressibility (1/GPa) = 0.03472524
#
# Stress axis : x y z
#
# Youngs Moduli (GPa) = 57.42079 76.04985 83.96816
#
# Poissons Ratio (x) = 0.22117 -0.10854
# Poissons Ratio (y) = 0.16699 0.18965
# Poissons Ratio (z) = -0.07422 0.17177
#
# Static dielectric constant tensor:
#      x y z
#    x 1.695790 0.000000 0.003680 
#    y 0.000000 1.654750 0.000000 
#    z 0.003680 0.000000 1.682540 
# 
# From -- ./inp_files/133213.got.cif
#   From: 2010.05.17/outbox.cif.g08.bks.cpg/sg15_67_cif.got.tgz:133213.got - 2010.06.03 18:47:42.
