data_PCOD9267747
_publ_section_title
;
Structure prediction by ZEFSAII (Michael W. Deem and Ramdas Pophale) SiO2 
 PCOD9267747
Probable space group: C 2/C
;
_chemical_formula_sum "Si O2"
_cell_formula_units_Z 48
_cell_length_a 9.686459
_cell_length_b 15.264585
_cell_length_c 14.619755
_cell_angle_alpha 90.000000
_cell_angle_beta 73.301889
_cell_angle_gamma 90.000000
_cell_volume 2070.520185
_symmetry_space_group_name_H-M "C 2/C"
_symmetry_group_IT_number 15
_symmetry_cell_setting 'monoclinic'
loop_
_space_group_symop_operation_xyz
x,y,z
-x,y,1/2-z
-x,-y,-z
x,-y,1/2+z
1/2+x,1/2+y,z
1/2-x,1/2+y,1/2-z
1/2-x,1/2-y,-z
1/2+x,1/2-y,1/2+z
loop_
_atom_site_type_symbol
_atom_site_label
_atom_site_fract_x
_atom_site_fract_y
_atom_site_fract_z
Si Si1 0.911996 0.339714 0.683154
Si Si2 0.412175 0.091835 0.511621
Si Si3 0.170834 0.133005 0.097876
Si Si4 0.899876 0.055136 0.890362
Si Si5 0.325779 0.638943 0.709715
Si Si6 0.601118 0.170358 0.610479
O O1 0.770877 0.384966 0.668081
O O2 0.860832 0.241788 0.718288
O O3 0.000000 0.380166 0.750000
O O4 0.023618 0.344632 0.577779
O O5 0.244650 0.075924 0.526126
O O6 0.451170 0.135607 0.600948
O O7 0.500000 0.000000 0.500000
O O8 0.093195 0.225356 0.124013
O O9 0.074314 0.048076 0.105585
O O10 0.282791 0.148284 0.992657
O O11 0.851612 0.084701 0.796977
O O12 0.045255 0.107081 0.882283
O O13 0.174967 0.630859 0.686154
#
# Coordination Sequence:
#
# PCOD9267747 Si02
#       6
#     8   8   8   8   8   8
#     4  10  19  40  63  88 128 167 198 257 328 358
#     4  11  22  40  65  98 124 157 216 267 297 368
#     4   9  19  37  63  86 126 161 202 251 313 373
#     4  11  21  41  60  96 128 156 210 267 299 366
#     4  10  23  40  64  89 132 167 202 257 319 369
#     4   9  19  40  64  87 122 170 196 250 321 367
#
# _framework density 23.182580999999999
#
# number of rings (size 3 to 8) (size 9 to 14) (size 15 to 20)
#    0.000    2.000    5.000    1.000    0.000    3.333 
#    0.000    6.667    0.000    0.000    0.000    0.000 
#    0.000    0.000    0.000    0.000    0.000    0.000 
#
# Total GULP energy -133993.596120 kJ/mol
# GULP energy per Si atom -5583.066505 kJ/mol
# Density = 2.312982 g / cm^3
# Si number density = 23.182581 Si / 1000 Ang^3
#
#
#
# Elastic Constant Matrix: (Units=GPa)
#
#
# Indices 1 2 3 4 5 6 
#
# 1 56.9923 -9.2362 -3.1453 0.0000 10.4508 0.0000
# 2 -9.2362 57.9368 0.5576 0.0000 -2.6542 0.0000
# 3 -3.1453 0.5576 71.5014 0.0000 18.7093 0.0000
# 4 0.0000 0.0000 0.0000 20.5167 0.0000 9.0427
# 5 10.4508 -2.6542 18.7093 0.0000 34.0232 0.0000
# 6 0.0000 0.0000 0.0000 9.0427 0.0000 -6.5317
#
#
#
# Elastic Compliance Matrix: (Units=1/GPa)
#
#
# Indices 1 2 3 4 5 6 
#
# 1 0.019476 0.002745 0.002739 0.000000 -0.007274 0.000000
# 2 0.002745 0.017729 -0.000185 0.000000 0.000642 0.000000
# 3 0.002739 -0.000185 0.016740 0.000000 -0.010061 0.000000
# 4 0.000000 0.000000 0.000000 0.030270 0.000000 0.041907
# 5 -0.007274 0.000642 -0.010061 0.000000 0.037209 0.000000
# 6 0.000000 0.000000 0.000000 0.041907 0.000000 -0.095082
#
#
# Mechanical properties :
#
#
# Convention : Reuss Voigt Hill
#
# Bulk Modulus (GPa) = 15.49363 18.08698 16.79030
# Shear Modulus (GPa) = 134.19415 22.81861 78.50638
#
# Velocity S-wave (km/s) = 7.61652 3.14076 5.82562
# Velocity P-wave (km/s) = 9.16768 4.57945 7.24630
#
# Compressibility (1/GPa) = 0.06454266
#
# Stress axis : x y z
#
# Youngs Moduli (GPa) = 51.34477 56.40470 59.73610
#
# Poissons Ratio (x) = -0.15484 -0.16360
# Poissons Ratio (y) = -0.14095 0.01108
# Poissons Ratio (z) = -0.14062 0.01046
#
# Static dielectric constant tensor:
#      x y z
#    x 1.878330 0.000000 -0.028200 
#    y 0.000000 1.830320 0.000000 
#    z -0.028200 0.000000 1.963970 
# 
# From -- ./inp_files/143530.got.cif
#   From: 2010.05.17/outbox.cif.g08.bks.cpg/sg15_72_cif.got.tgz:143530.got - 2010.06.03 18:47:42.
