data_PCOD9267135
_publ_section_title
;
Structure prediction by ZEFSAII (Michael W. Deem and Ramdas Pophale) SiO2 
 PCOD9267135
Probable space group: C 2/C
;
_chemical_formula_sum "Si O2"
_cell_formula_units_Z 60
_cell_length_a 19.974315
_cell_length_b 9.199820
_cell_length_c 16.865608
_cell_angle_alpha 90.000000
_cell_angle_beta 104.254831
_cell_angle_gamma 90.000000
_cell_volume 3003.801162
_symmetry_space_group_name_H-M "C 2/C"
_symmetry_group_IT_number 15
_symmetry_cell_setting 'monoclinic'
loop_
_space_group_symop_operation_xyz
x,y,z
-x,y,1/2-z
-x,-y,-z
x,-y,1/2+z
1/2+x,1/2+y,z
1/2-x,1/2+y,1/2-z
1/2-x,1/2-y,-z
1/2+x,1/2-y,1/2+z
loop_
_atom_site_type_symbol
_atom_site_label
_atom_site_fract_x
_atom_site_fract_y
_atom_site_fract_z
Si Si1 0.118544 0.212719 0.799688
Si Si2 0.462134 0.748858 0.115624
Si Si3 0.369250 0.122359 0.348766
Si Si4 0.500000 0.504610 0.250000
Si Si5 0.907057 0.352851 0.447435
Si Si6 0.814339 0.858242 0.019623
Si Si7 0.031374 0.560035 0.374975
Si Si8 0.819901 0.811335 0.482316
O O1 0.154493 0.310720 0.742500
O O2 0.163380 0.135493 0.881255
O O3 0.070950 0.323449 0.834995
O O4 0.065975 0.094682 0.748214
O O5 0.480691 0.609788 0.172512
O O6 0.526356 0.786497 0.076695
O O7 0.388940 0.718153 0.053714
O O8 0.458740 0.902241 0.161013
O O9 0.453256 0.114830 0.365167
O O10 0.338142 0.230634 0.405325
O O11 0.359710 0.955294 0.377018
O O12 0.869418 0.222623 0.480378
O O13 0.933245 0.451865 0.528249
O O14 0.806268 0.016267 0.979516
O O15 0.750000 0.750000 0.000000
O O16 0.750000 0.750000 0.500000
#
# Coordination Sequence:
#
# PCOD9267135 Si02
#       8
#     8   8   8   4   8   8   8   8
#     4  11  24  40  67  97 141 171 211 285 343 387
#     4  11  23  39  64 102 134 171 228 277 331 399
#     4  11  20  40  64 100 128 168 221 271 336 391
#     4  12  24  38  60 108 142 166 220 286 346 376
#     4  10  21  39  70  97 126 171 230 276 324 403
#     4  11  26  47  66  95 132 182 227 271 335 413
#     4  10  19  38  65  98 134 172 209 273 335 401
#     4  12  25  43  68  94 136 183 223 273 328 405
#
# _framework density 19.974689999999999
#
# number of rings (size 3 to 8) (size 9 to 14) (size 15 to 20)
#    0.000    1.067    5.333    1.600    7.467    0.533 
#    0.000    4.000    0.000    0.000    0.000    0.000 
#    0.000    0.000    0.000    0.000    0.000    0.000 
#
# Total GULP energy -167280.359386 kJ/mol
# GULP energy per Si atom -5576.011980 kJ/mol
# Density = 1.992923 g / cm^3
# Si number density = 19.974690 Si / 1000 Ang^3
#
#
#
# Elastic Constant Matrix: (Units=GPa)
#
#
# Indices 1 2 3 4 5 6 
#
# 1 62.8930 33.7850 16.1059 0.0000 -4.4409 0.0000
# 2 33.7850 120.9058 18.9890 0.0000 -8.2347 0.0000
# 3 16.1059 18.9890 57.5848 0.0000 -16.0295 0.0000
# 4 0.0000 0.0000 0.0000 31.9243 0.0000 -1.4752
# 5 -4.4409 -8.2347 -16.0295 0.0000 20.1849 0.0000
# 6 0.0000 0.0000 0.0000 -1.4752 0.0000 34.9228
#
#
#
# Elastic Compliance Matrix: (Units=1/GPa)
#
#
# Indices 1 2 3 4 5 6 
#
# 1 0.019502 -0.004868 -0.004118 0.000000 -0.000966 0.000000
# 2 -0.004868 0.009980 -0.001405 0.000000 0.001885 0.000000
# 3 -0.004118 -0.001405 0.023839 0.000000 0.017452 0.000000
# 4 0.000000 0.000000 0.000000 0.031385 0.000000 0.001326
# 5 -0.000966 0.001885 0.017452 0.000000 0.063958 0.000000
# 6 0.000000 0.000000 0.000000 0.001326 0.000000 0.028691
#
#
# Mechanical properties :
#
#
# Convention : Reuss Voigt Hill
#
# Bulk Modulus (GPa) = 30.73271 42.12705 36.42988
# Shear Modulus (GPa) = 23.92546 28.90664 26.41605
#
# Velocity S-wave (km/s) = 3.46466 3.80829 3.64053
# Velocity P-wave (km/s) = 5.60575 6.36187 5.99574
#
# Compressibility (1/GPa) = 0.03253862
#
# Stress axis : x y z
#
# Youngs Moduli (GPa) = 51.27796 100.19740 41.94871
#
# Poissons Ratio (x) = 0.48780 0.17274
# Poissons Ratio (y) = 0.24964 0.05893
# Poissons Ratio (z) = 0.21115 0.14075
#
# Static dielectric constant tensor:
#      x y z
#    x 1.808300 0.000000 -0.034930 
#    y 0.000000 1.709150 0.000000 
#    z -0.034930 0.000000 1.779700 
# 
# From -- ./inp_files/213977.got.cif
#   From: 2010.05.17/outbox.cif.g08.bks.cpg/sg15_107_cif.got.tgz:213977.got - 2010.06.03 18:47:42.
