data_PCOD9267563
_publ_section_title
;
Structure prediction by ZEFSAII (Michael W. Deem and Ramdas Pophale) SiO2 
 PCOD9267563
Probable space group: C 2/C
;
_chemical_formula_sum "Si O2"
_cell_formula_units_Z 48
_cell_length_a 9.279078
_cell_length_b 18.420570
_cell_length_c 12.409328
_cell_angle_alpha 90.000000
_cell_angle_beta 81.887745
_cell_angle_gamma 90.000000
_cell_volume 2099.851081
_symmetry_space_group_name_H-M "C 2/C"
_symmetry_group_IT_number 15
_symmetry_cell_setting 'monoclinic'
loop_
_space_group_symop_operation_xyz
x,y,z
-x,y,1/2-z
-x,-y,-z
x,-y,1/2+z
1/2+x,1/2+y,z
1/2-x,1/2+y,1/2-z
1/2-x,1/2-y,-z
1/2+x,1/2-y,1/2+z
loop_
_atom_site_type_symbol
_atom_site_label
_atom_site_fract_x
_atom_site_fract_y
_atom_site_fract_z
Si Si1 0.826371 0.479639 0.017897
Si Si2 0.641366 0.097445 0.195100
Si Si3 0.770558 0.131008 0.413132
Si Si4 0.300046 0.829691 0.134065
Si Si5 0.303160 0.216984 0.873491
Si Si6 0.960162 0.257963 0.919891
O O1 0.721142 0.546821 0.055615
O O2 0.815106 0.413368 0.101972
O O3 0.782698 0.448136 0.905478
O O4 0.000000 0.500000 0.000000
O O5 0.500000 0.053648 0.250000
O O6 0.722686 0.120699 0.293661
O O7 0.578371 0.168776 0.142093
O O8 0.679615 0.160513 0.529174
O O9 0.870613 0.202709 0.388289
O O10 0.337470 0.814185 0.253598
O O11 0.136953 0.804870 0.121835
O O12 0.396224 0.779448 0.043841
O O13 0.128421 0.236068 0.889076
#
# Coordination Sequence:
#
# PCOD9267563 Si02
#       6
#     8   8   8   8   8   8
#     4  11  23  37  60  96 125 159 207 261 319 382
#     4  11  18  36  63  83 129 168 200 258 324 369
#     4  11  23  37  58  93 128 167 202 265 322 365
#     4  10  21  37  68  94 121 168 218 256 316 386
#     4  11  22  40  64  91 131 162 213 264 313 374
#     4  10  19  39  66  93 120 169 219 260 311 373
#
# _framework density 22.858761999999999
#
# number of rings (size 3 to 8) (size 9 to 14) (size 15 to 20)
#    0.000    1.333    5.000    1.500    2.333    0.000 
#    0.000    7.500    0.000    2.000    0.000    0.000 
#    0.000    0.000    0.000    0.000    0.000    0.000 
#
# Total GULP energy -133658.148410 kJ/mol
# GULP energy per Si atom -5569.089517 kJ/mol
# Density = 2.280673 g / cm^3
# Si number density = 22.858762 Si / 1000 Ang^3
#
#
#
# Elastic Constant Matrix: (Units=GPa)
#
#
# Indices 1 2 3 4 5 6 
#
# 1 61.1446 27.3245 0.3620 0.0000 2.5027 0.0000
# 2 27.3245 151.1482 60.8723 0.0000 7.0821 0.0000
# 3 0.3620 60.8723 227.4413 0.0000 19.8031 0.0000
# 4 0.0000 0.0000 0.0000 27.8656 0.0000 1.3696
# 5 2.5027 7.0821 19.8031 0.0000 17.9224 0.0000
# 6 0.0000 0.0000 0.0000 1.3696 0.0000 15.1246
#
#
#
# Elastic Compliance Matrix: (Units=1/GPa)
#
#
# Indices 1 2 3 4 5 6 
#
# 1 0.018060 -0.003615 0.001144 0.000000 -0.002358 0.000000
# 2 -0.003615 0.008150 -0.002145 0.000000 -0.000345 0.000000
# 3 0.001144 -0.002145 0.005432 0.000000 -0.005314 0.000000
# 4 0.000000 0.000000 0.000000 0.036047 0.000000 -0.003264
# 5 -0.002358 -0.000345 -0.005314 0.000000 0.062133 0.000000
# 6 0.000000 0.000000 0.000000 -0.003264 0.000000 0.066413
#
#
# Mechanical properties :
#
#
# Convention : Reuss Voigt Hill
#
# Bulk Modulus (GPa) = 44.62586 68.53907 56.58247
# Shear Modulus (GPa) = 23.48111 35.59422 29.53767
#
# Velocity S-wave (km/s) = 3.20851 3.95034 3.59859
# Velocity P-wave (km/s) = 5.76983 7.13132 6.48639
#
# Compressibility (1/GPa) = 0.02240853
#
# Stress axis : x y z
#
# Youngs Moduli (GPa) = 55.37113 122.70301 184.10177
#
# Poissons Ratio (x) = 0.44359 -0.21063
# Poissons Ratio (y) = 0.20018 0.39497
# Poissons Ratio (z) = -0.06335 0.26325
#
# Static dielectric constant tensor:
#      x y z
#    x 1.957210 0.000000 0.009510 
#    y 0.000000 1.860360 0.000000 
#    z 0.009510 0.000000 1.931210 
# 
# From -- ./inp_files/87220.got.cif
#   From: 2010.05.17/outbox.cif.g08.bks.cpg/sg15_44_cif.got.tgz:87220.got - 2010.06.03 18:47:42.
