data_PCOD9267671
_publ_section_title
;
Structure prediction by ZEFSAII (Michael W. Deem and Ramdas Pophale) SiO2 
 PCOD9267671
Probable space group: C 2/C
;
_chemical_formula_sum "Si O2"
_cell_formula_units_Z 48
_cell_length_a 9.548824
_cell_length_b 14.682897
_cell_length_c 16.510310
_cell_angle_alpha 90.000000
_cell_angle_beta 76.827517
_cell_angle_gamma 90.000000
_cell_volume 2253.911664
_symmetry_space_group_name_H-M "C 2/C"
_symmetry_group_IT_number 15
_symmetry_cell_setting 'monoclinic'
loop_
_space_group_symop_operation_xyz
x,y,z
-x,y,1/2-z
-x,-y,-z
x,-y,1/2+z
1/2+x,1/2+y,z
1/2-x,1/2+y,1/2-z
1/2-x,1/2-y,-z
1/2+x,1/2-y,1/2+z
loop_
_atom_site_type_symbol
_atom_site_label
_atom_site_fract_x
_atom_site_fract_y
_atom_site_fract_z
Si Si1 0.128062 0.401347 0.842619
Si Si2 0.802467 0.628235 0.903879
Si Si3 0.500000 0.055260 0.750000
Si Si4 0.444215 0.173181 0.516404
Si Si5 0.000000 0.259496 0.750000
Si Si6 0.020774 0.163320 0.581272
Si Si7 0.721308 0.510447 0.553193
O O1 0.062613 0.490705 0.810888
O O2 0.018158 0.365612 0.925054
O O3 0.263693 0.436172 0.876835
O O4 0.123140 0.325667 0.772367
O O5 0.648784 0.674988 0.913887
O O6 0.868842 0.608286 0.807568
O O7 0.929787 0.679629 0.934017
O O8 0.771136 0.539828 0.964580
O O9 0.399776 0.274615 0.496165
O O10 0.327581 0.097021 0.554985
O O11 0.948590 0.198926 0.832065
O O12 0.068238 0.059034 0.568152
#
# Coordination Sequence:
#
# PCOD9267671 Si02
#       7
#     8   8   4   8   4   8   8
#     4   9  18  36  62  80 109 156 211 235 268 361
#     4  11  22  37  62  88 118 161 206 244 293 356
#     4  11  18  34  62  86 109 154 216 243 270 354
#     4  10  19  40  59  85 115 164 201 230 290 374
#     4   9  22  38  54  88 119 164 190 241 306 350
#     4  11  24  36  58  95 130 148 188 262 313 337
#     4  11  20  39  63  91 113 163 206 241 288 368
#
# _framework density 21.296308
#
# number of rings (size 3 to 8) (size 9 to 14) (size 15 to 20)
#    0.000    1.667    3.333    2.500    2.333    0.000 
#    0.000    0.000    0.000    0.000   13.000    0.000 
#    0.000    0.000    0.000    0.000    0.000    0.000 
#
# Total GULP energy -133819.457928 kJ/mol
# GULP energy per Si atom -5575.810747 kJ/mol
# Density = 2.124784 g / cm^3
# Si number density = 21.296308 Si / 1000 Ang^3
#
#
#
# Elastic Constant Matrix: (Units=GPa)
#
#
# Indices 1 2 3 4 5 6 
#
# 1 66.1237 10.8669 15.8926 0.0000 6.8340 0.0000
# 2 10.8669 65.1165 26.6085 0.0000 4.7192 0.0000
# 3 15.8926 26.6085 57.5848 0.0000 15.3537 0.0000
# 4 0.0000 0.0000 0.0000 18.0712 0.0000 2.1486
# 5 6.8340 4.7192 15.3537 0.0000 18.6033 0.0000
# 6 0.0000 0.0000 0.0000 2.1486 0.0000 23.2974
#
#
#
# Elastic Compliance Matrix: (Units=1/GPa)
#
#
# Indices 1 2 3 4 5 6 
#
# 1 0.016400 -0.001235 -0.003119 0.000000 -0.003137 0.000000
# 2 -0.001235 0.019165 -0.009410 0.000000 0.003359 0.000000
# 3 -0.003119 -0.009410 0.027736 0.000000 -0.019358 0.000000
# 4 0.000000 0.000000 0.000000 0.055950 0.000000 -0.005160
# 5 -0.003137 0.003359 -0.019358 0.000000 0.070031 0.000000
# 6 0.000000 0.000000 0.000000 -0.005160 0.000000 0.043399
#
#
# Mechanical properties :
#
#
# Convention : Reuss Voigt Hill
#
# Bulk Modulus (GPa) = 27.95440 32.84010 30.39725
# Shear Modulus (GPa) = 18.37323 21.02484 19.69903
#
# Velocity S-wave (km/s) = 2.94043 3.14547 3.04468
# Velocity P-wave (km/s) = 4.96821 5.35219 5.16377
#
# Compressibility (1/GPa) = 0.03577254
#
# Stress axis : x y z
#
# Youngs Moduli (GPa) = 60.97552 52.17807 36.05382
#
# Poissons Ratio (x) = 0.06444 0.11246
# Poissons Ratio (y) = 0.07531 0.33928
# Poissons Ratio (z) = 0.19019 0.49101
#
# Static dielectric constant tensor:
#      x y z
#    x 1.796070 0.000000 0.026940 
#    y 0.000000 1.805020 0.000000 
#    z 0.026940 0.000000 1.770640 
# 
# From -- ./inp_files/189298.got.cif
#   From: 2010.05.17/outbox.cif.g08.bks.cpg/sg15_95_cif.got.tgz:189298.got - 2010.06.03 18:47:42.
