data_PCOD9267242
_publ_section_title
;
Structure prediction by ZEFSAII (Michael W. Deem and Ramdas Pophale) SiO2 
 PCOD9267242
Probable space group: C 2/C
;
_chemical_formula_sum "Si O2"
_cell_formula_units_Z 40
_cell_length_a 7.285413
_cell_length_b 23.750108
_cell_length_c 10.384232
_cell_angle_alpha 90.000000
_cell_angle_beta 107.363739
_cell_angle_gamma 90.000000
_cell_volume 1714.896654
_symmetry_space_group_name_H-M "C 2/C"
_symmetry_group_IT_number 15
_symmetry_cell_setting 'monoclinic'
loop_
_space_group_symop_operation_xyz
x,y,z
-x,y,1/2-z
-x,-y,-z
x,-y,1/2+z
1/2+x,1/2+y,z
1/2-x,1/2+y,1/2-z
1/2-x,1/2-y,-z
1/2+x,1/2-y,1/2+z
loop_
_atom_site_type_symbol
_atom_site_label
_atom_site_fract_x
_atom_site_fract_y
_atom_site_fract_z
Si Si1 0.307239 0.874769 0.396773
Si Si2 0.000000 0.915234 0.750000
Si Si3 0.267383 0.222189 0.706480
Si Si4 0.275361 0.168031 0.437353
Si Si5 0.500000 0.957627 0.250000
Si Si6 0.195702 0.967517 0.572695
O O1 0.216993 0.817398 0.317632
O O2 0.516089 0.857807 0.494953
O O3 0.346001 0.916505 0.284977
O O4 0.209444 0.913098 0.484306
O O5 0.114638 0.876943 0.872351
O O6 0.162999 0.950111 0.713326
O O7 0.500000 0.221889 0.750000
O O8 0.207478 0.195936 0.557158
O O9 0.209762 0.287183 0.677356
O O10 0.613448 0.994383 0.380169
O O11 0.000000 0.000000 0.500000
#
# Coordination Sequence:
#
# PCOD9267242 Si02
#       6
#     8   4   8   8   4   8
#     4  11  22  42  71  99 136 182 226 283 348 412
#     4  12  24  41  64  92 134 179 224 286 348 400
#     4   9  18  37  68 101 134 176 219 272 350 416
#     4  10  19  38  69  97 135 178 214 273 347 415
#     4  12  22  45  68 100 134 177 234 294 352 408
#     4  12  27  44  67  99 135 183 237 291 343 408
#
# _framework density 23.325019999999999
#
# number of rings (size 3 to 8) (size 9 to 14) (size 15 to 20)
#    0.000    1.200    4.000    4.200    0.000    0.000 
#    0.000    1.000    8.800    0.000    0.000    0.000 
#    0.000    0.000    0.000    0.000    0.000    0.000 
#
# Total GULP energy -111761.211159 kJ/mol
# GULP energy per Si atom -5588.060558 kJ/mol
# Density = 2.327193 g / cm^3
# Si number density = 23.325020 Si / 1000 Ang^3
#
#
#
# Elastic Constant Matrix: (Units=GPa)
#
#
# Indices 1 2 3 4 5 6 
#
# 1 48.6340 14.7404 2.1141 0.0000 0.4614 0.0000
# 2 14.7404 81.4281 12.3376 0.0000 2.2674 0.0000
# 3 2.1141 12.3376 50.8041 0.0000 13.8260 0.0000
# 4 0.0000 0.0000 0.0000 64.6035 0.0000 -63.2675
# 5 0.4614 2.2674 13.8260 0.0000 43.6738 0.0000
# 6 0.0000 0.0000 0.0000 -63.2675 0.0000 248.1197
#
#
#
# Elastic Compliance Matrix: (Units=1/GPa)
#
#
# Indices 1 2 3 4 5 6 
#
# 1 0.021756 -0.003947 0.000066 0.000000 -0.000046 0.000000
# 2 -0.003947 0.013471 -0.003204 0.000000 0.000357 0.000000
# 3 0.000066 -0.003204 0.022338 0.000000 -0.006906 0.000000
# 4 0.000000 0.000000 0.000000 0.020631 0.000000 0.005261
# 5 -0.000046 0.000357 -0.006906 0.000000 0.025065 0.000000
# 6 0.000000 0.000000 0.000000 0.005261 0.000000 0.005372
#
#
# Mechanical properties :
#
#
# Convention : Reuss Voigt Hill
#
# Bulk Modulus (GPa) = 23.04482 26.58339 24.81410
# Shear Modulus (GPa) = 36.42508 81.39099 58.90804
#
# Velocity S-wave (km/s) = 3.95604 5.91355 5.03092
# Velocity P-wave (km/s) = 5.54692 7.61895 6.66396
#
# Compressibility (1/GPa) = 0.04339371
#
# Stress axis : x y z
#
# Youngs Moduli (GPa) = 45.96518 74.23455 44.76622
#
# Poissons Ratio (x) = 0.29300 -0.00294
# Poissons Ratio (y) = 0.18142 0.14344
# Poissons Ratio (z) = -0.00302 0.23786
#
# Static dielectric constant tensor:
#      x y z
#    x 1.917810 0.000000 -0.008920 
#    y 0.000000 1.988470 0.000000 
#    z -0.008920 0.000000 1.514280 
# 
# From -- ./inp_files/79558.got.cif
#   From: 2010.05.17/outbox.cif.g08.bks.cpg/sg15_40_cif.got.tgz:79558.got - 2010.06.03 18:47:42.
