data_PCOD9267467
_publ_section_title
;
Structure prediction by ZEFSAII (Michael W. Deem and Ramdas Pophale) SiO2 
 PCOD9267467
Probable space group: C 2/C
;
_chemical_formula_sum "Si O2"
_cell_formula_units_Z 52
_cell_length_a 11.063499
_cell_length_b 13.453301
_cell_length_c 21.345383
_cell_angle_alpha 90.000000
_cell_angle_beta 135.435689
_cell_angle_gamma 90.000000
_cell_volume 2229.372336
_symmetry_space_group_name_H-M "C 2/C"
_symmetry_group_IT_number 15
_symmetry_cell_setting 'monoclinic'
loop_
_space_group_symop_operation_xyz
x,y,z
-x,y,1/2-z
-x,-y,-z
x,-y,1/2+z
1/2+x,1/2+y,z
1/2-x,1/2+y,1/2-z
1/2-x,1/2-y,-z
1/2+x,1/2-y,1/2+z
loop_
_atom_site_type_symbol
_atom_site_label
_atom_site_fract_x
_atom_site_fract_y
_atom_site_fract_z
Si Si1 0.463741 0.818065 0.105023
Si Si2 0.916470 0.525083 0.035456
Si Si3 0.500000 0.745788 0.250000
Si Si4 0.430323 0.600480 0.555766
Si Si5 0.434657 0.375675 0.915489
Si Si6 0.635384 0.628613 0.746602
Si Si7 0.749354 0.904718 0.725217
O O1 0.374944 0.916341 0.047255
O O2 0.431272 0.809079 0.166789
O O3 0.439873 0.711849 0.063125
O O4 0.669615 0.836779 0.171491
O O5 0.056385 0.577826 0.131292
O O6 0.745931 0.590212 0.970541
O O7 0.000000 0.500000 0.000000
O O8 0.649715 0.676817 0.277522
O O9 0.491976 0.487059 0.565379
O O10 0.400054 0.644437 0.475666
O O11 0.565294 0.654363 0.651267
O O12 0.274122 0.378406 0.807516
O O13 0.500000 0.658702 0.750000
O O14 0.652441 0.508601 0.751795
#
# Coordination Sequence:
#
# PCOD9267467 Si02
#       7
#     8   8   4   8   8   8   8
#     4  10  23  40  64  94 124 157 216 258 306 373
#     4  11  24  39  61  96 125 168 211 262 309 381
#     4  10  20  40  66  92 114 162 210 262 308 368
#     4  10  21  40  65  89 129 164 205 255 320 377
#     4   9  21  41  61  92 124 168 202 259 319 365
#     4  10  19  39  64  84 118 171 202 244 306 383
#     4   9  19  38  65  84 124 166 207 241 320 389
#
# _framework density 23.324950999999999
#
# number of rings (size 3 to 8) (size 9 to 14) (size 15 to 20)
#    0.000    2.154    0.769    1.846    4.308    6.154 
#   11.077    1.538    0.000    0.000    0.000    0.000 
#    0.000    0.000    0.000    0.000    0.000    0.000 
#
# Total GULP energy -145383.568381 kJ/mol
# GULP energy per Si atom -5591.675707 kJ/mol
# Density = 2.327186 g / cm^3
# Si number density = 23.324951 Si / 1000 Ang^3
#
#
#
# Elastic Constant Matrix: (Units=GPa)
#
#
# Indices 1 2 3 4 5 6 
#
# 1 71.2821 -4.0394 30.1445 0.0000 -13.7771 0.0000
# 2 -4.0394 62.0501 12.8030 0.0000 -11.9913 0.0000
# 3 30.1445 12.8030 73.7454 0.0000 -6.4876 0.0000
# 4 0.0000 0.0000 0.0000 29.8559 0.0000 -4.7853
# 5 -13.7771 -11.9913 -6.4876 0.0000 45.1161 0.0000
# 6 0.0000 0.0000 0.0000 -4.7853 0.0000 24.7134
#
#
#
# Elastic Compliance Matrix: (Units=1/GPa)
#
#
# Indices 1 2 3 4 5 6 
#
# 1 0.018633 0.003906 -0.007801 0.000000 0.005606 0.000000
# 2 0.003906 0.018308 -0.004297 0.000000 0.005441 0.000000
# 3 -0.007801 -0.004297 0.017405 0.000000 -0.001021 0.000000
# 4 0.000000 0.000000 0.000000 0.034567 0.000000 0.006693
# 5 0.005606 0.005441 -0.001021 0.000000 0.025176 0.000000
# 6 0.000000 0.000000 0.000000 0.006693 0.000000 0.041760
#
#
# Mechanical properties :
#
#
# Convention : Reuss Voigt Hill
#
# Bulk Modulus (GPa) = 26.34171 31.65487 28.99829
# Shear Modulus (GPa) = 27.04351 31.14839 29.09595
#
# Velocity S-wave (km/s) = 3.40873 3.65829 3.53571
# Velocity P-wave (km/s) = 5.17788 5.60757 5.39700
#
# Compressibility (1/GPa) = 0.03796261
#
# Stress axis : x y z
#
# Youngs Moduli (GPa) = 53.66891 54.62006 57.45428
#
# Poissons Ratio (x) = -0.21335 0.44822
# Poissons Ratio (y) = -0.20963 0.24685
# Poissons Ratio (z) = 0.41869 0.23468
#
# Static dielectric constant tensor:
#      x y z
#    x 1.850160 0.000000 0.011750 
#    y 0.000000 1.894630 0.000000 
#    z 0.011750 0.000000 1.893220 
# 
# From -- ./inp_files/197695.got.cif
#   From: 2010.05.17/outbox.cif.g08.bks.cpg/sg15_99_cif.got.tgz:197695.got - 2010.06.03 18:47:42.
