data_PCOD9267448
_publ_section_title
;
Structure prediction by ZEFSAII (Michael W. Deem and Ramdas Pophale) SiO2 
 PCOD9267448
Probable space group: C 2/C
;
_chemical_formula_sum "Si O2"
_cell_formula_units_Z 64
_cell_length_a 14.373328
_cell_length_b 16.449534
_cell_length_c 16.775749
_cell_angle_alpha 90.000000
_cell_angle_beta 133.997533
_cell_angle_gamma 90.000000
_cell_volume 2853.284009
_symmetry_space_group_name_H-M "C 2/C"
_symmetry_group_IT_number 15
_symmetry_cell_setting 'monoclinic'
loop_
_space_group_symop_operation_xyz
x,y,z
-x,y,1/2-z
-x,-y,-z
x,-y,1/2+z
1/2+x,1/2+y,z
1/2-x,1/2+y,1/2-z
1/2-x,1/2-y,-z
1/2+x,1/2-y,1/2+z
loop_
_atom_site_type_symbol
_atom_site_label
_atom_site_fract_x
_atom_site_fract_y
_atom_site_fract_z
Si Si1 0.376187 0.753284 0.871134
Si Si2 0.089461 0.887456 0.490195
Si Si3 0.656015 0.970838 0.247095
Si Si4 0.025644 0.335611 0.427667
Si Si5 0.916014 0.022262 0.340616
Si Si6 0.753322 0.649966 0.570225
Si Si7 0.136324 0.348427 0.792121
Si Si8 0.984308 0.821681 0.828271
O O1 0.275830 0.711372 0.873490
O O2 0.331003 0.786340 0.759613
O O3 0.490033 0.687205 0.925844
O O4 0.430159 0.828644 0.955467
O O5 0.238577 0.859294 0.575791
O O6 0.034607 0.959818 0.401378
O O7 0.075261 0.929231 0.569417
O O8 0.550645 0.914943 0.142663
O O9 0.785545 0.971132 0.271245
O O10 0.695570 0.929912 0.354881
O O11 0.615617 0.062469 0.240948
O O12 0.144814 0.326362 0.436789
O O13 0.947238 0.252193 0.363539
O O14 0.899024 0.097337 0.270763
O O15 0.617504 0.643206 0.444114
O O16 0.000000 0.324069 0.750000
O O17 0.000000 0.787167 0.750000
#
# Coordination Sequence:
#
# PCOD9267448 Si02
#       8
#     8   8   8   8   8   8   8   8
#     4  11  23  41  67  96 125 166 218 264 320 382
#     4  10  20  40  67  86 120 165 213 262 311 375
#     4  11  23  40  65  89 132 172 213 256 323 386
#     4  11  24  38  62  98 134 164 198 271 333 384
#     4  10  19  39  63  92 119 168 222 249 305 395
#     4  11  21  40  64  97 130 164 206 258 330 395
#     4  11  26  43  64  94 123 173 223 261 315 380
#     4  11  21  36  61  96 128 161 211 267 322 375
#
# _framework density 22.430294
#
# number of rings (size 3 to 8) (size 9 to 14) (size 15 to 20)
#    0.000    1.250    3.750    4.875    1.750    5.000 
#    0.000    3.125    0.000    0.000    0.000    0.000 
#    0.000    0.000    0.000    0.000    0.000    0.000 
#
# Total GULP energy -178752.522790 kJ/mol
# GULP energy per Si atom -5586.016337 kJ/mol
# Density = 2.237924 g / cm^3
# Si number density = 22.430294 Si / 1000 Ang^3
#
#
#
# Elastic Constant Matrix: (Units=GPa)
#
#
# Indices 1 2 3 4 5 6 
#
# 1 85.6032 22.9525 21.2145 0.0000 23.2298 0.0000
# 2 22.9525 70.9405 -1.1902 0.0000 8.4156 0.0000
# 3 21.2145 -1.1902 29.2641 0.0000 10.8980 0.0000
# 4 0.0000 0.0000 0.0000 29.2696 0.0000 3.3638
# 5 23.2298 8.4156 10.8980 0.0000 30.3233 0.0000
# 6 0.0000 0.0000 0.0000 3.3638 0.0000 35.4910
#
#
#
# Elastic Compliance Matrix: (Units=1/GPa)
#
#
# Indices 1 2 3 4 5 6 
#
# 1 0.017807 -0.004889 -0.009852 0.000000 -0.008744 0.000000
# 2 -0.004889 0.016069 0.005154 0.000000 -0.002566 0.000000
# 3 -0.009852 0.005154 0.045309 0.000000 -0.010167 0.000000
# 4 0.000000 0.000000 0.000000 0.034541 0.000000 -0.003274
# 5 -0.008744 -0.002566 -0.010167 0.000000 0.044043 0.000000
# 6 0.000000 0.000000 0.000000 -0.003274 0.000000 0.028486
#
#
# Mechanical properties :
#
#
# Convention : Reuss Voigt Hill
#
# Bulk Modulus (GPa) = 16.66368 30.19572 23.42970
# Shear Modulus (GPa) = 22.17947 28.53885 25.35916
#
# Velocity S-wave (km/s) = 3.14796 3.57085 3.36605
# Velocity P-wave (km/s) = 4.54512 5.52201 5.05720
#
# Compressibility (1/GPa) = 0.06001076
#
# Stress axis : x y z
#
# Youngs Moduli (GPa) = 56.15757 62.23105 22.07066
#
# Poissons Ratio (x) = 0.30427 0.21743
# Poissons Ratio (y) = 0.27458 -0.11374
# Poissons Ratio (z) = 0.55324 -0.32072
#
# Static dielectric constant tensor:
#      x y z
#    x 1.894950 0.000000 0.062750 
#    y 0.000000 1.882980 0.000000 
#    z 0.062750 0.000000 1.854100 
# 
# From -- ./inp_files/205739.got.cif
#   From: 2010.05.17/outbox.cif.g08.bks.cpg/sg15_103_cif.got.tgz:205739.got - 2010.06.03 18:47:42.
