data_PCOD9267770
_publ_section_title
;
Structure prediction by ZEFSAII (Michael W. Deem and Ramdas Pophale) SiO2 
 PCOD9267770
Probable space group: C 2/C
;
_chemical_formula_sum "Si O2"
_cell_formula_units_Z 56
_cell_length_a 14.957635
_cell_length_b 8.221394
_cell_length_c 23.262959
_cell_angle_alpha 90.000000
_cell_angle_beta 118.588105
_cell_angle_gamma 90.000000
_cell_volume 2511.936110
_symmetry_space_group_name_H-M "C 2/C"
_symmetry_group_IT_number 15
_symmetry_cell_setting 'monoclinic'
loop_
_space_group_symop_operation_xyz
x,y,z
-x,y,1/2-z
-x,-y,-z
x,-y,1/2+z
1/2+x,1/2+y,z
1/2-x,1/2+y,1/2-z
1/2-x,1/2-y,-z
1/2+x,1/2-y,1/2+z
loop_
_atom_site_type_symbol
_atom_site_label
_atom_site_fract_x
_atom_site_fract_y
_atom_site_fract_z
Si Si1 0.282790 0.393062 0.301804
Si Si2 0.456995 0.368807 0.442316
Si Si3 0.662128 0.422428 0.782180
Si Si4 0.459259 0.302000 0.658664
Si Si5 0.898473 0.445658 0.690100
Si Si6 0.863486 0.694092 0.517657
Si Si7 0.356054 0.823293 0.553887
O O1 0.378588 0.435331 0.371063
O O2 0.305432 0.417458 0.241522
O O3 0.250910 0.209746 0.306221
O O4 0.189793 0.509239 0.292308
O O5 0.500000 0.500000 0.500000
O O6 0.394203 0.243309 0.463212
O O7 0.550285 0.284730 0.438622
O O8 0.570280 0.347883 0.715158
O O9 0.617699 0.425742 0.832616
O O10 0.438312 0.287148 0.585191
O O11 0.432006 0.122554 0.674716
O O12 0.858996 0.345176 0.623629
O O13 0.000000 0.373348 0.750000
O O14 0.750000 0.750000 0.500000
O O15 0.869641 0.502662 0.530927
O O16 0.250000 0.750000 0.500000
#
# Coordination Sequence:
#
# PCOD9267770 Si02
#       7
#     8   8   8   8   8   8   8
#     4  11  23  39  65  93 128 172 217 283 327 402
#     4  12  25  44  66  98 140 176 230 275 336 399
#     4  10  20  37  60  90 124 161 219 261 339 386
#     4   9  18  38  62  88 122 167 207 267 322 404
#     4  10  19  40  64  90 129 173 216 273 347 398
#     4  11  22  41  71  98 130 177 222 273 341 395
#     4  11  25  43  69 100 137 180 228 280 341 411
#
# _framework density 22.293561
#
# number of rings (size 3 to 8) (size 9 to 14) (size 15 to 20)
#    0.000    1.429    2.857    5.571    2.000    0.000 
#    0.000   11.429    0.000    0.000    0.000    0.000 
#    0.000    0.000    0.000    0.000    0.000    0.000 
#
# Total GULP energy -156657.690862 kJ/mol
# GULP energy per Si atom -5594.917531 kJ/mol
# Density = 2.224282 g / cm^3
# Si number density = 22.293561 Si / 1000 Ang^3
#
#
#
# Elastic Constant Matrix: (Units=GPa)
#
#
# Indices 1 2 3 4 5 6 
#
# 1 81.7693 10.5416 26.5649 0.0000 7.9448 0.0000
# 2 10.5416 47.0097 13.5536 0.0000 0.3556 0.0000
# 3 26.5649 13.5536 88.7830 0.0000 -5.4967 0.0000
# 4 0.0000 0.0000 0.0000 32.9973 0.0000 -8.8476
# 5 7.9448 0.3556 -5.4967 0.0000 41.2654 0.0000
# 6 0.0000 0.0000 0.0000 -8.8476 0.0000 22.6177
#
#
#
# Elastic Compliance Matrix: (Units=1/GPa)
#
#
# Indices 1 2 3 4 5 6 
#
# 1 0.014141 -0.001954 -0.004134 0.000000 -0.003256 0.000000
# 2 -0.001954 0.022539 -0.002868 0.000000 -0.000200 0.000000
# 3 -0.004134 -0.002868 0.013097 0.000000 0.002565 0.000000
# 4 0.000000 0.000000 0.000000 0.033857 0.000000 0.013244
# 5 -0.003256 -0.000200 0.002565 0.000000 0.025204 0.000000
# 6 0.000000 0.000000 0.000000 0.013244 0.000000 0.049394
#
#
# Mechanical properties :
#
#
# Convention : Reuss Voigt Hill
#
# Bulk Modulus (GPa) = 31.38456 35.43137 33.40796
# Shear Modulus (GPa) = 26.77131 30.50287 28.63709
#
# Velocity S-wave (km/s) = 3.46909 3.70298 3.58794
# Velocity P-wave (km/s) = 5.49132 5.84896 5.67296
#
# Compressibility (1/GPa) = 0.03186280
#
# Stress axis : x y z
#
# Youngs Moduli (GPa) = 70.71599 44.36755 76.35220
#
# Poissons Ratio (x) = 0.08671 0.31567
# Poissons Ratio (y) = 0.13821 0.21901
# Poissons Ratio (z) = 0.29237 0.12726
#
# Static dielectric constant tensor:
#      x y z
#    x 2.006940 0.000000 -0.021280 
#    y 0.000000 1.843720 0.000000 
#    z -0.021280 0.000000 1.811400 
# 
# From -- ./inp_files/273249.got.cif
#   From: 2010.05.17/outbox.cif.g08.bks.cpg/sg15_137_cif.got.tgz:273249.got - 2010.06.03 18:47:42.
