data_PCOD9267841
_publ_section_title
;
Structure prediction by ZEFSAII (Michael W. Deem and Ramdas Pophale) SiO2 
 PCOD9267841
Probable space group: C 2/C
;
_chemical_formula_sum "Si O2"
_cell_formula_units_Z 40
_cell_length_a 10.761679
_cell_length_b 14.072014
_cell_length_c 11.357427
_cell_angle_alpha 90.000000
_cell_angle_beta 79.788105
_cell_angle_gamma 90.000000
_cell_volume 1692.705621
_symmetry_space_group_name_H-M "C 2/C"
_symmetry_group_IT_number 15
_symmetry_cell_setting 'monoclinic'
loop_
_space_group_symop_operation_xyz
x,y,z
-x,y,1/2-z
-x,-y,-z
x,-y,1/2+z
1/2+x,1/2+y,z
1/2-x,1/2+y,1/2-z
1/2-x,1/2-y,-z
1/2+x,1/2-y,1/2+z
loop_
_atom_site_type_symbol
_atom_site_label
_atom_site_fract_x
_atom_site_fract_y
_atom_site_fract_z
Si Si1 0.818818 0.514570 0.276828
Si Si2 0.453508 0.660771 0.881407
Si Si3 0.985355 0.620992 0.089147
Si Si4 0.336015 0.166338 0.643591
Si Si5 0.926260 0.119151 0.141390
O O1 0.913525 0.559901 0.354292
O O2 0.829202 0.402774 0.255753
O O3 0.681547 0.541406 0.340527
O O4 0.854770 0.570757 0.148226
O O5 0.500000 0.617707 0.750000
O O6 0.507396 0.768713 0.874029
O O7 0.299684 0.660487 0.900030
O O8 0.491395 0.618503 0.001822
O O9 0.044978 0.626139 0.950237
O O10 0.362263 0.276231 0.661117
O O11 0.000000 0.107639 0.250000
#
# Coordination Sequence:
#
# PCOD9267841 Si02
#       5
#     8   8   8   8   8
#     4  11  21  39  65  94 127 165 212 271 317 379
#     4  11  20  44  70  90 125 184 217 251 322 397
#     4  10  19  40  67  91 125 164 223 262 322 382
#     4  11  22  40  67  93 127 173 218 257 328 385
#     4  11  24  44  64 100 134 164 214 276 318 375
#
# _framework density 23.630806
#
# number of rings (size 3 to 8) (size 9 to 14) (size 15 to 20)
#    0.000    1.200    6.000    1.800    2.800    0.800 
#    3.600    7.000    0.000    0.000    0.000    0.000 
#    0.000    0.000    0.000    0.000    0.000    0.000 
#
# Total GULP energy -111753.886571 kJ/mol
# GULP energy per Si atom -5587.694329 kJ/mol
# Density = 2.357702 g / cm^3
# Si number density = 23.630806 Si / 1000 Ang^3
#
#
#
# Elastic Constant Matrix: (Units=GPa)
#
#
# Indices 1 2 3 4 5 6 
#
# 1 38.2850 -3.7452 29.8504 0.0000 7.1031 0.0000
# 2 -3.7452 109.3220 40.4663 0.0000 -5.9680 0.0000
# 3 29.8504 40.4663 147.3671 0.0000 -2.4102 0.0000
# 4 0.0000 0.0000 0.0000 6.5675 0.0000 10.6445
# 5 7.1031 -5.9680 -2.4102 0.0000 31.8007 0.0000
# 6 0.0000 0.0000 0.0000 10.6445 0.0000 16.4586
#
#
#
# Elastic Compliance Matrix: (Units=1/GPa)
#
#
# Indices 1 2 3 4 5 6 
#
# 1 0.034184 0.003749 -0.008077 0.000000 -0.007544 0.000000
# 2 0.003749 0.010686 -0.003679 0.000000 0.000889 0.000000
# 3 -0.008077 -0.003679 0.009462 0.000000 0.001831 0.000000
# 4 0.000000 0.000000 0.000000 -3.156438 0.000000 2.041414
# 5 -0.007544 0.000889 0.001831 0.000000 0.033437 0.000000
# 6 0.000000 0.000000 0.000000 2.041414 0.000000 -1.259518
#
#
# Mechanical properties :
#
#
# Convention : Reuss Voigt Hill
#
# Bulk Modulus (GPa) = 26.09768 47.56859 36.83313
# Shear Modulus (GPa) = -1.16295 26.19218 12.51462
#
# Velocity S-wave (km/s) = -0.70228 3.33286 2.30378
# Velocity P-wave (km/s) = 3.22650 5.91475 4.76416
#
# Compressibility (1/GPa) = 0.03831758
#
# Stress axis : x y z
#
# Youngs Moduli (GPa) = 29.25355 93.57905 105.68486
#
# Poissons Ratio (x) = -0.35083 0.85362
# Poissons Ratio (y) = -0.10967 0.38884
# Poissons Ratio (z) = 0.23628 0.34430
#
# Static dielectric constant tensor:
#      x y z
#    x 1.894300 0.000000 -0.006080 
#    y 0.000000 1.899500 0.000000 
#    z -0.006080 0.000000 2.007890 
# 
# From -- ./inp_files/85517.got.cif
#   From: 2010.05.17/outbox.cif.g08.bks.cpg/sg15_43_cif.got.tgz:85517.got - 2010.06.03 18:47:42.
