data_PCOD9267572
_publ_section_title
;
Structure prediction by ZEFSAII (Michael W. Deem and Ramdas Pophale) SiO2 
 PCOD9267572
Probable space group: C 2/C
;
_chemical_formula_sum "Si O2"
_cell_formula_units_Z 60
_cell_length_a 19.431537
_cell_length_b 13.580849
_cell_length_c 28.917942
_cell_angle_alpha 90.000000
_cell_angle_beta 21.776462
_cell_angle_gamma 90.000000
_cell_volume 2831.127368
_symmetry_space_group_name_H-M "C 2/C"
_symmetry_group_IT_number 15
_symmetry_cell_setting 'monoclinic'
loop_
_space_group_symop_operation_xyz
x,y,z
-x,y,1/2-z
-x,-y,-z
x,-y,1/2+z
1/2+x,1/2+y,z
1/2-x,1/2+y,1/2-z
1/2-x,1/2-y,-z
1/2+x,1/2-y,1/2+z
loop_
_atom_site_type_symbol
_atom_site_label
_atom_site_fract_x
_atom_site_fract_y
_atom_site_fract_z
Si Si1 0.770972 0.737654 0.135900
Si Si2 0.275568 0.987639 0.015915
Si Si3 0.598585 0.839798 0.851788
Si Si4 0.473668 0.914757 0.212494
Si Si5 0.292554 0.431142 0.590066
Si Si6 0.371616 0.325098 0.452641
Si Si7 0.000000 0.895382 0.750000
Si Si8 0.482529 0.374142 0.564668
O O1 0.890837 0.683310 0.100192
O O2 0.674917 0.838148 0.215017
O O3 0.601360 0.670936 0.225095
O O4 0.890992 0.776733 0.017110
O O5 0.128231 0.920539 0.079659
O O6 0.162671 0.040618 0.126190
O O7 0.442371 0.918954 0.932887
O O8 0.360556 0.066253 0.926251
O O9 0.551411 0.735885 0.855778
O O10 0.804515 0.871184 0.708006
O O11 0.500000 0.882847 0.250000
O O12 0.385895 0.023134 0.274176
O O13 0.267075 0.356034 0.564813
O O14 0.411385 0.383802 0.556315
O O15 0.398274 0.526696 0.503145
O O16 0.250000 0.250000 0.500000
#
# Coordination Sequence:
#
# PCOD9267572 Si02
#       8
#     8   8   8   8   8   8   4   8
#     4  11  26  44  66  99 134 177 219 283 334 403
#     4  11  26  45  66  97 136 185 222 275 330 411
#     4  11  24  43  70  98 127 176 227 278 337 390
#     4  11  21  41  72  98 127 166 231 280 331 376
#     4  10  19  39  66  97 128 161 218 287 326 384
#     4  10  22  41  63  98 134 170 219 270 339 386
#     4  12  30  48  60  96 150 186 222 250 350 430
#     4  10  22  39  67 101 127 164 228 280 332 386
#
# _framework density 21.192969999999999
#
# number of rings (size 3 to 8) (size 9 to 14) (size 15 to 20)
#    0.000    1.333    4.667    0.000    3.733    2.133 
#    0.000    0.000    0.000    0.000    0.000    0.000 
#    0.000    0.000    0.000    0.000    0.000    0.000 
#
# Total GULP energy -167370.997600 kJ/mol
# GULP energy per Si atom -5579.033253 kJ/mol
# Density = 2.114473 g / cm^3
# Si number density = 21.192970 Si / 1000 Ang^3
#
#
#
# Elastic Constant Matrix: (Units=GPa)
#
#
# Indices 1 2 3 4 5 6 
#
# 1 82.6393 15.4813 -3.3783 0.0009 -1.2345 0.0006
# 2 15.4813 43.3244 23.1696 0.0083 13.7998 -0.0009
# 3 -3.3783 23.1696 104.8918 0.0048 12.3125 0.0016
# 4 0.0009 0.0083 0.0048 26.1036 0.0088 -3.8090
# 5 -1.2345 13.7998 12.3125 0.0088 25.0710 -0.0002
# 6 0.0006 -0.0009 0.0016 -3.8090 -0.0002 22.3153
#
#
#
# Elastic Compliance Matrix: (Units=1/GPa)
#
#
# Indices 1 2 3 4 5 6 
#
# 1 0.013489 -0.006792 0.001505 0.000000 0.003664 -0.000001
# 2 -0.006792 0.033713 -0.005782 -0.000004 -0.016052 0.000001
# 3 0.001505 -0.005782 0.011118 0.000000 -0.002204 -0.000001
# 4 0.000000 -0.000004 0.000000 0.039287 -0.000012 0.006706
# 5 0.003664 -0.016052 -0.002204 -0.000012 0.049985 -0.000002
# 6 -0.000001 0.000001 -0.000001 0.006706 -0.000002 0.045957
#
#
# Mechanical properties :
#
#
# Convention : Reuss Voigt Hill
#
# Bulk Modulus (GPa) = 27.63714 33.48899 30.56306
# Shear Modulus (GPa) = 21.95405 27.73683 24.84544
#
# Velocity S-wave (km/s) = 3.22205 3.62162 3.42766
# Velocity P-wave (km/s) = 5.18760 5.77273 5.48797
#
# Compressibility (1/GPa) = 0.03618320
#
# Stress axis : x y z
#
# Youngs Moduli (GPa) = 74.13234 29.66175 89.94545
#
# Poissons Ratio (x) = 0.20146 -0.13534
# Poissons Ratio (y) = 0.50350 0.52002
# Poissons Ratio (z) = -0.11154 0.17149
#
# Static dielectric constant tensor:
#      x y z
#    x 1.802500 0.000000 -0.037050 
#    y 0.000000 1.789980 0.000010 
#    z -0.037050 0.000010 1.783470 
# 
# From -- ./inp_files/317929.got.cif
#   From: 2010.05.17/outbox.cif.g08.bks.cpg/sg15_159_cif.got.tgz:317929.got - 2010.06.03 18:47:42.
