data_PCOD9267249
_publ_section_title
;
Structure prediction by ZEFSAII (Michael W. Deem and Ramdas Pophale) SiO2 
 PCOD9267249
Probable space group: C 2/C
;
_chemical_formula_sum "Si O2"
_cell_formula_units_Z 52
_cell_length_a 22.337669
_cell_length_b 25.423163
_cell_length_c 5.214467
_cell_angle_alpha 90.000000
_cell_angle_beta 59.866511
_cell_angle_gamma 90.000000
_cell_volume 2561.074638
_symmetry_space_group_name_H-M "C 2/C"
_symmetry_group_IT_number 15
_symmetry_cell_setting 'monoclinic'
loop_
_space_group_symop_operation_xyz
x,y,z
-x,y,1/2-z
-x,-y,-z
x,-y,1/2+z
1/2+x,1/2+y,z
1/2-x,1/2+y,1/2-z
1/2-x,1/2-y,-z
1/2+x,1/2-y,1/2+z
loop_
_atom_site_type_symbol
_atom_site_label
_atom_site_fract_x
_atom_site_fract_y
_atom_site_fract_z
Si Si1 0.144230 0.601563 0.936575
Si Si2 0.957634 0.124079 0.600810
Si Si3 0.767912 0.590196 0.232156
Si Si4 0.371062 0.528164 0.975278
Si Si5 0.794440 0.710862 0.724787
Si Si6 0.182638 0.816390 0.073234
Si Si7 0.000000 0.538044 0.250000
O O1 0.190790 0.575533 0.612736
O O2 0.150715 0.664026 0.842524
O O3 0.179817 0.594034 0.139424
O O4 0.068606 0.575153 0.100548
O O5 0.928903 0.068179 0.755199
O O6 0.889374 0.158012 0.706692
O O7 0.000000 0.146692 0.750000
O O8 0.000000 0.120704 0.250000
O O9 0.705220 0.550621 0.418804
O O10 0.726314 0.645978 0.284952
O O11 0.378201 0.479577 0.764333
O O12 0.829260 0.756010 0.475341
O O13 0.733862 0.682431 0.700691
O O14 0.750000 0.750000 0.000000
O O15 0.000000 0.500000 0.500000
#
# Coordination Sequence:
#
# PCOD9267249 Si02
#       7
#     8   8   8   8   8   8   4
#     4  11  23  41  66  95 124 164 213 255 320 388
#     4  11  25  41  59  84 127 170 205 243 304 377
#     4  10  21  38  64  93 123 155 205 272 316 374
#     4  11  23  38  60  90 119 155 213 266 303 353
#     4  10  19  38  70  96 125 156 201 266 329 372
#     4   9  21  38  61  95 125 163 200 253 326 377
#     4  12  28  48  64  88 134 182 216 262 318 386
#
# _framework density 20.303975999999999
#
# number of rings (size 3 to 8) (size 9 to 14) (size 15 to 20)
#    0.000    1.538    1.538    2.769    2.154    8.000 
#    1.385    0.000    0.000    0.000    0.000    0.000 
#    0.000    0.000    0.000    0.000    0.000    0.000 
#
# Total GULP energy -144927.679191 kJ/mol
# GULP energy per Si atom -5574.141507 kJ/mol
# Density = 2.025776 g / cm^3
# Si number density = 20.303976 Si / 1000 Ang^3
#
#
#
# Elastic Constant Matrix: (Units=GPa)
#
#
# Indices 1 2 3 4 5 6 
#
# 1 524.8653 -66.2468 48.9812 0.0000 34.6600 0.0000
# 2 -66.2468 102.4995 43.3085 0.0000 -32.3722 0.0000
# 3 48.9812 43.3085 130.7585 0.0000 -16.4677 0.0000
# 4 0.0000 0.0000 0.0000 7.0902 0.0000 0.6909
# 5 34.6600 -32.3722 -16.4677 0.0000 46.8715 0.0000
# 6 0.0000 0.0000 0.0000 0.6909 0.0000 29.9454
#
#
#
# Elastic Compliance Matrix: (Units=1/GPa)
#
#
# Indices 1 2 3 4 5 6 
#
# 1 0.002366 0.001904 -0.001644 0.000000 -0.001012 0.000000
# 2 0.001904 0.015425 -0.004874 0.000000 0.007533 0.000000
# 3 -0.001644 -0.004874 0.010052 0.000000 0.001382 0.000000
# 4 0.000000 0.000000 0.000000 0.141358 0.000000 -0.003262
# 5 -0.001012 0.007533 0.001382 0.000000 0.027772 0.000000
# 6 0.000000 0.000000 0.000000 -0.003262 0.000000 0.033469
#
#
# Mechanical properties :
#
#
# Convention : Reuss Voigt Hill
#
# Bulk Modulus (GPa) = 53.71848 90.02322 71.87085
# Shear Modulus (GPa) = 20.33556 65.58678 42.96117
#
# Velocity S-wave (km/s) = 3.16817 5.68969 4.60488
# Velocity P-wave (km/s) = 6.31646 9.35935 7.98420
#
# Compressibility (1/GPa) = 0.01861557
#
# Stress axis : x y z
#
# Youngs Moduli (GPa) = 422.67304 64.82847 99.48402
#
# Poissons Ratio (x) = -0.12345 0.16359
# Poissons Ratio (y) = -0.80489 0.48485
# Poissons Ratio (z) = 0.69505 0.31595
#
# Static dielectric constant tensor:
#      x y z
#    x 1.745100 0.000000 0.083980 
#    y 0.000000 1.848630 0.000000 
#    z 0.083980 0.000000 1.856610 
# 
# From -- ./inp_files/13647.got.cif
#   From: 2010.05.17/outbox.cif.g08.bks.cpg/sg15_7_cif.got.tgz:13647.got - 2010.06.03 18:47:42.
