data_PCOD9267940
_publ_section_title
;
Structure prediction by ZEFSAII (Michael W. Deem and Ramdas Pophale) SiO2 
 PCOD9267940
Probable space group: C 2/C
;
_chemical_formula_sum "Si O2"
_cell_formula_units_Z 44
_cell_length_a 11.878668
_cell_length_b 7.178224
_cell_length_c 28.161811
_cell_angle_alpha 90.000000
_cell_angle_beta 45.991908
_cell_angle_gamma 90.000000
_cell_volume 1727.110722
_symmetry_space_group_name_H-M "C 2/C"
_symmetry_group_IT_number 15
_symmetry_cell_setting 'monoclinic'
loop_
_space_group_symop_operation_xyz
x,y,z
-x,y,1/2-z
-x,-y,-z
x,-y,1/2+z
1/2+x,1/2+y,z
1/2-x,1/2+y,1/2-z
1/2-x,1/2-y,-z
1/2+x,1/2-y,1/2+z
loop_
_atom_site_type_symbol
_atom_site_label
_atom_site_fract_x
_atom_site_fract_y
_atom_site_fract_z
Si Si1 0.649309 0.244082 0.481421
Si Si2 0.802973 0.854438 0.700127
Si Si3 0.500000 0.830253 0.750000
Si Si4 0.089770 0.350995 0.153482
Si Si5 0.693155 0.780258 0.836252
Si Si6 0.107396 0.325767 0.509320
O O1 0.750000 0.250000 0.500000
O O2 0.752443 0.386002 0.420682
O O3 0.473462 0.277158 0.512688
O O4 0.661316 0.020765 0.470744
O O5 0.668100 0.744091 0.710710
O O6 0.826338 0.058170 0.670510
O O7 0.741138 0.867994 0.772236
O O8 0.963995 0.744625 0.656711
O O9 0.474348 0.968695 0.801897
O O10 0.154736 0.211179 0.174642
O O11 0.538793 0.844999 0.909956
O O12 0.250000 0.250000 0.500000
#
# Coordination Sequence:
#
# PCOD9267940 Si02
#       6
#     8   8   4   8   8   8
#     4  10  23  39  65  90 118 166 209 245 300 368
#     4  11  19  39  57  87 115 155 196 244 304 355
#     4  10  22  36  56  86 120 152 188 252 304 354
#     4  10  19  41  61  82 122 158 191 248 307 350
#     4  10  22  37  65  84 123 162 195 252 303 361
#     4  10  22  43  59  91 127 159 205 255 305 354
#
# _framework density 25.476073
#
# number of rings (size 3 to 8) (size 9 to 14) (size 15 to 20)
#    0.000    1.818    3.636    1.091    2.545    0.727 
#    6.545    0.000    0.000    0.000    0.000    0.000 
#    0.000    0.000    0.000    0.000    0.000    0.000 
#
# Total GULP energy -122592.032046 kJ/mol
# GULP energy per Si atom -5572.365093 kJ/mol
# Density = 2.541809 g / cm^3
# Si number density = 25.476073 Si / 1000 Ang^3
#
#
#
# Elastic Constant Matrix: (Units=GPa)
#
#
# Indices 1 2 3 4 5 6 
#
# 1 257.4560 46.2850 25.6598 0.0003 -25.3210 0.0006
# 2 46.2850 68.0084 -3.1132 0.0006 -9.6382 0.0010
# 3 25.6598 -3.1132 56.1236 -0.0003 -10.9457 -0.0004
# 4 0.0003 0.0006 -0.0003 1.3527 0.0002 -7.5345
# 5 -25.3210 -9.6382 -10.9457 0.0002 44.8408 0.0004
# 6 0.0006 0.0010 -0.0004 -7.5345 0.0004 30.4704
#
#
#
# Elastic Compliance Matrix: (Units=1/GPa)
#
#
# Indices 1 2 3 4 5 6 
#
# 1 0.004808 -0.003150 -0.002074 0.000001 0.001532 0.000000
# 2 -0.003150 0.017360 0.002923 0.000026 0.002666 0.000006
# 3 -0.002074 0.002923 0.019763 -0.000009 0.004281 -0.000002
# 4 0.000001 0.000026 -0.000009 -1.959297 0.000018 -0.484478
# 5 0.001532 0.002666 0.004281 0.000018 0.024784 0.000004
# 6 0.000000 0.000006 -0.000002 -0.484478 0.000004 -0.086979
#
#
# Mechanical properties :
#
#
# Convention : Reuss Voigt Hill
#
# Bulk Modulus (GPa) = 26.78921 57.69458 42.24190
# Shear Modulus (GPa) = -2.54775 36.18319 16.81772
#
# Velocity S-wave (km/s) = -1.00111 3.77275 2.57210
# Velocity P-wave (km/s) = 3.03347 6.45554 5.04360
#
# Compressibility (1/GPa) = 0.03732846
#
# Stress axis : x y z
#
# Youngs Moduli (GPa) = 207.99469 57.60520 50.59895
#
# Poissons Ratio (x) = 0.18146 0.10495
# Poissons Ratio (y) = 0.65518 -0.14791
# Poissons Ratio (z) = 0.43142 -0.16839
#
# Static dielectric constant tensor:
#      x y z
#    x 2.104190 0.000000 0.062390 
#    y 0.000000 2.033120 0.000000 
#    z 0.062390 0.000000 2.059920 
# 
# From -- ./inp_files/267585.got.cif
#   From: 2010.05.17/outbox.cif.g08.bks.cpg/sg15_134_cif.got.tgz:267585.got - 2010.06.03 18:47:42.
