data_PCOD9267178
_publ_section_title
;
Structure prediction by ZEFSAII (Michael W. Deem and Ramdas Pophale) SiO2 
 PCOD9267178
Probable space group: C 2/C
;
_chemical_formula_sum "Si O2"
_cell_formula_units_Z 56
_cell_length_a 11.402724
_cell_length_b 14.694075
_cell_length_c 17.499716
_cell_angle_alpha 90.000000
_cell_angle_beta 65.768350
_cell_angle_gamma 90.000000
_cell_volume 2673.782047
_symmetry_space_group_name_H-M "C 2/C"
_symmetry_group_IT_number 15
_symmetry_cell_setting 'monoclinic'
loop_
_space_group_symop_operation_xyz
x,y,z
-x,y,1/2-z
-x,-y,-z
x,-y,1/2+z
1/2+x,1/2+y,z
1/2-x,1/2+y,1/2-z
1/2-x,1/2-y,-z
1/2+x,1/2-y,1/2+z
loop_
_atom_site_type_symbol
_atom_site_label
_atom_site_fract_x
_atom_site_fract_y
_atom_site_fract_z
Si Si1 0.783311 0.644896 0.014948
Si Si2 0.676348 0.267921 0.876167
Si Si3 0.070949 0.203016 0.160051
Si Si4 0.098430 0.187664 0.791708
Si Si5 0.786193 0.604434 0.848676
Si Si6 0.970021 0.326434 0.952538
Si Si7 0.386803 0.917328 0.832974
O O1 0.677280 0.631317 0.106741
O O2 0.920899 0.643158 0.016963
O O3 0.750000 0.750000 0.000000
O O4 0.759887 0.588886 0.945453
O O5 0.537004 0.279869 0.874789
O O6 0.774064 0.220445 0.789741
O O7 0.754107 0.361201 0.867632
O O8 0.643563 0.216497 0.964771
O O9 0.135308 0.299512 0.169930
O O10 0.000000 0.162363 0.250000
O O11 0.160327 0.112975 0.831162
O O12 0.000000 0.163446 0.750000
O O13 0.031102 0.255197 0.873348
O O14 0.864862 0.516513 0.804448
O O15 0.930852 0.409912 0.908861
O O16 0.500000 0.874145 0.750000
#
# Coordination Sequence:
#
# PCOD9267178 Si02
#       7
#     8   8   8   8   8   8   8
#     4  10  19  38  66  98 128 170 221 271 308 388
#     4  12  22  39  69  98 126 179 223 256 324 398
#     4  11  19  36  71  96 123 178 225 258 313 396
#     4  12  23  42  70  95 127 176 223 266 320 396
#     4  11  23  44  66  95 134 167 213 278 334 374
#     4  12  21  42  70  96 132 173 227 263 317 396
#     4  12  27  42  63 100 138 166 210 289 330 369
#
# _framework density 20.944115
#
# number of rings (size 3 to 8) (size 9 to 14) (size 15 to 20)
#    0.000    0.571   10.000    0.857    0.000    0.571 
#    0.000    3.571    0.000    0.000    0.000    0.000 
#    0.000    0.000    0.000    0.000    0.000    0.000 
#
# Total GULP energy -155937.546355 kJ/mol
# GULP energy per Si atom -5569.198084 kJ/mol
# Density = 2.089645 g / cm^3
# Si number density = 20.944115 Si / 1000 Ang^3
#
#
#
# Elastic Constant Matrix: (Units=GPa)
#
#
# Indices 1 2 3 4 5 6 
#
# 1 138.6029 32.1792 12.7709 0.0000 23.1343 0.0000
# 2 32.1792 23.4362 10.4446 0.0000 3.9676 0.0000
# 3 12.7709 10.4446 121.9769 0.0000 -9.1406 0.0000
# 4 0.0000 0.0000 0.0000 8.9801 0.0000 -2.7026
# 5 23.1343 3.9676 -9.1406 0.0000 47.0586 0.0000
# 6 0.0000 0.0000 0.0000 -2.7026 0.0000 15.1797
#
#
#
# Elastic Compliance Matrix: (Units=1/GPa)
#
#
# Indices 1 2 3 4 5 6 
#
# 1 0.011413 -0.014809 -0.000258 0.000000 -0.004412 0.000000
# 2 -0.014809 0.064556 -0.003896 0.000000 0.001081 0.000000
# 3 -0.000258 -0.003896 0.008720 0.000000 0.002149 0.000000
# 4 0.000000 0.000000 0.000000 0.117662 0.000000 0.020949
# 5 -0.004412 0.001081 0.002149 0.000000 0.023745 0.000000
# 6 0.000000 0.000000 0.000000 0.020949 0.000000 0.069607
#
#
# Mechanical properties :
#
#
# Convention : Reuss Voigt Hill
#
# Bulk Modulus (GPa) = 21.38428 43.86728 32.62578
# Shear Modulus (GPa) = 14.31769 29.48510 21.90139
#
# Velocity S-wave (km/s) = 2.61744 3.75613 3.23725
# Velocity P-wave (km/s) = 4.40079 6.30887 5.43915
#
# Compressibility (1/GPa) = 0.04676332
#
# Stress axis : x y z
#
# Youngs Moduli (GPa) = 87.61715 15.49033 114.68032
#
# Poissons Ratio (x) = 0.22940 0.02953
# Poissons Ratio (y) = 1.29755 0.44683
# Poissons Ratio (z) = 0.02256 0.06035
#
# Static dielectric constant tensor:
#      x y z
#    x 1.792830 0.000000 -0.054330 
#    y 0.000000 1.765280 0.000000 
#    z -0.054330 0.000000 1.942250 
# 
# From -- ./inp_files/198237.got.cif
#   From: 2010.05.17/outbox.cif.g08.bks.cpg/sg15_100_cif.got.tgz:198237.got - 2010.06.03 18:47:42.
