data_PCOD9267591
_publ_section_title
;
Structure prediction by ZEFSAII (Michael W. Deem and Ramdas Pophale) SiO2 
 PCOD9267591
Probable space group: C 2/C
;
_chemical_formula_sum "Si O2"
_cell_formula_units_Z 44
_cell_length_a 11.771823
_cell_length_b 12.819977
_cell_length_c 13.186866
_cell_angle_alpha 90.000000
_cell_angle_beta 81.713744
_cell_angle_gamma 90.000000
_cell_volume 1969.313531
_symmetry_space_group_name_H-M "C 2/C"
_symmetry_group_IT_number 15
_symmetry_cell_setting 'monoclinic'
loop_
_space_group_symop_operation_xyz
x,y,z
-x,y,1/2-z
-x,-y,-z
x,-y,1/2+z
1/2+x,1/2+y,z
1/2-x,1/2+y,1/2-z
1/2-x,1/2-y,-z
1/2+x,1/2-y,1/2+z
loop_
_atom_site_type_symbol
_atom_site_label
_atom_site_fract_x
_atom_site_fract_y
_atom_site_fract_z
Si Si1 0.789452 0.836003 0.914309
Si Si2 0.559564 0.095999 0.352664
Si Si3 0.453330 0.661132 0.132193
Si Si4 0.105892 0.368184 0.438286
Si Si5 0.647155 0.571616 0.550501
Si Si6 0.500000 0.473780 0.250000
O O1 0.686336 0.853346 0.848008
O O2 0.915680 0.807458 0.857993
O O3 0.818276 0.949159 0.960360
O O4 0.750000 0.750000 0.000000
O O5 0.500000 0.107929 0.250000
O O6 0.484125 0.140713 0.456808
O O7 0.576326 0.973554 0.380074
O O8 0.389954 0.770120 0.137100
O O9 0.422931 0.555968 0.196394
O O10 0.438275 0.616911 0.020788
O O11 0.230747 0.374797 0.471220
O O12 0.583113 0.586790 0.665537
#
# Coordination Sequence:
#
# PCOD9267591 Si02
#       6
#     8   8   8   8   8   4
#     4  10  19  39  67  93 129 175 214 267 337 395
#     4  10  22  41  67 101 136 175 224 272 335 413
#     4  11  22  42  67  96 133 172 221 276 334 404
#     4  10  22  41  68  98 135 175 216 282 339 387
#     4  10  23  42  64  94 134 173 221 276 330 393
#     4  10  22  40  60  90 130 180 222 262 330 388
#
# _framework density 22.342811000000001
#
# number of rings (size 3 to 8) (size 9 to 14) (size 15 to 20)
#    0.000    1.818    1.818    2.727    1.273    4.364 
#    1.636   12.727    0.000    0.000    0.000    0.000 
#    0.000    0.000    0.000    0.000    0.000    0.000 
#
# Total GULP energy -122685.283880 kJ/mol
# GULP energy per Si atom -5576.603813 kJ/mol
# Density = 2.229196 g / cm^3
# Si number density = 22.342811 Si / 1000 Ang^3
#
#
#
# Elastic Constant Matrix: (Units=GPa)
#
#
# Indices 1 2 3 4 5 6 
#
# 1 100.4666 -5.5264 26.3232 0.0000 26.5532 0.0000
# 2 -5.5264 43.4785 2.0270 0.0000 15.3078 0.0000
# 3 26.3232 2.0270 88.1898 0.0000 26.6167 0.0000
# 4 0.0000 0.0000 0.0000 34.1357 0.0000 1.3817
# 5 26.5532 15.3078 26.6167 0.0000 37.9251 0.0000
# 6 0.0000 0.0000 0.0000 1.3817 0.0000 13.3986
#
#
#
# Elastic Compliance Matrix: (Units=1/GPa)
#
#
# Indices 1 2 3 4 5 6 
#
# 1 0.013409 0.005659 -0.000773 0.000000 -0.011130 0.000000
# 2 0.005659 0.030007 0.003137 0.000000 -0.018276 0.000000
# 3 -0.000773 0.003137 0.014865 0.000000 -0.011158 0.000000
# 4 0.000000 0.000000 0.000000 0.029418 0.000000 -0.003034
# 5 -0.011130 -0.018276 -0.011158 0.000000 0.049367 0.000000
# 6 0.000000 0.000000 0.000000 -0.003034 0.000000 0.074947
#
#
# Mechanical properties :
#
#
# Convention : Reuss Voigt Hill
#
# Bulk Modulus (GPa) = 13.45409 30.86472 22.15941
# Shear Modulus (GPa) = 22.65060 31.04597 26.84828
#
# Velocity S-wave (km/s) = 3.18744 3.73168 3.47025
# Velocity P-wave (km/s) = 4.42505 5.69310 5.09865
#
# Compressibility (1/GPa) = 0.07432686
#
# Stress axis : x y z
#
# Youngs Moduli (GPa) = 74.57662 33.32516 67.27027
#
# Poissons Ratio (x) = -0.18858 0.05203
# Poissons Ratio (y) = -0.42202 -0.21103
# Poissons Ratio (z) = 0.05768 -0.10454
#
# Static dielectric constant tensor:
#      x y z
#    x 1.871950 0.000000 -0.002530 
#    y 0.000000 1.840210 0.000000 
#    z -0.002530 0.000000 1.958970 
# 
# From -- ./inp_files/86200.got.cif
#   From: 2010.05.17/outbox.cif.g08.bks.cpg/sg15_44_cif.got.tgz:86200.got - 2010.06.03 18:47:42.
