data_PCOD9267511
_publ_section_title
;
Structure prediction by ZEFSAII (Michael W. Deem and Ramdas Pophale) SiO2 
 PCOD9267511
Probable space group: C 2/C
;
_chemical_formula_sum "Si O2"
_cell_formula_units_Z 60
_cell_length_a 8.661796
_cell_length_b 22.749177
_cell_length_c 23.683850
_cell_angle_alpha 90.000000
_cell_angle_beta 146.965008
_cell_angle_gamma 90.000000
_cell_volume 2544.150861
_symmetry_space_group_name_H-M "C 2/C"
_symmetry_group_IT_number 15
_symmetry_cell_setting 'monoclinic'
loop_
_space_group_symop_operation_xyz
x,y,z
-x,y,1/2-z
-x,-y,-z
x,-y,1/2+z
1/2+x,1/2+y,z
1/2-x,1/2+y,1/2-z
1/2-x,1/2-y,-z
1/2+x,1/2-y,1/2+z
loop_
_atom_site_type_symbol
_atom_site_label
_atom_site_fract_x
_atom_site_fract_y
_atom_site_fract_z
Si Si1 0.482259 0.793376 0.544103
Si Si2 0.192753 0.500835 0.185662
Si Si3 0.000000 0.558077 0.250000
Si Si4 0.593217 0.362925 0.560456
Si Si5 0.280870 0.897392 0.233420
Si Si6 0.774820 0.582900 0.004126
Si Si7 0.429202 0.214217 0.641770
Si Si8 0.255363 0.755819 0.362013
O O1 0.250000 0.750000 0.500000
O O2 0.476704 0.859816 0.562519
O O3 0.764893 0.755737 0.634232
O O4 0.394416 0.795787 0.451323
O O5 0.500000 0.512459 0.250000
O O6 0.165277 0.432359 0.192470
O O7 0.106943 0.527895 0.222631
O O8 0.959627 0.525484 0.070693
O O9 0.720520 0.596178 0.148089
O O10 0.606342 0.403995 0.509885
O O11 0.297722 0.328904 0.459143
O O12 0.808804 0.306742 0.628891
O O13 0.500000 0.913793 0.250000
O O14 0.338234 0.828498 0.260299
O O15 0.964294 0.914024 0.116860
O O16 0.539901 0.256927 0.627301
O O17 0.000000 0.784113 0.250000
#
# Coordination Sequence:
#
# PCOD9267511 Si02
#       8
#     8   8   4   8   8   8   8   8
#     4  11  20  41  66  99 146 185 236 300 364 444
#     4  11  28  48  74 111 139 193 263 313 382 443
#     4  10  22  44  72  96 144 188 236 322 370 432
#     4  10  19  39  64  96 139 184 235 285 370 442
#     4  12  24  48  73 105 145 201 250 306 381 446
#     4  11  24  45  73 108 147 191 248 316 372 449
#     4  11  24  39  67 103 140 195 243 285 373 457
#     4  11  22  37  59  96 140 188 232 288 358 444
#
# _framework density 23.583506
#
# number of rings (size 3 to 8) (size 9 to 14) (size 15 to 20)
#    0.000    1.067    5.333    2.400    0.000    5.867 
#    0.000    0.000    0.000    0.000    0.000    0.000 
#    0.000    0.000    0.000    0.000    0.000    0.000 
#
# Total GULP energy -167121.739423 kJ/mol
# GULP energy per Si atom -5570.724647 kJ/mol
# Density = 2.352983 g / cm^3
# Si number density = 23.583506 Si / 1000 Ang^3
#
#
#
# Elastic Constant Matrix: (Units=GPa)
#
#
# Indices 1 2 3 4 5 6 
#
# 1 72.5061 9.2374 15.2553 -0.0001 11.8126 -0.0008
# 2 9.2374 59.4556 29.1905 -0.0013 -5.2176 -0.0006
# 3 15.2553 29.1905 106.7938 -0.0061 -6.3283 -0.0034
# 4 -0.0001 -0.0013 -0.0061 28.1677 -0.0031 -6.5645
# 5 11.8126 -5.2176 -6.3283 -0.0031 29.2471 -0.0018
# 6 -0.0008 -0.0006 -0.0034 -6.5645 -0.0018 26.7828
#
#
#
# Elastic Compliance Matrix: (Units=1/GPa)
#
#
# Indices 1 2 3 4 5 6 
#
# 1 0.015656 -0.002025 -0.002106 -0.000001 -0.007140 -0.000001
# 2 -0.002025 0.019848 -0.004941 0.000000 0.003290 0.000000
# 3 -0.002106 -0.004941 0.011156 0.000003 0.002383 0.000002
# 4 -0.000001 0.000000 0.000003 0.037652 0.000006 0.009229
# 5 -0.007140 0.003290 0.002383 0.000006 0.038178 0.000004
# 6 -0.000001 0.000000 0.000002 0.009229 0.000004 0.039599
#
#
# Mechanical properties :
#
#
# Convention : Reuss Voigt Hill
#
# Bulk Modulus (GPa) = 35.06700 38.45801 36.76251
# Shear Modulus (GPa) = 26.35171 29.17766 27.76469
#
# Velocity S-wave (km/s) = 3.34635 3.52121 3.43489
# Velocity P-wave (km/s) = 5.46189 5.73363 5.59941
#
# Compressibility (1/GPa) = 0.02851684
#
# Stress axis : x y z
#
# Youngs Moduli (GPa) = 63.87176 50.38174 89.63406
#
# Poissons Ratio (x) = 0.10203 0.18878
# Poissons Ratio (y) = 0.12935 0.44289
# Poissons Ratio (z) = 0.13452 0.24894
#
# Static dielectric constant tensor:
#      x y z
#    x 2.008100 0.000000 0.033340 
#    y 0.000000 1.897550 0.000000 
#    z 0.033340 0.000000 1.962430 
# 
# From -- ./inp_files/290276.got.cif
#   From: 2010.05.17/outbox.cif.g08.bks.cpg/sg15_146_cif.got.tgz:290276.got - 2010.06.03 18:47:42.
