data_PCOD9267669
_publ_section_title
;
Structure prediction by ZEFSAII (Michael W. Deem and Ramdas Pophale) SiO2 
 PCOD9267669
Probable space group: C 2/C
;
_chemical_formula_sum "Si O2"
_cell_formula_units_Z 64
_cell_length_a 13.592380
_cell_length_b 9.246103
_cell_length_c 25.596105
_cell_angle_alpha 90.000000
_cell_angle_beta 62.145091
_cell_angle_gamma 90.000000
_cell_volume 2844.107571
_symmetry_space_group_name_H-M "C 2/C"
_symmetry_group_IT_number 15
_symmetry_cell_setting 'monoclinic'
loop_
_space_group_symop_operation_xyz
x,y,z
-x,y,1/2-z
-x,-y,-z
x,-y,1/2+z
1/2+x,1/2+y,z
1/2-x,1/2+y,1/2-z
1/2-x,1/2-y,-z
1/2+x,1/2-y,1/2+z
loop_
_atom_site_type_symbol
_atom_site_label
_atom_site_fract_x
_atom_site_fract_y
_atom_site_fract_z
Si Si1 0.724388 0.089764 0.238272
Si Si2 0.703713 0.426698 0.461780
Si Si3 0.079968 0.260733 0.129366
Si Si4 0.880484 0.056353 0.913724
Si Si5 0.021601 0.531714 0.363709
Si Si6 0.297907 0.173074 0.373236
Si Si7 0.428050 0.741229 0.577204
Si Si8 0.202251 0.280383 0.198741
O O1 0.615165 0.092626 0.301745
O O2 0.711401 0.173122 0.186843
O O3 0.815123 0.156836 0.254313
O O4 0.737603 0.924107 0.219892
O O5 0.813944 0.328163 0.428570
O O6 0.694538 0.499297 0.520086
O O7 0.707018 0.562694 0.420259
O O8 0.598197 0.326333 0.472578
O O9 0.077959 0.089516 0.124323
O O10 0.100561 0.299130 0.184893
O O11 0.978235 0.358664 0.135539
O O12 0.811562 0.168116 0.894806
O O13 0.985691 0.139629 0.913022
O O14 0.028733 0.598962 0.419883
O O15 0.909288 0.590517 0.364918
O O16 0.305556 0.745316 0.633824
#
# Coordination Sequence:
#
# PCOD9267669 Si02
#       8
#     8   8   8   8   8   8   8   8
#     4  11  20  37  60  81 112 152 186 227 290 339
#     4  10  19  40  59  79 115 153 187 232 287 336
#     4  10  21  39  55  86 117 141 189 241 278 341
#     4  11  22  34  60  87 112 147 189 242 281 326
#     4   9  19  36  60  78 110 155 184 225 286 345
#     4  10  20  36  60  82 116 145 197 226 282 345
#     4   9  19  38  55  82 109 147 190 230 273 340
#     4  10  22  36  58  80 115 146 184 227 284 343
#
# _framework density 22.502666000000001
#
# number of rings (size 3 to 8) (size 9 to 14) (size 15 to 20)
#    0.000    2.000    3.750    1.500    1.750    1.000 
#    0.000    0.625    2.750    0.000    0.000    0.000 
#    0.000    0.000    0.000    0.000    0.000    0.000 
#
# Total GULP energy -178499.757596 kJ/mol
# GULP energy per Si atom -5578.117425 kJ/mol
# Density = 2.245145 g / cm^3
# Si number density = 22.502666 Si / 1000 Ang^3
#
#
#
# Elastic Constant Matrix: (Units=GPa)
#
#
# Indices 1 2 3 4 5 6 
#
# 1 21.5034 9.3782 -5.3413 0.0000 -0.9461 0.0000
# 2 9.3782 110.4269 0.9714 0.0000 20.2660 0.0000
# 3 -5.3413 0.9714 39.7870 0.0000 5.8534 0.0000
# 4 0.0000 0.0000 0.0000 25.2212 0.0000 7.2788
# 5 -0.9461 20.2660 5.8534 0.0000 15.5278 0.0000
# 6 0.0000 0.0000 0.0000 7.2788 0.0000 26.2871
#
#
#
# Elastic Compliance Matrix: (Units=1/GPa)
#
#
# Indices 1 2 3 4 5 6 
#
# 1 0.050913 -0.005982 0.005692 0.000000 0.008764 0.000000
# 2 -0.005982 0.012781 0.001474 0.000000 -0.017601 0.000000
# 3 0.005692 0.001474 0.027626 0.000000 -0.011992 0.000000
# 4 0.000000 0.000000 0.000000 0.043093 0.000000 -0.011932
# 5 0.008764 -0.017601 -0.011992 0.000000 0.092427 0.000000
# 6 0.000000 0.000000 0.000000 -0.011932 0.000000 0.041346
#
#
# Mechanical properties :
#
#
# Convention : Reuss Voigt Hill
#
# Bulk Modulus (GPa) = 10.67383 20.19265 15.43324
# Shear Modulus (GPa) = 16.83232 24.52116 20.67674
#
# Velocity S-wave (km/s) = 2.73795 3.30464 3.03455
# Velocity P-wave (km/s) = 3.84042 4.85323 4.37622
#
# Compressibility (1/GPa) = 0.09368705
#
# Stress axis : x y z
#
# Youngs Moduli (GPa) = 19.64148 78.24025 36.19764
#
# Poissons Ratio (x) = 0.46806 -0.20602
# Poissons Ratio (y) = 0.11750 -0.05337
# Poissons Ratio (z) = -0.11179 -0.11535
#
# Static dielectric constant tensor:
#      x y z
#    x 1.865480 0.000000 -0.015820 
#    y 0.000000 1.904650 0.000000 
#    z -0.015820 0.000000 1.871250 
# 
# From -- ./inp_files/295125.got.cif
#   From: 2010.05.17/outbox.cif.g08.bks.cpg/sg15_148_cif.got.tgz:295125.got - 2010.06.03 18:47:42.
