data_PCOD9267939
_publ_section_title
;
Structure prediction by ZEFSAII (Michael W. Deem and Ramdas Pophale) SiO2 
 PCOD9267939
Probable space group: C 2/C
;
_chemical_formula_sum "Si O2"
_cell_formula_units_Z 56
_cell_length_a 10.334222
_cell_length_b 25.593497
_cell_length_c 19.181995
_cell_angle_alpha 90.000000
_cell_angle_beta 36.087782
_cell_angle_gamma 90.000000
_cell_volume 2988.368942
_symmetry_space_group_name_H-M "C 2/C"
_symmetry_group_IT_number 15
_symmetry_cell_setting 'monoclinic'
loop_
_space_group_symop_operation_xyz
x,y,z
-x,y,1/2-z
-x,-y,-z
x,-y,1/2+z
1/2+x,1/2+y,z
1/2-x,1/2+y,1/2-z
1/2-x,1/2-y,-z
1/2+x,1/2-y,1/2+z
loop_
_atom_site_type_symbol
_atom_site_label
_atom_site_fract_x
_atom_site_fract_y
_atom_site_fract_z
Si Si1 0.581095 0.941299 0.957373
Si Si2 0.713798 0.583556 0.980714
Si Si3 0.237711 0.565940 0.235941
Si Si4 0.703212 0.691298 0.042625
Si Si5 0.000000 0.230331 0.750000
Si Si6 0.000000 0.519668 0.750000
Si Si7 0.094057 0.666443 0.980713
Si Si8 0.195531 0.315939 0.764060
O O1 0.738159 0.936774 0.820545
O O2 0.397915 0.896838 0.021205
O O3 0.678529 0.928285 0.990684
O O4 0.500000 0.000000 0.000000
O O5 0.830681 0.556600 0.864955
O O6 0.471156 0.561528 0.097154
O O7 0.711530 0.646837 0.978792
O O8 0.163660 0.625000 0.250001
O O9 0.093657 0.519336 0.268133
O O10 0.449796 0.686774 0.179452
O O11 0.900580 0.678284 0.009314
O O12 0.750000 0.750000 0.000000
O O13 0.175549 0.193398 0.635047
O O14 0.148051 0.269334 0.731871
O O15 0.987376 0.688473 0.097154
#
# Coordination Sequence:
#
# PCOD9267939 Si02
#       8
#     8   8   8   8   4   4   8   8
#     4  10  19  41  61  82 113 156 200 245 279 342
#     4  10  22  37  61  88 114 154 202 240 289 344
#     4  10  21  38  62  84 114 159 198 234 291 357
#     4  10  19  41  61  82 113 156 200 245 279 342
#     4  12  21  38  56  90 130 143 182 252 302 354
#     4  12  21  38  56  90 130 143 182 252 302 354
#     4  10  22  37  61  88 114 154 202 240 289 344
#     4  10  21  38  62  84 114 159 198 234 291 357
#
# _framework density 18.739319999999999
#
# number of rings (size 3 to 8) (size 9 to 14) (size 15 to 20)
#    0.000    1.714    2.857    2.143    0.000    3.429 
#    5.143    0.000    6.286    0.000    0.000    0.000 
#    0.000    0.000    0.000    0.000    0.000    0.000 
#
# Total GULP energy -155933.545780 kJ/mol
# GULP energy per Si atom -5569.055206 kJ/mol
# Density = 1.869667 g / cm^3
# Si number density = 18.739320 Si / 1000 Ang^3
#
#
#
# Elastic Constant Matrix: (Units=GPa)
#
#
# Indices 1 2 3 4 5 6 
#
# 1 25.5016 4.9002 10.1603 -0.0001 0.2508 -0.0003
# 2 4.9002 131.8862 51.5261 0.0012 0.3681 -0.0006
# 3 10.1603 51.5261 138.9259 0.0036 0.6439 0.0006
# 4 -0.0001 0.0012 0.0036 20.9551 -0.0005 0.0459
# 5 0.2508 0.3681 0.6439 -0.0005 23.5614 0.0000
# 6 -0.0003 -0.0006 0.0006 0.0459 0.0000 15.1931
#
#
#
# Elastic Compliance Matrix: (Units=1/GPa)
#
#
# Indices 1 2 3 4 5 6 
#
# 1 0.040411 -0.000405 -0.002804 0.000001 -0.000347 0.000001
# 2 -0.000405 0.008871 -0.003260 0.000000 -0.000045 0.000000
# 3 -0.002804 -0.003260 0.008613 -0.000001 -0.000155 0.000000
# 4 0.000001 0.000000 -0.000001 0.047721 0.000001 -0.000144
# 5 -0.000347 -0.000045 -0.000155 0.000001 0.042451 0.000000
# 6 0.000001 0.000000 0.000000 -0.000144 0.000000 0.065820
#
#
# Mechanical properties :
#
#
# Convention : Reuss Voigt Hill
#
# Bulk Modulus (GPa) = 22.24326 47.72077 34.98202
# Shear Modulus (GPa) = 20.67723 27.25708 23.96715
#
# Velocity S-wave (km/s) = 3.32537 3.81798 3.58016
# Velocity P-wave (km/s) = 5.16137 6.70499 5.98317
#
# Compressibility (1/GPa) = 0.04495743
#
# Stress axis : x y z
#
# Youngs Moduli (GPa) = 24.74546 112.72341 116.10229
#
# Poissons Ratio (x) = 0.04567 0.32550
# Poissons Ratio (y) = 0.01003 0.37854
# Poissons Ratio (z) = 0.06938 0.36753
#
# Static dielectric constant tensor:
#      x y z
#    x 1.730880 0.000010 -0.000750 
#    y 0.000010 1.658070 0.000000 
#    z -0.000750 0.000000 1.636510 
# 
# From -- ./inp_files/90739.got.cif
#   From: 2010.05.17/outbox.cif.g08.bks.cpg/sg15_46_cif.got.tgz:90739.got - 2010.06.03 18:47:42.
