data_PCOD9267688
_publ_section_title
;
Structure prediction by ZEFSAII (Michael W. Deem and Ramdas Pophale) SiO2 
 PCOD9267688
Probable space group: C 2/C
;
_chemical_formula_sum "Si O2"
_cell_formula_units_Z 60
_cell_length_a 25.352218
_cell_length_b 13.564703
_cell_length_c 9.249801
_cell_angle_alpha 90.000000
_cell_angle_beta 131.168983
_cell_angle_gamma 90.000000
_cell_volume 2394.538025
_symmetry_space_group_name_H-M "C 2/C"
_symmetry_group_IT_number 15
_symmetry_cell_setting 'monoclinic'
loop_
_space_group_symop_operation_xyz
x,y,z
-x,y,1/2-z
-x,-y,-z
x,-y,1/2+z
1/2+x,1/2+y,z
1/2-x,1/2+y,1/2-z
1/2-x,1/2-y,-z
1/2+x,1/2-y,1/2+z
loop_
_atom_site_type_symbol
_atom_site_label
_atom_site_fract_x
_atom_site_fract_y
_atom_site_fract_z
Si Si1 0.409346 0.223118 0.362775
Si Si2 0.649063 0.432722 0.553907
Si Si3 0.873176 0.407681 0.213921
Si Si4 0.130655 0.282886 0.026267
Si Si5 0.703574 0.731154 0.604863
Si Si6 0.272352 0.467420 0.527754
Si Si7 0.500000 0.093415 0.750000
Si Si8 0.964468 0.080213 0.038052
O O1 0.341902 0.257300 0.333627
O O2 0.456761 0.154663 0.550626
O O3 0.451017 0.324738 0.418456
O O4 0.387644 0.184196 0.167667
O O5 0.609245 0.330979 0.507272
O O6 0.681399 0.444661 0.453564
O O7 0.599572 0.521252 0.508326
O O8 0.713519 0.448491 0.779514
O O9 0.899716 0.355816 0.408189
O O10 0.810306 0.480985 0.143873
O O11 0.935503 0.450103 0.228592
O O12 0.829997 0.318336 0.055041
O O13 0.214704 0.270995 0.203464
O O14 0.699401 0.630015 0.505057
O O15 0.000000 0.117748 0.250000
O O16 0.000000 0.000000 0.000000
#
# Coordination Sequence:
#
# PCOD9267688 Si02
#       8
#     8   8   8   8   8   8   4   8
#     4  11  22  37  57  87 123 164 207 248 303 368
#     4  12  23  37  59  88 124 162 212 249 309 359
#     4  10  21  42  65  86 123 162 210 260 318 374
#     4  11  21  36  61  94 121 156 204 264 305 364
#     4  10  19  40  61  85 123 160 204 261 311 357
#     4  11  21  39  61  90 121 162 207 263 312 357
#     4  10  24  40  64  84 118 166 210 256 310 382
#     4  12  25  38  51  82 129 178 206 239 287 372
#
# _framework density 25.057023999999998
#
# number of rings (size 3 to 8) (size 9 to 14) (size 15 to 20)
#    0.000    1.067    4.667    3.600    1.867    0.533 
#    0.000    0.000    0.000    0.800    0.000    0.000 
#    0.000    0.000    0.000    0.000    0.000    0.000 
#
# Total GULP energy -167770.845253 kJ/mol
# GULP energy per Si atom -5592.361508 kJ/mol
# Density = 2.499999 g / cm^3
# Si number density = 25.057024 Si / 1000 Ang^3
#
#
#
# Elastic Constant Matrix: (Units=GPa)
#
#
# Indices 1 2 3 4 5 6 
#
# 1 144.4181 11.4358 17.2147 0.0000 -6.1358 0.0000
# 2 11.4358 36.9181 5.6274 0.0000 -2.0242 0.0000
# 3 17.2147 5.6274 118.1625 0.0000 -29.8997 0.0000
# 4 0.0000 0.0000 0.0000 5.0234 0.0000 -6.4385
# 5 -6.1358 -2.0242 -29.8997 0.0000 35.2576 0.0000
# 6 0.0000 0.0000 0.0000 -6.4385 0.0000 16.1234
#
#
#
# Elastic Compliance Matrix: (Units=1/GPa)
#
#
# Indices 1 2 3 4 5 6 
#
# 1 0.007208 -0.002081 -0.000845 0.000000 0.000418 0.000000
# 2 -0.002081 0.027896 -0.000906 0.000000 0.000471 0.000000
# 3 -0.000845 -0.000906 0.010923 0.000000 0.009064 0.000000
# 4 0.000000 0.000000 0.000000 0.407768 0.000000 0.162831
# 5 0.000418 0.000471 0.009064 0.000000 0.036149 0.000000
# 6 0.000000 0.000000 0.000000 0.162831 0.000000 0.127044
#
#
# Mechanical properties :
#
#
# Convention : Reuss Voigt Hill
#
# Bulk Modulus (GPa) = 26.06787 40.89494 33.48141
# Shear Modulus (GPa) = 7.84390 28.96228 18.40309
#
# Velocity S-wave (km/s) = 1.77122 3.40347 2.71301
# Velocity P-wave (km/s) = 3.82217 5.63924 4.81716
#
# Compressibility (1/GPa) = 0.03836140
#
# Stress axis : x y z
#
# Youngs Moduli (GPa) = 138.74198 35.84805 91.55267
#
# Poissons Ratio (x) = 0.07460 0.07738
# Poissons Ratio (y) = 0.28871 0.08296
# Poissons Ratio (z) = 0.11726 0.03248
#
# Static dielectric constant tensor:
#      x y z
#    x 1.966200 0.000000 0.021520 
#    y 0.000000 2.019920 0.000000 
#    z 0.021520 0.000000 1.867460 
# 
# From -- ./inp_files/67041.got.cif
#   From: 2010.05.17/outbox.cif.g08.bks.cpg/sg15_34_cif.got.tgz:67041.got - 2010.06.03 18:47:42.
