data_PCOD9267054
_publ_section_title
;
Structure prediction by ZEFSAII (Michael W. Deem and Ramdas Pophale) SiO2 
 PCOD9267054
Probable space group: C 2/C
;
_chemical_formula_sum "Si O2"
_cell_formula_units_Z 64
_cell_length_a 9.446445
_cell_length_b 15.175002
_cell_length_c 29.175651
_cell_angle_alpha 90.000000
_cell_angle_beta 52.297807
_cell_angle_gamma 90.000000
_cell_volume 3309.055570
_symmetry_space_group_name_H-M "C 2/C"
_symmetry_group_IT_number 15
_symmetry_cell_setting 'monoclinic'
loop_
_space_group_symop_operation_xyz
x,y,z
-x,y,1/2-z
-x,-y,-z
x,-y,1/2+z
1/2+x,1/2+y,z
1/2-x,1/2+y,1/2-z
1/2-x,1/2-y,-z
1/2+x,1/2-y,1/2+z
loop_
_atom_site_type_symbol
_atom_site_label
_atom_site_fract_x
_atom_site_fract_y
_atom_site_fract_z
Si Si1 0.522046 0.779882 0.818395
Si Si2 0.156881 0.973462 0.663359
Si Si3 0.718997 0.166591 0.844009
Si Si4 0.764834 0.321212 0.955484
Si Si5 0.733505 0.558233 0.255195
Si Si6 0.511974 0.079249 0.462523
Si Si7 0.832493 0.360681 0.251818
Si Si8 0.953347 0.734740 0.973176
O O1 0.365074 0.743485 0.817051
O O2 0.418276 0.799839 0.887015
O O3 0.625851 0.862249 0.775021
O O4 0.666271 0.702037 0.797676
O O5 0.191717 0.954992 0.709668
O O6 0.318974 0.934989 0.602948
O O7 0.967884 0.932276 0.685105
O O8 0.175360 0.079897 0.658481
O O9 0.647154 0.152981 0.807027
O O10 0.561263 0.190828 0.909844
O O11 0.576057 0.316549 0.966240
O O12 0.834110 0.408636 0.967060
O O13 0.750000 0.250000 0.000000
O O14 0.801043 0.465811 0.262592
O O15 0.541930 0.166160 0.486227
O O16 0.500000 0.000000 0.500000
O O17 0.000000 0.335026 0.250000
O O18 0.750000 0.750000 0.000000
#
# Coordination Sequence:
#
# PCOD9267054 Si02
#       8
#     8   8   8   8   8   8   8   8
#     4  11  21  39  67  90 123 174 214 260 337 387
#     4  10  19  38  64  92 125 168 218 268 315 399
#     4  10  21  42  63  85 128 173 209 262 337 390
#     4   9  21  38  62  92 127 163 215 266 319 399
#     4  10  22  38  63  93 130 163 216 271 324 385
#     4  11  20  37  67  93 121 174 223 259 329 387
#     4  11  25  39  60  92 125 166 217 268 321 386
#     4  10  22  39  61  92 127 166 214 275 324 385
#
# _framework density 19.340865999999998
#
# number of rings (size 3 to 8) (size 9 to 14) (size 15 to 20)
#    0.000    1.750    3.750    0.375    1.750    4.000 
#    0.000    1.875    0.000    0.000    0.000    0.000 
#    0.000    0.000    0.000    0.000    0.000    0.000 
#
# Total GULP energy -178375.171046 kJ/mol
# GULP energy per Si atom -5574.224095 kJ/mol
# Density = 1.929685 g / cm^3
# Si number density = 19.340866 Si / 1000 Ang^3
#
#
#
# Elastic Constant Matrix: (Units=GPa)
#
#
# Indices 1 2 3 4 5 6 
#
# 1 124.6045 42.6888 41.1231 0.0000 -18.8156 0.0000
# 2 42.6888 88.8642 31.3416 0.0000 -16.4895 0.0000
# 3 41.1231 31.3416 90.0907 -0.0001 -19.4047 0.0000
# 4 0.0000 0.0000 -0.0001 29.6863 0.0000 -0.8361
# 5 -18.8156 -16.4895 -19.4047 0.0000 28.2821 0.0000
# 6 0.0000 0.0000 0.0000 -0.8361 0.0000 27.7493
#
#
#
# Elastic Compliance Matrix: (Units=1/GPa)
#
#
# Indices 1 2 3 4 5 6 
#
# 1 0.010672 -0.003512 -0.003006 0.000000 0.002990 0.000000
# 2 -0.003512 0.014664 -0.002535 0.000000 0.004474 0.000000
# 3 -0.003006 -0.002535 0.014790 0.000000 0.006670 0.000000
# 4 0.000000 0.000000 0.000000 0.033714 0.000000 0.001016
# 5 0.002990 0.004474 0.006670 0.000000 0.044533 0.000000
# 6 0.000000 0.000000 0.000000 0.001016 0.000000 0.036068
#
#
# Mechanical properties :
#
#
# Convention : Reuss Voigt Hill
#
# Bulk Modulus (GPa) = 45.40825 59.31849 52.36337
# Shear Modulus (GPa) = 27.79530 29.70393 28.74961
#
# Velocity S-wave (km/s) = 3.79506 3.92319 3.85966
# Velocity P-wave (km/s) = 6.53698 7.15951 6.85532
#
# Compressibility (1/GPa) = 0.02202243
#
# Stress axis : x y z
#
# Youngs Moduli (GPa) = 93.70358 68.19243 67.61114
#
# Poissons Ratio (x) = 0.23947 0.20321
# Poissons Ratio (y) = 0.32906 0.17139
# Poissons Ratio (z) = 0.28163 0.17286
#
# Static dielectric constant tensor:
#      x y z
#    x 1.665170 0.000000 0.047510 
#    y 0.000000 1.723640 0.000000 
#    z 0.047510 0.000000 1.592340 
# 
# From -- ./inp_files/308238.got.cif
#   From: 2010.05.17/outbox.cif.g08.bks.cpg/sg15_155_cif.got.tgz:308238.got - 2010.06.03 18:47:42.
