data_PCOD9267093
_publ_section_title
;
Structure prediction by ZEFSAII (Michael W. Deem and Ramdas Pophale) SiO2 
 PCOD9267093
Probable space group: C 2/C
;
_chemical_formula_sum "Si O2"
_cell_formula_units_Z 60
_cell_length_a 19.452399
_cell_length_b 13.853603
_cell_length_c 14.047948
_cell_angle_alpha 90.000000
_cell_angle_beta 39.801575
_cell_angle_gamma 90.000000
_cell_volume 2423.357764
_symmetry_space_group_name_H-M "C 2/C"
_symmetry_group_IT_number 15
_symmetry_cell_setting 'monoclinic'
loop_
_space_group_symop_operation_xyz
x,y,z
-x,y,1/2-z
-x,-y,-z
x,-y,1/2+z
1/2+x,1/2+y,z
1/2-x,1/2+y,1/2-z
1/2-x,1/2-y,-z
1/2+x,1/2-y,1/2+z
loop_
_atom_site_type_symbol
_atom_site_label
_atom_site_fract_x
_atom_site_fract_y
_atom_site_fract_z
Si Si1 0.220037 0.434983 0.308378
Si Si2 0.929769 0.586302 0.034349
Si Si3 0.000000 0.990543 0.750000
Si Si4 0.755020 0.045725 0.545401
Si Si5 0.696782 0.838046 0.653377
Si Si6 0.877327 0.232736 0.105756
Si Si7 0.084174 0.709471 0.736643
Si Si8 0.918754 0.847221 0.202465
O O1 0.172209 0.531811 0.403337
O O2 0.244633 0.451719 0.171452
O O3 0.138938 0.345348 0.400453
O O4 0.325365 0.398021 0.245010
O O5 0.886340 0.636346 0.174563
O O6 0.000000 0.500000 0.000000
O O7 0.998723 0.645616 0.887583
O O8 0.982453 0.067168 0.684535
O O9 0.118653 0.942207 0.613914
O O10 0.675311 0.134351 0.601364
O O11 0.716825 0.933307 0.566964
O O12 0.800559 0.816546 0.609107
O O13 0.641205 0.738753 0.672205
O O14 0.860349 0.225923 0.238626
O O15 0.995489 0.196884 0.960259
O O16 0.000000 0.754289 0.750000
#
# Coordination Sequence:
#
# PCOD9267093 Si02
#       8
#     8   8   4   8   8   8   8   8
#     4   9  21  37  66  86 116 168 221 246 306 383
#     4  11  17  37  65  92 115 163 215 263 302 374
#     4  12  26  40  56  98 140 156 204 262 334 378
#     4  10  22  43  60  92 127 166 213 265 309 382
#     4  10  19  38  65  89 118 167 217 256 309 380
#     4  10  19  40  62  88 125 169 209 253 316 383
#     4  11  23  39  66  96 130 160 223 269 314 367
#     4  11  22  38  62  89 129 167 202 258 320 387
#
# _framework density 24.759035999999998
#
# number of rings (size 3 to 8) (size 9 to 14) (size 15 to 20)
#    0.000    1.600    6.667    0.000    1.867    1.067 
#    1.200    0.667    1.467    0.000    0.000    0.000 
#    0.000    0.000    0.000    0.000    0.000    0.000 
#
# Total GULP energy -167368.326608 kJ/mol
# GULP energy per Si atom -5578.944220 kJ/mol
# Density = 2.470268 g / cm^3
# Si number density = 24.759036 Si / 1000 Ang^3
#
#
#
# Elastic Constant Matrix: (Units=GPa)
#
#
# Indices 1 2 3 4 5 6 
#
# 1 76.2162 19.4931 15.2470 0.0000 -11.8140 0.0000
# 2 19.4931 54.0591 28.5055 0.0000 -10.4745 0.0000
# 3 15.2470 28.5055 111.9164 0.0000 -25.4449 0.0000
# 4 0.0000 0.0000 0.0000 22.9604 0.0000 7.4906
# 5 -11.8140 -10.4745 -25.4449 0.0000 33.7856 0.0000
# 6 0.0000 0.0000 0.0000 7.4906 0.0000 37.0882
#
#
#
# Elastic Compliance Matrix: (Units=1/GPa)
#
#
# Indices 1 2 3 4 5 6 
#
# 1 0.014891 -0.004645 0.000013 0.000000 0.003777 0.000000
# 2 -0.004645 0.023080 -0.004812 0.000000 0.001907 0.000000
# 3 0.000013 -0.004812 0.011850 0.000000 0.007437 0.000000
# 4 0.000000 0.000000 0.000000 0.046625 0.000000 -0.009417
# 5 0.003777 0.001907 0.007437 0.000000 0.037112 0.000000
# 6 0.000000 0.000000 0.000000 -0.009417 0.000000 0.028865
#
#
# Mechanical properties :
#
#
# Convention : Reuss Voigt Hill
#
# Bulk Modulus (GPa) = 32.32718 40.96477 36.64597
# Shear Modulus (GPa) = 26.09300 30.69657 28.39478
#
# Velocity S-wave (km/s) = 3.24987 3.52492 3.39018
# Velocity P-wave (km/s) = 5.21222 5.75743 5.49160
#
# Compressibility (1/GPa) = 0.03093373
#
# Stress axis : x y z
#
# Youngs Moduli (GPa) = 67.15311 43.32732 84.38770
#
# Poissons Ratio (x) = 0.20124 -0.00110
# Poissons Ratio (y) = 0.31190 0.40609
# Poissons Ratio (z) = -0.00087 0.20850
#
# Static dielectric constant tensor:
#      x y z
#    x 1.846650 0.000000 0.158790 
#    y 0.000000 2.004620 0.000000 
#    z 0.158790 0.000000 1.955050 
# 
# From -- ./inp_files/168598.got.cif
#   From: 2010.05.17/outbox.cif.g08.bks.cpg/sg15_85_cif.got.tgz:168598.got - 2010.06.03 18:47:42.
