data_PCOD9267653
_publ_section_title
;
Structure prediction by ZEFSAII (Michael W. Deem and Ramdas Pophale) SiO2 
 PCOD9267653
Probable space group: C 2/C
;
_chemical_formula_sum "Si O2"
_cell_formula_units_Z 56
_cell_length_a 9.853943
_cell_length_b 9.846903
_cell_length_c 24.041565
_cell_angle_alpha 90.000000
_cell_angle_beta 100.997300
_cell_angle_gamma 90.000000
_cell_volume 2289.934154
_symmetry_space_group_name_H-M "C 2/C"
_symmetry_group_IT_number 15
_symmetry_cell_setting 'monoclinic'
loop_
_space_group_symop_operation_xyz
x,y,z
-x,y,1/2-z
-x,-y,-z
x,-y,1/2+z
1/2+x,1/2+y,z
1/2-x,1/2+y,1/2-z
1/2-x,1/2-y,-z
1/2+x,1/2-y,1/2+z
loop_
_atom_site_type_symbol
_atom_site_label
_atom_site_fract_x
_atom_site_fract_y
_atom_site_fract_z
Si Si1 0.852905 0.864136 0.484224
Si Si2 0.617793 0.965887 0.609959
Si Si3 0.845275 0.928758 0.802208
Si Si4 0.407575 0.386785 0.604033
Si Si5 0.696926 0.910177 0.904296
Si Si6 0.641603 0.877255 0.228139
Si Si7 0.415520 0.788840 0.459270
O O1 0.750000 0.750000 0.500000
O O2 0.896260 0.955152 0.541806
O O3 0.988962 0.772669 0.485006
O O4 0.773075 0.954439 0.433934
O O5 0.639812 0.061939 0.665573
O O6 0.611206 0.054296 0.552392
O O7 0.753481 0.871784 0.615334
O O8 0.465866 0.908044 0.604618
O O9 0.741080 0.898844 0.844379
O O10 0.853489 0.786534 0.770128
O O11 0.993843 0.955481 0.842948
O O12 0.777149 0.054155 0.765417
O O13 0.492199 0.254976 0.588911
O O14 0.773396 0.790440 0.942685
O O15 0.500000 0.916595 0.250000
#
# Coordination Sequence:
#
# PCOD9267653 Si02
#       7
#     8   8   8   8   8   8   8
#     4  10  19  39  72  97 139 189 226 269 356 417
#     4  12  22  43  69  95 141 173 233 282 348 411
#     4  11  26  49  73  98 142 184 239 295 360 415
#     4   9  23  42  66 102 133 182 220 284 341 417
#     4  11  20  41  70  97 135 187 220 287 335 424
#     4  12  26  47  74 102 132 186 235 298 361 414
#     4   9  21  42  62  94 139 173 229 273 341 402
#
# _framework density 24.454851999999999
#
# number of rings (size 3 to 8) (size 9 to 14) (size 15 to 20)
#    0.857    0.571    5.714    0.429    2.000    0.571 
#    5.143    3.571    0.000    0.000    0.000    0.000 
#    0.000    0.000    0.000    0.000    0.000    0.000 
#
# Total GULP energy -156320.436086 kJ/mol
# GULP energy per Si atom -5582.872717 kJ/mol
# Density = 2.439919 g / cm^3
# Si number density = 24.454852 Si / 1000 Ang^3
#
#
#
# Elastic Constant Matrix: (Units=GPa)
#
#
# Indices 1 2 3 4 5 6 
#
# 1 166.2983 51.0449 31.5350 0.0000 43.8032 0.0000
# 2 51.0449 54.8280 33.4461 0.0000 0.2213 0.0000
# 3 31.5350 33.4461 86.2572 0.0000 21.8821 0.0000
# 4 0.0000 0.0000 0.0000 26.1465 0.0000 -10.6833
# 5 43.8032 0.2213 21.8821 0.0000 39.6578 0.0000
# 6 0.0000 0.0000 0.0000 -10.6833 0.0000 30.0594
#
#
#
# Elastic Compliance Matrix: (Units=1/GPa)
#
#
# Indices 1 2 3 4 5 6 
#
# 1 0.016503 -0.019664 0.007195 0.000000 -0.022088 0.000000
# 2 -0.019664 0.048520 -0.019843 0.000000 0.032397 0.000000
# 3 0.007195 -0.019843 0.021680 0.000000 -0.019798 0.000000
# 4 0.000000 0.000000 0.000000 0.044744 0.000000 0.015902
# 5 -0.022088 0.032397 -0.019798 0.000000 0.060355 0.000000
# 6 0.000000 0.000000 0.000000 0.015902 0.000000 0.038919
#
#
# Mechanical properties :
#
#
# Convention : Reuss Voigt Hill
#
# Bulk Modulus (GPa) = 45.29520 59.93726 52.61623
# Shear Modulus (GPa) = 16.51781 31.92992 24.22386
#
# Velocity S-wave (km/s) = 2.60174 3.61732 3.15072
# Velocity P-wave (km/s) = 5.25239 6.48146 5.89902
#
# Compressibility (1/GPa) = 0.02207739
#
# Stress axis : x y z
#
# Youngs Moduli (GPa) = 60.59659 20.61020 46.12630
#
# Poissons Ratio (x) = 0.40527 -0.33186
# Poissons Ratio (y) = 1.19155 0.91529
# Poissons Ratio (z) = -0.43597 0.40897
#
# Static dielectric constant tensor:
#      x y z
#    x 1.963170 0.000000 -0.000550 
#    y 0.000000 1.944000 0.000000 
#    z -0.000550 0.000000 2.017880 
# 
# From -- ./inp_files/288049.got.cif
#   From: 2010.05.17/outbox.cif.g08.bks.cpg/sg15_145_cif.got.tgz:288049.got - 2010.06.03 18:47:42.
