data_PCOD9267737
_publ_section_title
;
Structure prediction by ZEFSAII (Michael W. Deem and Ramdas Pophale) SiO2 
 PCOD9267737
Probable space group: C 2/C
;
_chemical_formula_sum "Si O2"
_cell_formula_units_Z 60
_cell_length_a 24.293075
_cell_length_b 5.538991
_cell_length_c 20.040353
_cell_angle_alpha 90.000000
_cell_angle_beta 74.758648
_cell_angle_gamma 90.000000
_cell_volume 2601.764431
_symmetry_space_group_name_H-M "C 2/C"
_symmetry_group_IT_number 15
_symmetry_cell_setting 'monoclinic'
loop_
_space_group_symop_operation_xyz
x,y,z
-x,y,1/2-z
-x,-y,-z
x,-y,1/2+z
1/2+x,1/2+y,z
1/2-x,1/2+y,1/2-z
1/2-x,1/2-y,-z
1/2+x,1/2-y,1/2+z
loop_
_atom_site_type_symbol
_atom_site_label
_atom_site_fract_x
_atom_site_fract_y
_atom_site_fract_z
Si Si1 0.730791 0.972635 0.573686
Si Si2 0.154354 0.807339 0.526453
Si Si3 0.807100 0.714696 0.776963
Si Si4 0.293584 0.833793 0.141224
Si Si5 0.107586 0.015318 0.675451
Si Si6 0.415400 0.111801 0.216484
Si Si7 0.364198 0.666929 0.608972
Si Si8 0.500000 0.807918 0.250000
O O1 0.749409 0.709930 0.594501
O O2 0.786802 0.072236 0.518788
O O3 0.675550 0.047289 0.548445
O O4 0.719572 0.103349 0.648253
O O5 0.127848 0.960842 0.594770
O O6 0.114705 0.804383 0.473891
O O7 0.768036 0.707684 0.723795
O O8 0.838945 0.952919 0.792846
O O9 0.860914 0.560751 0.734164
O O10 0.337155 0.602808 0.123210
O O11 0.320716 0.100102 0.126505
O O12 0.053301 0.847648 0.708090
O O13 0.088050 0.271556 0.708739
O O14 0.407206 0.289847 0.156665
O O15 0.473774 0.965961 0.198441
#
# Coordination Sequence:
#
# PCOD9267737 Si02
#       8
#     8   8   8   8   8   8   8   4
#     4   9  19  37  55  89 132 169 216 249 301 359
#     4   9  20  39  58  90 126 175 201 254 308 371
#     4   9  19  35  56  89 121 169 212 257 300 357
#     4  10  20  37  57  87 125 175 216 258 290 352
#     4  10  19  40  63  85 124 150 206 258 323 372
#     4  10  20  38  63  91 116 159 204 264 314 377
#     4  10  21  40  62  88 128 167 211 252 314 367
#     4  10  22  38  66  94 110 146 204 268 324 384
#
# _framework density 23.061273
#
# number of rings (size 3 to 8) (size 9 to 14) (size 15 to 20)
#    0.000    2.400    1.333    0.400    0.000    4.800 
#   26.400    0.667    0.000    3.200    0.000    0.000 
#    0.000    0.000    0.000    0.000    0.000    0.000 
#
# Total GULP energy -167311.587525 kJ/mol
# GULP energy per Si atom -5577.052917 kJ/mol
# Density = 2.300878 g / cm^3
# Si number density = 23.061273 Si / 1000 Ang^3
#
#
#
# Elastic Constant Matrix: (Units=GPa)
#
#
# Indices 1 2 3 4 5 6 
#
# 1 83.5135 28.2067 31.4925 0.0000 9.1544 0.0000
# 2 28.2067 86.3724 15.8184 0.0000 5.3987 0.0000
# 3 31.4925 15.8184 138.2030 0.0000 23.1577 0.0000
# 4 0.0000 0.0000 0.0000 29.3182 0.0000 7.0779
# 5 9.1544 5.3987 23.1577 0.0000 18.7035 0.0000
# 6 0.0000 0.0000 0.0000 7.0779 0.0000 27.5876
#
#
#
# Elastic Compliance Matrix: (Units=1/GPa)
#
#
# Indices 1 2 3 4 5 6 
#
# 1 0.014591 -0.004146 -0.002340 0.000000 -0.003048 0.000000
# 2 -0.004146 0.013075 -0.000327 0.000000 -0.001340 0.000000
# 3 -0.002340 -0.000327 0.009588 0.000000 -0.010631 0.000000
# 4 0.000000 0.000000 0.000000 0.036361 0.000000 -0.009329
# 5 -0.003048 -0.001340 -0.010631 0.000000 0.068508 0.000000
# 6 0.000000 0.000000 0.000000 -0.009329 0.000000 0.038642
#
#
# Mechanical properties :
#
#
# Convention : Reuss Voigt Hill
#
# Bulk Modulus (GPa) = 42.32230 51.01379 46.66804
# Shear Modulus (GPa) = 24.71999 30.62661 27.67330
#
# Velocity S-wave (km/s) = 3.27758 3.64820 3.46785
# Velocity P-wave (km/s) = 5.71973 6.31782 6.02620
#
# Compressibility (1/GPa) = 0.02362820
#
# Stress axis : x y z
#
# Youngs Moduli (GPa) = 68.53664 76.47952 104.29971
#
# Poissons Ratio (x) = 0.31708 0.24401
# Poissons Ratio (y) = 0.28415 0.03414
# Poissons Ratio (z) = 0.16034 0.02504
#
# Static dielectric constant tensor:
#      x y z
#    x 1.893290 0.000000 0.066690 
#    y 0.000000 1.998220 0.000000 
#    z 0.066690 0.000000 1.905730 
# 
# From -- ./inp_files/256542.got.cif
#   From: 2010.05.17/outbox.cif.g08.bks.cpg/sg15_129_cif.got.tgz:256542.got - 2010.06.03 18:47:42.
