data_PCOD9267617
_publ_section_title
;
Structure prediction by ZEFSAII (Michael W. Deem and Ramdas Pophale) SiO2 
 PCOD9267617
Probable space group: C 2/C
;
_chemical_formula_sum "Si O2"
_cell_formula_units_Z 56
_cell_length_a 18.423601
_cell_length_b 5.323779
_cell_length_c 28.186588
_cell_angle_alpha 90.000000
_cell_angle_beta 115.340444
_cell_angle_gamma 90.000000
_cell_volume 2498.619297
_symmetry_space_group_name_H-M "C 2/C"
_symmetry_group_IT_number 15
_symmetry_cell_setting 'monoclinic'
loop_
_space_group_symop_operation_xyz
x,y,z
-x,y,1/2-z
-x,-y,-z
x,-y,1/2+z
1/2+x,1/2+y,z
1/2-x,1/2+y,1/2-z
1/2-x,1/2-y,-z
1/2+x,1/2-y,1/2+z
loop_
_atom_site_type_symbol
_atom_site_label
_atom_site_fract_x
_atom_site_fract_y
_atom_site_fract_z
Si Si1 0.412175 0.530001 0.211316
Si Si2 0.170067 0.417351 0.247154
Si Si3 0.955405 0.206360 0.021147
Si Si4 0.747795 0.259813 0.669489
Si Si5 0.966946 0.761078 0.628842
Si Si6 0.432671 0.753607 0.842179
Si Si7 0.881663 0.482003 0.921753
O O1 0.500000 0.417390 0.250000
O O2 0.335126 0.353669 0.182669
O O3 0.420664 0.679917 0.164148
O O4 0.391348 0.723611 0.247401
O O5 0.232217 0.460089 0.307496
O O6 0.211992 0.339454 0.209888
O O7 0.122613 0.666565 0.217223
O O8 0.926330 0.163179 0.067038
O O9 0.031146 0.387986 0.051955
O O10 0.883200 0.328578 0.970889
O O11 0.000000 0.000000 0.000000
O O12 0.686244 0.182882 0.611199
O O13 0.998282 0.472518 0.638991
O O14 0.037854 0.970082 0.649262
O O15 0.387094 0.796263 0.878809
#
# Coordination Sequence:
#
# PCOD9267617 Si02
#       7
#     8   8   8   8   8   8   8
#     4  12  25  42  64  99 136 185 221 282 347 419
#     4  11  23  40  63  93 135 183 225 281 337 426
#     4  10  19  39  68  97 131 177 234 290 343 411
#     4  11  24  41  64  95 138 179 231 283 348 411
#     4  11  23  39  66 100 135 175 228 286 345 405
#     4  10  21  39  64  96 134 174 224 281 336 409
#     4   9  21  38  64 100 130 173 234 288 339 403
#
# _framework density 22.412379000000001
#
# number of rings (size 3 to 8) (size 9 to 14) (size 15 to 20)
#    0.000    1.429    4.286    0.857    2.000    2.857 
#    0.000    0.714    0.000    1.714    0.000    0.000 
#    0.000    0.000    0.000    0.000    0.000    0.000 
#
# Total GULP energy -156116.638717 kJ/mol
# GULP energy per Si atom -5575.594240 kJ/mol
# Density = 2.236137 g / cm^3
# Si number density = 22.412379 Si / 1000 Ang^3
#
#
#
# Elastic Constant Matrix: (Units=GPa)
#
#
# Indices 1 2 3 4 5 6 
#
# 1 81.6142 8.6811 37.8618 0.0001 -0.7535 -0.0002
# 2 8.6811 35.4575 25.8165 0.0005 3.1098 -0.0007
# 3 37.8618 25.8165 153.4042 0.0001 -0.1694 -0.0001
# 4 0.0001 0.0005 0.0001 35.2426 0.0001 5.4127
# 5 -0.7535 3.1098 -0.1694 0.0001 33.0624 0.0000
# 6 -0.0002 -0.0007 -0.0001 5.4127 0.0000 35.2167
#
#
#
# Elastic Compliance Matrix: (Units=1/GPa)
#
#
# Indices 1 2 3 4 5 6 
#
# 1 0.013875 -0.001070 -0.003244 0.000000 0.000400 0.000000
# 2 -0.001070 0.032534 -0.005215 -0.000001 -0.003111 0.000001
# 3 -0.003244 -0.005215 0.008197 0.000000 0.000459 0.000000
# 4 0.000000 -0.000001 0.000000 0.029061 0.000000 -0.004467
# 5 0.000400 -0.003111 0.000459 0.000000 0.030550 0.000000
# 6 0.000000 0.000001 0.000000 -0.004467 0.000000 0.029082
#
#
# Mechanical properties :
#
#
# Convention : Reuss Voigt Hill
#
# Bulk Modulus (GPa) = 28.12978 46.13272 37.13125
# Shear Modulus (GPa) = 28.70147 33.91211 31.30679
#
# Velocity S-wave (km/s) = 3.58244 3.89408 3.74150
# Velocity P-wave (km/s) = 5.44886 6.39114 5.93872
#
# Compressibility (1/GPa) = 0.03554952
#
# Stress axis : x y z
#
# Youngs Moduli (GPa) = 72.07091 30.73674 121.98930
#
# Poissons Ratio (x) = 0.03290 0.39573
# Poissons Ratio (y) = 0.07713 0.63611
# Poissons Ratio (z) = 0.23380 0.16028
#
# Static dielectric constant tensor:
#      x y z
#    x 1.904580 0.000000 0.016420 
#    y 0.000000 1.959660 0.000000 
#    z 0.016420 0.000000 1.906980 
# 
# From -- ./inp_files/278683.got.cif
#   From: 2010.05.17/outbox.cif.g08.bks.cpg/sg15_140_cif.got.tgz:278683.got - 2010.06.03 18:47:42.
