data_PCOD9267745
_publ_section_title
;
Structure prediction by ZEFSAII (Michael W. Deem and Ramdas Pophale) SiO2 
 PCOD9267745
Probable space group: C 2/C
;
_chemical_formula_sum "Si O2"
_cell_formula_units_Z 56
_cell_length_a 11.407060
_cell_length_b 10.024722
_cell_length_c 31.136812
_cell_angle_alpha 90.000000
_cell_angle_beta 41.702539
_cell_angle_gamma 90.000000
_cell_volume 2368.720756
_symmetry_space_group_name_H-M "C 2/C"
_symmetry_group_IT_number 15
_symmetry_cell_setting 'monoclinic'
loop_
_space_group_symop_operation_xyz
x,y,z
-x,y,1/2-z
-x,-y,-z
x,-y,1/2+z
1/2+x,1/2+y,z
1/2-x,1/2+y,1/2-z
1/2-x,1/2-y,-z
1/2+x,1/2-y,1/2+z
loop_
_atom_site_type_symbol
_atom_site_label
_atom_site_fract_x
_atom_site_fract_y
_atom_site_fract_z
Si Si1 0.338560 0.495521 0.679208
Si Si2 0.030815 0.159007 0.487253
Si Si3 0.159192 0.764444 0.378463
Si Si4 0.900308 0.269142 0.120328
Si Si5 0.067587 0.660535 0.130490
Si Si6 0.505667 0.118104 0.681505
Si Si7 0.926087 0.084580 0.817126
O O1 0.407192 0.595500 0.623958
O O2 0.290704 0.355092 0.671016
O O3 0.178327 0.573228 0.746561
O O4 0.494545 0.478957 0.671352
O O5 0.995043 0.206933 0.448263
O O6 0.237093 0.190888 0.440215
O O7 0.916561 0.239254 0.553104
O O8 0.000000 0.000000 0.500000
O O9 0.368281 0.786890 0.325333
O O10 0.078197 0.658401 0.367330
O O11 0.991863 0.325537 0.137300
O O12 0.778878 0.384909 0.133301
O O13 0.009805 0.775607 0.179317
O O14 0.093121 0.525185 0.149463
O O15 0.000000 0.060251 0.750000
#
# Coordination Sequence:
#
# PCOD9267745 Si02
#       7
#     8   8   8   8   8   8   8
#     4  11  23  40  65  93 127 164 212 259 316 389
#     4  11  20  44  67  89 123 166 222 267 310 385
#     4  11  23  42  64  96 121 169 216 263 320 379
#     4  11  24  40  65  95 126 168 210 262 322 378
#     4  10  23  39  68  90 124 164 217 266 320 385
#     4  12  24  40  61  96 132 165 204 265 326 389
#     4  10  19  40  63  88 122 165 208 258 317 376
#
# _framework density 23.641452999999998
#
# number of rings (size 3 to 8) (size 9 to 14) (size 15 to 20)
#    0.000    1.143    4.286    2.571    2.000    1.714 
#    0.000    0.714    0.000    0.000    0.000    0.000 
#    0.000    0.000    0.000    0.000    0.000    0.000 
#
# Total GULP energy -156341.743265 kJ/mol
# GULP energy per Si atom -5583.633688 kJ/mol
# Density = 2.358764 g / cm^3
# Si number density = 23.641453 Si / 1000 Ang^3
#
#
#
# Elastic Constant Matrix: (Units=GPa)
#
#
# Indices 1 2 3 4 5 6 
#
# 1 134.9600 31.2163 11.7203 0.0000 24.6978 0.0000
# 2 31.2163 43.7511 7.8426 0.0000 0.5347 0.0000
# 3 11.7203 7.8426 72.8511 0.0000 18.4774 0.0000
# 4 0.0000 0.0000 0.0000 17.4117 0.0000 -0.3477
# 5 24.6978 0.5347 18.4774 0.0000 40.4914 0.0000
# 6 0.0000 0.0000 0.0000 -0.3477 0.0000 16.3968
#
#
#
# Elastic Compliance Matrix: (Units=1/GPa)
#
#
# Indices 1 2 3 4 5 6 
#
# 1 0.010235 -0.007366 0.000797 0.000000 -0.006510 0.000000
# 2 -0.007366 0.028640 -0.003327 0.000000 0.005633 0.000000
# 3 0.000797 -0.003327 0.015910 0.000000 -0.007703 0.000000
# 4 0.000000 0.000000 0.000000 0.057457 0.000000 0.001219
# 5 -0.006510 0.005633 -0.007703 0.000000 0.032108 0.000000
# 6 0.000000 0.000000 0.000000 0.001219 0.000000 0.061013
#
#
# Mechanical properties :
#
#
# Convention : Reuss Voigt Hill
#
# Bulk Modulus (GPa) = 28.57624 39.23560 33.90592
# Shear Modulus (GPa) = 21.11310 28.24552 24.67931
#
# Velocity S-wave (km/s) = 2.99164 3.46026 3.23445
# Velocity P-wave (km/s) = 4.90376 5.70935 5.32182
#
# Compressibility (1/GPa) = 0.03499410
#
# Stress axis : x y z
#
# Youngs Moduli (GPa) = 97.69941 34.91632 62.85303
#
# Poissons Ratio (x) = 0.25721 -0.05012
# Poissons Ratio (y) = 0.71969 0.20910
# Poissons Ratio (z) = -0.07791 0.11616
#
# Static dielectric constant tensor:
#      x y z
#    x 1.960920 0.000000 -0.043970 
#    y 0.000000 1.929480 0.000000 
#    z -0.043970 0.000000 1.930170 
# 
# From -- ./inp_files/292223.got.cif
#   From: 2010.05.17/outbox.cif.g08.bks.cpg/sg15_147_cif.got.tgz:292223.got - 2010.06.03 18:47:42.
