data_PCOD9267464
_publ_section_title
;
Structure prediction by ZEFSAII (Michael W. Deem and Ramdas Pophale) SiO2 
 PCOD9267464
Probable space group: C 2/C
;
_chemical_formula_sum "Si O2"
_cell_formula_units_Z 52
_cell_length_a 12.687860
_cell_length_b 8.813796
_cell_length_c 25.644424
_cell_angle_alpha 90.000000
_cell_angle_beta 57.717579
_cell_angle_gamma 90.000000
_cell_volume 2424.486592
_symmetry_space_group_name_H-M "C 2/C"
_symmetry_group_IT_number 15
_symmetry_cell_setting 'monoclinic'
loop_
_space_group_symop_operation_xyz
x,y,z
-x,y,1/2-z
-x,-y,-z
x,-y,1/2+z
1/2+x,1/2+y,z
1/2-x,1/2+y,1/2-z
1/2-x,1/2-y,-z
1/2+x,1/2-y,1/2+z
loop_
_atom_site_type_symbol
_atom_site_label
_atom_site_fract_x
_atom_site_fract_y
_atom_site_fract_z
Si Si1 0.368048 0.778528 0.737357
Si Si2 0.142370 0.788008 0.141498
Si Si3 0.500000 0.063883 0.750000
Si Si4 0.246021 0.583214 0.431219
Si Si5 0.921050 0.199435 0.470340
Si Si6 0.260857 0.779650 0.330097
Si Si7 0.327059 0.539525 0.081324
O O1 0.332265 0.706131 0.802551
O O2 0.492708 0.702830 0.679947
O O3 0.261396 0.768018 0.723073
O O4 0.416050 0.948677 0.737904
O O5 0.196682 0.625855 0.109525
O O6 0.211187 0.911997 0.088415
O O7 0.597924 0.171406 0.696186
O O8 0.126292 0.638204 0.496071
O O9 0.359822 0.668628 0.430618
O O10 0.225092 0.648385 0.379192
O O11 0.066656 0.164752 0.436700
O O12 0.860416 0.068937 0.524069
O O13 0.181365 0.927326 0.367298
#
# Coordination Sequence:
#
# PCOD9267464 Si02
#       7
#     8   8   4   8   8   8   8
#     4  10  22  40  61  92 125 158 205 254 298 400
#     4  10  21  38  61  89 124 155 209 252 313 369
#     4  10  22  42  60  98 124 168 210 252 308 396
#     4  10  22  38  55  92 118 158 204 266 300 373
#     4   9  21  39  58  84 122 156 217 248 310 369
#     4  11  22  39  64  86 126 162 201 250 325 360
#     4  10  19  39  64  81 117 175 193 258 314 362
#
# _framework density 21.447839999999999
#
# number of rings (size 3 to 8) (size 9 to 14) (size 15 to 20)
#    0.000    2.154    3.077    0.923    2.154    3.692 
#    0.000    0.000    0.000    0.000    0.000    0.000 
#    0.000    0.000    0.000    0.000    0.000    0.000 
#
# Total GULP energy -144986.355345 kJ/mol
# GULP energy per Si atom -5576.398282 kJ/mol
# Density = 2.139902 g / cm^3
# Si number density = 21.447840 Si / 1000 Ang^3
#
#
#
# Elastic Constant Matrix: (Units=GPa)
#
#
# Indices 1 2 3 4 5 6 
#
# 1 42.4894 -3.3346 16.0913 0.0000 10.1643 0.0000
# 2 -3.3346 30.4418 -0.5120 0.0000 -4.4788 0.0000
# 3 16.0913 -0.5120 50.0693 0.0000 -4.5533 0.0000
# 4 0.0000 0.0000 0.0000 19.0142 0.0000 -10.4971
# 5 10.1643 -4.4788 -4.5533 0.0000 25.9313 0.0000
# 6 0.0000 0.0000 0.0000 -10.4971 0.0000 17.8107
#
#
#
# Elastic Compliance Matrix: (Units=1/GPa)
#
#
# Indices 1 2 3 4 5 6 
#
# 1 0.031271 0.001169 -0.011315 0.000000 -0.014042 0.000000
# 2 0.001169 0.033789 0.000466 0.000000 0.005459 0.000000
# 3 -0.011315 0.000466 0.024414 0.000000 0.008803 0.000000
# 4 0.000000 0.000000 0.000000 0.077957 0.000000 0.045945
# 5 -0.014042 0.005459 0.008803 0.000000 0.046556 0.000000
# 6 0.000000 0.000000 0.000000 0.045945 0.000000 0.083225
#
#
# Mechanical properties :
#
#
# Convention : Reuss Voigt Hill
#
# Bulk Modulus (GPa) = 14.26231 16.38777 15.32504
# Shear Modulus (GPa) = 14.70834 19.93496 17.32165
#
# Velocity S-wave (km/s) = 2.62157 3.05202 2.84494
# Velocity P-wave (km/s) = 3.97840 4.48075 4.23703
#
# Compressibility (1/GPa) = 0.07011487
#
# Stress axis : x y z
#
# Youngs Moduli (GPa) = 31.97806 29.59564 40.96001
#
# Poissons Ratio (x) = -0.03460 0.46347
# Poissons Ratio (y) = -0.03739 -0.01910
# Poissons Ratio (z) = 0.36184 -0.01380
#
# Static dielectric constant tensor:
#      x y z
#    x 1.782530 0.000000 -0.030800 
#    y 0.000000 1.784460 0.000000 
#    z -0.030800 0.000000 1.805050 
# 
# From -- ./inp_files/295027.got.cif
#   From: 2010.05.17/outbox.cif.g08.bks.cpg/sg15_148_cif.got.tgz:295027.got - 2010.06.03 18:47:42.
