data_PCOD9267062
_publ_section_title
;
Structure prediction by ZEFSAII (Michael W. Deem and Ramdas Pophale) SiO2 
 PCOD9267062
Probable space group: C 2/C
;
_chemical_formula_sum "Si O2"
_cell_formula_units_Z 40
_cell_length_a 22.850841
_cell_length_b 5.545287
_cell_length_c 19.826138
_cell_angle_alpha 90.000000
_cell_angle_beta 142.137568
_cell_angle_gamma 90.000000
_cell_volume 1541.943125
_symmetry_space_group_name_H-M "C 2/C"
_symmetry_group_IT_number 15
_symmetry_cell_setting 'monoclinic'
loop_
_space_group_symop_operation_xyz
x,y,z
-x,y,1/2-z
-x,-y,-z
x,-y,1/2+z
1/2+x,1/2+y,z
1/2-x,1/2+y,1/2-z
1/2-x,1/2-y,-z
1/2+x,1/2-y,1/2+z
loop_
_atom_site_type_symbol
_atom_site_label
_atom_site_fract_x
_atom_site_fract_y
_atom_site_fract_z
Si Si1 0.180518 0.072081 0.289147
Si Si2 0.523939 0.742508 0.584029
Si Si3 0.112158 0.021913 0.373275
Si Si4 0.346702 0.873113 0.358460
Si Si5 0.929299 0.485220 0.621245
O O1 0.079254 0.959085 0.175005
O O2 0.264197 0.900854 0.337805
O O3 0.171926 0.087362 0.361011
O O4 0.191404 0.301968 0.250046
O O5 0.425544 0.683736 0.456860
O O6 0.490954 0.932835 0.611394
O O7 0.595340 0.880144 0.599180
O O8 0.119868 0.254181 0.428494
O O9 0.000000 0.002985 0.250000
O O10 0.132829 0.756600 0.421888
O O11 0.000000 0.504466 0.750000
#
# Coordination Sequence:
#
# PCOD9267062 Si02
#       5
#     8   8   8   8   8
#     4  12  22  42  66  96 133 177 223 279 333 410
#     4  11  23  43  65  94 134 171 227 276 333 406
#     4  10  20  35  67  91 126 176 217 265 340 387
#     4  11  25  40  66  98 128 177 222 276 342 395
#     4  10  19  38  64  94 123 179 213 272 337 389
#
# _framework density 25.941296999999999
#
# number of rings (size 3 to 8) (size 9 to 14) (size 15 to 20)
#    0.000    1.200    6.000    3.000    0.000    0.000 
#    0.000    2.000    0.000    0.000    0.000    1.400 
#    0.000    0.000    0.000    0.000    0.000    0.000 
#
# Total GULP energy -111912.533760 kJ/mol
# GULP energy per Si atom -5595.626688 kJ/mol
# Density = 2.588225 g / cm^3
# Si number density = 25.941297 Si / 1000 Ang^3
#
#
#
# Elastic Constant Matrix: (Units=GPa)
#
#
# Indices 1 2 3 4 5 6 
#
# 1 156.8990 11.6551 11.8803 -0.0006 -0.1925 -0.0006
# 2 11.6551 116.4989 -0.9998 -0.0010 5.4345 -0.0006
# 3 11.8803 -0.9998 50.5791 -0.0003 11.5744 -0.0002
# 4 -0.0006 -0.0010 -0.0003 14.2351 0.0000 -11.5773
# 5 -0.1925 5.4345 11.5744 0.0000 34.7096 0.0000
# 6 -0.0006 -0.0006 -0.0002 -11.5773 0.0000 37.0147
#
#
#
# Elastic Compliance Matrix: (Units=1/GPa)
#
#
# Indices 1 2 3 4 5 6 
#
# 1 0.006557 -0.000704 -0.001719 0.000000 0.000720 0.000000
# 2 -0.000704 0.008735 0.000706 0.000001 -0.001607 0.000000
# 3 -0.001719 0.000706 0.021886 0.000001 -0.007418 0.000000
# 4 0.000000 0.000001 0.000001 0.094215 0.000000 0.029468
# 5 0.000720 -0.001607 -0.007418 0.000000 0.031540 0.000000
# 6 0.000000 0.000000 0.000000 0.029468 0.000000 0.036233
#
#
# Mechanical properties :
#
#
# Convention : Reuss Voigt Hill
#
# Bulk Modulus (GPa) = 29.63494 41.00536 35.32015
# Shear Modulus (GPa) = 23.38095 37.28797 30.33446
#
# Velocity S-wave (km/s) = 3.00543 3.79542 3.42329
# Velocity P-wave (km/s) = 4.84686 5.92015 5.41019
#
# Compressibility (1/GPa) = 0.03374396
#
# Stress axis : x y z
#
# Youngs Moduli (GPa) = 152.51171 114.47863 45.69074
#
# Poissons Ratio (x) = 0.08063 0.07853
# Poissons Ratio (y) = 0.10742 -0.03225
# Poissons Ratio (z) = 0.26213 -0.08080
#
# Static dielectric constant tensor:
#      x y z
#    x 1.980080 0.000000 0.016600 
#    y 0.000000 2.138080 0.000000 
#    z 0.016600 0.000000 2.093470 
# 
# From -- ./inp_files/212612.got.cif
#   From: 2010.05.17/outbox.cif.g08.bks.cpg/sg15_107_cif.got.tgz:212612.got - 2010.06.03 18:47:42.
