data_PCOD9267194
_publ_section_title
;
Structure prediction by ZEFSAII (Michael W. Deem and Ramdas Pophale) SiO2 
 PCOD9267194
Probable space group: C 2/C
;
_chemical_formula_sum "Si O2"
_cell_formula_units_Z 44
_cell_length_a 7.539902
_cell_length_b 17.451482
_cell_length_c 24.749635
_cell_angle_alpha 90.000000
_cell_angle_beta 138.322609
_cell_angle_gamma 90.000000
_cell_volume 2165.441470
_symmetry_space_group_name_H-M "C 2/C"
_symmetry_group_IT_number 15
_symmetry_cell_setting 'monoclinic'
loop_
_space_group_symop_operation_xyz
x,y,z
-x,y,1/2-z
-x,-y,-z
x,-y,1/2+z
1/2+x,1/2+y,z
1/2-x,1/2+y,1/2-z
1/2-x,1/2-y,-z
1/2+x,1/2-y,1/2+z
loop_
_atom_site_type_symbol
_atom_site_label
_atom_site_fract_x
_atom_site_fract_y
_atom_site_fract_z
Si Si1 0.641993 0.304561 0.112541
Si Si2 0.741059 0.801168 0.925096
Si Si3 0.301589 0.467317 0.315367
Si Si4 0.975601 0.061344 0.042852
Si Si5 0.500000 0.583210 0.750000
Si Si6 0.999330 0.322273 0.094585
O O1 0.545907 0.235823 0.129085
O O2 0.699211 0.381034 0.159393
O O3 0.873230 0.288798 0.121488
O O4 0.384422 0.318054 0.015247
O O5 0.919692 0.739770 0.932102
O O6 0.771790 0.881194 0.901928
O O7 0.506454 0.515818 0.397602
O O8 0.383685 0.464894 0.272365
O O9 0.000000 0.496099 0.250000
O O10 0.716283 0.115116 0.975566
O O11 0.000000 0.000000 0.000000
O O12 0.732866 0.634935 0.827712
#
# Coordination Sequence:
#
# PCOD9267194 Si02
#       6
#     8   8   8   8   4   8
#     4  10  19  38  67  91 124 165 214 271 319 390
#     4  10  21  39  66  99 124 161 222 276 324 387
#     4  12  23  43  64  94 138 178 220 274 340 405
#     4  11  21  41  68 100 132 173 218 276 335 388
#     4  12  24  40  64  98 134 186 218 270 346 402
#     4  11  22  41  67  98 130 171 228 271 329 395
#
# _framework density 20.319182999999999
#
# number of rings (size 3 to 8) (size 9 to 14) (size 15 to 20)
#    0.000    1.091    7.273    2.182    0.000    0.727 
#    1.636    5.455    0.000    0.000    2.364    0.000 
#    0.000    0.000    0.000    0.000    0.000    0.000 
#
# Total GULP energy -122792.926551 kJ/mol
# GULP energy per Si atom -5581.496661 kJ/mol
# Density = 2.027294 g / cm^3
# Si number density = 20.319183 Si / 1000 Ang^3
#
#
#
# Elastic Constant Matrix: (Units=GPa)
#
#
# Indices 1 2 3 4 5 6 
#
# 1 122.7767 36.2571 30.6355 -0.0003 -7.5898 -0.0001
# 2 36.2571 90.9510 36.8403 0.0000 -5.9113 0.0001
# 3 30.6355 36.8403 77.2602 -0.0004 -5.7572 0.0000
# 4 -0.0003 0.0000 -0.0004 10.7285 -0.0003 -7.0074
# 5 -7.5898 -5.9113 -5.7572 -0.0003 37.5488 0.0000
# 6 -0.0001 0.0001 0.0000 -7.0074 0.0000 5.6299
#
#
#
# Elastic Compliance Matrix: (Units=1/GPa)
#
#
# Indices 1 2 3 4 5 6 
#
# 1 0.009641 -0.002795 -0.002405 0.000002 0.001140 0.000003
# 2 -0.002795 0.014488 -0.005738 -0.000003 0.000836 -0.000004
# 3 -0.002405 -0.005738 0.016720 0.000004 0.001174 0.000005
# 4 0.000002 -0.000003 0.000004 0.498391 0.000005 0.620338
# 5 0.001140 0.000836 0.001174 0.000005 0.027174 0.000007
# 6 0.000003 -0.000004 0.000005 0.620338 0.000007 0.949747
#
#
# Mechanical properties :
#
#
# Convention : Reuss Voigt Hill
#
# Bulk Modulus (GPa) = 52.70553 55.38375 54.04464
# Shear Modulus (GPa) = 3.23759 23.26510 13.25134
#
# Velocity S-wave (km/s) = 1.26365 3.38743 2.55651
# Velocity P-wave (km/s) = 5.30323 6.52806 5.94726
#
# Compressibility (1/GPa) = 0.01897334
#
# Stress axis : x y z
#
# Youngs Moduli (GPa) = 103.72525 69.02494 59.80734
#
# Poissons Ratio (x) = 0.19292 0.14385
# Poissons Ratio (y) = 0.28991 0.34315
# Poissons Ratio (z) = 0.24947 0.39604
#
# Static dielectric constant tensor:
#      x y z
#    x 1.769260 0.000000 -0.000130 
#    y 0.000000 1.738730 0.000000 
#    z -0.000130 0.000000 1.717060 
# 
# From -- ./inp_files/288938.got.cif
#   From: 2010.05.17/outbox.cif.g08.bks.cpg/sg15_145_cif.got.tgz:288938.got - 2010.06.03 18:47:42.
