data_PCOD9267935
_publ_section_title
;
Structure prediction by ZEFSAII (Michael W. Deem and Ramdas Pophale) SiO2 
 PCOD9267935
Probable space group: C 2/C
;
_chemical_formula_sum "Si O2"
_cell_formula_units_Z 48
_cell_length_a 12.759416
_cell_length_b 13.455508
_cell_length_c 14.494881
_cell_angle_alpha 90.000000
_cell_angle_beta 123.043258
_cell_angle_gamma 90.000000
_cell_volume 2086.045814
_symmetry_space_group_name_H-M "C 2/C"
_symmetry_group_IT_number 15
_symmetry_cell_setting 'monoclinic'
loop_
_space_group_symop_operation_xyz
x,y,z
-x,y,1/2-z
-x,-y,-z
x,-y,1/2+z
1/2+x,1/2+y,z
1/2-x,1/2+y,1/2-z
1/2-x,1/2-y,-z
1/2+x,1/2-y,1/2+z
loop_
_atom_site_type_symbol
_atom_site_label
_atom_site_fract_x
_atom_site_fract_y
_atom_site_fract_z
Si Si1 0.210476 0.340866 0.712949
Si Si2 0.792833 0.800015 0.138003
Si Si3 0.376943 0.415771 0.647484
Si Si4 0.511431 0.619938 0.879045
Si Si5 0.975536 0.614474 0.007001
Si Si6 0.873991 0.793154 0.474093
O O1 0.243209 0.303413 0.829605
O O2 0.285481 0.424070 0.691988
O O3 0.062711 0.364009 0.638307
O O4 0.224974 0.247216 0.648834
O O5 0.892399 0.850878 0.257785
O O6 0.621602 0.699749 0.911811
O O7 0.670238 0.864329 0.063125
O O8 0.500000 0.365740 0.750000
O O9 0.428231 0.516162 0.624111
O O10 0.324728 0.348521 0.539711
O O11 0.462530 0.631097 0.959068
O O12 0.041032 0.694418 0.968751
O O13 0.000000 0.500000 0.000000
#
# Coordination Sequence:
#
# PCOD9267935 Si02
#       6
#     8   8   8   8   8   8
#     4   9  22  38  59  89 124 165 204 266 315 380
#     4  10  19  41  59  91 125 162 213 262 313 378
#     4  12  20  35  64  91 124 163 210 266 323 370
#     4  10  21  37  63  89 126 164 216 263 312 384
#     4  10  21  37  61  86 125 169 212 255 321 381
#     4   9  22  38  57  92 122 164 211 263 312 383
#
# _framework density 23.010041000000001
#
# number of rings (size 3 to 8) (size 9 to 14) (size 15 to 20)
#    1.000    1.000    1.667    3.000    0.000    0.667 
#    0.000    0.000    0.000    8.000    0.000    0.000 
#    0.000    0.000    0.000    0.000    0.000    0.000 
#
# Total GULP energy -133622.915687 kJ/mol
# GULP energy per Si atom -5567.621487 kJ/mol
# Density = 2.295767 g / cm^3
# Si number density = 23.010041 Si / 1000 Ang^3
#
#
#
# Elastic Constant Matrix: (Units=GPa)
#
#
# Indices 1 2 3 4 5 6 
#
# 1 124.2897 16.1480 32.4067 0.0000 7.4970 0.0000
# 2 16.1480 92.7178 18.3160 0.0000 -5.4315 0.0000
# 3 32.4067 18.3160 67.1778 0.0000 6.2013 0.0000
# 4 0.0000 0.0000 0.0000 24.6374 0.0000 0.5102
# 5 7.4970 -5.4315 6.2013 0.0000 48.6802 0.0000
# 6 0.0000 0.0000 0.0000 0.5102 0.0000 36.4953
#
#
#
# Elastic Compliance Matrix: (Units=1/GPa)
#
#
# Indices 1 2 3 4 5 6 
#
# 1 0.009302 -0.000856 -0.004162 0.000000 -0.000998 0.000000
# 2 -0.000856 0.011617 -0.002920 0.000000 0.001800 0.000000
# 3 -0.004162 -0.002920 0.017871 0.000000 -0.001961 0.000000
# 4 0.000000 0.000000 0.000000 0.040600 0.000000 -0.000568
# 5 -0.000998 0.001800 -0.001961 0.000000 0.021147 0.000000
# 6 0.000000 0.000000 0.000000 -0.000568 0.000000 0.027409
#
#
# Mechanical properties :
#
#
# Convention : Reuss Voigt Hill
#
# Bulk Modulus (GPa) = 43.64365 46.43628 45.03997
# Shear Modulus (GPa) = 33.01186 36.45023 34.73105
#
# Velocity S-wave (km/s) = 3.79182 3.98439 3.88930
# Velocity P-wave (km/s) = 6.17891 6.43365 6.30757
#
# Compressibility (1/GPa) = 0.02291284
#
# Stress axis : x y z
#
# Youngs Moduli (GPa) = 107.50005 86.08128 55.95706
#
# Poissons Ratio (x) = 0.07372 0.23288
# Poissons Ratio (y) = 0.09207 0.16342
# Poissons Ratio (z) = 0.44740 0.25139
#
# Static dielectric constant tensor:
#      x y z
#    x 1.926310 0.000000 -0.005690 
#    y 0.000000 1.972530 0.000000 
#    z -0.005690 0.000000 1.927060 
# 
# From -- ./inp_files/154107.got.cif
#   From: 2010.05.17/outbox.cif.g08.bks.cpg/sg15_78_cif.got.tgz:154107.got - 2010.06.03 18:47:42.
