data_PCOD9267203
_publ_section_title
;
Structure prediction by ZEFSAII (Michael W. Deem and Ramdas Pophale) SiO2 
 PCOD9267203
Probable space group: C 2/C
;
_chemical_formula_sum "Si O2"
_cell_formula_units_Z 48
_cell_length_a 11.341713
_cell_length_b 7.223462
_cell_length_c 20.244050
_cell_angle_alpha 90.000000
_cell_angle_beta 81.274250
_cell_angle_gamma 90.000000
_cell_volume 1639.326740
_symmetry_space_group_name_H-M "C 2/C"
_symmetry_group_IT_number 15
_symmetry_cell_setting 'monoclinic'
loop_
_space_group_symop_operation_xyz
x,y,z
-x,y,1/2-z
-x,-y,-z
x,-y,1/2+z
1/2+x,1/2+y,z
1/2-x,1/2+y,1/2-z
1/2-x,1/2-y,-z
1/2+x,1/2-y,1/2+z
loop_
_atom_site_type_symbol
_atom_site_label
_atom_site_fract_x
_atom_site_fract_y
_atom_site_fract_z
Si Si1 0.727001 0.733960 0.638818
Si Si2 0.034813 0.398545 0.843969
Si Si3 0.344730 0.029920 0.034477
Si Si4 0.584050 0.632027 0.034217
Si Si5 0.274287 0.991144 0.260666
Si Si6 0.936687 0.201509 0.317389
O O1 0.594058 0.806393 0.633584
O O2 0.805534 0.667420 0.570093
O O3 0.578193 0.401757 0.612955
O O4 0.789026 0.901128 0.674420
O O5 0.115824 0.364443 0.901316
O O6 0.116136 0.371623 0.771845
O O7 0.012415 0.617444 0.834214
O O8 0.279523 0.424121 0.992196
O O9 0.434573 0.146313 0.978509
O O10 0.500000 0.500000 0.000000
O O11 0.220695 0.927623 0.195339
O O12 0.326805 0.810772 0.293025
O O13 0.000000 0.105053 0.250000
#
# Coordination Sequence:
#
# PCOD9267203 Si02
#       6
#     8   8   8   8   8   8
#     4  10  19  38  67  97 146 193 243 302 379 449
#     4   9  19  41  68  99 138 191 239 305 372 444
#     4  10  23  42  66  97 142 191 242 299 368 464
#     4  11  24  45  69 101 146 195 249 315 378 451
#     4   9  20  36  66 104 145 190 242 316 376 444
#     4   9  20  42  68 100 140 177 244 314 365 440
#
# _framework density 29.280311999999999
#
# number of rings (size 3 to 8) (size 9 to 14) (size 15 to 20)
#    0.000    2.333    0.000    2.500    4.667    0.667 
#    0.000   29.167    0.000    0.000    0.000    0.000 
#    0.000    0.000    0.000    0.000    0.000    0.000 
#
# Total GULP energy -134021.001332 kJ/mol
# GULP energy per Si atom -5584.208389 kJ/mol
# Density = 2.921367 g / cm^3
# Si number density = 29.280312 Si / 1000 Ang^3
#
#
#
# Elastic Constant Matrix: (Units=GPa)
#
#
# Indices 1 2 3 4 5 6 
#
# 1 143.8088 34.2791 51.9895 0.0000 26.4683 0.0000
# 2 34.2791 91.7013 44.1475 0.0000 -1.1444 0.0000
# 3 51.9895 44.1475 155.3181 0.0000 13.0673 0.0000
# 4 0.0000 0.0000 0.0000 58.1050 0.0000 7.8364
# 5 26.4683 -1.1444 13.0673 0.0000 65.9822 0.0000
# 6 0.0000 0.0000 0.0000 7.8364 0.0000 41.8891
#
#
#
# Elastic Compliance Matrix: (Units=1/GPa)
#
#
# Indices 1 2 3 4 5 6 
#
# 1 0.008834 -0.002372 -0.002015 0.000000 -0.003186 0.000000
# 2 -0.002372 0.013329 -0.003147 0.000000 0.001806 0.000000
# 3 -0.002015 -0.003147 0.008078 0.000000 -0.000846 0.000000
# 4 0.000000 0.000000 0.000000 0.017656 0.000000 -0.003303
# 5 -0.003186 0.001806 -0.000846 0.000000 0.016632 0.000000
# 6 0.000000 0.000000 0.000000 -0.003303 0.000000 0.024490
#
#
# Mechanical properties :
#
#
# Convention : Reuss Voigt Hill
#
# Bulk Modulus (GPa) = 65.89951 72.40670 69.15310
# Shear Modulus (GPa) = 45.81083 50.55607 48.18345
#
# Velocity S-wave (km/s) = 3.95974 4.15977 4.06099
# Velocity P-wave (km/s) = 6.59252 6.91767 6.75705
#
# Compressibility (1/GPa) = 0.01517462
#
# Stress axis : x y z
#
# Youngs Moduli (GPa) = 113.20191 75.02416 123.78759
#
# Poissons Ratio (x) = 0.17796 0.24939
# Poissons Ratio (y) = 0.26852 0.38951
# Poissons Ratio (z) = 0.22807 0.23607
#
# Static dielectric constant tensor:
#      x y z
#    x 2.505580 0.000000 -0.090460 
#    y 0.000000 2.431310 0.000000 
#    z -0.090460 0.000000 2.207890 
# 
# From -- ./inp_files/290826.got.cif
#   From: 2010.05.17/outbox.cif.g08.bks.cpg/sg15_146_cif.got.tgz:290826.got - 2010.06.03 18:47:42.
