data_PCOD9267209
_publ_section_title
;
Structure prediction by ZEFSAII (Michael W. Deem and Ramdas Pophale) SiO2 
 PCOD9267209
Probable space group: C 2/C
;
_chemical_formula_sum "Si O2"
_cell_formula_units_Z 44
_cell_length_a 13.941970
_cell_length_b 11.281308
_cell_length_c 26.002992
_cell_angle_alpha 90.000000
_cell_angle_beta 29.319984
_cell_angle_gamma 90.000000
_cell_volume 2002.742583
_symmetry_space_group_name_H-M "C 2/C"
_symmetry_group_IT_number 15
_symmetry_cell_setting 'monoclinic'
loop_
_space_group_symop_operation_xyz
x,y,z
-x,y,1/2-z
-x,-y,-z
x,-y,1/2+z
1/2+x,1/2+y,z
1/2-x,1/2+y,1/2-z
1/2-x,1/2-y,-z
1/2+x,1/2-y,1/2+z
loop_
_atom_site_type_symbol
_atom_site_label
_atom_site_fract_x
_atom_site_fract_y
_atom_site_fract_z
Si Si1 0.000000 0.736829 0.250000
Si Si2 0.250852 0.558688 0.825336
Si Si3 0.928127 0.142784 0.172575
Si Si4 0.676435 0.563078 0.388437
Si Si5 0.179837 0.626892 0.448982
Si Si6 0.200376 0.694044 0.685001
O O1 0.108643 0.827769 0.237060
O O2 0.175238 0.649133 0.150429
O O3 0.328947 0.472075 0.745117
O O4 0.253385 0.481219 0.877653
O O5 0.023161 0.594186 0.928946
O O6 0.810359 0.250546 0.253694
O O7 0.151600 0.150125 0.087976
O O8 0.906408 0.130429 0.122391
O O9 0.500000 0.500000 0.500000
O O10 0.791987 0.446068 0.316086
O O11 0.148775 0.736044 0.422937
O O12 0.000000 0.729195 0.750000
#
# Coordination Sequence:
#
# PCOD9267209 Si02
#       6
#     4   8   8   8   8   8
#     4  12  24  42  64  96 134 174 214 274 338 384
#     4  10  19  38  68 100 127 165 216 277 326 385
#     4  10  22  40  69  94 126 174 225 269 320 398
#     4  12  27  43  62  96 141 178 210 275 340 387
#     4   9  18  38  69  97 127 164 219 274 321 387
#     4   9  19  43  62  89 129 173 216 264 326 396
#
# _framework density 21.969873
#
# number of rings (size 3 to 8) (size 9 to 14) (size 15 to 20)
#    0.000    1.818    2.727    2.182    2.545    1.455 
#    0.000    3.636    0.000    0.000    0.000    0.000 
#    0.000    0.000    0.000    0.000    0.000    0.000 
#
# Total GULP energy -122829.735381 kJ/mol
# GULP energy per Si atom -5583.169790 kJ/mol
# Density = 2.191987 g / cm^3
# Si number density = 21.969873 Si / 1000 Ang^3
#
#
#
# Elastic Constant Matrix: (Units=GPa)
#
#
# Indices 1 2 3 4 5 6 
#
# 1 83.4254 26.3135 50.8060 0.0001 -1.5254 -0.0001
# 2 26.3135 125.6334 18.7707 -0.0001 0.8578 -0.0001
# 3 50.8060 18.7707 83.8497 -0.0009 -0.0542 -0.0005
# 4 0.0001 -0.0001 -0.0009 33.5847 -0.0003 -6.6456
# 5 -1.5254 0.8578 -0.0542 -0.0003 28.4686 0.0001
# 6 -0.0001 -0.0001 -0.0005 -6.6456 0.0001 29.3130
#
#
#
# Elastic Compliance Matrix: (Units=1/GPa)
#
#
# Indices 1 2 3 4 5 6 
#
# 1 0.019719 -0.002434 -0.011402 0.000000 0.001108 0.000000
# 2 -0.002434 0.008537 -0.000437 0.000000 -0.000389 0.000000
# 3 -0.011402 -0.000437 0.018932 0.000001 -0.000562 0.000000
# 4 0.000000 0.000000 0.000001 0.031174 0.000000 0.007067
# 5 0.001108 -0.000389 -0.000562 0.000000 0.035196 0.000000
# 6 0.000000 0.000000 0.000000 0.007067 0.000000 0.035717
#
#
# Mechanical properties :
#
#
# Convention : Reuss Voigt Hill
#
# Bulk Modulus (GPa) = 53.64082 53.85434 53.74758
# Shear Modulus (GPa) = 27.16860 31.40779 29.28819
#
# Velocity S-wave (km/s) = 3.52039 3.78509 3.65514
# Velocity P-wave (km/s) = 6.40256 6.60822 6.50620
#
# Compressibility (1/GPa) = 0.01864252
#
# Stress axis : x y z
#
# Youngs Moduli (GPa) = 50.71311 117.13238 52.81955
#
# Poissons Ratio (x) = 0.28510 0.60227
# Poissons Ratio (y) = 0.12344 0.02306
# Poissons Ratio (z) = 0.57825 0.05114
#
# Static dielectric constant tensor:
#      x y z
#    x 1.796910 0.000000 -0.017950 
#    y 0.000000 1.860070 0.000000 
#    z -0.017950 0.000000 1.848960 
# 
# From -- ./inp_files/151769.got.cif
#   From: 2010.05.17/outbox.cif.g08.bks.cpg/sg15_76_cif.got.tgz:151769.got - 2010.06.03 18:47:42.
