data_PCOD9267042
_publ_section_title
;
Structure prediction by ZEFSAII (Michael W. Deem and Ramdas Pophale) SiO2 
 PCOD9267042
Probable space group: C 2/C
;
_chemical_formula_sum "Si O2"
_cell_formula_units_Z 36
_cell_length_a 10.260726
_cell_length_b 9.077617
_cell_length_c 22.527981
_cell_angle_alpha 90.000000
_cell_angle_beta 43.456883
_cell_angle_gamma 90.000000
_cell_volume 1443.244008
_symmetry_space_group_name_H-M "C 2/C"
_symmetry_group_IT_number 15
_symmetry_cell_setting 'monoclinic'
loop_
_space_group_symop_operation_xyz
x,y,z
-x,y,1/2-z
-x,-y,-z
x,-y,1/2+z
1/2+x,1/2+y,z
1/2-x,1/2+y,1/2-z
1/2-x,1/2-y,-z
1/2+x,1/2-y,1/2+z
loop_
_atom_site_type_symbol
_atom_site_label
_atom_site_fract_x
_atom_site_fract_y
_atom_site_fract_z
Si Si1 0.659408 0.139771 0.792610
Si Si2 0.770513 0.074519 0.547738
Si Si3 0.000000 0.132850 0.250000
Si Si4 0.798102 0.577336 0.058611
Si Si5 0.273391 0.914137 0.820391
O O1 0.460069 0.073245 0.878804
O O2 0.607725 0.255692 0.758107
O O3 0.779645 0.017336 0.718408
O O4 0.737128 0.244965 0.817903
O O5 0.823228 0.244204 0.544751
O O6 0.817524 0.970127 0.587950
O O7 0.812719 0.035025 0.465648
O O8 0.839536 0.049826 0.340200
O O9 0.000000 0.500000 0.000000
O O10 0.500000 0.934047 0.750000
#
# Coordination Sequence:
#
# PCOD9267042 Si02
#       5
#     8   8   4   8   8
#     4  10  19  38  64  90 132 166 214 273 318 390
#     4   9  20  39  60  92 121 169 223 264 323 396
#     4  10  20  40  62  96 122 176 218 260 328 396
#     4  10  20  37  67  89 129 174 214 269 328 383
#     4  10  20  37  62  94 129 170 219 266 328 388
#
# _framework density 24.943807
#
# number of rings (size 3 to 8) (size 9 to 14) (size 15 to 20)
#    0.000    2.222    5.556    0.000    6.222    0.000 
#    2.000   10.000    0.000    6.667    0.000    0.000 
#    0.000    0.000    0.000    0.000    0.000    0.000 
#
# Total GULP energy -100696.031847 kJ/mol
# GULP energy per Si atom -5594.223991 kJ/mol
# Density = 2.488703 g / cm^3
# Si number density = 24.943807 Si / 1000 Ang^3
#
#
#
# Elastic Constant Matrix: (Units=GPa)
#
#
# Indices 1 2 3 4 5 6 
#
# 1 81.0194 47.9181 29.4608 0.0000 18.1050 0.0000
# 2 47.9181 99.5564 33.0724 0.0000 9.3964 0.0000
# 3 29.4608 33.0724 173.4478 0.0000 20.7987 0.0000
# 4 0.0000 0.0000 0.0000 32.1772 0.0000 -2.0348
# 5 18.1050 9.3964 20.7987 0.0000 44.0726 0.0000
# 6 0.0000 0.0000 0.0000 -2.0348 0.0000 44.3741
#
#
#
# Elastic Compliance Matrix: (Units=1/GPa)
#
#
# Indices 1 2 3 4 5 6 
#
# 1 0.018771 -0.008194 -0.000965 0.000000 -0.005509 0.000000
# 2 -0.008194 0.014383 -0.001470 0.000000 0.000993 0.000000
# 3 -0.000965 -0.001470 0.006492 0.000000 -0.002354 0.000000
# 4 0.000000 0.000000 0.000000 0.031168 0.000000 0.001429
# 5 -0.005509 0.000993 -0.002354 0.000000 0.025852 0.000000
# 6 0.000000 0.000000 0.000000 0.001429 0.000000 0.022601
#
#
# Mechanical properties :
#
#
# Convention : Reuss Voigt Hill
#
# Bulk Modulus (GPa) = 54.38532 63.88067 59.13300
# Shear Modulus (GPa) = 34.09355 40.36291 37.22823
#
# Velocity S-wave (km/s) = 3.70106 4.02699 3.86746
# Velocity P-wave (km/s) = 6.33358 6.87660 6.61067
#
# Compressibility (1/GPa) = 0.01838731
#
# Stress axis : x y z
#
# Youngs Moduli (GPa) = 53.27331 69.52609 154.03829
#
# Poissons Ratio (x) = 0.56971 0.14870
# Poissons Ratio (y) = 0.43653 0.22641
# Poissons Ratio (z) = 0.05143 0.10219
#
# Static dielectric constant tensor:
#      x y z
#    x 2.061070 0.000000 -0.007530 
#    y 0.000000 1.910400 0.000000 
#    z -0.007530 0.000000 2.053160 
# 
# From -- ./inp_files/309592.got.cif
#   From: 2010.05.17/outbox.cif.g08.bks.cpg/sg15_155_cif.got.tgz:309592.got - 2010.06.03 18:47:42.
