data_PCOD9267444
_publ_section_title
;
Structure prediction by ZEFSAII (Michael W. Deem and Ramdas Pophale) SiO2 
 PCOD9267444
Probable space group: C 2/C
;
_chemical_formula_sum "Si O2"
_cell_formula_units_Z 60
_cell_length_a 13.472375
_cell_length_b 11.401411
_cell_length_c 19.594629
_cell_angle_alpha 90.000000
_cell_angle_beta 98.946922
_cell_angle_gamma 90.000000
_cell_volume 2973.194134
_symmetry_space_group_name_H-M "C 2/C"
_symmetry_group_IT_number 15
_symmetry_cell_setting 'monoclinic'
loop_
_space_group_symop_operation_xyz
x,y,z
-x,y,1/2-z
-x,-y,-z
x,-y,1/2+z
1/2+x,1/2+y,z
1/2-x,1/2+y,1/2-z
1/2-x,1/2-y,-z
1/2+x,1/2-y,1/2+z
loop_
_atom_site_type_symbol
_atom_site_label
_atom_site_fract_x
_atom_site_fract_y
_atom_site_fract_z
Si Si1 0.763511 0.803242 0.426320
Si Si2 0.944524 0.992942 0.314279
Si Si3 0.185240 0.232622 0.711670
Si Si4 0.500000 0.113771 0.250000
Si Si5 0.140080 0.467675 0.886495
Si Si6 0.856807 0.693493 0.989712
Si Si7 0.818042 0.796676 0.849798
Si Si8 0.510356 0.609199 0.549537
O O1 0.750000 0.750000 0.500000
O O2 0.775048 0.726391 0.358452
O O3 0.872979 0.861257 0.440276
O O4 0.680555 0.901131 0.400040
O O5 0.851413 0.902919 0.294464
O O6 0.015553 0.926680 0.376013
O O7 0.000000 0.011800 0.250000
O O8 0.907872 0.114033 0.343008
O O9 0.087785 0.306038 0.725837
O O10 0.272352 0.245798 0.775993
O O11 0.446175 0.045825 0.180770
O O12 0.230417 0.381528 0.870951
O O13 0.119360 0.418733 0.960940
O O14 0.848868 0.696181 0.906886
O O15 0.750000 0.750000 0.000000
O O16 0.942490 0.785657 0.018098
O O17 0.500000 0.500000 0.500000
#
# Coordination Sequence:
#
# PCOD9267444 Si02
#       8
#     8   8   8   4   8   8   8   8
#     4  11  24  43  62  89 132 172 204 259 323 385
#     4  11  21  35  60  91 119 157 205 257 316 373
#     4  10  21  39  61  89 123 162 213 257 318 377
#     4  10  20  38  72  92 120 166 214 274 310 382
#     4  10  19  39  63  91 123 164 215 255 318 378
#     4  10  20  35  61  96 124 159 212 262 313 373
#     4  10  20  38  57  90 126 157 202 262 308 376
#     4  11  20  39  64  90 124 163 206 262 315 367
#
# _framework density 20.180318
#
# number of rings (size 3 to 8) (size 9 to 14) (size 15 to 20)
#    0.000    1.600    4.667    2.400    3.733    1.067 
#    2.400    4.000    0.000    0.000    0.000    0.000 
#    0.000    0.000    0.000    0.000    0.000    0.000 
#
# Total GULP energy -167283.559815 kJ/mol
# GULP energy per Si atom -5576.118661 kJ/mol
# Density = 2.013439 g / cm^3
# Si number density = 20.180318 Si / 1000 Ang^3
#
#
#
# Elastic Constant Matrix: (Units=GPa)
#
#
# Indices 1 2 3 4 5 6 
#
# 1 55.1689 19.7527 49.9420 0.0000 7.9611 0.0000
# 2 19.7527 38.9405 36.4948 0.0000 3.3021 0.0000
# 3 49.9420 36.4948 196.0754 0.0000 2.7868 0.0000
# 4 0.0000 0.0000 0.0000 32.7146 0.0000 0.4807
# 5 7.9611 3.3021 2.7868 0.0000 38.0286 0.0000
# 6 0.0000 0.0000 0.0000 0.4807 0.0000 15.6215
#
#
#
# Elastic Compliance Matrix: (Units=1/GPa)
#
#
# Indices 1 2 3 4 5 6 
#
# 1 0.026330 -0.008181 -0.005121 0.000000 -0.004426 0.000000
# 2 -0.008181 0.033847 -0.004203 0.000000 -0.000918 0.000000
# 3 -0.005121 -0.004203 0.007174 0.000000 0.000911 0.000000
# 4 0.000000 0.000000 0.000000 0.030581 0.000000 -0.000941
# 5 -0.004426 -0.000918 0.000911 0.000000 0.027236 0.000000
# 6 0.000000 0.000000 0.000000 -0.000941 0.000000 0.064043
#
#
# Mechanical properties :
#
#
# Convention : Reuss Voigt Hill
#
# Bulk Modulus (GPa) = 30.92107 55.84042 43.38075
# Shear Modulus (GPa) = 21.27651 29.53928 25.40790
#
# Velocity S-wave (km/s) = 3.25055 3.83007 3.55215
# Velocity P-wave (km/s) = 5.42621 6.87678 6.19410
#
# Compressibility (1/GPa) = 0.03234040
#
# Stress axis : x y z
#
# Youngs Moduli (GPa) = 37.97991 29.54464 139.39848
#
# Poissons Ratio (x) = 0.24172 0.71382
# Poissons Ratio (y) = 0.31073 0.58588
# Poissons Ratio (z) = 0.19448 0.12417
#
# Static dielectric constant tensor:
#      x y z
#    x 1.720820 0.000000 -0.037520 
#    y 0.000000 1.699160 0.000000 
#    z -0.037520 0.000000 2.197290 
# 
# From -- ./inp_files/204085.got.cif
#   From: 2010.05.17/outbox.cif.g08.bks.cpg/sg15_103_cif.got.tgz:204085.got - 2010.06.03 18:47:42.
