data_PCOD9267493
_publ_section_title
;
Structure prediction by ZEFSAII (Michael W. Deem and Ramdas Pophale) SiO2 
 PCOD9267493
Probable space group: C 2/C
;
_chemical_formula_sum "Si O2"
_cell_formula_units_Z 40
_cell_length_a 9.194992
_cell_length_b 16.372489
_cell_length_c 13.789447
_cell_angle_alpha 90.000000
_cell_angle_beta 72.500348
_cell_angle_gamma 90.000000
_cell_volume 1979.854369
_symmetry_space_group_name_H-M "C 2/C"
_symmetry_group_IT_number 15
_symmetry_cell_setting 'monoclinic'
loop_
_space_group_symop_operation_xyz
x,y,z
-x,y,1/2-z
-x,-y,-z
x,-y,1/2+z
1/2+x,1/2+y,z
1/2-x,1/2+y,1/2-z
1/2-x,1/2-y,-z
1/2+x,1/2-y,1/2+z
loop_
_atom_site_type_symbol
_atom_site_label
_atom_site_fract_x
_atom_site_fract_y
_atom_site_fract_z
Si Si1 0.330271 0.540104 0.028306
Si Si2 0.737420 0.635516 0.948418
Si Si3 0.943140 0.836814 0.370021
Si Si4 0.162073 0.329828 0.686343
Si Si5 0.847142 0.785880 0.832995
O O1 0.227079 0.459999 0.059796
O O2 0.279787 0.605326 0.119269
O O3 0.500000 0.500000 0.000000
O O4 0.328224 0.593243 0.930529
O O5 0.583909 0.656823 0.917427
O O6 0.861072 0.695449 0.876031
O O7 0.704377 0.660047 0.065850
O O8 0.872239 0.746044 0.379011
O O9 0.000000 0.855111 0.250000
O O10 0.226144 0.289677 0.771147
O O11 0.000000 0.367854 0.750000
O O12 0.000000 0.813501 0.750000
#
# Coordination Sequence:
#
# PCOD9267493 Si02
#       5
#     8   8   8   8   8
#     4  10  22  37  63  95 126 161 208 265 313 370
#     4  10  22  40  58  92 125 155 212 252 309 381
#     4  10  19  39  64  91 122 163 210 256 309 372
#     4  11  22  42  66  92 124 168 213 260 310 379
#     4  11  22  40  64  85 123 168 204 253 319 378
#
# _framework density 20.203506999999998
#
# number of rings (size 3 to 8) (size 9 to 14) (size 15 to 20)
#    0.000    1.600    4.000    3.000    0.000    4.800 
#    0.000    1.000    0.000    0.000    0.000    0.000 
#    0.000    0.000    0.000    0.000    0.000    0.000 
#
# Total GULP energy -111455.641510 kJ/mol
# GULP energy per Si atom -5572.782075 kJ/mol
# Density = 2.015752 g / cm^3
# Si number density = 20.203507 Si / 1000 Ang^3
#
#
#
# Elastic Constant Matrix: (Units=GPa)
#
#
# Indices 1 2 3 4 5 6 
#
# 1 31.5307 -4.4981 6.9537 0.0000 -3.3876 0.0000
# 2 -4.4981 148.6074 56.1930 0.0000 -6.8706 0.0000
# 3 6.9537 56.1930 106.1325 0.0000 -14.9255 0.0000
# 4 0.0000 0.0000 0.0000 11.7934 0.0000 -8.5296
# 5 -3.3876 -6.8706 -14.9255 0.0000 23.1957 0.0000
# 6 0.0000 0.0000 0.0000 -8.5296 0.0000 5.4784
#
#
#
# Elastic Compliance Matrix: (Units=1/GPa)
#
#
# Indices 1 2 3 4 5 6 
#
# 1 0.033055 0.002243 -0.002838 0.000000 0.003666 0.000000
# 2 0.002243 0.008569 -0.004707 0.000000 -0.000163 0.000000
# 3 -0.002838 -0.004707 0.013025 0.000000 0.006572 0.000000
# 4 0.000000 0.000000 0.000000 -0.672623 0.000000 -1.047239
# 5 0.003666 -0.000163 0.006572 0.000000 0.047827 0.000000
# 6 0.000000 0.000000 0.000000 -1.047239 0.000000 -1.447964
#
#
# Mechanical properties :
#
#
# Convention : Reuss Voigt Hill
#
# Bulk Modulus (GPa) = 22.70397 44.84085 33.77241
# Shear Modulus (GPa) = -2.50900 23.26830 10.37965
#
# Velocity S-wave (km/s) = -1.11560 3.39735 2.26908
# Velocity P-wave (km/s) = 3.09881 6.13450 4.85977
#
# Compressibility (1/GPa) = 0.04404517
#
# Stress axis : x y z
#
# Youngs Moduli (GPa) = 30.25280 116.69464 76.77812
#
# Poissons Ratio (x) = -0.26175 0.21788
# Poissons Ratio (y) = -0.06786 0.36140
# Poissons Ratio (z) = 0.08585 0.54928
#
# Static dielectric constant tensor:
#      x y z
#    x 1.917550 0.000000 -0.041240 
#    y 0.000000 1.763250 0.000000 
#    z -0.041240 0.000000 1.689370 
# 
# From -- ./inp_files/76677.got.cif
#   From: 2010.05.17/outbox.cif.g08.bks.cpg/sg15_39_cif.got.tgz:76677.got - 2010.06.03 18:47:42.
