data_PCOD9267033
_publ_section_title
;
Structure prediction by ZEFSAII (Michael W. Deem and Ramdas Pophale) SiO2 
 PCOD9267033
Probable space group: C 2/C
;
_chemical_formula_sum "Si O2"
_cell_formula_units_Z 56
_cell_length_a 8.564532
_cell_length_b 12.873199
_cell_length_c 22.951662
_cell_angle_alpha 90.000000
_cell_angle_beta 107.973285
_cell_angle_gamma 90.000000
_cell_volume 2407.001313
_symmetry_space_group_name_H-M "C 2/C"
_symmetry_group_IT_number 15
_symmetry_cell_setting 'monoclinic'
loop_
_space_group_symop_operation_xyz
x,y,z
-x,y,1/2-z
-x,-y,-z
x,-y,1/2+z
1/2+x,1/2+y,z
1/2-x,1/2+y,1/2-z
1/2-x,1/2-y,-z
1/2+x,1/2-y,1/2+z
loop_
_atom_site_type_symbol
_atom_site_label
_atom_site_fract_x
_atom_site_fract_y
_atom_site_fract_z
Si Si1 0.000000 0.942739 0.750000
Si Si2 0.637037 0.622474 0.136500
Si Si3 0.000000 0.334059 0.250000
Si Si4 0.959347 0.268340 0.683408
Si Si5 0.162190 0.461341 0.421047
Si Si6 0.863218 0.492034 0.821474
Si Si7 0.714528 0.646339 0.458681
Si Si8 0.725317 0.265909 0.138098
O O1 0.086538 0.904834 0.697219
O O2 0.167267 0.989660 0.797887
O O3 0.739859 0.539721 0.109987
O O4 0.475534 0.642143 0.080343
O O5 0.767055 0.716322 0.154760
O O6 0.914128 0.413875 0.284187
O O7 0.861749 0.261435 0.204605
O O8 0.057850 0.380982 0.692110
O O9 0.050697 0.204555 0.644248
O O10 0.000000 0.220955 0.750000
O O11 0.225710 0.448462 0.494179
O O12 0.202036 0.353614 0.394106
O O13 0.969655 0.482078 0.391243
O O14 0.750000 0.750000 0.500000
O O15 0.795948 0.666026 0.405039
#
# Coordination Sequence:
#
# PCOD9267033 Si02
#       8
#     4   8   4   8   8   8   8   8
#     4  12  20  35  64 107 122 156 214 260 332 379
#     4  11  23  39  68  90 128 168 213 269 316 387
#     4  10  20  41  58  91 128 168 208 268 338 377
#     4  11  21  38  60  95 130 160 203 261 332 380
#     4   9  21  45  62  89 125 173 213 263 316 376
#     4  10  19  38  64  88 127 165 206 263 312 394
#     4  10  22  42  64  89 125 170 223 260 314 379
#     4  10  22  37  62  91 126 165 207 268 327 386
#
# _framework density 23.265461999999999
#
# number of rings (size 3 to 8) (size 9 to 14) (size 15 to 20)
#    0.000    1.714    2.143    3.000    2.000    0.571 
#    5.143   10.714    0.000    0.000    0.000    0.000 
#    0.000    0.000    0.000    0.000    0.000    0.000 
#
# Total GULP energy -156139.576676 kJ/mol
# GULP energy per Si atom -5576.413453 kJ/mol
# Density = 2.321251 g / cm^3
# Si number density = 23.265462 Si / 1000 Ang^3
#
#
#
# Elastic Constant Matrix: (Units=GPa)
#
#
# Indices 1 2 3 4 5 6 
#
# 1 151.0361 9.8422 60.2043 0.0000 26.7786 0.0000
# 2 9.8422 42.1031 14.5763 0.0000 0.4998 0.0000
# 3 60.2043 14.5763 133.9119 0.0000 31.2820 0.0000
# 4 0.0000 0.0000 0.0000 2.4927 0.0000 -0.1481
# 5 26.7786 0.4998 31.2820 0.0000 38.0294 0.0000
# 6 0.0000 0.0000 0.0000 -0.1481 0.0000 43.1296
#
#
#
# Elastic Compliance Matrix: (Units=1/GPa)
#
#
# Indices 1 2 3 4 5 6 
#
# 1 0.008460 -0.000944 -0.002862 0.000000 -0.003591 0.000000
# 2 -0.000944 0.024955 -0.002934 0.000000 0.002751 0.000000
# 3 -0.002862 -0.002934 0.010638 0.000000 -0.006697 0.000000
# 4 0.000000 0.000000 0.000000 0.401261 0.000000 0.001378
# 5 -0.003591 0.002751 -0.006697 0.000000 0.034296 0.000000
# 6 0.000000 0.000000 0.000000 0.001378 0.000000 0.023191
#
#
# Mechanical properties :
#
#
# Convention : Reuss Voigt Hill
#
# Bulk Modulus (GPa) = 32.70958 55.14408 43.92683
# Shear Modulus (GPa) = 9.49717 32.89223 21.19470
#
# Velocity S-wave (km/s) = 2.02261 3.76410 3.02154
# Velocity P-wave (km/s) = 4.42091 6.53031 5.57626
#
# Compressibility (1/GPa) = 0.03057208
#
# Stress axis : x y z
#
# Youngs Moduli (GPa) = 118.20584 40.07181 94.00247
#
# Poissons Ratio (x) = 0.03784 0.26902
# Poissons Ratio (y) = 0.11161 0.27585
# Poissons Ratio (z) = 0.33829 0.11759
#
# Static dielectric constant tensor:
#      x y z
#    x -8.305430 0.000000 0.081300 
#    y 0.000000 2.094520 0.000000 
#    z 0.081300 0.000000 1.927190 
# 
# From -- ./inp_files/264427.got.cif
#   From: 2010.05.17/outbox.cif.g08.bks.cpg/sg15_133_cif.got.tgz:264427.got - 2010.06.03 18:47:42.
