data_PCOD9267275
_publ_section_title
;
Structure prediction by ZEFSAII (Michael W. Deem and Ramdas Pophale) SiO2 
 PCOD9267275
Probable space group: C 2/C
;
_chemical_formula_sum "Si O2"
_cell_formula_units_Z 48
_cell_length_a 11.847992
_cell_length_b 17.658630
_cell_length_c 10.672208
_cell_angle_alpha 90.000000
_cell_angle_beta 95.297602
_cell_angle_gamma 90.000000
_cell_volume 2223.294561
_symmetry_space_group_name_H-M "C 2/C"
_symmetry_group_IT_number 15
_symmetry_cell_setting 'monoclinic'
loop_
_space_group_symop_operation_xyz
x,y,z
-x,y,1/2-z
-x,-y,-z
x,-y,1/2+z
1/2+x,1/2+y,z
1/2-x,1/2+y,1/2-z
1/2-x,1/2-y,-z
1/2+x,1/2-y,1/2+z
loop_
_atom_site_type_symbol
_atom_site_label
_atom_site_fract_x
_atom_site_fract_y
_atom_site_fract_z
Si Si1 0.636616 0.322285 0.071680
Si Si2 0.230767 0.674403 0.684341
Si Si3 0.633547 0.017913 0.771435
Si Si4 0.759309 0.957091 0.544606
Si Si5 0.075139 0.910982 0.447440
Si Si6 0.045694 0.786585 0.616456
O O1 0.709140 0.288517 0.189461
O O2 0.712394 0.370379 0.983682
O O3 0.548425 0.386690 0.117068
O O4 0.554450 0.266361 0.990487
O O5 0.157033 0.604597 0.730423
O O6 0.328932 0.638632 0.611057
O O7 0.152164 0.733585 0.607835
O O8 0.500000 0.001897 0.750000
O O9 0.698647 0.969881 0.671082
O O10 0.685642 0.011836 0.917578
O O11 0.877288 0.004945 0.556658
O O12 0.071180 0.874204 0.586046
O O13 0.000000 0.777572 0.750000
#
# Coordination Sequence:
#
# PCOD9267275 Si02
#       6
#     8   8   8   8   8   8
#     4   9  21  34  59  87 112 150 192 236 293 339
#     4  10  19  39  57  81 112 159 195 232 285 342
#     4  10  21  36  59  83 115 154 194 238 287 354
#     4  10  20  35  61  85 119 149 190 246 296 347
#     4   9  20  35  58  83 114 149 188 243 286 336
#     4  10  22  34  55  81 117 150 191 240 277 349
#
# _framework density 21.589583000000001
#
# number of rings (size 3 to 8) (size 9 to 14) (size 15 to 20)
#    1.000    1.333    0.000    2.500    2.333    0.667 
#    0.000    1.667    7.333    0.000    0.000    0.000 
#    0.000    0.000    0.000    0.000    0.000    0.000 
#
# Total GULP energy -133836.730994 kJ/mol
# GULP energy per Si atom -5576.530458 kJ/mol
# Density = 2.154044 g / cm^3
# Si number density = 21.589583 Si / 1000 Ang^3
#
#
#
# Elastic Constant Matrix: (Units=GPa)
#
#
# Indices 1 2 3 4 5 6 
#
# 1 75.9275 8.4213 20.1112 0.0000 5.1851 0.0000
# 2 8.4213 27.0162 11.5821 0.0000 7.6619 0.0000
# 3 20.1112 11.5821 75.4599 0.0000 12.9374 0.0000
# 4 0.0000 0.0000 0.0000 18.5017 0.0000 4.8929
# 5 5.1851 7.6619 12.9374 0.0000 40.2163 0.0000
# 6 0.0000 0.0000 0.0000 4.8929 0.0000 23.1766
#
#
#
# Elastic Compliance Matrix: (Units=1/GPa)
#
#
# Indices 1 2 3 4 5 6 
#
# 1 0.014403 -0.002997 -0.003342 0.000000 -0.000211 0.000000
# 2 -0.002997 0.041623 -0.004547 0.000000 -0.006081 0.000000
# 3 -0.003342 -0.004547 0.015472 0.000000 -0.003680 0.000000
# 4 0.000000 0.000000 0.000000 0.057245 0.000000 -0.012085
# 5 -0.000211 -0.006081 -0.003680 0.000000 0.027235 0.000000
# 6 0.000000 0.000000 0.000000 -0.012085 0.000000 0.045698
#
#
# Mechanical properties :
#
#
# Convention : Reuss Voigt Hill
#
# Bulk Modulus (GPa) = 20.11092 28.73697 24.42395
# Shear Modulus (GPa) = 20.83129 25.59819 23.21474
#
# Velocity S-wave (km/s) = 3.10962 3.44710 3.28270
# Velocity P-wave (km/s) = 4.71469 5.40211 5.07006
#
# Compressibility (1/GPa) = 0.04972424
#
# Stress axis : x y z
#
# Youngs Moduli (GPa) = 69.43217 24.02515 64.63398
#
# Poissons Ratio (x) = 0.07200 0.21603
# Poissons Ratio (y) = 0.20807 0.29391
# Poissons Ratio (z) = 0.23207 0.10925
#
# Static dielectric constant tensor:
#      x y z
#    x 1.810770 0.000000 -0.001930 
#    y 0.000000 1.796380 0.000000 
#    z -0.001930 0.000000 1.798430 
# 
# From -- ./inp_files/32148.got.cif
#   From: 2010.05.17/outbox.cif.g08.bks.cpg/sg15_17_cif.got.tgz:32148.got - 2010.06.03 18:47:42.
