data_PCOD9267256
_publ_section_title
;
Structure prediction by ZEFSAII (Michael W. Deem and Ramdas Pophale) SiO2 
 PCOD9267256
Probable space group: C 2/C
;
_chemical_formula_sum "Si O2"
_cell_formula_units_Z 44
_cell_length_a 14.891013
_cell_length_b 7.971874
_cell_length_c 16.864660
_cell_angle_alpha 90.000000
_cell_angle_beta 57.032649
_cell_angle_gamma 90.000000
_cell_volume 1679.632513
_symmetry_space_group_name_H-M "C 2/C"
_symmetry_group_IT_number 15
_symmetry_cell_setting 'monoclinic'
loop_
_space_group_symop_operation_xyz
x,y,z
-x,y,1/2-z
-x,-y,-z
x,-y,1/2+z
1/2+x,1/2+y,z
1/2-x,1/2+y,1/2-z
1/2-x,1/2-y,-z
1/2+x,1/2-y,1/2+z
loop_
_atom_site_type_symbol
_atom_site_label
_atom_site_fract_x
_atom_site_fract_y
_atom_site_fract_z
Si Si1 0.500000 0.772735 0.250000
Si Si2 0.549040 0.841149 0.378958
Si Si3 0.249251 0.865959 0.116270
Si Si4 0.944294 0.842085 0.065412
Si Si5 0.420260 0.836020 0.888780
Si Si6 0.227277 0.252577 0.105698
O O1 0.521150 0.698634 0.327470
O O2 0.618410 0.847295 0.177965
O O3 0.670991 0.834863 0.348401
O O4 0.478305 0.811842 0.490851
O O5 0.503750 0.007913 0.357618
O O6 0.152213 0.735824 0.148350
O O7 0.212587 0.058806 0.136814
O O8 0.329727 0.858548 0.001113
O O9 0.818871 0.841945 0.112493
O O10 0.999531 0.810912 0.121991
O O11 0.000000 0.000000 0.000000
O O12 0.250000 0.250000 0.000000
#
# Coordination Sequence:
#
# PCOD9267256 Si02
#       6
#     4   8   8   8   8   8
#     4  12  28  42  70 100 144 188 234 282 384 426
#     4  11  22  46  62 100 144 182 234 300 358 436
#     4  10  20  39  71 101 139 180 238 294 361 431
#     4  11  21  39  73 103 138 183 239 293 366 429
#     4  10  19  38  72 103 131 188 236 290 368 435
#     4  12  22  45  69 100 144 187 233 308 356 432
#
# _framework density 26.196207999999999
#
# number of rings (size 3 to 8) (size 9 to 14) (size 15 to 20)
#    0.000    1.091    5.455    2.182    0.000    2.909 
#    6.545    0.909    0.000    0.000    0.000    0.000 
#    0.000    0.000    0.000    0.000    0.000    0.000 
#
# Total GULP energy -122733.868226 kJ/mol
# GULP energy per Si atom -5578.812192 kJ/mol
# Density = 2.613658 g / cm^3
# Si number density = 26.196208 Si / 1000 Ang^3
#
#
#
# Elastic Constant Matrix: (Units=GPa)
#
#
# Indices 1 2 3 4 5 6 
#
# 1 285.8258 73.4118 45.7428 0.0000 -3.9150 0.0000
# 2 73.4118 125.0216 2.1236 0.0000 -10.5548 0.0000
# 3 45.7428 2.1236 97.7215 0.0000 -19.3292 0.0000
# 4 0.0000 0.0000 0.0000 7.2962 0.0000 -9.1737
# 5 -3.9150 -10.5548 -19.3292 0.0000 34.2154 0.0000
# 6 0.0000 0.0000 0.0000 -9.1737 0.0000 43.7516
#
#
#
# Elastic Compliance Matrix: (Units=1/GPa)
#
#
# Indices 1 2 3 4 5 6 
#
# 1 0.004580 -0.002792 -0.002420 0.000000 -0.001704 0.000000
# 2 -0.002792 0.009926 0.001839 0.000000 0.003782 0.000000
# 3 -0.002420 0.001839 0.012816 0.000000 0.007530 0.000000
# 4 0.000000 0.000000 0.000000 0.186125 0.000000 0.039026
# 5 -0.001704 0.003782 0.007530 0.000000 0.034452 0.000000
# 6 0.000000 0.000000 0.000000 0.039026 0.000000 0.031039
#
#
# Mechanical properties :
#
#
# Convention : Reuss Voigt Hill
#
# Bulk Modulus (GPa) = 48.60187 83.45836 66.03011
# Shear Modulus (GPa) = 17.09153 42.87202 29.98177
#
# Velocity S-wave (km/s) = 2.55707 4.04985 3.38673
# Velocity P-wave (km/s) = 5.22603 7.33461 6.36820
#
# Compressibility (1/GPa) = 0.02057534
#
# Stress axis : x y z
#
# Youngs Moduli (GPa) = 218.35495 100.74502 78.03016
#
# Poissons Ratio (x) = 0.28128 0.18885
# Poissons Ratio (y) = 0.60964 -0.14351
# Poissons Ratio (z) = 0.52846 -0.18529
#
# Static dielectric constant tensor:
#      x y z
#    x 2.107920 0.000000 0.094340 
#    y 0.000000 2.526790 0.000000 
#    z 0.094340 0.000000 2.150910 
# 
# From -- ./inp_files/202949.got.cif
#   From: 2010.05.17/outbox.cif.g08.bks.cpg/sg15_102_cif.got.tgz:202949.got - 2010.06.03 18:47:42.
