data_PCOD9267241
_publ_section_title
;
Structure prediction by ZEFSAII (Michael W. Deem and Ramdas Pophale) SiO2 
 PCOD9267241
Probable space group: C 2/C
;
_chemical_formula_sum "Si O2"
_cell_formula_units_Z 40
_cell_length_a 7.269776
_cell_length_b 20.310723
_cell_length_c 11.481991
_cell_angle_alpha 90.000000
_cell_angle_beta 91.292868
_cell_angle_gamma 90.000000
_cell_volume 1694.934971
_symmetry_space_group_name_H-M "C 2/C"
_symmetry_group_IT_number 15
_symmetry_cell_setting 'monoclinic'
loop_
_space_group_symop_operation_xyz
x,y,z
-x,y,1/2-z
-x,-y,-z
x,-y,1/2+z
1/2+x,1/2+y,z
1/2-x,1/2+y,1/2-z
1/2-x,1/2-y,-z
1/2+x,1/2-y,1/2+z
loop_
_atom_site_type_symbol
_atom_site_label
_atom_site_fract_x
_atom_site_fract_y
_atom_site_fract_z
Si Si1 0.500000 0.807255 0.250000
Si Si2 0.052821 0.725640 0.382289
Si Si3 0.000000 0.076755 0.250000
Si Si4 0.656407 0.009913 0.352437
Si Si5 0.011664 0.608600 0.541308
Si Si6 0.506525 0.695908 0.087895
O O1 0.401747 0.854556 0.343855
O O2 0.407991 0.754190 0.160555
O O3 0.272378 0.709664 0.391531
O O4 0.992812 0.790495 0.451636
O O5 0.000000 0.727177 0.250000
O O6 0.959015 0.665481 0.450576
O O7 0.162687 0.031382 0.210078
O O8 0.955493 0.126990 0.143518
O O9 0.500000 0.016536 0.250000
O O10 0.628151 0.058654 0.462791
O O11 0.645172 0.936857 0.404924
#
# Coordination Sequence:
#
# PCOD9267241 Si02
#       6
#     4   8   4   8   8   8
#     4   9  18  38  62  86 132 167 216 270 332 387
#     4  10  19  38  69  96 129 176 220 271 340 401
#     4  11  22  42  66 100 140 167 222 280 326 401
#     4  11  23  41  68  93 131 183 224 271 333 392
#     4  10  20  38  65  92 122 177 224 267 327 394
#     4   9  20  37  63 100 133 170 213 282 335 389
#
# _framework density 23.599724999999999
#
# number of rings (size 3 to 8) (size 9 to 14) (size 15 to 20)
#    0.000    2.000    3.000    0.600    0.000    0.000 
#    3.600    7.000    2.200    0.000    7.800    0.000 
#    0.000    0.000    0.000    0.000    0.000    0.000 
#
# Total GULP energy -111584.500527 kJ/mol
# GULP energy per Si atom -5579.225026 kJ/mol
# Density = 2.354601 g / cm^3
# Si number density = 23.599725 Si / 1000 Ang^3
#
#
#
# Elastic Constant Matrix: (Units=GPa)
#
#
# Indices 1 2 3 4 5 6 
#
# 1 97.1523 52.7583 64.1184 0.0000 -25.1283 0.0000
# 2 52.7583 111.2886 68.0096 0.0000 -31.6672 0.0000
# 3 64.1184 68.0096 214.6763 0.0000 -21.2720 0.0000
# 4 0.0000 0.0000 0.0000 35.8345 0.0000 -19.8731
# 5 -25.1283 -31.6672 -21.2720 0.0000 35.0913 0.0000
# 6 0.0000 0.0000 0.0000 -19.8731 0.0000 16.9146
#
#
#
# Elastic Compliance Matrix: (Units=1/GPa)
#
#
# Indices 1 2 3 4 5 6 
#
# 1 0.015971 -0.004112 -0.002874 0.000000 0.005983 0.000000
# 2 -0.004112 0.015163 -0.002672 0.000000 0.009119 0.000000
# 3 -0.002874 -0.002672 0.006299 0.000000 -0.000651 0.000000
# 4 0.000000 0.000000 0.000000 0.080092 0.000000 0.094101
# 5 0.005983 0.009119 -0.000651 0.000000 0.040616 0.000000
# 6 0.000000 0.000000 0.000000 0.094101 0.000000 0.169680
#
#
# Mechanical properties :
#
#
# Convention : Reuss Voigt Hill
#
# Bulk Modulus (GPa) = 55.20221 88.09888 71.65055
# Shear Modulus (GPa) = 14.15728 33.45015 23.80372
#
# Velocity S-wave (km/s) = 2.45193 3.76892 3.17936
# Velocity P-wave (km/s) = 5.60872 7.50674 6.62604
#
# Compressibility (1/GPa) = 0.01811522
#
# Stress axis : x y z
#
# Youngs Moduli (GPa) = 62.61424 65.95182 158.76555
#
# Poissons Ratio (x) = 0.27120 0.45637
# Poissons Ratio (y) = 0.25748 0.42418
# Poissons Ratio (z) = 0.17998 0.17621
#
# Static dielectric constant tensor:
#      x y z
#    x 1.988790 0.000000 0.032800 
#    y 0.000000 1.913790 0.000000 
#    z 0.032800 0.000000 1.913510 
# 
# From -- ./inp_files/77844.got.cif
#   From: 2010.05.17/outbox.cif.g08.bks.cpg/sg15_39_cif.got.tgz:77844.got - 2010.06.03 18:47:42.
