data_PCOD9267302
_publ_section_title
;
Structure prediction by ZEFSAII (Michael W. Deem and Ramdas Pophale) SiO2 
 PCOD9267302
Probable space group: C 2/C
;
_chemical_formula_sum "Si O2"
_cell_formula_units_Z 52
_cell_length_a 11.698088
_cell_length_b 18.449047
_cell_length_c 14.173622
_cell_angle_alpha 90.000000
_cell_angle_beta 131.536821
_cell_angle_gamma 90.000000
_cell_volume 2289.700741
_symmetry_space_group_name_H-M "C 2/C"
_symmetry_group_IT_number 15
_symmetry_cell_setting 'monoclinic'
loop_
_space_group_symop_operation_xyz
x,y,z
-x,y,1/2-z
-x,-y,-z
x,-y,1/2+z
1/2+x,1/2+y,z
1/2-x,1/2+y,1/2-z
1/2-x,1/2-y,-z
1/2+x,1/2-y,1/2+z
loop_
_atom_site_type_symbol
_atom_site_label
_atom_site_fract_x
_atom_site_fract_y
_atom_site_fract_z
Si Si1 0.862016 0.464466 0.528147
Si Si2 0.121619 0.637867 0.956651
Si Si3 0.846188 0.368167 0.814516
Si Si4 0.000000 0.261773 0.750000
Si Si5 0.150791 0.129100 0.802966
Si Si6 0.214389 0.367117 0.307943
Si Si7 0.826934 0.027786 0.393210
O O1 0.862305 0.550566 0.523526
O O2 0.790828 0.421890 0.401402
O O3 0.752751 0.442564 0.555378
O O4 0.030248 0.433064 0.626476
O O5 0.222804 0.659183 0.920694
O O6 0.949077 0.653684 0.826976
O O7 0.159922 0.663433 0.083000
O O8 0.918508 0.310310 0.782951
O O9 0.693565 0.408573 0.694853
O O10 0.870171 0.202700 0.648545
O O11 0.158586 0.153511 0.698851
O O12 0.000000 0.085166 0.750000
O O13 0.231430 0.454343 0.321484
O O14 0.000000 0.000000 0.500000
#
# Coordination Sequence:
#
# PCOD9267302 Si02
#       7
#     8   8   8   4   8   8   8
#     4  11  19  36  62  93 125 168 206 270 325 393
#     4  10  21  33  68  94 119 160 207 280 327 398
#     4  12  20  41  59  94 127 171 222 257 327 386
#     4  10  26  40  62  90 128 182 222 264 302 388
#     4  10  22  39  58  90 129 170 218 264 319 371
#     4  10  19  39  58  94 124 156 216 263 337 387
#     4  11  22  34  60  94 132 163 202 273 336 385
#
# _framework density 22.710391999999999
#
# number of rings (size 3 to 8) (size 9 to 14) (size 15 to 20)
#    0.462    0.923    4.615    2.308    0.000    0.615 
#    0.000    3.077    0.000    0.000    4.000    0.000 
#    0.000    0.000    0.000    0.000    0.000    0.000 
#
# Total GULP energy -144924.711946 kJ/mol
# GULP energy per Si atom -5574.027383 kJ/mol
# Density = 2.265870 g / cm^3
# Si number density = 22.710392 Si / 1000 Ang^3
#
#
#
# Elastic Constant Matrix: (Units=GPa)
#
#
# Indices 1 2 3 4 5 6 
#
# 1 132.8671 8.1502 46.7784 0.0000 -25.6897 -0.0002
# 2 8.1502 42.7066 9.8533 0.0000 -8.8454 -0.0001
# 3 46.7784 9.8533 79.0425 -0.0001 -19.6689 -0.0003
# 4 0.0000 0.0000 -0.0001 -3.5810 0.0000 -28.1429
# 5 -25.6897 -8.8454 -19.6689 0.0000 35.3926 -0.0002
# 6 -0.0002 -0.0001 -0.0003 -28.1429 -0.0002 -44.8089
#
#
#
# Elastic Compliance Matrix: (Units=1/GPa)
#
#
# Indices 1 2 3 4 5 6 
#
# 1 0.010132 0.000158 -0.004846 0.000000 0.004700 0.000000
# 2 0.000158 0.024917 -0.001882 0.000000 0.005296 0.000000
# 3 -0.004846 -0.001882 0.017131 0.000000 0.005532 0.000000
# 4 0.000000 0.000000 0.000000 0.070949 0.000000 -0.044561
# 5 0.004700 0.005296 0.005532 0.000000 0.036064 0.000000
# 6 0.000000 0.000000 0.000000 -0.044561 0.000000 0.005670
#
#
# Mechanical properties :
#
#
# Convention : Reuss Voigt Hill
#
# Bulk Modulus (GPa) = 25.61515 42.68665 34.15090
# Shear Modulus (GPa) = 26.17601 10.05616 18.11609
#
# Velocity S-wave (km/s) = 3.39868 2.10656 2.82742
# Velocity P-wave (km/s) = 5.16768 4.97531 5.07241
#
# Compressibility (1/GPa) = 0.03903940
#
# Stress axis : x y z
#
# Youngs Moduli (GPa) = 98.70123 40.13402 58.37499
#
# Poissons Ratio (x) = -0.00635 0.28289
# Poissons Ratio (y) = -0.01561 0.10984
# Poissons Ratio (z) = 0.47831 0.07552
#
# Static dielectric constant tensor:
#      x y z
#    x 1.929490 0.000000 -0.011170 
#    y 0.000000 1.815800 0.000000 
#    z -0.011170 0.000000 2.095860 
# 
# From -- ./inp_files/147239.got.cif
#   From: 2010.05.17/outbox.cif.g08.bks.cpg/sg15_74_cif.got.tgz:147239.got - 2010.06.03 18:47:42.
