data_PCOD9267466
_publ_section_title
;
Structure prediction by ZEFSAII (Michael W. Deem and Ramdas Pophale) SiO2 
 PCOD9267466
Probable space group: C 2/C
;
_chemical_formula_sum "Si O2"
_cell_formula_units_Z 48
_cell_length_a 9.455774
_cell_length_b 15.888248
_cell_length_c 21.356934
_cell_angle_alpha 90.000000
_cell_angle_beta 129.753084
_cell_angle_gamma 90.000000
_cell_volume 2466.775131
_symmetry_space_group_name_H-M "C 2/C"
_symmetry_group_IT_number 15
_symmetry_cell_setting 'monoclinic'
loop_
_space_group_symop_operation_xyz
x,y,z
-x,y,1/2-z
-x,-y,-z
x,-y,1/2+z
1/2+x,1/2+y,z
1/2-x,1/2+y,1/2-z
1/2-x,1/2-y,-z
1/2+x,1/2-y,1/2+z
loop_
_atom_site_type_symbol
_atom_site_label
_atom_site_fract_x
_atom_site_fract_y
_atom_site_fract_z
Si Si1 0.564126 0.326676 0.000173
Si Si2 0.963869 0.931567 0.167178
Si Si3 0.228186 0.921875 0.945947
Si Si4 0.773487 0.556456 0.070341
Si Si5 0.805850 0.409873 0.170205
Si Si6 0.398295 0.150927 0.995547
O O1 0.724498 0.347663 0.094701
O O2 0.642861 0.337425 0.952259
O O3 0.417973 0.402321 0.965032
O O4 0.457870 0.243594 0.991346
O O5 0.794996 0.875657 0.091363
O O6 0.000000 0.913165 0.250000
O O7 0.147213 0.918495 0.177717
O O8 0.896150 0.028240 0.138737
O O9 0.431469 0.904905 0.979461
O O10 0.245647 0.987852 0.007907
O O11 0.842719 0.500986 0.147813
O O12 0.882787 0.630780 0.065443
O O13 0.000000 0.378647 0.250000
#
# Coordination Sequence:
#
# PCOD9267466 Si02
#       6
#     8   8   8   8   8   8
#     4  11  20  41  65  89 120 159 202 247 300 366
#     4  11  23  39  61  88 123 158 206 253 301 358
#     4  10  20  39  61  90 115 158 203 245 289 362
#     4  10  19  39  64  84 114 157 211 240 284 365
#     4  11  23  38  63  88 119 163 205 252 301 357
#     4  11  23  36  67  93 120 157 199 252 308 360
#
# _framework density 19.458604000000001
#
# number of rings (size 3 to 8) (size 9 to 14) (size 15 to 20)
#    0.000    1.333    5.000    4.000    7.000    0.000 
#    0.000    1.667    0.000    0.000    0.000    0.000 
#    0.000    0.000    0.000    0.000    0.000    0.000 
#
# Total GULP energy -133816.646144 kJ/mol
# GULP energy per Si atom -5575.693589 kJ/mol
# Density = 1.941431 g / cm^3
# Si number density = 19.458604 Si / 1000 Ang^3
#
#
#
# Elastic Constant Matrix: (Units=GPa)
#
#
# Indices 1 2 3 4 5 6 
#
# 1 124.6285 20.8561 40.4054 0.0000 15.6512 0.0000
# 2 20.8561 73.6356 27.5595 0.0000 10.5676 0.0000
# 3 40.4054 27.5595 86.0611 0.0000 1.5118 0.0000
# 4 0.0000 0.0000 0.0000 13.3156 0.0000 4.6752
# 5 15.6512 10.5676 1.5118 0.0000 26.3959 0.0000
# 6 0.0000 0.0000 0.0000 4.6752 0.0000 35.8256
#
#
#
# Elastic Compliance Matrix: (Units=1/GPa)
#
#
# Indices 1 2 3 4 5 6 
#
# 1 0.010297 -0.000372 -0.004615 0.000000 -0.005692 0.000000
# 2 -0.000372 0.016419 -0.004977 0.000000 -0.006068 0.000000
# 3 -0.004615 -0.004977 0.015313 0.000000 0.003852 0.000000
# 4 0.000000 0.000000 0.000000 0.078706 0.000000 -0.010271
# 5 -0.005692 -0.006068 0.003852 0.000000 0.043468 0.000000
# 6 0.000000 0.000000 0.000000 -0.010271 0.000000 0.029253
#
#
# Mechanical properties :
#
#
# Convention : Reuss Voigt Hill
#
# Bulk Modulus (GPa) = 45.24748 51.32968 48.28858
# Shear Modulus (GPa) = 22.64985 28.14104 25.39545
#
# Velocity S-wave (km/s) = 3.41545 3.80702 3.61654
# Velocity P-wave (km/s) = 6.23357 6.76467 6.50454
#
# Compressibility (1/GPa) = 0.02210068
#
# Stress axis : x y z
#
# Youngs Moduli (GPa) = 97.11260 60.90432 65.30601
#
# Poissons Ratio (x) = 0.02267 0.30141
# Poissons Ratio (y) = 0.03615 0.32500
# Poissons Ratio (z) = 0.44821 0.30309
#
# Static dielectric constant tensor:
#      x y z
#    x 1.737830 0.000000 -0.015790 
#    y 0.000000 1.763080 0.000000 
#    z -0.015790 0.000000 1.679360 
# 
# From -- ./inp_files/134877.got.cif
#   From: 2010.05.17/outbox.cif.g08.bks.cpg/sg15_68_cif.got.tgz:134877.got - 2010.06.03 18:47:42.
