data_PCOD9267850
_publ_section_title
;
Structure prediction by ZEFSAII (Michael W. Deem and Ramdas Pophale) SiO2 
 PCOD9267850
Probable space group: C 2/C
;
_chemical_formula_sum "Si O2"
_cell_formula_units_Z 52
_cell_length_a 6.811411
_cell_length_b 12.261518
_cell_length_c 26.601789
_cell_angle_alpha 90.000000
_cell_angle_beta 108.116531
_cell_angle_gamma 90.000000
_cell_volume 2111.594415
_symmetry_space_group_name_H-M "C 2/C"
_symmetry_group_IT_number 15
_symmetry_cell_setting 'monoclinic'
loop_
_space_group_symop_operation_xyz
x,y,z
-x,y,1/2-z
-x,-y,-z
x,-y,1/2+z
1/2+x,1/2+y,z
1/2-x,1/2+y,1/2-z
1/2-x,1/2-y,-z
1/2+x,1/2-y,1/2+z
loop_
_atom_site_type_symbol
_atom_site_label
_atom_site_fract_x
_atom_site_fract_y
_atom_site_fract_z
Si Si1 0.867131 0.067668 0.620072
Si Si2 0.500000 0.136641 0.250000
Si Si3 0.684114 0.786927 0.188970
Si Si4 0.492267 0.846976 0.023309
Si Si5 0.358149 0.042623 0.659487
Si Si6 0.527885 0.649843 0.414110
Si Si7 0.662690 0.943873 0.946870
O O1 0.818719 0.120421 0.670580
O O2 0.714828 0.129826 0.568956
O O3 0.116879 0.072916 0.635158
O O4 0.837597 0.939643 0.604051
O O5 0.308690 0.220488 0.240734
O O6 0.575476 0.054895 0.298867
O O7 0.479824 0.851315 0.187062
O O8 0.616350 0.701580 0.140561
O O9 0.388471 0.753252 0.048900
O O10 0.344312 0.952338 0.016991
O O11 0.554926 0.846420 0.969519
O O12 0.431417 0.998697 0.610830
O O13 0.383231 0.594364 0.444788
#
# Coordination Sequence:
#
# PCOD9267850 Si02
#       7
#     8   4   8   8   8   8   8
#     4  10  22  43  68  96 131 174 214 260 330 391
#     4  12  26  46  70  96 124 174 222 276 334 382
#     4  11  24  46  66  92 134 168 211 281 327 373
#     4  10  21  39  67  99 138 174 211 266 326 384
#     4  11  24  46  66  97 135 164 227 274 314 401
#     4  10  20  40  61  96 131 167 214 264 311 391
#     4  10  19  40  67  95 137 174 213 270 319 389
#
# _framework density 24.625942999999999
#
# number of rings (size 3 to 8) (size 9 to 14) (size 15 to 20)
#    0.000    1.538    6.154    0.462    2.154    2.462 
#    8.308    4.615    0.000    0.000    0.000    0.000 
#    0.000    0.000    0.000    0.000    0.000    0.000 
#
# Total GULP energy -144995.866479 kJ/mol
# GULP energy per Si atom -5576.764095 kJ/mol
# Density = 2.456989 g / cm^3
# Si number density = 24.625943 Si / 1000 Ang^3
#
#
#
# Elastic Constant Matrix: (Units=GPa)
#
#
# Indices 1 2 3 4 5 6 
#
# 1 104.9799 35.8203 20.4662 0.0000 16.9391 0.0000
# 2 35.8203 97.4532 16.9722 0.0000 3.2067 0.0000
# 3 20.4662 16.9722 53.6414 0.0000 15.5843 0.0000
# 4 0.0000 0.0000 0.0000 21.8462 0.0000 -3.2421
# 5 16.9391 3.2067 15.5843 0.0000 42.3703 0.0000
# 6 0.0000 0.0000 0.0000 -3.2421 0.0000 34.4241
#
#
#
# Elastic Compliance Matrix: (Units=1/GPa)
#
#
# Indices 1 2 3 4 5 6 
#
# 1 0.011863 -0.003848 -0.002256 0.000000 -0.003621 0.000000
# 2 -0.003848 0.012117 -0.002851 0.000000 0.001670 0.000000
# 3 -0.002256 -0.002851 0.022483 0.000000 -0.007152 0.000000
# 4 0.000000 0.000000 0.000000 0.046423 0.000000 0.004372
# 5 -0.003621 0.001670 -0.007152 0.000000 0.027553 0.000000
# 6 0.000000 0.000000 0.000000 0.004372 0.000000 0.029461
#
#
# Mechanical properties :
#
#
# Convention : Reuss Voigt Hill
#
# Bulk Modulus (GPa) = 35.02360 44.73244 39.87802
# Shear Modulus (GPa) = 28.19608 31.91585 30.05596
#
# Velocity S-wave (km/s) = 3.38742 3.60394 3.49736
# Velocity P-wave (km/s) = 5.43623 5.96004 5.70415
#
# Compressibility (1/GPa) = 0.02855218
#
# Stress axis : x y z
#
# Youngs Moduli (GPa) = 84.29615 82.52619 44.47805
#
# Poissons Ratio (x) = 0.31758 0.10036
# Poissons Ratio (y) = 0.32439 0.12680
# Poissons Ratio (z) = 0.19021 0.23527
#
# Static dielectric constant tensor:
#      x y z
#    x 1.789360 0.000000 0.154090 
#    y 0.000000 2.011440 0.000000 
#    z 0.154090 0.000000 1.893900 
# 
# From -- ./inp_files/287708.got.cif
#   From: 2010.05.17/outbox.cif.g08.bks.cpg/sg15_144_cif.got.tgz:287708.got - 2010.06.03 18:47:42.
