data_PCOD9267390
_publ_section_title
;
Structure prediction by ZEFSAII (Michael W. Deem and Ramdas Pophale) SiO2 
 PCOD9267390
Probable space group: C 2/C
;
_chemical_formula_sum "Si O2"
_cell_formula_units_Z 48
_cell_length_a 13.092634
_cell_length_b 11.443673
_cell_length_c 13.168518
_cell_angle_alpha 90.000000
_cell_angle_beta 76.073456
_cell_angle_gamma 90.000000
_cell_volume 1915.013900
_symmetry_space_group_name_H-M "C 2/C"
_symmetry_group_IT_number 15
_symmetry_cell_setting 'monoclinic'
loop_
_space_group_symop_operation_xyz
x,y,z
-x,y,1/2-z
-x,-y,-z
x,-y,1/2+z
1/2+x,1/2+y,z
1/2-x,1/2+y,1/2-z
1/2-x,1/2-y,-z
1/2+x,1/2-y,1/2+z
loop_
_atom_site_type_symbol
_atom_site_label
_atom_site_fract_x
_atom_site_fract_y
_atom_site_fract_z
Si Si1 0.375017 0.997097 0.703924
Si Si2 0.428244 0.154149 0.851549
Si Si3 0.992375 0.982285 0.632238
Si Si4 0.277549 0.563781 0.929896
Si Si5 0.137822 0.314934 0.626228
Si Si6 0.970205 0.796581 0.021849
O O1 0.500000 0.223222 0.750000
O O2 0.343740 0.092492 0.799276
O O3 0.487767 0.050321 0.641266
O O4 0.295233 0.995729 0.631398
O O5 0.399758 0.222729 0.959697
O O6 0.383365 0.876423 0.761982
O O7 0.116054 0.995105 0.573966
O O8 0.000000 0.978288 0.750000
O O9 0.936245 0.100520 0.606818
O O10 0.957184 0.869032 0.577550
O O11 0.310420 0.687909 0.872197
O O12 0.214677 0.601475 0.044233
O O13 0.040983 0.288152 0.573292
#
# Coordination Sequence:
#
# PCOD9267390 Si02
#       6
#     8   8   8   8   8   8
#     4   9  20  36  58  93 113 158 212 250 297 372
#     4   8  18  36  60  86 112 165 200 246 302 359
#     4  10  23  37  61  94 122 161 203 260 305 372
#     4  10  21  38  60  88 121 165 199 258 316 363
#     4  10  20  38  62  85 121 164 207 248 311 374
#     4  10  19  39  62  86 119 163 205 246 309 374
#
# _framework density 25.065092
#
# number of rings (size 3 to 8) (size 9 to 14) (size 15 to 20)
#    1.000    1.333    1.667    0.500    0.000    7.333 
#   12.000    0.000    0.000    3.000    0.000    0.000 
#    0.000    0.000    0.000    0.000    0.000    0.000 
#
# Total GULP energy -133834.101650 kJ/mol
# GULP energy per Si atom -5576.420902 kJ/mol
# Density = 2.500804 g / cm^3
# Si number density = 25.065092 Si / 1000 Ang^3
#
#
#
# Elastic Constant Matrix: (Units=GPa)
#
#
# Indices 1 2 3 4 5 6 
#
# 1 65.8843 1.6807 30.2097 0.0000 12.6918 0.0000
# 2 1.6807 88.9606 60.0046 0.0000 2.3541 0.0000
# 3 30.2097 60.0046 118.3910 0.0000 16.3069 0.0000
# 4 0.0000 0.0000 0.0000 38.0454 0.0000 13.1324
# 5 12.6918 2.3541 16.3069 0.0000 23.3873 0.0000
# 6 0.0000 0.0000 0.0000 13.1324 0.0000 17.7531
#
#
#
# Elastic Compliance Matrix: (Units=1/GPa)
#
#
# Indices 1 2 3 4 5 6 
#
# 1 0.019044 0.003764 -0.005854 0.000000 -0.006632 0.000000
# 2 0.003764 0.018320 -0.010742 0.000000 0.003603 0.000000
# 3 -0.005854 -0.010742 0.016370 0.000000 -0.007156 0.000000
# 4 0.000000 0.000000 0.000000 0.035297 0.000000 -0.026110
# 5 -0.006632 0.003603 -0.007156 0.000000 0.050984 0.000000
# 6 0.000000 0.000000 0.000000 -0.026110 0.000000 0.075642
#
#
# Mechanical properties :
#
#
# Convention : Reuss Voigt Hill
#
# Bulk Modulus (GPa) = 35.62400 50.78065 43.20232
# Shear Modulus (GPa) = 19.94591 27.92657 23.93624
#
# Velocity S-wave (km/s) = 2.82399 3.34153 3.09360
# Velocity P-wave (km/s) = 4.98765 5.93222 5.48032
#
# Compressibility (1/GPa) = 0.02807097
#
# Stress axis : x y z
#
# Youngs Moduli (GPa) = 52.51072 54.58520 61.08610
#
# Poissons Ratio (x) = -0.20546 0.35758
# Poissons Ratio (y) = -0.19765 0.65618
# Poissons Ratio (z) = 0.30738 0.58635
#
# Static dielectric constant tensor:
#      x y z
#    x 2.009640 0.000000 -0.040240 
#    y 0.000000 2.062230 0.000000 
#    z -0.040240 0.000000 2.025610 
# 
# From -- ./inp_files/151939.got.cif
#   From: 2010.05.17/outbox.cif.g08.bks.cpg/sg15_76_cif.got.tgz:151939.got - 2010.06.03 18:47:42.
