data_PCOD9267700
_publ_section_title
;
Structure prediction by ZEFSAII (Michael W. Deem and Ramdas Pophale) SiO2 
 PCOD9267700
Probable space group: C 2/C
;
_chemical_formula_sum "Si O2"
_cell_formula_units_Z 56
_cell_length_a 19.736590
_cell_length_b 14.201922
_cell_length_c 17.529687
_cell_angle_alpha 90.000000
_cell_angle_beta 30.136190
_cell_angle_gamma 90.000000
_cell_volume 2466.871425
_symmetry_space_group_name_H-M "C 2/C"
_symmetry_group_IT_number 15
_symmetry_cell_setting 'monoclinic'
loop_
_space_group_symop_operation_xyz
x,y,z
-x,y,1/2-z
-x,-y,-z
x,-y,1/2+z
1/2+x,1/2+y,z
1/2-x,1/2+y,1/2-z
1/2-x,1/2-y,-z
1/2+x,1/2-y,1/2+z
loop_
_atom_site_type_symbol
_atom_site_label
_atom_site_fract_x
_atom_site_fract_y
_atom_site_fract_z
Si Si1 0.707056 0.848059 0.854728
Si Si2 0.988697 0.891138 0.529601
Si Si3 0.000000 0.624098 0.750000
Si Si4 0.000000 0.914421 0.250000
Si Si5 0.392719 0.295518 0.944318
Si Si6 0.050700 0.713385 0.377491
Si Si7 0.270732 0.562123 0.445445
Si Si8 0.312055 0.277628 0.521197
O O1 0.575243 0.847707 0.930284
O O2 0.724104 0.924081 0.904243
O O3 0.833888 0.859845 0.676574
O O4 0.718018 0.749929 0.891351
O O5 0.031276 0.868824 0.575602
O O6 0.063794 0.819519 0.399953
O O7 0.000000 0.000000 0.500000
O O8 0.027021 0.700345 0.656420
O O9 0.131548 0.559431 0.628549
O O10 0.928194 0.853324 0.385534
O O11 0.876938 0.979461 0.343634
O O12 0.341207 0.347421 0.918608
O O13 0.906508 0.704102 0.476068
O O14 0.177348 0.696017 0.198755
O O15 0.250000 0.250000 0.500000
#
# Coordination Sequence:
#
# PCOD9267700 Si02
#       8
#     8   8   4   4   8   8   8   8
#     4  10  21  37  63  99 142 179 227 280 343 424
#     4  11  23  37  67 100 141 180 230 292 347 405
#     4  10  19  40  61  96 146 182 240 278 349 428
#     4  12  27  44  75 106 138 176 246 296 367 408
#     4  10  20  36  64  97 140 193 235 277 341 426
#     4  11  24  44  71 104 135 180 238 286 352 424
#     4  11  23  39  67 105 145 187 232 297 353 425
#     4  12  25  49  75 101 128 185 243 299 343 436
#
# _framework density 22.700818999999999
#
# number of rings (size 3 to 8) (size 9 to 14) (size 15 to 20)
#    0.000    1.143    2.857    4.714    4.000    0.000 
#    2.571    0.000    0.000    1.714    0.000    0.000 
#    0.000    0.000    0.000    0.000    0.000    0.000 
#
# Total GULP energy -156104.503891 kJ/mol
# GULP energy per Si atom -5575.160853 kJ/mol
# Density = 2.264915 g / cm^3
# Si number density = 22.700819 Si / 1000 Ang^3
#
#
#
# Elastic Constant Matrix: (Units=GPa)
#
#
# Indices 1 2 3 4 5 6 
#
# 1 176.5082 14.7886 12.9510 0.0000 -6.1534 0.0000
# 2 14.7886 55.9421 25.6933 0.0000 -0.1704 0.0000
# 3 12.9510 25.6933 101.5968 0.0000 -8.5686 0.0000
# 4 0.0000 0.0000 0.0000 36.8695 0.0000 -3.8198
# 5 -6.1534 -0.1704 -8.5686 0.0000 40.3803 0.0000
# 6 0.0000 0.0000 0.0000 -3.8198 0.0000 15.6710
#
#
#
# Elastic Compliance Matrix: (Units=1/GPa)
#
#
# Indices 1 2 3 4 5 6 
#
# 1 0.005834 -0.001391 -0.000323 0.000000 0.000815 0.000000
# 2 -0.001391 0.020598 -0.005134 0.000000 -0.001215 0.000000
# 3 -0.000323 -0.005134 0.011380 0.000000 0.002344 0.000000
# 4 0.000000 0.000000 0.000000 0.027825 0.000000 0.006782
# 5 0.000815 -0.001215 0.002344 0.000000 0.025381 0.000000
# 6 0.000000 0.000000 0.000000 0.006782 0.000000 0.065465
#
#
# Mechanical properties :
#
#
# Convention : Reuss Voigt Hill
#
# Bulk Modulus (GPa) = 41.46846 48.99030 45.22938
# Shear Modulus (GPa) = 28.05533 37.29177 32.67355
#
# Velocity S-wave (km/s) = 3.51931 4.05748 3.79794
# Velocity P-wave (km/s) = 5.90094 6.60141 6.26098
#
# Compressibility (1/GPa) = 0.02411471
#
# Stress axis : x y z
#
# Youngs Moduli (GPa) = 171.40471 48.54891 87.87268
#
# Poissons Ratio (x) = 0.06755 0.02839
# Poissons Ratio (y) = 0.23849 0.45115
# Poissons Ratio (z) = 0.05538 0.24926
#
# Static dielectric constant tensor:
#      x y z
#    x 1.940460 0.000000 0.018140 
#    y 0.000000 1.863880 0.000000 
#    z 0.018140 0.000000 1.992360 
# 
# From -- ./inp_files/215730.got.cif
#   From: 2010.05.17/outbox.cif.g08.bks.cpg/sg15_108_cif.got.tgz:215730.got - 2010.06.03 18:47:42.
