data_PCOD9267088
_publ_section_title
;
Structure prediction by ZEFSAII (Michael W. Deem and Ramdas Pophale) SiO2 
 PCOD9267088
Probable space group: C 2/C
;
_chemical_formula_sum "Si O2"
_cell_formula_units_Z 48
_cell_length_a 14.492048
_cell_length_b 10.696498
_cell_length_c 13.445090
_cell_angle_alpha 90.000000
_cell_angle_beta 61.309037
_cell_angle_gamma 90.000000
_cell_volume 1828.287775
_symmetry_space_group_name_H-M "C 2/C"
_symmetry_group_IT_number 15
_symmetry_cell_setting 'monoclinic'
loop_
_space_group_symop_operation_xyz
x,y,z
-x,y,1/2-z
-x,-y,-z
x,-y,1/2+z
1/2+x,1/2+y,z
1/2-x,1/2+y,1/2-z
1/2-x,1/2-y,-z
1/2+x,1/2-y,1/2+z
loop_
_atom_site_type_symbol
_atom_site_label
_atom_site_fract_x
_atom_site_fract_y
_atom_site_fract_z
Si Si1 0.114046 0.007240 0.277454
Si Si2 0.500000 0.086996 0.250000
Si Si3 0.808999 0.029653 0.975451
Si Si4 0.410291 0.092637 0.939431
Si Si5 0.000000 0.227380 0.250000
Si Si6 0.873137 0.186678 0.593671
Si Si7 0.271962 0.163395 0.308522
O O1 0.057387 0.905782 0.375389
O O2 0.225451 0.046631 0.269151
O O3 0.052060 0.137302 0.303912
O O4 0.127335 0.959333 0.158920
O O5 0.389630 0.155111 0.292388
O O6 0.503392 0.001409 0.148075
O O7 0.692672 0.990291 0.998730
O O8 0.839354 0.904555 0.021861
O O9 0.800749 0.146991 0.055195
O O10 0.409789 0.189823 0.846748
O O11 0.421221 0.185968 0.025980
O O12 0.782820 0.228458 0.720135
#
# Coordination Sequence:
#
# PCOD9267088 Si02
#       7
#     8   4   8   8   4   8   8
#     4  11  23  39  64  90 126 162 206 252 303 365
#     4   9  22  39  64  94 126 155 204 259 302 362
#     4  10  20  41  64  89 124 157 207 261 295 361
#     4  10  19  38  65  88 117 160 205 254 298 357
#     4  11  22  37  62  92 122 161 206 249 300 366
#     4  11  21  36  65  89 121 167 200 245 311 364
#     4  10  22  40  64  95 121 161 205 252 309 363
#
# _framework density 26.254073000000002
#
# number of rings (size 3 to 8) (size 9 to 14) (size 15 to 20)
#    0.000    1.667    3.333    1.500    0.000    4.000 
#    0.000    0.000    0.000    0.000    0.000    0.000 
#    0.000    0.000    0.000    0.000    0.000    0.000 
#
# Total GULP energy -133879.617155 kJ/mol
# GULP energy per Si atom -5578.317381 kJ/mol
# Density = 2.619432 g / cm^3
# Si number density = 26.254073 Si / 1000 Ang^3
#
#
#
# Elastic Constant Matrix: (Units=GPa)
#
#
# Indices 1 2 3 4 5 6 
#
# 1 80.1394 8.1436 15.7149 0.0000 10.7478 0.0000
# 2 8.1436 66.0863 16.0892 0.0000 15.6668 0.0000
# 3 15.7149 16.0892 96.5747 0.0000 16.7780 0.0000
# 4 0.0000 0.0000 0.0000 52.9451 0.0000 25.2319
# 5 10.7478 15.6668 16.7780 0.0000 33.9003 0.0000
# 6 0.0000 0.0000 0.0000 25.2319 0.0000 29.0234
#
#
#
# Elastic Compliance Matrix: (Units=1/GPa)
#
#
# Indices 1 2 3 4 5 6 
#
# 1 0.013258 -0.000501 -0.001514 0.000000 -0.003222 0.000000
# 2 -0.000501 0.017243 -0.001569 0.000000 -0.007033 0.000000
# 3 -0.001514 -0.001569 0.011655 0.000000 -0.004563 0.000000
# 4 0.000000 0.000000 0.000000 0.032248 0.000000 -0.028035
# 5 -0.003222 -0.007033 -0.004563 0.000000 0.036029 0.000000
# 6 0.000000 0.000000 0.000000 -0.028035 0.000000 0.058828
#
#
# Mechanical properties :
#
#
# Convention : Reuss Voigt Hill
#
# Bulk Modulus (GPa) = 28.58177 35.85510 32.21843
# Shear Modulus (GPa) = 26.58266 36.69728 31.63997
#
# Velocity S-wave (km/s) = 3.18546 3.74274 3.47529
# Velocity P-wave (km/s) = 4.94366 5.68894 5.32934
#
# Compressibility (1/GPa) = 0.03498734
#
# Stress axis : x y z
#
# Youngs Moduli (GPa) = 75.42467 57.99505 85.79821
#
# Poissons Ratio (x) = 0.02907 0.12991
# Poissons Ratio (y) = 0.03781 0.13463
# Poissons Ratio (z) = 0.11420 0.09101
#
# Static dielectric constant tensor:
#      x y z
#    x 2.075850 0.000000 0.010400 
#    y 0.000000 2.131620 0.000000 
#    z 0.010400 0.000000 2.092650 
# 
# From -- ./inp_files/152500.got.cif
#   From: 2010.05.17/outbox.cif.g08.bks.cpg/sg15_77_cif.got.tgz:152500.got - 2010.06.03 18:47:42.
