data_PCOD9267971
_publ_section_title
;
Structure prediction by ZEFSAII (Michael W. Deem and Ramdas Pophale) SiO2 
 PCOD9267971
Probable space group: C 2/C
;
_chemical_formula_sum "Si O2"
_cell_formula_units_Z 64
_cell_length_a 27.897188
_cell_length_b 21.885538
_cell_length_c 15.020354
_cell_angle_alpha 90.000000
_cell_angle_beta 19.186750
_cell_angle_gamma 90.000000
_cell_volume 3013.902107
_symmetry_space_group_name_H-M "C 2/C"
_symmetry_group_IT_number 15
_symmetry_cell_setting 'monoclinic'
loop_
_space_group_symop_operation_xyz
x,y,z
-x,y,1/2-z
-x,-y,-z
x,-y,1/2+z
1/2+x,1/2+y,z
1/2-x,1/2+y,1/2-z
1/2-x,1/2-y,-z
1/2+x,1/2-y,1/2+z
loop_
_atom_site_type_symbol
_atom_site_label
_atom_site_fract_x
_atom_site_fract_y
_atom_site_fract_z
Si Si1 0.688601 0.469126 0.278805
Si Si2 0.941981 0.053257 0.751481
Si Si3 0.324172 0.987230 0.236548
Si Si4 0.780383 0.331637 0.074750
Si Si5 0.005798 0.170439 0.521699
Si Si6 0.721042 0.861944 0.076659
Si Si7 0.081190 0.556071 0.701353
Si Si8 0.408459 0.210607 0.535486
O O1 0.522086 0.490845 0.579055
O O2 0.754233 0.473710 0.262658
O O3 0.731722 0.402264 0.170647
O O4 0.768826 0.520661 0.080236
O O5 0.978145 0.107636 0.622249
O O6 0.000000 0.065906 0.750000
O O7 0.770590 0.041734 0.056163
O O8 0.293611 0.926559 0.345885
O O9 0.484095 0.012249 0.934188
O O10 0.643520 0.304562 0.260962
O O11 0.811488 0.303366 0.118160
O O12 0.936048 0.323429 0.753014
O O13 0.125488 0.157007 0.235362
O O14 0.060364 0.218832 0.499239
O O15 0.611978 0.877333 0.186815
O O16 0.667507 0.813690 0.242264
O O17 0.000000 0.560828 0.750000
#
# Coordination Sequence:
#
# PCOD9267971 Si02
#       8
#     8   8   8   8   8   8   8   8
#     4  10  19  41  64 100 134 171 224 276 347 395
#     4  10  23  40  65 101 143 177 213 280 343 416
#     4  10  21  36  64  98 137 175 221 272 349 405
#     4  11  25  46  75  96 131 176 235 290 334 403
#     4  12  27  46  69 100 137 181 231 278 342 407
#     4  12  23  43  67 100 139 178 224 289 334 410
#     4  10  22  37  61 101 141 181 220 273 346 406
#     4  11  27  49  68 100 133 186 235 283 326 407
#
# _framework density 21.234931
#
# number of rings (size 3 to 8) (size 9 to 14) (size 15 to 20)
#    0.000    1.250    2.500    2.625    8.750    1.500 
#    2.250    0.000    0.000    0.000    0.000    0.000 
#    0.000    0.000    0.000    0.000    0.000    0.000 
#
# Total GULP energy -178805.510259 kJ/mol
# GULP energy per Si atom -5587.672196 kJ/mol
# Density = 2.118660 g / cm^3
# Si number density = 21.234931 Si / 1000 Ang^3
#
#
#
# Elastic Constant Matrix: (Units=GPa)
#
#
# Indices 1 2 3 4 5 6 
#
# 1 82.1921 13.9343 26.9463 -0.0044 0.9554 0.0000
# 2 13.9343 67.3633 13.5300 -0.0104 3.3377 0.0005
# 3 26.9463 13.5300 110.7494 -0.0114 12.2712 0.0015
# 4 -0.0044 -0.0104 -0.0114 12.0068 0.0008 4.4969
# 5 0.9554 3.3377 12.2712 0.0008 30.4231 -0.0001
# 6 0.0000 0.0005 0.0015 4.4969 -0.0001 23.6057
#
#
#
# Elastic Compliance Matrix: (Units=1/GPa)
#
#
# Indices 1 2 3 4 5 6 
#
# 1 0.013564 -0.002227 -0.003149 0.000000 0.001088 0.000000
# 2 -0.002227 0.015611 -0.001239 0.000013 -0.001143 -0.000003
# 3 -0.003149 -0.001239 0.010385 0.000009 -0.003954 -0.000002
# 4 0.000000 0.000013 0.000009 0.089685 -0.000007 -0.017085
# 5 0.001088 -0.001143 -0.003954 -0.000007 0.034556 0.000002
# 6 0.000000 -0.000003 -0.000002 -0.017085 0.000002 0.045617
#
#
# Mechanical properties :
#
#
# Convention : Reuss Voigt Hill
#
# Bulk Modulus (GPa) = 37.97847 41.01401 39.49624
# Shear Modulus (GPa) = 21.60536 26.93339 24.26938
#
# Velocity S-wave (km/s) = 3.19320 3.56526 3.38435
# Velocity P-wave (km/s) = 5.61419 6.02532 5.82338
#
# Compressibility (1/GPa) = 0.02633071
#
# Stress axis : x y z
#
# Youngs Moduli (GPa) = 73.72537 64.05742 96.29335
#
# Poissons Ratio (x) = 0.14267 0.30320
# Poissons Ratio (y) = 0.16420 0.11927
# Poissons Ratio (z) = 0.23214 0.07934
#
# Static dielectric constant tensor:
#      x y z
#    x 1.828890 0.000000 0.005970 
#    y 0.000000 1.732710 0.000000 
#    z 0.005970 0.000000 1.749250 
# 
# From -- ./inp_files/183107.got.cif
#   From: 2010.05.17/outbox.cif.g08.bks.cpg/sg15_92_cif.got.tgz:183107.got - 2010.06.03 18:47:42.
