data_PCOD9267247
_publ_section_title
;
Structure prediction by ZEFSAII (Michael W. Deem and Ramdas Pophale) SiO2 
 PCOD9267247
Probable space group: C 2/C
;
_chemical_formula_sum "Si O2"
_cell_formula_units_Z 36
_cell_length_a 7.497401
_cell_length_b 16.927461
_cell_length_c 23.659230
_cell_angle_alpha 90.000000
_cell_angle_beta 144.240547
_cell_angle_gamma 90.000000
_cell_volume 1754.693045
_symmetry_space_group_name_H-M "C 2/C"
_symmetry_group_IT_number 15
_symmetry_cell_setting 'monoclinic'
loop_
_space_group_symop_operation_xyz
x,y,z
-x,y,1/2-z
-x,-y,-z
x,-y,1/2+z
1/2+x,1/2+y,z
1/2-x,1/2+y,1/2-z
1/2-x,1/2-y,-z
1/2+x,1/2-y,1/2+z
loop_
_atom_site_type_symbol
_atom_site_label
_atom_site_fract_x
_atom_site_fract_y
_atom_site_fract_z
Si Si1 0.290945 0.580395 0.290635
Si Si2 0.500000 0.299074 0.750000
Si Si3 0.159537 0.562010 0.670563
Si Si4 0.744390 0.648884 0.640853
Si Si5 0.836834 0.009619 0.520068
O O1 0.408769 0.646514 0.278527
O O2 0.190882 0.506777 0.225540
O O3 0.520171 0.548273 0.397016
O O4 0.000000 0.610705 0.250000
O O5 0.237935 0.239009 0.659461
O O6 0.500000 0.593540 0.750000
O O7 0.922530 0.630201 0.628272
O O8 0.011521 0.515031 0.579899
O O9 0.436882 0.598167 0.563330
O O10 0.000000 0.614959 0.750000
O O11 0.000000 0.000000 0.500000
#
# Coordination Sequence:
#
# PCOD9267247 Si02
#       5
#     8   4   8   8   8
#     4  12  20  40  64  94 130 164 208 270 306 378
#     4  10  24  38  62  92 136 168 204 248 338 370
#     4  11  21  37  68  95 116 162 224 260 311 369
#     4   9  18  42  60  82 127 167 196 259 314 366
#     4  10  19  38  70  91 117 170 216 257 317 364
#
# _framework density 20.516408999999999
#
# number of rings (size 3 to 8) (size 9 to 14) (size 15 to 20)
#    0.667    0.889    7.778    0.000    0.000    1.778 
#    0.000    5.556    4.889    0.000    0.000    0.000 
#    0.000    0.000    0.000    0.000    0.000    0.000 
#
# Total GULP energy -100241.423377 kJ/mol
# GULP energy per Si atom -5568.967965 kJ/mol
# Density = 2.046971 g / cm^3
# Si number density = 20.516409 Si / 1000 Ang^3
#
#
#
# Elastic Constant Matrix: (Units=GPa)
#
#
# Indices 1 2 3 4 5 6 
#
# 1 77.9237 46.1329 39.0179 0.0008 -7.8291 0.0001
# 2 46.1329 106.0331 27.0268 0.0002 -20.6284 0.0001
# 3 39.0179 27.0268 114.3283 -0.0039 -16.1250 0.0001
# 4 0.0008 0.0002 -0.0039 -23.0691 0.0005 -7.5922
# 5 -7.8291 -20.6284 -16.1250 0.0005 28.6224 0.0000
# 6 0.0001 0.0001 0.0001 -7.5922 0.0000 25.4531
#
#
#
# Elastic Compliance Matrix: (Units=1/GPa)
#
#
# Indices 1 2 3 4 5 6 
#
# 1 0.019885 -0.007923 -0.005379 0.000001 -0.003301 0.000000
# 2 -0.007923 0.014404 0.000497 0.000000 0.008494 0.000000
# 3 -0.005379 0.000497 0.011198 -0.000002 0.005195 -0.000001
# 4 0.000001 0.000000 -0.000002 -0.039473 0.000000 -0.011774
# 5 -0.003301 0.008494 0.005195 0.000000 0.043083 0.000000
# 6 0.000000 0.000000 -0.000001 -0.011774 0.000000 0.035776
#
#
# Mechanical properties :
#
#
# Convention : Reuss Voigt Hill
#
# Bulk Modulus (GPa) = 50.31001 58.07113 54.19057
# Shear Modulus (GPa) = 42.69529 18.60845 30.65187
#
# Velocity S-wave (km/s) = 4.56678 3.01492 3.86945
# Velocity P-wave (km/s) = 7.23757 6.36285 6.81426
#
# Compressibility (1/GPa) = 0.01987676
#
# Stress axis : x y z
#
# Youngs Moduli (GPa) = 50.28823 69.42559 89.30313
#
# Poissons Ratio (x) = 0.55005 0.48037
# Poissons Ratio (y) = 0.39843 -0.04437
# Poissons Ratio (z) = 0.27051 -0.03450
#
# Static dielectric constant tensor:
#      x y z
#    x 1.870560 0.000000 -0.009170 
#    y 0.000000 1.729270 0.000000 
#    z -0.009170 0.000000 1.813020 
# 
# From -- ./inp_files/289503.got.cif
#   From: 2010.05.17/outbox.cif.g08.bks.cpg/sg15_145_cif.got.tgz:289503.got - 2010.06.03 18:47:42.
