data_PCOD9267009
_publ_section_title
;
Structure prediction by ZEFSAII (Michael W. Deem and Ramdas Pophale) SiO2 
 PCOD9267009
Probable space group: C 2/C
;
_chemical_formula_sum "Si O2"
_cell_formula_units_Z 60
_cell_length_a 28.462042
_cell_length_b 13.960764
_cell_length_c 11.154701
_cell_angle_alpha 90.000000
_cell_angle_beta 33.668120
_cell_angle_gamma 90.000000
_cell_volume 2457.207608
_symmetry_space_group_name_H-M "C 2/C"
_symmetry_group_IT_number 15
_symmetry_cell_setting 'monoclinic'
loop_
_space_group_symop_operation_xyz
x,y,z
-x,y,1/2-z
-x,-y,-z
x,-y,1/2+z
1/2+x,1/2+y,z
1/2-x,1/2+y,1/2-z
1/2-x,1/2-y,-z
1/2+x,1/2-y,1/2+z
loop_
_atom_site_type_symbol
_atom_site_label
_atom_site_fract_x
_atom_site_fract_y
_atom_site_fract_z
Si Si1 0.049061 0.344992 0.307479
Si Si2 0.000000 0.119438 0.750000
Si Si3 0.103107 0.299526 0.450415
Si Si4 0.627902 0.748417 0.819448
Si Si5 0.349547 0.407279 0.427581
Si Si6 0.387840 0.976410 0.928727
Si Si7 0.697123 0.959535 0.639628
Si Si8 0.273807 0.766686 0.668562
O O1 0.062258 0.347364 0.421397
O O2 0.967114 0.282808 0.447813
O O3 0.040878 0.450896 0.270244
O O4 0.139220 0.303523 0.072797
O O5 0.059772 0.195457 0.552817
O O6 0.066209 0.058593 0.686008
O O7 0.089051 0.365626 0.597787
O O8 0.205683 0.288010 0.231407
O O9 0.622320 0.676067 0.722638
O O10 0.675581 0.846308 0.682857
O O11 0.686759 0.708586 0.802140
O O12 0.294376 0.479675 0.466814
O O13 0.282858 0.354615 0.658637
O O14 0.352112 0.004812 0.135930
O O15 0.324943 0.988935 0.948497
#
# Coordination Sequence:
#
# PCOD9267009 Si02
#       8
#     8   4   8   8   8   8   8   8
#     4  12  23  39  59  98 133 162 205 269 320 372
#     4  10  20  38  62  94 114 156 218 268 304 368
#     4  11  23  40  61  92 128 169 212 253 319 380
#     4  11  21  38  60  93 128 162 211 262 319 377
#     4  10  19  38  64  86 119 165 219 263 308 372
#     4  12  24  40  60  95 134 176 201 251 322 398
#     4  11  23  40  62  89 129 175 210 253 319 390
#     4  10  21  38  62  86 123 169 216 260 309 368
#
# _framework density 24.417960000000001
#
# number of rings (size 3 to 8) (size 9 to 14) (size 15 to 20)
#    0.000    1.067    5.333    4.800    0.000    1.600 
#    0.000    0.000    0.000    0.800    3.467    0.000 
#    0.000    0.000    0.000    0.000    0.000    0.000 
#
# Total GULP energy -167516.269832 kJ/mol
# GULP energy per Si atom -5583.875661 kJ/mol
# Density = 2.436238 g / cm^3
# Si number density = 24.417960 Si / 1000 Ang^3
#
#
#
# Elastic Constant Matrix: (Units=GPa)
#
#
# Indices 1 2 3 4 5 6 
#
# 1 210.1220 3.5626 52.8283 0.0000 -32.2159 0.0000
# 2 3.5626 8.0911 6.2166 0.0000 0.5756 0.0000
# 3 52.8283 6.2166 126.0742 0.0000 -25.3150 0.0000
# 4 0.0000 0.0000 0.0000 18.4314 0.0000 0.2623
# 5 -32.2159 0.5756 -25.3150 0.0000 54.3948 0.0000
# 6 0.0000 0.0000 0.0000 0.2623 0.0000 22.1113
#
#
#
# Elastic Compliance Matrix: (Units=1/GPa)
#
#
# Indices 1 2 3 4 5 6 
#
# 1 0.005614 -0.001278 -0.001786 0.000000 0.002507 0.000000
# 2 -0.001278 0.129873 -0.006945 0.000000 -0.005364 0.000000
# 3 -0.001786 -0.006945 0.009735 0.000000 0.003546 0.000000
# 4 0.000000 0.000000 0.000000 0.054264 0.000000 -0.000644
# 5 0.002507 -0.005364 0.003546 0.000000 0.021576 0.000000
# 6 0.000000 0.000000 0.000000 -0.000644 0.000000 0.045233
#
#
# Mechanical properties :
#
#
# Convention : Reuss Voigt Hill
#
# Bulk Modulus (GPa) = 7.98701 52.16693 30.07697
# Shear Modulus (GPa) = 15.24158 37.76615 26.50386
#
# Velocity S-wave (km/s) = 2.50110 3.93702 3.29815
# Velocity P-wave (km/s) = 3.40863 6.48671 5.18151
#
# Compressibility (1/GPa) = 0.12520323
#
# Stress axis : x y z
#
# Youngs Moduli (GPa) = 178.11691 7.69981 102.72477
#
# Poissons Ratio (x) = 0.00984 0.18347
# Poissons Ratio (y) = 0.22767 0.71346
# Poissons Ratio (z) = 0.31812 0.05348
#
# Static dielectric constant tensor:
#      x y z
#    x 2.035620 0.000000 -0.011720 
#    y 0.000000 1.966610 0.000000 
#    z -0.011720 0.000000 2.008100 
# 
# From -- ./inp_files/127228.got.cif
#   From: 2010.05.17/outbox.cif.g08.bks.cpg/sg15_64_cif.got.tgz:127228.got - 2010.06.03 18:47:42.
