data_PCOD9267499
_publ_section_title
;
Structure prediction by ZEFSAII (Michael W. Deem and Ramdas Pophale) SiO2 
 PCOD9267499
Probable space group: C 2/C
;
_chemical_formula_sum "Si O2"
_cell_formula_units_Z 56
_cell_length_a 29.229798
_cell_length_b 9.552586
_cell_length_c 17.769833
_cell_angle_alpha 90.000000
_cell_angle_beta 36.100118
_cell_angle_gamma 90.000000
_cell_volume 2923.421229
_symmetry_space_group_name_H-M "C 2/C"
_symmetry_group_IT_number 15
_symmetry_cell_setting 'monoclinic'
loop_
_space_group_symop_operation_xyz
x,y,z
-x,y,1/2-z
-x,-y,-z
x,-y,1/2+z
1/2+x,1/2+y,z
1/2-x,1/2+y,1/2-z
1/2-x,1/2-y,-z
1/2+x,1/2-y,1/2+z
loop_
_atom_site_type_symbol
_atom_site_label
_atom_site_fract_x
_atom_site_fract_y
_atom_site_fract_z
Si Si1 0.364807 0.952486 0.358222
Si Si2 0.753085 0.469273 0.898513
Si Si3 0.716062 0.173414 0.777688
Si Si4 0.500000 0.929617 0.750000
Si Si5 0.861009 0.867830 0.838257
Si Si6 0.112746 0.206900 0.529311
Si Si7 0.000000 0.017022 0.250000
Si Si8 0.756092 0.048532 0.345894
O O1 0.455578 0.977554 0.248698
O O2 0.353518 0.797919 0.340041
O O3 0.316292 0.955118 0.500345
O O4 0.325371 0.065886 0.355796
O O5 0.784388 0.555763 0.786088
O O6 0.700090 0.572434 0.019622
O O7 0.695663 0.344645 0.951799
O O8 0.754154 0.312405 0.691557
O O9 0.756138 0.088595 0.793295
O O10 0.634825 0.234245 0.917971
O O11 0.568272 0.831053 0.629679
O O12 0.832603 0.935256 0.797094
O O13 0.943479 0.901934 0.767508
O O14 0.055339 0.077315 0.622356
#
# Coordination Sequence:
#
# PCOD9267499 Si02
#       8
#     8   8   8   4   8   8   4   8
#     4  11  20  38  63  92 114 159 205 256 298 365
#     4  10  20  36  65  86 116 156 208 256 299 347
#     4  12  20  38  63  90 122 155 200 264 305 346
#     4  11  23  38  56  86 127 159 194 244 311 376
#     4  10  19  39  64  93 117 159 209 250 296 369
#     4  10  22  39  56  86 125 160 197 248 304 367
#     4   9  21  40  60  84 127 171 194 242 309 372
#     4  11  22  37  65  93 124 153 209 255 306 358
#
# _framework density 19.155639999999998
#
# number of rings (size 3 to 8) (size 9 to 14) (size 15 to 20)
#    0.000    1.429    5.714    1.286    0.000    0.571 
#    5.143    1.429    3.143    0.000    0.000    0.000 
#    0.000    0.000    0.000    0.000    0.000    0.000 
#
# Total GULP energy -155888.219233 kJ/mol
# GULP energy per Si atom -5567.436401 kJ/mol
# Density = 1.911204 g / cm^3
# Si number density = 19.155640 Si / 1000 Ang^3
#
#
#
# Elastic Constant Matrix: (Units=GPa)
#
#
# Indices 1 2 3 4 5 6 
#
# 1 127.3831 51.0283 45.1200 0.0000 -11.0400 0.0000
# 2 51.0283 67.0926 32.2168 -0.0008 1.3219 -0.0001
# 3 45.1200 32.2168 71.7152 -0.0008 11.4951 0.0001
# 4 0.0000 -0.0008 -0.0008 25.7778 0.0001 5.3225
# 5 -11.0400 1.3219 11.4951 0.0001 32.1455 0.0001
# 6 0.0000 -0.0001 0.0001 5.3225 0.0001 16.3322
#
#
#
# Elastic Compliance Matrix: (Units=1/GPa)
#
#
# Indices 1 2 3 4 5 6 
#
# 1 0.013801 -0.007529 -0.006481 0.000000 0.007367 0.000000
# 2 -0.007529 0.023290 -0.005471 0.000001 -0.001587 0.000000
# 3 -0.006481 -0.005471 0.022065 0.000001 -0.009891 0.000000
# 4 0.000000 0.000001 0.000001 0.041592 0.000000 -0.013554
# 5 0.007367 -0.001587 -0.009891 0.000000 0.037241 0.000000
# 6 0.000000 0.000000 0.000000 -0.013554 0.000000 0.065646
#
#
# Mechanical properties :
#
#
# Convention : Reuss Voigt Hill
#
# Bulk Modulus (GPa) = 49.52382 58.10235 53.81309
# Shear Modulus (GPa) = 20.05397 24.03949 22.04673
#
# Velocity S-wave (km/s) = 3.23909 3.54638 3.39621
# Velocity P-wave (km/s) = 6.31652 6.86780 6.59792
#
# Compressibility (1/GPa) = 0.02019230
#
# Stress axis : x y z
#
# Youngs Moduli (GPa) = 72.46052 42.93765 45.32092
#
# Poissons Ratio (x) = 0.32329 0.29373
# Poissons Ratio (y) = 0.54557 0.24795
# Poissons Ratio (z) = 0.46963 0.23491
#
# Static dielectric constant tensor:
#      x y z
#    x 1.734950 0.000000 -0.001950 
#    y 0.000000 1.691950 0.000000 
#    z -0.001950 0.000000 1.675380 
# 
# From -- ./inp_files/224420.got.cif
#   From: 2010.05.17/outbox.cif.g08.bks.cpg/sg15_113_cif.got.tgz:224420.got - 2010.06.03 18:47:42.
