data_PCOD9267025
_publ_section_title
;
Structure prediction by ZEFSAII (Michael W. Deem and Ramdas Pophale) SiO2 
 PCOD9267025
Probable space group: C 2/C
;
_chemical_formula_sum "Si O2"
_cell_formula_units_Z 56
_cell_length_a 15.392580
_cell_length_b 10.135097
_cell_length_c 17.496578
_cell_angle_alpha 90.000000
_cell_angle_beta 100.743647
_cell_angle_gamma 90.000000
_cell_volume 2681.712515
_symmetry_space_group_name_H-M "C 2/C"
_symmetry_group_IT_number 15
_symmetry_cell_setting 'monoclinic'
loop_
_space_group_symop_operation_xyz
x,y,z
-x,y,1/2-z
-x,-y,-z
x,-y,1/2+z
1/2+x,1/2+y,z
1/2-x,1/2+y,1/2-z
1/2-x,1/2-y,-z
1/2+x,1/2-y,1/2+z
loop_
_atom_site_type_symbol
_atom_site_label
_atom_site_fract_x
_atom_site_fract_y
_atom_site_fract_z
Si Si1 0.347137 0.183841 0.581567
Si Si2 0.462728 0.773362 0.317594
Si Si3 0.789556 0.787679 0.302490
Si Si4 0.823860 0.511599 0.804182
Si Si5 0.611749 0.379061 0.041239
Si Si6 0.091269 0.166172 0.038805
Si Si7 0.893594 0.539108 0.986595
O O1 0.449247 0.190631 0.623237
O O2 0.287630 0.214905 0.644944
O O3 0.338474 0.287042 0.510883
O O4 0.343738 0.039619 0.544306
O O5 0.500000 0.699534 0.250000
O O6 0.408239 0.904738 0.286506
O O7 0.406371 0.691394 0.369135
O O8 0.807734 0.639278 0.276013
O O9 0.757423 0.893620 0.234259
O O10 0.870023 0.838294 0.368495
O O11 0.847946 0.503377 0.898096
O O12 0.639152 0.529654 0.031507
O O13 0.509043 0.359149 0.005184
O O14 0.117216 0.304386 0.006255
O O15 0.000000 0.500000 0.000000
#
# Coordination Sequence:
#
# PCOD9267025 Si02
#       7
#     8   8   8   8   8   8   8
#     4  11  21  38  66  90 114 164 211 253 293 376
#     4  10  19  38  64  88 115 159 218 249 296 369
#     4  12  25  39  61  90 131 159 200 252 325 368
#     4  11  24  38  61  91 125 164 198 255 319 372
#     4  10  20  37  58  90 121 158 198 255 311 363
#     4   9  20  35  63  89 118 157 209 252 306 359
#     4  11  18  38  64  90 113 161 218 250 289 366
#
# _framework density 20.882179000000001
#
# number of rings (size 3 to 8) (size 9 to 14) (size 15 to 20)
#    0.000    1.429    7.143    0.429    4.000    0.000 
#    0.000    2.143    0.000    2.571    0.000    0.000 
#    0.000    0.000    0.000    0.000    0.000    0.000 
#
# Total GULP energy -156047.917850 kJ/mol
# GULP energy per Si atom -5573.139923 kJ/mol
# Density = 2.083465 g / cm^3
# Si number density = 20.882179 Si / 1000 Ang^3
#
#
#
# Elastic Constant Matrix: (Units=GPa)
#
#
# Indices 1 2 3 4 5 6 
#
# 1 47.4180 21.9704 12.9579 0.0000 5.3799 0.0000
# 2 21.9704 170.4416 27.7105 0.0000 14.0475 0.0000
# 3 12.9579 27.7105 78.9668 0.0000 25.3030 0.0000
# 4 0.0000 0.0000 0.0000 20.1072 0.0000 7.5875
# 5 5.3799 14.0475 25.3030 0.0000 23.3214 0.0000
# 6 0.0000 0.0000 0.0000 7.5875 0.0000 15.8716
#
#
#
# Elastic Compliance Matrix: (Units=1/GPa)
#
#
# Indices 1 2 3 4 5 6 
#
# 1 0.023056 -0.002467 -0.002590 0.000000 -0.001023 0.000000
# 2 -0.002467 0.006555 -0.001246 0.000000 -0.002028 0.000000
# 3 -0.002590 -0.001246 0.020072 0.000000 -0.020429 0.000000
# 4 0.000000 0.000000 0.000000 0.060680 0.000000 -0.029008
# 5 -0.001023 -0.002028 -0.020429 0.000000 0.066502 0.000000
# 6 0.000000 0.000000 0.000000 -0.029008 0.000000 0.076873
#
#
# Mechanical properties :
#
#
# Convention : Reuss Voigt Hill
#
# Bulk Modulus (GPa) = 26.97038 46.90043 36.93541
# Shear Modulus (GPa) = 17.94041 27.47254 22.70647
#
# Velocity S-wave (km/s) = 2.93426 3.63105 3.30109
# Velocity P-wave (km/s) = 4.94200 6.33148 5.67940
#
# Compressibility (1/GPa) = 0.03707772
#
# Stress axis : x y z
#
# Youngs Moduli (GPa) = 43.37321 152.56230 49.82121
#
# Poissons Ratio (x) = 0.37630 0.12904
# Poissons Ratio (y) = 0.10698 0.06206
# Poissons Ratio (z) = 0.11234 0.19004
#
# Static dielectric constant tensor:
#      x y z
#    x 1.795200 0.000000 0.033660 
#    y 0.000000 1.774600 0.000000 
#    z 0.033660 0.000000 1.786200 
# 
# From -- ./inp_files/213466.got.cif
#   From: 2010.05.17/outbox.cif.g08.bks.cpg/sg15_107_cif.got.tgz:213466.got - 2010.06.03 18:47:42.
