data_PCOD9267526
_publ_section_title
;
Structure prediction by ZEFSAII (Michael W. Deem and Ramdas Pophale) SiO2 
 PCOD9267526
Probable space group: C 2/C
;
_chemical_formula_sum "Si O2"
_cell_formula_units_Z 52
_cell_length_a 10.878716
_cell_length_b 28.219274
_cell_length_c 10.239009
_cell_angle_alpha 90.000000
_cell_angle_beta 132.955762
_cell_angle_gamma 90.000000
_cell_volume 2300.495095
_symmetry_space_group_name_H-M "C 2/C"
_symmetry_group_IT_number 15
_symmetry_cell_setting 'monoclinic'
loop_
_space_group_symop_operation_xyz
x,y,z
-x,y,1/2-z
-x,-y,-z
x,-y,1/2+z
1/2+x,1/2+y,z
1/2-x,1/2+y,1/2-z
1/2-x,1/2-y,-z
1/2+x,1/2-y,1/2+z
loop_
_atom_site_type_symbol
_atom_site_label
_atom_site_fract_x
_atom_site_fract_y
_atom_site_fract_z
Si Si1 0.380724 0.788949 0.847387
Si Si2 0.191632 0.061554 0.871444
Si Si3 0.500000 0.069706 0.750000
Si Si4 0.176224 0.865338 0.578224
Si Si5 0.500000 0.291388 0.250000
Si Si6 0.825977 0.876901 0.404264
Si Si7 0.853309 0.718747 0.746268
Si Si8 0.000000 0.500000 0.500000
O O1 0.332092 0.839529 0.757173
O O2 0.387373 0.746551 0.746846
O O3 0.227989 0.770346 0.825795
O O4 0.553072 0.788744 0.048561
O O5 0.189898 0.099616 0.751717
O O6 0.000000 0.043751 0.750000
O O7 0.231470 0.089939 0.033033
O O8 0.325588 0.021940 0.937617
O O9 0.325126 0.099957 0.621505
O O10 0.512448 0.038136 0.630039
O O11 0.097440 0.825762 0.421470
O O12 0.027332 0.880311 0.570528
O O13 0.784240 0.821548 0.371511
O O14 0.000000 0.712027 0.750000
#
# Coordination Sequence:
#
# PCOD9267526 Si02
#       8
#     8   8   4   8   4   8   8   4
#     4  12  25  36  59  94 128 174 235 279 313 376
#     4   9  19  39  69  96 133 173 210 272 349 414
#     4  10  22  44  73  94 132 168 216 273 346 424
#     4  11  20  39  63  94 133 177 223 275 334 396
#     4  12  20  36  63  90 134 172 220 273 326 376
#     4  10  19  39  65  88 127 179 216 260 337 401
#     4  12  23  40  58  83 127 183 229 272 325 377
#     4  10  22  44  72 104 124 166 224 280 346 424
#
# _framework density 22.603829000000001
#
# number of rings (size 3 to 8) (size 9 to 14) (size 15 to 20)
#    0.000    1.231    6.154    0.923    2.154    0.000 
#    5.538    6.923    0.000    0.000    0.000    0.000 
#    0.000    0.000    0.000    0.000    0.000    0.000 
#
# Total GULP energy -144755.157312 kJ/mol
# GULP energy per Si atom -5567.506050 kJ/mol
# Density = 2.255238 g / cm^3
# Si number density = 22.603829 Si / 1000 Ang^3
#
#
#
# Elastic Constant Matrix: (Units=GPa)
#
#
# Indices 1 2 3 4 5 6 
#
# 1 133.0856 37.2933 19.2389 0.0000 25.8829 0.0000
# 2 37.2933 60.6238 19.3361 0.0000 13.7008 0.0000
# 3 19.2389 19.3361 51.3332 0.0000 9.6246 0.0000
# 4 0.0000 0.0000 0.0000 20.6383 0.0000 19.7741
# 5 25.8829 13.7008 9.6246 0.0000 15.3485 0.0000
# 6 0.0000 0.0000 0.0000 19.7741 0.0000 22.1894
#
#
#
# Elastic Compliance Matrix: (Units=1/GPa)
#
#
# Indices 1 2 3 4 5 6 
#
# 1 0.011726 -0.003447 0.000039 0.000000 -0.016722 0.000000
# 2 -0.003447 0.022826 -0.005185 0.000000 -0.011311 0.000000
# 3 0.000039 -0.005185 0.023303 0.000000 -0.010050 0.000000
# 4 0.000000 0.000000 0.000000 0.331509 0.000000 -0.295425
# 5 -0.016722 -0.011311 -0.010050 0.000000 0.109752 0.000000
# 6 0.000000 0.000000 0.000000 -0.295425 0.000000 0.308336
#
#
# Mechanical properties :
#
#
# Convention : Reuss Voigt Hill
#
# Bulk Modulus (GPa) = 24.58879 44.08656 34.33768
# Shear Modulus (GPa) = 5.96520 22.91351 14.43936
#
# Velocity S-wave (km/s) = 1.62627 3.18732 2.53019
# Velocity P-wave (km/s) = 3.79843 5.75254 4.87441
#
# Compressibility (1/GPa) = 0.04066893
#
# Stress axis : x y z
#
# Youngs Moduli (GPa) = 85.27739 43.81028 42.91202
#
# Poissons Ratio (x) = 0.15100 -0.00166
# Poissons Ratio (y) = 0.29393 0.22251
# Poissons Ratio (z) = -0.00331 0.22717
#
# Static dielectric constant tensor:
#      x y z
#    x 1.993150 0.000000 -0.031690 
#    y 0.000000 1.772820 0.000000 
#    z -0.031690 0.000000 1.837790 
# 
# From -- ./inp_files/92680.got.cif
#   From: 2010.05.17/outbox.cif.g08.bks.cpg/sg15_47_cif.got.tgz:92680.got - 2010.06.03 18:47:42.
