data_PCOD9267172
_publ_section_title
;
Structure prediction by ZEFSAII (Michael W. Deem and Ramdas Pophale) SiO2 
 PCOD9267172
Probable space group: C 2/C
;
_chemical_formula_sum "Si O2"
_cell_formula_units_Z 40
_cell_length_a 10.119839
_cell_length_b 40.096723
_cell_length_c 4.945196
_cell_angle_alpha 90.000000
_cell_angle_beta 75.719488
_cell_angle_gamma 90.000000
_cell_volume 1944.618648
_symmetry_space_group_name_H-M "C 2/C"
_symmetry_group_IT_number 15
_symmetry_cell_setting 'monoclinic'
loop_
_space_group_symop_operation_xyz
x,y,z
-x,y,1/2-z
-x,-y,-z
x,-y,1/2+z
1/2+x,1/2+y,z
1/2-x,1/2+y,1/2-z
1/2-x,1/2-y,-z
1/2+x,1/2-y,1/2+z
loop_
_atom_site_type_symbol
_atom_site_label
_atom_site_fract_x
_atom_site_fract_y
_atom_site_fract_z
Si Si1 0.665923 0.282029 0.144229
Si Si2 0.232861 0.175441 0.096490
Si Si3 0.500000 0.475288 0.250000
Si Si4 0.305375 0.415568 0.474475
Si Si5 0.142741 0.391955 0.044662
Si Si6 0.000000 0.128058 0.250000
O O1 0.500000 0.277007 0.250000
O O2 0.734006 0.293951 0.390629
O O3 0.750000 0.250000 0.000000
O O4 0.698516 0.310897 0.909464
O O5 0.105511 0.153354 0.063362
O O6 0.351032 0.147551 0.034872
O O7 0.500000 0.500000 0.500000
O O8 0.371317 0.450762 0.361727
O O9 0.250577 0.399769 0.227206
O O10 0.421753 0.394368 0.571727
O O11 0.185207 0.413128 0.759405
O O12 0.000000 0.400395 0.250000
#
# Coordination Sequence:
#
# PCOD9267172 Si02
#       6
#     8   8   4   8   8   4
#     4  12  25  41  58  85 120 167 213 267 321 397
#     4  11  22  38  65  87 116 155 206 264 326 387
#     4  12  23  40  66  98 136 170 220 268 312 368
#     4  11  23  39  66 100 132 168 207 271 328 374
#     4  11  24  41  65  97 133 166 209 265 335 393
#     4  10  19  38  66  96 122 146 214 272 338 376
#
# _framework density 20.569586999999999
#
# number of rings (size 3 to 8) (size 9 to 14) (size 15 to 20)
#    0.000    0.800    2.000    7.800    0.000    1.600 
#    0.000    0.000    0.000   12.000    0.000    0.000 
#    0.000    0.000    0.000    0.000    0.000    0.000 
#
# Total GULP energy -111647.688705 kJ/mol
# GULP energy per Si atom -5582.384435 kJ/mol
# Density = 2.052277 g / cm^3
# Si number density = 20.569587 Si / 1000 Ang^3
#
#
#
# Elastic Constant Matrix: (Units=GPa)
#
#
# Indices 1 2 3 4 5 6 
#
# 1 35.2324 25.8223 16.8385 0.0000 -12.0752 0.0000
# 2 25.8223 105.0507 46.8130 0.0000 -13.6132 0.0000
# 3 16.8385 46.8130 143.8489 0.0000 -13.7899 0.0000
# 4 0.0000 0.0000 0.0000 58.4480 0.0000 -2.7844
# 5 -12.0752 -13.6132 -13.7899 0.0000 43.0682 0.0000
# 6 0.0000 0.0000 0.0000 -2.7844 0.0000 19.6646
#
#
#
# Elastic Compliance Matrix: (Units=1/GPa)
#
#
# Indices 1 2 3 4 5 6 
#
# 1 0.037136 -0.007635 -0.001130 0.000000 0.007637 0.000000
# 2 -0.007635 0.012956 -0.003235 0.000000 0.000919 0.000000
# 3 -0.001130 -0.003235 0.008262 0.000000 0.001306 0.000000
# 4 0.000000 0.000000 0.000000 0.017225 0.000000 0.002439
# 5 0.007637 0.000919 0.001306 0.000000 0.026069 0.000000
# 6 0.000000 0.000000 0.000000 0.002439 0.000000 0.051198
#
#
# Mechanical properties :
#
#
# Convention : Reuss Voigt Hill
#
# Bulk Modulus (GPa) = 29.10801 51.45327 40.28064
# Shear Modulus (GPa) = 26.55355 37.21337 31.88346
#
# Velocity S-wave (km/s) = 3.59683 4.25802 3.94131
# Velocity P-wave (km/s) = 5.60636 7.01732 6.35115
#
# Compressibility (1/GPa) = 0.03435480
#
# Stress axis : x y z
#
# Youngs Moduli (GPa) = 26.92777 77.18142 121.03762
#
# Poissons Ratio (x) = 0.58929 0.13681
# Poissons Ratio (y) = 0.20560 0.39151
# Poissons Ratio (z) = 0.03044 0.24965
#
# Static dielectric constant tensor:
#      x y z
#    x 1.804950 0.000000 -0.031600 
#    y 0.000000 1.740900 0.000000 
#    z -0.031600 0.000000 1.801080 
# 
# From -- ./inp_files/5723.got.cif
#   From: 2010.05.17/outbox.cif.g08.bks.cpg/sg15_3_cif.got.tgz:5723.got - 2010.06.03 18:47:42.
