data_PCOD9267011
_publ_section_title
;
Structure prediction by ZEFSAII (Michael W. Deem and Ramdas Pophale) SiO2 
 PCOD9267011
Probable space group: C 2/C
;
_chemical_formula_sum "Si O2"
_cell_formula_units_Z 52
_cell_length_a 8.207254
_cell_length_b 26.345352
_cell_length_c 14.313503
_cell_angle_alpha 90.000000
_cell_angle_beta 129.340992
_cell_angle_gamma 90.000000
_cell_volume 2393.561571
_symmetry_space_group_name_H-M "C 2/C"
_symmetry_group_IT_number 15
_symmetry_cell_setting 'monoclinic'
loop_
_space_group_symop_operation_xyz
x,y,z
-x,y,1/2-z
-x,-y,-z
x,-y,1/2+z
1/2+x,1/2+y,z
1/2-x,1/2+y,1/2-z
1/2-x,1/2-y,-z
1/2+x,1/2-y,1/2+z
loop_
_atom_site_type_symbol
_atom_site_label
_atom_site_fract_x
_atom_site_fract_y
_atom_site_fract_z
Si Si1 0.000000 0.013980 0.750000
Si Si2 0.000000 0.208361 0.250000
Si Si3 0.122544 0.953433 0.498319
Si Si4 0.622125 0.659357 0.995165
Si Si5 0.426924 0.961128 0.894075
Si Si6 0.952605 0.742253 0.913887
Si Si7 0.500000 0.302665 0.250000
Si Si8 0.918429 0.655346 0.403196
O O1 0.195232 0.980205 0.783222
O O2 0.078378 0.044433 0.869873
O O3 0.936784 0.244337 0.142194
O O4 0.192950 0.173979 0.284881
O O5 0.061825 0.896684 0.509060
O O6 0.374205 0.960393 0.603603
O O7 0.000000 0.000000 0.500000
O O8 0.551015 0.665259 0.861315
O O9 0.535087 0.708339 0.016162
O O10 0.877632 0.662495 0.088198
O O11 0.408685 0.903720 0.923725
O O12 0.500000 0.000000 0.000000
O O13 0.705483 0.731137 0.805541
O O14 0.034141 0.691514 0.992142
#
# Coordination Sequence:
#
# PCOD9267011 Si02
#       8
#     4   4   8   8   8   8   4   8
#     4  10  20  40  62  84 116 156 192 242 298 352
#     4  12  23  36  56  87 122 159 193 240 298 346
#     4  10  22  39  61  89 118 152 197 247 297 353
#     4  10  21  39  61  85 115 152 197 241 288 353
#     4   9  20  38  60  86 115 151 195 243 297 354
#     4  11  22  37  57  86 119 154 195 241 290 348
#     4  10  19  38  64  87 112 157 199 238 292 350
#     4  10  21  37  58  83 114 151 195 241 287 345
#
# _framework density 21.724947
#
# number of rings (size 3 to 8) (size 9 to 14) (size 15 to 20)
#    0.000    1.846    0.000    5.077    0.000    5.538 
#    0.000    3.077    0.000    3.692    0.000    0.000 
#    0.000    0.000    0.000    0.000    0.000    0.000 
#
# Total GULP energy -145174.833235 kJ/mol
# GULP energy per Si atom -5583.647432 kJ/mol
# Density = 2.167550 g / cm^3
# Si number density = 21.724947 Si / 1000 Ang^3
#
#
#
# Elastic Constant Matrix: (Units=GPa)
#
#
# Indices 1 2 3 4 5 6 
#
# 1 55.0605 37.1781 19.8038 0.0000 17.9128 0.0000
# 2 37.1781 158.1238 24.6483 0.0000 5.5451 0.0000
# 3 19.8038 24.6483 63.5867 0.0000 13.9560 0.0000
# 4 0.0000 0.0000 0.0000 19.1387 0.0000 0.9140
# 5 17.9128 5.5451 13.9560 0.0000 40.1439 0.0000
# 6 0.0000 0.0000 0.0000 0.9140 0.0000 30.3884
#
#
#
# Elastic Compliance Matrix: (Units=1/GPa)
#
#
# Indices 1 2 3 4 5 6 
#
# 1 0.026253 -0.005204 -0.004055 0.000000 -0.009586 0.000000
# 2 -0.005204 0.007763 -0.001800 0.000000 0.001876 0.000000
# 3 -0.004055 -0.001800 0.018659 0.000000 -0.004429 0.000000
# 4 0.000000 0.000000 0.000000 0.052325 0.000000 -0.001574
# 5 -0.009586 0.001876 -0.004429 0.000000 0.030468 0.000000
# 6 0.000000 0.000000 0.000000 -0.001574 0.000000 0.032955
#
#
# Mechanical properties :
#
#
# Convention : Reuss Voigt Hill
#
# Bulk Modulus (GPa) = 32.72660 48.89238 40.80949
# Shear Modulus (GPa) = 24.90946 30.94360 27.92653
#
# Velocity S-wave (km/s) = 3.38980 3.77813 3.58922
# Velocity P-wave (km/s) = 5.51523 6.44875 6.00017
#
# Compressibility (1/GPa) = 0.03055618
#
# Stress axis : x y z
#
# Youngs Moduli (GPa) = 38.09087 128.82305 53.59280
#
# Poissons Ratio (x) = 0.67044 0.21733
# Poissons Ratio (y) = 0.19824 0.09646
# Poissons Ratio (z) = 0.15446 0.23186
#
# Static dielectric constant tensor:
#      x y z
#    x 1.848800 0.000000 0.049370 
#    y 0.000000 1.742830 0.000000 
#    z 0.049370 0.000000 1.861780 
# 
# From -- ./inp_files/138796.got.cif
#   From: 2010.05.17/outbox.cif.g08.bks.cpg/sg15_70_cif.got.tgz:138796.got - 2010.06.03 18:47:42.
