data_PCOD9267964
_publ_section_title
;
Structure prediction by ZEFSAII (Michael W. Deem and Ramdas Pophale) SiO2 
 PCOD9267964
Probable space group: C 2/C
;
_chemical_formula_sum "Si O2"
_cell_formula_units_Z 52
_cell_length_a 27.602422
_cell_length_b 7.526206
_cell_length_c 25.720054
_cell_angle_alpha 90.000000
_cell_angle_beta 155.675559
_cell_angle_gamma 90.000000
_cell_volume 2200.848931
_symmetry_space_group_name_H-M "C 2/C"
_symmetry_group_IT_number 15
_symmetry_cell_setting 'monoclinic'
loop_
_space_group_symop_operation_xyz
x,y,z
-x,y,1/2-z
-x,-y,-z
x,-y,1/2+z
1/2+x,1/2+y,z
1/2-x,1/2+y,1/2-z
1/2-x,1/2-y,-z
1/2+x,1/2-y,1/2+z
loop_
_atom_site_type_symbol
_atom_site_label
_atom_site_fract_x
_atom_site_fract_y
_atom_site_fract_z
Si Si1 0.204912 0.941041 0.017197
Si Si2 0.043892 0.935520 0.952029
Si Si3 0.288138 0.408760 0.211406
Si Si4 0.900520 0.611377 0.779033
Si Si5 0.767380 0.218548 0.797960
Si Si6 0.643215 0.760918 0.819338
Si Si7 0.000000 0.992028 0.750000
O O1 0.134112 0.012772 0.998446
O O2 0.106749 0.883086 0.880468
O O3 0.303564 0.819200 0.141430
O O4 0.280180 0.107418 0.069505
O O5 0.927871 0.046977 0.848866
O O6 0.004084 0.750736 0.885381
O O7 0.114506 0.886694 0.072588
O O8 0.226760 0.589751 0.169462
O O9 0.252974 0.272949 0.222328
O O10 0.272355 0.345520 0.137488
O O11 0.837899 0.621035 0.774058
O O12 0.922521 0.411260 0.781016
O O13 0.559422 0.624341 0.766251
#
# Coordination Sequence:
#
# PCOD9267964 Si02
#       7
#     8   8   8   8   8   8   4
#     4   9  21  39  64  87 127 153 209 261 303 371
#     4  10  19  41  63  89 128 167 198 256 313 371
#     4  11  21  39  62  92 126 168 203 260 302 372
#     4   8  20  39  59  89 123 158 202 255 297 374
#     4  10  21  36  63  90 128 162 204 245 316 365
#     4  10  22  39  64  90 128 157 214 254 308 365
#     4  12  20  40  66  94 116 172 202 262 318 358
#
# _framework density 23.627247000000001
#
# number of rings (size 3 to 8) (size 9 to 14) (size 15 to 20)
#    0.923    1.231    1.538    1.846    0.000    1.231 
#    0.000    5.385    0.000    0.000    0.000    0.000 
#    0.000    0.000    0.000    0.000    0.000    0.000 
#
# Total GULP energy -144903.519227 kJ/mol
# GULP energy per Si atom -5573.212278 kJ/mol
# Density = 2.357347 g / cm^3
# Si number density = 23.627247 Si / 1000 Ang^3
#
#
#
# Elastic Constant Matrix: (Units=GPa)
#
#
# Indices 1 2 3 4 5 6 
#
# 1 79.3242 16.3690 -3.6658 0.0003 -11.1021 0.0001
# 2 16.3690 54.9016 -12.6814 -0.0009 6.7431 -0.0002
# 3 -3.6658 -12.6814 44.3601 -0.0001 2.3661 -0.0001
# 4 0.0003 -0.0009 -0.0001 14.2712 0.0001 5.6038
# 5 -11.1021 6.7431 2.3661 0.0001 20.1913 0.0001
# 6 0.0001 -0.0002 -0.0001 5.6038 0.0001 38.7170
#
#
#
# Elastic Compliance Matrix: (Units=1/GPa)
#
#
# Indices 1 2 3 4 5 6 
#
# 1 0.015296 -0.006100 -0.001044 -0.000001 0.010570 0.000000
# 2 -0.006100 0.023037 0.006713 0.000002 -0.011834 0.000000
# 3 -0.001044 0.006713 0.024680 0.000001 -0.005708 0.000000
# 4 -0.000001 0.000002 0.000001 0.074294 -0.000001 -0.010753
# 5 0.010570 -0.011834 -0.005708 -0.000001 0.059959 0.000000
# 6 0.000000 0.000000 0.000000 -0.010753 0.000000 0.027385
#
#
# Mechanical properties :
#
#
# Convention : Reuss Voigt Hill
#
# Bulk Modulus (GPa) = 16.08948 19.84770 17.96859
# Shear Modulus (GPa) = 20.30625 26.54018 23.42321
#
# Velocity S-wave (km/s) = 2.93480 3.35518 3.15201
# Velocity P-wave (km/s) = 4.27886 4.84027 4.56820
#
# Compressibility (1/GPa) = 0.06215240
#
# Stress axis : x y z
#
# Youngs Moduli (GPa) = 65.37494 43.40817 40.51863
#
# Poissons Ratio (x) = 0.26479 0.04228
# Poissons Ratio (y) = 0.39878 -0.27200
# Poissons Ratio (z) = 0.06822 -0.29139
#
# Static dielectric constant tensor:
#      x y z
#    x 1.895680 0.000000 -0.043380 
#    y 0.000000 1.926930 0.000000 
#    z -0.043380 0.000000 1.937230 
# 
# From -- ./inp_files/303047.got.cif
#   From: 2010.05.17/outbox.cif.g08.bks.cpg/sg15_152_cif.got.tgz:303047.got - 2010.06.03 18:47:42.
