data_PCOD9267183
_publ_section_title
;
Structure prediction by ZEFSAII (Michael W. Deem and Ramdas Pophale) SiO2 
 PCOD9267183
Probable space group: C 2/C
;
_chemical_formula_sum "Si O2"
_cell_formula_units_Z 56
_cell_length_a 16.782298
_cell_length_b 7.558165
_cell_length_c 22.189503
_cell_angle_alpha 90.000000
_cell_angle_beta 54.320416
_cell_angle_gamma 90.000000
_cell_volume 2286.268490
_symmetry_space_group_name_H-M "C 2/C"
_symmetry_group_IT_number 15
_symmetry_cell_setting 'monoclinic'
loop_
_space_group_symop_operation_xyz
x,y,z
-x,y,1/2-z
-x,-y,-z
x,-y,1/2+z
1/2+x,1/2+y,z
1/2-x,1/2+y,1/2-z
1/2-x,1/2-y,-z
1/2+x,1/2-y,1/2+z
loop_
_atom_site_type_symbol
_atom_site_label
_atom_site_fract_x
_atom_site_fract_y
_atom_site_fract_z
Si Si1 0.396071 0.896254 0.934749
Si Si2 0.328987 0.208853 0.335019
Si Si3 0.250536 0.232867 0.191852
Si Si4 0.919320 0.979387 0.956570
Si Si5 0.369083 0.448332 0.613929
Si Si6 0.780725 0.937859 0.913429
Si Si7 0.895048 0.514113 0.695006
O O1 0.343732 0.889933 0.892360
O O2 0.418386 0.690804 0.941958
O O3 0.499088 0.996478 0.882016
O O4 0.319718 0.976641 0.016469
O O5 0.218137 0.187843 0.359309
O O6 0.340028 0.412863 0.348469
O O7 0.393865 0.115235 0.254964
O O8 0.323201 0.395313 0.173013
O O9 0.236024 0.213931 0.127050
O O10 0.147366 0.296669 0.264840
O O11 0.311671 0.067263 0.188226
O O12 0.845277 0.890352 0.942794
O O13 0.890983 0.970776 0.038527
O O14 0.026972 0.897823 0.905453
#
# Coordination Sequence:
#
# PCOD9267183 Si02
#       7
#     8   8   8   8   8   8   8
#     4  11  20  41  72 106 130 181 225 286 337 419
#     4  10  20  40  73  97 137 179 225 278 336 421
#     4  11  25  43  68  95 138 188 229 288 337 413
#     4  10  19  38  70 104 137 171 218 276 345 409
#     4  10  19  38  67 100 138 178 213 276 342 404
#     4  11  22  41  72 105 134 176 236 282 338 404
#     4  11  24  44  68  95 141 184 236 276 353 410
#
# _framework density 24.494059
#
# number of rings (size 3 to 8) (size 9 to 14) (size 15 to 20)
#    0.000    1.429    4.286    2.143    0.000    1.143 
#    0.000    2.857   15.714    0.000    0.000    0.000 
#    0.000    0.000    0.000    0.000    0.000    0.000 
#
# Total GULP energy -156637.208559 kJ/mol
# GULP energy per Si atom -5594.186020 kJ/mol
# Density = 2.443831 g / cm^3
# Si number density = 24.494059 Si / 1000 Ang^3
#
#
#
# Elastic Constant Matrix: (Units=GPa)
#
#
# Indices 1 2 3 4 5 6 
#
# 1 129.3534 31.9903 47.9383 0.0001 -15.8119 0.0011
# 2 31.9903 57.2325 16.8104 0.0002 -7.3232 0.0020
# 3 47.9383 16.8104 99.0454 0.0000 -5.7209 0.0000
# 4 0.0001 0.0002 0.0000 36.3094 0.0000 8.6155
# 5 -15.8119 -7.3232 -5.7209 0.0000 21.4795 0.0002
# 6 0.0011 0.0020 0.0000 8.6155 0.0002 25.8474
#
#
#
# Elastic Compliance Matrix: (Units=1/GPa)
#
#
# Indices 1 2 3 4 5 6 
#
# 1 0.011046 -0.004197 -0.004313 0.000000 0.005552 0.000000
# 2 -0.004197 0.020653 -0.001265 0.000000 0.003615 -0.000002
# 3 -0.004313 -0.001265 0.012381 0.000000 -0.000309 0.000000
# 4 0.000000 0.000000 0.000000 0.029906 0.000000 -0.009969
# 5 0.005552 0.003615 -0.000309 0.000000 0.051793 -0.000001
# 6 0.000000 -0.000002 0.000000 -0.009969 -0.000001 0.042011
#
#
# Mechanical properties :
#
#
# Convention : Reuss Voigt Hill
#
# Bulk Modulus (GPa) = 40.76849 53.23439 47.00144
# Shear Modulus (GPa) = 25.57327 29.32008 27.44668
#
# Velocity S-wave (km/s) = 3.23470 3.46356 3.35108
# Velocity P-wave (km/s) = 5.53456 6.14620 5.84838
#
# Compressibility (1/GPa) = 0.02452875
#
# Stress axis : x y z
#
# Youngs Moduli (GPa) = 90.53240 48.42016 80.76974
#
# Poissons Ratio (x) = 0.20321 0.34838
# Poissons Ratio (y) = 0.37995 0.10219
# Poissons Ratio (z) = 0.39049 0.06126
#
# Static dielectric constant tensor:
#      x y z
#    x 1.918130 0.000000 0.004470 
#    y 0.000000 1.991200 0.000000 
#    z 0.004470 0.000000 1.951490 
# 
# From -- ./inp_files/273050.got.cif
#   From: 2010.05.17/outbox.cif.g08.bks.cpg/sg15_137_cif.got.tgz:273050.got - 2010.06.03 18:47:42.
