data_PCOD9267125
_publ_section_title
;
Structure prediction by ZEFSAII (Michael W. Deem and Ramdas Pophale) SiO2 
 PCOD9267125
Probable space group: C 2/C
;
_chemical_formula_sum "Si O2"
_cell_formula_units_Z 44
_cell_length_a 5.088206
_cell_length_b 24.602874
_cell_length_c 15.152361
_cell_angle_alpha 90.000000
_cell_angle_beta 102.153537
_cell_angle_gamma 90.000000
_cell_volume 1854.326604
_symmetry_space_group_name_H-M "C 2/C"
_symmetry_group_IT_number 15
_symmetry_cell_setting 'monoclinic'
loop_
_space_group_symop_operation_xyz
x,y,z
-x,y,1/2-z
-x,-y,-z
x,-y,1/2+z
1/2+x,1/2+y,z
1/2-x,1/2+y,1/2-z
1/2-x,1/2-y,-z
1/2+x,1/2-y,1/2+z
loop_
_atom_site_type_symbol
_atom_site_label
_atom_site_fract_x
_atom_site_fract_y
_atom_site_fract_z
Si Si1 0.204949 0.667399 0.847978
Si Si2 0.536401 0.065413 0.601471
Si Si3 0.500000 0.410698 0.250000
Si Si4 0.698334 0.402892 0.848180
Si Si5 0.742108 0.040661 0.422625
Si Si6 0.711309 0.216001 0.183537
O O1 0.439271 0.629926 0.826205
O O2 0.305953 0.728106 0.873173
O O3 0.000000 0.671333 0.750000
O O4 0.060947 0.627946 0.906816
O O5 0.741516 0.057533 0.697745
O O6 0.683276 0.050951 0.521325
O O7 0.290095 0.023549 0.596082
O O8 0.500000 0.404382 0.750000
O O9 0.514507 0.431488 0.909226
O O10 0.785992 0.340256 0.869378
O O11 0.979469 0.433595 0.857042
O O12 0.500000 0.215668 0.250000
O O13 0.000000 0.216812 0.250000
#
# Coordination Sequence:
#
# PCOD9267125 Si02
#       6
#     8   8   4   8   8   8
#     4   9  19  36  62  98 125 170 219 276 320 389
#     4  10  25  41  65  95 136 175 218 277 334 389
#     4  10  20  38  68  98 126 170 230 264 326 402
#     4  11  24  42  68  94 127 179 225 267 324 405
#     4  11  26  44  64  95 138 175 217 276 335 385
#     4  10  19  38  65  95 131 167 220 274 329 382
#
# _framework density 23.728290000000001
#
# number of rings (size 3 to 8) (size 9 to 14) (size 15 to 20)
#    0.000    1.818    0.909    2.727    6.364    4.364 
#    0.000    1.818    0.000    0.000    0.000    0.000 
#    0.000    0.000    0.000    0.000    0.000    0.000 
#
# Total GULP energy -122967.863101 kJ/mol
# GULP energy per Si atom -5589.448323 kJ/mol
# Density = 2.367428 g / cm^3
# Si number density = 23.728290 Si / 1000 Ang^3
#
#
#
# Elastic Constant Matrix: (Units=GPa)
#
#
# Indices 1 2 3 4 5 6 
#
# 1 124.1561 48.9883 24.7309 0.0000 -18.9466 0.0000
# 2 48.9883 197.0339 49.5027 0.0000 -4.0369 0.0000
# 3 24.7309 49.5027 71.9565 0.0000 -2.9893 0.0000
# 4 0.0000 0.0000 0.0000 -12.0357 0.0000 -52.3678
# 5 -18.9466 -4.0369 -2.9893 0.0000 31.7962 0.0000
# 6 0.0000 0.0000 0.0000 -52.3678 0.0000 -22.4300
#
#
#
# Elastic Compliance Matrix: (Units=1/GPa)
#
#
# Indices 1 2 3 4 5 6 
#
# 1 0.010033 -0.001901 -0.001910 0.000000 0.005557 0.000000
# 2 -0.001901 0.006501 -0.003847 0.000000 -0.000669 0.000000
# 3 -0.001910 -0.003847 0.017200 0.000000 -0.000009 0.000000
# 4 0.000000 0.000000 0.000000 0.009072 0.000000 -0.021181
# 5 0.005557 -0.000669 -0.000009 0.000000 0.034676 0.000000
# 6 0.000000 0.000000 0.000000 -0.021181 0.000000 0.004868
#
#
# Mechanical properties :
#
#
# Convention : Reuss Voigt Hill
#
# Bulk Modulus (GPa) = 54.29235 71.06559 62.67897
# Shear Modulus (GPa) = 48.16827 17.46107 32.81467
#
# Velocity S-wave (km/s) = 4.51043 2.71565 3.72282
# Velocity P-wave (km/s) = 7.07502 6.31251 6.70461
#
# Compressibility (1/GPa) = 0.01841880
#
# Stress axis : x y z
#
# Youngs Moduli (GPa) = 99.67248 153.83256 58.14121
#
# Poissons Ratio (x) = 0.29241 0.11103
# Poissons Ratio (y) = 0.18946 0.22365
# Poissons Ratio (z) = 0.19034 0.59173
#
# Static dielectric constant tensor:
#      x y z
#    x 1.926420 0.000000 -0.005590 
#    y 0.000000 1.975150 0.000000 
#    z -0.005590 0.000000 1.901230 
# 
# From -- ./inp_files/129386.got.cif
#   From: 2010.05.17/outbox.cif.g08.bks.cpg/sg15_65_cif.got.tgz:129386.got - 2010.06.03 18:47:42.
