data_PCOD9267432
_publ_section_title
;
Structure prediction by ZEFSAII (Michael W. Deem and Ramdas Pophale) SiO2 
 PCOD9267432
Probable space group: C 2/C
;
_chemical_formula_sum "Si O2"
_cell_formula_units_Z 60
_cell_length_a 27.487172
_cell_length_b 5.161169
_cell_length_c 19.865203
_cell_angle_alpha 90.000000
_cell_angle_beta 90.316224
_cell_angle_gamma 90.000000
_cell_volume 2818.152775
_symmetry_space_group_name_H-M "C 2/C"
_symmetry_group_IT_number 15
_symmetry_cell_setting 'monoclinic'
loop_
_space_group_symop_operation_xyz
x,y,z
-x,y,1/2-z
-x,-y,-z
x,-y,1/2+z
1/2+x,1/2+y,z
1/2-x,1/2+y,1/2-z
1/2-x,1/2-y,-z
1/2+x,1/2-y,1/2+z
loop_
_atom_site_type_symbol
_atom_site_label
_atom_site_fract_x
_atom_site_fract_y
_atom_site_fract_z
Si Si1 0.706687 0.915361 0.877354
Si Si2 0.134627 0.816751 0.050218
Si Si3 0.855020 0.924805 0.598639
Si Si4 0.583004 0.242794 0.785713
Si Si5 0.691215 0.180599 0.598356
Si Si6 0.670915 0.919590 0.738153
Si Si7 0.414647 0.630702 0.821984
Si Si8 0.000000 0.448530 0.750000
O O1 0.667421 0.710377 0.904294
O O2 0.756504 0.816067 0.910835
O O3 0.688657 0.211961 0.888177
O O4 0.710073 0.869128 0.796109
O O5 0.174312 0.585880 0.061482
O O6 0.089484 0.785141 0.100907
O O7 0.155079 0.094982 0.074299
O O8 0.122932 0.838006 0.971951
O O9 0.895626 0.930197 0.657593
O O10 0.626994 0.043934 0.780177
O O11 0.577414 0.348932 0.709452
O O12 0.531378 0.120967 0.801772
O O13 0.687505 0.098670 0.676972
O O14 0.641077 0.686450 0.704184
O O15 0.458325 0.784250 0.786417
#
# Coordination Sequence:
#
# PCOD9267432 Si02
#       8
#     8   8   8   8   8   8   8   4
#     4  11  23  38  61  91 128 170 216 267 305 358
#     4  11  24  41  62  90 128 173 210 251 314 378
#     4  11  24  41  62  90 128 173 210 251 314 378
#     4  10  19  39  63  88 120 158 200 259 313 380
#     4  11  23  38  61  91 128 170 216 267 305 358
#     4   9  20  35  58  88 120 160 212 255 316 357
#     4  10  19  39  63  88 120 158 200 259 313 380
#     4  10  22  36  66  98 116 148 210 262 322 374
#
# _framework density 21.290541999999999
#
# number of rings (size 3 to 8) (size 9 to 14) (size 15 to 20)
#    0.000    1.600    2.667    2.000    0.000    7.467 
#    0.000    0.667    0.000    3.200    0.000    0.000 
#    0.000    0.000    0.000    0.000    0.000    0.000 
#
# Total GULP energy -167074.415458 kJ/mol
# GULP energy per Si atom -5569.147182 kJ/mol
# Density = 2.124208 g / cm^3
# Si number density = 21.290542 Si / 1000 Ang^3
#
#
#
# Elastic Constant Matrix: (Units=GPa)
#
#
# Indices 1 2 3 4 5 6 
#
# 1 50.2545 1.1068 5.6122 0.0000 7.3395 0.0000
# 2 1.1068 73.9815 -10.4743 0.0000 1.2004 0.0000
# 3 5.6122 -10.4743 66.6267 0.0000 -14.2237 0.0000
# 4 0.0000 0.0000 0.0000 23.4074 0.0000 2.2516
# 5 7.3395 1.2004 -14.2237 0.0000 11.8395 0.0000
# 6 0.0000 0.0000 0.0000 2.2516 0.0000 19.4694
#
#
#
# Elastic Compliance Matrix: (Units=1/GPa)
#
#
# Indices 1 2 3 4 5 6 
#
# 1 0.024168 -0.001002 -0.007222 0.000000 -0.023558 0.000000
# 2 -0.001002 0.013889 0.002824 0.000000 0.002606 0.000000
# 3 -0.007222 0.002824 0.022805 0.000000 0.031589 0.000000
# 4 0.000000 0.000000 0.000000 0.043202 0.000000 -0.004996
# 5 -0.023558 0.002606 0.031589 0.000000 0.136753 0.000000
# 6 0.000000 0.000000 0.000000 -0.004996 0.000000 0.051940
#
#
# Mechanical properties :
#
#
# Convention : Reuss Voigt Hill
#
# Bulk Modulus (GPa) = 19.97514 20.37248 20.17381
# Shear Modulus (GPa) = 15.61303 23.91778 19.76540
#
# Velocity S-wave (km/s) = 2.71095 3.35535 3.05021
# Velocity P-wave (km/s) = 4.38195 4.95991 4.67986
#
# Compressibility (1/GPa) = 0.05006222
#
# Stress axis : x y z
#
# Youngs Moduli (GPa) = 41.37721 71.99704 43.85004
#
# Poissons Ratio (x) = 0.07213 0.31670
# Poissons Ratio (y) = 0.04146 -0.12384
# Poissons Ratio (z) = 0.29884 -0.20334
#
# Static dielectric constant tensor:
#      x y z
#    x 1.784360 0.000000 -0.000830 
#    y 0.000000 1.839050 0.000000 
#    z -0.000830 0.000000 1.885260 
# 
# From -- ./inp_files/256575.got.cif
#   From: 2010.05.17/outbox.cif.g08.bks.cpg/sg15_129_cif.got.tgz:256575.got - 2010.06.03 18:47:42.
