data_PCOD9267845
_publ_section_title
;
Structure prediction by ZEFSAII (Michael W. Deem and Ramdas Pophale) SiO2 
 PCOD9267845
Probable space group: C 2/C
;
_chemical_formula_sum "Si O2"
_cell_formula_units_Z 60
_cell_length_a 17.700527
_cell_length_b 9.192815
_cell_length_c 19.169250
_cell_angle_alpha 90.000000
_cell_angle_beta 113.605483
_cell_angle_gamma 90.000000
_cell_volume 2858.176842
_symmetry_space_group_name_H-M "C 2/C"
_symmetry_group_IT_number 15
_symmetry_cell_setting 'monoclinic'
loop_
_space_group_symop_operation_xyz
x,y,z
-x,y,1/2-z
-x,-y,-z
x,-y,1/2+z
1/2+x,1/2+y,z
1/2-x,1/2+y,1/2-z
1/2-x,1/2-y,-z
1/2+x,1/2-y,1/2+z
loop_
_atom_site_type_symbol
_atom_site_label
_atom_site_fract_x
_atom_site_fract_y
_atom_site_fract_z
Si Si1 0.500000 0.900716 0.750000
Si Si2 0.081258 0.147267 0.406797
Si Si3 0.529775 0.337174 0.371693
Si Si4 0.659055 0.374684 0.201196
Si Si5 0.631707 0.133018 0.811662
Si Si6 0.300143 0.289487 0.799945
Si Si7 0.425277 0.328840 0.954363
Si Si8 0.809064 0.112483 0.932496
O O1 0.463719 0.799413 0.675934
O O2 0.575827 0.005699 0.760189
O O3 0.079693 0.263873 0.344603
O O4 0.161672 0.177840 0.483991
O O5 0.002225 0.152974 0.429876
O O6 0.084287 0.981474 0.379456
O O7 0.436802 0.390602 0.321940
O O8 0.543085 0.289146 0.457171
O O9 0.698318 0.535651 0.208329
O O10 0.709654 0.277991 0.273502
O O11 0.667852 0.297683 0.128485
O O12 0.663283 0.225768 0.757929
O O13 0.712613 0.080018 0.885264
O O14 0.358061 0.240091 0.885393
O O15 0.372097 0.475679 0.948632
#
# Coordination Sequence:
#
# PCOD9267845 Si02
#       8
#     4   8   8   8   8   8   8   8
#     4  12  30  40  58  88 140 170 198 268 318 382
#     4  11  19  40  70  94 118 166 223 259 318 394
#     4  11  23  41  65  91 122 167 216 257 314 383
#     4  10  20  38  64  93 122 161 210 259 310 372
#     4  11  25  42  59  94 135 170 205 264 334 371
#     4  10  22  38  66  93 125 159 210 262 313 380
#     4  10  19  40  67  94 120 167 217 263 312 384
#     4   9  18  38  64  95 120 156 208 272 315 374
#
# _framework density 20.992404000000001
#
# number of rings (size 3 to 8) (size 9 to 14) (size 15 to 20)
#    0.000    1.600    4.000    2.000    7.467    0.000 
#    0.000    9.333    0.000    0.000    0.000    0.000 
#    0.000    0.000    0.000    0.000    0.000    0.000 
#
# Total GULP energy -167164.962280 kJ/mol
# GULP energy per Si atom -5572.165409 kJ/mol
# Density = 2.094462 g / cm^3
# Si number density = 20.992404 Si / 1000 Ang^3
#
#
#
# Elastic Constant Matrix: (Units=GPa)
#
#
# Indices 1 2 3 4 5 6 
#
# 1 51.5669 21.2613 25.3473 0.0000 7.9474 0.0000
# 2 21.2613 58.2257 36.9317 0.0000 -4.8194 0.0000
# 3 25.3473 36.9317 133.4782 0.0000 14.6119 0.0000
# 4 0.0000 0.0000 0.0000 26.4084 0.0000 5.8370
# 5 7.9474 -4.8194 14.6119 0.0000 39.0472 0.0000
# 6 0.0000 0.0000 0.0000 5.8370 0.0000 28.1016
#
#
#
# Elastic Compliance Matrix: (Units=1/GPa)
#
#
# Indices 1 2 3 4 5 6 
#
# 1 0.024495 -0.008255 -0.001783 0.000000 -0.005337 0.000000
# 2 -0.008255 0.024564 -0.005990 0.000000 0.006954 0.000000
# 3 -0.001783 -0.005990 0.009936 0.000000 -0.004095 0.000000
# 4 0.000000 0.000000 0.000000 0.039689 0.000000 -0.008244
# 5 -0.005337 0.006954 -0.004095 0.000000 0.029087 0.000000
# 6 0.000000 0.000000 0.000000 -0.008244 0.000000 0.037297
#
#
# Mechanical properties :
#
#
# Convention : Reuss Voigt Hill
#
# Bulk Modulus (GPa) = 37.12209 45.59460 41.35834
# Shear Modulus (GPa) = 24.25956 29.36014 26.80985
#
# Velocity S-wave (km/s) = 3.40315 3.74385 3.57756
# Velocity P-wave (km/s) = 5.75881 6.36045 6.06709
#
# Compressibility (1/GPa) = 0.02693814
#
# Stress axis : x y z
#
# Youngs Moduli (GPa) = 40.82467 40.71012 100.64305
#
# Poissons Ratio (x) = 0.33607 0.17947
# Poissons Ratio (y) = 0.33701 0.60286
# Poissons Ratio (z) = 0.07280 0.24386
#
# Static dielectric constant tensor:
#      x y z
#    x 1.809420 0.000000 0.003570 
#    y 0.000000 1.775300 0.000000 
#    z 0.003570 0.000000 1.842250 
# 
# From -- ./inp_files/247839.got.cif
#   From: 2010.05.17/outbox.cif.g08.bks.cpg/sg15_124_cif.got.tgz:247839.got - 2010.06.03 18:47:42.
