data_PCOD9267672
_publ_section_title
;
Structure prediction by ZEFSAII (Michael W. Deem and Ramdas Pophale) SiO2 
 PCOD9267672
Probable space group: C 2/C
;
_chemical_formula_sum "Si O2"
_cell_formula_units_Z 64
_cell_length_a 18.249959
_cell_length_b 19.194413
_cell_length_c 14.718486
_cell_angle_alpha 90.000000
_cell_angle_beta 148.843589
_cell_angle_gamma 90.000000
_cell_volume 2667.511185
_symmetry_space_group_name_H-M "C 2/C"
_symmetry_group_IT_number 15
_symmetry_cell_setting 'monoclinic'
loop_
_space_group_symop_operation_xyz
x,y,z
-x,y,1/2-z
-x,-y,-z
x,-y,1/2+z
1/2+x,1/2+y,z
1/2-x,1/2+y,1/2-z
1/2-x,1/2-y,-z
1/2+x,1/2-y,1/2+z
loop_
_atom_site_type_symbol
_atom_site_label
_atom_site_fract_x
_atom_site_fract_y
_atom_site_fract_z
Si Si1 0.149856 0.577330 0.000019
Si Si2 0.534135 0.765069 0.386109
Si Si3 0.390268 0.220608 0.200711
Si Si4 0.649180 0.286482 0.568783
Si Si5 0.222647 0.322470 0.275373
Si Si6 0.425687 0.588923 0.391986
Si Si7 0.842216 0.539097 0.699636
Si Si8 0.940895 0.986832 0.087381
O O1 0.274705 0.558559 0.200124
O O2 0.112381 0.659582 0.965569
O O3 0.190341 0.565866 0.937727
O O4 0.010727 0.532538 0.876671
O O5 0.500000 0.737967 0.250000
O O6 0.627216 0.710334 0.539818
O O7 0.385721 0.785317 0.271539
O O8 0.500000 0.179987 0.250000
O O9 0.502812 0.278899 0.356356
O O10 0.299243 0.186869 0.185908
O O11 0.250000 0.250000 0.000000
O O12 0.682136 0.207188 0.634234
O O13 0.613454 0.334178 0.616603
O O14 0.194966 0.402803 0.264592
O O15 0.518314 0.564846 0.403557
O O16 0.491745 0.558151 0.555220
O O17 0.728769 0.478541 0.591431
O O18 0.000000 0.971783 0.250000
#
# Coordination Sequence:
#
# PCOD9267672 Si02
#       8
#     8   8   8   8   8   8   8   8
#     4  10  19  40  59  88 125 170 202 259 320 373
#     4  11  20  31  48  85 127 170 201 229 297 383
#     4   9  21  41  63  86 121 168 212 263 330 379
#     4  11  22  38  64  96 128 162 211 270 321 389
#     4  11  22  31  54  93 127 162 200 247 310 383
#     4  11  25  42  68  93 128 167 219 275 322 374
#     4  10  22  37  63  87 131 169 207 256 317 392
#     4  11  25  45  66  94 123 171 222 271 321 382
#
# _framework density 23.992401000000001
#
# number of rings (size 3 to 8) (size 9 to 14) (size 15 to 20)
#    0.000    1.500    5.000    1.125    5.250    2.500 
#    0.000    0.000    2.750    0.000    0.000    0.000 
#    0.000    0.000    0.000    0.000    0.000    0.000 
#
# Total GULP energy -178299.189877 kJ/mol
# GULP energy per Si atom -5571.849684 kJ/mol
# Density = 2.393779 g / cm^3
# Si number density = 23.992401 Si / 1000 Ang^3
#
#
#
# Elastic Constant Matrix: (Units=GPa)
#
#
# Indices 1 2 3 4 5 6 
#
# 1 86.2408 8.8244 35.5630 0.0000 5.9562 0.0000
# 2 8.8244 20.1427 1.8301 0.0000 3.2246 0.0000
# 3 35.5630 1.8301 141.7118 0.0000 -1.9212 0.0000
# 4 0.0000 0.0000 0.0000 10.1381 0.0000 2.0408
# 5 5.9562 3.2246 -1.9212 0.0000 43.6626 0.0000
# 6 0.0000 0.0000 0.0000 2.0408 0.0000 -4.8124
#
#
#
# Elastic Compliance Matrix: (Units=1/GPa)
#
#
# Indices 1 2 3 4 5 6 
#
# 1 0.013654 -0.005417 -0.003378 0.000000 -0.001611 0.000000
# 2 -0.005417 0.052458 0.000640 0.000000 -0.003107 0.000000
# 3 -0.003378 0.000640 0.007906 0.000000 0.000761 0.000000
# 4 0.000000 0.000000 0.000000 0.090880 0.000000 0.038539
# 5 -0.001611 -0.003107 0.000761 0.000000 0.023386 0.000000
# 6 0.000000 0.000000 0.000000 0.038539 0.000000 -0.191454
#
#
# Mechanical properties :
#
#
# Convention : Reuss Voigt Hill
#
# Bulk Modulus (GPa) = 17.32872 37.83670 27.58271
# Shear Modulus (GPa) = 154.42883 23.25619 88.84251
#
# Velocity S-wave (km/s) = 8.03153 3.11676 6.09178
# Velocity P-wave (km/s) = 9.65637 5.36253 7.81032
#
# Compressibility (1/GPa) = 0.05770765
#
# Stress axis : x y z
#
# Youngs Moduli (GPa) = 73.23786 19.06283 126.47882
#
# Poissons Ratio (x) = 0.10326 0.42730
# Poissons Ratio (y) = 0.39672 -0.08092
# Poissons Ratio (z) = 0.24743 -0.01220
#
# Static dielectric constant tensor:
#      x y z
#    x 2.058190 0.000000 -0.013960 
#    y 0.000000 1.987790 0.000000 
#    z -0.013960 0.000000 1.946400 
# 
# From -- ./inp_files/164267.got.cif
#   From: 2010.05.17/outbox.cif.g08.bks.cpg/sg15_83_cif.got.tgz:164267.got - 2010.06.03 18:47:42.
