data_PCOD9267059
_publ_section_title
;
Structure prediction by ZEFSAII (Michael W. Deem and Ramdas Pophale) SiO2 
 PCOD9267059
Probable space group: C 2/C
;
_chemical_formula_sum "Si O2"
_cell_formula_units_Z 60
_cell_length_a 33.353415
_cell_length_b 5.707862
_cell_length_c 14.929818
_cell_angle_alpha 90.000000
_cell_angle_beta 77.071218
_cell_angle_gamma 90.000000
_cell_volume 2770.234240
_symmetry_space_group_name_H-M "C 2/C"
_symmetry_group_IT_number 15
_symmetry_cell_setting 'monoclinic'
loop_
_space_group_symop_operation_xyz
x,y,z
-x,y,1/2-z
-x,-y,-z
x,-y,1/2+z
1/2+x,1/2+y,z
1/2-x,1/2+y,1/2-z
1/2-x,1/2-y,-z
1/2+x,1/2-y,1/2+z
loop_
_atom_site_type_symbol
_atom_site_label
_atom_site_fract_x
_atom_site_fract_y
_atom_site_fract_z
Si Si1 0.436011 0.403640 0.889329
Si Si2 0.500000 0.674779 0.750000
Si Si3 0.262201 0.590717 0.285458
Si Si4 0.214340 0.370828 0.461849
Si Si5 0.492255 0.052493 0.606877
Si Si6 0.863740 0.372312 0.491753
Si Si7 0.582593 0.264863 0.935798
Si Si8 0.165478 0.009103 0.356583
O O1 0.457637 0.546935 0.799432
O O2 0.468615 0.194925 0.880257
O O3 0.389842 0.298451 0.913996
O O4 0.436364 0.561143 0.979959
O O5 0.488373 0.829169 0.670293
O O6 0.242647 0.365609 0.239427
O O7 0.239730 0.558618 0.390555
O O8 0.309549 0.514984 0.248281
O O9 0.250000 0.250000 0.500000
O O10 0.175204 0.490397 0.530012
O O11 0.192671 0.176388 0.408540
O O12 0.450418 0.196445 0.621718
O O13 0.500000 0.000000 0.500000
O O14 0.897156 0.549251 0.518637
O O15 0.843599 0.228855 0.584801
O O16 0.620942 0.382197 0.868636
#
# Coordination Sequence:
#
# PCOD9267059 Si02
#       8
#     8   4   8   8   8   8   8   8
#     4  11  22  40  69  94 132 178 232 288 343 419
#     4  12  26  38  66 104 136 180 242 288 348 430
#     4  10  19  38  64  93 125 172 225 280 337 419
#     4  10  21  37  65  94 128 173 224 273 345 421
#     4  12  23  43  69  97 131 183 233 283 348 422
#     4  10  19  39  64  93 127 171 223 274 346 415
#     4  10  21  38  71  93 123 176 227 275 347 415
#     4   9  20  36  65  90 126 169 215 278 341 413
#
# _framework density 21.658818
#
# number of rings (size 3 to 8) (size 9 to 14) (size 15 to 20)
#    0.000    1.600    4.000    0.800    0.000    0.533 
#    0.000    0.000   38.133    0.000    0.000    0.000 
#    0.000    0.000    0.000    0.000    0.000    0.000 
#
# Total GULP energy -167201.446844 kJ/mol
# GULP energy per Si atom -5573.381561 kJ/mol
# Density = 2.160952 g / cm^3
# Si number density = 21.658818 Si / 1000 Ang^3
#
#
#
# Elastic Constant Matrix: (Units=GPa)
#
#
# Indices 1 2 3 4 5 6 
#
# 1 126.6983 23.9981 41.0713 0.0000 -33.6805 0.0000
# 2 23.9981 62.4155 25.3178 0.0000 -16.4765 0.0000
# 3 41.0713 25.3178 73.4623 0.0000 -28.5103 0.0000
# 4 0.0000 0.0000 0.0000 32.5743 0.0000 -22.2592
# 5 -33.6805 -16.4765 -28.5103 0.0000 34.1688 0.0000
# 6 0.0000 0.0000 0.0000 -22.2592 0.0000 19.3027
#
#
#
# Elastic Compliance Matrix: (Units=1/GPa)
#
#
# Indices 1 2 3 4 5 6 
#
# 1 0.011151 -0.001020 -0.002674 0.000000 0.008269 0.000000
# 2 -0.001020 0.019407 -0.004254 0.000000 0.004803 0.000000
# 3 -0.002674 -0.004254 0.021820 0.000000 0.013520 0.000000
# 4 0.000000 0.000000 0.000000 0.144803 0.000000 0.166981
# 5 0.008269 0.004803 0.013520 0.000000 0.051014 0.000000
# 6 0.000000 0.000000 0.000000 0.166981 0.000000 0.244362
#
#
# Mechanical properties :
#
#
# Convention : Reuss Voigt Hill
#
# Bulk Modulus (GPa) = 27.40986 49.26115 38.33551
# Shear Modulus (GPa) = 9.60403 28.68842 19.14623
#
# Velocity S-wave (km/s) = 2.10805 3.64340 2.97643
# Velocity P-wave (km/s) = 4.31369 6.36339 5.43602
#
# Compressibility (1/GPa) = 0.03648322
#
# Stress axis : x y z
#
# Youngs Moduli (GPa) = 89.68013 51.52660 45.82878
#
# Poissons Ratio (x) = 0.05256 0.12253
# Poissons Ratio (y) = 0.09148 0.19496
# Poissons Ratio (z) = 0.23977 0.21919
#
# Static dielectric constant tensor:
#      x y z
#    x 1.804110 0.000000 -0.036060 
#    y 0.000000 1.888870 0.000000 
#    z -0.036060 0.000000 1.770200 
# 
# From -- ./inp_files/223636.got.cif
#   From: 2010.05.17/outbox.cif.g08.bks.cpg/sg15_112_cif.got.tgz:223636.got - 2010.06.03 18:47:42.
