data_PCOD9267458
_publ_section_title
;
Structure prediction by ZEFSAII (Michael W. Deem and Ramdas Pophale) SiO2 
 PCOD9267458
Probable space group: C 2/C
;
_chemical_formula_sum "Si O2"
_cell_formula_units_Z 56
_cell_length_a 22.718499
_cell_length_b 13.236276
_cell_length_c 14.214127
_cell_angle_alpha 90.000000
_cell_angle_beta 31.175313
_cell_angle_gamma 90.000000
_cell_volume 2212.630604
_symmetry_space_group_name_H-M "C 2/C"
_symmetry_group_IT_number 15
_symmetry_cell_setting 'monoclinic'
loop_
_space_group_symop_operation_xyz
x,y,z
-x,y,1/2-z
-x,-y,-z
x,-y,1/2+z
1/2+x,1/2+y,z
1/2-x,1/2+y,1/2-z
1/2-x,1/2-y,-z
1/2+x,1/2-y,1/2+z
loop_
_atom_site_type_symbol
_atom_site_label
_atom_site_fract_x
_atom_site_fract_y
_atom_site_fract_z
Si Si1 0.148951 0.619849 0.127868
Si Si2 0.900733 0.844417 0.810479
Si Si3 0.665960 0.848163 0.221205
Si Si4 0.411101 0.350949 0.298424
Si Si5 0.193646 0.545280 0.872807
Si Si6 0.579293 0.133542 0.435351
Si Si7 0.937168 0.129734 0.555128
O O1 0.119174 0.734105 0.136706
O O2 0.089790 0.611674 0.309819
O O3 0.283676 0.606221 0.965657
O O4 0.130715 0.556143 0.058412
O O5 0.852303 0.760803 0.802526
O O6 0.000000 0.812074 0.750000
O O7 0.970521 0.913315 0.642817
O O8 0.789385 0.883164 0.016631
O O9 0.663767 0.868243 0.336015
O O10 0.545745 0.897238 0.356349
O O11 0.500000 0.394844 0.250000
O O12 0.472195 0.354517 0.114170
O O13 0.168790 0.436546 0.864048
O O14 0.326152 0.562798 0.705981
O O15 0.594673 0.253595 0.430601
#
# Coordination Sequence:
#
# PCOD9267458 Si02
#       7
#     8   8   8   8   8   8   8
#     4   9  21  37  60 100 129 176 228 286 349 412
#     4  10  19  39  63  94 143 183 227 282 338 421
#     4  10  22  37  61 100 134 184 230 269 342 416
#     4   9  18  36  67  97 126 168 233 286 344 411
#     4  11  21  40  69  96 144 182 232 293 352 410
#     4  10  22  42  61 102 146 172 238 291 343 422
#     4   9  20  39  67 105 136 186 234 281 354 422
#
# _framework density 25.309239000000002
#
# number of rings (size 3 to 8) (size 9 to 14) (size 15 to 20)
#    0.000    2.286    1.429    1.286    6.000    0.000 
#    5.143    0.000    3.143    1.714    0.000    0.000 
#    0.000    0.143    0.000    0.000    0.000    0.000 
#
# Total GULP energy -156342.541704 kJ/mol
# GULP energy per Si atom -5583.662204 kJ/mol
# Density = 2.525163 g / cm^3
# Si number density = 25.309239 Si / 1000 Ang^3
#
#
#
# Elastic Constant Matrix: (Units=GPa)
#
#
# Indices 1 2 3 4 5 6 
#
# 1 130.2735 37.3676 55.3088 0.0000 7.7997 0.0000
# 2 37.3676 99.3797 18.4102 0.0000 3.4845 0.0000
# 3 55.3088 18.4102 203.2028 0.0000 8.0369 0.0000
# 4 0.0000 0.0000 0.0000 2.8309 0.0000 -12.5342
# 5 7.7997 3.4845 8.0369 0.0000 41.8663 0.0000
# 6 0.0000 0.0000 0.0000 -12.5342 0.0000 30.2893
#
#
#
# Elastic Compliance Matrix: (Units=1/GPa)
#
#
# Indices 1 2 3 4 5 6 
#
# 1 0.009618 -0.003154 -0.002289 0.000000 -0.001090 0.000000
# 2 -0.003154 0.011288 -0.000151 0.000000 -0.000323 0.000000
# 3 -0.002289 -0.000151 0.005583 0.000000 -0.000633 0.000000
# 4 0.000000 0.000000 0.000000 -0.424462 0.000000 -0.175649
# 5 -0.001090 -0.000323 -0.000633 0.000000 0.024237 0.000000
# 6 0.000000 0.000000 0.000000 -0.175649 0.000000 -0.039671
#
#
# Mechanical properties :
#
#
# Convention : Reuss Voigt Hill
#
# Bulk Modulus (GPa) = 65.36122 72.78100 69.07111
# Shear Modulus (GPa) = -12.59070 36.44861 11.92895
#
# Velocity S-wave (km/s) = -2.23283 3.79902 2.17336
# Velocity P-wave (km/s) = 4.38563 6.93272 5.80070
#
# Compressibility (1/GPa) = 0.01529959
#
# Stress axis : x y z
#
# Youngs Moduli (GPa) = 103.97200 88.59138 179.11642
#
# Poissons Ratio (x) = 0.27943 0.41000
# Poissons Ratio (y) = 0.32795 0.02712
# Poissons Ratio (z) = 0.23799 0.01341
#
# Static dielectric constant tensor:
#      x y z
#    x 1.978470 0.000000 -0.007420 
#    y 0.000000 2.048810 0.000000 
#    z -0.007420 0.000000 2.014610 
# 
# From -- ./inp_files/169110.got.cif
#   From: 2010.05.17/outbox.cif.g08.bks.cpg/sg15_85_cif.got.tgz:169110.got - 2010.06.03 18:47:42.
