data_PCOD9267095
_publ_section_title
;
Structure prediction by ZEFSAII (Michael W. Deem and Ramdas Pophale) SiO2 
 PCOD9267095
Probable space group: C 2/C
;
_chemical_formula_sum "Si O2"
_cell_formula_units_Z 64
_cell_length_a 12.959991
_cell_length_b 16.242430
_cell_length_c 14.564830
_cell_angle_alpha 90.000000
_cell_angle_beta 120.725320
_cell_angle_gamma 90.000000
_cell_volume 2635.548145
_symmetry_space_group_name_H-M "C 2/C"
_symmetry_group_IT_number 15
_symmetry_cell_setting 'monoclinic'
loop_
_space_group_symop_operation_xyz
x,y,z
-x,y,1/2-z
-x,-y,-z
x,-y,1/2+z
1/2+x,1/2+y,z
1/2-x,1/2+y,1/2-z
1/2-x,1/2-y,-z
1/2+x,1/2-y,1/2+z
loop_
_atom_site_type_symbol
_atom_site_label
_atom_site_fract_x
_atom_site_fract_y
_atom_site_fract_z
Si Si1 0.024274 0.379855 0.619460
Si Si2 0.857068 0.764710 0.416620
Si Si3 0.988679 0.914648 0.940971
Si Si4 0.311698 0.516448 0.082346
Si Si5 0.671615 0.144632 0.724920
Si Si6 0.269382 0.839236 0.464034
Si Si7 0.253410 0.035524 0.234627
Si Si8 0.909518 0.386080 0.053651
O O1 0.080168 0.288800 0.635414
O O2 0.112725 0.432298 0.720631
O O3 0.885167 0.373476 0.570754
O O4 0.038204 0.414571 0.521767
O O5 0.947141 0.838511 0.481606
O O6 0.727612 0.790631 0.320679
O O7 0.854299 0.702256 0.500907
O O8 0.068258 0.935386 0.888020
O O9 0.847395 0.908763 0.858046
O O10 0.000000 0.000000 0.000000
O O11 0.321538 0.417416 0.073941
O O12 0.276320 0.537626 0.170220
O O13 0.199880 0.553704 0.972110
O O14 0.698709 0.169045 0.630653
O O15 0.529848 0.126986 0.666030
O O16 0.744444 0.061503 0.782053
O O17 0.250000 0.750000 0.500000
#
# Coordination Sequence:
#
# PCOD9267095 Si02
#       8
#     8   8   8   8   8   8   8   8
#     4   8  19  37  62  91 118 160 218 245 320 382
#     4  10  22  38  62  95 122 168 218 259 321 381
#     4  12  25  39  62  91 134 166 210 270 330 388
#     4  10  22  41  62  94 123 163 219 260 329 385
#     4  10  19  38  65  89 129 169 213 260 328 387
#     4  10  21  37  66  95 128 164 207 271 322 387
#     4  10  20  40  66  89 122 174 216 261 317 397
#     4   8  19  37  64  85 121 164 213 261 302 384
#
# _framework density 24.283372
#
# number of rings (size 3 to 8) (size 9 to 14) (size 15 to 20)
#    0.750    1.500    1.250    1.125    3.500    3.500 
#    0.000    1.250    0.000    0.000    0.000    0.000 
#    0.000    0.000    0.000    0.000    0.000    0.000 
#
# Total GULP energy -178646.472906 kJ/mol
# GULP energy per Si atom -5582.702278 kJ/mol
# Density = 2.422810 g / cm^3
# Si number density = 24.283372 Si / 1000 Ang^3
#
#
#
# Elastic Constant Matrix: (Units=GPa)
#
#
# Indices 1 2 3 4 5 6 
#
# 1 38.7725 7.6509 32.8503 0.0000 -0.4802 0.0000
# 2 7.6509 131.4154 44.4422 0.0000 5.3276 0.0000
# 3 32.8503 44.4422 114.5039 0.0000 19.9386 0.0000
# 4 0.0000 0.0000 0.0000 34.0169 0.0000 19.8460
# 5 -0.4802 5.3276 19.9386 0.0000 45.4266 0.0000
# 6 0.0000 0.0000 0.0000 19.8460 0.0000 -19.5039
#
#
#
# Elastic Compliance Matrix: (Units=1/GPa)
#
#
# Indices 1 2 3 4 5 6 
#
# 1 0.035498 0.001698 -0.011774 0.000000 0.005344 0.000000
# 2 0.001698 0.008851 -0.004055 0.000000 0.000760 0.000000
# 3 -0.011774 -0.004055 0.014751 0.000000 -0.006124 0.000000
# 4 0.000000 0.000000 0.000000 0.018446 0.000000 0.018770
# 5 0.005344 0.000760 -0.006124 0.000000 0.024669 0.000000
# 6 0.000000 0.000000 0.000000 0.018770 0.000000 -0.032173
#
#
# Mechanical properties :
#
#
# Convention : Reuss Voigt Hill
#
# Bulk Modulus (GPa) = 32.42578 50.50872 41.46725
# Shear Modulus (GPa) = 46.04754 25.30447 35.67601
#
# Velocity S-wave (km/s) = 4.35933 3.23158 3.83711
# Velocity P-wave (km/s) = 6.22257 5.89653 6.06174
#
# Compressibility (1/GPa) = 0.03083966
#
# Stress axis : x y z
#
# Youngs Moduli (GPa) = 28.17062 112.98068 67.79085
#
# Poissons Ratio (x) = -0.19188 0.79816
# Poissons Ratio (y) = -0.04784 0.27488
# Poissons Ratio (z) = 0.33168 0.45812
#
# Static dielectric constant tensor:
#      x y z
#    x 2.010030 0.000000 -0.019840 
#    y 0.000000 1.942900 0.000000 
#    z -0.019840 0.000000 1.969570 
# 
# From -- ./inp_files/205759.got.cif
#   From: 2010.05.17/outbox.cif.g08.bks.cpg/sg15_103_cif.got.tgz:205759.got - 2010.06.03 18:47:42.
