data_PCOD9267010
_publ_section_title
;
Structure prediction by ZEFSAII (Michael W. Deem and Ramdas Pophale) SiO2 
 PCOD9267010
Probable space group: C 2/C
;
_chemical_formula_sum "Si O2"
_cell_formula_units_Z 56
_cell_length_a 16.879339
_cell_length_b 9.043369
_cell_length_c 25.784263
_cell_angle_alpha 90.000000
_cell_angle_beta 40.992524
_cell_angle_gamma 90.000000
_cell_volume 2581.773448
_symmetry_space_group_name_H-M "C 2/C"
_symmetry_group_IT_number 15
_symmetry_cell_setting 'monoclinic'
loop_
_space_group_symop_operation_xyz
x,y,z
-x,y,1/2-z
-x,-y,-z
x,-y,1/2+z
1/2+x,1/2+y,z
1/2-x,1/2+y,1/2-z
1/2-x,1/2-y,-z
1/2+x,1/2-y,1/2+z
loop_
_atom_site_type_symbol
_atom_site_label
_atom_site_fract_x
_atom_site_fract_y
_atom_site_fract_z
Si Si1 0.373947 0.015206 0.338876
Si Si2 0.685792 0.232411 0.702427
Si Si3 0.014556 0.557325 0.865213
Si Si4 0.375795 0.327817 0.945998
Si Si5 0.385849 0.572623 0.026585
Si Si6 0.060576 0.757587 0.375583
Si Si7 0.536305 0.518476 0.790461
O O1 0.500000 0.066886 0.250000
O O2 0.407271 0.012056 0.382831
O O3 0.353008 0.844416 0.331960
O O4 0.249570 0.097444 0.383813
O O5 0.823723 0.199383 0.647470
O O6 0.646916 0.402425 0.727855
O O7 0.609589 0.135050 0.780553
O O8 0.072256 0.416704 0.862530
O O9 0.963600 0.695703 0.922017
O O10 0.360063 0.450010 0.996550
O O11 0.434683 0.413079 0.867804
O O12 0.250000 0.250000 0.000000
O O13 0.440740 0.709742 0.967997
O O14 0.500000 0.500000 0.000000
O O15 0.059114 0.852197 0.322175
O O16 0.500000 0.567662 0.750000
#
# Coordination Sequence:
#
# PCOD9267010 Si02
#       7
#     8   8   8   8   8   8   8
#     4  10  20  37  65  88 119 166 213 245 304 384
#     4  10  19  38  64  86 121 164 212 249 303 382
#     4  10  21  38  63  91 121 167 212 255 310 377
#     4  10  20  39  63  88 119 170 213 250 304 386
#     4  11  22  39  64  92 126 162 208 265 315 367
#     4  11  23  38  62  93 129 158 202 269 322 356
#     4  10  22  37  60  91 121 159 208 259 310 371
#
# _framework density 21.690515000000001
#
# number of rings (size 3 to 8) (size 9 to 14) (size 15 to 20)
#    0.000    1.714    2.857    3.000    0.000    2.286 
#    0.000    0.714    3.143    0.000    0.000    0.000 
#    0.000    0.000    0.000    0.000    0.000    0.000 
#
# Total GULP energy -156041.565397 kJ/mol
# GULP energy per Si atom -5572.913050 kJ/mol
# Density = 2.164115 g / cm^3
# Si number density = 21.690515 Si / 1000 Ang^3
#
#
#
# Elastic Constant Matrix: (Units=GPa)
#
#
# Indices 1 2 3 4 5 6 
#
# 1 63.8129 -12.3907 24.0498 0.0000 -20.3294 0.0001
# 2 -12.3907 51.6025 -0.3444 0.0000 2.0587 0.0002
# 3 24.0498 -0.3444 82.3259 0.0000 -22.5424 0.0000
# 4 0.0000 0.0000 0.0000 14.7378 0.0000 -6.7462
# 5 -20.3294 2.0587 -22.5424 0.0000 32.4573 0.0000
# 6 0.0001 0.0002 0.0000 -6.7462 0.0000 16.0835
#
#
#
# Elastic Compliance Matrix: (Units=1/GPa)
#
#
# Indices 1 2 3 4 5 6 
#
# 1 0.021216 0.004644 -0.003236 0.000000 0.010746 0.000000
# 2 0.004644 0.020451 -0.001025 0.000000 0.000900 0.000000
# 3 -0.003236 -0.001025 0.015498 0.000000 0.008802 0.000000
# 4 0.000000 0.000000 0.000000 0.083976 0.000000 0.035223
# 5 0.010746 0.000900 0.008802 0.000000 0.043597 0.000000
# 6 0.000000 0.000000 0.000000 0.035223 0.000000 0.076950
#
#
# Mechanical properties :
#
#
# Convention : Reuss Voigt Hill
#
# Bulk Modulus (GPa) = 17.26167 24.48565 20.87366
# Shear Modulus (GPa) = 17.84246 25.08418 21.46332
#
# Velocity S-wave (km/s) = 2.87120 3.40436 3.14909
# Velocity P-wave (km/s) = 4.35513 5.17359 4.78190
#
# Compressibility (1/GPa) = 0.05793184
#
# Stress axis : x y z
#
# Youngs Moduli (GPa) = 47.13521 48.89678 64.52459
#
# Poissons Ratio (x) = -0.22707 0.20878
# Poissons Ratio (y) = -0.21889 0.06612
# Poissons Ratio (z) = 0.15251 0.05010
#
# Static dielectric constant tensor:
#      x y z
#    x 1.877690 0.000000 -0.111370 
#    y 0.000000 1.803020 0.000000 
#    z -0.111370 0.000000 2.054640 
# 
# From -- ./inp_files/247329.got.cif
#   From: 2010.05.17/outbox.cif.g08.bks.cpg/sg15_124_cif.got.tgz:247329.got - 2010.06.03 18:47:42.
