data_PCOD9267343
_publ_section_title
;
Structure prediction by ZEFSAII (Michael W. Deem and Ramdas Pophale) SiO2 
 PCOD9267343
Probable space group: C 2/C
;
_chemical_formula_sum "Si O2"
_cell_formula_units_Z 52
_cell_length_a 18.562624
_cell_length_b 16.532321
_cell_length_c 15.896488
_cell_angle_alpha 90.000000
_cell_angle_beta 24.216833
_cell_angle_gamma 90.000000
_cell_volume 2001.061790
_symmetry_space_group_name_H-M "C 2/C"
_symmetry_group_IT_number 15
_symmetry_cell_setting 'monoclinic'
loop_
_space_group_symop_operation_xyz
x,y,z
-x,y,1/2-z
-x,-y,-z
x,-y,1/2+z
1/2+x,1/2+y,z
1/2-x,1/2+y,1/2-z
1/2-x,1/2-y,-z
1/2+x,1/2-y,1/2+z
loop_
_atom_site_type_symbol
_atom_site_label
_atom_site_fract_x
_atom_site_fract_y
_atom_site_fract_z
Si Si1 0.001584 0.147112 0.893616
Si Si2 0.000000 0.556363 0.250000
Si Si3 0.000000 0.260329 0.250000
Si Si4 0.312457 0.895587 0.179765
Si Si5 0.322421 0.632325 0.365181
Si Si6 0.373862 0.179614 0.263834
Si Si7 0.500000 0.515279 0.750000
Si Si8 0.912394 0.558130 0.000721
O O1 0.121223 0.128586 0.848724
O O2 0.092116 0.226333 0.754653
O O3 0.000805 0.070142 0.832065
O O4 0.795368 0.169514 0.115281
O O5 0.140767 0.620273 0.139616
O O6 0.044677 0.498174 0.125053
O O7 0.835690 0.317751 0.427034
O O8 0.985204 0.194126 0.191069
O O9 0.418519 0.888079 0.154621
O O10 0.451567 0.852401 0.969130
O O11 0.333835 0.993135 0.149757
O O12 0.350528 0.551214 0.388920
O O13 0.252388 0.611762 0.348814
#
# Coordination Sequence:
#
# PCOD9267343 Si02
#       8
#     8   4   4   8   8   8   4   8
#     4  12  23  41  65 103 142 186 226 282 341 426
#     4  10  22  40  68 108 130 194 232 288 348 406
#     4   9  21  36  61  89 124 158 218 287 339 390
#     4  10  23  44  65  98 138 188 221 287 340 411
#     4  10  19  39  60  91 123 165 220 278 339 402
#     4  11  24  40  67 101 148 179 237 273 352 412
#     4  11  23  36  67  97 130 174 224 283 341 414
#     4  10  20  42  70  90 140 173 232 288 339 402
#
# _framework density 25.986204000000001
#
# number of rings (size 3 to 8) (size 9 to 14) (size 15 to 20)
#    0.000    1.538    3.077    1.846    2.154    2.462 
#    2.769    6.923    6.769    0.000    0.000    0.000 
#    0.000    0.000    0.000    0.000    0.000    0.000 
#
# Total GULP energy -145053.292029 kJ/mol
# GULP energy per Si atom -5578.972770 kJ/mol
# Density = 2.592706 g / cm^3
# Si number density = 25.986204 Si / 1000 Ang^3
#
#
#
# Elastic Constant Matrix: (Units=GPa)
#
#
# Indices 1 2 3 4 5 6 
#
# 1 113.1345 49.5535 52.0426 0.0023 -52.2736 -0.0003
# 2 49.5535 151.6995 34.2826 0.0032 -21.4929 -0.0033
# 3 52.0426 34.2826 91.0181 0.0015 -44.8870 -0.0034
# 4 0.0023 0.0032 0.0015 34.6921 -0.0008 -24.2161
# 5 -52.2736 -21.4929 -44.8870 -0.0008 57.5033 0.0006
# 6 -0.0003 -0.0033 -0.0034 -24.2161 0.0006 29.7350
#
#
#
# Elastic Compliance Matrix: (Units=1/GPa)
#
#
# Indices 1 2 3 4 5 6 
#
# 1 0.017159 -0.003291 -0.002416 -0.000002 0.012483 -0.000003
# 2 -0.003291 0.007867 -0.001800 0.000000 -0.001456 0.000001
# 3 -0.002416 -0.001800 0.018911 0.000002 0.011894 0.000004
# 4 -0.000002 0.000000 0.000002 0.066797 0.000000 0.054400
# 5 0.012483 -0.001456 0.011894 0.000000 0.037478 0.000001
# 6 -0.000003 0.000001 0.000004 0.054400 0.000001 0.077933
#
#
# Mechanical properties :
#
#
# Convention : Reuss Voigt Hill
#
# Bulk Modulus (GPa) = 34.57073 69.73439 52.15256
# Shear Modulus (GPa) = 19.93609 39.05098 29.49353
#
# Velocity S-wave (km/s) = 2.77281 3.88075 3.37258
# Velocity P-wave (km/s) = 4.85630 6.85374 5.93958
#
# Compressibility (1/GPa) = 0.02892621
#
# Stress axis : x y z
#
# Youngs Moduli (GPa) = 58.27691 127.10748 52.87805
#
# Poissons Ratio (x) = 0.41827 0.12774
# Poissons Ratio (y) = 0.19177 0.09516
# Poissons Ratio (z) = 0.14078 0.22874
#
# Static dielectric constant tensor:
#      x y z
#    x 2.309890 -0.000010 -0.060290 
#    y -0.000010 2.050650 0.000000 
#    z -0.060290 0.000000 2.124540 
# 
# From -- ./inp_files/211683.got.cif
#   From: 2010.05.17/outbox.cif.g08.bks.cpg/sg15_106_cif.got.tgz:211683.got - 2010.06.03 18:47:42.
