data_PCOD9267537
_publ_section_title
;
Structure prediction by ZEFSAII (Michael W. Deem and Ramdas Pophale) SiO2 
 PCOD9267537
Probable space group: C 2/C
;
_chemical_formula_sum "Si O2"
_cell_formula_units_Z 48
_cell_length_a 7.476920
_cell_length_b 12.387514
_cell_length_c 23.514834
_cell_angle_alpha 90.000000
_cell_angle_beta 111.131290
_cell_angle_gamma 90.000000
_cell_volume 2031.501895
_symmetry_space_group_name_H-M "C 2/C"
_symmetry_group_IT_number 15
_symmetry_cell_setting 'monoclinic'
loop_
_space_group_symop_operation_xyz
x,y,z
-x,y,1/2-z
-x,-y,-z
x,-y,1/2+z
1/2+x,1/2+y,z
1/2-x,1/2+y,1/2-z
1/2-x,1/2-y,-z
1/2+x,1/2-y,1/2+z
loop_
_atom_site_type_symbol
_atom_site_label
_atom_site_fract_x
_atom_site_fract_y
_atom_site_fract_z
Si Si1 0.972825 0.371387 0.985993
Si Si2 0.382814 0.401189 0.678665
Si Si3 0.061944 0.759397 0.908753
Si Si4 0.549141 0.628808 0.821134
Si Si5 0.545900 0.849468 0.867482
Si Si6 0.632782 0.077994 0.821475
O O1 0.754375 0.327608 0.949972
O O2 0.081692 0.354055 0.938963
O O3 0.026191 0.294626 0.045088
O O4 0.000000 0.500000 0.000000
O O5 0.500000 0.404128 0.750000
O O6 0.512416 0.349198 0.644381
O O7 0.320369 0.523372 0.657061
O O8 0.185669 0.338085 0.665806
O O9 0.096372 0.659299 0.869663
O O10 0.500000 0.644653 0.750000
O O11 0.630194 0.739856 0.852706
O O12 0.351894 0.595144 0.828556
O O13 0.599079 0.957559 0.840619
O O14 0.500000 0.097755 0.750000
#
# Coordination Sequence:
#
# PCOD9267537 Si02
#       6
#     8   8   8   8   8   8
#     4  10  19  39  65  92 125 171 219 261 308 380
#     4  10  21  42  62  93 134 167 208 268 325 385
#     4  10  21  36  66  92 124 170 211 261 322 375
#     4  11  24  41  60  93 132 164 205 265 320 385
#     4  11  23  42  66  93 126 171 216 256 322 381
#     4  12  22  39  64  98 127 165 210 262 325 385
#
# _framework density 23.627839999999999
#
# number of rings (size 3 to 8) (size 9 to 14) (size 15 to 20)
#    0.000    1.333    5.000    3.000    0.000    0.000 
#    3.000    0.833    0.000    5.000    0.000    0.000 
#    0.000    0.000    0.000    0.000    0.000    0.000 
#
# Total GULP energy -134055.154711 kJ/mol
# GULP energy per Si atom -5585.631446 kJ/mol
# Density = 2.357406 g / cm^3
# Si number density = 23.627840 Si / 1000 Ang^3
#
#
#
# Elastic Constant Matrix: (Units=GPa)
#
#
# Indices 1 2 3 4 5 6 
#
# 1 55.1744 24.9871 22.9852 0.0000 9.1557 0.0000
# 2 24.9871 194.2051 70.1678 0.0000 -7.7776 0.0000
# 3 22.9852 70.1678 132.0194 0.0000 -17.3899 0.0000
# 4 0.0000 0.0000 0.0000 26.3241 0.0000 -21.2052
# 5 9.1557 -7.7776 -17.3899 0.0000 31.2156 0.0000
# 6 0.0000 0.0000 0.0000 -21.2052 0.0000 32.2473
#
#
#
# Elastic Compliance Matrix: (Units=1/GPa)
#
#
# Indices 1 2 3 4 5 6 
#
# 1 0.022173 -0.001718 -0.004166 0.000000 -0.009253 0.000000
# 2 -0.001718 0.006509 -0.003109 0.000000 0.000394 0.000000
# 3 -0.004166 -0.003109 0.010804 0.000000 0.006466 0.000000
# 4 0.000000 0.000000 0.000000 0.080776 0.000000 0.053117
# 5 -0.009253 0.000394 0.006466 0.000000 0.038449 0.000000
# 6 0.000000 0.000000 0.000000 0.053117 0.000000 0.065939
#
#
# Mechanical properties :
#
#
# Convention : Reuss Voigt Hill
#
# Bulk Modulus (GPa) = 46.50979 68.63102 57.57040
# Shear Modulus (GPa) = 20.01576 35.50798 27.76187
#
# Velocity S-wave (km/s) = 2.91370 3.88081 3.43149
# Velocity P-wave (km/s) = 5.57195 7.01360 6.33392
#
# Compressibility (1/GPa) = 0.02150085
#
# Stress axis : x y z
#
# Youngs Moduli (GPa) = 45.09908 153.62881 92.55926
#
# Poissons Ratio (x) = 0.26397 0.38560
# Poissons Ratio (y) = 0.07749 0.28773
# Poissons Ratio (z) = 0.18788 0.47756
#
# Static dielectric constant tensor:
#      x y z
#    x 1.827030 0.000000 -0.032690 
#    y 0.000000 1.902990 0.000000 
#    z -0.032690 0.000000 1.868430 
# 
# From -- ./inp_files/263210.got.cif
#   From: 2010.05.17/outbox.cif.g08.bks.cpg/sg15_132_cif.got.tgz:263210.got - 2010.06.03 18:47:42.
