data_PCOD9267431
_publ_section_title
;
Structure prediction by ZEFSAII (Michael W. Deem and Ramdas Pophale) SiO2 
 PCOD9267431
Probable space group: C 2/C
;
_chemical_formula_sum "Si O2"
_cell_formula_units_Z 56
_cell_length_a 22.705933
_cell_length_b 8.686863
_cell_length_c 16.479079
_cell_angle_alpha 90.000000
_cell_angle_beta 59.381574
_cell_angle_gamma 90.000000
_cell_volume 2797.213655
_symmetry_space_group_name_H-M "C 2/C"
_symmetry_group_IT_number 15
_symmetry_cell_setting 'monoclinic'
loop_
_space_group_symop_operation_xyz
x,y,z
-x,y,1/2-z
-x,-y,-z
x,-y,1/2+z
1/2+x,1/2+y,z
1/2-x,1/2+y,1/2-z
1/2-x,1/2-y,-z
1/2+x,1/2-y,1/2+z
loop_
_atom_site_type_symbol
_atom_site_label
_atom_site_fract_x
_atom_site_fract_y
_atom_site_fract_z
Si Si1 0.766323 0.534474 0.697187
Si Si2 0.687180 0.834301 0.498320
Si Si3 0.133859 0.104338 0.210391
Si Si4 0.173298 0.308465 0.040228
Si Si5 0.660315 0.264042 0.362986
Si Si6 0.561989 0.661140 0.660137
Si Si7 0.540799 0.481039 0.389736
O O1 0.796418 0.651549 0.609048
O O2 0.709919 0.433101 0.687591
O O3 0.724701 0.625204 0.795106
O O4 0.821826 0.406597 0.683142
O O5 0.750000 0.750000 0.500000
O O6 0.616246 0.752349 0.569035
O O7 0.677699 0.008204 0.536186
O O8 0.131794 0.235442 0.144167
O O9 0.106425 0.946861 0.188194
O O10 0.086161 0.121452 0.322833
O O11 0.250000 0.250000 0.000000
O O12 0.150318 0.251482 0.966942
O O13 0.594903 0.342751 0.367438
O O14 0.500000 0.750362 0.750000
O O15 0.517394 0.551762 0.634765
O O16 0.500000 0.500000 0.500000
#
# Coordination Sequence:
#
# PCOD9267431 Si02
#       7
#     8   8   8   8   8   8   8
#     4  10  21  39  58  93 124 156 211 261 315 370
#     4  11  21  37  66  94 122 165 212 261 317 369
#     4  10  19  39  63  88 117 161 215 260 302 366
#     4  11  20  38  61  93 125 155 212 269 310 367
#     4  10  22  38  60  89 126 162 205 262 316 371
#     4  10  21  40  60  88 124 164 208 252 309 381
#     4  10  22  39  62  86 127 172 210 242 316 390
#
# _framework density 20.019922999999999
#
# number of rings (size 3 to 8) (size 9 to 14) (size 15 to 20)
#    0.000    1.714    4.286    0.857    0.000    4.571 
#    0.000    7.857    0.000    1.714    0.000    0.000 
#    0.000    0.000    0.000    0.000    0.000    0.000 
#
# Total GULP energy -156147.434989 kJ/mol
# GULP energy per Si atom -5576.694107 kJ/mol
# Density = 1.997436 g / cm^3
# Si number density = 20.019923 Si / 1000 Ang^3
#
#
#
# Elastic Constant Matrix: (Units=GPa)
#
#
# Indices 1 2 3 4 5 6 
#
# 1 59.0881 10.2396 3.0516 0.0000 -6.8905 0.0000
# 2 10.2396 62.3928 31.4275 0.0000 -0.1695 0.0000
# 3 3.0516 31.4275 131.6576 0.0000 -13.4744 0.0000
# 4 0.0000 0.0000 0.0000 30.9398 0.0000 5.1154
# 5 -6.8905 -0.1695 -13.4744 0.0000 33.1698 0.0000
# 6 0.0000 0.0000 0.0000 5.1154 0.0000 20.7163
#
#
#
# Elastic Compliance Matrix: (Units=1/GPa)
#
#
# Indices 1 2 3 4 5 6 
#
# 1 0.017930 -0.003330 0.000792 0.000000 0.004029 0.000000
# 2 -0.003330 0.018934 -0.004699 0.000000 -0.002504 0.000000
# 3 0.000792 -0.004699 0.009091 0.000000 0.003834 0.000000
# 4 0.000000 0.000000 0.000000 0.033696 0.000000 -0.008321
# 5 0.004029 -0.002504 0.003834 0.000000 0.032529 0.000000
# 6 0.000000 0.000000 0.000000 -0.008321 0.000000 0.050326
#
#
# Mechanical properties :
#
#
# Convention : Reuss Voigt Hill
#
# Bulk Modulus (GPa) = 31.76592 38.06400 34.91496
# Shear Modulus (GPa) = 26.67022 30.85984 28.76503
#
# Velocity S-wave (km/s) = 3.65387 3.93040 3.79465
# Velocity P-wave (km/s) = 5.80540 6.29696 6.05617
#
# Compressibility (1/GPa) = 0.03148028
#
# Stress axis : x y z
#
# Youngs Moduli (GPa) = 55.77238 52.81488 109.99806
#
# Poissons Ratio (x) = 0.17590 -0.08710
# Poissons Ratio (y) = 0.18575 0.51685
# Poissons Ratio (z) = -0.04416 0.24816
#
# Static dielectric constant tensor:
#      x y z
#    x 1.712590 0.000000 -0.034090 
#    y 0.000000 1.641270 0.000000 
#    z -0.034090 0.000000 1.901410 
# 
# From -- ./inp_files/213792.got.cif
#   From: 2010.05.17/outbox.cif.g08.bks.cpg/sg15_107_cif.got.tgz:213792.got - 2010.06.03 18:47:42.
