data_PCOD9267328
_publ_section_title
;
Structure prediction by ZEFSAII (Michael W. Deem and Ramdas Pophale) SiO2 
 PCOD9267328
Probable space group: C 2/C
;
_chemical_formula_sum "Si O2"
_cell_formula_units_Z 48
_cell_length_a 25.341979
_cell_length_b 9.723516
_cell_length_c 22.231835
_cell_angle_alpha 90.000000
_cell_angle_beta 22.431802
_cell_angle_gamma 90.000000
_cell_volume 2090.396850
_symmetry_space_group_name_H-M "C 2/C"
_symmetry_group_IT_number 15
_symmetry_cell_setting 'monoclinic'
loop_
_space_group_symop_operation_xyz
x,y,z
-x,y,1/2-z
-x,-y,-z
x,-y,1/2+z
1/2+x,1/2+y,z
1/2-x,1/2+y,1/2-z
1/2-x,1/2-y,-z
1/2+x,1/2-y,1/2+z
loop_
_atom_site_type_symbol
_atom_site_label
_atom_site_fract_x
_atom_site_fract_y
_atom_site_fract_z
Si Si1 0.988109 0.815920 0.493619
Si Si2 0.537304 0.963751 0.531063
Si Si3 0.211998 0.279915 0.846047
Si Si4 0.192034 0.395882 0.637313
Si Si5 0.871467 0.094421 0.840025
Si Si6 0.063743 0.974279 0.551336
O O1 0.944436 0.698509 0.492014
O O2 0.875507 0.787644 0.664904
O O3 0.971359 0.958390 0.475917
O O4 0.138039 0.773436 0.361634
O O5 0.424750 0.977416 0.702633
O O6 0.500000 0.000000 0.500000
O O7 0.660724 0.067183 0.413643
O O8 0.146096 0.168501 0.960039
O O9 0.158228 0.234643 0.664834
O O10 0.239229 0.441872 0.520494
O O11 0.326957 0.421233 0.534874
O O12 0.000000 0.122955 0.750000
O O13 0.928368 0.978372 0.735325
#
# Coordination Sequence:
#
# PCOD9267328 Si02
#       6
#     8   8   8   8   8   8
#     4  11  21  37  57  87 122 163 206 245 297 361
#     4  10  20  36  58  84 122 161 193 238 310 362
#     4  11  23  37  55  90 126 163 196 245 310 376
#     4  10  19  39  60  84 121 155 204 257 304 359
#     4   9  20  36  62  90 111 156 216 261 299 355
#     4  11  20  35  60  88 118 156 205 256 306 358
#
# _framework density 22.962147999999999
#
# number of rings (size 3 to 8) (size 9 to 14) (size 15 to 20)
#    0.000    1.667    1.667    5.500    0.000    0.000 
#    0.000    0.833    0.000    3.000    0.000    0.000 
#    0.000    0.000    0.000    0.000    0.000    0.000 
#
# Total GULP energy -133877.792565 kJ/mol
# GULP energy per Si atom -5578.241357 kJ/mol
# Density = 2.290988 g / cm^3
# Si number density = 22.962148 Si / 1000 Ang^3
#
#
#
# Elastic Constant Matrix: (Units=GPa)
#
#
# Indices 1 2 3 4 5 6 
#
# 1 53.1258 9.6186 14.0975 -0.0002 9.4545 0.0001
# 2 9.6186 31.2458 7.0522 -0.0001 6.3827 0.0001
# 3 14.0975 7.0522 143.4102 -0.0002 27.3218 0.0001
# 4 -0.0002 -0.0001 -0.0002 41.6591 0.0002 2.5288
# 5 9.4545 6.3827 27.3218 0.0002 33.0416 -0.0001
# 6 0.0001 0.0001 0.0001 2.5288 -0.0001 24.5028
#
#
#
# Elastic Compliance Matrix: (Units=1/GPa)
#
#
# Indices 1 2 3 4 5 6 
#
# 1 0.020783 -0.005337 -0.001002 0.000000 -0.004087 0.000000
# 2 -0.005337 0.034718 -0.000233 0.000000 -0.004987 0.000000
# 3 -0.001002 -0.000233 0.008332 0.000000 -0.006558 0.000000
# 4 0.000000 0.000000 0.000000 0.024156 0.000000 -0.002493
# 5 -0.004087 -0.004987 -0.006558 0.000000 0.037821 0.000000
# 6 0.000000 0.000000 0.000000 -0.002493 0.000000 0.041069
#
#
# Mechanical properties :
#
#
# Convention : Reuss Voigt Hill
#
# Bulk Modulus (GPa) = 19.72716 32.14649 25.93682
# Shear Modulus (GPa) = 25.39125 32.97493 29.18309
#
# Velocity S-wave (km/s) = 3.32895 3.79364 3.56887
# Velocity P-wave (km/s) = 4.83587 5.76361 5.32000
#
# Compressibility (1/GPa) = 0.05069154
#
# Stress axis : x y z
#
# Youngs Moduli (GPa) = 48.11689 28.80322 120.01339
#
# Poissons Ratio (x) = 0.15371 0.12023
# Poissons Ratio (y) = 0.25678 0.02791
# Poissons Ratio (z) = 0.04820 0.00670
#
# Static dielectric constant tensor:
#      x y z
#    x 1.900440 0.000000 0.048320 
#    y 0.000000 1.862380 0.000000 
#    z 0.048320 0.000000 1.919720 
# 
# From -- ./inp_files/284561.got.cif
#   From: 2010.05.17/outbox.cif.g08.bks.cpg/sg15_143_cif.got.tgz:284561.got - 2010.06.03 18:47:42.
