data_PCOD9267534
_publ_section_title
;
Structure prediction by ZEFSAII (Michael W. Deem and Ramdas Pophale) SiO2 
 PCOD9267534
Probable space group: C 2/C
;
_chemical_formula_sum "Si O2"
_cell_formula_units_Z 40
_cell_length_a 17.897009
_cell_length_b 13.949865
_cell_length_c 15.171738
_cell_angle_alpha 90.000000
_cell_angle_beta 24.392771
_cell_angle_gamma 90.000000
_cell_volume 1564.317244
_symmetry_space_group_name_H-M "C 2/C"
_symmetry_group_IT_number 15
_symmetry_cell_setting 'monoclinic'
loop_
_space_group_symop_operation_xyz
x,y,z
-x,y,1/2-z
-x,-y,-z
x,-y,1/2+z
1/2+x,1/2+y,z
1/2-x,1/2+y,1/2-z
1/2-x,1/2-y,-z
1/2+x,1/2-y,1/2+z
loop_
_atom_site_type_symbol
_atom_site_label
_atom_site_fract_x
_atom_site_fract_y
_atom_site_fract_z
Si Si1 0.004485 0.777258 0.479427
Si Si2 0.674195 0.346924 0.119117
Si Si3 0.657650 0.966249 0.020432
Si Si4 0.162372 0.411291 0.816998
Si Si5 0.056878 0.055203 0.030956
O O1 0.108674 0.822690 0.286120
O O2 0.001479 0.662850 0.467940
O O3 0.086347 0.832919 0.476898
O O4 0.807335 0.826155 0.682408
O O5 0.500000 0.376409 0.250000
O O6 0.823350 0.426959 0.964810
O O7 0.750000 0.250000 0.000000
O O8 0.614121 0.959394 0.962758
O O9 0.875744 0.941347 0.785984
O O10 0.500000 0.918168 0.250000
O O11 0.265815 0.488109 0.642360
O O12 0.000000 0.000000 0.000000
#
# Coordination Sequence:
#
# PCOD9267534 Si02
#       5
#     8   8   8   8   8
#     4  10  19  39  65  91 123 161 220 246 313 378
#     4  12  23  36  61  94 134 166 192 259 327 378
#     4  10  20  40  61  92 130 162 209 263 316 369
#     4  10  19  39  68  86 126 172 207 266 300 381
#     4   8  16  37  64  81 125 168 200 256 300 373
#
# _framework density 25.570262
#
# number of rings (size 3 to 8) (size 9 to 14) (size 15 to 20)
#    0.000    2.400    6.000    1.800    0.000    0.000 
#    0.000    9.000    0.000    1.200    0.000    0.000 
#    0.000    0.000    0.000    0.000    0.000    0.000 
#
# Total GULP energy -111424.640345 kJ/mol
# GULP energy per Si atom -5571.232017 kJ/mol
# Density = 2.551206 g / cm^3
# Si number density = 25.570262 Si / 1000 Ang^3
#
#
#
# Elastic Constant Matrix: (Units=GPa)
#
#
# Indices 1 2 3 4 5 6 
#
# 1 47.5696 19.0852 34.8044 0.0000 9.0375 -0.0002
# 2 19.0852 108.8771 59.5988 -0.0085 -0.3156 0.0024
# 3 34.8044 59.5988 215.4984 -0.0055 25.5720 0.0018
# 4 0.0000 -0.0085 -0.0055 40.8048 0.0008 2.6404
# 5 9.0375 -0.3156 25.5720 0.0008 34.2117 0.0001
# 6 -0.0002 0.0024 0.0018 2.6404 0.0001 40.1294
#
#
#
# Elastic Compliance Matrix: (Units=1/GPa)
#
#
# Indices 1 2 3 4 5 6 
#
# 1 0.025043 -0.002935 -0.002683 -0.000001 -0.004637 0.000000
# 2 -0.002935 0.011376 -0.003047 0.000002 0.003158 -0.000001
# 3 -0.002683 -0.003047 0.006404 0.000000 -0.004106 0.000000
# 4 -0.000001 0.000002 0.000000 0.024612 -0.000001 -0.001619
# 5 -0.004637 0.003158 -0.004106 -0.000001 0.033553 0.000000
# 6 0.000000 -0.000001 0.000000 -0.001619 0.000000 0.025026
#
#
# Mechanical properties :
#
#
# Convention : Reuss Voigt Hill
#
# Bulk Modulus (GPa) = 39.22487 66.54687 52.88587
# Shear Modulus (GPa) = 32.92934 40.25962 36.59448
#
# Velocity S-wave (km/s) = 3.59248 3.97226 3.78714
# Velocity P-wave (km/s) = 5.70800 6.86441 6.31274
#
# Compressibility (1/GPa) = 0.02549403
#
# Stress axis : x y z
#
# Youngs Moduli (GPa) = 39.93112 87.90329 156.16304
#
# Poissons Ratio (x) = 0.25798 0.41893
# Poissons Ratio (y) = 0.11719 0.47582
# Poissons Ratio (z) = 0.10712 0.26784
#
# Static dielectric constant tensor:
#      x y z
#    x 2.194520 0.000000 -0.161080 
#    y 0.000000 2.498890 0.000000 
#    z -0.161080 0.000000 2.214980 
# 
# From -- ./inp_files/215649.got.cif
#   From: 2010.05.17/outbox.cif.g08.bks.cpg/sg15_108_cif.got.tgz:215649.got - 2010.06.03 18:47:42.
