data_PCOD9267771
_publ_section_title
;
Structure prediction by ZEFSAII (Michael W. Deem and Ramdas Pophale) SiO2 
 PCOD9267771
Probable space group: C 2/C
;
_chemical_formula_sum "Si O2"
_cell_formula_units_Z 56
_cell_length_a 20.104783
_cell_length_b 8.367499
_cell_length_c 20.632752
_cell_angle_alpha 90.000000
_cell_angle_beta 42.159195
_cell_angle_gamma 90.000000
_cell_volume 2329.697463
_symmetry_space_group_name_H-M "C 2/C"
_symmetry_group_IT_number 15
_symmetry_cell_setting 'monoclinic'
loop_
_space_group_symop_operation_xyz
x,y,z
-x,y,1/2-z
-x,-y,-z
x,-y,1/2+z
1/2+x,1/2+y,z
1/2-x,1/2+y,1/2-z
1/2-x,1/2-y,-z
1/2+x,1/2-y,1/2+z
loop_
_atom_site_type_symbol
_atom_site_label
_atom_site_fract_x
_atom_site_fract_y
_atom_site_fract_z
Si Si1 0.924745 0.915164 0.153966
Si Si2 0.697066 0.398972 0.862712
Si Si3 0.559643 0.871416 0.500582
Si Si4 0.868591 0.939274 0.960385
Si Si5 0.896417 0.581648 0.913494
Si Si6 0.383705 0.023688 0.288271
Si Si7 0.113674 0.885197 0.178015
O O1 0.860160 0.911263 0.266266
O O2 0.981314 0.755490 0.088580
O O3 0.859549 0.984810 0.144296
O O4 0.015003 0.030358 0.108111
O O5 0.814217 0.432829 0.777246
O O6 0.640531 0.229863 0.900888
O O7 0.679793 0.458880 0.948136
O O8 0.500000 0.000000 0.500000
O O9 0.617052 0.951915 0.519764
O O10 0.862581 0.750230 0.966354
O O11 0.835152 0.020145 0.916717
O O12 0.852185 0.584534 0.872286
O O13 0.014229 0.551482 0.812275
O O14 0.390291 0.193201 0.322559
O O15 0.000000 0.937086 0.250000
#
# Coordination Sequence:
#
# PCOD9267771 Si02
#       7
#     8   8   8   8   8   8   8
#     4  10  20  40  62  91 130 168 214 260 321 396
#     4  11  24  42  64  96 135 169 216 273 324 378
#     4  11  21  41  69  91 126 174 214 266 321 389
#     4  10  22  39  71  93 124 173 219 265 322 394
#     4  11  22  41  67  95 127 167 224 261 324 397
#     4  11  23  41  63  94 133 166 216 272 321 386
#     4  10  19  40  64  91 122 175 217 257 323 388
#
# _framework density 24.037455999999999
#
# number of rings (size 3 to 8) (size 9 to 14) (size 15 to 20)
#    0.000    1.429    2.857    5.143    6.000    2.857 
#    5.143    1.429    0.000    0.000    0.000    0.000 
#    0.000    0.000    0.000    0.000    0.000    0.000 
#
# Total GULP energy -156150.598158 kJ/mol
# GULP energy per Si atom -5576.807077 kJ/mol
# Density = 2.398275 g / cm^3
# Si number density = 24.037456 Si / 1000 Ang^3
#
#
#
# Elastic Constant Matrix: (Units=GPa)
#
#
# Indices 1 2 3 4 5 6 
#
# 1 142.6540 32.7919 6.1346 -0.0001 -7.0614 0.0003
# 2 32.7919 97.8459 6.8644 -0.0003 2.0690 0.0014
# 3 6.1346 6.8644 43.4346 0.0000 6.1066 0.0001
# 4 -0.0001 -0.0003 0.0000 20.4219 0.0000 8.7421
# 5 -7.0614 2.0690 6.1066 0.0000 28.8871 -0.0001
# 6 0.0003 0.0014 0.0001 8.7421 -0.0001 33.3781
#
#
#
# Elastic Compliance Matrix: (Units=1/GPa)
#
#
# Indices 1 2 3 4 5 6 
#
# 1 0.007760 -0.002578 -0.001011 0.000000 0.002295 0.000000
# 2 -0.002578 0.011196 -0.001241 0.000000 -0.001170 -0.000001
# 3 -0.001011 -0.001241 0.024101 0.000000 -0.005253 0.000000
# 4 0.000000 0.000000 0.000000 0.055150 0.000000 -0.014444
# 5 0.002295 -0.001170 -0.005253 0.000000 0.036373 0.000000
# 6 0.000000 -0.000001 0.000000 -0.014444 0.000000 0.033743
#
#
# Mechanical properties :
#
#
# Convention : Reuss Voigt Hill
#
# Bulk Modulus (GPa) = 29.94380 41.72404 35.83392
# Shear Modulus (GPa) = 26.43899 32.41366 29.42633
#
# Velocity S-wave (km/s) = 3.32008 3.67613 3.50263
# Velocity P-wave (km/s) = 5.21358 5.95098 5.59445
#
# Compressibility (1/GPa) = 0.03339590
#
# Stress axis : x y z
#
# Youngs Moduli (GPa) = 128.87073 89.31777 41.49277
#
# Poissons Ratio (x) = 0.23028 0.04196
# Poissons Ratio (y) = 0.33225 0.05148
# Poissons Ratio (z) = 0.13032 0.11083
#
# Static dielectric constant tensor:
#      x y z
#    x 2.025330 0.000000 -0.174640 
#    y 0.000000 1.913260 0.000000 
#    z -0.174640 0.000000 2.183990 
# 
# From -- ./inp_files/251822.got.cif
#   From: 2010.05.17/outbox.cif.g08.bks.cpg/sg15_126_cif.got.tgz:251822.got - 2010.06.03 18:47:42.
