data_PCOD9267314
_publ_section_title
;
Structure prediction by ZEFSAII (Michael W. Deem and Ramdas Pophale) SiO2 
 PCOD9267314
Probable space group: C 2/C
;
_chemical_formula_sum "Si O2"
_cell_formula_units_Z 56
_cell_length_a 16.537460
_cell_length_b 15.483466
_cell_length_c 10.963595
_cell_angle_alpha 90.000000
_cell_angle_beta 111.999870
_cell_angle_gamma 90.000000
_cell_volume 2602.892513
_symmetry_space_group_name_H-M "C 2/C"
_symmetry_group_IT_number 15
_symmetry_cell_setting 'monoclinic'
loop_
_space_group_symop_operation_xyz
x,y,z
-x,y,1/2-z
-x,-y,-z
x,-y,1/2+z
1/2+x,1/2+y,z
1/2-x,1/2+y,1/2-z
1/2-x,1/2-y,-z
1/2+x,1/2-y,1/2+z
loop_
_atom_site_type_symbol
_atom_site_label
_atom_site_fract_x
_atom_site_fract_y
_atom_site_fract_z
Si Si1 0.000000 0.159424 0.250000
Si Si2 0.916875 0.125477 0.956571
Si Si3 0.716887 0.882965 0.897623
Si Si4 0.679174 0.800923 0.635305
Si Si5 0.778849 0.421031 0.073774
Si Si6 0.500000 0.362903 0.250000
Si Si7 0.865379 0.711582 0.764023
Si Si8 0.869712 0.231224 0.510258
O O1 0.916665 0.222686 0.207858
O O2 0.019432 0.111314 0.389864
O O3 0.894167 0.228002 0.924192
O O4 0.821236 0.086948 0.935247
O O5 0.957991 0.094324 0.849505
O O6 0.667037 0.864378 0.743120
O O7 0.686742 0.811550 0.976296
O O8 0.706750 0.978543 0.940638
O O9 0.817457 0.854122 0.936751
O O10 0.703839 0.857886 0.531204
O O11 0.766233 0.745983 0.716763
O O12 0.849933 0.384797 0.210350
O O13 0.573630 0.302168 0.348003
O O14 0.914239 0.727019 0.918123
#
# Coordination Sequence:
#
# PCOD9267314 Si02
#       8
#     4   8   8   8   8   4   8   8
#     4  12  18  36  62  92 120 162 196 250 312 376
#     4  11  22  38  63  91 121 162 204 250 307 370
#     4  10  23  38  62  87 120 158 209 254 298 369
#     4  10  19  39  59  86 117 158 207 250 297 361
#     4  11  22  38  62  92 120 157 207 262 301 353
#     4  12  22  38  66  90 124 166 206 246 304 382
#     4  10  20  35  62  87 117 158 205 250 302 361
#     4  10  22  40  59  88 120 165 203 244 309 371
#
# _framework density 21.514527999999999
#
# number of rings (size 3 to 8) (size 9 to 14) (size 15 to 20)
#    0.000    1.429    5.714    0.857    4.000    0.000 
#    0.000    2.143    0.000    3.429    0.000    0.000 
#    0.000    0.000    0.000    0.000    0.000    0.000 
#
# Total GULP energy -155903.639821 kJ/mol
# GULP energy per Si atom -5567.987136 kJ/mol
# Density = 2.146556 g / cm^3
# Si number density = 21.514528 Si / 1000 Ang^3
#
#
#
# Elastic Constant Matrix: (Units=GPa)
#
#
# Indices 1 2 3 4 5 6 
#
# 1 42.0611 -3.3080 9.6238 0.0000 -17.0129 0.0000
# 2 -3.3080 85.7146 14.4667 0.0000 -2.4197 0.0000
# 3 9.6238 14.4667 117.7229 0.0000 -11.0231 0.0000
# 4 0.0000 0.0000 0.0000 2.8426 0.0000 -10.8489
# 5 -17.0129 -2.4197 -11.0231 0.0000 39.8553 0.0000
# 6 0.0000 0.0000 0.0000 -10.8489 0.0000 -6.7703
#
#
#
# Elastic Compliance Matrix: (Units=1/GPa)
#
#
# Indices 1 2 3 4 5 6 
#
# 1 0.029156 0.001714 -0.001457 0.000000 0.012147 0.000000
# 2 0.001714 0.012019 -0.001520 0.000000 0.001041 0.000000
# 3 -0.001457 -0.001520 0.008966 0.000000 0.001766 0.000000
# 4 0.000000 0.000000 0.000000 0.049438 0.000000 -0.079221
# 5 0.012147 0.001041 0.001766 0.000000 0.030827 0.000000
# 6 0.000000 0.000000 0.000000 -0.079221 0.000000 -0.020757
#
#
# Mechanical properties :
#
#
# Convention : Reuss Voigt Hill
#
# Bulk Modulus (GPa) = 21.00137 31.89594 26.44865
# Shear Modulus (GPa) = 39.04861 22.16660 30.60761
#
# Velocity S-wave (km/s) = 4.26489 3.21332 3.77589
# Velocity P-wave (km/s) = 5.83396 5.35021 5.59731
#
# Compressibility (1/GPa) = 0.04761595
#
# Stress axis : x y z
#
# Youngs Moduli (GPa) = 34.29795 83.20414 111.53653
#
# Poissons Ratio (x) = -0.14261 0.16248
# Poissons Ratio (y) = -0.05879 0.16949
# Poissons Ratio (z) = 0.04996 0.12644
#
# Static dielectric constant tensor:
#      x y z
#    x 1.897600 0.000000 -0.052340 
#    y 0.000000 1.749840 0.000000 
#    z -0.052340 0.000000 1.882320 
# 
# From -- ./inp_files/105837.got.cif
#   From: 2010.05.17/outbox.cif.g08.bks.cpg/sg15_53_cif.got.tgz:105837.got - 2010.06.03 18:47:42.
