data_PCOD9267007
_publ_section_title
;
Structure prediction by ZEFSAII (Michael W. Deem and Ramdas Pophale) SiO2 
 PCOD9267007
Probable space group: C 2/C
;
_chemical_formula_sum "Si O2"
_cell_formula_units_Z 60
_cell_length_a 17.915288
_cell_length_b 8.086476
_cell_length_c 21.994728
_cell_angle_alpha 90.000000
_cell_angle_beta 117.387579
_cell_angle_gamma 90.000000
_cell_volume 2829.261879
_symmetry_space_group_name_H-M "C 2/C"
_symmetry_group_IT_number 15
_symmetry_cell_setting 'monoclinic'
loop_
_space_group_symop_operation_xyz
x,y,z
-x,y,1/2-z
-x,-y,-z
x,-y,1/2+z
1/2+x,1/2+y,z
1/2-x,1/2+y,1/2-z
1/2-x,1/2-y,-z
1/2+x,1/2-y,1/2+z
loop_
_atom_site_type_symbol
_atom_site_label
_atom_site_fract_x
_atom_site_fract_y
_atom_site_fract_z
Si Si1 0.000000 0.406435 0.750000
Si Si2 0.323851 0.885402 0.982323
Si Si3 0.432777 0.330989 0.612925
Si Si4 0.401685 0.174098 0.796767
Si Si5 0.167636 0.312092 0.095514
Si Si6 0.831485 0.909548 0.017951
Si Si7 0.835229 0.691018 0.134280
Si Si8 0.296987 0.806449 0.147266
O O1 0.048662 0.523477 0.718931
O O2 0.069829 0.297045 0.808862
O O3 0.286328 0.760334 0.917054
O O4 0.357498 0.038640 0.957259
O O5 0.242548 0.957976 0.989859
O O6 0.395358 0.808690 0.052138
O O7 0.525929 0.311727 0.672280
O O8 0.415281 0.498298 0.570908
O O9 0.370818 0.305434 0.646286
O O10 0.377183 0.160852 0.857920
O O11 0.317093 0.205588 0.726240
O O12 0.268338 0.303939 0.144759
O O13 0.158654 0.151836 0.047577
O O14 0.823905 0.753731 0.061074
O O15 0.813877 0.497757 0.136364
#
# Coordination Sequence:
#
# PCOD9267007 Si02
#       8
#     4   8   8   8   8   8   8   8
#     4  10  22  42  66  86 118 178 206 248 304 386
#     4  10  21  37  63  89 117 161 211 245 304 375
#     4  11  19  38  62  89 117 164 207 248 298 372
#     4  11  23  38  64  87 126 160 207 252 309 367
#     4  11  23  37  59  95 125 155 199 263 309 360
#     4  10  21  36  60  91 122 157 202 258 310 362
#     4  10  19  40  63  87 120 156 204 249 309 363
#     4  10  19  38  64  86 112 165 206 245 300 380
#
# _framework density 21.206944
#
# number of rings (size 3 to 8) (size 9 to 14) (size 15 to 20)
#    0.000    1.600    2.667    5.600    0.000    3.200 
#    7.200    0.000    0.000    0.000    0.000    0.000 
#    0.000    0.000    0.000    0.000    0.000    0.000 
#
# Total GULP energy -167109.651373 kJ/mol
# GULP energy per Si atom -5570.321712 kJ/mol
# Density = 2.115868 g / cm^3
# Si number density = 21.206944 Si / 1000 Ang^3
#
#
#
# Elastic Constant Matrix: (Units=GPa)
#
#
# Indices 1 2 3 4 5 6 
#
# 1 37.4546 -1.1602 17.3321 0.0000 -17.6774 0.0000
# 2 -1.1602 60.8780 27.0685 0.0000 1.7083 0.0000
# 3 17.3321 27.0685 105.2768 0.0000 -8.5998 0.0000
# 4 0.0000 0.0000 0.0000 26.1873 0.0000 8.2031
# 5 -17.6774 1.7083 -8.5998 0.0000 46.0330 0.0000
# 6 0.0000 0.0000 0.0000 8.2031 0.0000 5.7363
#
#
#
# Elastic Compliance Matrix: (Units=1/GPa)
#
#
# Indices 1 2 3 4 5 6 
#
# 1 0.035166 0.002764 -0.005489 0.000000 0.012376 0.000000
# 2 0.002764 0.018881 -0.005362 0.000000 -0.000641 0.000000
# 3 -0.005489 -0.005362 0.011805 0.000000 0.000297 0.000000
# 4 0.000000 0.000000 0.000000 0.069172 0.000000 -0.098918
# 5 0.012376 -0.000641 0.000297 0.000000 0.026555 0.000000
# 6 0.000000 0.000000 0.000000 -0.098918 0.000000 0.315783
#
#
# Mechanical properties :
#
#
# Convention : Reuss Voigt Hill
#
# Bulk Modulus (GPa) = 20.12995 32.23225 26.18110
# Shear Modulus (GPa) = 9.80206 26.28259 18.04233
#
# Velocity S-wave (km/s) = 2.15224 3.52424 2.91997
# Velocity P-wave (km/s) = 3.96093 5.63847 4.87243
#
# Compressibility (1/GPa) = 0.04967722
#
# Stress axis : x y z
#
# Youngs Moduli (GPa) = 28.43669 52.96301 84.70743
#
# Poissons Ratio (x) = -0.14636 0.46496
# Poissons Ratio (y) = -0.07858 0.45420
# Poissons Ratio (z) = 0.15609 0.28399
#
# Static dielectric constant tensor:
#      x y z
#    x 1.813090 0.000000 0.037800 
#    y 0.000000 1.832580 0.000000 
#    z 0.037800 0.000000 1.830370 
# 
# From -- ./inp_files/247553.got.cif
#   From: 2010.05.17/outbox.cif.g08.bks.cpg/sg15_124_cif.got.tgz:247553.got - 2010.06.03 18:47:42.
