data_PCOD9267684
_publ_section_title
;
Structure prediction by ZEFSAII (Michael W. Deem and Ramdas Pophale) SiO2 
 PCOD9267684
Probable space group: C 2/C
;
_chemical_formula_sum "Si O2"
_cell_formula_units_Z 44
_cell_length_a 27.020524
_cell_length_b 5.073772
_cell_length_c 13.047271
_cell_angle_alpha 90.000000
_cell_angle_beta 107.984126
_cell_angle_gamma 90.000000
_cell_volume 1701.334856
_symmetry_space_group_name_H-M "C 2/C"
_symmetry_group_IT_number 15
_symmetry_cell_setting 'monoclinic'
loop_
_space_group_symop_operation_xyz
x,y,z
-x,y,1/2-z
-x,-y,-z
x,-y,1/2+z
1/2+x,1/2+y,z
1/2-x,1/2+y,1/2-z
1/2-x,1/2-y,-z
1/2+x,1/2-y,1/2+z
loop_
_atom_site_type_symbol
_atom_site_label
_atom_site_fract_x
_atom_site_fract_y
_atom_site_fract_z
Si Si1 0.594437 0.792174 0.676962
Si Si2 0.588698 0.135284 0.938881
Si Si3 0.222782 0.913374 0.104134
Si Si4 0.000000 0.406067 0.750000
Si Si5 0.348983 0.378288 0.100909
Si Si6 0.181966 0.405235 0.202992
O O1 0.583512 0.756180 0.551251
O O2 0.642044 0.668514 0.772812
O O3 0.620557 0.084750 0.686881
O O4 0.543450 0.756309 0.711677
O O5 0.533507 0.068540 0.853491
O O6 0.614413 0.377511 0.899402
O O7 0.625716 0.877628 0.940889
O O8 0.198016 0.141168 0.157418
O O9 0.283302 0.921361 0.171813
O O10 0.199105 0.640559 0.133983
O O11 0.205795 0.014479 0.980395
#
# Coordination Sequence:
#
# PCOD9267684 Si02
#       6
#     8   8   8   4   8   8
#     4  11  23  44  68  97 129 177 211 273 321 382
#     4  11  24  45  65  95 130 174 208 280 315 383
#     4  10  19  40  61 100 125 169 211 262 308 403
#     4  10  26  44  68  98 130 166 232 258 328 388
#     4  11  23  40  69  97 132 165 223 254 327 390
#     4  10  21  36  69  89 132 170 210 256 331 363
#
# _framework density 25.862047
#
# number of rings (size 3 to 8) (size 9 to 14) (size 15 to 20)
#    0.000    1.455    3.636    0.545    0.000    9.455 
#    0.000    5.455    0.000   12.000    0.000    0.000 
#    0.000    0.000    0.000    0.000    0.000    0.000 
#
# Total GULP energy -122910.700842 kJ/mol
# GULP energy per Si atom -5586.850038 kJ/mol
# Density = 2.580318 g / cm^3
# Si number density = 25.862047 Si / 1000 Ang^3
#
#
#
# Elastic Constant Matrix: (Units=GPa)
#
#
# Indices 1 2 3 4 5 6 
#
# 1 85.8937 8.9869 21.7755 0.0000 0.5469 0.0000
# 2 8.9869 134.0254 22.7726 0.0000 -3.1395 0.0000
# 3 21.7755 22.7726 211.5658 0.0000 19.0259 0.0000
# 4 0.0000 0.0000 0.0000 37.4693 0.0000 1.9371
# 5 0.5469 -3.1395 19.0259 0.0000 49.4849 0.0000
# 6 0.0000 0.0000 0.0000 1.9371 0.0000 19.3152
#
#
#
# Elastic Compliance Matrix: (Units=1/GPa)
#
#
# Indices 1 2 3 4 5 6 
#
# 1 0.012006 -0.000595 -0.001198 0.000000 0.000290 0.000000
# 2 -0.000595 0.007662 -0.000837 0.000000 0.000814 0.000000
# 3 -0.001198 -0.000837 0.005121 0.000000 -0.002009 0.000000
# 4 0.000000 0.000000 0.000000 0.026828 0.000000 -0.002691
# 5 0.000290 0.000814 -0.002009 0.000000 0.021029 0.000000
# 6 0.000000 0.000000 0.000000 -0.002691 0.000000 0.052042
#
#
# Mechanical properties :
#
#
# Convention : Reuss Voigt Hill
#
# Bulk Modulus (GPa) = 51.20153 59.83945 55.52049
# Shear Modulus (GPa) = 36.64149 46.45056 41.54602
#
# Velocity S-wave (km/s) = 3.76813 4.24263 4.01240
# Velocity P-wave (km/s) = 6.22677 6.86935 6.55594
#
# Compressibility (1/GPa) = 0.01953067
#
# Stress axis : x y z
#
# Youngs Moduli (GPa) = 83.28923 130.50725 195.28750
#
# Poissons Ratio (x) = 0.07762 0.23392
# Poissons Ratio (y) = 0.04954 0.16342
# Poissons Ratio (z) = 0.09977 0.10921
#
# Static dielectric constant tensor:
#      x y z
#    x 2.038990 0.000000 0.041400 
#    y 0.000000 2.077890 0.000000 
#    z 0.041400 0.000000 2.163890 
# 
# From -- ./inp_files/125048.got.cif
#   From: 2010.05.17/outbox.cif.g08.bks.cpg/sg15_63_cif.got.tgz:125048.got - 2010.06.03 18:47:42.
