data_PCOD9267227
_publ_section_title
;
Structure prediction by ZEFSAII (Michael W. Deem and Ramdas Pophale) SiO2 
 PCOD9267227
Probable space group: C 2/C
;
_chemical_formula_sum "Si O2"
_cell_formula_units_Z 60
_cell_length_a 7.899738
_cell_length_b 18.351737
_cell_length_c 21.615064
_cell_angle_alpha 90.000000
_cell_angle_beta 57.647644
_cell_angle_gamma 90.000000
_cell_volume 2647.198552
_symmetry_space_group_name_H-M "C 2/C"
_symmetry_group_IT_number 15
_symmetry_cell_setting 'monoclinic'
loop_
_space_group_symop_operation_xyz
x,y,z
-x,y,1/2-z
-x,-y,-z
x,-y,1/2+z
1/2+x,1/2+y,z
1/2-x,1/2+y,1/2-z
1/2-x,1/2-y,-z
1/2+x,1/2-y,1/2+z
loop_
_atom_site_type_symbol
_atom_site_label
_atom_site_fract_x
_atom_site_fract_y
_atom_site_fract_z
Si Si1 0.666136 0.924722 0.802476
Si Si2 0.770067 0.822574 0.431142
Si Si3 0.701318 0.553026 0.355834
Si Si4 0.430877 0.320276 0.531224
Si Si5 0.121818 0.742358 0.290958
Si Si6 0.500000 0.171129 0.750000
Si Si7 0.254704 0.090390 0.901509
Si Si8 0.896540 0.469294 0.081149
O O1 0.803501 0.946941 0.717308
O O2 0.437048 0.943074 0.827597
O O3 0.667344 0.837825 0.807911
O O4 0.706411 0.968669 0.857094
O O5 0.597099 0.764345 0.447415
O O6 0.773298 0.831396 0.505011
O O7 0.742607 0.900930 0.406769
O O8 0.973769 0.785953 0.365833
O O9 0.609889 0.625445 0.404227
O O10 0.624219 0.479027 0.403431
O O11 0.632034 0.347060 0.459706
O O12 0.335589 0.782180 0.244487
O O13 0.000000 0.736002 0.250000
O O14 0.370298 0.121524 0.820330
O O15 0.419665 0.061775 0.915737
O O16 0.000000 0.500000 0.000000
#
# Coordination Sequence:
#
# PCOD9267227 Si02
#       8
#     8   8   8   8   8   4   8   8
#     4  10  20  42  70  98 138 191 240 302 358 450
#     4  11  23  42  69 102 139 187 238 298 374 449
#     4  10  19  38  68  97 132 187 241 280 368 437
#     4  11  22  40  71 101 133 187 243 293 363 454
#     4  12  23  45  77 104 148 197 251 303 377 451
#     4  12  26  44  70 114 146 190 252 310 366 452
#     4  11  23  41  66 101 145 181 232 311 364 433
#     4  11  25  42  69 101 145 185 242 309 378 440
#
# _framework density 22.665471
#
# number of rings (size 3 to 8) (size 9 to 14) (size 15 to 20)
#    0.000    1.067    4.000    4.400    1.867    0.533 
#    0.000    4.000    2.933    0.000    0.000    0.000 
#    0.000    0.000    0.000    0.000    0.000    0.000 
#
# Total GULP energy -167803.190245 kJ/mol
# GULP energy per Si atom -5593.439675 kJ/mol
# Density = 2.261388 g / cm^3
# Si number density = 22.665471 Si / 1000 Ang^3
#
#
#
# Elastic Constant Matrix: (Units=GPa)
#
#
# Indices 1 2 3 4 5 6 
#
# 1 33.9236 33.1691 8.4022 0.0000 3.0625 0.0000
# 2 33.1691 114.2215 19.4282 0.0000 14.5193 0.0000
# 3 8.4022 19.4282 95.1534 0.0000 11.3748 0.0000
# 4 0.0000 0.0000 0.0000 29.8303 0.0000 10.7398
# 5 3.0625 14.5193 11.3748 0.0000 29.2799 0.0000
# 6 0.0000 0.0000 0.0000 10.7398 0.0000 14.5463
#
#
#
# Elastic Compliance Matrix: (Units=1/GPa)
#
#
# Indices 1 2 3 4 5 6 
#
# 1 0.041438 -0.012067 -0.001460 0.000000 0.002217 0.000000
# 2 -0.012067 0.013044 -0.001023 0.000000 -0.004809 0.000000
# 3 -0.001460 -0.001023 0.011293 0.000000 -0.003727 0.000000
# 4 0.000000 0.000000 0.000000 0.045660 0.000000 -0.033712
# 5 0.002217 -0.004809 -0.003727 0.000000 0.037754 0.000000
# 6 0.000000 0.000000 0.000000 -0.033712 0.000000 0.093636
#
#
# Mechanical properties :
#
#
# Convention : Reuss Voigt Hill
#
# Bulk Modulus (GPa) = 27.26658 40.58863 33.92760
# Shear Modulus (GPa) = 17.59636 26.88458 22.24047
#
# Velocity S-wave (km/s) = 2.78933 3.44779 3.13589
# Velocity P-wave (km/s) = 4.73603 5.81345 5.30218
#
# Compressibility (1/GPa) = 0.03667494
#
# Stress axis : x y z
#
# Youngs Moduli (GPa) = 24.13255 76.66200 88.55282
#
# Poissons Ratio (x) = 0.92505 0.12931
# Poissons Ratio (y) = 0.29120 0.09059
# Poissons Ratio (z) = 0.03524 0.07842
#
# Static dielectric constant tensor:
#      x y z
#    x 1.868460 0.000000 0.003610 
#    y 0.000000 1.851610 0.000000 
#    z 0.003610 0.000000 1.828390 
# 
# From -- ./inp_files/233066.got.cif
#   From: 2010.05.17/outbox.cif.g08.bks.cpg/sg15_117_cif.got.tgz:233066.got - 2010.06.03 18:47:42.
