data_PCOD9267808
_publ_section_title
;
Structure prediction by ZEFSAII (Michael W. Deem and Ramdas Pophale) SiO2 
 PCOD9267808
Probable space group: C 2/C
;
_chemical_formula_sum "Si O2"
_cell_formula_units_Z 48
_cell_length_a 30.107800
_cell_length_b 12.771503
_cell_length_c 8.906232
_cell_angle_alpha 90.000000
_cell_angle_beta 38.762597
_cell_angle_gamma 90.000000
_cell_volume 2144.150262
_symmetry_space_group_name_H-M "C 2/C"
_symmetry_group_IT_number 15
_symmetry_cell_setting 'monoclinic'
loop_
_space_group_symop_operation_xyz
x,y,z
-x,y,1/2-z
-x,-y,-z
x,-y,1/2+z
1/2+x,1/2+y,z
1/2-x,1/2+y,1/2-z
1/2-x,1/2-y,-z
1/2+x,1/2-y,1/2+z
loop_
_atom_site_type_symbol
_atom_site_label
_atom_site_fract_x
_atom_site_fract_y
_atom_site_fract_z
Si Si1 0.500000 0.548800 0.250000
Si Si2 0.340897 0.205905 0.142934
Si Si3 0.000000 0.502273 0.750000
Si Si4 0.360205 0.571463 0.001824
Si Si5 0.283448 0.428748 0.400787
Si Si6 0.066857 0.633359 0.847510
Si Si7 0.942289 0.778154 0.128637
O O1 0.568551 0.483933 0.124369
O O2 0.475153 0.623010 0.452297
O O3 0.309595 0.324002 0.242376
O O4 0.288396 0.114923 0.337355
O O5 0.404953 0.211164 0.095436
O O6 0.365091 0.184753 0.909392
O O7 0.964096 0.564775 0.709353
O O8 0.063334 0.435751 0.505108
O O9 0.336646 0.544144 0.895682
O O10 0.384489 0.690550 0.906753
O O11 0.293169 0.530801 0.273197
O O12 0.007901 0.721206 0.028581
#
# Coordination Sequence:
#
# PCOD9267808 Si02
#       7
#     4   8   4   8   8   8   8
#     4  12  19  37  64  98 126 170 208 281 323 374
#     4  10  19  40  66  80 129 180 211 255 325 388
#     4  10  23  35  62  90 122 150 212 279 313 394
#     4  11  22  38  59  99 128 166 223 256 336 382
#     4  10  23  39  61  90 126 178 218 256 313 407
#     4  11  20  41  60  94 121 162 217 268 335 378
#     4  11  20  37  65  94 128 166 209 278 333 378
#
# _framework density 22.386489999999998
#
# number of rings (size 3 to 8) (size 9 to 14) (size 15 to 20)
#    0.000    1.333    6.667    0.500    0.000    2.000 
#    3.000    0.000    0.000    3.000    0.000    0.000 
#    0.000    0.000    0.000    0.000    0.000    0.000 
#
# Total GULP energy -133736.886104 kJ/mol
# GULP energy per Si atom -5572.370254 kJ/mol
# Density = 2.233554 g / cm^3
# Si number density = 22.386490 Si / 1000 Ang^3
#
#
#
# Elastic Constant Matrix: (Units=GPa)
#
#
# Indices 1 2 3 4 5 6 
#
# 1 37.3315 14.4106 -0.7819 0.0000 1.2192 0.0000
# 2 14.4106 37.6187 29.6903 0.0000 14.7275 0.0000
# 3 -0.7819 29.6903 102.2167 0.0000 11.5560 0.0000
# 4 0.0000 0.0000 0.0000 56.2990 0.0000 0.2617
# 5 1.2192 14.7275 11.5560 0.0000 19.9024 0.0000
# 6 0.0000 0.0000 0.0000 0.2617 0.0000 6.3331
#
#
#
# Elastic Compliance Matrix: (Units=1/GPa)
#
#
# Indices 1 2 3 4 5 6 
#
# 1 0.035032 -0.021993 0.005414 0.000000 0.010985 0.000000
# 2 -0.021993 0.059176 -0.013441 0.000000 -0.034638 0.000000
# 3 0.005414 -0.013441 0.013530 0.000000 0.001759 0.000000
# 4 0.000000 0.000000 0.000000 0.017766 0.000000 -0.000734
# 5 0.010985 -0.034638 0.001759 0.000000 0.074183 0.000000
# 6 0.000000 0.000000 0.000000 -0.000734 0.000000 0.157930
#
#
# Mechanical properties :
#
#
# Convention : Reuss Voigt Hill
#
# Bulk Modulus (GPa) = 20.96529 29.31166 25.13848
# Shear Modulus (GPa) = 11.53254 25.43011 18.48133
#
# Velocity S-wave (km/s) = 2.27217 3.37405 2.87637
# Velocity P-wave (km/s) = 4.03350 5.31986 4.72070
#
# Compressibility (1/GPa) = 0.04769788
#
# Stress axis : x y z
#
# Youngs Moduli (GPa) = 28.54572 16.89863 73.91081
#
# Poissons Ratio (x) = 0.37166 -0.40018
# Poissons Ratio (y) = 0.62782 0.99342
# Poissons Ratio (z) = -0.15456 0.22713
#
# Static dielectric constant tensor:
#      x y z
#    x 1.821100 0.000000 -0.009230 
#    y 0.000000 1.900640 0.000000 
#    z -0.009230 0.000000 1.965690 
# 
# From -- ./inp_files/69867.got.cif
#   From: 2010.05.17/outbox.cif.g08.bks.cpg/sg15_35_cif.got.tgz:69867.got - 2010.06.03 18:47:42.
