data_PCOD9267311
_publ_section_title
;
Structure prediction by ZEFSAII (Michael W. Deem and Ramdas Pophale) SiO2 
 PCOD9267311
Probable space group: C 2/C
;
_chemical_formula_sum "Si O2"
_cell_formula_units_Z 56
_cell_length_a 25.400085
_cell_length_b 8.767630
_cell_length_c 14.220833
_cell_angle_alpha 90.000000
_cell_angle_beta 131.452729
_cell_angle_gamma 90.000000
_cell_volume 2373.642468
_symmetry_space_group_name_H-M "C 2/C"
_symmetry_group_IT_number 15
_symmetry_cell_setting 'monoclinic'
loop_
_space_group_symop_operation_xyz
x,y,z
-x,y,1/2-z
-x,-y,-z
x,-y,1/2+z
1/2+x,1/2+y,z
1/2-x,1/2+y,1/2-z
1/2-x,1/2-y,-z
1/2+x,1/2-y,1/2+z
loop_
_atom_site_type_symbol
_atom_site_label
_atom_site_fract_x
_atom_site_fract_y
_atom_site_fract_z
Si Si1 0.483923 0.176555 0.963980
Si Si2 0.345921 0.597672 0.630733
Si Si3 0.361202 0.722117 0.191519
Si Si4 0.740882 0.585451 0.630628
Si Si5 0.603934 0.206508 0.469975
Si Si6 0.569766 0.853736 0.398488
Si Si7 0.232270 0.736861 0.295287
O O1 0.415484 0.185432 0.818622
O O2 0.546773 0.226113 0.968986
O O3 0.458499 0.250540 0.031595
O O4 0.500000 0.000000 0.000000
O O5 0.377477 0.455909 0.724927
O O6 0.298413 0.506092 0.498529
O O7 0.397032 0.702712 0.629560
O O8 0.299596 0.697274 0.646334
O O9 0.374953 0.764551 0.099600
O O10 0.287060 0.782224 0.138801
O O11 0.783321 0.442944 0.727892
O O12 0.703553 0.666505 0.673982
O O13 0.682385 0.240646 0.603359
O O14 0.596206 0.025834 0.444729
O O15 0.500000 0.861105 0.250000
#
# Coordination Sequence:
#
# PCOD9267311 Si02
#       7
#     8   8   8   8   8   8   8
#     4   9  19  37  62  87 111 154 211 257 298 357
#     4  11  24  36  58  91 128 166 197 248 316 376
#     4  11  20  38  59  87 122 159 198 253 309 363
#     4  11  22  38  59  90 126 164 206 250 302 380
#     4  10  19  39  59  83 122 156 200 254 308 359
#     4   9  19  35  62  86 109 153 210 251 297 370
#     4  11  22  37  59  89 127 162 206 249 306 377
#
# _framework density 23.592434000000001
#
# number of rings (size 3 to 8) (size 9 to 14) (size 15 to 20)
#    0.000    1.714    1.429    4.714    2.000    1.143 
#    0.000    2.857    0.000    0.000    0.000    0.000 
#    0.000    0.000    0.000    0.000    0.000    0.000 
#
# Total GULP energy -156361.405809 kJ/mol
# GULP energy per Si atom -5584.335922 kJ/mol
# Density = 2.353874 g / cm^3
# Si number density = 23.592434 Si / 1000 Ang^3
#
#
#
# Elastic Constant Matrix: (Units=GPa)
#
#
# Indices 1 2 3 4 5 6 
#
# 1 180.0668 60.3769 33.6518 0.0000 -43.8177 0.0000
# 2 60.3769 86.6012 15.8451 0.0000 -14.0499 0.0000
# 3 33.6518 15.8451 62.3026 0.0000 -13.0061 0.0000
# 4 0.0000 0.0000 0.0000 33.0321 0.0000 -10.0531
# 5 -43.8177 -14.0499 -13.0061 0.0000 37.4498 0.0000
# 6 0.0000 0.0000 0.0000 -10.0531 0.0000 40.2681
#
#
#
# Elastic Compliance Matrix: (Units=1/GPa)
#
#
# Indices 1 2 3 4 5 6 
#
# 1 0.009777 -0.004989 -0.002172 0.000000 0.008813 0.000000
# 2 -0.004989 0.015164 -0.001286 0.000000 -0.000595 0.000000
# 3 -0.002172 -0.001286 0.018242 0.000000 0.003311 0.000000
# 4 0.000000 0.000000 0.000000 0.032763 0.000000 0.008179
# 5 0.008813 -0.000595 0.003311 0.000000 0.037941 0.000000
# 6 0.000000 0.000000 0.000000 0.008179 0.000000 0.026876
#
#
# Mechanical properties :
#
#
# Convention : Reuss Voigt Hill
#
# Bulk Modulus (GPa) = 38.03887 60.96870 49.50378
# Shear Modulus (GPa) = 30.04435 36.75645 33.40040
#
# Velocity S-wave (km/s) = 3.57245 3.95140 3.76669
# Velocity P-wave (km/s) = 5.75976 6.83496 6.32027
#
# Compressibility (1/GPa) = 0.02628890
#
# Stress axis : x y z
#
# Youngs Moduli (GPa) = 102.28183 65.94456 54.81756
#
# Poissons Ratio (x) = 0.32900 0.11907
# Poissons Ratio (y) = 0.51029 0.07050
# Poissons Ratio (z) = 0.22218 0.08481
#
# Static dielectric constant tensor:
#      x y z
#    x 1.847480 0.000000 -0.030120 
#    y 0.000000 1.906530 0.000000 
#    z -0.030120 0.000000 2.008510 
# 
# From -- ./inp_files/176669.got.cif
#   From: 2010.05.17/outbox.cif.g08.bks.cpg/sg15_89_cif.got.tgz:176669.got - 2010.06.03 18:47:42.
