data_PCOD9267139
_publ_section_title
;
Structure prediction by ZEFSAII (Michael W. Deem and Ramdas Pophale) SiO2 
 PCOD9267139
Probable space group: C 2/C
;
_chemical_formula_sum "Si O2"
_cell_formula_units_Z 48
_cell_length_a 14.386725
_cell_length_b 13.940041
_cell_length_c 13.925939
_cell_angle_alpha 90.000000
_cell_angle_beta 48.606107
_cell_angle_gamma 90.000000
_cell_volume 2095.158399
_symmetry_space_group_name_H-M "C 2/C"
_symmetry_group_IT_number 15
_symmetry_cell_setting 'monoclinic'
loop_
_space_group_symop_operation_xyz
x,y,z
-x,y,1/2-z
-x,-y,-z
x,-y,1/2+z
1/2+x,1/2+y,z
1/2-x,1/2+y,1/2-z
1/2-x,1/2-y,-z
1/2+x,1/2-y,1/2+z
loop_
_atom_site_type_symbol
_atom_site_label
_atom_site_fract_x
_atom_site_fract_y
_atom_site_fract_z
Si Si1 0.457524 0.148557 0.887909
Si Si2 0.486520 0.358843 0.609029
Si Si3 0.718761 0.870235 0.433570
Si Si4 0.778577 0.840770 0.617278
Si Si5 0.539719 0.051289 0.334677
Si Si6 0.315701 0.428795 0.888949
O O1 0.500000 0.165586 0.750000
O O2 0.465136 0.250432 0.933261
O O3 0.539939 0.058882 0.867947
O O4 0.317747 0.110026 0.989454
O O5 0.410184 0.378466 0.565041
O O6 0.382313 0.363499 0.764263
O O7 0.595425 0.424736 0.578081
O O8 0.762051 0.854794 0.514793
O O9 0.737644 0.774286 0.359447
O O10 0.572386 0.891239 0.541284
O O11 0.792882 0.966872 0.357664
O O12 0.670016 0.896075 0.747581
O O13 0.500000 0.045949 0.250000
#
# Coordination Sequence:
#
# PCOD9267139 Si02
#       6
#     8   8   8   8   8   8
#     4  10  19  38  66  84 117 164 207 249 306 368
#     4  11  23  36  60  97 125 158 198 266 317 364
#     4   9  20  42  63  84 121 172 203 254 306 369
#     4  10  21  39  61  91 122 157 216 250 306 372
#     4   8  17  36  62  83 111 160 206 246 296 365
#     4  10  22  42  62  88 129 161 204 255 319 366
#
# _framework density 22.909963000000001
#
# number of rings (size 3 to 8) (size 9 to 14) (size 15 to 20)
#    0.000    2.333    1.667    1.500    0.000    3.333 
#   15.000    3.333    0.000    0.000    0.000    0.000 
#    0.000    0.000    0.000    0.000    0.000    0.000 
#
# Total GULP energy -134075.483082 kJ/mol
# GULP energy per Si atom -5586.478462 kJ/mol
# Density = 2.285782 g / cm^3
# Si number density = 22.909963 Si / 1000 Ang^3
#
#
#
# Elastic Constant Matrix: (Units=GPa)
#
#
# Indices 1 2 3 4 5 6 
#
# 1 71.4996 17.2053 20.4988 0.0000 7.9595 0.0000
# 2 17.2053 100.2729 15.6422 0.0000 -18.6179 0.0000
# 3 20.4988 15.6422 45.9653 0.0000 -8.6389 0.0000
# 4 0.0000 0.0000 0.0000 25.8383 0.0000 -7.0191
# 5 7.9595 -18.6179 -8.6389 0.0000 28.0961 0.0000
# 6 0.0000 0.0000 0.0000 -7.0191 0.0000 15.1185
#
#
#
# Elastic Compliance Matrix: (Units=1/GPa)
#
#
# Indices 1 2 3 4 5 6 
#
# 1 0.018648 -0.003750 -0.009022 0.000000 -0.010542 0.000000
# 2 -0.003750 0.012427 -0.000859 0.000000 0.009033 0.000000
# 3 -0.009022 -0.000859 0.028067 0.000000 0.010616 0.000000
# 4 0.000000 0.000000 0.000000 0.044288 0.000000 0.020562
# 5 -0.010542 0.009033 0.010616 0.000000 0.047829 0.000000
# 6 0.000000 0.000000 0.000000 0.020562 0.000000 0.075690
#
#
# Mechanical properties :
#
#
# Convention : Reuss Voigt Hill
#
# Bulk Modulus (GPa) = 31.36644 36.04782 33.70713
# Shear Modulus (GPa) = 18.87951 24.77002 21.82476
#
# Velocity S-wave (km/s) = 2.87378 3.29171 3.08982
# Velocity P-wave (km/s) = 4.97317 5.49690 5.24158
#
# Compressibility (1/GPa) = 0.03188121
#
# Stress axis : x y z
#
# Youngs Moduli (GPa) = 53.62380 80.46722 35.62961
#
# Poissons Ratio (x) = 0.30173 0.32144
# Poissons Ratio (y) = 0.20108 0.03061
# Poissons Ratio (z) = 0.48378 0.06913
#
# Static dielectric constant tensor:
#      x y z
#    x 1.897070 0.000000 0.042190 
#    y 0.000000 1.888760 0.000000 
#    z 0.042190 0.000000 1.807370 
# 
# From -- ./inp_files/153796.got.cif
#   From: 2010.05.17/outbox.cif.g08.bks.cpg/sg15_77_cif.got.tgz:153796.got - 2010.06.03 18:47:42.
