data_PCOD9267094
_publ_section_title
;
Structure prediction by ZEFSAII (Michael W. Deem and Ramdas Pophale) SiO2 
 PCOD9267094
Probable space group: C 2/C
;
_chemical_formula_sum "Si O2"
_cell_formula_units_Z 60
_cell_length_a 8.758607
_cell_length_b 32.313140
_cell_length_c 14.461301
_cell_angle_alpha 90.000000
_cell_angle_beta 39.401732
_cell_angle_gamma 90.000000
_cell_volume 2597.926899
_symmetry_space_group_name_H-M "C 2/C"
_symmetry_group_IT_number 15
_symmetry_cell_setting 'monoclinic'
loop_
_space_group_symop_operation_xyz
x,y,z
-x,y,1/2-z
-x,-y,-z
x,-y,1/2+z
1/2+x,1/2+y,z
1/2-x,1/2+y,1/2-z
1/2-x,1/2-y,-z
1/2+x,1/2-y,1/2+z
loop_
_atom_site_type_symbol
_atom_site_label
_atom_site_fract_x
_atom_site_fract_y
_atom_site_fract_z
Si Si1 0.469826 0.762951 0.066512
Si Si2 0.944095 0.666407 0.102633
Si Si3 0.433507 0.623250 0.931164
Si Si4 0.984791 0.512841 0.115668
Si Si5 0.475981 0.532682 0.656246
Si Si6 0.260484 0.804078 0.335182
Si Si7 0.500000 0.226731 0.250000
Si Si8 0.725310 0.901016 0.713542
O O1 0.365405 0.769718 0.216558
O O2 0.229051 0.754428 0.120083
O O3 0.578454 0.805399 0.976580
O O4 0.628278 0.722211 0.976373
O O5 0.946525 0.697561 0.188477
O O6 0.743594 0.632859 0.221439
O O7 0.188808 0.639186 0.995911
O O8 0.522991 0.582228 0.839961
O O9 0.587907 0.664697 0.864268
O O10 0.425143 0.605958 0.041964
O O11 0.788712 0.481748 0.252822
O O12 0.852597 0.556361 0.201832
O O13 0.000000 0.500000 0.000000
O O14 0.269036 0.518489 0.010829
O O15 0.500000 0.516261 0.750000
O O16 0.500000 0.828396 0.250000
O O17 0.500000 0.891184 0.750000
#
# Coordination Sequence:
#
# PCOD9267094 Si02
#       8
#     8   8   8   8   8   8   4   8
#     4  12  24  39  66  94 131 170 221 280 330 390
#     4  11  19  35  66  96 125 160 216 276 332 376
#     4  11  22  40  65  94 128 166 218 278 323 392
#     4  10  21  40  64  94 128 168 209 266 329 406
#     4  10  22  40  66  96 132 167 213 270 338 400
#     4  12  27  45  61  90 136 183 227 268 331 403
#     4  12  18  38  62 102 122 156 218 282 324 382
#     4  10  19  38  65  89 127 164 207 262 330 386
#
# _framework density 23.095337000000001
#
# number of rings (size 3 to 8) (size 9 to 14) (size 15 to 20)
#    0.000    1.067    7.333    1.600    1.867    0.533 
#    2.400    0.000    2.933    0.000    0.000    0.000 
#    0.000    0.000    0.000    0.000    0.000    0.000 
#
# Total GULP energy -167110.854787 kJ/mol
# GULP energy per Si atom -5570.361826 kJ/mol
# Density = 2.304277 g / cm^3
# Si number density = 23.095337 Si / 1000 Ang^3
#
#
#
# Elastic Constant Matrix: (Units=GPa)
#
#
# Indices 1 2 3 4 5 6 
#
# 1 24.5514 18.9151 25.9736 0.0000 -0.9061 0.0000
# 2 18.9151 85.9306 40.3163 0.0000 -6.7538 0.0000
# 3 25.9736 40.3163 96.2687 0.0000 -6.0652 0.0000
# 4 0.0000 0.0000 0.0000 46.0182 0.0000 6.9825
# 5 -0.9061 -6.7538 -6.0652 0.0000 33.5358 0.0000
# 6 0.0000 0.0000 0.0000 6.9825 0.0000 13.9981
#
#
#
# Elastic Compliance Matrix: (Units=1/GPa)
#
#
# Indices 1 2 3 4 5 6 
#
# 1 0.060377 -0.007165 -0.013430 0.000000 -0.002241 0.000000
# 2 -0.007165 0.015447 -0.004402 0.000000 0.002121 0.000000
# 3 -0.013430 -0.004402 0.015958 0.000000 0.001637 0.000000
# 4 0.000000 0.000000 0.000000 0.023510 0.000000 -0.011727
# 5 -0.002241 0.002121 0.001637 0.000000 0.030481 0.000000
# 6 0.000000 0.000000 0.000000 -0.011727 0.000000 0.077288
#
#
# Mechanical properties :
#
#
# Convention : Reuss Voigt Hill
#
# Bulk Modulus (GPa) = 23.93146 41.90675 32.91910
# Shear Modulus (GPa) = 17.42259 26.81347 22.11803
#
# Velocity S-wave (km/s) = 2.74957 3.41103 3.09800
# Velocity P-wave (km/s) = 4.52379 5.80500 5.20397
#
# Compressibility (1/GPa) = 0.04178601
#
# Stress axis : x y z
#
# Youngs Moduli (GPa) = 16.56270 64.73957 62.66531
#
# Poissons Ratio (x) = 0.46386 0.84162
# Poissons Ratio (y) = 0.11867 0.27586
# Poissons Ratio (z) = 0.22244 0.28499
#
# Static dielectric constant tensor:
#      x y z
#    x 1.985390 0.000000 -0.000570 
#    y 0.000000 1.843720 0.000000 
#    z -0.000570 0.000000 2.064200 
# 
# From -- ./inp_files/201403.got.cif
#   From: 2010.05.17/outbox.cif.g08.bks.cpg/sg15_101_cif.got.tgz:201403.got - 2010.06.03 18:47:42.
