data_PCOD9267693
_publ_section_title
;
Structure prediction by ZEFSAII (Michael W. Deem and Ramdas Pophale) SiO2 
 PCOD9267693
Probable space group: C 2/C
;
_chemical_formula_sum "Si O2"
_cell_formula_units_Z 56
_cell_length_a 8.009097
_cell_length_b 20.511623
_cell_length_c 18.339539
_cell_angle_alpha 90.000000
_cell_angle_beta 119.931267
_cell_angle_gamma 90.000000
_cell_volume 2610.976729
_symmetry_space_group_name_H-M "C 2/C"
_symmetry_group_IT_number 15
_symmetry_cell_setting 'monoclinic'
loop_
_space_group_symop_operation_xyz
x,y,z
-x,y,1/2-z
-x,-y,-z
x,-y,1/2+z
1/2+x,1/2+y,z
1/2-x,1/2+y,1/2-z
1/2-x,1/2-y,-z
1/2+x,1/2-y,1/2+z
loop_
_atom_site_type_symbol
_atom_site_label
_atom_site_fract_x
_atom_site_fract_y
_atom_site_fract_z
Si Si1 0.942556 0.217907 0.119885
Si Si2 0.323755 0.183833 0.054445
Si Si3 0.298855 0.049084 0.253184
Si Si4 0.793636 0.693840 0.291799
Si Si5 0.603042 0.845965 0.484687
Si Si6 0.006001 0.518857 0.586584
Si Si7 0.359229 0.446098 0.932995
O O1 0.809108 0.229030 0.162371
O O2 0.934222 0.278448 0.064286
O O3 0.160179 0.210552 0.194033
O O4 0.825149 0.157711 0.058570
O O5 0.477535 0.203196 0.151344
O O6 0.165621 0.130230 0.046050
O O7 0.250000 0.250000 0.000000
O O8 0.460706 0.151308 0.022629
O O9 0.500000 0.053567 0.250000
O O10 0.268875 0.116003 0.289874
O O11 0.139990 0.045783 0.154670
O O12 0.315336 0.994705 0.319950
O O13 0.558161 0.906511 0.424196
O O14 0.845258 0.473491 0.585671
O O15 0.000000 0.500000 0.500000
O O16 0.500000 0.500000 0.000000
#
# Coordination Sequence:
#
# PCOD9267693 Si02
#       7
#     8   8   8   8   8   8   8
#     4   9  21  36  61  99 121 165 212 282 343 421
#     4  11  23  42  66  91 130 178 231 280 349 418
#     4  10  21  40  64  91 123 178 224 267 339 410
#     4  10  19  40  61  89 127 162 225 268 342 410
#     4  10  21  39  64  94 129 165 219 279 357 404
#     4  11  20  42  69  90 129 174 220 280 344 407
#     4  11  25  43  65  99 135 185 235 284 340 415
#
# _framework density 21.447911000000001
#
# number of rings (size 3 to 8) (size 9 to 14) (size 15 to 20)
#    0.000    1.714    4.286    0.857    4.000    2.286 
#   10.286    0.000    0.000    0.000    0.000    0.000 
#    0.000    0.000    0.000    0.000    0.000    0.000 
#
# Total GULP energy -155946.919194 kJ/mol
# GULP energy per Si atom -5569.532828 kJ/mol
# Density = 2.139909 g / cm^3
# Si number density = 21.447911 Si / 1000 Ang^3
#
#
#
# Elastic Constant Matrix: (Units=GPa)
#
#
# Indices 1 2 3 4 5 6 
#
# 1 83.2712 19.5449 36.4346 0.0000 -7.8411 0.0000
# 2 19.5449 100.2442 70.5188 0.0000 14.6310 0.0000
# 3 36.4346 70.5188 174.4506 0.0000 16.5524 0.0000
# 4 0.0000 0.0000 0.0000 37.2425 0.0000 -2.4914
# 5 -7.8411 14.6310 16.5524 0.0000 37.1625 0.0000
# 6 0.0000 0.0000 0.0000 -2.4914 0.0000 30.8000
#
#
#
# Elastic Compliance Matrix: (Units=1/GPa)
#
#
# Indices 1 2 3 4 5 6 
#
# 1 0.014024 -0.001471 -0.002788 0.000000 0.004780 0.000000
# 2 -0.001471 0.014447 -0.005183 0.000000 -0.003690 0.000000
# 3 -0.002788 -0.005183 0.008637 0.000000 -0.002395 0.000000
# 4 0.000000 0.000000 0.000000 0.026997 0.000000 0.002184
# 5 0.004780 -0.003690 -0.002395 0.000000 0.030437 0.000000
# 6 0.000000 0.000000 0.000000 0.002184 0.000000 0.032644
#
#
# Mechanical properties :
#
#
# Convention : Reuss Voigt Hill
#
# Bulk Modulus (GPa) = 54.86967 67.88472 61.37720
# Shear Modulus (GPa) = 32.86379 36.47217 34.66798
#
# Velocity S-wave (km/s) = 3.91866 4.12819 4.02478
# Velocity P-wave (km/s) = 6.79064 7.37850 7.09066
#
# Compressibility (1/GPa) = 0.01822500
#
# Stress axis : x y z
#
# Youngs Moduli (GPa) = 71.30588 69.21991 115.78396
#
# Poissons Ratio (x) = 0.10180 0.32281
# Poissons Ratio (y) = 0.10487 0.60006
# Poissons Ratio (z) = 0.19880 0.35874
#
# Static dielectric constant tensor:
#      x y z
#    x 1.861410 0.000000 0.042760 
#    y 0.000000 1.824680 0.000000 
#    z 0.042760 0.000000 1.995820 
# 
# From -- ./inp_files/192262.got.cif
#   From: 2010.05.17/outbox.cif.g08.bks.cpg/sg15_97_cif.got.tgz:192262.got - 2010.06.03 18:47:42.
