data_PCOD9267097
_publ_section_title
;
Structure prediction by ZEFSAII (Michael W. Deem and Ramdas Pophale) SiO2 
 PCOD9267097
Probable space group: C 2/C
;
_chemical_formula_sum "Si O2"
_cell_formula_units_Z 56
_cell_length_a 19.085040
_cell_length_b 11.394368
_cell_length_c 12.091239
_cell_angle_alpha 90.000000
_cell_angle_beta 77.101111
_cell_angle_gamma 90.000000
_cell_volume 2563.033495
_symmetry_space_group_name_H-M "C 2/C"
_symmetry_group_IT_number 15
_symmetry_cell_setting 'monoclinic'
loop_
_space_group_symop_operation_xyz
x,y,z
-x,y,1/2-z
-x,-y,-z
x,-y,1/2+z
1/2+x,1/2+y,z
1/2-x,1/2+y,1/2-z
1/2-x,1/2-y,-z
1/2+x,1/2-y,1/2+z
loop_
_atom_site_type_symbol
_atom_site_label
_atom_site_fract_x
_atom_site_fract_y
_atom_site_fract_z
Si Si1 0.645101 0.557060 0.169984
Si Si2 0.819573 0.142821 0.109146
Si Si3 0.003994 0.345588 0.619624
Si Si4 0.118200 0.491164 0.957885
Si Si5 0.251448 0.091918 0.944056
Si Si6 0.959631 0.918229 0.425722
Si Si7 0.237591 0.371304 0.298035
O O1 0.646059 0.633189 0.280189
O O2 0.569173 0.503919 0.160517
O O3 0.695099 0.446269 0.185330
O O4 0.686712 0.617424 0.052328
O O5 0.774186 0.259791 0.121436
O O6 0.767753 0.034875 0.101221
O O7 0.885565 0.129552 0.004302
O O8 0.938006 0.401978 0.575980
O O9 0.000000 0.378873 0.750000
O O10 0.074208 0.407366 0.539254
O O11 0.000553 0.203353 0.615521
O O12 0.166886 0.550211 0.845013
O O13 0.174386 0.423494 0.017181
O O14 0.253571 0.167617 0.832162
O O15 0.000000 0.000000 0.500000
#
# Coordination Sequence:
#
# PCOD9267097 Si02
#       7
#     8   8   8   8   8   8   8
#     4   9  22  39  59  90 120 156 202 252 300 371
#     4  10  21  39  63  89 120 160 200 254 312 357
#     4  11  24  40  62  90 122 168 204 251 301 364
#     4  10  21  40  61  93 124 153 204 252 309 363
#     4   9  20  37  60  91 120 150 197 255 302 369
#     4  11  25  42  60  87 124 168 211 245 300 372
#     4  10  19  38  65  90 119 156 198 255 315 361
#
# _framework density 21.849108000000001
#
# number of rings (size 3 to 8) (size 9 to 14) (size 15 to 20)
#    0.000    2.000    1.429    0.857    4.000    3.429 
#    0.000    0.000    0.000    0.000    0.000    0.000 
#    0.000    0.000    0.000    0.000    0.000    0.000 
#
# Total GULP energy -156420.491468 kJ/mol
# GULP energy per Si atom -5586.446124 kJ/mol
# Density = 2.179938 g / cm^3
# Si number density = 21.849108 Si / 1000 Ang^3
#
#
#
# Elastic Constant Matrix: (Units=GPa)
#
#
# Indices 1 2 3 4 5 6 
#
# 1 82.9040 13.7482 24.6868 0.0000 12.1115 0.0000
# 2 13.7482 51.6337 -1.7463 0.0000 3.9173 0.0000
# 3 24.6868 -1.7463 112.3587 0.0000 7.5120 0.0000
# 4 0.0000 0.0000 0.0000 24.6884 0.0000 -1.3513
# 5 12.1115 3.9173 7.5120 0.0000 25.7568 0.0000
# 6 0.0000 0.0000 0.0000 -1.3513 0.0000 19.9487
#
#
#
# Elastic Compliance Matrix: (Units=1/GPa)
#
#
# Indices 1 2 3 4 5 6 
#
# 1 0.014265 -0.003488 -0.002831 0.000000 -0.005352 0.000000
# 2 -0.003488 0.020475 0.001207 0.000000 -0.001826 0.000000
# 3 -0.002831 0.001207 0.009652 0.000000 -0.001668 0.000000
# 4 0.000000 0.000000 0.000000 0.040656 0.000000 0.002754
# 5 -0.005352 -0.001826 -0.001668 0.000000 0.042105 0.000000
# 6 0.000000 0.000000 0.000000 0.002754 0.000000 0.050315
#
#
# Mechanical properties :
#
#
# Convention : Reuss Voigt Hill
#
# Bulk Modulus (GPa) = 29.26653 35.58597 32.42625
# Shear Modulus (GPa) = 25.11519 28.09261 26.60390
#
# Velocity S-wave (km/s) = 3.39408 3.58963 3.49323
# Velocity P-wave (km/s) = 5.36504 5.78819 5.58063
#
# Compressibility (1/GPa) = 0.03416872
#
# Stress axis : x y z
#
# Youngs Moduli (GPa) = 70.09988 48.83935 103.60269
#
# Poissons Ratio (x) = 0.17036 0.29327
# Poissons Ratio (y) = 0.24451 -0.12502
# Poissons Ratio (z) = 0.19843 -0.05893
#
# Static dielectric constant tensor:
#      x y z
#    x 1.762410 0.000000 -0.019730 
#    y 0.000000 1.841540 0.000000 
#    z -0.019730 0.000000 1.865850 
# 
# From -- ./inp_files/110974.got.cif
#   From: 2010.05.17/outbox.cif.g08.bks.cpg/sg15_56_cif.got.tgz:110974.got - 2010.06.03 18:47:42.
