data_PCOD9267580
_publ_section_title
;
Structure prediction by ZEFSAII (Michael W. Deem and Ramdas Pophale) SiO2 
 PCOD9267580
Probable space group: C 2/C
;
_chemical_formula_sum "Si O2"
_cell_formula_units_Z 56
_cell_length_a 16.016703
_cell_length_b 9.927901
_cell_length_c 16.513200
_cell_angle_alpha 90.000000
_cell_angle_beta 97.090413
_cell_angle_gamma 90.000000
_cell_volume 2605.720415
_symmetry_space_group_name_H-M "C 2/C"
_symmetry_group_IT_number 15
_symmetry_cell_setting 'monoclinic'
loop_
_space_group_symop_operation_xyz
x,y,z
-x,y,1/2-z
-x,-y,-z
x,-y,1/2+z
1/2+x,1/2+y,z
1/2-x,1/2+y,1/2-z
1/2-x,1/2-y,-z
1/2+x,1/2-y,1/2+z
loop_
_atom_site_type_symbol
_atom_site_label
_atom_site_fract_x
_atom_site_fract_y
_atom_site_fract_z
Si Si1 0.458469 0.748963 0.414627
Si Si2 0.226602 0.075456 0.319582
Si Si3 0.463146 0.227230 0.408747
Si Si4 0.589407 0.000645 0.691629
Si Si5 0.576481 0.495132 0.195504
Si Si6 0.300312 0.114531 0.485107
Si Si7 0.872903 0.661608 0.649000
O O1 0.468568 0.747335 0.512815
O O2 0.413868 0.884674 0.378582
O O3 0.418625 0.619880 0.366515
O O4 0.553081 0.758890 0.388828
O O5 0.242789 0.032615 0.415498
O O6 0.190277 0.227240 0.321957
O O7 0.318548 0.067731 0.292096
O O8 0.160433 0.991320 0.259809
O O9 0.439968 0.362792 0.359343
O O10 0.382831 0.163709 0.446462
O O11 0.477677 0.112066 0.343391
O O12 0.585048 0.081575 0.773993
O O13 0.500000 0.515946 0.250000
O O14 0.250000 0.250000 0.500000
O O15 0.329276 0.066019 0.576701
#
# Coordination Sequence:
#
# PCOD9267580 Si02
#       7
#     8   8   8   8   8   8   8
#     4  11  21  43  65  91 120 173 217 251 301 392
#     4  10  21  36  58  90 122 153 207 256 313 358
#     4  10  24  38  60  95 127 158 206 268 322 359
#     4  11  22  37  65  93 121 160 208 266 311 369
#     4  12  23  39  61  90 128 167 209 258 315 378
#     4   8  18  36  60  88 114 160 204 255 299 375
#     4  10  19  39  67  90 119 163 220 251 304 382
#
# _framework density 21.491177
#
# number of rings (size 3 to 8) (size 9 to 14) (size 15 to 20)
#    0.000    1.714    2.857    1.286    6.000    1.143 
#    0.000    0.000    0.000    1.714    0.000    0.000 
#    0.000    0.000    0.000    0.000    0.000    0.000 
#
# Total GULP energy -156179.503839 kJ/mol
# GULP energy per Si atom -5577.839423 kJ/mol
# Density = 2.144226 g / cm^3
# Si number density = 21.491177 Si / 1000 Ang^3
#
#
#
# Elastic Constant Matrix: (Units=GPa)
#
#
# Indices 1 2 3 4 5 6 
#
# 1 43.2655 3.5564 13.0545 0.0000 17.1089 0.0000
# 2 3.5564 106.7600 55.0037 0.0000 10.4257 0.0000
# 3 13.0545 55.0037 199.1425 0.0000 40.8129 0.0000
# 4 0.0000 0.0000 0.0000 23.6617 0.0000 5.3049
# 5 17.1089 10.4257 40.8129 0.0000 30.3004 0.0000
# 6 0.0000 0.0000 0.0000 5.3049 0.0000 21.1715
#
#
#
# Elastic Compliance Matrix: (Units=1/GPa)
#
#
# Indices 1 2 3 4 5 6 
#
# 1 0.030386 -0.000169 0.002153 0.000000 -0.020000 0.000000
# 2 -0.000169 0.010926 -0.003116 0.000000 0.000533 0.000000
# 3 0.002153 -0.003116 0.007971 0.000000 -0.010880 0.000000
# 4 0.000000 0.000000 0.000000 0.044778 0.000000 -0.011220
# 5 -0.020000 0.000533 -0.010880 0.000000 0.058767 0.000000
# 6 0.000000 0.000000 0.000000 -0.011220 0.000000 0.050044
#
#
# Mechanical properties :
#
#
# Convention : Reuss Voigt Hill
#
# Bulk Modulus (GPa) = 21.26739 54.71083 37.98911
# Shear Modulus (GPa) = 22.64421 33.53029 28.08725
#
# Velocity S-wave (km/s) = 3.24952 3.95421 3.61906
# Velocity P-wave (km/s) = 4.89863 6.80884 5.93114
#
# Compressibility (1/GPa) = 0.04702034
#
# Stress axis : x y z
#
# Youngs Moduli (GPa) = 32.91004 91.52732 125.45884
#
# Poissons Ratio (x) = 0.01543 -0.27017
# Poissons Ratio (y) = 0.00555 0.39091
# Poissons Ratio (z) = -0.07087 0.28518
#
# Static dielectric constant tensor:
#      x y z
#    x 1.830040 0.000000 -0.015670 
#    y 0.000000 1.761600 0.000000 
#    z -0.015670 0.000000 1.879490 
# 
# From -- ./inp_files/209653.got.cif
#   From: 2010.05.17/outbox.cif.g08.bks.cpg/sg15_105_cif.got.tgz:209653.got - 2010.06.03 18:47:42.
