data_PCOD9267782
_publ_section_title
;
Structure prediction by ZEFSAII (Michael W. Deem and Ramdas Pophale) SiO2 
 PCOD9267782
Probable space group: C 2/C
;
_chemical_formula_sum "Si O2"
_cell_formula_units_Z 64
_cell_length_a 18.091588
_cell_length_b 12.414176
_cell_length_c 29.454403
_cell_angle_alpha 90.000000
_cell_angle_beta 151.807418
_cell_angle_gamma 90.000000
_cell_volume 3125.276182
_symmetry_space_group_name_H-M "C 2/C"
_symmetry_group_IT_number 15
_symmetry_cell_setting 'monoclinic'
loop_
_space_group_symop_operation_xyz
x,y,z
-x,y,1/2-z
-x,-y,-z
x,-y,1/2+z
1/2+x,1/2+y,z
1/2-x,1/2+y,1/2-z
1/2-x,1/2-y,-z
1/2+x,1/2-y,1/2+z
loop_
_atom_site_type_symbol
_atom_site_label
_atom_site_fract_x
_atom_site_fract_y
_atom_site_fract_z
Si Si1 0.737113 0.352033 0.902112
Si Si2 0.419660 0.778920 0.113076
Si Si3 0.324147 0.997793 0.034002
Si Si4 0.830984 0.150981 0.313871
Si Si5 0.413124 0.802915 0.438287
Si Si6 0.000345 0.050432 0.886610
Si Si7 0.130367 0.967561 0.284572
Si Si8 0.498592 0.800948 0.907810
O O1 0.616431 0.264347 0.856200
O O2 0.672812 0.412634 0.823515
O O3 0.760912 0.445540 0.952899
O O4 0.913399 0.312713 0.989072
O O5 0.545813 0.712959 0.152477
O O6 0.440256 0.906964 0.117126
O O7 0.250000 0.750000 0.000000
O O8 0.388442 0.115397 0.057029
O O9 0.177038 0.009219 0.987449
O O10 0.829981 0.212285 0.361835
O O11 0.671069 0.154606 0.198865
O O12 0.887760 0.029087 0.353024
O O13 0.293175 0.902866 0.370234
O O14 0.450037 0.795257 0.511802
O O15 0.946633 0.033825 0.805910
O O16 0.996532 0.176754 0.892448
O O17 0.000000 0.924824 0.250000
#
# Coordination Sequence:
#
# PCOD9267782 Si02
#       8
#     8   8   8   8   8   8   8   8
#     4  11  20  37  67  98 127 163 213 278 339 390
#     4  10  19  40  65 100 130 172 204 272 350 389
#     4  11  21  41  67  94 130 174 217 274 338 403
#     4  12  24  42  68  97 136 175 221 279 340 396
#     4  12  24  42  63  96 134 175 219 278 335 391
#     4  12  24  43  65  97 133 181 225 272 338 405
#     4  12  22  38  65  99 133 162 222 284 332 399
#     4  12  28  40  66 100 133 180 229 270 331 413
#
# _framework density 20.478190000000001
#
# number of rings (size 3 to 8) (size 9 to 14) (size 15 to 20)
#    0.000    0.500    8.750    1.500    3.500    0.500 
#    0.000    0.000    0.000    0.000    0.000    0.000 
#    0.000    0.000    0.000    0.000    0.000    0.000 
#
# Total GULP energy -178530.657472 kJ/mol
# GULP energy per Si atom -5579.083046 kJ/mol
# Density = 2.043158 g / cm^3
# Si number density = 20.478190 Si / 1000 Ang^3
#
#
#
# Elastic Constant Matrix: (Units=GPa)
#
#
# Indices 1 2 3 4 5 6 
#
# 1 44.2380 23.2964 19.8672 0.0000 -13.3280 0.0000
# 2 23.2964 122.4236 13.8855 0.0001 -16.5818 0.0000
# 3 19.8672 13.8855 77.1570 0.0006 -11.5627 0.0000
# 4 0.0000 0.0001 0.0006 20.0697 0.0001 7.9713
# 5 -13.3280 -16.5818 -11.5627 0.0001 23.5361 0.0000
# 6 0.0000 0.0000 0.0000 7.9713 0.0000 26.2846
#
#
#
# Elastic Compliance Matrix: (Units=1/GPa)
#
#
# Indices 1 2 3 4 5 6 
#
# 1 0.030568 -0.003558 -0.005411 0.000000 0.012145 0.000000
# 2 -0.003558 0.009482 -0.000098 0.000000 0.004617 0.000000
# 3 -0.005411 -0.000098 0.015007 -0.000001 0.004239 0.000000
# 4 0.000000 0.000000 -0.000001 0.056650 0.000000 -0.017180
# 5 0.012145 0.004617 0.004239 0.000000 0.054701 0.000000
# 6 0.000000 0.000000 0.000000 -0.017180 0.000000 0.043255
#
#
# Mechanical properties :
#
#
# Convention : Reuss Voigt Hill
#
# Bulk Modulus (GPa) = 27.08381 39.76852 33.42617
# Shear Modulus (GPa) = 20.82429 26.42938 23.62684
#
# Velocity S-wave (km/s) = 3.19235 3.59640 3.40038
# Velocity P-wave (km/s) = 5.18098 6.05868 5.63694
#
# Compressibility (1/GPa) = 0.03692242
#
# Stress axis : x y z
#
# Youngs Moduli (GPa) = 32.71432 105.46336 66.63668
#
# Poissons Ratio (x) = 0.37525 0.36054
# Poissons Ratio (y) = 0.11640 0.00655
# Poissons Ratio (z) = 0.17700 0.01037
#
# Static dielectric constant tensor:
#      x y z
#    x 1.787160 0.000000 -0.001530 
#    y 0.000000 1.771390 0.000000 
#    z -0.001530 0.000000 1.756490 
# 
# From -- ./inp_files/316222.got.cif
#   From: 2010.05.17/outbox.cif.g08.bks.cpg/sg15_159_cif.got.tgz:316222.got - 2010.06.03 18:47:42.
