data_PCOD9267608
_publ_section_title
;
Structure prediction by ZEFSAII (Michael W. Deem and Ramdas Pophale) SiO2 
 PCOD9267608
Probable space group: C 2/C
;
_chemical_formula_sum "Si O2"
_cell_formula_units_Z 48
_cell_length_a 28.978787
_cell_length_b 11.206736
_cell_length_c 16.207334
_cell_angle_alpha 90.000000
_cell_angle_beta 154.735794
_cell_angle_gamma 90.000000
_cell_volume 2246.405699
_symmetry_space_group_name_H-M "C 2/C"
_symmetry_group_IT_number 15
_symmetry_cell_setting 'monoclinic'
loop_
_space_group_symop_operation_xyz
x,y,z
-x,y,1/2-z
-x,-y,-z
x,-y,1/2+z
1/2+x,1/2+y,z
1/2-x,1/2+y,1/2-z
1/2-x,1/2-y,-z
1/2+x,1/2-y,1/2+z
loop_
_atom_site_type_symbol
_atom_site_label
_atom_site_fract_x
_atom_site_fract_y
_atom_site_fract_z
Si Si1 0.921797 0.563269 0.227375
Si Si2 0.867413 0.311740 0.399945
Si Si3 0.484018 0.809757 0.316513
Si Si4 0.352957 0.053145 0.297941
Si Si5 0.241861 0.776299 0.356846
Si Si6 0.995774 0.856897 0.985499
O O1 0.906898 0.425370 0.178436
O O2 0.922711 0.562695 0.328234
O O3 0.036215 0.624410 0.392260
O O4 0.825877 0.644607 0.041574
O O5 0.829210 0.416731 0.277528
O O6 0.771550 0.287581 0.308393
O O7 0.922876 0.203457 0.439768
O O8 0.500000 0.761983 0.250000
O O9 0.583788 0.880967 0.524041
O O10 0.453942 0.705696 0.332431
O O11 0.249790 0.135283 0.113205
O O12 0.121839 0.816311 0.189285
O O13 0.000000 0.000000 0.000000
#
# Coordination Sequence:
#
# PCOD9267608 Si02
#       6
#     8   8   8   8   8   8
#     4  11  18  40  66 102 128 165 225 281 330 394
#     4  11  21  41  64  92 131 172 215 273 341 392
#     4  10  19  39  68  91 124 176 221 266 325 400
#     4  10  20  38  64  93 129 168 214 276 334 390
#     4  11  24  36  67  98 128 171 225 275 330 403
#     4  11  25  46  62  91 139 175 217 281 339 395
#
# _framework density 21.367466
#
# number of rings (size 3 to 8) (size 9 to 14) (size 15 to 20)
#    0.000    1.333    5.000    4.000    2.333    0.000 
#    0.000    5.833    0.000    0.000    0.000    0.000 
#    0.000    0.000    0.000    0.000    0.000    0.000 
#
# Total GULP energy -133732.509994 kJ/mol
# GULP energy per Si atom -5572.187916 kJ/mol
# Density = 2.131883 g / cm^3
# Si number density = 21.367466 Si / 1000 Ang^3
#
#
#
# Elastic Constant Matrix: (Units=GPa)
#
#
# Indices 1 2 3 4 5 6 
#
# 1 112.5516 34.1058 16.2148 0.0000 -10.8273 0.0000
# 2 34.1058 177.9596 24.3125 0.0000 0.8236 0.0000
# 3 16.2148 24.3125 37.8899 0.0000 -0.1865 0.0000
# 4 0.0000 0.0000 0.0000 35.6050 0.0000 -0.3006
# 5 -10.8273 0.8236 -0.1865 0.0000 28.6734 0.0000
# 6 0.0000 0.0000 0.0000 -0.3006 0.0000 26.3850
#
#
#
# Elastic Compliance Matrix: (Units=1/GPa)
#
#
# Indices 1 2 3 4 5 6 
#
# 1 0.010202 -0.001512 -0.003377 0.000000 0.003874 0.000000
# 2 -0.001512 0.006384 -0.003453 0.000000 -0.000777 0.000000
# 3 -0.003377 -0.003453 0.030048 0.000000 -0.000981 0.000000
# 4 0.000000 0.000000 0.000000 0.028089 0.000000 0.000320
# 5 0.003874 -0.000777 -0.000981 0.000000 0.036354 0.000000
# 6 0.000000 0.000000 0.000000 0.000320 0.000000 0.037904
#
#
# Mechanical properties :
#
#
# Convention : Reuss Voigt Hill
#
# Bulk Modulus (GPa) = 33.38813 53.07417 43.23115
# Shear Modulus (GPa) = 28.46577 35.05055 31.75816
#
# Velocity S-wave (km/s) = 3.65389 4.05454 3.85942
# Velocity P-wave (km/s) = 5.78454 6.84191 6.33532
#
# Compressibility (1/GPa) = 0.02995077
#
# Stress axis : x y z
#
# Youngs Moduli (GPa) = 98.01927 156.63203 33.27957
#
# Poissons Ratio (x) = 0.23680 0.11238
# Poissons Ratio (y) = 0.14819 0.11493
# Poissons Ratio (z) = 0.33099 0.54092
#
# Static dielectric constant tensor:
#      x y z
#    x 1.873720 0.000000 0.002000 
#    y 0.000000 1.856370 0.000000 
#    z 0.002000 0.000000 1.852940 
# 
# From -- ./inp_files/177895.got.cif
#   From: 2010.05.17/outbox.cif.g08.bks.cpg/sg15_89_cif.got.tgz:177895.got - 2010.06.03 18:47:42.
