data_PCOD9267965
_publ_section_title
;
Structure prediction by ZEFSAII (Michael W. Deem and Ramdas Pophale) SiO2 
 PCOD9267965
Probable space group: C 2/C
;
_chemical_formula_sum "Si O2"
_cell_formula_units_Z 60
_cell_length_a 10.625794
_cell_length_b 16.891843
_cell_length_c 15.645728
_cell_angle_alpha 90.000000
_cell_angle_beta 88.060614
_cell_angle_gamma 90.000000
_cell_volume 2806.631298
_symmetry_space_group_name_H-M "C 2/C"
_symmetry_group_IT_number 15
_symmetry_cell_setting 'monoclinic'
loop_
_space_group_symop_operation_xyz
x,y,z
-x,y,1/2-z
-x,-y,-z
x,-y,1/2+z
1/2+x,1/2+y,z
1/2-x,1/2+y,1/2-z
1/2-x,1/2-y,-z
1/2+x,1/2-y,1/2+z
loop_
_atom_site_type_symbol
_atom_site_label
_atom_site_fract_x
_atom_site_fract_y
_atom_site_fract_z
Si Si1 0.500000 0.357365 0.750000
Si Si2 0.551354 0.558935 0.099934
Si Si3 0.774594 0.019880 0.623960
Si Si4 0.754280 0.434463 0.035377
Si Si5 0.101151 0.232454 0.549514
Si Si6 0.862684 0.578134 0.711399
Si Si7 0.169237 0.745794 0.860222
Si Si8 0.843030 0.817588 0.035215
O O1 0.410118 0.411188 0.808391
O O2 0.583301 0.307013 0.812458
O O3 0.413151 0.520753 0.114998
O O4 0.640953 0.492772 0.062239
O O5 0.577255 0.634216 0.038726
O O6 0.723308 0.029491 0.720672
O O7 0.777939 0.110770 0.588215
O O8 0.698615 0.965383 0.557555
O O9 0.679383 0.350554 0.037474
O O10 0.850955 0.445473 0.111712
O O11 0.102308 0.270610 0.454442
O O12 0.192346 0.275204 0.615168
O O13 0.959083 0.221928 0.583472
O O14 0.820663 0.669889 0.701364
O O15 0.000000 0.576457 0.750000
O O16 0.750000 0.750000 0.000000
#
# Coordination Sequence:
#
# PCOD9267965 Si02
#       8
#     4   8   8   8   8   8   8   8
#     4  12  20  34  66  94 126 170 226 280 350 396
#     4  11  21  39  67  96 126 167 234 284 331 418
#     4  11  22  41  67  96 133 177 230 289 351 409
#     4  10  20  42  66  95 126 175 231 283 338 414
#     4  10  19  41  63  89 131 174 218 278 354 420
#     4  11  25  39  61  95 137 172 234 286 350 424
#     4  10  22  36  60  92 131 172 221 284 346 420
#     4  11  22  36  67  97 131 172 226 284 349 421
#
# _framework density 21.377941
#
# number of rings (size 3 to 8) (size 9 to 14) (size 15 to 20)
#    0.000    1.333    4.667    1.600    3.733    0.533 
#    0.000    0.000   11.733    0.000    0.000    0.000 
#    0.000    0.000    0.000    0.000    0.000    0.000 
#
# Total GULP energy -167063.814915 kJ/mol
# GULP energy per Si atom -5568.793830 kJ/mol
# Density = 2.132928 g / cm^3
# Si number density = 21.377941 Si / 1000 Ang^3
#
#
#
# Elastic Constant Matrix: (Units=GPa)
#
#
# Indices 1 2 3 4 5 6 
#
# 1 87.0166 37.5040 28.7423 0.0000 35.4674 0.0000
# 2 37.5040 80.9486 39.0545 0.0000 8.7874 0.0000
# 3 28.7423 39.0545 113.2780 0.0000 24.9780 0.0000
# 4 0.0000 0.0000 0.0000 35.3551 0.0000 0.9159
# 5 35.4674 8.7874 24.9780 0.0000 29.3008 0.0000
# 6 0.0000 0.0000 0.0000 0.9159 0.0000 24.2733
#
#
#
# Elastic Compliance Matrix: (Units=1/GPa)
#
#
# Indices 1 2 3 4 5 6 
#
# 1 0.030347 -0.012313 0.004717 0.000000 -0.037063 0.000000
# 2 -0.012313 0.019814 -0.006999 0.000000 0.014928 0.000000
# 3 0.004717 -0.006999 0.013349 0.000000 -0.014991 0.000000
# 4 0.000000 0.000000 0.000000 0.028312 0.000000 -0.001068
# 5 -0.037063 0.014928 -0.014991 0.000000 0.087294 0.000000
# 6 0.000000 0.000000 0.000000 -0.001068 0.000000 0.041238
#
#
# Mechanical properties :
#
#
# Convention : Reuss Voigt Hill
#
# Bulk Modulus (GPa) = 29.13531 54.64941 41.89236
# Shear Modulus (GPa) = 19.15831 29.51534 24.33683
#
# Velocity S-wave (km/s) = 2.99686 3.71973 3.37769
# Velocity P-wave (km/s) = 5.06292 6.63834 5.90342
#
# Compressibility (1/GPa) = 0.03432261
#
# Stress axis : x y z
#
# Youngs Moduli (GPa) = 32.95217 50.46906 74.90967
#
# Poissons Ratio (x) = 0.62140 -0.35337
# Poissons Ratio (y) = 0.40572 0.52427
# Poissons Ratio (z) = -0.15545 0.35322
#
# Static dielectric constant tensor:
#      x y z
#    x 1.811790 0.000000 0.055200 
#    y 0.000000 1.890590 0.000000 
#    z 0.055200 0.000000 1.865370 
# 
# From -- ./inp_files/145662.got.cif
#   From: 2010.05.17/outbox.cif.g08.bks.cpg/sg15_73_cif.got.tgz:145662.got - 2010.06.03 18:47:42.
