data_PCOD9267636
_publ_section_title
;
Structure prediction by ZEFSAII (Michael W. Deem and Ramdas Pophale) SiO2 
 PCOD9267636
Probable space group: C 2/C
;
_chemical_formula_sum "Si O2"
_cell_formula_units_Z 44
_cell_length_a 8.114421
_cell_length_b 12.298189
_cell_length_c 23.447372
_cell_angle_alpha 90.000000
_cell_angle_beta 60.434894
_cell_angle_gamma 90.000000
_cell_volume 2035.213959
_symmetry_space_group_name_H-M "C 2/C"
_symmetry_group_IT_number 15
_symmetry_cell_setting 'monoclinic'
loop_
_space_group_symop_operation_xyz
x,y,z
-x,y,1/2-z
-x,-y,-z
x,-y,1/2+z
1/2+x,1/2+y,z
1/2-x,1/2+y,1/2-z
1/2-x,1/2-y,-z
1/2+x,1/2-y,1/2+z
loop_
_atom_site_type_symbol
_atom_site_label
_atom_site_fract_x
_atom_site_fract_y
_atom_site_fract_z
Si Si1 0.018269 0.344268 0.528308
Si Si2 0.921991 0.446338 0.431653
Si Si3 0.924293 0.869750 0.860381
Si Si4 0.399429 0.144106 0.709103
Si Si5 0.980589 0.122062 0.482139
Si Si6 0.000000 0.950632 0.250000
O O1 0.051137 0.406398 0.462161
O O2 0.800387 0.351336 0.588738
O O3 0.063146 0.220135 0.505755
O O4 0.123334 0.426326 0.553238
O O5 0.746254 0.366000 0.469810
O O6 0.014867 0.426865 0.356158
O O7 0.015286 0.878627 0.908325
O O8 0.029454 0.766886 0.814241
O O9 0.946323 0.971029 0.813072
O O10 0.500000 0.108502 0.750000
O O11 0.175316 0.122973 0.742089
O O12 0.000000 0.000000 0.500000
#
# Coordination Sequence:
#
# PCOD9267636 Si02
#       6
#     8   8   8   8   8   4
#     4  10  19  39  70  94 127 179 224 286 360 403
#     4  10  20  39  67  97 128 179 231 280 351 414
#     4  11  22  44  68  97 140 183 231 294 353 413
#     4  12  25  46  73 100 139 191 239 287 351 423
#     4  11  23  37  66 105 138 175 230 295 359 423
#     4  12  28  46  70 104 142 192 238 290 348 426
#
# _framework density 21.619349
#
# number of rings (size 3 to 8) (size 9 to 14) (size 15 to 20)
#    0.000    1.091    6.364    1.091    2.545    0.727 
#    1.636    1.818    0.000    0.000    0.000    0.000 
#    0.000    0.000    0.000    0.000    0.000    0.000 
#
# Total GULP energy -122658.360631 kJ/mol
# GULP energy per Si atom -5575.380029 kJ/mol
# Density = 2.157014 g / cm^3
# Si number density = 21.619349 Si / 1000 Ang^3
#
#
#
# Elastic Constant Matrix: (Units=GPa)
#
#
# Indices 1 2 3 4 5 6 
#
# 1 91.0449 45.5638 46.6380 0.0000 -3.4656 0.0000
# 2 45.5638 148.5789 34.4366 0.0000 -6.4092 0.0000
# 3 46.6380 34.4366 120.4996 0.0000 4.4272 0.0000
# 4 0.0000 0.0000 0.0000 29.9805 0.0000 -4.9154
# 5 -3.4656 -6.4092 4.4272 0.0000 19.0523 0.0000
# 6 0.0000 0.0000 0.0000 -4.9154 0.0000 39.7205
#
#
#
# Elastic Compliance Matrix: (Units=1/GPa)
#
#
# Indices 1 2 3 4 5 6 
#
# 1 0.015413 -0.003424 -0.005091 0.000000 0.002835 0.000000
# 2 -0.003424 0.008134 -0.001086 0.000000 0.002366 0.000000
# 3 -0.005091 -0.001086 0.010719 0.000000 -0.003782 0.000000
# 4 0.000000 0.000000 0.000000 0.034046 0.000000 0.004213
# 5 0.002835 0.002366 -0.003782 0.000000 0.054677 0.000000
# 6 0.000000 0.000000 0.000000 0.004213 0.000000 0.025697
#
#
# Mechanical properties :
#
#
# Convention : Reuss Voigt Hill
#
# Bulk Modulus (GPa) = 66.38844 68.15557 67.27200
# Shear Modulus (GPa) = 28.91666 33.31634 31.11650
#
# Velocity S-wave (km/s) = 3.66120 3.92987 3.79791
# Velocity P-wave (km/s) = 6.97475 7.22396 7.10044
#
# Compressibility (1/GPa) = 0.01506286
#
# Stress axis : x y z
#
# Youngs Moduli (GPa) = 64.87980 122.93484 93.29613
#
# Poissons Ratio (x) = 0.42098 0.47497
# Poissons Ratio (y) = 0.22218 0.10134
# Poissons Ratio (z) = 0.33030 0.13353
#
# Static dielectric constant tensor:
#      x y z
#    x 1.937070 0.000000 -0.021720 
#    y 0.000000 1.808820 0.000000 
#    z -0.021720 0.000000 1.760850 
# 
# From -- ./inp_files/230309.got.cif
#   From: 2010.05.17/outbox.cif.g08.bks.cpg/sg15_116_cif.got.tgz:230309.got - 2010.06.03 18:47:42.
