data_PCOD9267156
_publ_section_title
;
Structure prediction by ZEFSAII (Michael W. Deem and Ramdas Pophale) SiO2 
 PCOD9267156
Probable space group: C 2/C
;
_chemical_formula_sum "Si O2"
_cell_formula_units_Z 56
_cell_length_a 7.127728
_cell_length_b 21.042845
_cell_length_c 20.521468
_cell_angle_alpha 90.000000
_cell_angle_beta 50.492867
_cell_angle_gamma 90.000000
_cell_volume 2374.791466
_symmetry_space_group_name_H-M "C 2/C"
_symmetry_group_IT_number 15
_symmetry_cell_setting 'monoclinic'
loop_
_space_group_symop_operation_xyz
x,y,z
-x,y,1/2-z
-x,-y,-z
x,-y,1/2+z
1/2+x,1/2+y,z
1/2-x,1/2+y,1/2-z
1/2-x,1/2-y,-z
1/2+x,1/2-y,1/2+z
loop_
_atom_site_type_symbol
_atom_site_label
_atom_site_fract_x
_atom_site_fract_y
_atom_site_fract_z
Si Si1 0.500000 0.310741 0.250000
Si Si2 0.488531 0.483412 0.890309
Si Si3 0.716457 0.640280 0.299085
Si Si4 0.617801 0.255584 0.920511
Si Si5 0.500000 0.738218 0.250000
Si Si6 0.179637 0.462166 0.075224
Si Si7 0.219768 0.423956 0.253516
Si Si8 0.731905 0.685297 0.921538
O O1 0.631303 0.272388 0.163037
O O2 0.301298 0.356288 0.261581
O O3 0.562766 0.423852 0.829754
O O4 0.683000 0.488451 0.907610
O O5 0.551567 0.543977 0.832303
O O6 0.242920 0.476236 0.986200
O O7 0.602230 0.678336 0.384725
O O8 0.676584 0.689910 0.249620
O O9 0.000000 0.626930 0.250000
O O10 0.415743 0.206054 0.939097
O O11 0.525717 0.279168 0.010763
O O12 0.647791 0.782527 0.167922
O O13 0.277210 0.390976 0.072485
O O14 0.899835 0.461705 0.159560
O O15 0.000000 0.422380 0.250000
#
# Coordination Sequence:
#
# PCOD9267156 Si02
#       8
#     4   8   8   8   4   8   8   8
#     4  12  22  41  66  99 126 168 222 260 320 396
#     4  10  22  38  63  93 125 168 218 262 323 378
#     4  11  21  41  61  91 132 166 205 270 317 382
#     4  10  21  37  65  95 132 170 213 265 336 382
#     4  10  26  37  66  95 124 170 218 252 330 394
#     4  10  19  38  66  92 120 171 220 257 317 391
#     4  10  23  40  64  94 124 168 216 269 317 377
#     4  10  20  40  64  96 130 175 213 268 328 391
#
# _framework density 23.581018
#
# number of rings (size 3 to 8) (size 9 to 14) (size 15 to 20)
#    0.000    1.714    3.571    1.286    3.000    0.571 
#    0.000    7.143    0.000    0.000    0.000    0.000 
#    0.000    0.000    0.000    0.000    0.000    0.000 
#
# Total GULP energy -156292.451614 kJ/mol
# GULP energy per Si atom -5581.873272 kJ/mol
# Density = 2.352735 g / cm^3
# Si number density = 23.581018 Si / 1000 Ang^3
#
#
#
# Elastic Constant Matrix: (Units=GPa)
#
#
# Indices 1 2 3 4 5 6 
#
# 1 58.1932 0.7021 18.7641 0.0000 -10.0982 0.0000
# 2 0.7021 78.4313 38.3496 0.0000 13.9769 0.0000
# 3 18.7641 38.3496 186.7961 0.0000 6.2826 0.0000
# 4 0.0000 0.0000 0.0000 37.3435 0.0000 -2.5404
# 5 -10.0982 13.9769 6.2826 0.0000 15.0098 0.0000
# 6 0.0000 0.0000 0.0000 -2.5404 0.0000 12.1017
#
#
#
# Elastic Compliance Matrix: (Units=1/GPa)
#
#
# Indices 1 2 3 4 5 6 
#
# 1 0.020870 -0.002115 -0.002232 0.000000 0.016944 0.000000
# 2 -0.002115 0.016970 -0.002731 0.000000 -0.016082 0.000000
# 3 -0.002232 -0.002731 0.006190 0.000000 -0.001550 0.000000
# 4 0.000000 0.000000 0.000000 0.027166 0.000000 0.005703
# 5 0.016944 -0.016082 -0.001550 0.000000 0.093647 0.000000
# 6 0.000000 0.000000 0.000000 0.005703 0.000000 0.083830
#
#
# Mechanical properties :
#
#
# Convention : Reuss Voigt Hill
#
# Bulk Modulus (GPa) = 33.47311 48.78357 41.12834
# Shear Modulus (GPa) = 18.32934 30.59801 24.46367
#
# Velocity S-wave (km/s) = 2.79102 3.60609 3.22441
# Velocity P-wave (km/s) = 4.96106 6.17017 5.59836
#
# Compressibility (1/GPa) = 0.02987473
#
# Stress axis : x y z
#
# Youngs Moduli (GPa) = 47.91641 58.92743 161.54079
#
# Poissons Ratio (x) = 0.12463 0.36057
# Poissons Ratio (y) = 0.10134 0.44111
# Poissons Ratio (z) = 0.10695 0.16091
#
# Static dielectric constant tensor:
#      x y z
#    x 1.976340 0.000000 0.005970 
#    y 0.000000 1.877970 0.000000 
#    z 0.005970 0.000000 1.984610 
# 
# From -- ./inp_files/266390.got.cif
#   From: 2010.05.17/outbox.cif.g08.bks.cpg/sg15_134_cif.got.tgz:266390.got - 2010.06.03 18:47:42.
