data_PCOD9267827
_publ_section_title
;
Structure prediction by ZEFSAII (Michael W. Deem and Ramdas Pophale) SiO2 
 PCOD9267827
Probable space group: C 2/C
;
_chemical_formula_sum "Si O2"
_cell_formula_units_Z 52
_cell_length_a 8.698447
_cell_length_b 17.537477
_cell_length_c 17.582375
_cell_angle_alpha 90.000000
_cell_angle_beta 60.888302
_cell_angle_gamma 90.000000
_cell_volume 2343.339669
_symmetry_space_group_name_H-M "C 2/C"
_symmetry_group_IT_number 15
_symmetry_cell_setting 'monoclinic'
loop_
_space_group_symop_operation_xyz
x,y,z
-x,y,1/2-z
-x,-y,-z
x,-y,1/2+z
1/2+x,1/2+y,z
1/2-x,1/2+y,1/2-z
1/2-x,1/2-y,-z
1/2+x,1/2-y,1/2+z
loop_
_atom_site_type_symbol
_atom_site_label
_atom_site_fract_x
_atom_site_fract_y
_atom_site_fract_z
Si Si1 0.825501 0.395249 0.245257
Si Si2 0.500000 0.300350 0.250000
Si Si3 0.802173 0.880804 0.493825
Si Si4 0.485039 0.759058 0.911503
Si Si5 0.668815 0.013187 0.906286
Si Si6 0.205485 0.549647 0.177374
Si Si7 0.696079 0.359285 0.702598
O O1 0.664265 0.344048 0.251266
O O2 0.890114 0.439732 0.153716
O O3 0.741454 0.463061 0.316519
O O4 0.000000 0.366430 0.250000
O O5 0.577482 0.252334 0.161077
O O6 0.638595 0.822473 0.520957
O O7 0.964125 0.822081 0.457462
O O8 0.805625 0.936802 0.421690
O O9 0.756593 0.926887 0.580487
O O10 0.675864 0.794161 0.857463
O O11 0.758457 0.934990 0.857367
O O12 0.500000 0.000000 0.000000
O O13 0.279951 0.611629 0.217291
O O14 0.000000 0.551853 0.250000
O O15 0.500000 0.331479 0.750000
#
# Coordination Sequence:
#
# PCOD9267827 Si02
#       7
#     8   4   8   8   8   8   8
#     4  10  23  40  67 103 135 188 240 297 363 436
#     4  12  24  44  70  96 144 190 246 292 364 444
#     4  11  21  40  70 108 134 190 243 297 366 434
#     4  11  23  40  68  99 141 190 240 283 372 449
#     4  11  20  40  71 103 144 180 240 318 365 415
#     4  10  19  40  66  98 142 185 244 294 369 438
#     4  11  24  41  68 104 144 194 239 298 374 446
#
# _framework density 22.190550999999999
#
# number of rings (size 3 to 8) (size 9 to 14) (size 15 to 20)
#    0.000    1.231    4.615    2.769    4.308    0.615 
#    0.000    5.385    0.000    0.000    0.000    0.000 
#    0.000    0.000    0.000    0.000    0.000    0.000 
#
# Total GULP energy -145195.565033 kJ/mol
# GULP energy per Si atom -5584.444809 kJ/mol
# Density = 2.214004 g / cm^3
# Si number density = 22.190551 Si / 1000 Ang^3
#
#
#
# Elastic Constant Matrix: (Units=GPa)
#
#
# Indices 1 2 3 4 5 6 
#
# 1 121.6216 57.0562 36.0322 0.0000 -17.1945 0.0000
# 2 57.0562 92.1231 43.8344 0.0000 2.2760 0.0000
# 3 36.0322 43.8344 105.6702 0.0000 15.8106 0.0000
# 4 0.0000 0.0000 0.0000 19.4404 0.0000 9.3163
# 5 -17.1945 2.2760 15.8106 0.0000 32.6246 0.0000
# 6 0.0000 0.0000 0.0000 9.3163 0.0000 0.2408
#
#
#
# Elastic Compliance Matrix: (Units=1/GPa)
#
#
# Indices 1 2 3 4 5 6 
#
# 1 0.013922 -0.007387 -0.003081 0.000000 0.009346 0.000000
# 2 -0.007387 0.017556 -0.004310 0.000000 -0.003029 0.000000
# 3 -0.003081 -0.004310 0.013477 0.000000 -0.007855 0.000000
# 4 0.000000 0.000000 0.000000 -0.002932 0.000000 0.113458
# 5 0.009346 -0.003029 -0.007855 0.000000 0.039595 0.000000
# 6 0.000000 0.000000 0.000000 0.113458 0.000000 -0.236753
#
#
# Mechanical properties :
#
#
# Convention : Reuss Voigt Hill
#
# Bulk Modulus (GPa) = 64.94522 65.91784 65.43153
# Shear Modulus (GPa) = -41.51315 22.62729 -9.44293
#
# Velocity S-wave (km/s) = -4.32992 3.19671 -2.06510
# Velocity P-wave (km/s) = 2.08159 6.58750 4.88509
#
# Compressibility (1/GPa) = 0.01539759
#
# Stress axis : x y z
#
# Youngs Moduli (GPa) = 71.82886 56.95974 74.19859
#
# Poissons Ratio (x) = 0.42078 0.22862
# Poissons Ratio (y) = 0.53063 0.31983
# Poissons Ratio (z) = 0.22131 0.24552
#
# Static dielectric constant tensor:
#      x y z
#    x 1.968560 0.000000 -0.031850 
#    y 0.000000 1.871990 0.000000 
#    z -0.031850 0.000000 1.805150 
# 
# From -- ./inp_files/190844.got.cif
#   From: 2010.05.17/outbox.cif.g08.bks.cpg/sg15_96_cif.got.tgz:190844.got - 2010.06.03 18:47:42.
