data_PCOD9267482
_publ_section_title
;
Structure prediction by ZEFSAII (Michael W. Deem and Ramdas Pophale) SiO2 
 PCOD9267482
Probable space group: C 2/C
;
_chemical_formula_sum "Si O2"
_cell_formula_units_Z 48
_cell_length_a 14.610114
_cell_length_b 11.946327
_cell_length_c 13.840991
_cell_angle_alpha 90.000000
_cell_angle_beta 108.282969
_cell_angle_gamma 90.000000
_cell_volume 2293.816873
_symmetry_space_group_name_H-M "C 2/C"
_symmetry_group_IT_number 15
_symmetry_cell_setting 'monoclinic'
loop_
_space_group_symop_operation_xyz
x,y,z
-x,y,1/2-z
-x,-y,-z
x,-y,1/2+z
1/2+x,1/2+y,z
1/2-x,1/2+y,1/2-z
1/2-x,1/2-y,-z
1/2+x,1/2-y,1/2+z
loop_
_atom_site_type_symbol
_atom_site_label
_atom_site_fract_x
_atom_site_fract_y
_atom_site_fract_z
Si Si1 0.290177 0.114200 0.847622
Si Si2 0.085401 0.956891 0.201955
Si Si3 0.373844 0.948856 0.582690
Si Si4 0.815751 0.870276 0.897919
Si Si5 0.526863 0.268134 0.442823
Si Si6 0.010448 0.341035 0.149083
O O1 0.188268 0.066604 0.784437
O O2 0.283951 0.249195 0.849205
O O3 0.384954 0.099163 0.813465
O O4 0.325935 0.064531 0.961042
O O5 0.000000 0.977063 0.250000
O O6 0.052435 0.848347 0.129057
O O7 0.108279 0.061792 0.140941
O O8 0.281877 0.938143 0.620859
O O9 0.446697 0.842344 0.609699
O O10 0.431574 0.062286 0.612996
O O11 0.873832 0.839485 0.015044
O O12 0.505828 0.228767 0.546875
O O13 0.000000 0.281692 0.250000
#
# Coordination Sequence:
#
# PCOD9267482 Si02
#       6
#     8   8   8   8   8   8
#     4  10  22  39  59  88 123 160 201 254 313 367
#     4  12  24  39  61  91 123 167 214 253 308 380
#     4  10  19  39  64  88 118 157 205 259 306 365
#     4  10  21  38  59  85 121 159 202 257 309 359
#     4  10  22  40  60  87 127 168 204 253 313 376
#     4  10  21  39  65  93 122 161 210 264 312 359
#
# _framework density 20.925820000000002
#
# number of rings (size 3 to 8) (size 9 to 14) (size 15 to 20)
#    0.000    2.000    0.000    7.500    0.000    7.333 
#    0.000    3.333    0.000    0.000    0.000    1.167 
#    0.000    0.000    0.000    0.000    0.000    0.000 
#
# Total GULP energy -133895.577608 kJ/mol
# GULP energy per Si atom -5578.982400 kJ/mol
# Density = 2.087819 g / cm^3
# Si number density = 20.925820 Si / 1000 Ang^3
#
#
#
# Elastic Constant Matrix: (Units=GPa)
#
#
# Indices 1 2 3 4 5 6 
#
# 1 117.4470 36.5326 34.0469 0.0000 -10.4506 0.0000
# 2 36.5326 54.0239 34.7740 0.0000 2.7140 0.0000
# 3 34.0469 34.7740 60.9741 0.0000 -14.3119 0.0000
# 4 0.0000 0.0000 0.0000 37.8904 0.0000 -26.5659
# 5 -10.4506 2.7140 -14.3119 0.0000 40.8774 0.0000
# 6 0.0000 0.0000 0.0000 -26.5659 0.0000 101.1314
#
#
#
# Elastic Compliance Matrix: (Units=1/GPa)
#
#
# Indices 1 2 3 4 5 6 
#
# 1 0.011359 -0.006524 -0.002003 0.000000 0.002636 0.000000
# 2 -0.006524 0.035965 -0.019415 0.000000 -0.010854 0.000000
# 3 -0.002003 -0.019415 0.031350 0.000000 0.011753 0.000000
# 4 0.000000 0.000000 0.000000 0.032350 0.000000 0.008498
# 5 0.002636 -0.010854 0.011753 0.000000 0.029973 0.000000
# 6 0.000000 0.000000 0.000000 0.008498 0.000000 0.012120
#
#
# Mechanical properties :
#
#
# Convention : Reuss Voigt Hill
#
# Bulk Modulus (GPa) = 43.88192 49.23912 46.56052
# Shear Modulus (GPa) = 23.08399 44.45261 33.76830
#
# Velocity S-wave (km/s) = 3.32495 4.61401 4.02146
# Velocity P-wave (km/s) = 5.97964 7.20880 6.62280
#
# Compressibility (1/GPa) = 0.02278843
#
# Stress axis : x y z
#
# Youngs Moduli (GPa) = 88.03445 27.80483 31.89747
#
# Poissons Ratio (x) = 0.18141 0.06389
# Poissons Ratio (y) = 0.57438 0.61931
# Poissons Ratio (z) = 0.17634 0.53984
#
# Static dielectric constant tensor:
#      x y z
#    x 1.769020 0.000000 -0.054070 
#    y 0.000000 1.735060 0.000000 
#    z -0.054070 0.000000 1.808980 
# 
# From -- ./inp_files/151946.got.cif
#   From: 2010.05.17/outbox.cif.g08.bks.cpg/sg15_76_cif.got.tgz:151946.got - 2010.06.03 18:47:42.
