data_PCOD9267911
_publ_section_title
;
Structure prediction by ZEFSAII (Michael W. Deem and Ramdas Pophale) SiO2 
 PCOD9267911
Probable space group: C 2/C
;
_chemical_formula_sum "Si O2"
_cell_formula_units_Z 36
_cell_length_a 16.540830
_cell_length_b 13.700533
_cell_length_c 9.999112
_cell_angle_alpha 90.000000
_cell_angle_beta 40.548731
_cell_angle_gamma 90.000000
_cell_volume 1473.101664
_symmetry_space_group_name_H-M "C 2/C"
_symmetry_group_IT_number 15
_symmetry_cell_setting 'monoclinic'
loop_
_space_group_symop_operation_xyz
x,y,z
-x,y,1/2-z
-x,-y,-z
x,-y,1/2+z
1/2+x,1/2+y,z
1/2-x,1/2+y,1/2-z
1/2-x,1/2-y,-z
1/2+x,1/2-y,1/2+z
loop_
_atom_site_type_symbol
_atom_site_label
_atom_site_fract_x
_atom_site_fract_y
_atom_site_fract_z
Si Si1 0.133787 0.106830 0.096717
Si Si2 0.857495 0.920137 0.605328
Si Si3 0.500000 0.274012 0.250000
Si Si4 0.407031 0.890931 0.248288
Si Si5 0.109521 0.616184 0.273707
O O1 0.135539 0.066534 0.245950
O O2 0.000000 0.159092 0.250000
O O3 0.269856 0.154997 0.909480
O O4 0.129511 0.020393 0.992825
O O5 0.957507 0.844037 0.423070
O O6 0.723312 0.877511 0.732715
O O7 0.606351 0.201120 0.169153
O O8 0.500000 0.863227 0.250000
O O9 0.384155 0.007717 0.295303
O O10 0.481673 0.877303 0.017201
#
# Coordination Sequence:
#
# PCOD9267911 Si02
#       5
#     8   8   4   8   8
#     4  11  23  42  69 101 130 170 230 268 322 389
#     4  11  24  42  69  96 133 177 218 271 327 388
#     4  12  24  42  62  96 142 168 210 274 340 396
#     4  10  19  40  71  90 123 167 224 275 309 377
#     4  10  22  40  65  99 122 169 225 264 330 387
#
# _framework density 24.438231999999999
#
# number of rings (size 3 to 8) (size 9 to 14) (size 15 to 20)
#    0.000    1.333    4.444    1.333    0.000    0.000 
#    4.000    2.222    0.000    0.000    0.000    0.000 
#    0.000    0.000    0.000    0.000    0.000    0.000 
#
# Total GULP energy -100702.136749 kJ/mol
# GULP energy per Si atom -5594.563153 kJ/mol
# Density = 2.438261 g / cm^3
# Si number density = 24.438232 Si / 1000 Ang^3
#
#
#
# Elastic Constant Matrix: (Units=GPa)
#
#
# Indices 1 2 3 4 5 6 
#
# 1 149.6349 -4.4239 29.4521 0.0000 -25.4056 0.0000
# 2 -4.4239 72.1139 8.8443 0.0000 -3.6194 0.0000
# 3 29.4521 8.8443 103.3929 0.0000 -13.8118 0.0000
# 4 0.0000 0.0000 0.0000 -10.6167 0.0000 10.7827
# 5 -25.4056 -3.6194 -13.8118 0.0000 60.2103 0.0000
# 6 0.0000 0.0000 0.0000 10.7827 0.0000 -24.4980
#
#
#
# Elastic Compliance Matrix: (Units=1/GPa)
#
#
# Indices 1 2 3 4 5 6 
#
# 1 0.007548 0.000831 -0.001846 0.000000 0.002811 0.000000
# 2 0.000831 0.014125 -0.001325 0.000000 0.000896 0.000000
# 3 -0.001846 -0.001325 0.010519 0.000000 0.001554 0.000000
# 4 0.000000 0.000000 0.000000 -0.170335 0.000000 -0.074972
# 5 0.002811 0.000896 0.001554 0.000000 0.018205 0.000000
# 6 0.000000 0.000000 0.000000 -0.074972 0.000000 -0.073818
#
#
# Mechanical properties :
#
#
# Convention : Reuss Voigt Hill
#
# Bulk Modulus (GPa) = 36.34859 43.65410 40.00134
# Shear Modulus (GPa) = -27.79243 24.43705 -1.67769
#
# Velocity S-wave (km/s) = -3.37598 3.16563 -0.82945
# Velocity P-wave (km/s) = 0.53883 5.59137 3.93530
#
# Compressibility (1/GPa) = 0.02751139
#
# Stress axis : x y z
#
# Youngs Moduli (GPa) = 132.48388 70.79458 95.06982
#
# Poissons Ratio (x) = -0.05880 0.17546
# Poissons Ratio (y) = -0.11003 0.12599
# Poissons Ratio (z) = 0.24451 0.09382
#
# Static dielectric constant tensor:
#      x y z
#    x 1.930660 0.000000 -0.063560 
#    y 0.000000 1.899350 0.000000 
#    z -0.063560 0.000000 1.929590 
# 
# From -- ./inp_files/38880.got.cif
#   From: 2010.05.17/outbox.cif.g08.bks.cpg/sg15_20_cif.got.tgz:38880.got - 2010.06.03 18:47:42.
