data_PCOD9267182
_publ_section_title
;
Structure prediction by ZEFSAII (Michael W. Deem and Ramdas Pophale) SiO2 
 PCOD9267182
Probable space group: C 2/C
;
_chemical_formula_sum "Si O2"
_cell_formula_units_Z 40
_cell_length_a 9.740176
_cell_length_b 13.460683
_cell_length_c 12.868254
_cell_angle_alpha 90.000000
_cell_angle_beta 72.365144
_cell_angle_gamma 90.000000
_cell_volume 1607.864360
_symmetry_space_group_name_H-M "C 2/C"
_symmetry_group_IT_number 15
_symmetry_cell_setting 'monoclinic'
loop_
_space_group_symop_operation_xyz
x,y,z
-x,y,1/2-z
-x,-y,-z
x,-y,1/2+z
1/2+x,1/2+y,z
1/2-x,1/2+y,1/2-z
1/2-x,1/2-y,-z
1/2+x,1/2-y,1/2+z
loop_
_atom_site_type_symbol
_atom_site_label
_atom_site_fract_x
_atom_site_fract_y
_atom_site_fract_z
Si Si1 0.340516 0.112864 0.072618
Si Si2 0.593136 0.990841 0.626200
Si Si3 0.167794 0.838603 0.957957
Si Si4 0.841523 0.267970 0.248113
Si Si5 0.856401 0.072164 0.828396
O O1 0.498834 0.089666 0.081592
O O2 0.254626 0.203055 0.146758
O O3 0.253731 0.014029 0.122009
O O4 0.366238 0.092249 0.943917
O O5 0.500000 0.002873 0.750000
O O6 0.737580 0.929326 0.608348
O O7 0.109314 0.793005 0.866698
O O8 0.250000 0.750000 0.000000
O O9 0.085860 0.881861 0.075769
O O10 0.730821 0.350287 0.224925
O O11 0.000000 0.297055 0.250000
O O12 0.000000 0.027635 0.750000
#
# Coordination Sequence:
#
# PCOD9267182 Si02
#       5
#     8   8   8   8   8
#     4  10  22  39  68 102 133 174 229 279 336 398
#     4  10  19  38  67 100 126 179 223 272 330 412
#     4   9  20  37  66  94 129 176 223 267 335 409
#     4  11  23  42  66 102 141 172 225 294 338 390
#     4  10  23  44  68  97 133 182 232 271 338 419
#
# _framework density 24.87772
#
# number of rings (size 3 to 8) (size 9 to 14) (size 15 to 20)
#    0.000    2.000    2.000    0.600    5.600    0.800 
#    3.600    4.000    0.000    0.000    0.000    0.000 
#    0.000    0.000    0.000    0.000    0.000    0.000 
#
# Total GULP energy -111525.766441 kJ/mol
# GULP energy per Si atom -5576.288322 kJ/mol
# Density = 2.482110 g / cm^3
# Si number density = 24.877720 Si / 1000 Ang^3
#
#
#
# Elastic Constant Matrix: (Units=GPa)
#
#
# Indices 1 2 3 4 5 6 
#
# 1 84.9114 16.6382 23.8833 0.0000 1.5003 0.0000
# 2 16.6382 98.0989 54.0278 0.0000 1.8714 0.0000
# 3 23.8833 54.0278 141.2765 0.0000 -3.4117 0.0000
# 4 0.0000 0.0000 0.0000 45.8757 0.0000 -12.6150
# 5 1.5003 1.8714 -3.4117 0.0000 27.1687 0.0000
# 6 0.0000 0.0000 0.0000 -12.6150 0.0000 8.9108
#
#
#
# Elastic Compliance Matrix: (Units=1/GPa)
#
#
# Indices 1 2 3 4 5 6 
#
# 1 0.012495 -0.001177 -0.001682 0.000000 -0.000820 0.000000
# 2 -0.001177 0.013087 -0.004841 0.000000 -0.001444 0.000000
# 3 -0.001682 -0.004841 0.009252 0.000000 0.001588 0.000000
# 4 0.000000 0.000000 0.000000 0.035693 0.000000 0.050530
# 5 -0.000820 -0.001444 0.001588 0.000000 0.037151 0.000000
# 6 0.000000 0.000000 0.000000 0.050530 0.000000 0.183758
#
#
# Mechanical properties :
#
#
# Convention : Reuss Voigt Hill
#
# Bulk Modulus (GPa) = 51.45448 57.04282 54.24865
# Shear Modulus (GPa) = 15.95840 31.70688 23.83264
#
# Velocity S-wave (km/s) = 2.53548 3.57390 3.09850
# Velocity P-wave (km/s) = 5.41289 6.32530 5.88680
#
# Compressibility (1/GPa) = 0.01943465
#
# Stress axis : x y z
#
# Youngs Moduli (GPa) = 80.03040 76.41162 108.08226
#
# Poissons Ratio (x) = 0.08996 0.18179
# Poissons Ratio (y) = 0.09422 0.52319
# Poissons Ratio (z) = 0.13461 0.36988
#
# Static dielectric constant tensor:
#      x y z
#    x 1.966300 0.000000 0.115600 
#    y 0.000000 1.991340 0.000000 
#    z 0.115600 0.000000 2.043240 
# 
# From -- ./inp_files/133088.got.cif
#   From: 2010.05.17/outbox.cif.g08.bks.cpg/sg15_67_cif.got.tgz:133088.got - 2010.06.03 18:47:42.
