data_PCOD9267037
_publ_section_title
;
Structure prediction by ZEFSAII (Michael W. Deem and Ramdas Pophale) SiO2 
 PCOD9267037
Probable space group: C 2/C
;
_chemical_formula_sum "Si O2"
_cell_formula_units_Z 40
_cell_length_a 13.804113
_cell_length_b 15.618495
_cell_length_c 15.542926
_cell_angle_alpha 90.000000
_cell_angle_beta 39.697391
_cell_angle_gamma 90.000000
_cell_volume 2140.423320
_symmetry_space_group_name_H-M "C 2/C"
_symmetry_group_IT_number 15
_symmetry_cell_setting 'monoclinic'
loop_
_space_group_symop_operation_xyz
x,y,z
-x,y,1/2-z
-x,-y,-z
x,-y,1/2+z
1/2+x,1/2+y,z
1/2-x,1/2+y,1/2-z
1/2-x,1/2-y,-z
1/2+x,1/2-y,1/2+z
loop_
_atom_site_type_symbol
_atom_site_label
_atom_site_fract_x
_atom_site_fract_y
_atom_site_fract_z
Si Si1 0.905530 0.069356 0.514474
Si Si2 0.374561 0.650216 0.266213
Si Si3 0.348035 0.276590 0.167573
Si Si4 0.825480 0.978504 0.394720
Si Si5 0.314340 0.797759 0.039946
O O1 0.829648 0.129328 0.637767
O O2 0.025160 0.130869 0.385478
O O3 0.821769 0.018717 0.493891
O O4 0.000000 0.000000 0.500000
O O5 0.500000 0.679132 0.250000
O O6 0.246743 0.716401 0.331106
O O7 0.304342 0.560837 0.347888
O O8 0.279427 0.276979 0.309911
O O9 0.516821 0.238175 0.060152
O O10 0.712946 0.899431 0.458371
O O11 0.000000 0.950241 0.250000
O O12 0.250000 0.750000 0.000000
#
# Coordination Sequence:
#
# PCOD9267037 Si02
#       5
#     8   8   8   8   8
#     4  10  19  38  64  89 124 172 215 246 328 390
#     4   9  21  40  63  93 127 165 216 263 320 387
#     4  12  23  40  69  94 127 167 217 267 319 387
#     4   9  20  38  62  89 130 169 208 263 322 387
#     4  12  24  41  63  97 128 167 214 269 325 380
#
# _framework density 18.687892000000002
#
# number of rings (size 3 to 8) (size 9 to 14) (size 15 to 20)
#    0.000    2.000    2.000    5.400    0.000    4.000 
#    0.000    0.000    0.000    0.000    0.000    0.000 
#    0.000    0.000    0.000    0.000    0.000    0.000 
#
# Total GULP energy -111478.598799 kJ/mol
# GULP energy per Si atom -5573.929940 kJ/mol
# Density = 1.864536 g / cm^3
# Si number density = 18.687892 Si / 1000 Ang^3
#
#
#
# Elastic Constant Matrix: (Units=GPa)
#
#
# Indices 1 2 3 4 5 6 
#
# 1 100.4988 66.2268 47.7277 0.0000 -0.6857 0.0002
# 2 66.2268 84.9509 29.6743 -0.0003 -1.4640 -0.0002
# 3 47.7277 29.6743 103.6778 -0.0006 14.9852 -0.0006
# 4 0.0000 -0.0003 -0.0006 239.9936 0.0002 257.8655
# 5 -0.6857 -1.4640 14.9852 0.0002 26.6824 0.0001
# 6 0.0002 -0.0002 -0.0006 257.8655 0.0001 325.1772
#
#
#
# Elastic Compliance Matrix: (Units=1/GPa)
#
#
# Indices 1 2 3 4 5 6 
#
# 1 0.023900 -0.016161 -0.006897 0.000000 0.003601 0.000000
# 2 -0.016161 0.024242 0.000402 0.000000 0.000689 0.000000
# 3 -0.006897 0.000402 0.013852 0.000000 -0.007935 0.000000
# 4 0.000000 0.000000 0.000000 0.028164 0.000000 -0.022334
# 5 0.003601 0.000689 -0.007935 0.000000 0.042065 0.000000
# 6 0.000000 0.000000 0.000000 -0.022334 0.000000 0.020786
#
#
# Mechanical properties :
#
#
# Convention : Reuss Voigt Hill
#
# Bulk Modulus (GPa) = 59.94800 64.04278 61.99539
# Shear Modulus (GPa) = 24.52373 128.07057 76.29715
#
# Velocity S-wave (km/s) = 3.62647 8.28734 6.39654
# Velocity P-wave (km/s) = 7.04863 11.22130 9.37018
#
# Compressibility (1/GPa) = 0.01668112
#
# Stress axis : x y z
#
# Youngs Moduli (GPa) = 41.84018 41.25043 72.18969
#
# Poissons Ratio (x) = 0.66665 0.49792
# Poissons Ratio (y) = 0.67619 -0.02899
# Poissons Ratio (z) = 0.28859 -0.01657
#
# Static dielectric constant tensor:
#      x y z
#    x 1.640500 0.000000 0.027030 
#    y 0.000000 1.661300 0.000000 
#    z 0.027030 0.000000 1.673960 
# 
# From -- ./inp_files/38024.got.cif
#   From: 2010.05.17/outbox.cif.g08.bks.cpg/sg15_20_cif.got.tgz:38024.got - 2010.06.03 18:47:42.
