data_PCOD9267416
_publ_section_title
;
Structure prediction by ZEFSAII (Michael W. Deem and Ramdas Pophale) SiO2 
 PCOD9267416
Probable space group: C 2/C
;
_chemical_formula_sum "Si O2"
_cell_formula_units_Z 40
_cell_length_a 13.640138
_cell_length_b 15.290846
_cell_length_c 15.673813
_cell_angle_alpha 90.000000
_cell_angle_beta 38.339452
_cell_angle_gamma 90.000000
_cell_volume 2027.870430
_symmetry_space_group_name_H-M "C 2/C"
_symmetry_group_IT_number 15
_symmetry_cell_setting 'monoclinic'
loop_
_space_group_symop_operation_xyz
x,y,z
-x,y,1/2-z
-x,-y,-z
x,-y,1/2+z
1/2+x,1/2+y,z
1/2-x,1/2+y,1/2-z
1/2-x,1/2-y,-z
1/2+x,1/2-y,1/2+z
loop_
_atom_site_type_symbol
_atom_site_label
_atom_site_fract_x
_atom_site_fract_y
_atom_site_fract_z
Si Si1 0.720459 0.391042 0.649239
Si Si2 0.000000 0.964205 0.250000
Si Si3 0.276682 0.146784 0.472506
Si Si4 0.633015 0.902466 0.778490
Si Si5 0.018466 0.423563 0.334510
Si Si6 0.500000 0.754704 0.250000
O O1 0.590709 0.467051 0.749497
O O2 0.786079 0.359737 0.694951
O O3 0.862741 0.429714 0.496914
O O4 0.646275 0.311413 0.645726
O O5 0.867809 0.905469 0.385876
O O6 0.250000 0.250000 0.500000
O O7 0.288580 0.123503 0.364173
O O8 0.447119 0.122219 0.397576
O O9 0.642048 0.007907 0.787591
O O10 0.039460 0.320641 0.301123
O O11 0.000000 0.458205 0.250000
#
# Coordination Sequence:
#
# PCOD9267416 Si02
#       6
#     8   4   8   8   8   4
#     4  11  22  38  64  96 121 163 212 264 309 379
#     4  11  22  40  65  88 128 160 211 260 322 361
#     4  11  23  43  62  89 125 172 204 264 309 380
#     4  11  22  42  65  89 126 167 213 250 326 376
#     4  10  19  39  63  83 126 167 201 248 323 375
#     4   9  22  38  61  90 128 160 203 268 310 367
#
# _framework density 19.725125999999999
#
# number of rings (size 3 to 8) (size 9 to 14) (size 15 to 20)
#    0.600    0.800    4.000    2.400    0.000    2.400 
#    3.600    0.000    0.000    0.000    0.000    0.000 
#    0.000    0.000    0.000    0.000    0.000    0.000 
#
# Total GULP energy -111362.451408 kJ/mol
# GULP energy per Si atom -5568.122570 kJ/mol
# Density = 1.968023 g / cm^3
# Si number density = 19.725126 Si / 1000 Ang^3
#
#
#
# Elastic Constant Matrix: (Units=GPa)
#
#
# Indices 1 2 3 4 5 6 
#
# 1 81.5072 20.7602 34.7553 -0.0002 1.7436 0.0001
# 2 20.7602 139.8770 43.8709 -0.0002 -3.9887 0.0001
# 3 34.7553 43.8709 108.8721 -0.0005 2.5859 0.0003
# 4 -0.0002 -0.0002 -0.0005 26.2593 0.0003 6.1998
# 5 1.7436 -3.9887 2.5859 0.0003 9.4624 -0.0001
# 6 0.0001 0.0001 0.0003 6.1998 -0.0001 13.2305
#
#
#
# Elastic Compliance Matrix: (Units=1/GPa)
#
#
# Indices 1 2 3 4 5 6 
#
# 1 0.014310 -0.000868 -0.004174 0.000000 -0.001862 0.000000
# 2 -0.000868 0.008420 -0.003225 0.000000 0.004591 0.000000
# 3 -0.004174 -0.003225 0.011909 0.000000 -0.003845 0.000000
# 4 0.000000 0.000000 0.000000 0.042819 -0.000002 -0.020065
# 5 -0.001862 0.004591 -0.003845 -0.000002 0.109010 0.000002
# 6 0.000000 0.000000 0.000000 -0.020065 0.000002 0.084986
#
#
# Mechanical properties :
#
#
# Convention : Reuss Voigt Hill
#
# Bulk Modulus (GPa) = 55.23491 58.78101 57.00796
# Shear Modulus (GPa) = 17.00553 25.18176 21.09364
#
# Velocity S-wave (km/s) = 2.93938 3.57688 3.27368
# Velocity P-wave (km/s) = 6.29151 6.85007 6.57672
#
# Compressibility (1/GPa) = 0.01810449
#
# Stress axis : x y z
#
# Youngs Moduli (GPa) = 69.88316 118.76002 83.97351
#
# Poissons Ratio (x) = 0.10305 0.35052
# Poissons Ratio (y) = 0.06064 0.27082
# Poissons Ratio (z) = 0.29171 0.38301
#
# Static dielectric constant tensor:
#      x y z
#    x 1.687360 0.000000 -0.014170 
#    y 0.000000 1.738310 0.000000 
#    z -0.014170 0.000000 1.668310 
# 
# From -- ./inp_files/205631.got.cif
#   From: 2010.05.17/outbox.cif.g08.bks.cpg/sg15_103_cif.got.tgz:205631.got - 2010.06.03 18:47:42.
