data_PCOD9267090
_publ_section_title
;
Structure prediction by ZEFSAII (Michael W. Deem and Ramdas Pophale) SiO2 
 PCOD9267090
Probable space group: C 2/C
;
_chemical_formula_sum "Si O2"
_cell_formula_units_Z 32
_cell_length_a 9.156653
_cell_length_b 11.657540
_cell_length_c 11.854513
_cell_angle_alpha 90.000000
_cell_angle_beta 87.553103
_cell_angle_gamma 90.000000
_cell_volume 1264.244947
_symmetry_space_group_name_H-M "C 2/C"
_symmetry_group_IT_number 15
_symmetry_cell_setting 'monoclinic'
loop_
_space_group_symop_operation_xyz
x,y,z
-x,y,1/2-z
-x,-y,-z
x,-y,1/2+z
1/2+x,1/2+y,z
1/2-x,1/2+y,1/2-z
1/2-x,1/2-y,-z
1/2+x,1/2-y,1/2+z
loop_
_atom_site_type_symbol
_atom_site_label
_atom_site_fract_x
_atom_site_fract_y
_atom_site_fract_z
Si Si1 0.000000 0.944518 0.250000
Si Si2 0.820599 0.570043 0.453527
Si Si3 0.977424 0.187353 0.989312
Si Si4 0.730331 0.610434 0.136139
Si Si5 0.000000 0.402671 0.750000
O O1 0.008767 0.872430 0.366878
O O2 0.864614 0.028370 0.280722
O O3 0.908755 0.686586 0.479741
O O4 0.652336 0.611577 0.450503
O O5 0.812792 0.473937 0.547705
O O6 0.909903 0.524150 0.343519
O O7 0.117861 0.184471 0.066112
O O8 0.862211 0.666740 0.202053
#
# Coordination Sequence:
#
# PCOD9267090 Si02
#       5
#     4   8   8   8   4
#     4  10  19  38  65  88 120 172 214 260 337 392
#     4  10  22  39  61  92 125 163 219 272 323 394
#     4  10  21  40  64  91 125 166 217 271 326 393
#     4  11  22  39  63  91 129 172 213 268 329 386
#     4  12  23  38  59  88 126 170 216 264 327 390
#
# _framework density 25.311551000000001
#
# number of rings (size 3 to 8) (size 9 to 14) (size 15 to 20)
#    0.000    1.500    0.000    7.500    0.000    1.000 
#    0.000    8.750    0.000    0.000    0.000    0.000 
#    0.000    0.000    0.000    0.000    0.000    0.000 
#
# Total GULP energy -89425.702576 kJ/mol
# GULP energy per Si atom -5589.106411 kJ/mol
# Density = 2.525394 g / cm^3
# Si number density = 25.311551 Si / 1000 Ang^3
#
#
#
# Elastic Constant Matrix: (Units=GPa)
#
#
# Indices 1 2 3 4 5 6 
#
# 1 227.9608 42.6085 93.2149 0.0000 18.1316 0.0000
# 2 42.6085 74.9502 34.9087 0.0000 -5.8028 0.0000
# 3 93.2149 34.9087 147.2230 0.0000 -29.8268 0.0000
# 4 0.0000 0.0000 0.0000 -4.2612 0.0000 -32.0656
# 5 18.1316 -5.8028 -29.8268 0.0000 89.4373 0.0000
# 6 0.0000 0.0000 0.0000 -32.0656 0.0000 6.3895
#
#
#
# Elastic Compliance Matrix: (Units=1/GPa)
#
#
# Indices 1 2 3 4 5 6 
#
# 1 0.006824 -0.002042 -0.004444 0.000000 -0.002998 0.000000
# 2 -0.002042 0.015614 -0.002274 0.000000 0.000669 0.000000
# 3 -0.004444 -0.002274 0.011044 0.000000 0.004436 0.000000
# 4 0.000000 0.000000 0.000000 -0.006054 0.000000 -0.030382
# 5 -0.002998 0.000669 0.004436 0.000000 0.013312 0.000000
# 6 0.000000 0.000000 0.000000 -0.030382 0.000000 0.004037
#
#
# Mechanical properties :
#
#
# Convention : Reuss Voigt Hill
#
# Bulk Modulus (GPa) = 62.64663 87.95536 75.30099
# Shear Modulus (GPa) = 73.94592 36.93993 55.44293
#
# Velocity S-wave (km/s) = 5.41089 3.82437 4.68527
# Velocity P-wave (km/s) = 7.99005 7.37059 7.68656
#
# Compressibility (1/GPa) = 0.01596255
#
# Stress axis : x y z
#
# Youngs Moduli (GPa) = 146.54414 64.04589 90.54624
#
# Poissons Ratio (x) = 0.13076 0.40237
# Poissons Ratio (y) = 0.29919 0.20591
# Poissons Ratio (z) = 0.65122 0.14565
#
# Static dielectric constant tensor:
#      x y z
#    x 2.017510 0.000000 0.074310 
#    y 0.000000 1.959830 0.000000 
#    z 0.074310 0.000000 2.128720 
# 
# From -- ./inp_files/75365.got.cif
#   From: 2010.05.17/outbox.cif.g08.bks.cpg/sg15_38_cif.got.tgz:75365.got - 2010.06.03 18:47:42.
