data_PCOD9267114
_publ_section_title
;
Structure prediction by ZEFSAII (Michael W. Deem and Ramdas Pophale) SiO2 
 PCOD9267114
Probable space group: C 2/C
;
_chemical_formula_sum "Si O2"
_cell_formula_units_Z 40
_cell_length_a 7.838257
_cell_length_b 13.833686
_cell_length_c 21.453439
_cell_angle_alpha 90.000000
_cell_angle_beta 133.375951
_cell_angle_gamma 90.000000
_cell_volume 1690.857061
_symmetry_space_group_name_H-M "C 2/C"
_symmetry_group_IT_number 15
_symmetry_cell_setting 'monoclinic'
loop_
_space_group_symop_operation_xyz
x,y,z
-x,y,1/2-z
-x,-y,-z
x,-y,1/2+z
1/2+x,1/2+y,z
1/2-x,1/2+y,1/2-z
1/2-x,1/2-y,-z
1/2+x,1/2-y,1/2+z
loop_
_atom_site_type_symbol
_atom_site_label
_atom_site_fract_x
_atom_site_fract_y
_atom_site_fract_z
Si Si1 0.271574 0.470574 0.801114
Si Si2 0.640878 0.143068 0.151604
Si Si3 0.426814 0.787451 0.992335
Si Si4 0.442365 0.342205 0.161723
Si Si5 0.146521 0.905992 0.547233
O O1 0.283652 0.415695 0.738431
O O2 0.435571 0.564269 0.838511
O O3 0.331785 0.397892 0.872567
O O4 0.000000 0.499162 0.750000
O O5 0.558805 0.243812 0.163405
O O6 0.402674 0.081727 0.084214
O O7 0.711859 0.161031 0.098435
O O8 0.660616 0.839846 0.077828
O O9 0.534418 0.688978 0.990724
O O10 0.250000 0.750000 0.000000
O O11 0.500000 0.344633 0.250000
O O12 0.000000 0.000000 0.500000
#
# Coordination Sequence:
#
# PCOD9267114 Si02
#       5
#     8   8   8   8   8
#     4  10  22  40  66  97 129 174 224 281 347 405
#     4  10  21  41  64  91 128 171 219 275 336 403
#     4  11  24  41  65  95 130 176 225 279 339 401
#     4  11  23  42  65  96 135 175 222 279 337 409
#     4  10  19  38  65  93 126 168 215 266 333 408
#
# _framework density 23.656641
#
# number of rings (size 3 to 8) (size 9 to 14) (size 15 to 20)
#    0.000    1.600    0.000    7.800    0.000    6.400 
#    0.000    6.000    0.000    0.000    0.000    0.000 
#    0.000    0.000    0.000    0.000    0.000    0.000 
#
# Total GULP energy -111832.340820 kJ/mol
# GULP energy per Si atom -5591.617041 kJ/mol
# Density = 2.360280 g / cm^3
# Si number density = 23.656641 Si / 1000 Ang^3
#
#
#
# Elastic Constant Matrix: (Units=GPa)
#
#
# Indices 1 2 3 4 5 6 
#
# 1 128.0946 29.8130 63.8688 0.0000 -12.5174 0.0000
# 2 29.8130 80.2261 38.0501 0.0000 12.1803 0.0000
# 3 63.8688 38.0501 120.5855 0.0000 -12.9620 0.0000
# 4 0.0000 0.0000 0.0000 40.8283 0.0000 3.8717
# 5 -12.5174 12.1803 -12.9620 0.0000 40.8229 0.0000
# 6 0.0000 0.0000 0.0000 3.8717 0.0000 38.2353
#
#
#
# Elastic Compliance Matrix: (Units=1/GPa)
#
#
# Indices 1 2 3 4 5 6 
#
# 1 0.010975 -0.002140 -0.004874 0.000000 0.002456 0.000000
# 2 -0.002140 0.016676 -0.004901 0.000000 -0.007188 0.000000
# 3 -0.004874 -0.004901 0.012856 0.000000 0.004050 0.000000
# 4 0.000000 0.000000 0.000000 0.024730 0.000000 -0.002504
# 5 0.002456 -0.007188 0.004050 0.000000 0.028680 0.000000
# 6 0.000000 0.000000 0.000000 -0.002504 0.000000 0.026407
#
#
# Mechanical properties :
#
#
# Convention : Reuss Voigt Hill
#
# Bulk Modulus (GPa) = 59.96140 65.81889 62.89014
# Shear Modulus (GPa) = 33.39727 37.12225 35.25976
#
# Velocity S-wave (km/s) = 3.76140 3.96562 3.86486
# Velocity P-wave (km/s) = 6.65325 6.98936 6.82338
#
# Compressibility (1/GPa) = 0.01667740
#
# Stress axis : x y z
#
# Youngs Moduli (GPa) = 91.11785 59.96695 77.78368
#
# Poissons Ratio (x) = 0.12831 0.37909
# Poissons Ratio (y) = 0.19497 0.38124
# Poissons Ratio (z) = 0.44408 0.29392
#
# Static dielectric constant tensor:
#      x y z
#    x 1.990150 0.000000 0.031680 
#    y 0.000000 1.894510 0.000000 
#    z 0.031680 0.000000 1.961040 
# 
# From -- ./inp_files/231444.got.cif
#   From: 2010.05.17/outbox.cif.g08.bks.cpg/sg15_116_cif.got.tgz:231444.got - 2010.06.03 18:47:42.
