data_PCOD9267122
_publ_section_title
;
Structure prediction by ZEFSAII (Michael W. Deem and Ramdas Pophale) SiO2 
 PCOD9267122
Probable space group: C 2/C
;
_chemical_formula_sum "Si O2"
_cell_formula_units_Z 48
_cell_length_a 14.371886
_cell_length_b 10.771245
_cell_length_c 24.412841
_cell_angle_alpha 90.000000
_cell_angle_beta 30.428162
_cell_angle_gamma 90.000000
_cell_volume 1913.996424
_symmetry_space_group_name_H-M "C 2/C"
_symmetry_group_IT_number 15
_symmetry_cell_setting 'monoclinic'
loop_
_space_group_symop_operation_xyz
x,y,z
-x,y,1/2-z
-x,-y,-z
x,-y,1/2+z
1/2+x,1/2+y,z
1/2-x,1/2+y,1/2-z
1/2-x,1/2-y,-z
1/2+x,1/2-y,1/2+z
loop_
_atom_site_type_symbol
_atom_site_label
_atom_site_fract_x
_atom_site_fract_y
_atom_site_fract_z
Si Si1 0.512914 0.161012 0.327005
Si Si2 0.628258 0.115875 0.735318
Si Si3 0.738682 0.860674 0.450970
Si Si4 0.450796 0.253162 0.922754
Si Si5 0.719030 0.889139 0.339544
Si Si6 0.546020 0.475038 0.374446
O O1 0.455543 0.152566 0.420245
O O2 0.330724 0.225538 0.393957
O O3 0.668385 0.261043 0.232149
O O4 0.555210 0.024149 0.284984
O O5 0.500000 0.155127 0.750000
O O6 0.578471 0.213496 0.807407
O O7 0.849015 0.098388 0.630207
O O8 0.747658 0.924658 0.387673
O O9 0.872385 0.923108 0.428437
O O10 0.507466 0.148860 0.937730
O O11 0.490711 0.390320 0.922977
O O12 0.250000 0.250000 0.000000
O O13 0.801621 0.980833 0.252140
#
# Coordination Sequence:
#
# PCOD9267122 Si02
#       6
#     8   8   8   8   8   8
#     4  10  19  38  65  95 129 154 225 267 314 388
#     4  11  23  41  65  93 130 179 211 264 337 387
#     4  10  21  38  68  99 119 171 222 270 317 382
#     4  11  24  44  61  95 136 167 217 278 330 394
#     4  10  21  42  68  92 130 174 218 268 325 384
#     4  10  21  41  65  92 133 171 215 272 319 391
#
# _framework density 25.078417000000002
#
# number of rings (size 3 to 8) (size 9 to 14) (size 15 to 20)
#    0.000    1.667    1.667    4.000    0.000    1.333 
#   12.000   10.833    0.000    0.000    0.000    0.000 
#    0.000    0.000    0.000    0.000    0.000    0.000 
#
# Total GULP energy -133925.759136 kJ/mol
# GULP energy per Si atom -5580.239964 kJ/mol
# Density = 2.502134 g / cm^3
# Si number density = 25.078417 Si / 1000 Ang^3
#
#
#
# Elastic Constant Matrix: (Units=GPa)
#
#
# Indices 1 2 3 4 5 6 
#
# 1 140.6593 3.5535 32.1449 -0.0002 -9.0644 0.0000
# 2 3.5535 38.0120 14.1154 -0.0001 -9.0635 -0.0001
# 3 32.1449 14.1154 73.7385 0.0001 -17.4530 -0.0003
# 4 -0.0002 -0.0001 0.0001 34.9433 0.0001 -10.2102
# 5 -9.0644 -9.0635 -17.4530 0.0001 40.8041 0.0000
# 6 0.0000 -0.0001 -0.0003 -10.2102 0.0000 17.2303
#
#
#
# Elastic Compliance Matrix: (Units=1/GPa)
#
#
# Indices 1 2 3 4 5 6 
#
# 1 0.007914 0.000650 -0.003476 0.000000 0.000416 0.000000
# 2 0.000650 0.029109 -0.004774 0.000000 0.004568 0.000000
# 3 -0.003476 -0.004774 0.017309 0.000000 0.005571 0.000000
# 4 0.000000 0.000000 0.000000 0.034610 0.000000 0.020509
# 5 0.000416 0.004568 0.005571 0.000000 0.027997 0.000000
# 6 0.000000 0.000000 0.000000 0.020509 0.000000 0.070190
#
#
# Mechanical properties :
#
#
# Convention : Reuss Voigt Hill
#
# Bulk Modulus (GPa) = 25.55487 39.11526 32.33507
# Shear Modulus (GPa) = 23.21539 32.10196 27.65867
#
# Velocity S-wave (km/s) = 3.04585 3.58168 3.32458
# Velocity P-wave (km/s) = 4.75202 5.72150 5.25915
#
# Compressibility (1/GPa) = 0.03913148
#
# Stress axis : x y z
#
# Youngs Moduli (GPa) = 126.35638 34.35390 57.77250
#
# Poissons Ratio (x) = -0.02233 0.20082
# Poissons Ratio (y) = -0.08214 0.27583
# Poissons Ratio (z) = 0.43922 0.16402
#
# Static dielectric constant tensor:
#      x y z
#    x 2.089390 0.000000 -0.066690 
#    y 0.000000 1.990830 0.000000 
#    z -0.066690 0.000000 2.064010 
# 
# From -- ./inp_files/296032.got.cif
#   From: 2010.05.17/outbox.cif.g08.bks.cpg/sg15_149_cif.got.tgz:296032.got - 2010.06.03 18:47:42.
