data_PCOD9267796
_publ_section_title
;
Structure prediction by ZEFSAII (Michael W. Deem and Ramdas Pophale) SiO2 
 PCOD9267796
Probable space group: C 2/C
;
_chemical_formula_sum "Si O2"
_cell_formula_units_Z 48
_cell_length_a 20.116435
_cell_length_b 14.244296
_cell_length_c 19.070529
_cell_angle_alpha 90.000000
_cell_angle_beta 22.227613
_cell_angle_gamma 90.000000
_cell_volume 2067.169618
_symmetry_space_group_name_H-M "C 2/C"
_symmetry_group_IT_number 15
_symmetry_cell_setting 'monoclinic'
loop_
_space_group_symop_operation_xyz
x,y,z
-x,y,1/2-z
-x,-y,-z
x,-y,1/2+z
1/2+x,1/2+y,z
1/2-x,1/2+y,1/2-z
1/2-x,1/2-y,-z
1/2+x,1/2-y,1/2+z
loop_
_atom_site_type_symbol
_atom_site_label
_atom_site_fract_x
_atom_site_fract_y
_atom_site_fract_z
Si Si1 0.176653 0.102812 0.858080
Si Si2 0.220201 0.978819 0.106455
Si Si3 0.831707 0.557754 0.133972
Si Si4 0.491179 0.180888 0.178688
Si Si5 0.193210 0.979393 0.974070
Si Si6 0.485509 0.766327 0.996379
O O1 0.321461 0.171855 0.682235
O O2 0.223502 0.061765 0.888267
O O3 0.823078 0.990827 0.188355
O O4 0.010833 0.170717 0.014266
O O5 0.310208 0.051378 0.071896
O O6 0.232040 0.012106 0.015024
O O7 0.015999 0.959174 0.322958
O O8 0.337098 0.884990 0.996340
O O9 0.000000 0.500000 0.000000
O O10 0.858932 0.659904 0.137397
O O11 0.500000 0.220912 0.250000
O O12 0.322274 0.110500 0.336766
O O13 0.502702 0.246738 0.099262
#
# Coordination Sequence:
#
# PCOD9267796 Si02
#       6
#     8   8   8   8   8   8
#     4  11  23  40  63  94 134 168 222 265 333 388
#     4  10  20  38  68  94 129 165 225 268 323 401
#     4  10  19  40  65  90 129 171 216 271 321 383
#     4  10  19  41  69  93 132 173 213 274 337 388
#     4  10  22  38  66 101 122 178 219 269 334 389
#     4  11  23  41  61 100 131 171 223 273 324 399
#
# _framework density 23.220154999999998
#
# number of rings (size 3 to 8) (size 9 to 14) (size 15 to 20)
#    0.000    1.667    5.000    1.000    2.333    2.000 
#    0.000    1.667    3.667    0.000    0.000    0.000 
#    0.000    0.000    0.000    0.000    0.000    0.000 
#
# Total GULP energy -134100.627597 kJ/mol
# GULP energy per Si atom -5587.526150 kJ/mol
# Density = 2.316731 g / cm^3
# Si number density = 23.220155 Si / 1000 Ang^3
#
#
#
# Elastic Constant Matrix: (Units=GPa)
#
#
# Indices 1 2 3 4 5 6 
#
# 1 207.0696 44.7097 22.8398 -0.0167 12.9931 -0.0019
# 2 44.7097 111.5029 3.9014 0.0042 3.1770 -0.0023
# 3 22.8398 3.9014 104.9082 0.0056 -0.7784 -0.0019
# 4 -0.0167 0.0042 0.0056 20.7533 -0.0099 -9.6551
# 5 12.9931 3.1770 -0.7784 -0.0099 28.5933 0.0015
# 6 -0.0019 -0.0023 -0.0019 -9.6551 0.0015 22.3125
#
#
#
# Elastic Compliance Matrix: (Units=1/GPa)
#
#
# Indices 1 2 3 4 5 6 
#
# 1 0.005560 -0.002123 -0.001149 0.000005 -0.002322 0.000003
# 2 -0.002123 0.009820 0.000096 -0.000004 -0.000124 -0.000001
# 3 -0.001149 0.000096 0.009784 -0.000004 0.000778 -0.000001
# 4 0.000005 -0.000004 -0.000004 0.060331 0.000017 0.026106
# 5 -0.002322 -0.000124 0.000778 0.000017 0.036063 0.000005
# 6 0.000003 -0.000001 -0.000001 0.026106 0.000005 0.056115
#
#
# Mechanical properties :
#
#
# Convention : Reuss Voigt Hill
#
# Bulk Modulus (GPa) = 53.15507 62.93139 58.04323
# Shear Modulus (GPa) = 26.27490 37.80045 32.03768
#
# Velocity S-wave (km/s) = 3.36751 4.03912 3.71851
# Velocity P-wave (km/s) = 6.16941 6.99382 6.59451
#
# Compressibility (1/GPa) = 0.01881288
#
# Stress axis : x y z
#
# Youngs Moduli (GPa) = 179.85234 101.83456 102.20302
#
# Poissons Ratio (x) = 0.21621 0.11741
# Poissons Ratio (y) = 0.38185 -0.00982
# Poissons Ratio (z) = 0.20661 -0.00979
#
# Static dielectric constant tensor:
#      x y z
#    x 1.903520 0.000000 -0.013950 
#    y 0.000000 1.816020 0.000010 
#    z -0.013950 0.000010 2.348110 
# 
# From -- ./inp_files/253268.got.cif
#   From: 2010.05.17/outbox.cif.g08.bks.cpg/sg15_127_cif.got.tgz:253268.got - 2010.06.03 18:47:42.
