data_PCOD9267877
_publ_section_title
;
Structure prediction by ZEFSAII (Michael W. Deem and Ramdas Pophale) SiO2 
 PCOD9267877
Probable space group: C 2/C
;
_chemical_formula_sum "Si O2"
_cell_formula_units_Z 60
_cell_length_a 14.307675
_cell_length_b 13.587454
_cell_length_c 14.986338
_cell_angle_alpha 90.000000
_cell_angle_beta 113.572147
_cell_angle_gamma 90.000000
_cell_volume 2670.313613
_symmetry_space_group_name_H-M "C 2/C"
_symmetry_group_IT_number 15
_symmetry_cell_setting 'monoclinic'
loop_
_space_group_symop_operation_xyz
x,y,z
-x,y,1/2-z
-x,-y,-z
x,-y,1/2+z
1/2+x,1/2+y,z
1/2-x,1/2+y,1/2-z
1/2-x,1/2-y,-z
1/2+x,1/2-y,1/2+z
loop_
_atom_site_type_symbol
_atom_site_label
_atom_site_fract_x
_atom_site_fract_y
_atom_site_fract_z
Si Si1 0.397883 0.832648 0.264146
Si Si2 0.150908 0.278553 0.900999
Si Si3 0.569700 0.859465 0.040256
Si Si4 0.298833 0.987562 0.656481
Si Si5 0.849759 0.552937 0.478932
Si Si6 0.000000 0.865954 0.250000
Si Si7 0.577738 0.560787 0.592416
Si Si8 0.791681 0.244555 0.914599
O O1 0.500000 0.808937 0.250000
O O2 0.402748 0.793123 0.366141
O O3 0.298868 0.789719 0.181554
O O4 0.377319 0.950910 0.247774
O O5 0.173845 0.375257 0.851843
O O6 0.098647 0.198303 0.817966
O O7 0.250000 0.250000 0.000000
O O8 0.066966 0.308353 0.944084
O O9 0.653794 0.944874 0.062684
O O10 0.467092 0.913045 0.033040
O O11 0.305164 0.040660 0.560880
O O12 0.183447 0.001492 0.643172
O O13 0.810272 0.640461 0.403002
O O14 0.029619 0.923462 0.171480
O O15 0.500000 0.500000 0.500000
O O16 0.615402 0.667211 0.564884
O O17 0.750000 0.250000 0.000000
#
# Coordination Sequence:
#
# PCOD9267877 Si02
#       8
#     8   8   8   8   8   4   8   8
#     4  11  21  37  65  99 138 172 231 290 365 428
#     4  11  26  45  71 107 144 187 249 305 369 455
#     4  10  22  39  66  99 139 179 225 300 370 423
#     4  10  22  41  71  98 138 184 237 301 364 434
#     4  10  19  40  68  95 128 182 229 295 354 425
#     4  12  28  48  82 106 148 200 252 302 388 444
#     4  11  25  48  75 103 149 199 245 310 380 459
#     4  11  21  41  73 100 136 184 241 301 359 439
#
# _framework density 22.469270000000002
#
# number of rings (size 3 to 8) (size 9 to 14) (size 15 to 20)
#    0.000    1.333    4.000    1.600    4.667    1.067 
#    0.000    1.333   10.267    0.000    0.000    0.000 
#    0.000    0.000    0.000    0.000    0.000    0.000 
#
# Total GULP energy -167498.647200 kJ/mol
# GULP energy per Si atom -5583.288240 kJ/mol
# Density = 2.241813 g / cm^3
# Si number density = 22.469270 Si / 1000 Ang^3
#
#
#
# Elastic Constant Matrix: (Units=GPa)
#
#
# Indices 1 2 3 4 5 6 
#
# 1 102.7842 36.7854 29.5735 0.0000 -9.0618 0.0000
# 2 36.7854 60.8557 29.6611 0.0000 -4.4282 0.0000
# 3 29.5735 29.6611 87.8293 0.0000 -12.4223 0.0000
# 4 0.0000 0.0000 0.0000 26.5249 0.0000 0.3672
# 5 -9.0618 -4.4282 -12.4223 0.0000 42.2569 0.0000
# 6 0.0000 0.0000 0.0000 0.3672 0.0000 28.8357
#
#
#
# Elastic Compliance Matrix: (Units=1/GPa)
#
#
# Indices 1 2 3 4 5 6 
#
# 1 0.012797 -0.006739 -0.001821 0.000000 0.001503 0.000000
# 2 -0.006739 0.023219 -0.005668 0.000000 -0.000678 0.000000
# 3 -0.001821 -0.005668 0.014371 0.000000 0.003240 0.000000
# 4 0.000000 0.000000 0.000000 0.037707 0.000000 -0.000480
# 5 0.001503 -0.000678 0.003240 0.000000 0.024869 0.000000
# 6 0.000000 0.000000 0.000000 -0.000480 0.000000 0.034685
#
#
# Mechanical properties :
#
#
# Convention : Reuss Voigt Hill
#
# Bulk Modulus (GPa) = 45.59512 49.27881 47.43697
# Shear Modulus (GPa) = 27.26062 29.88677 28.57370
#
# Velocity S-wave (km/s) = 3.48694 3.65103 3.56993
# Velocity P-wave (km/s) = 6.04549 6.30497 6.17659
#
# Compressibility (1/GPa) = 0.02193217
#
# Stress axis : x y z
#
# Youngs Moduli (GPa) = 78.14202 43.06804 69.58297
#
# Poissons Ratio (x) = 0.29023 0.12669
# Poissons Ratio (y) = 0.52658 0.39442
# Poissons Ratio (z) = 0.14227 0.24412
#
# Static dielectric constant tensor:
#      x y z
#    x 1.628210 0.000000 0.198510 
#    y 0.000000 1.912770 0.000000 
#    z 0.198510 0.000000 1.634480 
# 
# From -- ./inp_files/154285.got.cif
#   From: 2010.05.17/outbox.cif.g08.bks.cpg/sg15_78_cif.got.tgz:154285.got - 2010.06.03 18:47:42.
