data_PCOD9267379
_publ_section_title
;
Structure prediction by ZEFSAII (Michael W. Deem and Ramdas Pophale) SiO2 
 PCOD9267379
Probable space group: C 2/C
;
_chemical_formula_sum "Si O2"
_cell_formula_units_Z 60
_cell_length_a 24.037629
_cell_length_b 11.551069
_cell_length_c 19.913311
_cell_angle_alpha 90.000000
_cell_angle_beta 28.768247
_cell_angle_gamma 90.000000
_cell_volume 2660.996043
_symmetry_space_group_name_H-M "C 2/C"
_symmetry_group_IT_number 15
_symmetry_cell_setting 'monoclinic'
loop_
_space_group_symop_operation_xyz
x,y,z
-x,y,1/2-z
-x,-y,-z
x,-y,1/2+z
1/2+x,1/2+y,z
1/2-x,1/2+y,1/2-z
1/2-x,1/2-y,-z
1/2+x,1/2-y,1/2+z
loop_
_atom_site_type_symbol
_atom_site_label
_atom_site_fract_x
_atom_site_fract_y
_atom_site_fract_z
Si Si1 0.696806 0.303666 0.290105
Si Si2 0.601554 0.619053 0.747440
Si Si3 0.339233 0.987093 0.988330
Si Si4 0.172826 0.738451 0.516412
Si Si5 0.060256 0.419529 0.989413
Si Si6 0.374826 0.252886 0.695254
Si Si7 0.939533 0.923174 0.956282
Si Si8 0.500000 0.201923 0.250000
O O1 0.656322 0.332491 0.258550
O O2 0.629123 0.186042 0.382583
O O3 0.829012 0.274769 0.169221
O O4 0.659952 0.405289 0.382320
O O5 0.704836 0.534651 0.612889
O O6 0.484329 0.547551 0.886651
O O7 0.570804 0.717536 0.726662
O O8 0.381897 0.112035 0.917445
O O9 0.412981 0.881471 0.882314
O O10 0.361196 0.005040 0.044490
O O11 0.250000 0.750000 0.500000
O O12 0.264577 0.730035 0.358470
O O13 0.092180 0.843082 0.575216
O O14 0.954124 0.352073 0.137580
O O15 0.000000 0.500000 0.000000
O O16 0.451792 0.365958 0.620427
#
# Coordination Sequence:
#
# PCOD9267379 Si02
#       8
#     8   8   8   8   8   8   8   4
#     4  10  21  40  65 107 133 174 228 277 344 410
#     4  12  25  47  70  96 147 183 228 276 348 424
#     4  12  25  49  69  94 140 177 229 291 329 416
#     4  11  24  40  71 103 130 177 237 286 347 389
#     4  11  21  39  68  98 133 175 222 284 345 399
#     4  10  19  39  62 103 135 163 233 276 342 401
#     4  10  21  42  71 104 136 174 226 292 342 405
#     4  12  32  48  66 100 136 194 230 270 352 422
#
# _framework density 22.54795
#
# number of rings (size 3 to 8) (size 9 to 14) (size 15 to 20)
#    0.000    1.067    5.333    2.400    3.733    1.600 
#    0.000    4.000    0.000    0.000    0.000    0.000 
#    0.000    0.000    0.000    0.000    0.000    0.000 
#
# Total GULP energy -167524.708513 kJ/mol
# GULP energy per Si atom -5584.156950 kJ/mol
# Density = 2.249663 g / cm^3
# Si number density = 22.547950 Si / 1000 Ang^3
#
#
#
# Elastic Constant Matrix: (Units=GPa)
#
#
# Indices 1 2 3 4 5 6 
#
# 1 158.8556 58.3210 -0.9988 0.0000 -12.1307 0.0000
# 2 58.3210 100.8766 10.9760 0.0000 0.6147 0.0000
# 3 -0.9988 10.9760 32.3937 0.0000 -7.9763 0.0000
# 4 0.0000 0.0000 0.0000 32.5872 0.0000 -4.5793
# 5 -12.1307 0.6147 -7.9763 0.0000 27.4639 0.0000
# 6 0.0000 0.0000 0.0000 -4.5793 0.0000 40.7505
#
#
#
# Elastic Compliance Matrix: (Units=1/GPa)
#
#
# Indices 1 2 3 4 5 6 
#
# 1 0.008676 -0.005406 0.003309 0.000000 0.004914 0.000000
# 2 -0.005406 0.013707 -0.005896 0.000000 -0.004407 0.000000
# 3 0.003309 -0.005896 0.035932 0.000000 0.012029 0.000000
# 4 0.000000 0.000000 0.000000 0.031179 0.000000 0.003504
# 5 0.004914 -0.004407 0.012029 0.000000 0.042174 0.000000
# 6 0.000000 0.000000 0.000000 0.003504 0.000000 0.024933
#
#
# Mechanical properties :
#
#
# Convention : Reuss Voigt Hill
#
# Bulk Modulus (GPa) = 23.62446 47.63580 35.63013
# Shear Modulus (GPa) = 26.78145 35.08217 30.93181
#
# Velocity S-wave (km/s) = 3.45012 3.94876 3.70783
# Velocity P-wave (km/s) = 5.13530 6.47785 5.84525
#
# Compressibility (1/GPa) = 0.04232901
#
# Stress axis : x y z
#
# Youngs Moduli (GPa) = 115.26408 72.95652 27.83042
#
# Poissons Ratio (x) = 0.39439 -0.09210
# Poissons Ratio (y) = 0.62309 0.16409
# Poissons Ratio (z) = -0.38143 0.43016
#
# Static dielectric constant tensor:
#      x y z
#    x 1.891440 0.000000 -0.008890 
#    y 0.000000 1.883240 0.000000 
#    z -0.008890 0.000000 1.920260 
# 
# From -- ./inp_files/255534.got.cif
#   From: 2010.05.17/outbox.cif.g08.bks.cpg/sg15_128_cif.got.tgz:255534.got - 2010.06.03 18:47:42.
