data_PCOD9267811
_publ_section_title
;
Structure prediction by ZEFSAII (Michael W. Deem and Ramdas Pophale) SiO2 
 PCOD9267811
Probable space group: C 2/C
;
_chemical_formula_sum "Si O2"
_cell_formula_units_Z 56
_cell_length_a 11.575831
_cell_length_b 15.786894
_cell_length_c 13.973224
_cell_angle_alpha 90.000000
_cell_angle_beta 95.784287
_cell_angle_gamma 90.000000
_cell_volume 2540.554893
_symmetry_space_group_name_H-M "C 2/C"
_symmetry_group_IT_number 15
_symmetry_cell_setting 'monoclinic'
loop_
_space_group_symop_operation_xyz
x,y,z
-x,y,1/2-z
-x,-y,-z
x,-y,1/2+z
1/2+x,1/2+y,z
1/2-x,1/2+y,1/2-z
1/2-x,1/2-y,-z
1/2+x,1/2-y,1/2+z
loop_
_atom_site_type_symbol
_atom_site_label
_atom_site_fract_x
_atom_site_fract_y
_atom_site_fract_z
Si Si1 0.406862 0.960534 0.170122
Si Si2 0.322643 0.324384 0.155761
Si Si3 0.068008 0.912916 0.521152
Si Si4 0.686223 0.875644 0.875324
Si Si5 0.427533 0.877835 0.433011
Si Si6 0.715755 0.681257 0.637469
Si Si7 0.407929 0.716182 0.076536
O O1 0.500000 0.919613 0.250000
O O2 0.491990 0.956276 0.087124
O O3 0.296516 0.902125 0.139625
O O4 0.368560 0.054107 0.199345
O O5 0.404717 0.361986 0.077636
O O6 0.300423 0.223443 0.144215
O O7 0.197281 0.370194 0.130559
O O8 0.355927 0.330331 0.270743
O O9 0.194316 0.916955 0.578564
O O10 0.990544 0.863466 0.592856
O O11 0.000000 0.000000 0.500000
O O12 0.602552 0.874629 0.959113
O O13 0.506349 0.795852 0.418883
O O14 0.647423 0.697551 0.533393
O O15 0.807314 0.760337 0.643334
#
# Coordination Sequence:
#
# PCOD9267811 Si02
#       7
#     8   8   8   8   8   8   8
#     4  11  22  38  62  92 130 166 219 271 327 383
#     4  11  21  42  66  93 128 170 219 268 325 392
#     4  11  22  41  67  91 133 172 215 264 332 398
#     4  11  22  39  63  96 124 162 220 262 320 396
#     4  10  19  40  66  87 121 175 213 263 327 388
#     4  10  23  39  64  94 129 169 221 272 324 393
#     4  10  20  40  64  93 125 172 218 264 330 390
#
# _framework density 22.042428999999998
#
# number of rings (size 3 to 8) (size 9 to 14) (size 15 to 20)
#    0.000    1.429    4.286    2.143    0.000    1.714 
#    2.571    1.429    0.000    0.000    0.000    0.000 
#    0.000    0.000    0.000    0.000    0.000    0.000 
#
# Total GULP energy -155887.044253 kJ/mol
# GULP energy per Si atom -5567.394438 kJ/mol
# Density = 2.199226 g / cm^3
# Si number density = 22.042429 Si / 1000 Ang^3
#
#
#
# Elastic Constant Matrix: (Units=GPa)
#
#
# Indices 1 2 3 4 5 6 
#
# 1 62.8856 35.3294 9.7171 0.0000 -13.1204 0.0000
# 2 35.3294 107.8678 2.2373 0.0000 2.3300 0.0000
# 3 9.7171 2.2373 65.1602 0.0000 0.7078 0.0000
# 4 0.0000 0.0000 0.0000 18.3626 0.0000 7.5717
# 5 -13.1204 2.3300 0.7078 0.0000 27.5543 0.0000
# 6 0.0000 0.0000 0.0000 7.5717 0.0000 -10.8328
#
#
#
# Elastic Compliance Matrix: (Units=1/GPa)
#
#
# Indices 1 2 3 4 5 6 
#
# 1 0.023271 -0.007808 -0.003331 0.000000 0.011827 0.000000
# 2 -0.007808 0.011914 0.000807 0.000000 -0.004746 0.000000
# 3 -0.003331 0.000807 0.015838 0.000000 -0.002061 0.000000
# 4 0.000000 0.000000 0.000000 0.042275 0.000000 0.029548
# 5 0.011827 -0.004746 -0.002061 0.000000 0.042378 0.000000
# 6 0.000000 0.000000 0.000000 0.029548 0.000000 -0.071660
#
#
# Mechanical properties :
#
#
# Convention : Reuss Voigt Hill
#
# Bulk Modulus (GPa) = 32.93933 36.72015 34.82974
# Shear Modulus (GPa) = 52.74340 19.59214 36.16777
#
# Velocity S-wave (km/s) = 4.89694 2.98457 4.05510
# Velocity P-wave (km/s) = 6.85197 5.34527 6.14497
#
# Compressibility (1/GPa) = 0.03035884
#
# Stress axis : x y z
#
# Youngs Moduli (GPa) = 42.97254 83.93669 63.13868
#
# Poissons Ratio (x) = 0.65539 0.21029
# Poissons Ratio (y) = 0.33553 -0.05095
# Poissons Ratio (z) = 0.14313 -0.06773
#
# Static dielectric constant tensor:
#      x y z
#    x 1.868980 0.000000 -0.065220 
#    y 0.000000 1.823050 0.000000 
#    z -0.065220 0.000000 2.028320 
# 
# From -- ./inp_files/144232.got.cif
#   From: 2010.05.17/outbox.cif.g08.bks.cpg/sg15_73_cif.got.tgz:144232.got - 2010.06.03 18:47:42.
