data_PCOD9267943
_publ_section_title
;
Structure prediction by ZEFSAII (Michael W. Deem and Ramdas Pophale) SiO2 
 PCOD9267943
Probable space group: C 2/C
;
_chemical_formula_sum "Si O2"
_cell_formula_units_Z 56
_cell_length_a 19.527646
_cell_length_b 8.663070
_cell_length_c 19.486259
_cell_angle_alpha 90.000000
_cell_angle_beta 59.903618
_cell_angle_gamma 90.000000
_cell_volume 2852.057053
_symmetry_space_group_name_H-M "C 2/C"
_symmetry_group_IT_number 15
_symmetry_cell_setting 'monoclinic'
loop_
_space_group_symop_operation_xyz
x,y,z
-x,y,1/2-z
-x,-y,-z
x,-y,1/2+z
1/2+x,1/2+y,z
1/2-x,1/2+y,1/2-z
1/2-x,1/2-y,-z
1/2+x,1/2-y,1/2+z
loop_
_atom_site_type_symbol
_atom_site_label
_atom_site_fract_x
_atom_site_fract_y
_atom_site_fract_z
Si Si1 0.623334 0.266274 0.225662
Si Si2 0.687745 0.331792 0.480366
Si Si3 0.000000 0.508869 0.250000
Si Si4 0.021542 0.744841 0.630006
Si Si5 0.500000 0.504555 0.250000
Si Si6 0.400686 0.353234 0.105747
Si Si7 0.725836 0.310354 0.938489
Si Si8 0.935267 0.209152 0.042460
O O1 0.576381 0.395747 0.204981
O O2 0.623732 0.323725 0.303952
O O3 0.707718 0.229473 0.150798
O O4 0.568404 0.115516 0.246562
O O5 0.750000 0.250000 0.500000
O O6 0.602808 0.312346 0.559468
O O7 0.664112 0.280638 0.414296
O O8 0.714933 0.506900 0.455253
O O9 0.965803 0.398788 0.326470
O O10 0.963636 0.704765 0.596596
O O11 0.986461 0.883662 0.692793
O O12 0.413286 0.534185 0.078929
O O13 0.488895 0.289681 0.045669
O O14 0.642994 0.236599 0.956060
O O15 0.750000 0.250000 0.000000
#
# Coordination Sequence:
#
# PCOD9267943 Si02
#       8
#     8   8   4   8   4   8   8   8
#     4  11  22  39  58  95 126 156 196 267 316 354
#     4  10  21  41  63  85 122 162 202 251 307 371
#     4  10  24  36  60  88 130 152 202 260 320 360
#     4  10  19  41  61  89 111 167 210 246 294 378
#     4  10  20  34  68  82 114 162 212 242 294 370
#     4   9  19  38  67  87 116 159 209 249 300 362
#     4  11  24  39  60  93 124 160 202 256 313 362
#     4   9  19  39  63  87 115 159 212 247 292 372
#
# _framework density 19.634951999999998
#
# number of rings (size 3 to 8) (size 9 to 14) (size 15 to 20)
#    0.000    2.000    1.429    2.571    4.000    0.000 
#   12.857    1.429    0.000    0.000    0.000    0.000 
#    0.000    0.000    0.000    0.000    0.000    0.000 
#
# Total GULP energy -156163.351576 kJ/mol
# GULP energy per Si atom -5577.262556 kJ/mol
# Density = 1.959026 g / cm^3
# Si number density = 19.634952 Si / 1000 Ang^3
#
#
#
# Elastic Constant Matrix: (Units=GPa)
#
#
# Indices 1 2 3 4 5 6 
#
# 1 149.8093 19.4111 56.2710 0.0000 6.2486 -0.0001
# 2 19.4111 43.1136 21.0578 0.0000 1.9595 -0.0004
# 3 56.2710 21.0578 112.7255 0.0000 13.7951 0.0000
# 4 0.0000 0.0000 0.0000 20.4884 0.0000 5.1219
# 5 6.2486 1.9595 13.7951 0.0000 23.7249 0.0000
# 6 -0.0001 -0.0004 0.0000 5.1219 0.0000 22.2997
#
#
#
# Elastic Compliance Matrix: (Units=1/GPa)
#
#
# Indices 1 2 3 4 5 6 
#
# 1 0.008355 -0.001895 -0.003840 0.000000 0.000189 0.000000
# 2 -0.001895 0.025964 -0.003987 0.000000 0.000673 0.000000
# 3 -0.003840 -0.003987 0.012240 0.000000 -0.005776 0.000000
# 4 0.000000 0.000000 0.000000 0.051781 0.000000 -0.011893
# 5 0.000189 0.000673 -0.005776 0.000000 0.045403 0.000000
# 6 0.000000 0.000000 0.000000 -0.011893 0.000000 0.047575
#
#
# Mechanical properties :
#
#
# Convention : Reuss Voigt Hill
#
# Bulk Modulus (GPa) = 36.87847 55.45868 46.16857
# Shear Modulus (GPa) = 22.74790 27.22983 24.98886
#
# Velocity S-wave (km/s) = 3.40743 3.72802 3.57132
# Velocity P-wave (km/s) = 5.85693 6.84376 6.36948
#
# Compressibility (1/GPa) = 0.02711609
#
# Stress axis : x y z
#
# Youngs Moduli (GPa) = 119.68695 38.51437 81.70238
#
# Poissons Ratio (x) = 0.07298 0.31373
# Poissons Ratio (y) = 0.22679 0.32573
# Poissons Ratio (z) = 0.45958 0.15355
#
# Static dielectric constant tensor:
#      x y z
#    x 1.723560 0.000000 0.025330 
#    y 0.000000 1.691690 0.000000 
#    z 0.025330 0.000000 1.670590 
# 
# From -- ./inp_files/247391.got.cif
#   From: 2010.05.17/outbox.cif.g08.bks.cpg/sg15_124_cif.got.tgz:247391.got - 2010.06.03 18:47:42.
