data_PCOD9267575
_publ_section_title
;
Structure prediction by ZEFSAII (Michael W. Deem and Ramdas Pophale) SiO2 
 PCOD9267575
Probable space group: C 2/C
;
_chemical_formula_sum "Si O2"
_cell_formula_units_Z 48
_cell_length_a 10.490385
_cell_length_b 9.991611
_cell_length_c 18.987049
_cell_angle_alpha 90.000000
_cell_angle_beta 78.027104
_cell_angle_gamma 90.000000
_cell_volume 1946.849714
_symmetry_space_group_name_H-M "C 2/C"
_symmetry_group_IT_number 15
_symmetry_cell_setting 'monoclinic'
loop_
_space_group_symop_operation_xyz
x,y,z
-x,y,1/2-z
-x,-y,-z
x,-y,1/2+z
1/2+x,1/2+y,z
1/2-x,1/2+y,1/2-z
1/2-x,1/2-y,-z
1/2+x,1/2-y,1/2+z
loop_
_atom_site_type_symbol
_atom_site_label
_atom_site_fract_x
_atom_site_fract_y
_atom_site_fract_z
Si Si1 0.375683 0.492587 0.394580
Si Si2 0.060383 0.277778 0.086012
Si Si3 0.364467 0.033577 0.472328
Si Si4 0.470460 0.264784 0.072661
Si Si5 0.201759 0.656221 0.810375
Si Si6 0.369904 0.129420 0.221549
O O1 0.398520 0.647492 0.376520
O O2 0.261302 0.480651 0.465672
O O3 0.503005 0.416280 0.408176
O O4 0.325251 0.409859 0.334376
O O5 0.910273 0.305629 0.121227
O O6 0.135697 0.417875 0.086785
O O7 0.080178 0.239634 0.001323
O O8 0.500000 0.000000 0.500000
O O9 0.391572 0.182934 0.443060
O O10 0.389996 0.180253 0.138833
O O11 0.249556 0.787104 0.765370
O O12 0.147528 0.530116 0.773005
O O13 0.500000 0.164295 0.250000
#
# Coordination Sequence:
#
# PCOD9267575 Si02
#       6
#     8   8   8   8   8   8
#     4  12  23  41  74 103 140 180 228 294 353 413
#     4  11  24  44  72 106 136 178 238 293 351 412
#     4  10  19  39  66  99 136 172 224 286 343 401
#     4  11  22  45  70 104 142 178 234 289 349 416
#     4  12  27  49  71 102 141 188 236 291 348 426
#     4  12  28  49  71 101 144 191 233 286 352 419
#
# _framework density 24.655214999999998
#
# number of rings (size 3 to 8) (size 9 to 14) (size 15 to 20)
#    0.000    0.667    6.667    2.500    2.333    1.333 
#    3.000    0.000    0.000    0.000    0.000    0.000 
#    0.000    0.000    0.000    0.000    0.000    0.000 
#
# Total GULP energy -134341.293545 kJ/mol
# GULP energy per Si atom -5597.553898 kJ/mol
# Density = 2.459910 g / cm^3
# Si number density = 24.655215 Si / 1000 Ang^3
#
#
#
# Elastic Constant Matrix: (Units=GPa)
#
#
# Indices 1 2 3 4 5 6 
#
# 1 50.9041 17.5787 14.5837 0.0000 2.2431 0.0000
# 2 17.5787 98.7745 -3.7902 0.0000 6.6871 0.0000
# 3 14.5837 -3.7902 66.9341 0.0000 3.9001 0.0000
# 4 0.0000 0.0000 0.0000 32.9749 0.0000 -7.3582
# 5 2.2431 6.6871 3.9001 0.0000 22.9198 0.0000
# 6 0.0000 0.0000 0.0000 -7.3582 0.0000 42.3279
#
#
#
# Elastic Compliance Matrix: (Units=1/GPa)
#
#
# Indices 1 2 3 4 5 6 
#
# 1 0.022579 -0.004209 -0.005152 0.000000 -0.000105 0.000000
# 2 -0.004209 0.011152 0.001731 0.000000 -0.003136 0.000000
# 3 -0.005152 0.001731 0.016322 0.000000 -0.002778 0.000000
# 4 0.000000 0.000000 0.000000 0.031550 0.000000 0.005485
# 5 -0.000105 -0.003136 -0.002778 0.000000 0.045028 0.000000
# 6 0.000000 0.000000 0.000000 0.005485 0.000000 0.024579
#
#
# Mechanical properties :
#
#
# Convention : Reuss Voigt Hill
#
# Bulk Modulus (GPa) = 28.74018 30.37302 29.55660
# Shear Modulus (GPa) = 28.07932 32.19389 30.13660
#
# Velocity S-wave (km/s) = 3.37839 3.61746 3.49996
# Velocity P-wave (km/s) = 5.18654 5.45837 5.32419
#
# Compressibility (1/GPa) = 0.03479450
#
# Stress axis : x y z
#
# Youngs Moduli (GPa) = 44.28928 89.67092 61.26529
#
# Poissons Ratio (x) = 0.37741 0.31562
# Poissons Ratio (y) = 0.18641 -0.10607
# Poissons Ratio (z) = 0.22817 -0.15525
#
# Static dielectric constant tensor:
#      x y z
#    x 1.984990 0.000000 0.054770 
#    y 0.000000 2.023990 0.000000 
#    z 0.054770 0.000000 1.957350 
# 
# From -- ./inp_files/236513.got.cif
#   From: 2010.05.17/outbox.cif.g08.bks.cpg/sg15_119_cif.got.tgz:236513.got - 2010.06.03 18:47:42.
