data_PCOD9267732
_publ_section_title
;
Structure prediction by ZEFSAII (Michael W. Deem and Ramdas Pophale) SiO2 
 PCOD9267732
Probable space group: C 2/C
;
_chemical_formula_sum "Si O2"
_cell_formula_units_Z 40
_cell_length_a 15.847757
_cell_length_b 8.379683
_cell_length_c 26.244269
_cell_angle_alpha 90.000000
_cell_angle_beta 151.383237
_cell_angle_gamma 90.000000
_cell_volume 1669.240373
_symmetry_space_group_name_H-M "C 2/C"
_symmetry_group_IT_number 15
_symmetry_cell_setting 'monoclinic'
loop_
_space_group_symop_operation_xyz
x,y,z
-x,y,1/2-z
-x,-y,-z
x,-y,1/2+z
1/2+x,1/2+y,z
1/2-x,1/2+y,1/2-z
1/2-x,1/2-y,-z
1/2+x,1/2-y,1/2+z
loop_
_atom_site_type_symbol
_atom_site_label
_atom_site_fract_x
_atom_site_fract_y
_atom_site_fract_z
Si Si1 0.889897 0.110522 0.772235
Si Si2 0.790911 0.578086 0.121276
Si Si3 0.263908 0.016233 0.212969
Si Si4 0.876395 0.399876 0.065624
Si Si5 0.264826 0.922311 0.413564
O O1 0.832753 0.297375 0.750381
O O2 0.771612 0.033180 0.664165
O O3 0.082594 0.094837 0.849447
O O4 0.876097 0.015497 0.817372
O O5 0.715122 0.480795 0.128715
O O6 0.798808 0.511205 0.069185
O O7 0.679703 0.739407 0.060229
O O8 0.000000 0.600777 0.250000
O O9 0.421171 0.894173 0.310495
O O10 0.750000 0.250000 0.000000
O O11 0.879200 0.467955 0.009977
#
# Coordination Sequence:
#
# PCOD9267732 Si02
#       5
#     8   8   8   8   8
#     4  10  21  39  63  89 115 162 200 242 299 359
#     4   9  17  40  60  82 112 161 197 235 292 363
#     4  10  22  39  61  88 121 153 203 248 295 357
#     4  11  23  36  60  92 123 152 200 252 297 345
#     4  10  19  40  63  83 116 164 199 235 303 361
#
# _framework density 23.962996
#
# number of rings (size 3 to 8) (size 9 to 14) (size 15 to 20)
#    0.000    2.000    6.000    0.600    2.800    2.400 
#    7.200    1.000    0.000    0.000    0.000    0.000 
#    0.000    0.000    0.000    0.000    0.000    0.000 
#
# Total GULP energy -111555.350461 kJ/mol
# GULP energy per Si atom -5577.767523 kJ/mol
# Density = 2.390846 g / cm^3
# Si number density = 23.962996 Si / 1000 Ang^3
#
#
#
# Elastic Constant Matrix: (Units=GPa)
#
#
# Indices 1 2 3 4 5 6 
#
# 1 124.4671 -0.7735 12.0002 0.0000 -6.2539 0.0000
# 2 -0.7735 31.1363 16.7780 0.0000 -2.1481 0.0000
# 3 12.0002 16.7780 63.0400 0.0002 -8.1354 0.0000
# 4 0.0000 0.0000 0.0002 12.4327 0.0001 -4.0064
# 5 -6.2539 -2.1481 -8.1354 0.0001 26.0459 0.0000
# 6 0.0000 0.0000 0.0000 -4.0064 0.0000 36.2295
#
#
#
# Elastic Compliance Matrix: (Units=1/GPa)
#
#
# Indices 1 2 3 4 5 6 
#
# 1 0.008284 0.001231 -0.001704 0.000000 0.001559 0.000000
# 2 0.001231 0.037677 -0.010235 0.000000 0.000206 0.000000
# 3 -0.001704 -0.010235 0.019537 0.000000 0.004849 0.000000
# 4 0.000000 0.000000 0.000000 0.083405 0.000000 0.009223
# 5 0.001559 0.000206 0.004849 0.000000 0.040300 0.000000
# 6 0.000000 0.000000 0.000000 0.009223 0.000000 0.028622
#
#
# Mechanical properties :
#
#
# Convention : Reuss Voigt Hill
#
# Bulk Modulus (GPa) = 22.68438 30.51698 26.60068
# Shear Modulus (GPa) = 19.69003 27.65085 23.67044
#
# Velocity S-wave (km/s) = 2.86961 3.40059 3.14632
# Velocity P-wave (km/s) = 4.52400 5.30861 4.93193
#
# Compressibility (1/GPa) = 0.04408321
#
# Stress axis : x y z
#
# Youngs Moduli (GPa) = 120.70781 26.54135 51.18441
#
# Poissons Ratio (x) = -0.03268 0.08720
# Poissons Ratio (y) = -0.14863 0.52390
# Poissons Ratio (z) = 0.20564 0.27166
#
# Static dielectric constant tensor:
#      x y z
#    x 1.967320 0.000000 0.034210 
#    y 0.000000 1.952840 0.000000 
#    z 0.034210 0.000000 2.019280 
# 
# From -- ./inp_files/298469.got.cif
#   From: 2010.05.17/outbox.cif.g08.bks.cpg/sg15_150_cif.got.tgz:298469.got - 2010.06.03 18:47:42.
