data_PCOD9267508
_publ_section_title
;
Structure prediction by ZEFSAII (Michael W. Deem and Ramdas Pophale) SiO2 
 PCOD9267508
Probable space group: C 2/C
;
_chemical_formula_sum "Si O2"
_cell_formula_units_Z 52
_cell_length_a 12.403273
_cell_length_b 17.330587
_cell_length_c 20.526028
_cell_angle_alpha 90.000000
_cell_angle_beta 143.296655
_cell_angle_gamma 90.000000
_cell_volume 2637.043962
_symmetry_space_group_name_H-M "C 2/C"
_symmetry_group_IT_number 15
_symmetry_cell_setting 'monoclinic'
loop_
_space_group_symop_operation_xyz
x,y,z
-x,y,1/2-z
-x,-y,-z
x,-y,1/2+z
1/2+x,1/2+y,z
1/2-x,1/2+y,1/2-z
1/2-x,1/2-y,-z
1/2+x,1/2-y,1/2+z
loop_
_atom_site_type_symbol
_atom_site_label
_atom_site_fract_x
_atom_site_fract_y
_atom_site_fract_z
Si Si1 0.990492 0.449695 0.842160
Si Si2 0.000000 0.309551 0.750000
Si Si3 0.566548 0.533905 0.140375
Si Si4 0.000000 0.992328 0.250000
Si Si5 0.660755 0.758605 0.029384
Si Si6 0.405319 0.382079 0.435932
Si Si7 0.000000 0.589482 0.750000
Si Si8 0.867008 0.568329 0.958771
O O1 0.013112 0.370385 0.814804
O O2 0.778666 0.449245 0.756514
O O3 0.020166 0.528516 0.818238
O O4 0.143221 0.449892 0.970079
O O5 0.822387 0.258852 0.658375
O O6 0.483050 0.536327 0.172619
O O7 0.561987 0.450817 0.100993
O O8 0.482468 0.589681 0.043909
O O9 0.179295 0.941127 0.331484
O O10 0.579664 0.841767 0.010849
O O11 0.750000 0.750000 0.000000
O O12 0.512652 0.692584 0.965216
O O13 0.190147 0.367915 0.335679
O O14 0.000000 0.500000 0.000000
#
# Coordination Sequence:
#
# PCOD9267508 Si02
#       8
#     8   4   8   4   8   8   4   8
#     4  10  19  39  64  94 125 166 217 267 325 391
#     4  11  21  40  66  95 125 164 212 280 336 382
#     4  10  20  37  65  98 129 173 218 270 326 400
#     4  12  23  38  68  92 131 172 216 269 334 388
#     4  12  24  39  66  97 130 165 217 287 335 390
#     4  10  21  39  63  98 133 172 224 264 335 401
#     4   9  20  36  68  91 126 172 218 267 308 406
#     4  12  25  42  59  93 128 166 211 268 334 394
#
# _framework density 19.719048999999998
#
# number of rings (size 3 to 8) (size 9 to 14) (size 15 to 20)
#    0.000    1.231    4.615    2.308    2.154    0.000 
#    0.000    0.769    0.000    1.846    0.000    0.000 
#    0.000    0.000    0.000    0.000    0.000    0.000 
#
# Total GULP energy -144813.788203 kJ/mol
# GULP energy per Si atom -5569.761085 kJ/mol
# Density = 1.967417 g / cm^3
# Si number density = 19.719049 Si / 1000 Ang^3
#
#
#
# Elastic Constant Matrix: (Units=GPa)
#
#
# Indices 1 2 3 4 5 6 
#
# 1 87.8013 47.7238 28.6928 0.0000 0.8595 0.0000
# 2 47.7238 122.1247 40.1017 0.0000 19.6576 0.0000
# 3 28.6928 40.1017 104.0434 0.0000 6.0264 0.0000
# 4 0.0000 0.0000 0.0000 27.2944 0.0000 -1.5068
# 5 0.8595 19.6576 6.0264 0.0000 42.5299 0.0000
# 6 0.0000 0.0000 0.0000 -1.5068 0.0000 28.5229
#
#
#
# Elastic Compliance Matrix: (Units=1/GPa)
#
#
# Indices 1 2 3 4 5 6 
#
# 1 0.015123 -0.005620 -0.002155 0.000000 0.002597 0.000000
# 2 -0.005620 0.012135 -0.002832 0.000000 -0.005094 0.000000
# 3 -0.002155 -0.002832 0.011312 0.000000 -0.000250 0.000000
# 4 0.000000 0.000000 0.000000 0.036745 0.000000 0.001941
# 5 0.002597 -0.005094 -0.000250 0.000000 0.025850 0.000000
# 6 0.000000 0.000000 0.000000 0.001941 0.000000 0.035162
#
#
# Mechanical properties :
#
#
# Convention : Reuss Voigt Hill
#
# Bulk Modulus (GPa) = 57.62050 60.77845 59.19948
# Shear Modulus (GPa) = 30.61375 32.83286 31.72330
#
# Velocity S-wave (km/s) = 3.94445 4.08491 4.01529
# Velocity P-wave (km/s) = 7.07312 7.28956 7.18216
#
# Compressibility (1/GPa) = 0.01735493
#
# Stress axis : x y z
#
# Youngs Moduli (GPa) = 66.12465 82.40960 88.40427
#
# Poissons Ratio (x) = 0.46316 0.19049
# Poissons Ratio (y) = 0.37164 0.25037
# Poissons Ratio (z) = 0.14248 0.23339
#
# Static dielectric constant tensor:
#      x y z
#    x 1.739650 0.000000 0.009320 
#    y 0.000000 1.742230 0.000000 
#    z 0.009320 0.000000 1.707800 
# 
# From -- ./inp_files/239893.got.cif
#   From: 2010.05.17/outbox.cif.g08.bks.cpg/sg15_120_cif.got.tgz:239893.got - 2010.06.03 18:47:42.
