data_PCOD9267873
_publ_section_title
;
Structure prediction by ZEFSAII (Michael W. Deem and Ramdas Pophale) SiO2 
 PCOD9267873
Probable space group: C 2/C
;
_chemical_formula_sum "Si O2"
_cell_formula_units_Z 56
_cell_length_a 17.609341
_cell_length_b 8.041912
_cell_length_c 26.042174
_cell_angle_alpha 90.000000
_cell_angle_beta 140.126212
_cell_angle_gamma 90.000000
_cell_volume 2364.310348
_symmetry_space_group_name_H-M "C 2/C"
_symmetry_group_IT_number 15
_symmetry_cell_setting 'monoclinic'
loop_
_space_group_symop_operation_xyz
x,y,z
-x,y,1/2-z
-x,-y,-z
x,-y,1/2+z
1/2+x,1/2+y,z
1/2-x,1/2+y,1/2-z
1/2-x,1/2-y,-z
1/2+x,1/2-y,1/2+z
loop_
_atom_site_type_symbol
_atom_site_label
_atom_site_fract_x
_atom_site_fract_y
_atom_site_fract_z
Si Si1 0.575623 0.882036 0.340265
Si Si2 0.866562 0.945982 0.680129
Si Si3 0.194528 0.259064 0.663099
Si Si4 0.814624 0.606297 0.966221
Si Si5 0.444708 0.757176 0.013502
Si Si6 0.189347 0.042571 0.008677
Si Si7 0.619315 0.093657 0.671759
O O1 0.500000 0.908067 0.250000
O O2 0.631643 0.697586 0.363070
O O3 0.488444 0.893885 0.343199
O O4 0.685389 0.006147 0.398907
O O5 0.811780 0.845015 0.698871
O O6 0.000000 0.002920 0.750000
O O7 0.781130 0.099958 0.628394
O O8 0.109918 0.206929 0.570967
O O9 0.255871 0.135070 0.735414
O O10 0.126677 0.405181 0.656717
O O11 0.893032 0.444362 0.995358
O O12 0.868797 0.786897 0.001643
O O13 0.733511 0.571928 0.973939
O O14 0.391419 0.616240 0.022952
O O15 0.579442 0.787918 0.102962
#
# Coordination Sequence:
#
# PCOD9267873 Si02
#       7
#     8   8   8   8   8   8   8
#     4  11  19  39  72  96 131 190 237 285 364 426
#     4  10  19  40  68  93 132 179 237 282 347 433
#     4  11  25  46  67 105 139 183 247 288 362 441
#     4  10  21  34  61 109 133 166 236 301 345 419
#     4  11  22  46  74  93 142 200 232 288 369 436
#     4  11  20  36  64 105 138 170 237 301 350 420
#     4  12  24  46  71  99 145 192 230 305 363 421
#
# _framework density 23.685555000000001
#
# number of rings (size 3 to 8) (size 9 to 14) (size 15 to 20)
#    0.000    1.143    7.143    1.714    0.000    0.571 
#   15.429    0.714    0.000    0.000    0.000    0.000 
#    0.000    0.000    0.000    0.000    0.000    0.000 
#
# Total GULP energy -156225.443724 kJ/mol
# GULP energy per Si atom -5579.480133 kJ/mol
# Density = 2.363165 g / cm^3
# Si number density = 23.685555 Si / 1000 Ang^3
#
#
#
# Elastic Constant Matrix: (Units=GPa)
#
#
# Indices 1 2 3 4 5 6 
#
# 1 85.5629 25.8281 11.5446 0.0000 8.5235 0.0000
# 2 25.8281 88.4020 12.0589 0.0000 4.6406 0.0000
# 3 11.5446 12.0589 91.3037 0.0000 -8.0767 0.0000
# 4 0.0000 0.0000 0.0000 15.4298 0.0000 3.9911
# 5 8.5235 4.6406 -8.0767 0.0000 18.2060 0.0000
# 6 0.0000 0.0000 0.0000 3.9911 0.0000 7.8899
#
#
#
# Elastic Compliance Matrix: (Units=1/GPa)
#
#
# Indices 1 2 3 4 5 6 
#
# 1 0.013585 -0.003389 -0.001828 0.000000 -0.006307 0.000000
# 2 -0.003389 0.012617 -0.001439 0.000000 -0.002268 0.000000
# 3 -0.001828 -0.001439 0.011951 0.000000 0.006524 0.000000
# 4 0.000000 0.000000 0.000000 0.074567 0.000000 -0.037720
# 5 -0.006307 -0.002268 0.006524 0.000000 0.061352 0.000000
# 6 0.000000 0.000000 0.000000 -0.037720 0.000000 0.145826
#
#
# Mechanical properties :
#
#
# Convention : Reuss Voigt Hill
#
# Bulk Modulus (GPa) = 40.25357 40.45909 40.35633
# Shear Modulus (GPa) = 14.64175 22.69426 18.66800
#
# Velocity S-wave (km/s) = 2.48900 3.09875 2.81046
# Velocity P-wave (km/s) = 5.02912 5.47009 5.25423
#
# Compressibility (1/GPa) = 0.02484252
#
# Stress axis : x y z
#
# Youngs Moduli (GPa) = 73.60952 79.25632 83.67676
#
# Poissons Ratio (x) = 0.26857 0.15297
# Poissons Ratio (y) = 0.24944 0.12037
# Poissons Ratio (z) = 0.13457 0.11402
#
# Static dielectric constant tensor:
#      x y z
#    x 1.968700 0.000000 -0.041650 
#    y 0.000000 1.887210 0.000000 
#    z -0.041650 0.000000 2.034400 
# 
# From -- ./inp_files/276615.got.cif
#   From: 2010.05.17/outbox.cif.g08.bks.cpg/sg15_139_cif.got.tgz:276615.got - 2010.06.03 18:47:42.
