data_PCOD9267930
_publ_section_title
;
Structure prediction by ZEFSAII (Michael W. Deem and Ramdas Pophale) SiO2 
 PCOD9267930
Probable space group: C 2/C
;
_chemical_formula_sum "Si O2"
_cell_formula_units_Z 56
_cell_length_a 27.002091
_cell_length_b 7.821965
_cell_length_c 12.533305
_cell_angle_alpha 90.000000
_cell_angle_beta 60.426804
_cell_angle_gamma 90.000000
_cell_volume 2302.296648
_symmetry_space_group_name_H-M "C 2/C"
_symmetry_group_IT_number 15
_symmetry_cell_setting 'monoclinic'
loop_
_space_group_symop_operation_xyz
x,y,z
-x,y,1/2-z
-x,-y,-z
x,-y,1/2+z
1/2+x,1/2+y,z
1/2-x,1/2+y,1/2-z
1/2-x,1/2-y,-z
1/2+x,1/2-y,1/2+z
loop_
_atom_site_type_symbol
_atom_site_label
_atom_site_fract_x
_atom_site_fract_y
_atom_site_fract_z
Si Si1 0.292810 0.697415 0.548266
Si Si2 0.551996 0.616838 0.981974
Si Si3 0.280484 0.595317 0.794587
Si Si4 0.342450 0.938976 0.012281
Si Si5 0.366502 0.316265 0.671026
Si Si6 0.606120 0.235654 0.239585
Si Si7 0.406044 0.593482 0.343887
O O1 0.250000 0.750000 0.500000
O O2 0.266968 0.624742 0.684155
O O3 0.340462 0.569403 0.452667
O O4 0.332294 0.860283 0.536081
O O5 0.602893 0.478212 0.916035
O O6 0.566256 0.773830 0.887323
O O7 0.500000 0.500000 0.000000
O O8 0.553707 0.658653 0.104999
O O9 0.223807 0.621681 0.923445
O O10 0.306132 0.403017 0.765897
O O11 0.331238 0.715563 0.781329
O O12 0.365117 0.840531 0.092344
O O13 0.380280 0.897042 0.868641
O O14 0.399901 0.287612 0.746121
O O15 0.578820 0.403809 0.211976
#
# Coordination Sequence:
#
# PCOD9267930 Si02
#       7
#     8   8   8   8   8   8   8
#     4  12  23  36  58  90 132 182 213 255 317 398
#     4  10  20  40  71  94 118 159 216 287 332 380
#     4  10  20  37  55  82 125 168 215 248 314 386
#     4  12  22  35  56  92 132 169 209 257 327 382
#     4  10  22  39  61  92 121 167 218 276 311 398
#     4  10  21  37  61  91 121 161 213 280 311 389
#     4  10  19  41  58  88 130 153 222 264 319 397
#
# _framework density 24.323537000000002
#
# number of rings (size 3 to 8) (size 9 to 14) (size 15 to 20)
#    0.000    1.714    4.286    3.857    0.000    5.714 
#    0.000    0.000    0.000    0.857    7.429    0.000 
#    0.000    0.000    0.000    0.000    0.000    0.000 
#
# Total GULP energy -156306.429905 kJ/mol
# GULP energy per Si atom -5582.372497 kJ/mol
# Density = 2.426818 g / cm^3
# Si number density = 24.323537 Si / 1000 Ang^3
#
#
#
# Elastic Constant Matrix: (Units=GPa)
#
#
# Indices 1 2 3 4 5 6 
#
# 1 80.4503 6.9267 39.0249 0.0000 29.8557 0.0000
# 2 6.9267 55.4512 35.4847 0.0000 15.6215 0.0000
# 3 39.0249 35.4847 134.1332 0.0000 37.3167 0.0000
# 4 0.0000 0.0000 0.0000 24.3206 0.0000 -5.0403
# 5 29.8557 15.6215 37.3167 0.0000 44.9990 0.0000
# 6 0.0000 0.0000 0.0000 -5.0403 0.0000 21.5562
#
#
#
# Elastic Compliance Matrix: (Units=1/GPa)
#
#
# Indices 1 2 3 4 5 6 
#
# 1 0.017326 0.002517 -0.002945 0.000000 -0.009927 0.000000
# 2 0.002517 0.022534 -0.005268 0.000000 -0.005124 0.000000
# 3 -0.002945 -0.005268 0.011249 0.000000 -0.005545 0.000000
# 4 0.000000 0.000000 0.000000 0.043211 0.000000 0.010104
# 5 -0.009927 -0.005124 -0.005545 0.000000 0.035186 0.000000
# 6 0.000000 0.000000 0.000000 0.010104 0.000000 0.048753
#
#
# Mechanical properties :
#
#
# Convention : Reuss Voigt Hill
#
# Bulk Modulus (GPa) = 25.17874 48.10083 36.63979
# Shear Modulus (GPa) = 24.64388 30.74837 27.69613
#
# Velocity S-wave (km/s) = 3.18649 3.55933 3.37806
# Velocity P-wave (km/s) = 4.89002 6.05889 5.50556
#
# Compressibility (1/GPa) = 0.03971604
#
# Stress axis : x y z
#
# Youngs Moduli (GPa) = 57.71751 44.37701 88.90049
#
# Poissons Ratio (x) = -0.11169 0.26180
# Poissons Ratio (y) = -0.14526 0.46834
# Poissons Ratio (z) = 0.16997 0.23378
#
# Static dielectric constant tensor:
#      x y z
#    x 1.986450 0.000000 -0.021380 
#    y 0.000000 1.955800 0.000000 
#    z -0.021380 0.000000 2.099490 
# 
# From -- ./inp_files/121893.got.cif
#   From: 2010.05.17/outbox.cif.g08.bks.cpg/sg15_61_cif.got.tgz:121893.got - 2010.06.03 18:47:42.
