data_PCOD9267674
_publ_section_title
;
Structure prediction by ZEFSAII (Michael W. Deem and Ramdas Pophale) SiO2 
 PCOD9267674
Probable space group: C 2/C
;
_chemical_formula_sum "Si O2"
_cell_formula_units_Z 64
_cell_length_a 20.914283
_cell_length_b 20.455816
_cell_length_c 8.909404
_cell_angle_alpha 90.000000
_cell_angle_beta 59.809803
_cell_angle_gamma 90.000000
_cell_volume 3294.606350
_symmetry_space_group_name_H-M "C 2/C"
_symmetry_group_IT_number 15
_symmetry_cell_setting 'monoclinic'
loop_
_space_group_symop_operation_xyz
x,y,z
-x,y,1/2-z
-x,-y,-z
x,-y,1/2+z
1/2+x,1/2+y,z
1/2-x,1/2+y,1/2-z
1/2-x,1/2-y,-z
1/2+x,1/2-y,1/2+z
loop_
_atom_site_type_symbol
_atom_site_label
_atom_site_fract_x
_atom_site_fract_y
_atom_site_fract_z
Si Si1 0.778674 0.454135 0.149790
Si Si2 0.327325 0.252180 0.605714
Si Si3 0.081514 0.777393 0.712247
Si Si4 0.299247 0.094969 0.087465
Si Si5 0.955642 0.446439 0.955036
Si Si6 0.795261 0.653989 0.391044
Si Si7 0.777444 0.842313 0.073925
Si Si8 0.929568 0.626329 0.751714
O O1 0.754249 0.529081 0.171232
O O2 0.737792 0.411444 0.325571
O O3 0.868230 0.462788 0.053423
O O4 0.769129 0.409022 0.015247
O O5 0.391828 0.279337 0.641721
O O6 0.276162 0.306821 0.586536
O O7 0.341426 0.201111 0.449248
O O8 0.274892 0.208389 0.776763
O O9 0.140672 0.814898 0.539243
O O10 0.084959 0.699524 0.679525
O O11 0.000000 0.797551 0.750000
O O12 0.334118 0.124864 0.197078
O O13 0.248777 0.148337 0.065738
O O14 0.361402 0.083798 0.887596
O O15 0.000000 0.438653 0.750000
O O16 0.949318 0.378792 0.055232
O O17 0.000000 0.500000 0.000000
O O18 0.000000 0.598531 0.750000
#
# Coordination Sequence:
#
# PCOD9267674 Si02
#       8
#     8   8   8   8   8   8   8   8
#     4  11  24  38  57  93 122 172 219 254 320 390
#     4  10  19  40  59  93 122 160 212 266 331 382
#     4  11  22  40  67  93 125 166 223 275 328 394
#     4  12  20  37  62  90 126 164 214 262 317 385
#     4  12  25  41  56  83 136 180 213 258 310 372
#     4  10  22  33  62  88 126 160 209 273 312 366
#     4  11  21  40  66  90 124 164 224 271 316 387
#     4  11  23  38  57  91 126 172 219 253 317 387
#
# _framework density 19.425688999999998
#
# number of rings (size 3 to 8) (size 9 to 14) (size 15 to 20)
#    0.000    1.000    3.750    4.500    3.500    0.000 
#    0.000    0.000    0.000    0.750    0.000    0.000 
#    0.000    0.000    0.000    0.000    0.000    0.000 
#
# Total GULP energy -178276.625330 kJ/mol
# GULP energy per Si atom -5571.144542 kJ/mol
# Density = 1.938148 g / cm^3
# Si number density = 19.425689 Si / 1000 Ang^3
#
#
#
# Elastic Constant Matrix: (Units=GPa)
#
#
# Indices 1 2 3 4 5 6 
#
# 1 107.2185 31.3214 39.8450 0.0000 5.6478 0.0000
# 2 31.3214 84.5478 40.7523 0.0000 -0.0879 0.0000
# 3 39.8450 40.7523 127.3258 0.0000 12.6421 0.0000
# 4 0.0000 0.0000 0.0000 24.6652 0.0000 0.2541
# 5 5.6478 -0.0879 12.6421 0.0000 32.0580 0.0000
# 6 0.0000 0.0000 0.0000 0.2541 0.0000 2.5200
#
#
#
# Elastic Compliance Matrix: (Units=1/GPa)
#
#
# Indices 1 2 3 4 5 6 
#
# 1 0.011151 -0.002954 -0.002444 0.000000 -0.001009 0.000000
# 2 -0.002954 0.014877 -0.004052 0.000000 0.002159 0.000000
# 3 -0.002444 -0.004052 0.010276 0.000000 -0.003633 0.000000
# 4 0.000000 0.000000 0.000000 0.040585 0.000000 -0.004092
# 5 -0.001009 0.002159 -0.003633 0.000000 0.032810 0.000000
# 6 0.000000 0.000000 0.000000 -0.004092 0.000000 0.397242
#
#
# Mechanical properties :
#
#
# Convention : Reuss Voigt Hill
#
# Bulk Modulus (GPa) = 57.45401 60.32549 58.88975
# Shear Modulus (GPa) = 9.40482 25.66021 17.53252
#
# Velocity S-wave (km/s) = 2.20271 3.63842 3.00749
# Velocity P-wave (km/s) = 6.00914 6.98375 6.51469
#
# Compressibility (1/GPa) = 0.01740523
#
# Stress axis : x y z
#
# Youngs Moduli (GPa) = 89.67742 67.21757 97.31300
#
# Poissons Ratio (x) = 0.19857 0.23783
# Poissons Ratio (y) = 0.26491 0.39427
# Poissons Ratio (z) = 0.21917 0.27233
#
# Static dielectric constant tensor:
#      x y z
#    x 1.783780 0.000000 0.077260 
#    y 0.000000 1.738050 0.000000 
#    z 0.077260 0.000000 1.722000 
# 
# From -- ./inp_files/57864.got.cif
#   From: 2010.05.17/outbox.cif.g08.bks.cpg/sg15_29_cif.got.tgz:57864.got - 2010.06.03 18:47:42.
