data_PCOD9267080
_publ_section_title
;
Structure prediction by ZEFSAII (Michael W. Deem and Ramdas Pophale) SiO2 
 PCOD9267080
Probable space group: C 2/C
;
_chemical_formula_sum "Si O2"
_cell_formula_units_Z 56
_cell_length_a 7.372311
_cell_length_b 33.810988
_cell_length_c 11.536393
_cell_angle_alpha 90.000000
_cell_angle_beta 61.775254
_cell_angle_gamma 90.000000
_cell_volume 2533.707026
_symmetry_space_group_name_H-M "C 2/C"
_symmetry_group_IT_number 15
_symmetry_cell_setting 'monoclinic'
loop_
_space_group_symop_operation_xyz
x,y,z
-x,y,1/2-z
-x,-y,-z
x,-y,1/2+z
1/2+x,1/2+y,z
1/2-x,1/2+y,1/2-z
1/2-x,1/2-y,-z
1/2+x,1/2-y,1/2+z
loop_
_atom_site_type_symbol
_atom_site_label
_atom_site_fract_x
_atom_site_fract_y
_atom_site_fract_z
Si Si1 0.941957 0.463538 0.594815
Si Si2 0.818409 0.157213 0.711816
Si Si3 0.272710 0.239945 0.857008
Si Si4 0.459835 0.878402 0.014885
Si Si5 0.695379 0.825080 0.776235
Si Si6 0.934994 0.118918 0.044093
Si Si7 0.360100 0.531650 0.115927
O O1 0.730932 0.474554 0.726706
O O2 0.000000 0.500000 0.500000
O O3 0.946734 0.422501 0.521748
O O4 0.142596 0.461760 0.616361
O O5 0.846609 0.201533 0.652235
O O6 0.620760 0.141628 0.842418
O O7 0.000000 0.152758 0.750000
O O8 0.865767 0.129342 0.589647
O O9 0.500000 0.228065 0.750000
O O10 0.231272 0.280084 0.799742
O O11 0.250000 0.250000 0.000000
O O12 0.626732 0.849502 0.908576
O O13 0.260977 0.879894 0.986647
O O14 0.500000 0.826250 0.750000
O O15 0.878716 0.848009 0.656205
O O16 0.958324 0.075121 0.086164
O O17 0.500000 0.500000 0.000000
#
# Coordination Sequence:
#
# PCOD9267080 Si02
#       7
#     8   8   8   8   8   8   8
#     4  10  21  38  60  88 123 156 194 245 301 354
#     4  10  21  38  61  87 112 151 207 248 284 349
#     4  12  25  40  57  86 126 157 185 239 312 361
#     4   9  18  35  61  87 111 146 199 253 290 330
#     4  10  19  38  65  84 107 152 206 246 284 347
#     4   9  18  35  61  87 109 147 201 252 287 331
#     4  10  21  38  60  89 122 155 197 246 297 355
#
# _framework density 22.102004000000001
#
# number of rings (size 3 to 8) (size 9 to 14) (size 15 to 20)
#    0.000    2.000    1.429    2.143    2.000    0.571 
#    0.000   10.000    0.000    0.000    0.000    0.000 
#    0.000    0.000    0.000    0.000    0.000    0.000 
#
# Total GULP energy -156220.687943 kJ/mol
# GULP energy per Si atom -5579.310284 kJ/mol
# Density = 2.205170 g / cm^3
# Si number density = 22.102004 Si / 1000 Ang^3
#
#
#
# Elastic Constant Matrix: (Units=GPa)
#
#
# Indices 1 2 3 4 5 6 
#
# 1 47.9265 -2.0478 18.0109 0.0000 -7.8518 0.0000
# 2 -2.0478 161.1768 85.8309 0.0000 -4.9691 0.0000
# 3 18.0109 85.8309 207.5800 0.0000 -15.8226 0.0000
# 4 0.0000 0.0000 0.0000 44.1297 0.0000 -0.7179
# 5 -7.8518 -4.9691 -15.8226 0.0000 20.6651 0.0000
# 6 0.0000 0.0000 0.0000 -0.7179 0.0000 20.3922
#
#
#
# Elastic Compliance Matrix: (Units=1/GPa)
#
#
# Indices 1 2 3 4 5 6 
#
# 1 0.022954 0.001640 -0.002097 0.000000 0.007510 0.000000
# 2 0.001640 0.008082 -0.003492 0.000000 -0.000107 0.000000
# 3 -0.002097 -0.003492 0.006710 0.000000 0.003501 0.000000
# 4 0.000000 0.000000 0.000000 0.022673 0.000000 0.000798
# 5 0.007510 -0.000107 0.003501 0.000000 0.053899 0.000000
# 6 0.000000 0.000000 0.000000 0.000798 0.000000 0.049066
#
#
# Mechanical properties :
#
#
# Convention : Reuss Voigt Hill
#
# Bulk Modulus (GPa) = 33.50429 68.91903 51.21166
# Shear Modulus (GPa) = 27.58892 38.03003 32.80948
#
# Velocity S-wave (km/s) = 3.53690 4.15258 3.85705
# Velocity P-wave (km/s) = 5.64547 7.36491 6.56175
#
# Compressibility (1/GPa) = 0.02984693
#
# Stress axis : x y z
#
# Youngs Moduli (GPa) = 43.56560 123.73932 149.02736
#
# Poissons Ratio (x) = -0.20294 0.31256
# Poissons Ratio (y) = -0.07145 0.52041
# Poissons Ratio (z) = 0.09137 0.43210
#
# Static dielectric constant tensor:
#      x y z
#    x 1.852880 0.000000 -0.005100 
#    y 0.000000 1.835540 0.000000 
#    z -0.005100 0.000000 1.777270 
# 
# From -- ./inp_files/82465.got.cif
#   From: 2010.05.17/outbox.cif.g08.bks.cpg/sg15_42_cif.got.tgz:82465.got - 2010.06.03 18:47:42.
