data_PCOD9267210
_publ_section_title
;
Structure prediction by ZEFSAII (Michael W. Deem and Ramdas Pophale) SiO2 
 PCOD9267210
Probable space group: C 2/C
;
_chemical_formula_sum "Si O2"
_cell_formula_units_Z 56
_cell_length_a 20.644789
_cell_length_b 14.069641
_cell_length_c 18.218642
_cell_angle_alpha 90.000000
_cell_angle_beta 28.409434
_cell_angle_gamma 90.000000
_cell_volume 2517.709651
_symmetry_space_group_name_H-M "C 2/C"
_symmetry_group_IT_number 15
_symmetry_cell_setting 'monoclinic'
loop_
_space_group_symop_operation_xyz
x,y,z
-x,y,1/2-z
-x,-y,-z
x,-y,1/2+z
1/2+x,1/2+y,z
1/2-x,1/2+y,1/2-z
1/2-x,1/2-y,-z
1/2+x,1/2-y,1/2+z
loop_
_atom_site_type_symbol
_atom_site_label
_atom_site_fract_x
_atom_site_fract_y
_atom_site_fract_z
Si Si1 0.465266 0.516450 0.450888
Si Si2 0.844563 0.334123 0.935763
Si Si3 0.309147 0.972853 0.722294
Si Si4 0.928571 0.355252 0.017541
Si Si5 0.356909 0.500276 0.851655
Si Si6 0.210007 0.650326 0.408226
Si Si7 0.966866 0.763533 0.614326
O O1 0.500000 0.500000 0.500000
O O2 0.312342 0.479047 0.598786
O O3 0.575415 0.462580 0.291810
O O4 0.480643 0.629625 0.422670
O O5 0.860749 0.330424 0.008309
O O6 0.000000 0.333720 0.750000
O O7 0.750000 0.250000 0.000000
O O8 0.752448 0.426252 0.009303
O O9 0.440382 0.922714 0.626517
O O10 0.279549 0.911081 0.677865
O O11 0.339602 0.077665 0.660114
O O12 0.971553 0.264734 0.023679
O O13 0.500000 0.479491 0.750000
O O14 0.268954 0.409100 0.916453
O O15 0.311427 0.737458 0.294205
O O16 0.058417 0.687485 0.564801
#
# Coordination Sequence:
#
# PCOD9267210 Si02
#       7
#     8   8   8   8   8   8   8
#     4  11  20  38  69  98 132 179 230 282 355 405
#     4  12  28  48  66  98 141 192 235 276 341 432
#     4  10  19  38  68 100 133 178 220 292 347 403
#     4  10  22  40  66 102 143 171 233 287 345 413
#     4  11  25  45  67  92 136 184 232 283 346 429
#     4  10  20  41  62  99 134 166 225 282 348 408
#     4  10  21  35  65  99 129 166 218 295 344 400
#
# _framework density 22.242438
#
# number of rings (size 3 to 8) (size 9 to 14) (size 15 to 20)
#    0.000    1.429    4.286    1.286    2.000    5.714 
#    0.000    2.857    0.000    0.857    0.000    0.000 
#    0.000    0.000    0.000    0.000    0.000    0.000 
#
# Total GULP energy -156268.741591 kJ/mol
# GULP energy per Si atom -5581.026485 kJ/mol
# Density = 2.219181 g / cm^3
# Si number density = 22.242438 Si / 1000 Ang^3
#
#
#
# Elastic Constant Matrix: (Units=GPa)
#
#
# Indices 1 2 3 4 5 6 
#
# 1 139.0537 43.4594 16.2896 0.0000 -24.5719 0.0000
# 2 43.4594 83.2081 34.7538 0.0000 -12.7337 0.0000
# 3 16.2896 34.7538 96.4409 -0.0001 -19.2487 0.0001
# 4 0.0000 0.0000 -0.0001 33.0321 0.0001 -8.8518
# 5 -24.5719 -12.7337 -19.2487 0.0001 26.8501 0.0000
# 6 0.0000 0.0000 0.0001 -8.8518 0.0000 29.7881
#
#
#
# Elastic Compliance Matrix: (Units=1/GPa)
#
#
# Indices 1 2 3 4 5 6 
#
# 1 0.009847 -0.004583 0.001579 0.000000 0.007970 0.000000
# 2 -0.004583 0.016579 -0.005214 0.000000 -0.000070 0.000000
# 3 0.001579 -0.005214 0.013743 0.000000 0.008824 0.000000
# 4 0.000000 0.000000 0.000000 0.032893 0.000000 0.009774
# 5 0.007970 -0.000070 0.008824 0.000000 0.050831 0.000000
# 6 0.000000 0.000000 0.000000 0.009774 0.000000 0.036475
#
#
# Mechanical properties :
#
#
# Convention : Reuss Voigt Hill
#
# Bulk Modulus (GPa) = 42.13649 56.41202 49.27426
# Shear Modulus (GPa) = 27.06877 32.88071 29.97474
#
# Velocity S-wave (km/s) = 3.49232 3.84902 3.67500
# Velocity P-wave (km/s) = 5.93692 6.72091 6.34105
#
# Compressibility (1/GPa) = 0.02373240
#
# Stress axis : x y z
#
# Youngs Moduli (GPa) = 101.55130 60.31750 72.76658
#
# Poissons Ratio (x) = 0.27643 -0.11490
# Poissons Ratio (y) = 0.46541 0.37942
# Poissons Ratio (z) = -0.16035 0.31451
#
# Static dielectric constant tensor:
#      x y z
#    x 1.893660 0.000000 -0.019650 
#    y 0.000000 1.842790 0.000000 
#    z -0.019650 0.000000 1.866430 
# 
# From -- ./inp_files/215719.got.cif
#   From: 2010.05.17/outbox.cif.g08.bks.cpg/sg15_108_cif.got.tgz:215719.got - 2010.06.03 18:47:42.
