data_PCOD9267864
_publ_section_title
;
Structure prediction by ZEFSAII (Michael W. Deem and Ramdas Pophale) SiO2 
 PCOD9267864
Probable space group: C 2/C
;
_chemical_formula_sum "Si O2"
_cell_formula_units_Z 44
_cell_length_a 9.819844
_cell_length_b 16.347987
_cell_length_c 16.198929
_cell_angle_alpha 90.000000
_cell_angle_beta 128.650625
_cell_angle_gamma 90.000000
_cell_volume 2030.901813
_symmetry_space_group_name_H-M "C 2/C"
_symmetry_group_IT_number 15
_symmetry_cell_setting 'monoclinic'
loop_
_space_group_symop_operation_xyz
x,y,z
-x,y,1/2-z
-x,-y,-z
x,-y,1/2+z
1/2+x,1/2+y,z
1/2-x,1/2+y,1/2-z
1/2-x,1/2-y,-z
1/2+x,1/2-y,1/2+z
loop_
_atom_site_type_symbol
_atom_site_label
_atom_site_fract_x
_atom_site_fract_y
_atom_site_fract_z
Si Si1 0.998572 0.929840 0.070226
Si Si2 0.148962 0.165154 0.486949
Si Si3 0.163600 0.932182 0.715182
Si Si4 0.500000 0.894294 0.750000
Si Si5 0.387078 0.918214 0.963330
Si Si6 0.843686 0.665685 0.028991
O O1 0.078767 0.978137 0.177603
O O2 0.097582 0.853816 0.062749
O O3 0.806889 0.901918 0.022925
O O4 0.000000 0.000000 0.000000
O O5 0.250000 0.250000 0.500000
O O6 0.289155 0.097115 0.510956
O O7 0.971236 0.138517 0.368570
O O8 0.326235 0.939872 0.713034
O O9 0.243875 0.915719 0.835579
O O10 0.543495 0.842296 0.846195
O O11 0.528338 0.847408 0.998781
O O12 0.500000 0.000000 0.000000
O O13 0.750000 0.750000 0.000000
#
# Coordination Sequence:
#
# PCOD9267864 Si02
#       6
#     8   8   8   4   8   8
#     4  10  19  40  68  87 119 168 214 249 307 390
#     4  11  22  39  64  96 130 162 207 269 326 372
#     4  10  22  40  67  88 123 171 214 253 314 379
#     4  10  20  38  66  84 118 166 208 248 312 370
#     4  11  24  40  62  93 129 159 208 267 315 368
#     4  11  22  40  62  88 124 164 205 251 312 377
#
# _framework density 21.665251999999999
#
# number of rings (size 3 to 8) (size 9 to 14) (size 15 to 20)
#    0.000    1.455    3.636    3.818    2.545    0.000 
#    3.273    3.636    0.000    0.000    0.000    0.000 
#    0.000    0.000    0.000    0.000    0.000    0.000 
#
# Total GULP energy -122655.893062 kJ/mol
# GULP energy per Si atom -5575.267866 kJ/mol
# Density = 2.161594 g / cm^3
# Si number density = 21.665252 Si / 1000 Ang^3
#
#
#
# Elastic Constant Matrix: (Units=GPa)
#
#
# Indices 1 2 3 4 5 6 
#
# 1 128.5627 10.0439 18.9483 0.0000 17.9141 0.0000
# 2 10.0439 91.3365 25.1104 0.0000 24.6216 0.0000
# 3 18.9483 25.1104 67.7264 0.0000 26.3000 0.0000
# 4 0.0000 0.0000 0.0000 13.6401 0.0000 9.1221
# 5 17.9141 24.6216 26.3000 0.0000 26.9720 0.0000
# 6 0.0000 0.0000 0.0000 9.1221 0.0000 39.2678
#
#
#
# Elastic Compliance Matrix: (Units=1/GPa)
#
#
# Indices 1 2 3 4 5 6 
#
# 1 0.008619 0.000795 -0.000324 0.000000 -0.006134 0.000000
# 2 0.000795 0.014602 -0.000410 0.000000 -0.013457 0.000000
# 3 -0.000324 -0.000410 0.023786 0.000000 -0.022603 0.000000
# 4 0.000000 0.000000 0.000000 0.086798 0.000000 -0.020164
# 5 -0.006134 -0.013457 -0.022603 0.000000 0.075473 0.000000
# 6 0.000000 0.000000 0.000000 -0.020164 0.000000 0.030150
#
#
# Mechanical properties :
#
#
# Convention : Reuss Voigt Hill
#
# Bulk Modulus (GPa) = 21.21949 43.98120 32.60035
# Shear Modulus (GPa) = 19.60663 31.54418 25.57541
#
# Velocity S-wave (km/s) = 3.01155 3.81987 3.43954
# Velocity P-wave (km/s) = 4.68061 6.30869 5.55463
#
# Compressibility (1/GPa) = 0.04712648
#
# Stress axis : x y z
#
# Youngs Moduli (GPa) = 116.02706 68.48608 42.04241
#
# Poissons Ratio (x) = -0.05444 0.01362
# Poissons Ratio (y) = -0.09222 0.01725
# Poissons Ratio (z) = 0.03760 0.02811
#
# Static dielectric constant tensor:
#      x y z
#    x 1.850610 0.000000 0.034220 
#    y 0.000000 1.870150 0.000000 
#    z 0.034220 0.000000 1.781340 
# 
# From -- ./inp_files/134315.got.cif
#   From: 2010.05.17/outbox.cif.g08.bks.cpg/sg15_68_cif.got.tgz:134315.got - 2010.06.03 18:47:42.
