data_PCOD9267191
_publ_section_title
;
Structure prediction by ZEFSAII (Michael W. Deem and Ramdas Pophale) SiO2 
 PCOD9267191
Probable space group: C 2/C
;
_chemical_formula_sum "Si O2"
_cell_formula_units_Z 60
_cell_length_a 23.151905
_cell_length_b 7.276611
_cell_length_c 22.320597
_cell_angle_alpha 90.000000
_cell_angle_beta 132.939262
_cell_angle_gamma 90.000000
_cell_volume 2752.821310
_symmetry_space_group_name_H-M "C 2/C"
_symmetry_group_IT_number 15
_symmetry_cell_setting 'monoclinic'
loop_
_space_group_symop_operation_xyz
x,y,z
-x,y,1/2-z
-x,-y,-z
x,-y,1/2+z
1/2+x,1/2+y,z
1/2-x,1/2+y,1/2-z
1/2-x,1/2-y,-z
1/2+x,1/2-y,1/2+z
loop_
_atom_site_type_symbol
_atom_site_label
_atom_site_fract_x
_atom_site_fract_y
_atom_site_fract_z
Si Si1 0.527377 0.069824 0.116681
Si Si2 0.620025 0.890315 0.282115
Si Si3 0.386944 0.086336 0.099202
Si Si4 0.413533 0.811682 0.960477
Si Si5 0.840264 0.028881 0.598483
Si Si6 0.206507 0.576191 0.580966
Si Si7 0.000000 0.132660 0.250000
Si Si8 0.798565 0.979577 0.434820
O O1 0.599197 0.007014 0.208821
O O2 0.465199 0.149243 0.120499
O O3 0.550308 0.207056 0.079983
O O4 0.481527 0.900265 0.051077
O O5 0.553532 0.731011 0.236178
O O6 0.714984 0.894394 0.354607
O O7 0.596247 0.966124 0.331630
O O8 0.336792 0.253981 0.087671
O O9 0.335596 0.002962 0.009879
O O10 0.370205 0.631880 0.954982
O O11 0.345285 0.971040 0.906839
O O12 0.794289 0.005287 0.628857
O O13 0.806541 0.951175 0.512412
O O14 0.930797 0.975680 0.667999
O O15 0.199343 0.798840 0.577610
#
# Coordination Sequence:
#
# PCOD9267191 Si02
#       8
#     8   8   8   8   8   8   4   8
#     4  10  22  41  63  87 127 171 210 258 315 373
#     4  12  21  38  62  92 124 160 211 267 318 378
#     4  10  19  38  67  88 123 162 201 257 329 376
#     4  10  23  43  64  87 127 175 214 255 308 387
#     4  11  22  38  59  99 128 156 207 270 320 376
#     4  10  20  40  66  95 123 165 210 255 326 378
#     4  12  26  30  58 102 122 160 212 254 326 382
#     4  11  22  40  67  93 124 167 210 261 322 377
#
# _framework density 21.795819999999999
#
# number of rings (size 3 to 8) (size 9 to 14) (size 15 to 20)
#    0.000    1.333    4.000    2.400    3.733    1.067 
#    2.400   12.000    0.000    0.000    0.000    0.000 
#    0.000    0.000    0.000    0.000    0.000    0.000 
#
# Total GULP energy -167057.693063 kJ/mol
# GULP energy per Si atom -5568.589769 kJ/mol
# Density = 2.174621 g / cm^3
# Si number density = 21.795820 Si / 1000 Ang^3
#
#
#
# Elastic Constant Matrix: (Units=GPa)
#
#
# Indices 1 2 3 4 5 6 
#
# 1 83.9244 11.7442 24.1714 0.0000 0.8269 0.0001
# 2 11.7442 62.6337 2.5605 0.0001 2.3722 0.0000
# 3 24.1714 2.5605 77.7392 0.0000 28.1468 -0.0002
# 4 0.0000 0.0001 0.0000 5.0383 0.0000 5.2195
# 5 0.8269 2.3722 28.1468 0.0000 33.8333 0.0000
# 6 0.0001 0.0000 -0.0002 5.2195 0.0000 33.9322
#
#
#
# Elastic Compliance Matrix: (Units=1/GPa)
#
#
# Indices 1 2 3 4 5 6 
#
# 1 0.013955 -0.002554 -0.006005 0.000000 0.004834 0.000000
# 2 -0.002554 0.016477 0.000926 0.000000 -0.001863 0.000000
# 3 -0.006005 0.000926 0.020994 0.000000 -0.017384 0.000000
# 4 0.000000 0.000000 0.000000 0.236102 0.000000 -0.036317
# 5 0.004834 -0.001863 -0.017384 0.000000 0.044031 0.000000
# 6 0.000000 0.000000 0.000000 -0.036317 0.000000 0.035057
#
#
# Mechanical properties :
#
#
# Convention : Reuss Voigt Hill
#
# Bulk Modulus (GPa) = 27.65454 33.47218 30.56336
# Shear Modulus (GPa) = 12.69242 26.94884 19.82063
#
# Velocity S-wave (km/s) = 2.41578 3.52009 3.01886
# Velocity P-wave (km/s) = 4.52734 5.64906 5.11902
#
# Compressibility (1/GPa) = 0.03616043
#
# Stress axis : x y z
#
# Youngs Moduli (GPa) = 71.65989 60.68882 47.63217
#
# Poissons Ratio (x) = 0.15501 0.28603
# Poissons Ratio (y) = 0.18303 -0.04411
# Poissons Ratio (z) = 0.43031 -0.05620
#
# Static dielectric constant tensor:
#      x y z
#    x 1.867000 0.000000 0.069270 
#    y 0.000000 1.875320 0.000000 
#    z 0.069270 0.000000 1.724510 
# 
# From -- ./inp_files/252139.got.cif
#   From: 2010.05.17/outbox.cif.g08.bks.cpg/sg15_127_cif.got.tgz:252139.got - 2010.06.03 18:47:42.
