data_PCOD9267750
_publ_section_title
;
Structure prediction by ZEFSAII (Michael W. Deem and Ramdas Pophale) SiO2 
 PCOD9267750
Probable space group: C 2/C
;
_chemical_formula_sum "Si O2"
_cell_formula_units_Z 36
_cell_length_a 8.618147
_cell_length_b 25.175153
_cell_length_c 7.189422
_cell_angle_alpha 90.000000
_cell_angle_beta 105.694797
_cell_angle_gamma 90.000000
_cell_volume 1501.683208
_symmetry_space_group_name_H-M "C 2/C"
_symmetry_group_IT_number 15
_symmetry_cell_setting 'monoclinic'
loop_
_space_group_symop_operation_xyz
x,y,z
-x,y,1/2-z
-x,-y,-z
x,-y,1/2+z
1/2+x,1/2+y,z
1/2-x,1/2+y,1/2-z
1/2-x,1/2-y,-z
1/2+x,1/2-y,1/2+z
loop_
_atom_site_type_symbol
_atom_site_label
_atom_site_fract_x
_atom_site_fract_y
_atom_site_fract_z
Si Si1 0.835174 0.574953 0.912378
Si Si2 0.500000 0.001904 0.250000
Si Si3 0.142994 0.883413 0.688684
Si Si4 0.051040 0.334925 0.547062
Si Si5 0.929994 0.226336 0.527170
O O1 0.844325 0.536082 0.738290
O O2 0.968674 0.543466 0.075929
O O3 0.698081 0.585161 0.020832
O O4 0.911291 0.632387 0.897937
O O5 0.283767 0.867283 0.880750
O O6 0.082751 0.826259 0.596433
O O7 0.000000 0.911876 0.750000
O O8 0.000000 0.332619 0.750000
O O9 0.043178 0.273707 0.485275
O O10 0.750000 0.250000 0.500000
O O11 0.000000 0.211137 0.750000
#
# Coordination Sequence:
#
# PCOD9267750 Si02
#       5
#     8   4   8   8   8
#     4  10  19  40  63  92 115 160 213 268 316 373
#     4  10  20  36  72  88 112 158 228 266 310 374
#     4  11  22  39  59  91 135 169 197 262 325 377
#     4   9  17  36  61  81 124 163 205 254 305 365
#     4  11  19  38  63  88 127 171 216 256 302 380
#
# _framework density 23.973099999999999
#
# number of rings (size 3 to 8) (size 9 to 14) (size 15 to 20)
#    0.000    1.778   10.000    0.000    0.000    0.889 
#    6.000    1.111    0.000    0.000    0.000    0.000 
#    0.000    0.000    0.000    0.000    0.000    0.000 
#
# Total GULP energy -100327.567737 kJ/mol
# GULP energy per Si atom -5573.753763 kJ/mol
# Density = 2.391854 g / cm^3
# Si number density = 23.973100 Si / 1000 Ang^3
#
#
#
# Elastic Constant Matrix: (Units=GPa)
#
#
# Indices 1 2 3 4 5 6 
#
# 1 126.9338 14.5293 14.8374 0.0000 -23.2081 0.0000
# 2 14.5293 102.9716 0.3419 0.0000 -16.5712 0.0000
# 3 14.8374 0.3419 46.6837 0.0000 0.1569 0.0000
# 4 0.0000 0.0000 0.0000 19.4211 0.0000 -6.3462
# 5 -23.2081 -16.5712 0.1569 0.0000 33.1469 0.0000
# 6 0.0000 0.0000 0.0000 -6.3462 0.0000 14.8121
#
#
#
# Elastic Compliance Matrix: (Units=1/GPa)
#
#
# Indices 1 2 3 4 5 6 
#
# 1 0.009450 -0.000279 -0.003023 0.000000 0.006492 0.000000
# 2 -0.000279 0.010570 -0.000006 0.000000 0.005089 0.000000
# 3 -0.003023 -0.000006 0.022389 0.000000 -0.002226 0.000000
# 4 0.000000 0.000000 0.000000 0.059873 0.000000 0.025652
# 5 0.006492 0.005089 -0.002226 0.000000 0.037269 0.000000
# 6 0.000000 0.000000 0.000000 0.025652 0.000000 0.078503
#
#
# Mechanical properties :
#
#
# Convention : Reuss Voigt Hill
#
# Bulk Modulus (GPa) = 27.93817 37.33402 32.63610
# Shear Modulus (GPa) = 21.13270 29.93474 25.53372
#
# Velocity S-wave (km/s) = 2.97226 3.53750 3.26713
# Velocity P-wave (km/s) = 4.84338 5.68263 5.27971
#
# Compressibility (1/GPa) = 0.03579332
#
# Stress axis : x y z
#
# Youngs Moduli (GPa) = 105.81619 94.60971 44.66441
#
# Poissons Ratio (x) = 0.02637 0.13504
# Poissons Ratio (y) = 0.02949 0.00026
# Poissons Ratio (z) = 0.31992 0.00056
#
# Static dielectric constant tensor:
#      x y z
#    x 2.170190 0.000000 -0.299920 
#    y 0.000000 1.927250 0.000000 
#    z -0.299920 0.000000 2.447640 
# 
# From -- ./inp_files/23866.got.cif
#   From: 2010.05.17/outbox.cif.g08.bks.cpg/sg15_12_cif.got.tgz:23866.got - 2010.06.03 18:47:42.
