data_PCOD9267143
_publ_section_title
;
Structure prediction by ZEFSAII (Michael W. Deem and Ramdas Pophale) SiO2 
 PCOD9267143
Probable space group: C 2/C
;
_chemical_formula_sum "Si O2"
_cell_formula_units_Z 56
_cell_length_a 17.770430
_cell_length_b 7.294649
_cell_length_c 25.671156
_cell_angle_alpha 90.000000
_cell_angle_beta 139.370067
_cell_angle_gamma 90.000000
_cell_volume 2166.918991
_symmetry_space_group_name_H-M "C 2/C"
_symmetry_group_IT_number 15
_symmetry_cell_setting 'monoclinic'
loop_
_space_group_symop_operation_xyz
x,y,z
-x,y,1/2-z
-x,-y,-z
x,-y,1/2+z
1/2+x,1/2+y,z
1/2-x,1/2+y,1/2-z
1/2-x,1/2-y,-z
1/2+x,1/2-y,1/2+z
loop_
_atom_site_type_symbol
_atom_site_label
_atom_site_fract_x
_atom_site_fract_y
_atom_site_fract_z
Si Si1 0.313416 0.023140 0.067168
Si Si2 0.519968 0.363296 0.058035
Si Si3 0.804078 0.256328 0.405241
Si Si4 0.227309 0.017723 0.207535
Si Si5 0.131205 0.961955 0.773849
Si Si6 0.595513 0.430707 0.398266
Si Si7 0.541722 0.925826 0.220192
O O1 0.247933 0.088880 0.086324
O O2 0.375159 0.214844 0.085359
O O3 0.420339 0.885478 0.128539
O O4 0.219754 0.977246 0.973968
O O5 0.654585 0.348081 0.143231
O O6 0.472149 0.464687 0.083700
O O7 0.500000 0.500000 0.000000
O O8 0.429985 0.202192 0.995827
O O9 0.711490 0.419744 0.354243
O O10 0.812927 0.185867 0.350462
O O11 0.364302 0.012871 0.268561
O O12 0.192260 0.032509 0.248841
O O13 0.107944 0.752274 0.776030
O O14 0.000984 0.034646 0.695347
O O15 0.500000 0.034727 0.250000
#
# Coordination Sequence:
#
# PCOD9267143 Si02
#       7
#     8   8   8   8   8   8   8
#     4  10  21  39  62  90 124 168 212 260 328 393
#     4   8  17  35  64  92 122 161 214 263 317 386
#     4  10  19  38  66  88 121 170 215 262 325 397
#     4  10  20  41  62  90 124 173 217 263 327 392
#     4  11  24  37  63  94 127 164 220 272 320 390
#     4   9  20  37  63  93 118 165 217 260 316 397
#     4  12  25  39  60  96 134 168 211 275 333 382
#
# _framework density 25.843143999999999
#
# number of rings (size 3 to 8) (size 9 to 14) (size 15 to 20)
#    0.000    2.000    1.429    1.714    2.000    1.714 
#    0.000    0.714    3.143    0.000    0.000    0.000 
#    0.000    0.000    0.000    0.000    0.000    0.000 
#
# Total GULP energy -156244.412039 kJ/mol
# GULP energy per Si atom -5580.157573 kJ/mol
# Density = 2.578432 g / cm^3
# Si number density = 25.843144 Si / 1000 Ang^3
#
#
#
# Elastic Constant Matrix: (Units=GPa)
#
#
# Indices 1 2 3 4 5 6 
#
# 1 138.1625 4.4026 60.8761 0.0000 5.3618 -0.0002
# 2 4.4026 43.5258 31.7319 0.0001 7.7484 -0.0005
# 3 60.8761 31.7319 175.6680 0.0000 24.0128 0.0000
# 4 0.0000 0.0001 0.0000 37.0378 0.0000 9.8776
# 5 5.3618 7.7484 24.0128 0.0000 53.2087 0.0000
# 6 -0.0002 -0.0005 0.0000 9.8776 0.0000 24.7307
#
#
#
# Elastic Compliance Matrix: (Units=1/GPa)
#
#
# Indices 1 2 3 4 5 6 
#
# 1 0.008635 0.001469 -0.003314 0.000000 0.000412 0.000000
# 2 0.001469 0.026873 -0.005124 0.000000 -0.001749 0.000001
# 3 -0.003314 -0.005124 0.008120 0.000000 -0.002584 0.000000
# 4 0.000000 0.000000 0.000000 0.030218 0.000000 -0.012069
# 5 0.000412 -0.001749 -0.002584 0.000000 0.020173 0.000000
# 6 0.000000 0.000001 0.000000 -0.012069 0.000000 0.045256
#
#
# Mechanical properties :
#
#
# Convention : Reuss Voigt Hill
#
# Bulk Modulus (GPa) = 33.68097 61.26417 47.47257
# Shear Modulus (GPa) = 30.65387 40.35184 35.50285
#
# Velocity S-wave (km/s) = 3.44779 3.95576 3.71048
# Velocity P-wave (km/s) = 5.37688 6.67995 6.06352
#
# Compressibility (1/GPa) = 0.02969036
#
# Stress axis : x y z
#
# Youngs Moduli (GPa) = 115.80336 37.21141 123.15313
#
# Poissons Ratio (x) = -0.05468 0.40815
# Poissons Ratio (y) = -0.17017 0.63109
# Poissons Ratio (z) = 0.38379 0.19069
#
# Static dielectric constant tensor:
#      x y z
#    x 2.095200 0.000000 0.043140 
#    y 0.000000 2.075580 0.000000 
#    z 0.043140 0.000000 2.115200 
# 
# From -- ./inp_files/298569.got.cif
#   From: 2010.05.17/outbox.cif.g08.bks.cpg/sg15_150_cif.got.tgz:298569.got - 2010.06.03 18:47:42.
