data_PCOD9267687
_publ_section_title
;
Structure prediction by ZEFSAII (Michael W. Deem and Ramdas Pophale) SiO2 
 PCOD9267687
Probable space group: C 2/C
;
_chemical_formula_sum "Si O2"
_cell_formula_units_Z 60
_cell_length_a 19.664685
_cell_length_b 9.094837
_cell_length_c 17.331467
_cell_angle_alpha 90.000000
_cell_angle_beta 106.543169
_cell_angle_gamma 90.000000
_cell_volume 2971.372797
_symmetry_space_group_name_H-M "C 2/C"
_symmetry_group_IT_number 15
_symmetry_cell_setting 'monoclinic'
loop_
_space_group_symop_operation_xyz
x,y,z
-x,y,1/2-z
-x,-y,-z
x,-y,1/2+z
1/2+x,1/2+y,z
1/2-x,1/2+y,1/2-z
1/2-x,1/2-y,-z
1/2+x,1/2-y,1/2+z
loop_
_atom_site_type_symbol
_atom_site_label
_atom_site_fract_x
_atom_site_fract_y
_atom_site_fract_z
Si Si1 0.190372 0.265504 0.636011
Si Si2 0.500000 0.298928 0.250000
Si Si3 0.110241 0.314468 0.456063
Si Si4 0.909875 0.012812 0.834486
Si Si5 0.559849 0.878045 0.887536
Si Si6 0.403360 0.022441 0.830462
Si Si7 0.046490 0.233938 0.039502
Si Si8 0.858515 0.762588 0.700685
O O1 0.169422 0.285063 0.539215
O O2 0.157312 0.406015 0.669564
O O3 0.273871 0.252408 0.673653
O O4 0.150494 0.123016 0.656214
O O5 0.530326 0.395261 0.190536
O O6 0.436199 0.200957 0.193656
O O7 0.108144 0.484167 0.426754
O O8 0.116441 0.222428 0.379415
O O9 0.035292 0.278831 0.472602
O O10 0.938906 0.922147 0.916967
O O11 0.882455 0.895937 0.762656
O O12 0.479505 0.942822 0.859121
O O13 0.564716 0.758285 0.956721
O O14 0.407522 0.146161 0.898455
O O15 0.391974 0.115149 0.748997
#
# Coordination Sequence:
#
# PCOD9267687 Si02
#       8
#     8   4   8   8   8   8   8   8
#     4  12  22  42  61  85 124 167 205 238 297 373
#     4  12  22  36  60  94 128 144 196 264 320 350
#     4  11  21  38  65  91 116 160 209 249 297 362
#     4  11  25  39  60  94 123 158 194 258 315 353
#     4  11  20  38  65  93 120 156 200 259 304 361
#     4  10  19  40  61  85 117 160 207 239 294 369
#     4  10  20  39  64  90 120 153 197 256 313 358
#     4  11  25  39  61  87 126 164 203 246 295 359
#
# _framework density 20.192685999999998
#
# number of rings (size 3 to 8) (size 9 to 14) (size 15 to 20)
#    0.000    1.067    4.000    3.600    0.000    6.933 
#    0.000    0.000    0.000    1.600    0.000    0.000 
#    0.000    0.000    0.000    0.000    0.000    0.000 
#
# Total GULP energy -167709.146878 kJ/mol
# GULP energy per Si atom -5590.304896 kJ/mol
# Density = 2.014673 g / cm^3
# Si number density = 20.192686 Si / 1000 Ang^3
#
#
#
# Elastic Constant Matrix: (Units=GPa)
#
#
# Indices 1 2 3 4 5 6 
#
# 1 20.1973 5.5430 -0.9074 0.0000 9.1923 0.0000
# 2 5.5430 89.7854 31.9916 0.0000 -0.3412 0.0000
# 3 -0.9074 31.9916 101.0459 0.0000 -10.2899 0.0000
# 4 0.0000 0.0000 0.0000 33.1030 0.0000 -5.6060
# 5 9.1923 -0.3412 -10.2899 0.0000 24.3225 0.0000
# 6 0.0000 0.0000 0.0000 -5.6060 0.0000 7.8392
#
#
#
# Elastic Compliance Matrix: (Units=1/GPa)
#
#
# Indices 1 2 3 4 5 6 
#
# 1 0.061148 -0.003617 -0.000694 0.000000 -0.023454 0.000000
# 2 -0.003617 0.012826 -0.004113 0.000000 -0.000193 0.000000
# 3 -0.000694 -0.004113 0.011718 0.000000 0.005162 0.000000
# 4 0.000000 0.000000 0.000000 0.034371 0.000000 0.024579
# 5 -0.023454 -0.000193 0.005162 0.000000 0.052159 0.000000
# 6 0.000000 0.000000 0.000000 0.024579 0.000000 0.145141
#
#
# Mechanical properties :
#
#
# Convention : Reuss Voigt Hill
#
# Bulk Modulus (GPa) = 14.52567 31.58703 23.05635
# Shear Modulus (GPa) = 13.99940 24.67971 19.33956
#
# Velocity S-wave (km/s) = 2.63590 3.49981 3.09811
# Velocity P-wave (km/s) = 4.05871 5.65759 4.92348
#
# Compressibility (1/GPa) = 0.06884365
#
# Stress axis : x y z
#
# Youngs Moduli (GPa) = 16.35386 77.96864 85.33828
#
# Poissons Ratio (x) = 0.28200 0.05924
# Poissons Ratio (y) = 0.05915 0.35098
# Poissons Ratio (z) = 0.01135 0.32067
#
# Static dielectric constant tensor:
#      x y z
#    x 1.663910 0.000000 -0.012940 
#    y 0.000000 1.755520 0.000000 
#    z -0.012940 0.000000 1.729190 
# 
# From -- ./inp_files/213979.got.cif
#   From: 2010.05.17/outbox.cif.g08.bks.cpg/sg15_107_cif.got.tgz:213979.got - 2010.06.03 18:47:42.
