data_PCOD9267066
_publ_section_title
;
Structure prediction by ZEFSAII (Michael W. Deem and Ramdas Pophale) SiO2 
 PCOD9267066
Probable space group: C 2/C
;
_chemical_formula_sum "Si O2"
_cell_formula_units_Z 44
_cell_length_a 10.314369
_cell_length_b 12.053640
_cell_length_c 17.462284
_cell_angle_alpha 90.000000
_cell_angle_beta 47.704877
_cell_angle_gamma 90.000000
_cell_volume 1605.871252
_symmetry_space_group_name_H-M "C 2/C"
_symmetry_group_IT_number 15
_symmetry_cell_setting 'monoclinic'
loop_
_space_group_symop_operation_xyz
x,y,z
-x,y,1/2-z
-x,-y,-z
x,-y,1/2+z
1/2+x,1/2+y,z
1/2-x,1/2+y,1/2-z
1/2-x,1/2-y,-z
1/2+x,1/2-y,1/2+z
loop_
_atom_site_type_symbol
_atom_site_label
_atom_site_fract_x
_atom_site_fract_y
_atom_site_fract_z
Si Si1 0.761884 0.911999 0.107365
Si Si2 0.498101 0.856082 0.415055
Si Si3 0.862873 0.142167 0.087648
Si Si4 0.350861 0.102026 0.138919
Si Si5 0.500000 0.507096 0.750000
Si Si6 0.490622 0.689281 0.877230
O O1 0.613520 0.853527 0.117920
O O2 0.826044 0.854643 0.158827
O O3 0.734539 0.038862 0.143313
O O4 0.937577 0.907142 0.983338
O O5 0.635453 0.755798 0.366822
O O6 0.384915 0.848764 0.539362
O O7 0.570363 0.979568 0.389412
O O8 0.858607 0.179715 0.000914
O O9 0.455282 0.183010 0.155155
O O10 0.145781 0.073854 0.227969
O O11 0.432296 0.597604 0.839226
#
# Coordination Sequence:
#
# PCOD9267066 Si02
#       6
#     8   8   8   8   4   8
#     4   9  17  33  60  94 121 151 198 259 306 363
#     4  10  19  38  64  95 120 145 208 270 301 358
#     4   8  17  32  62  97 117 150 197 253 321 356
#     4  10  24  40  62  90 120 164 202 251 318 363
#     4  12  24  46  58  82 136 178 198 252 304 382
#     4   9  21  40  57  88 119 160 209 237 304 377
#
# _framework density 27.399457000000002
#
# number of rings (size 3 to 8) (size 9 to 14) (size 15 to 20)
#    1.091    1.455    0.000    1.636    0.000    1.455 
#    9.818    5.455    0.000    0.000    0.000    0.000 
#    0.000    0.000    0.000    0.000    0.000    0.000 
#
# Total GULP energy -122974.715328 kJ/mol
# GULP energy per Si atom -5589.759788 kJ/mol
# Density = 2.733709 g / cm^3
# Si number density = 27.399457 Si / 1000 Ang^3
#
#
#
# Elastic Constant Matrix: (Units=GPa)
#
#
# Indices 1 2 3 4 5 6 
#
# 1 70.7749 18.6990 11.9758 0.0000 7.0478 0.0000
# 2 18.6990 189.2390 35.3426 0.0000 8.5273 0.0000
# 3 11.9758 35.3426 63.8965 0.0000 3.4539 0.0000
# 4 0.0000 0.0000 0.0000 33.1084 0.0000 18.5121
# 5 7.0478 8.5273 3.4539 0.0000 27.1073 0.0000
# 6 0.0000 0.0000 0.0000 18.5121 0.0000 25.8686
#
#
#
# Elastic Compliance Matrix: (Units=1/GPa)
#
#
# Indices 1 2 3 4 5 6 
#
# 1 0.015071 -0.000942 -0.002123 0.000000 -0.003352 0.000000
# 2 -0.000942 0.006009 -0.003079 0.000000 -0.001253 0.000000
# 3 -0.002123 -0.003079 0.017792 0.000000 -0.000746 0.000000
# 4 0.000000 0.000000 0.000000 0.050350 0.000000 -0.036032
# 5 -0.003352 -0.001253 -0.000746 0.000000 0.038251 0.000000
# 6 0.000000 0.000000 0.000000 -0.036032 0.000000 0.064442
#
#
# Mechanical properties :
#
#
# Convention : Reuss Voigt Hill
#
# Bulk Modulus (GPa) = 37.61633 50.66058 44.13845
# Shear Modulus (GPa) = 23.46708 34.40971 28.93839
#
# Velocity S-wave (km/s) = 2.92974 3.54765 3.25340
# Velocity P-wave (km/s) = 5.02028 5.94229 5.50064
#
# Compressibility (1/GPa) = 0.02658420
#
# Stress axis : x y z
#
# Youngs Moduli (GPa) = 66.35237 166.41795 56.20562
#
# Poissons Ratio (x) = 0.15672 0.11930
# Poissons Ratio (y) = 0.06249 0.17308
# Poissons Ratio (z) = 0.14084 0.51248
#
# Static dielectric constant tensor:
#      x y z
#    x 2.111170 0.000000 -0.041180 
#    y 0.000000 2.114260 0.000000 
#    z -0.041180 0.000000 2.281850 
# 
# From -- ./inp_files/236799.got.cif
#   From: 2010.05.17/outbox.cif.g08.bks.cpg/sg15_119_cif.got.tgz:236799.got - 2010.06.03 18:47:42.
