data_PCOD9267530
_publ_section_title
;
Structure prediction by ZEFSAII (Michael W. Deem and Ramdas Pophale) SiO2 
 PCOD9267530
Probable space group: C 2/C
;
_chemical_formula_sum "Si O2"
_cell_formula_units_Z 60
_cell_length_a 23.736842
_cell_length_b 9.143639
_cell_length_c 21.120613
_cell_angle_alpha 90.000000
_cell_angle_beta 133.454462
_cell_angle_gamma 90.000000
_cell_volume 3327.652992
_symmetry_space_group_name_H-M "C 2/C"
_symmetry_group_IT_number 15
_symmetry_cell_setting 'monoclinic'
loop_
_space_group_symop_operation_xyz
x,y,z
-x,y,1/2-z
-x,-y,-z
x,-y,1/2+z
1/2+x,1/2+y,z
1/2-x,1/2+y,1/2-z
1/2-x,1/2-y,-z
1/2+x,1/2-y,1/2+z
loop_
_atom_site_type_symbol
_atom_site_label
_atom_site_fract_x
_atom_site_fract_y
_atom_site_fract_z
Si Si1 0.861193 0.582439 0.437200
Si Si2 0.339872 0.809313 0.343864
Si Si3 0.559829 0.464467 0.602661
Si Si4 0.438996 0.712917 0.085362
Si Si5 0.231274 0.206549 0.557324
Si Si6 0.635846 0.026489 0.769019
Si Si7 0.157644 0.244850 0.707720
Si Si8 0.500000 0.865846 0.250000
O O1 0.863538 0.413785 0.420502
O O2 0.069479 0.357922 0.465358
O O3 0.784467 0.644298 0.414192
O O4 0.862548 0.668491 0.372237
O O5 0.376314 0.648961 0.374134
O O6 0.367450 0.882911 0.299328
O O7 0.246892 0.803622 0.271597
O O8 0.500000 0.500000 0.500000
O O9 0.509507 0.383598 0.617026
O O10 0.602139 0.605156 0.663954
O O11 0.449087 0.765155 0.164364
O O12 0.355469 0.637785 0.009451
O O13 0.250000 0.250000 0.500000
O O14 0.293941 0.101247 0.637372
O O15 0.558427 0.045002 0.750576
O O16 0.649233 0.859303 0.758547
#
# Coordination Sequence:
#
# PCOD9267530 Si02
#       8
#     8   8   8   8   8   8   8   4
#     4   9  20  37  59  95 122 155 212 264 326 383
#     4  11  22  37  66  93 128 165 213 273 331 395
#     4  12  23  39  60  96 133 165 210 276 339 391
#     4  10  22  37  62  92 122 163 216 262 323 386
#     4  10  19  39  65  89 123 167 219 269 321 403
#     4  11  22  39  65  90 129 167 217 270 315 398
#     4  11  23  38  62  96 131 167 209 269 340 393
#     4  12  22  40  62  92 118 178 226 250 320 394
#
# _framework density 18.030726000000001
#
# number of rings (size 3 to 8) (size 9 to 14) (size 15 to 20)
#    0.800    0.533    5.333    1.600    1.867    1.600 
#    0.000    0.667    0.000    1.600    0.000    0.000 
#    0.000    0.000    0.000    0.000    0.000    0.000 
#
# Total GULP energy -167245.629470 kJ/mol
# GULP energy per Si atom -5574.854316 kJ/mol
# Density = 1.798969 g / cm^3
# Si number density = 18.030726 Si / 1000 Ang^3
#
#
#
# Elastic Constant Matrix: (Units=GPa)
#
#
# Indices 1 2 3 4 5 6 
#
# 1 106.4115 43.8567 37.0228 0.0000 5.4326 0.0000
# 2 43.8567 101.0835 41.1893 0.0000 -3.0487 0.0000
# 3 37.0228 41.1893 87.4302 0.0000 -2.5252 0.0000
# 4 0.0000 0.0000 0.0000 27.3042 0.0000 -2.5488
# 5 5.4326 -3.0487 -2.5252 0.0000 31.7855 0.0000
# 6 0.0000 0.0000 0.0000 -2.5488 0.0000 11.9530
#
#
#
# Elastic Compliance Matrix: (Units=1/GPa)
#
#
# Indices 1 2 3 4 5 6 
#
# 1 0.012407 -0.004076 -0.003414 0.000000 -0.002783 0.000000
# 2 -0.004076 0.013598 -0.004633 0.000000 0.001633 0.000000
# 3 -0.003414 -0.004633 0.015105 0.000000 0.001339 0.000000
# 4 0.000000 0.000000 0.000000 0.037368 0.000000 0.007968
# 5 -0.002783 0.001633 0.001339 0.000000 0.032200 0.000000
# 6 0.000000 0.000000 0.000000 0.007968 0.000000 0.085360
#
#
# Mechanical properties :
#
#
# Convention : Reuss Voigt Hill
#
# Bulk Modulus (GPa) = 59.29763 59.89589 59.59676
# Shear Modulus (GPa) = 22.13307 25.73228 23.93268
#
# Velocity S-wave (km/s) = 3.50740 3.78184 3.64720
# Velocity P-wave (km/s) = 7.02573 7.23607 7.13167
#
# Compressibility (1/GPa) = 0.01686408
#
# Stress axis : x y z
#
# Youngs Moduli (GPa) = 80.59827 73.53826 66.20382
#
# Poissons Ratio (x) = 0.29973 0.22603
# Poissons Ratio (y) = 0.32850 0.30674
# Poissons Ratio (z) = 0.27517 0.34072
#
# Static dielectric constant tensor:
#      x y z
#    x 1.638740 0.000000 -0.011590 
#    y 0.000000 1.625870 0.000000 
#    z -0.011590 0.000000 1.735190 
# 
# From -- ./inp_files/252144.got.cif
#   From: 2010.05.17/outbox.cif.g08.bks.cpg/sg15_127_cif.got.tgz:252144.got - 2010.06.03 18:47:42.
