data_PCOD9267153
_publ_section_title
;
Structure prediction by ZEFSAII (Michael W. Deem and Ramdas Pophale) SiO2 
 PCOD9267153
Probable space group: C 2/C
;
_chemical_formula_sum "Si O2"
_cell_formula_units_Z 52
_cell_length_a 5.245430
_cell_length_b 18.034052
_cell_length_c 27.928260
_cell_angle_alpha 90.000000
_cell_angle_beta 95.033598
_cell_angle_gamma 90.000000
_cell_volume 2631.722918
_symmetry_space_group_name_H-M "C 2/C"
_symmetry_group_IT_number 15
_symmetry_cell_setting 'monoclinic'
loop_
_space_group_symop_operation_xyz
x,y,z
-x,y,1/2-z
-x,-y,-z
x,-y,1/2+z
1/2+x,1/2+y,z
1/2-x,1/2+y,1/2-z
1/2-x,1/2-y,-z
1/2+x,1/2-y,1/2+z
loop_
_atom_site_type_symbol
_atom_site_label
_atom_site_fract_x
_atom_site_fract_y
_atom_site_fract_z
Si Si1 0.729883 0.495330 0.843565
Si Si2 0.934134 0.379109 0.605766
Si Si3 0.000000 0.717407 0.250000
Si Si4 0.920168 0.130956 0.308748
Si Si5 0.264575 0.989381 0.531783
Si Si6 0.771022 0.421789 0.129667
Si Si7 0.812293 0.754850 0.347864
O O1 0.605500 0.439111 0.803303
O O2 0.500671 0.548133 0.855925
O O3 0.823263 0.435088 0.885164
O O4 0.983294 0.543780 0.838390
O O5 0.769997 0.393614 0.651257
O O6 0.784061 0.408625 0.557581
O O7 0.018137 0.294154 0.612655
O O8 0.759712 0.664419 0.235130
O O9 0.951817 0.762002 0.298206
O O10 0.078125 0.200293 0.332119
O O11 0.500000 0.000000 0.500000
O O12 0.289470 0.047839 0.575847
O O13 0.000000 0.000000 0.500000
O O14 0.769619 0.333648 0.134036
#
# Coordination Sequence:
#
# PCOD9267153 Si02
#       7
#     8   8   4   8   8   8   8
#     4  10  19  38  66  91 122 166 218 250 307 392
#     4   9  20  39  65  94 122 174 214 252 322 386
#     4  10  22  40  66  96 122 166 222 256 320 372
#     4  10  19  40  68  91 125 168 214 260 307 395
#     4  11  22  39  65  96 128 166 219 271 313 381
#     4  11  23  40  66  97 129 170 210 262 340 371
#     4  10  23  39  69  89 133 171 213 261 323 399
#
# _framework density 19.75892
#
# number of rings (size 3 to 8) (size 9 to 14) (size 15 to 20)
#    0.000    1.846    3.077    2.308    6.462    0.000 
#    0.000    1.538   13.538    0.000    0.000    0.000 
#    0.000    0.000    0.000    0.000    0.000    0.000 
#
# Total GULP energy -144958.533720 kJ/mol
# GULP energy per Si atom -5575.328220 kJ/mol
# Density = 1.971395 g / cm^3
# Si number density = 19.758920 Si / 1000 Ang^3
#
#
#
# Elastic Constant Matrix: (Units=GPa)
#
#
# Indices 1 2 3 4 5 6 
#
# 1 123.8185 51.7285 29.5958 0.0000 9.4365 0.0000
# 2 51.7285 158.5225 40.0242 0.0000 4.4478 0.0000
# 3 29.5958 40.0242 78.0954 0.0000 5.2001 0.0000
# 4 0.0000 0.0000 0.0000 26.3961 0.0000 -3.6131
# 5 9.4365 4.4478 5.2001 0.0000 31.0774 0.0000
# 6 0.0000 0.0000 0.0000 -3.6131 0.0000 29.3807
#
#
#
# Elastic Compliance Matrix: (Units=1/GPa)
#
#
# Indices 1 2 3 4 5 6 
#
# 1 0.009869 -0.002585 -0.002265 0.000000 -0.002248 0.000000
# 2 -0.002585 0.007929 -0.003095 0.000000 0.000168 0.000000
# 3 -0.002265 -0.003095 0.015345 0.000000 -0.001437 0.000000
# 4 0.000000 0.000000 0.000000 0.038533 0.000000 0.004739
# 5 -0.002248 0.000168 -0.001437 0.000000 0.033077 0.000000
# 6 0.000000 0.000000 0.000000 0.004739 0.000000 0.034619
#
#
# Mechanical properties :
#
#
# Convention : Reuss Voigt Hill
#
# Bulk Modulus (GPa) = 57.96561 67.01482 62.49021
# Shear Modulus (GPa) = 31.05334 33.31003 32.18168
#
# Velocity S-wave (km/s) = 3.96866 4.11033 4.04011
# Velocity P-wave (km/s) = 7.09933 7.51773 7.31152
#
# Compressibility (1/GPa) = 0.01725161
#
# Stress axis : x y z
#
# Youngs Moduli (GPa) = 101.32454 126.12565 65.16711
#
# Poissons Ratio (x) = 0.32609 0.14763
# Poissons Ratio (y) = 0.26197 0.20168
# Poissons Ratio (z) = 0.22954 0.39034
#
# Static dielectric constant tensor:
#      x y z
#    x 1.778850 0.000000 -0.010870 
#    y 0.000000 1.675700 0.000000 
#    z -0.010870 0.000000 1.756160 
# 
# From -- ./inp_files/285854.got.cif
#   From: 2010.05.17/outbox.cif.g08.bks.cpg/sg15_143_cif.got.tgz:285854.got - 2010.06.03 18:47:42.
