data_PCOD9267121
_publ_section_title
;
Structure prediction by ZEFSAII (Michael W. Deem and Ramdas Pophale) SiO2 
 PCOD9267121
Probable space group: C 2/C
;
_chemical_formula_sum "Si O2"
_cell_formula_units_Z 56
_cell_length_a 17.455736
_cell_length_b 5.689723
_cell_length_c 20.592677
_cell_angle_alpha 90.000000
_cell_angle_beta 89.119851
_cell_angle_gamma 90.000000
_cell_volume 2044.988418
_symmetry_space_group_name_H-M "C 2/C"
_symmetry_group_IT_number 15
_symmetry_cell_setting 'monoclinic'
loop_
_space_group_symop_operation_xyz
x,y,z
-x,y,1/2-z
-x,-y,-z
x,-y,1/2+z
1/2+x,1/2+y,z
1/2-x,1/2+y,1/2-z
1/2-x,1/2-y,-z
1/2+x,1/2-y,1/2+z
loop_
_atom_site_type_symbol
_atom_site_label
_atom_site_fract_x
_atom_site_fract_y
_atom_site_fract_z
Si Si1 0.250000 0.250000 0.500000
Si Si2 0.405274 0.935189 0.830739
Si Si3 0.351251 0.296980 0.733891
Si Si4 0.079509 0.747304 0.946862
Si Si5 0.449547 0.742177 0.555895
Si Si6 0.500000 0.378449 0.250000
Si Si7 0.769880 0.073326 0.846454
Si Si8 0.669487 0.791396 0.058685
O O1 0.165543 0.248997 0.469021
O O2 0.224451 0.492299 0.543173
O O3 0.479082 0.784589 0.811925
O O4 0.341213 0.745913 0.848374
O O5 0.382527 0.058690 0.764228
O O6 0.392725 0.134630 0.885109
O O7 0.424192 0.469071 0.735169
O O8 0.287728 0.401031 0.785361
O O9 0.305147 0.223231 0.670243
O O10 0.028526 0.747206 0.014163
O O11 0.062170 0.498624 0.913078
O O12 0.056313 0.987341 0.911340
O O13 0.382040 0.731744 0.502365
O O14 0.779695 0.925661 0.913082
#
# Coordination Sequence:
#
# PCOD9267121 Si02
#       8
#     4   8   8   8   8   4   8   8
#     4  10  22  42  68  98 134 180 228 294 332 408
#     4  10  21  40  65  96 133 173 224 277 335 427
#     4  10  19  38  65  95 126 177 217 277 344 410
#     4   9  19  37  66  90 126 172 234 272 348 396
#     4   9  19  38  64  94 123 177 219 286 339 404
#     4  10  22  36  70  94 134 176 226 274 348 416
#     4  10  20  36  67  94 130 174 221 270 348 417
#     4  10  23  37  67 101 133 179 231 280 347 410
#
# _framework density 27.384015999999999
#
# number of rings (size 3 to 8) (size 9 to 14) (size 15 to 20)
#    0.000    2.286    1.429    0.429    4.000    2.286 
#    0.000    0.000   25.143    3.429    0.000    0.000 
#    0.000    0.000    0.000    0.000    0.000    0.000 
#
# Total GULP energy -156459.058925 kJ/mol
# GULP energy per Si atom -5587.823533 kJ/mol
# Density = 2.732169 g / cm^3
# Si number density = 27.384016 Si / 1000 Ang^3
#
#
#
# Elastic Constant Matrix: (Units=GPa)
#
#
# Indices 1 2 3 4 5 6 
#
# 1 166.5338 58.4741 60.2064 0.0000 -13.8676 0.0000
# 2 58.4741 175.8855 32.1195 0.0000 -5.2512 0.0000
# 3 60.2064 32.1195 91.7599 0.0000 -2.7057 0.0000
# 4 0.0000 0.0000 0.0000 47.4406 0.0000 -11.3439
# 5 -13.8676 -5.2512 -2.7057 0.0000 34.2244 0.0000
# 6 0.0000 0.0000 0.0000 -11.3439 0.0000 56.0585
#
#
#
# Elastic Compliance Matrix: (Units=1/GPa)
#
#
# Indices 1 2 3 4 5 6 
#
# 1 0.008703 -0.001903 -0.004960 0.000000 0.002842 0.000000
# 2 -0.001903 0.006510 -0.001026 0.000000 0.000147 0.000000
# 3 -0.004960 -0.001026 0.014482 0.000000 -0.001022 0.000000
# 4 0.000000 0.000000 0.000000 0.022151 0.000000 0.004482
# 5 0.002842 0.000147 -0.001022 0.000000 0.030312 0.000000
# 6 0.000000 0.000000 0.000000 0.004482 0.000000 0.018746
#
#
# Mechanical properties :
#
#
# Convention : Reuss Voigt Hill
#
# Bulk Modulus (GPa) = 71.85820 81.75327 76.80573
# Shear Modulus (GPa) = 41.21343 46.43665 43.82504
#
# Velocity S-wave (km/s) = 3.88366 4.12243 4.00482
# Velocity P-wave (km/s) = 6.81237 7.25109 7.03515
#
# Compressibility (1/GPa) = 0.01391630
#
# Stress axis : x y z
#
# Youngs Moduli (GPa) = 114.90513 153.61472 69.05285
#
# Poissons Ratio (x) = 0.29227 0.34253
# Poissons Ratio (y) = 0.21862 0.07085
# Poissons Ratio (z) = 0.56998 0.15761
#
# Static dielectric constant tensor:
#      x y z
#    x 2.096190 0.000000 -0.045790 
#    y 0.000000 2.402120 0.000000 
#    z -0.045790 0.000000 2.403070 
# 
# From -- ./inp_files/297742.got.cif
#   From: 2010.05.17/outbox.cif.g08.bks.cpg/sg15_149_cif.got.tgz:297742.got - 2010.06.03 18:47:42.
