data_PCOD9267449
_publ_section_title
;
Structure prediction by ZEFSAII (Michael W. Deem and Ramdas Pophale) SiO2 
 PCOD9267449
Probable space group: C 2/C
;
_chemical_formula_sum "Si O2"
_cell_formula_units_Z 48
_cell_length_a 14.024116
_cell_length_b 9.229121
_cell_length_c 26.946059
_cell_angle_alpha 90.000000
_cell_angle_beta 138.326950
_cell_angle_gamma 90.000000
_cell_volume 2318.855920
_symmetry_space_group_name_H-M "C 2/C"
_symmetry_group_IT_number 15
_symmetry_cell_setting 'monoclinic'
loop_
_space_group_symop_operation_xyz
x,y,z
-x,y,1/2-z
-x,-y,-z
x,-y,1/2+z
1/2+x,1/2+y,z
1/2-x,1/2+y,1/2-z
1/2-x,1/2-y,-z
1/2+x,1/2-y,1/2+z
loop_
_atom_site_type_symbol
_atom_site_label
_atom_site_fract_x
_atom_site_fract_y
_atom_site_fract_z
Si Si1 0.349168 0.719306 0.085016
Si Si2 0.354848 0.659604 0.844401
Si Si3 0.605855 0.255255 0.244414
Si Si4 0.090491 0.154758 0.106280
Si Si5 0.047453 0.570069 0.712249
Si Si6 0.420777 0.847044 0.960877
O O1 0.487173 0.646422 0.114018
O O2 0.414488 0.867761 0.130921
O O3 0.244830 0.645640 0.084458
O O4 0.250000 0.750000 0.000000
O O5 0.420941 0.648659 0.814783
O O6 0.364376 0.512943 0.881259
O O7 0.186143 0.672954 0.765779
O O8 0.415102 0.787357 0.902446
O O9 0.500000 0.279020 0.250000
O O10 0.768713 0.251832 0.328307
O O11 0.587713 0.093087 0.214738
O O12 0.004000 0.228488 0.027573
O O13 0.000000 0.562579 0.750000
O O14 0.500000 0.000000 0.000000
#
# Coordination Sequence:
#
# PCOD9267449 Si02
#       6
#     8   8   8   8   8   8
#     4  10  21  39  63  90 129 170 213 261 313 393
#     4  11  22  40  67  94 128 174 207 272 328 380
#     4  10  23  39  65  94 129 166 217 272 325 387
#     4  10  23  43  62  95 135 166 214 269 326 386
#     4  10  19  39  63  92 122 170 217 258 323 394
#     4  11  25  41  66  97 130 173 220 268 319 388
#
# _framework density 20.699862
#
# number of rings (size 3 to 8) (size 9 to 14) (size 15 to 20)
#    0.000    1.667    3.333    0.500    4.667    1.333 
#    0.000    2.500    0.000    0.000    0.000    0.000 
#    0.000    0.000    0.000    0.000    0.000    0.000 
#
# Total GULP energy -133705.684399 kJ/mol
# GULP energy per Si atom -5571.070183 kJ/mol
# Density = 2.065275 g / cm^3
# Si number density = 20.699862 Si / 1000 Ang^3
#
#
#
# Elastic Constant Matrix: (Units=GPa)
#
#
# Indices 1 2 3 4 5 6 
#
# 1 106.6760 8.0421 47.3245 0.0000 3.6100 0.0000
# 2 8.0421 50.4853 47.1542 0.0000 -6.3763 0.0000
# 3 47.3245 47.1542 111.3536 0.0000 -5.9777 0.0000
# 4 0.0000 0.0000 0.0000 32.8567 0.0000 -0.3716
# 5 3.6100 -6.3763 -5.9777 0.0000 37.8075 0.0000
# 6 0.0000 0.0000 0.0000 -0.3716 0.0000 19.9533
#
#
#
# Elastic Compliance Matrix: (Units=1/GPa)
#
#
# Indices 1 2 3 4 5 6 
#
# 1 0.012305 0.004644 -0.007279 0.000000 -0.001543 0.000000
# 2 0.004644 0.034950 -0.016622 0.000000 0.002823 0.000000
# 3 -0.007279 -0.016622 0.019162 0.000000 0.000921 0.000000
# 4 0.000000 0.000000 0.000000 0.030442 0.000000 0.000567
# 5 -0.001543 0.002823 0.000921 0.000000 0.027219 0.000000
# 6 0.000000 0.000000 0.000000 0.000567 0.000000 0.050128
#
#
# Mechanical properties :
#
#
# Convention : Reuss Voigt Hill
#
# Bulk Modulus (GPa) = 35.83863 52.61737 44.22800
# Shear Modulus (GPa) = 22.52041 29.18977 25.85509
#
# Velocity S-wave (km/s) = 3.30199 3.75926 3.53802
# Velocity P-wave (km/s) = 5.64699 6.65711 6.17275
#
# Compressibility (1/GPa) = 0.02790285
#
# Stress axis : x y z
#
# Youngs Moduli (GPa) = 81.26475 28.61256 52.18626
#
# Poissons Ratio (x) = -0.13287 0.37986
# Poissons Ratio (y) = -0.37736 0.86743
# Poissons Ratio (z) = 0.59152 0.47559
#
# Static dielectric constant tensor:
#      x y z
#    x 1.795500 0.000000 0.007320 
#    y 0.000000 1.845830 0.000000 
#    z 0.007320 0.000000 1.724760 
# 
# From -- ./inp_files/295458.got.cif
#   From: 2010.05.17/outbox.cif.g08.bks.cpg/sg15_148_cif.got.tgz:295458.got - 2010.06.03 18:47:42.
