data_PCOD9267788
_publ_section_title
;
Structure prediction by ZEFSAII (Michael W. Deem and Ramdas Pophale) SiO2 
 PCOD9267788
Probable space group: C 2/C
;
_chemical_formula_sum "Si O2"
_cell_formula_units_Z 60
_cell_length_a 9.204262
_cell_length_b 22.451826
_cell_length_c 23.346784
_cell_angle_alpha 90.000000
_cell_angle_beta 36.338002
_cell_angle_gamma 90.000000
_cell_volume 2858.847179
_symmetry_space_group_name_H-M "C 2/C"
_symmetry_group_IT_number 15
_symmetry_cell_setting 'monoclinic'
loop_
_space_group_symop_operation_xyz
x,y,z
-x,y,1/2-z
-x,-y,-z
x,-y,1/2+z
1/2+x,1/2+y,z
1/2-x,1/2+y,1/2-z
1/2-x,1/2-y,-z
1/2+x,1/2-y,1/2+z
loop_
_atom_site_type_symbol
_atom_site_label
_atom_site_fract_x
_atom_site_fract_y
_atom_site_fract_z
Si Si1 0.998385 0.185237 0.947118
Si Si2 0.657459 0.923709 0.833523
Si Si3 0.041873 0.874920 0.156302
Si Si4 0.535752 0.792429 0.847928
Si Si5 0.113844 0.012631 0.134370
Si Si6 0.737897 0.494537 0.462522
Si Si7 0.000000 0.777040 0.250000
Si Si8 0.526438 0.886375 0.175092
O O1 0.908066 0.139453 0.925911
O O2 0.245854 0.159802 0.896873
O O3 0.064592 0.244341 0.889624
O O4 0.760098 0.196777 0.061443
O O5 0.670425 0.853374 0.821436
O O6 0.851806 0.958460 0.732278
O O7 0.708216 0.949359 0.881168
O O8 0.389739 0.945906 0.903596
O O9 0.152392 0.823667 0.161607
O O10 0.746528 0.866187 0.254383
O O11 0.111192 0.942129 0.150072
O O12 0.618385 0.765088 0.760885
O O13 0.175482 0.015733 0.048398
O O14 0.500000 0.500000 0.500000
O O15 0.899887 0.440355 0.388370
O O16 0.500000 0.906389 0.250000
#
# Coordination Sequence:
#
# PCOD9267788 Si02
#       8
#     8   8   8   8   8   8   4   8
#     4   9  20  39  64  85 119 167 213 253 313 379
#     4  11  24  42  62  89 136 173 206 265 329 396
#     4  10  19  40  65  86 118 162 215 261 309 378
#     4  10  21  41  60  90 123 169 209 262 322 381
#     4  11  24  43  64  97 128 174 216 265 330 391
#     4  12  24  37  66  99 131 166 213 268 329 389
#     4  10  22  38  64  90 116 162 216 270 310 374
#     4  10  20  38  61  93 123 161 212 266 318 377
#
# _framework density 20.987482
#
# number of rings (size 3 to 8) (size 9 to 14) (size 15 to 20)
#    0.000    1.600    1.333    4.400    0.000    2.133 
#   16.800    0.667    0.000    0.000    0.000    0.000 
#    0.000    0.000    0.000    0.000    0.000    0.000 
#
# Total GULP energy -167496.683767 kJ/mol
# GULP energy per Si atom -5583.222792 kJ/mol
# Density = 2.093971 g / cm^3
# Si number density = 20.987482 Si / 1000 Ang^3
#
#
#
# Elastic Constant Matrix: (Units=GPa)
#
#
# Indices 1 2 3 4 5 6 
#
# 1 68.7323 39.2158 25.3419 0.0128 5.9238 -0.0167
# 2 39.2158 161.3583 16.9071 0.0077 6.1714 -0.0061
# 3 25.3419 16.9071 56.7834 0.0119 4.1371 -0.0082
# 4 0.0128 0.0077 0.0119 26.2261 -0.0099 4.8894
# 5 5.9238 6.1714 4.1371 -0.0099 20.6468 0.0096
# 6 -0.0167 -0.0061 -0.0082 4.8894 0.0096 34.4796
#
#
#
# Elastic Compliance Matrix: (Units=1/GPa)
#
#
# Indices 1 2 3 4 5 6 
#
# 1 0.019787 -0.003914 -0.007446 -0.000008 -0.003015 0.000009
# 2 -0.003914 0.007220 -0.000333 0.000000 -0.000969 0.000000
# 3 -0.007446 -0.000333 0.021179 -0.000007 -0.002008 0.000003
# 4 -0.000008 0.000000 -0.000007 0.039165 0.000025 -0.005554
# 5 -0.003015 -0.000969 -0.002008 0.000025 0.049991 -0.000020
# 6 0.000009 0.000000 0.000003 -0.005554 -0.000020 0.029790
#
#
# Mechanical properties :
#
#
# Convention : Reuss Voigt Hill
#
# Bulk Modulus (GPa) = 40.31835 49.97818 45.14827
# Shear Modulus (GPa) = 25.15276 29.96445 27.55861
#
# Velocity S-wave (km/s) = 3.46564 3.78263 3.62760
# Velocity P-wave (km/s) = 5.93857 6.55307 6.25337
#
# Compressibility (1/GPa) = 0.02480260
#
# Stress axis : x y z
#
# Youngs Moduli (GPa) = 50.53731 138.49604 47.21612
#
# Poissons Ratio (x) = 0.54201 0.35157
# Poissons Ratio (y) = 0.19778 0.01571
# Poissons Ratio (z) = 0.37630 0.04608
#
# Static dielectric constant tensor:
#      x y z
#    x 1.797840 0.000010 -0.026550 
#    y 0.000010 1.816770 -0.000010 
#    z -0.026550 -0.000010 1.797360 
# 
# From -- ./inp_files/266228.got.cif
#   From: 2010.05.17/outbox.cif.g08.bks.cpg/sg15_134_cif.got.tgz:266228.got - 2010.06.03 18:47:42.
