data_PCOD9267196
_publ_section_title
;
Structure prediction by ZEFSAII (Michael W. Deem and Ramdas Pophale) SiO2 
 PCOD9267196
Probable space group: C 2/C
;
_chemical_formula_sum "Si O2"
_cell_formula_units_Z 52
_cell_length_a 7.864864
_cell_length_b 25.144589
_cell_length_c 12.415356
_cell_angle_alpha 90.000000
_cell_angle_beta 107.311929
_cell_angle_gamma 90.000000
_cell_volume 2344.020156
_symmetry_space_group_name_H-M "C 2/C"
_symmetry_group_IT_number 15
_symmetry_cell_setting 'monoclinic'
loop_
_space_group_symop_operation_xyz
x,y,z
-x,y,1/2-z
-x,-y,-z
x,-y,1/2+z
1/2+x,1/2+y,z
1/2-x,1/2+y,1/2-z
1/2-x,1/2-y,-z
1/2+x,1/2-y,1/2+z
loop_
_atom_site_type_symbol
_atom_site_label
_atom_site_fract_x
_atom_site_fract_y
_atom_site_fract_z
Si Si1 0.215240 0.622960 0.554544
Si Si2 0.000000 0.068633 0.250000
Si Si3 0.174533 0.001677 0.958696
Si Si4 0.000000 0.749905 0.750000
Si Si5 0.894745 0.582456 0.620629
Si Si6 0.798094 0.815437 0.408532
Si Si7 0.610086 0.335662 0.622376
Si Si8 0.000000 0.817149 0.250000
O O1 0.279469 0.562433 0.553007
O O2 0.256028 0.654794 0.451725
O O3 0.336380 0.649785 0.668812
O O4 0.015346 0.616000 0.559495
O O5 0.132164 0.030923 0.341887
O O6 0.092436 0.108781 0.182770
O O7 0.327530 0.970565 0.051653
O O8 0.000000 0.000000 0.000000
O O9 0.889889 0.713210 0.645923
O O10 0.863292 0.788300 0.788113
O O11 0.732775 0.621720 0.618783
O O12 0.000000 0.571669 0.750000
O O13 0.916026 0.818629 0.537506
O O14 0.921901 0.789439 0.340249
#
# Coordination Sequence:
#
# PCOD9267196 Si02
#       8
#     8   4   8   4   8   8   8   4
#     4  11  22  39  60  97 134 171 219 273 325 401
#     4  11  21  40  66  90 130 172 224 257 323 398
#     4  12  24  41  66  96 131 181 221 260 334 399
#     4  11  22  40  69  94 124 179 222 282 341 388
#     4  12  24  41  65  99 133 167 223 281 327 393
#     4  11  20  42  64  93 127 169 220 279 334 398
#     4  10  23  41  64  93 131 170 220 269 333 403
#     4  10  19  38  67  92 128 175 218 269 340 400
#
# _framework density 22.184108999999999
#
# number of rings (size 3 to 8) (size 9 to 14) (size 15 to 20)
#    0.000    0.923    5.385    2.308    2.154    0.000 
#    0.000    9.231    0.000    0.000    0.000    0.000 
#    0.000    0.000    0.000    0.000    0.000    0.000 
#
# Total GULP energy -145154.345719 kJ/mol
# GULP energy per Si atom -5582.859451 kJ/mol
# Density = 2.213362 g / cm^3
# Si number density = 22.184109 Si / 1000 Ang^3
#
#
#
# Elastic Constant Matrix: (Units=GPa)
#
#
# Indices 1 2 3 4 5 6 
#
# 1 55.3651 -7.9616 6.8821 0.0000 -12.7620 0.0000
# 2 -7.9616 68.5646 20.7075 0.0000 8.9214 0.0000
# 3 6.8821 20.7075 105.4884 0.0000 -3.2594 0.0000
# 4 0.0000 0.0000 0.0000 25.3897 0.0000 1.5171
# 5 -12.7620 8.9214 -3.2594 0.0000 36.6241 0.0000
# 6 0.0000 0.0000 0.0000 1.5171 0.0000 29.2968
#
#
#
# Elastic Compliance Matrix: (Units=1/GPa)
#
#
# Indices 1 2 3 4 5 6 
#
# 1 0.019993 0.001944 -0.001489 0.000000 0.006361 0.000000
# 2 0.001944 0.016319 -0.003442 0.000000 -0.003604 0.000000
# 3 -0.001489 -0.003442 0.010291 0.000000 0.001235 0.000000
# 4 0.000000 0.000000 0.000000 0.039508 0.000000 -0.002046
# 5 0.006361 -0.003604 0.001235 0.000000 0.030509 0.000000
# 6 0.000000 0.000000 0.000000 -0.002046 0.000000 0.034239
#
#
# Mechanical properties :
#
#
# Convention : Reuss Voigt Hill
#
# Bulk Modulus (GPa) = 24.61371 29.85266 27.23318
# Shear Modulus (GPa) = 29.34693 32.24814 30.79754
#
# Velocity S-wave (km/s) = 3.64109 3.81683 3.72999
# Velocity P-wave (km/s) = 5.36619 5.73674 5.55456
#
# Compressibility (1/GPa) = 0.04062777
#
# Stress axis : x y z
#
# Youngs Moduli (GPa) = 50.01820 61.27877 97.17579
#
# Poissons Ratio (x) = -0.11911 0.14473
# Poissons Ratio (y) = -0.09722 0.33444
# Poissons Ratio (z) = 0.07449 0.21090
#
# Static dielectric constant tensor:
#      x y z
#    x 1.916410 0.000000 -0.047710 
#    y 0.000000 1.799970 0.000000 
#    z -0.047710 0.000000 1.830190 
# 
# From -- ./inp_files/80883.got.cif
#   From: 2010.05.17/outbox.cif.g08.bks.cpg/sg15_41_cif.got.tgz:80883.got - 2010.06.03 18:47:42.
