data_PCOD9267727
_publ_section_title
;
Structure prediction by ZEFSAII (Michael W. Deem and Ramdas Pophale) SiO2 
 PCOD9267727
Probable space group: C 2/C
;
_chemical_formula_sum "Si O2"
_cell_formula_units_Z 64
_cell_length_a 7.193239
_cell_length_b 26.437431
_cell_length_c 14.516445
_cell_angle_alpha 90.000000
_cell_angle_beta 108.675717
_cell_angle_gamma 90.000000
_cell_volume 2615.246769
_symmetry_space_group_name_H-M "C 2/C"
_symmetry_group_IT_number 15
_symmetry_cell_setting 'monoclinic'
loop_
_space_group_symop_operation_xyz
x,y,z
-x,y,1/2-z
-x,-y,-z
x,-y,1/2+z
1/2+x,1/2+y,z
1/2-x,1/2+y,1/2-z
1/2-x,1/2-y,-z
1/2+x,1/2-y,1/2+z
loop_
_atom_site_type_symbol
_atom_site_label
_atom_site_fract_x
_atom_site_fract_y
_atom_site_fract_z
Si Si1 0.202869 0.059130 0.585210
Si Si2 0.952645 0.345453 0.144592
Si Si3 0.747779 0.033606 0.514552
Si Si4 0.726466 0.433400 0.287928
Si Si5 0.575850 0.702749 0.155770
Si Si6 0.870499 0.289133 0.947276
Si Si7 0.606013 0.711514 0.862112
Si Si8 0.311654 0.141945 0.055182
O O1 0.265069 0.117666 0.601580
O O2 0.258911 0.040763 0.695918
O O3 0.974641 0.050431 0.530121
O O4 0.307017 0.020547 0.533790
O O5 0.128319 0.386581 0.174238
O O6 0.942619 0.308084 0.058828
O O7 0.000000 0.319010 0.250000
O O8 0.744118 0.030221 0.623038
O O9 0.645560 0.083880 0.461251
O O10 0.500000 0.416588 0.250000
O O11 0.500000 0.698841 0.250000
O O12 0.361258 0.710470 0.078251
O O13 0.736565 0.746230 0.151778
O O14 0.678319 0.654175 0.123168
O O15 0.953090 0.240671 0.904966
O O16 0.975157 0.332191 0.901455
O O17 0.500000 0.693952 0.750000
O O18 0.699465 0.670567 0.949770
#
# Coordination Sequence:
#
# PCOD9267727 Si02
#       8
#     8   8   8   8   8   8   8   8
#     4   9  20  35  64  92 130 175 220 278 347 414
#     4  10  20  39  65 102 137 169 233 287 339 416
#     4  10  19  40  62  95 133 173 222 284 349 400
#     4   9  18  35  61  89 131 172 217 279 336 400
#     4  11  23  45  73  93 139 186 224 293 348 416
#     4  11  22  44  69 101 139 181 232 286 353 420
#     4  11  25  47  69 101 139 184 240 287 353 426
#     4  11  25  42  69 102 136 180 238 289 345 425
#
# _framework density 24.471878
#
# number of rings (size 3 to 8) (size 9 to 14) (size 15 to 20)
#    0.000    1.750    2.500    2.250    0.000    4.000 
#    2.250    5.000    5.500    0.000    0.000    0.000 
#    0.000    0.000    0.000    0.000    0.000    0.000 
#
# Total GULP energy -178513.256540 kJ/mol
# GULP energy per Si atom -5578.539267 kJ/mol
# Density = 2.441618 g / cm^3
# Si number density = 24.471878 Si / 1000 Ang^3
#
#
#
# Elastic Constant Matrix: (Units=GPa)
#
#
# Indices 1 2 3 4 5 6 
#
# 1 117.0222 -1.7821 21.7696 0.0000 -3.6406 0.0000
# 2 -1.7821 61.4118 43.8454 0.0000 -10.7365 0.0000
# 3 21.7696 43.8454 146.8927 0.0000 -33.5028 0.0000
# 4 0.0000 0.0000 0.0000 14.5992 0.0000 -11.9949
# 5 -3.6406 -10.7365 -33.5028 0.0000 44.2488 0.0000
# 6 0.0000 0.0000 0.0000 -11.9949 0.0000 27.1524
#
#
#
# Elastic Compliance Matrix: (Units=1/GPa)
#
#
# Indices 1 2 3 4 5 6 
#
# 1 0.008902 0.001521 -0.001840 0.000000 -0.000291 0.000000
# 2 0.001521 0.020960 -0.006398 0.000000 0.000367 0.000000
# 3 -0.001840 -0.006398 0.010397 0.000000 0.006168 0.000000
# 4 0.000000 0.000000 0.000000 0.107524 0.000000 0.047500
# 5 -0.000291 0.000367 0.006168 0.000000 0.027335 0.000000
# 6 0.000000 0.000000 0.000000 0.047500 0.000000 0.057813
#
#
# Mechanical properties :
#
#
# Convention : Reuss Voigt Hill
#
# Bulk Modulus (GPa) = 37.27926 50.33249 43.80587
# Shear Modulus (GPa) = 19.58445 34.63300 27.10872
#
# Velocity S-wave (km/s) = 2.83200 3.76602 3.33190
# Velocity P-wave (km/s) = 5.09511 6.28670 5.72201
#
# Compressibility (1/GPa) = 0.02682457
#
# Stress axis : x y z
#
# Youngs Moduli (GPa) = 112.33793 47.71087 96.18303
#
# Poissons Ratio (x) = -0.07256 0.17694
# Poissons Ratio (y) = -0.17084 0.61537
# Poissons Ratio (z) = 0.20666 0.30525
#
# Static dielectric constant tensor:
#      x y z
#    x 2.117230 0.000000 -0.013450 
#    y 0.000000 1.965930 0.000000 
#    z -0.013450 0.000000 2.046730 
# 
# From -- ./inp_files/138648.got.cif
#   From: 2010.05.17/outbox.cif.g08.bks.cpg/sg15_70_cif.got.tgz:138648.got - 2010.06.03 18:47:42.
