data_PCOD9267422
_publ_section_title
;
Structure prediction by ZEFSAII (Michael W. Deem and Ramdas Pophale) SiO2 
 PCOD9267422
Probable space group: C 2/C
;
_chemical_formula_sum "Si O2"
_cell_formula_units_Z 48
_cell_length_a 8.957549
_cell_length_b 16.587459
_cell_length_c 13.045173
_cell_angle_alpha 90.000000
_cell_angle_beta 83.098200
_cell_angle_gamma 90.000000
_cell_volume 1924.244944
_symmetry_space_group_name_H-M "C 2/C"
_symmetry_group_IT_number 15
_symmetry_cell_setting 'monoclinic'
loop_
_space_group_symop_operation_xyz
x,y,z
-x,y,1/2-z
-x,-y,-z
x,-y,1/2+z
1/2+x,1/2+y,z
1/2-x,1/2+y,1/2-z
1/2-x,1/2-y,-z
1/2+x,1/2-y,1/2+z
loop_
_atom_site_type_symbol
_atom_site_label
_atom_site_fract_x
_atom_site_fract_y
_atom_site_fract_z
Si Si1 0.632969 0.231170 0.653019
Si Si2 0.352086 0.052238 0.834049
Si Si3 0.818952 0.396773 0.966240
Si Si4 0.988089 0.883624 0.625577
Si Si5 0.285466 0.495745 0.350668
Si Si6 0.909247 0.341311 0.652728
O O1 0.500000 0.223723 0.750000
O O2 0.661327 0.140269 0.616740
O O3 0.575875 0.302926 0.584170
O O4 0.791813 0.268978 0.675309
O O5 0.500000 0.049214 0.750000
O O6 0.366599 0.983838 0.917176
O O7 0.214626 0.031096 0.768174
O O8 0.675809 0.375174 0.908366
O O9 0.957269 0.336529 0.941417
O O10 0.773419 0.417506 0.084902
O O11 0.000000 0.882022 0.750000
O O12 0.071031 0.968535 0.600536
O O13 0.182407 0.576150 0.358372
O O14 0.000000 0.351529 0.750000
#
# Coordination Sequence:
#
# PCOD9267422 Si02
#       6
#     8   8   8   8   8   8
#     4   9  21  37  63  82 122 167 207 246 317 373
#     4  11  21  39  62  93 121 164 205 262 311 358
#     4  12  21  36  69  92 123 158 212 264 301 368
#     4  10  19  39  63  85 119 172 203 246 317 374
#     4  11  21  36  64  98 120 158 215 257 305 369
#     4  11  19  38  62  89 117 166 206 247 314 368
#
# _framework density 24.944849999999999
#
# number of rings (size 3 to 8) (size 9 to 14) (size 15 to 20)
#    0.000    1.333    5.000    3.000    0.000    0.000 
#    3.000    3.333    7.333    6.000    0.000    0.000 
#    0.000    0.000    0.000    0.000    0.000    0.000 
#
# Total GULP energy -134118.120299 kJ/mol
# GULP energy per Si atom -5588.255012 kJ/mol
# Density = 2.488807 g / cm^3
# Si number density = 24.944850 Si / 1000 Ang^3
#
#
#
# Elastic Constant Matrix: (Units=GPa)
#
#
# Indices 1 2 3 4 5 6 
#
# 1 143.7960 38.2675 18.4122 0.0000 21.3171 0.0000
# 2 38.2675 89.3290 2.5474 0.0000 8.0485 0.0000
# 3 18.4122 2.5474 66.1269 0.0000 19.0475 0.0000
# 4 0.0000 0.0000 0.0000 9.7140 0.0000 1.8525
# 5 21.3171 8.0485 19.0475 0.0000 28.5805 0.0000
# 6 0.0000 0.0000 0.0000 1.8525 0.0000 18.5483
#
#
#
# Elastic Compliance Matrix: (Units=1/GPa)
#
#
# Indices 1 2 3 4 5 6 
#
# 1 0.008664 -0.003238 -0.000853 0.000000 -0.004982 0.000000
# 2 -0.003238 0.012716 0.000925 0.000000 -0.001782 0.000000
# 3 -0.000853 0.000925 0.018831 0.000000 -0.012175 0.000000
# 4 0.000000 0.000000 0.000000 0.104943 0.000000 -0.010481
# 5 -0.004982 -0.001782 -0.012175 0.000000 0.047320 0.000000
# 6 0.000000 0.000000 0.000000 -0.010481 0.000000 0.054960
#
#
# Mechanical properties :
#
#
# Convention : Reuss Voigt Hill
#
# Bulk Modulus (GPa) = 29.51647 46.41179 37.96413
# Shear Modulus (GPa) = 18.86376 27.37021 23.11699
#
# Velocity S-wave (km/s) = 2.75293 3.31604 3.04752
# Velocity P-wave (km/s) = 4.68649 5.77128 5.25694
#
# Compressibility (1/GPa) = 0.03387939
#
# Stress axis : x y z
#
# Youngs Moduli (GPa) = 115.42298 78.64100 53.10390
#
# Poissons Ratio (x) = 0.25466 0.04528
# Poissons Ratio (y) = 0.37377 -0.04913
# Poissons Ratio (z) = 0.09841 -0.07276
#
# Static dielectric constant tensor:
#      x y z
#    x 2.129040 0.000000 -0.074630 
#    y 0.000000 1.961200 0.000000 
#    z -0.074630 0.000000 2.054370 
# 
# From -- ./inp_files/135481.got.cif
#   From: 2010.05.17/outbox.cif.g08.bks.cpg/sg15_68_cif.got.tgz:135481.got - 2010.06.03 18:47:42.
