data_PCOD9267410
_publ_section_title
;
Structure prediction by ZEFSAII (Michael W. Deem and Ramdas Pophale) SiO2 
 PCOD9267410
Probable space group: C 2/C
;
_chemical_formula_sum "Si O2"
_cell_formula_units_Z 60
_cell_length_a 6.270870
_cell_length_b 15.529693
_cell_length_c 25.870571
_cell_angle_alpha 90.000000
_cell_angle_beta 87.571159
_cell_angle_gamma 90.000000
_cell_volume 2517.134067
_symmetry_space_group_name_H-M "C 2/C"
_symmetry_group_IT_number 15
_symmetry_cell_setting 'monoclinic'
loop_
_space_group_symop_operation_xyz
x,y,z
-x,y,1/2-z
-x,-y,-z
x,-y,1/2+z
1/2+x,1/2+y,z
1/2-x,1/2+y,1/2-z
1/2-x,1/2-y,-z
1/2+x,1/2-y,1/2+z
loop_
_atom_site_type_symbol
_atom_site_label
_atom_site_fract_x
_atom_site_fract_y
_atom_site_fract_z
Si Si1 0.903091 0.267521 0.626316
Si Si2 0.694194 0.034469 0.841154
Si Si3 0.049342 0.312769 0.507619
Si Si4 0.500000 0.520460 0.250000
Si Si5 0.445126 0.607619 0.387788
Si Si6 0.341288 0.101421 0.312154
Si Si7 0.314017 0.541689 0.033405
Si Si8 0.855302 0.374837 0.408150
O O1 0.675076 0.313453 0.635793
O O2 0.842245 0.167804 0.621439
O O3 0.972209 0.299519 0.567902
O O4 0.050476 0.308808 0.669788
O O5 0.790877 0.974317 0.885534
O O6 0.509376 0.975418 0.817354
O O7 0.885653 0.037806 0.796180
O O8 0.566915 0.112865 0.869907
O O9 0.250000 0.250000 0.500000
O O10 0.131852 0.410952 0.504606
O O11 0.897449 0.314511 0.458496
O O12 0.697905 0.584447 0.262983
O O13 0.654465 0.587385 0.354307
O O14 0.546828 0.618601 0.441943
O O15 0.217012 0.468041 0.070766
O O16 0.500000 0.500000 0.000000
#
# Coordination Sequence:
#
# PCOD9267410 Si02
#       8
#     8   8   8   4   8   8   8   8
#     4  11  23  40  63  99 145 188 238 277 337 428
#     4  10  21  40  67 109 131 169 227 292 361 426
#     4  12  24  41  61  94 150 201 243 278 336 419
#     4  10  22  40  78 108 126 166 234 306 372 440
#     4  10  19  39  62  93 130 177 225 274 333 411
#     4  10  20  42  69 104 128 173 229 287 354 429
#     4  12  21  36  60  94 138 186 235 281 332 398
#     4  12  24  39  62 106 145 188 232 290 342 415
#
# _framework density 23.836631000000001
#
# number of rings (size 3 to 8) (size 9 to 14) (size 15 to 20)
#    0.000    1.067    2.667    5.200    0.000    0.000 
#    0.000    0.000    0.000    0.000   58.933    0.000 
#    0.000    0.000    0.000    0.000    0.000    0.000 
#
# Total GULP energy -167073.366403 kJ/mol
# GULP energy per Si atom -5569.112213 kJ/mol
# Density = 2.378238 g / cm^3
# Si number density = 23.836631 Si / 1000 Ang^3
#
#
#
# Elastic Constant Matrix: (Units=GPa)
#
#
# Indices 1 2 3 4 5 6 
#
# 1 99.1008 20.2694 33.6222 0.0000 -0.8628 0.0000
# 2 20.2694 68.5886 19.7197 0.0000 -3.2904 0.0000
# 3 33.6222 19.7197 79.9180 0.0000 -5.0874 0.0000
# 4 0.0000 0.0000 0.0000 14.7035 0.0000 8.4245
# 5 -0.8628 -3.2904 -5.0874 0.0000 52.4395 0.0000
# 6 0.0000 0.0000 0.0000 8.4245 0.0000 48.6883
#
#
#
# Elastic Compliance Matrix: (Units=1/GPa)
#
#
# Indices 1 2 3 4 5 6 
#
# 1 0.012099 -0.002286 -0.004551 0.000000 -0.000386 0.000000
# 2 -0.002286 0.016144 -0.002978 0.000000 0.000686 0.000000
# 3 -0.004551 -0.002978 0.015240 0.000000 0.001217 0.000000
# 4 0.000000 0.000000 0.000000 0.075496 0.000000 -0.013063
# 5 -0.000386 0.000686 0.001217 0.000000 0.019224 0.000000
# 6 0.000000 0.000000 0.000000 -0.013063 0.000000 0.022799
#
#
# Mechanical properties :
#
#
# Convention : Reuss Voigt Hill
#
# Bulk Modulus (GPa) = 41.92233 43.86998 42.89615
# Shear Modulus (GPa) = 26.51364 34.76600 30.63982
#
# Velocity S-wave (km/s) = 3.33874 3.82319 3.58915
# Velocity P-wave (km/s) = 5.69987 6.15901 5.93388
#
# Compressibility (1/GPa) = 0.02385364
#
# Stress axis : x y z
#
# Youngs Moduli (GPa) = 82.65305 61.94118 65.61818
#
# Poissons Ratio (x) = 0.14157 0.29860
# Poissons Ratio (y) = 0.18891 0.19543
# Poissons Ratio (z) = 0.37612 0.18448
#
# Static dielectric constant tensor:
#      x y z
#    x 1.943260 0.000000 -0.084220 
#    y 0.000000 1.964080 0.000000 
#    z -0.084220 0.000000 2.223730 
# 
# From -- ./inp_files/286094.got.cif
#   From: 2010.05.17/outbox.cif.g08.bks.cpg/sg15_144_cif.got.tgz:286094.got - 2010.06.03 18:47:42.
