data_PCOD9267376
_publ_section_title
;
Structure prediction by ZEFSAII (Michael W. Deem and Ramdas Pophale) SiO2 
 PCOD9267376
Probable space group: C 2/C
;
_chemical_formula_sum "Si O2"
_cell_formula_units_Z 48
_cell_length_a 13.671144
_cell_length_b 25.785858
_cell_length_c 8.905359
_cell_angle_alpha 90.000000
_cell_angle_beta 41.417851
_cell_angle_gamma 90.000000
_cell_volume 2076.814083
_symmetry_space_group_name_H-M "C 2/C"
_symmetry_group_IT_number 15
_symmetry_cell_setting 'monoclinic'
loop_
_space_group_symop_operation_xyz
x,y,z
-x,y,1/2-z
-x,-y,-z
x,-y,1/2+z
1/2+x,1/2+y,z
1/2-x,1/2+y,1/2-z
1/2-x,1/2-y,-z
1/2+x,1/2-y,1/2+z
loop_
_atom_site_type_symbol
_atom_site_label
_atom_site_fract_x
_atom_site_fract_y
_atom_site_fract_z
Si Si1 0.321390 0.541901 0.944147
Si Si2 0.000000 0.809244 0.250000
Si Si3 0.785830 0.439541 0.272742
Si Si4 0.145552 0.842129 0.368649
Si Si5 0.072847 0.387698 0.830206
Si Si6 0.431830 0.786497 0.035796
Si Si7 0.500000 0.258757 0.750000
O O1 0.500000 0.540260 0.750000
O O2 0.268710 0.547620 0.833132
O O3 0.249047 0.488418 0.086189
O O4 0.234207 0.586508 0.139157
O O5 0.058610 0.846688 0.313630
O O6 0.923505 0.765314 0.446314
O O7 0.677818 0.391305 0.433772
O O8 0.955391 0.418367 0.073052
O O9 0.303042 0.823129 0.127221
O O10 0.085188 0.795626 0.537718
O O11 0.000000 0.395381 0.750000
O O12 0.072180 0.325513 0.862917
O O13 0.408645 0.775485 0.238424
#
# Coordination Sequence:
#
# PCOD9267376 Si02
#       7
#     8   4   8   8   8   8   4
#     4  11  23  42  63  93 125 167 217 277 323 380
#     4  10  20  36  66  93 121 166 220 262 324 386
#     4  10  23  42  64  89 130 168 218 266 326 390
#     4  10  22  39  61  91 131 170 213 264 326 391
#     4   9  19  40  67  91 126 172 217 261 322 390
#     4  10  19  39  61  94 130 169 210 267 314 395
#     4  10  22  38  60  95 133 166 212 262 334 392
#
# _framework density 23.112323
#
# number of rings (size 3 to 8) (size 9 to 14) (size 15 to 20)
#    0.000    2.000    0.833    2.000    2.333    0.000 
#    6.000    0.000    0.000    0.000    0.000    0.000 
#    0.000    0.000    0.000    0.000    0.000    0.000 
#
# Total GULP energy -133760.455716 kJ/mol
# GULP energy per Si atom -5573.352322 kJ/mol
# Density = 2.305972 g / cm^3
# Si number density = 23.112323 Si / 1000 Ang^3
#
#
#
# Elastic Constant Matrix: (Units=GPa)
#
#
# Indices 1 2 3 4 5 6 
#
# 1 39.5444 -9.1429 22.1122 0.0000 -5.5129 0.0000
# 2 -9.1429 70.3944 15.1074 0.0000 -17.0769 0.0000
# 3 22.1122 15.1074 58.8258 0.0000 -21.3455 0.0000
# 4 0.0000 0.0000 0.0000 47.9048 0.0000 1.5681
# 5 -5.5129 -17.0769 -21.3455 0.0000 24.5238 0.0000
# 6 0.0000 0.0000 0.0000 1.5681 0.0000 33.5564
#
#
#
# Elastic Compliance Matrix: (Units=1/GPa)
#
#
# Indices 1 2 3 4 5 6 
#
# 1 0.035804 0.008009 -0.015451 0.000000 0.000177 0.000000
# 2 0.008009 0.018885 -0.003560 0.000000 0.011852 0.000000
# 3 -0.015451 -0.003560 0.031515 0.000000 0.021478 0.000000
# 4 0.000000 0.000000 0.000000 0.020907 0.000000 -0.000977
# 5 0.000177 0.011852 0.021478 0.000000 0.067765 0.000000
# 6 0.000000 0.000000 0.000000 -0.000977 0.000000 0.029846
#
#
# Mechanical properties :
#
#
# Convention : Reuss Voigt Hill
#
# Bulk Modulus (GPa) = 15.57601 24.99090 20.28346
# Shear Modulus (GPa) = 20.15101 30.57620 25.36361
#
# Velocity S-wave (km/s) = 2.95595 3.64117 3.31631
# Velocity P-wave (km/s) = 4.29000 5.33983 4.84344
#
# Compressibility (1/GPa) = 0.06420128
#
# Stress axis : x y z
#
# Youngs Moduli (GPa) = 27.92947 52.95152 31.73067
#
# Poissons Ratio (x) = -0.42411 0.49028
# Poissons Ratio (y) = -0.22370 0.11296
# Poissons Ratio (z) = 0.43155 0.18850
#
# Static dielectric constant tensor:
#      x y z
#    x 2.034350 0.000000 0.022080 
#    y 0.000000 1.963860 0.000000 
#    z 0.022080 0.000000 2.055600 
# 
# From -- ./inp_files/43853.got.cif
#   From: 2010.05.17/outbox.cif.g08.bks.cpg/sg15_22_cif.got.tgz:43853.got - 2010.06.03 18:47:42.
