data_PCOD9267547
_publ_section_title
;
Structure prediction by ZEFSAII (Michael W. Deem and Ramdas Pophale) SiO2 
 PCOD9267547
Probable space group: C 2/C
;
_chemical_formula_sum "Si O2"
_cell_formula_units_Z 52
_cell_length_a 17.389945
_cell_length_b 12.974116
_cell_length_c 15.083305
_cell_angle_alpha 90.000000
_cell_angle_beta 42.154838
_cell_angle_gamma 90.000000
_cell_volume 2283.932848
_symmetry_space_group_name_H-M "C 2/C"
_symmetry_group_IT_number 15
_symmetry_cell_setting 'monoclinic'
loop_
_space_group_symop_operation_xyz
x,y,z
-x,y,1/2-z
-x,-y,-z
x,-y,1/2+z
1/2+x,1/2+y,z
1/2-x,1/2+y,1/2-z
1/2-x,1/2-y,-z
1/2+x,1/2-y,1/2+z
loop_
_atom_site_type_symbol
_atom_site_label
_atom_site_fract_x
_atom_site_fract_y
_atom_site_fract_z
Si Si1 0.977206 0.343395 0.605495
Si Si2 0.280111 0.093282 0.665939
Si Si3 0.500000 0.009579 0.250000
Si Si4 0.322968 0.267631 0.103560
Si Si5 0.778689 0.415368 0.529143
Si Si6 0.941682 0.920868 0.892881
Si Si7 0.459364 0.628936 0.686251
O O1 0.085796 0.389561 0.462130
O O2 0.019390 0.230049 0.599061
O O3 0.952893 0.414958 0.711638
O O4 0.871489 0.315259 0.632678
O O5 0.249788 0.140642 0.788350
O O6 0.176359 0.150899 0.701844
O O7 0.261773 0.983833 0.632644
O O8 0.401527 0.942005 0.381019
O O9 0.265503 0.200954 0.075657
O O10 0.431374 0.326883 0.968879
O O11 0.686043 0.445402 0.533829
O O12 0.000000 0.890911 0.750000
O O13 0.003318 0.018988 0.885353
O O14 0.500000 0.614600 0.750000
#
# Coordination Sequence:
#
# PCOD9267547 Si02
#       7
#     8   8   4   8   8   8   8
#     4  10  23  41  66  99 137 173 224 275 339 400
#     4  10  23  41  63  98 133 172 222 278 334 398
#     4  10  24  42  70  96 136 184 226 274 334 406
#     4  11  27  41  66 102 134 179 222 280 345 397
#     4  11  24  45  68  98 135 180 230 276 335 404
#     4  11  24  43  69  96 132 174 232 277 332 404
#     4  10  19  39  65  96 124 166 221 271 327 384
#
# _framework density 22.767745000000001
#
# number of rings (size 3 to 8) (size 9 to 14) (size 15 to 20)
#    0.000    1.538    3.846    0.462    3.231   11.692 
#    0.000    0.000    0.000    0.000    0.000    0.000 
#    0.000    0.000    0.000    0.000    0.000    0.000 
#
# Total GULP energy -144749.096428 kJ/mol
# GULP energy per Si atom -5567.272940 kJ/mol
# Density = 2.271592 g / cm^3
# Si number density = 22.767745 Si / 1000 Ang^3
#
#
#
# Elastic Constant Matrix: (Units=GPa)
#
#
# Indices 1 2 3 4 5 6 
#
# 1 55.7252 23.8859 26.0075 0.0000 7.4525 0.0000
# 2 23.8859 31.6101 22.7482 0.0000 14.5647 0.0000
# 3 26.0075 22.7482 82.0375 0.0000 13.1041 0.0000
# 4 0.0000 0.0000 0.0000 14.0213 0.0000 6.5902
# 5 7.4525 14.5647 13.1041 0.0000 30.1973 0.0000
# 6 0.0000 0.0000 0.0000 6.5902 0.0000 2.9628
#
#
#
# Elastic Compliance Matrix: (Units=1/GPa)
#
#
# Indices 1 2 3 4 5 6 
#
# 1 0.027902 -0.020401 -0.003933 0.000000 0.004660 0.000000
# 2 -0.020401 0.062421 -0.007346 0.000000 -0.021884 0.000000
# 3 -0.003933 -0.007346 0.015851 0.000000 -0.002365 0.000000
# 4 0.000000 0.000000 0.000000 -1.568609 0.000000 3.489086
# 5 0.004660 -0.021884 -0.002365 0.000000 0.043547 0.000000
# 6 0.000000 0.000000 0.000000 3.489086 0.000000 -7.423319
#
#
# Mechanical properties :
#
#
# Convention : Reuss Voigt Hill
#
# Bulk Modulus (GPa) = 23.35627 34.96177 29.15902
# Shear Modulus (GPa) = -0.57048 15.88502 7.65727
#
# Velocity S-wave (km/s) = -0.50111 2.64426 1.83590
# Velocity P-wave (km/s) = 3.15372 4.97112 4.16281
#
# Compressibility (1/GPa) = 0.04281506
#
# Stress axis : x y z
#
# Youngs Moduli (GPa) = 35.83957 16.02024 63.08751
#
# Poissons Ratio (x) = 0.32683 0.24812
# Poissons Ratio (y) = 0.73116 0.46342
# Poissons Ratio (z) = 0.14095 0.11768
#
# Static dielectric constant tensor:
#      x y z
#    x 1.889890 0.000000 0.015140 
#    y 0.000000 1.997230 0.000000 
#    z 0.015140 0.000000 1.864580 
# 
# From -- ./inp_files/162473.got.cif
#   From: 2010.05.17/outbox.cif.g08.bks.cpg/sg15_82_cif.got.tgz:162473.got - 2010.06.03 18:47:42.
