data_PCOD9267076
_publ_section_title
;
Structure prediction by ZEFSAII (Michael W. Deem and Ramdas Pophale) SiO2 
 PCOD9267076
Probable space group: C 2/C
;
_chemical_formula_sum "Si O2"
_cell_formula_units_Z 40
_cell_length_a 23.048738
_cell_length_b 12.112656
_cell_length_c 8.917166
_cell_angle_alpha 90.000000
_cell_angle_beta 45.518543
_cell_angle_gamma 90.000000
_cell_volume 1776.206752
_symmetry_space_group_name_H-M "C 2/C"
_symmetry_group_IT_number 15
_symmetry_cell_setting 'monoclinic'
loop_
_space_group_symop_operation_xyz
x,y,z
-x,y,1/2-z
-x,-y,-z
x,-y,1/2+z
1/2+x,1/2+y,z
1/2-x,1/2+y,1/2-z
1/2-x,1/2-y,-z
1/2+x,1/2-y,1/2+z
loop_
_atom_site_type_symbol
_atom_site_label
_atom_site_fract_x
_atom_site_fract_y
_atom_site_fract_z
Si Si1 0.936098 0.902312 0.128138
Si Si2 0.000000 0.215003 0.250000
Si Si3 0.500000 0.227813 0.250000
Si Si4 0.757174 0.121709 0.028422
Si Si5 0.379915 0.773168 0.201748
Si Si6 0.752006 0.407982 0.614664
O O1 0.849972 0.923206 0.358057
O O2 0.969406 0.807105 0.174378
O O3 0.933981 0.856097 0.963204
O O4 0.000000 0.000000 0.000000
O O5 0.944960 0.271721 0.221881
O O6 0.423557 0.175722 0.474912
O O7 0.727190 0.035859 0.958581
O O8 0.750000 0.250000 0.000000
O O9 0.724263 0.111188 0.255699
O O10 0.338110 0.652493 0.239345
O O11 0.306118 0.845339 0.394865
#
# Coordination Sequence:
#
# PCOD9267076 Si02
#       6
#     8   4   4   8   8   8
#     4  11  22  34  61  98 136 174 229 285 357 420
#     4  10  21  36  64  93 142 174 228 290 352 424
#     4  10  19  38  64  97 132 184 220 294 352 426
#     4  12  27  44  71 104 147 187 243 294 371 434
#     4  10  22  44  68 105 140 188 243 296 365 428
#     4  11  26  43  72 104 147 189 243 300 358 438
#
# _framework density 22.519901000000001
#
# number of rings (size 3 to 8) (size 9 to 14) (size 15 to 20)
#    0.000    1.200    2.000    4.200   11.200    0.000 
#    0.000    0.000    0.000   20.400    0.000    0.000 
#    0.000    0.000    0.000    0.000    0.000    0.000 
#
# Total GULP energy -111334.691137 kJ/mol
# GULP energy per Si atom -5566.734557 kJ/mol
# Density = 2.246864 g / cm^3
# Si number density = 22.519901 Si / 1000 Ang^3
#
#
#
# Elastic Constant Matrix: (Units=GPa)
#
#
# Indices 1 2 3 4 5 6 
#
# 1 45.1173 8.4171 13.6326 0.0000 13.0846 0.0000
# 2 8.4171 105.0110 32.0827 0.0000 22.6119 0.0000
# 3 13.6326 32.0827 183.3167 0.0000 11.2198 0.0000
# 4 0.0000 0.0000 0.0000 3.6526 0.0000 -2.8442
# 5 13.0846 22.6119 11.2198 0.0000 42.5845 0.0000
# 6 0.0000 0.0000 0.0000 -2.8442 0.0000 13.0493
#
#
#
# Elastic Compliance Matrix: (Units=1/GPa)
#
#
# Indices 1 2 3 4 5 6 
#
# 1 0.024678 0.000002 -0.001394 0.000000 -0.007216 0.000000
# 2 0.000002 0.011208 -0.001624 0.000000 -0.005524 0.000000
# 3 -0.001394 -0.001624 0.005858 0.000000 -0.000253 0.000000
# 4 0.000000 0.000000 0.000000 0.329736 0.000000 0.071868
# 5 -0.007216 -0.005524 -0.000253 0.000000 0.028700 0.000000
# 6 0.000000 0.000000 0.000000 0.071868 0.000000 0.092297
#
#
# Mechanical properties :
#
#
# Convention : Reuss Voigt Hill
#
# Bulk Modulus (GPa) = 28.00091 49.07886 38.53988
# Shear Modulus (GPa) = 9.79598 30.47813 20.13705
#
# Velocity S-wave (km/s) = 2.08791 3.68283 2.99354
# Velocity P-wave (km/s) = 4.27473 6.31864 5.39437
#
# Compressibility (1/GPa) = 0.03571312
#
# Stress axis : x y z
#
# Youngs Moduli (GPa) = 40.52172 89.22018 170.69690
#
# Poissons Ratio (x) = -0.00015 0.23792
# Poissons Ratio (y) = -0.00007 0.27714
# Poissons Ratio (z) = 0.05648 0.14486
#
# Static dielectric constant tensor:
#      x y z
#    x 1.959730 0.000000 -0.123050 
#    y 0.000000 1.905250 0.000000 
#    z -0.123050 0.000000 1.932320 
# 
# From -- ./inp_files/68961.got.cif
#   From: 2010.05.17/outbox.cif.g08.bks.cpg/sg15_35_cif.got.tgz:68961.got - 2010.06.03 18:47:42.
