data_PCOD9267102
_publ_section_title
;
Structure prediction by ZEFSAII (Michael W. Deem and Ramdas Pophale) SiO2 
 PCOD9267102
Probable space group: C 2/C
;
_chemical_formula_sum "Si O2"
_cell_formula_units_Z 56
_cell_length_a 32.644508
_cell_length_b 15.836060
_cell_length_c 5.826062
_cell_angle_alpha 90.000000
_cell_angle_beta 47.965696
_cell_angle_gamma 90.000000
_cell_volume 2237.028733
_symmetry_space_group_name_H-M "C 2/C"
_symmetry_group_IT_number 15
_symmetry_cell_setting 'monoclinic'
loop_
_space_group_symop_operation_xyz
x,y,z
-x,y,1/2-z
-x,-y,-z
x,-y,1/2+z
1/2+x,1/2+y,z
1/2-x,1/2+y,1/2-z
1/2-x,1/2-y,-z
1/2+x,1/2-y,1/2+z
loop_
_atom_site_type_symbol
_atom_site_label
_atom_site_fract_x
_atom_site_fract_y
_atom_site_fract_z
Si Si1 0.660643 0.568291 0.955670
Si Si2 0.632324 0.701259 0.440759
Si Si3 0.054299 0.285961 0.400813
Si Si4 0.058307 0.113629 0.101243
Si Si5 0.936260 0.530841 0.764569
Si Si6 0.225045 0.530001 0.427958
Si Si7 0.773972 0.806568 0.607551
O O1 0.652673 0.622803 0.212572
O O2 0.600520 0.549621 0.071834
O O3 0.711122 0.505148 0.804378
O O4 0.683559 0.634153 0.686577
O O5 0.604140 0.770306 0.387851
O O6 0.686006 0.737735 0.364177
O O7 0.587429 0.659459 0.776929
O O8 0.047087 0.195322 0.305863
O O9 0.065528 0.367321 0.202360
O O10 0.000000 0.305759 0.750000
O O11 0.000000 0.074765 0.250000
O O12 0.913902 0.508681 0.589123
O O13 0.000000 0.500000 0.500000
O O14 0.202596 0.503350 0.763980
O O15 0.230391 0.630094 0.381571
O O16 0.750000 0.750000 0.500000
#
# Coordination Sequence:
#
# PCOD9267102 Si02
#       7
#     8   8   8   8   8   8   8
#     4   9  20  36  57  93 122 166 207 253 307 381
#     4  10  20  36  54  87 124 156 211 261 309 373
#     4  11  20  31  54  81 114 163 204 264 316 363
#     4  10  20  31  56  85 122 162 213 263 311 363
#     4  10  21  32  49  76 108 151 213 255 303 382
#     4  10  19  38  65  91 123 162 205 250 308 378
#     4  10  21  38  64  95 121 157 207 265 313 375
#
# _framework density 25.033203
#
# number of rings (size 3 to 8) (size 9 to 14) (size 15 to 20)
#    0.000    2.000    4.286    0.000    4.000    0.571 
#    0.000    0.000    0.000   12.000    0.000    0.000 
#    0.000    0.000    0.000    0.000    0.000    0.000 
#
# Total GULP energy -156481.874299 kJ/mol
# GULP energy per Si atom -5588.638368 kJ/mol
# Density = 2.497623 g / cm^3
# Si number density = 25.033203 Si / 1000 Ang^3
#
#
#
# Elastic Constant Matrix: (Units=GPa)
#
#
# Indices 1 2 3 4 5 6 
#
# 1 126.0687 32.8514 30.0700 0.0000 28.5781 0.0000
# 2 32.8514 70.3079 11.1874 0.0000 0.2492 0.0000
# 3 30.0700 11.1874 112.8569 0.0000 19.3107 0.0000
# 4 0.0000 0.0000 0.0000 26.5549 0.0000 16.9992
# 5 28.5781 0.2492 19.3107 0.0000 30.0669 0.0000
# 6 0.0000 0.0000 0.0000 16.9992 0.0000 40.9625
#
#
#
# Elastic Compliance Matrix: (Units=1/GPa)
#
#
# Indices 1 2 3 4 5 6 
#
# 1 0.012000 -0.005441 -0.000802 0.000000 -0.010845 0.000000
# 2 -0.005441 0.016940 -0.001225 0.000000 0.005818 0.000000
# 3 -0.000802 -0.001225 0.010183 0.000000 -0.005767 0.000000
# 4 0.000000 0.000000 0.000000 0.051281 0.000000 -0.021281
# 5 -0.010845 0.005818 -0.005767 0.000000 0.047223 0.000000
# 6 0.000000 0.000000 0.000000 -0.021281 0.000000 0.033244
#
#
# Mechanical properties :
#
#
# Convention : Reuss Voigt Hill
#
# Bulk Modulus (GPa) = 41.34592 50.82788 46.08690
# Shear Modulus (GPa) = 25.79060 35.19184 30.49122
#
# Velocity S-wave (km/s) = 3.21324 3.75348 3.49382
# Velocity P-wave (km/s) = 5.50626 6.25564 5.89287
#
# Compressibility (1/GPa) = 0.02418619
#
# Stress axis : x y z
#
# Youngs Moduli (GPa) = 83.33477 59.03298 98.20493
#
# Poissons Ratio (x) = 0.32119 0.07878
# Poissons Ratio (y) = 0.45341 0.12030
# Poissons Ratio (z) = 0.06685 0.07232
#
# Static dielectric constant tensor:
#      x y z
#    x 2.587740 0.000000 0.046220 
#    y 0.000000 2.123610 0.000000 
#    z 0.046220 0.000000 2.010210 
# 
# From -- ./inp_files/18422.got.cif
#   From: 2010.05.17/outbox.cif.g08.bks.cpg/sg15_10_cif.got.tgz:18422.got - 2010.06.03 18:47:42.
