data_PCOD9267036
_publ_section_title
;
Structure prediction by ZEFSAII (Michael W. Deem and Ramdas Pophale) SiO2 
 PCOD9267036
Probable space group: C 2/C
;
_chemical_formula_sum "Si O2"
_cell_formula_units_Z 52
_cell_length_a 33.457511
_cell_length_b 13.812766
_cell_length_c 19.464085
_cell_angle_alpha 90.000000
_cell_angle_beta 18.214772
_cell_angle_gamma 90.000000
_cell_volume 2811.701594
_symmetry_space_group_name_H-M "C 2/C"
_symmetry_group_IT_number 15
_symmetry_cell_setting 'monoclinic'
loop_
_space_group_symop_operation_xyz
x,y,z
-x,y,1/2-z
-x,-y,-z
x,-y,1/2+z
1/2+x,1/2+y,z
1/2-x,1/2+y,1/2-z
1/2-x,1/2-y,-z
1/2+x,1/2-y,1/2+z
loop_
_atom_site_type_symbol
_atom_site_label
_atom_site_fract_x
_atom_site_fract_y
_atom_site_fract_z
Si Si1 0.351472 0.495089 0.964657
Si Si2 0.285998 0.282870 0.018253
Si Si3 0.117782 0.776447 0.909174
Si Si4 0.218693 0.461196 0.824961
Si Si5 0.000000 0.345086 0.250000
Si Si6 0.830581 0.196888 0.926004
Si Si7 0.349891 0.843975 0.013110
O O1 0.500000 0.501060 0.750000
O O2 0.327464 0.394151 0.964150
O O3 0.320222 0.585334 0.965446
O O4 0.258705 0.507293 0.182712
O O5 0.398274 0.219126 0.872315
O O6 0.250000 0.250000 0.000000
O O7 0.156581 0.262963 0.272370
O O8 0.182055 0.879843 0.815112
O O9 0.169704 0.699943 0.879665
O O10 0.972850 0.788739 0.166138
O O11 0.081051 0.411054 0.064146
O O12 0.221119 0.554264 0.870596
O O13 0.806646 0.260680 0.032705
O O14 0.750000 0.250000 0.000000
O O15 0.500000 0.860124 0.750000
#
# Coordination Sequence:
#
# PCOD9267036 Si02
#       7
#     8   8   8   8   4   8   8
#     4  12  22  44  70  96 127 183 226 264 337 400
#     4  11  25  44  67  99 139 167 226 283 337 404
#     4  10  21  41  63  91 129 174 220 272 323 396
#     4  11  20  38  69  93 124 175 228 263 327 406
#     4  10  24  42  66  98 132 186 218 270 346 394
#     4  11  24  41  62  98 133 168 224 275 328 394
#     4  10  19  38  64  89 124 170 219 264 321 400
#
# _framework density 18.494139000000001
#
# number of rings (size 3 to 8) (size 9 to 14) (size 15 to 20)
#    0.000    1.231    6.154    0.462    0.000    3.692 
#    2.769    3.077    0.000    0.000    0.000    0.000 
#    0.000    0.000    0.000    0.000    0.000    0.000 
#
# Total GULP energy -144869.641813 kJ/mol
# GULP energy per Si atom -5571.909300 kJ/mol
# Density = 1.845205 g / cm^3
# Si number density = 18.494139 Si / 1000 Ang^3
#
#
#
# Elastic Constant Matrix: (Units=GPa)
#
#
# Indices 1 2 3 4 5 6 
#
# 1 106.8716 51.1002 41.2364 0.0000 25.8037 0.0000
# 2 51.1002 161.3375 49.9929 0.0000 4.8433 0.0000
# 3 41.2364 49.9929 56.6300 0.0000 19.6668 0.0000
# 4 0.0000 0.0000 0.0000 -18.3190 0.0000 -9.7962
# 5 25.8037 4.8433 19.6668 0.0000 27.4780 0.0000
# 6 0.0000 0.0000 0.0000 -9.7962 0.0000 20.9167
#
#
#
# Elastic Compliance Matrix: (Units=1/GPa)
#
#
# Indices 1 2 3 4 5 6 
#
# 1 0.015111 -0.002986 -0.004820 0.000000 -0.010214 0.000000
# 2 -0.002986 0.009713 -0.009022 0.000000 0.007549 0.000000
# 3 -0.004820 -0.009022 0.035943 0.000000 -0.019609 0.000000
# 4 0.000000 0.000000 0.000000 -0.043655 0.000000 -0.020445
# 5 -0.010214 0.007549 -0.019609 0.000000 0.058688 0.000000
# 6 0.000000 0.000000 0.000000 -0.020445 0.000000 0.038233
#
#
# Mechanical properties :
#
#
# Convention : Reuss Voigt Hill
#
# Bulk Modulus (GPa) = 36.88645 67.72203 52.30424
# Shear Modulus (GPa) = 31.90283 18.18242 25.04262
#
# Velocity S-wave (km/s) = 4.15785 3.13892 3.68378
# Velocity P-wave (km/s) = 6.56037 7.05937 6.81444
#
# Compressibility (1/GPa) = 0.02711022
#
# Stress axis : x y z
#
# Youngs Moduli (GPa) = 66.17893 102.95618 27.82178
#
# Poissons Ratio (x) = 0.30740 0.13411
# Poissons Ratio (y) = 0.19759 0.25101
# Poissons Ratio (z) = 0.31900 0.92889
#
# Static dielectric constant tensor:
#      x y z
#    x 1.618560 0.000000 -0.018970 
#    y 0.000000 1.653480 0.000000 
#    z -0.018970 0.000000 1.638860 
# 
# From -- ./inp_files/225449.got.cif
#   From: 2010.05.17/outbox.cif.g08.bks.cpg/sg15_113_cif.got.tgz:225449.got - 2010.06.03 18:47:42.
