data_PCOD9267514
_publ_section_title
;
Structure prediction by ZEFSAII (Michael W. Deem and Ramdas Pophale) SiO2 
 PCOD9267514
Probable space group: C 2/C
;
_chemical_formula_sum "Si O2"
_cell_formula_units_Z 48
_cell_length_a 26.086064
_cell_length_b 5.190090
_cell_length_c 17.874324
_cell_angle_alpha 90.000000
_cell_angle_beta 61.667332
_cell_angle_gamma 90.000000
_cell_volume 2130.089444
_symmetry_space_group_name_H-M "C 2/C"
_symmetry_group_IT_number 15
_symmetry_cell_setting 'monoclinic'
loop_
_space_group_symop_operation_xyz
x,y,z
-x,y,1/2-z
-x,-y,-z
x,-y,1/2+z
1/2+x,1/2+y,z
1/2-x,1/2+y,1/2-z
1/2-x,1/2-y,-z
1/2+x,1/2-y,1/2+z
loop_
_atom_site_type_symbol
_atom_site_label
_atom_site_fract_x
_atom_site_fract_y
_atom_site_fract_z
Si Si1 0.610219 0.897389 0.015411
Si Si2 0.687378 0.872109 0.737812
Si Si3 0.111798 0.271845 0.376989
Si Si4 0.439094 0.609774 0.877484
Si Si5 0.202992 0.899658 0.382264
Si Si6 0.567106 0.578116 0.790290
O O1 0.574844 0.646462 0.065654
O O2 0.600789 0.142834 0.075826
O O3 0.677740 0.806242 0.958411
O O4 0.592082 0.997323 0.944589
O O5 0.712451 0.740024 0.795578
O O6 0.629077 0.719326 0.756229
O O7 0.659755 0.137612 0.784387
O O8 0.739119 0.933751 0.644669
O O9 0.147746 0.082464 0.405434
O O10 0.065522 0.134779 0.356765
O O11 0.504907 0.716343 0.843426
O O12 0.433212 0.507912 0.796694
#
# Coordination Sequence:
#
# PCOD9267514 Si02
#       6
#     8   8   8   8   8   8
#     4  11  24  43  69  97 139 179 220 284 352 385
#     4  10  20  37  67 101 133 168 232 278 334 404
#     4  10  21  41  67 105 126 175 228 284 333 399
#     4  11  26  47  66  94 143 186 223 279 333 409
#     4  10  19  39  65 101 134 169 219 289 342 389
#     4  10  26  42  69  98 133 186 236 270 333 406
#
# _framework density 22.534265999999999
#
# number of rings (size 3 to 8) (size 9 to 14) (size 15 to 20)
#    0.000    1.667    3.333    0.000    4.667    2.667 
#    0.000    1.667    0.000    0.000    0.000    0.000 
#    0.000    0.000    0.000    0.000    0.000    0.000 
#
# Total GULP energy -133681.703139 kJ/mol
# GULP energy per Si atom -5570.070964 kJ/mol
# Density = 2.248298 g / cm^3
# Si number density = 22.534266 Si / 1000 Ang^3
#
#
#
# Elastic Constant Matrix: (Units=GPa)
#
#
# Indices 1 2 3 4 5 6 
#
# 1 123.3543 41.5515 60.9400 0.0010 -30.4493 -0.0512
# 2 41.5515 109.9471 55.5387 0.0519 -20.0934 0.0120
# 3 60.9400 55.5387 114.8604 -0.0119 -25.5119 -0.0215
# 4 0.0010 0.0519 -0.0119 15.0220 0.0045 -24.3796
# 5 -30.4493 -20.0934 -25.5119 0.0045 19.2493 0.0151
# 6 -0.0512 0.0120 -0.0215 -24.3796 0.0151 0.4385
#
#
#
# Elastic Compliance Matrix: (Units=1/GPa)
#
#
# Indices 1 2 3 4 5 6 
#
# 1 0.014309 -0.000441 -0.003477 -0.000016 0.017566 -0.000006
# 2 -0.000441 0.012726 -0.004427 0.000016 0.006719 0.000040
# 3 -0.003477 -0.004427 0.014800 -0.000002 0.009494 -0.000016
# 4 -0.000016 0.000016 -0.000002 -0.000746 0.000020 -0.041478
# 5 0.017566 0.006719 0.009494 0.000020 0.099334 0.000041
# 6 -0.000006 0.000040 -0.000016 -0.041478 0.000041 -0.025557
#
#
# Mechanical properties :
#
#
# Convention : Reuss Voigt Hill
#
# Bulk Modulus (GPa) = 39.76853 73.80247 56.78550
# Shear Modulus (GPa) = 35.73010 19.61741 27.67375
#
# Velocity S-wave (km/s) = 3.98627 2.95372 3.50819
# Velocity P-wave (km/s) = 6.23486 6.66746 6.45478
#
# Compressibility (1/GPa) = 0.02514551
#
# Stress axis : x y z
#
# Youngs Moduli (GPa) = 69.88582 78.57785 67.56595
#
# Poissons Ratio (x) = 0.03466 0.23492
# Poissons Ratio (y) = 0.03083 0.29912
# Poissons Ratio (z) = 0.24298 0.34787
#
# Static dielectric constant tensor:
#      x y z
#    x 1.874100 -0.000050 -0.019480 
#    y -0.000050 1.944510 0.000010 
#    z -0.019480 0.000010 1.847660 
# 
# From -- ./inp_files/220833.got.cif
#   From: 2010.05.17/outbox.cif.g08.bks.cpg/sg15_111_cif.got.tgz:220833.got - 2010.06.03 18:47:42.
