data_PCOD9267272
_publ_section_title
;
Structure prediction by ZEFSAII (Michael W. Deem and Ramdas Pophale) SiO2 
 PCOD9267272
Probable space group: C 2/C
;
_chemical_formula_sum "Si O2"
_cell_formula_units_Z 64
_cell_length_a 24.846487
_cell_length_b 13.416798
_cell_length_c 14.753319
_cell_angle_alpha 90.000000
_cell_angle_beta 42.538445
_cell_angle_gamma 90.000000
_cell_volume 3325.100341
_symmetry_space_group_name_H-M "C 2/C"
_symmetry_group_IT_number 15
_symmetry_cell_setting 'monoclinic'
loop_
_space_group_symop_operation_xyz
x,y,z
-x,y,1/2-z
-x,-y,-z
x,-y,1/2+z
1/2+x,1/2+y,z
1/2-x,1/2+y,1/2-z
1/2-x,1/2-y,-z
1/2+x,1/2-y,1/2+z
loop_
_atom_site_type_symbol
_atom_site_label
_atom_site_fract_x
_atom_site_fract_y
_atom_site_fract_z
Si Si1 0.356037 0.414950 0.008912
Si Si2 0.664588 0.648990 0.478618
Si Si3 0.912981 0.330061 0.840497
Si Si4 0.322199 0.384886 0.840951
Si Si5 0.503221 0.390910 0.950697
Si Si6 0.112202 0.743223 0.320890
Si Si7 0.739875 0.607069 0.575873
Si Si8 0.767973 0.263608 0.689970
O O1 0.353201 0.534421 0.022414
O O2 0.289099 0.352773 0.147057
O O3 0.340716 0.381775 0.924937
O O4 0.442716 0.387902 0.940525
O O5 0.594788 0.717966 0.606979
O O6 0.724889 0.637345 0.489147
O O7 0.701673 0.703765 0.345680
O O8 0.903607 0.326644 0.743909
O O9 0.833435 0.381551 0.977728
O O10 0.000000 0.372161 0.750000
O O11 0.406908 0.370504 0.687806
O O12 0.259533 0.311488 0.870755
O O13 0.289943 0.496695 0.867322
O O14 0.500000 0.500000 0.000000
O O15 0.465849 0.308211 0.062834
O O16 0.150161 0.696357 0.364630
O O17 0.181324 0.819436 0.202090
#
# Coordination Sequence:
#
# PCOD9267272 Si02
#       8
#     8   8   8   8   8   8   8   8
#     4  10  24  38  55  90 126 156 197 254 304 365
#     4  10  20  35  59  85 115 161 193 245 307 367
#     4  11  22  34  60  88 125 151 194 249 315 355
#     4  11  23  37  62  84 122 170 195 242 307 372
#     4  11  21  34  58  92 125 150 196 249 304 358
#     4  10  20  36  54  87 123 155 194 256 296 357
#     4  10  19  39  56  85 124 154 199 241 306 365
#     4  11  21  37  60  82 118 156 213 238 296 366
#
# _framework density 19.247539
#
# number of rings (size 3 to 8) (size 9 to 14) (size 15 to 20)
#    0.000    1.500    3.750    2.250    5.250    0.000 
#    0.000    0.000    0.000    9.750    0.000    0.000 
#    0.000    0.000    0.000    0.000    0.000    0.000 
#
# Total GULP energy -178360.139063 kJ/mol
# GULP energy per Si atom -5573.754346 kJ/mol
# Density = 1.920373 g / cm^3
# Si number density = 19.247539 Si / 1000 Ang^3
#
#
#
# Elastic Constant Matrix: (Units=GPa)
#
#
# Indices 1 2 3 4 5 6 
#
# 1 103.6159 24.4989 30.0029 0.0000 -9.0745 0.0000
# 2 24.4989 43.2811 22.4619 0.0000 -9.5974 0.0000
# 3 30.0029 22.4619 94.4032 0.0000 -21.0477 0.0000
# 4 0.0000 0.0000 0.0000 24.4062 0.0000 1.7082
# 5 -9.0745 -9.5974 -21.0477 0.0000 31.5463 0.0000
# 6 0.0000 0.0000 0.0000 1.7082 0.0000 27.6364
#
#
#
# Elastic Compliance Matrix: (Units=1/GPa)
#
#
# Indices 1 2 3 4 5 6 
#
# 1 0.011610 -0.005298 -0.002401 0.000000 0.000126 0.000000
# 2 -0.005298 0.029334 -0.004283 0.000000 0.004543 0.000000
# 3 -0.002401 -0.004283 0.014015 0.000000 0.007357 0.000000
# 4 0.000000 0.000000 0.000000 0.041151 0.000000 -0.002544
# 5 0.000126 0.004543 0.007357 0.000000 0.038026 0.000000
# 6 0.000000 0.000000 0.000000 -0.002544 0.000000 0.036341
#
#
# Mechanical properties :
#
#
# Convention : Reuss Voigt Hill
#
# Bulk Modulus (GPa) = 32.26313 43.91417 38.08865
# Shear Modulus (GPa) = 24.41724 27.67356 26.04540
#
# Velocity S-wave (km/s) = 3.56559 3.79591 3.68255
# Velocity P-wave (km/s) = 5.80946 6.48667 6.15738
#
# Compressibility (1/GPa) = 0.03099513
#
# Stress axis : x y z
#
# Youngs Moduli (GPa) = 86.13323 34.09070 71.34971
#
# Poissons Ratio (x) = 0.18060 0.17133
# Poissons Ratio (y) = 0.45630 0.30559
# Poissons Ratio (z) = 0.20683 0.14601
#
# Static dielectric constant tensor:
#      x y z
#    x 1.747160 0.000000 0.041670 
#    y 0.000000 1.678480 0.000000 
#    z 0.041670 0.000000 1.686660 
# 
# From -- ./inp_files/173661.got.cif
#   From: 2010.05.17/outbox.cif.g08.bks.cpg/sg15_87_cif.got.tgz:173661.got - 2010.06.03 18:47:42.
