data_PCOD9267495
_publ_section_title
;
Structure prediction by ZEFSAII (Michael W. Deem and Ramdas Pophale) SiO2 
 PCOD9267495
Probable space group: C 2/C
;
_chemical_formula_sum "Si O2"
_cell_formula_units_Z 52
_cell_length_a 11.332307
_cell_length_b 28.873545
_cell_length_c 9.755332
_cell_angle_alpha 90.000000
_cell_angle_beta 56.462680
_cell_angle_gamma 90.000000
_cell_volume 2660.600796
_symmetry_space_group_name_H-M "C 2/C"
_symmetry_group_IT_number 15
_symmetry_cell_setting 'monoclinic'
loop_
_space_group_symop_operation_xyz
x,y,z
-x,y,1/2-z
-x,-y,-z
x,-y,1/2+z
1/2+x,1/2+y,z
1/2-x,1/2+y,1/2-z
1/2-x,1/2-y,-z
1/2+x,1/2-y,1/2+z
loop_
_atom_site_type_symbol
_atom_site_label
_atom_site_fract_x
_atom_site_fract_y
_atom_site_fract_z
Si Si1 0.000000 0.212392 0.250000
Si Si2 0.634340 0.233793 0.444498
Si Si3 0.843948 0.373168 0.917961
Si Si4 0.803366 0.146013 0.265081
Si Si5 0.165888 0.041474 0.183996
Si Si6 0.194015 0.280644 0.409250
Si Si7 0.330546 0.022638 0.371087
O O1 0.882643 0.243645 0.394598
O O2 0.943116 0.176937 0.174726
O O3 0.690366 0.181005 0.404917
O O4 0.714052 0.264515 0.279445
O O5 0.469619 0.231454 0.506844
O O6 0.739251 0.362766 0.861486
O O7 0.827240 0.427842 0.953980
O O8 0.000000 0.365862 0.750000
O O9 0.808301 0.335522 0.055842
O O10 0.819329 0.097196 0.328852
O O11 0.239529 0.027804 0.285871
O O12 0.000000 0.030723 0.250000
O O13 0.258266 0.016143 0.009916
O O14 0.250000 0.250000 0.500000
O O15 0.500000 0.013175 0.250000
#
# Coordination Sequence:
#
# PCOD9267495 Si02
#       7
#     4   8   8   8   8   8   8
#     4  12  24  44  54  92 130 170 216 244 320 380
#     4  12  24  39  63  89 131 172 211 265 307 384
#     4  10  19  39  64  92 125 162 208 264 324 374
#     4  11  22  40  65  86 126 174 204 259 325 379
#     4  11  23  45  69  95 132 173 219 273 338 396
#     4  12  21  38  64  94 124 164 216 260 316 374
#     4  10  23  43  70  99 132 168 217 280 334 394
#
# _framework density 19.544457000000001
#
# number of rings (size 3 to 8) (size 9 to 14) (size 15 to 20)
#    0.000    0.923    5.385    1.846    0.000    0.000 
#    4.154    1.538    0.000    0.000    0.000    0.000 
#    0.000    0.000    0.000    0.000    0.000    0.000 
#
# Total GULP energy -144867.618913 kJ/mol
# GULP energy per Si atom -5571.831497 kJ/mol
# Density = 1.949997 g / cm^3
# Si number density = 19.544457 Si / 1000 Ang^3
#
#
#
# Elastic Constant Matrix: (Units=GPa)
#
#
# Indices 1 2 3 4 5 6 
#
# 1 87.0185 32.6442 36.2197 0.0000 -9.0994 0.0000
# 2 32.6442 132.5207 78.3830 0.0000 -8.0742 0.0000
# 3 36.2197 78.3830 115.9272 0.0000 -10.3923 0.0000
# 4 0.0000 0.0000 0.0000 -7.1863 0.0000 8.7796
# 5 -9.0994 -8.0742 -10.3923 0.0000 31.3085 0.0000
# 6 0.0000 0.0000 0.0000 8.7796 0.0000 29.0497
#
#
#
# Elastic Compliance Matrix: (Units=1/GPa)
#
#
# Indices 1 2 3 4 5 6 
#
# 1 0.013554 -0.001356 -0.003088 0.000000 0.002565 0.000000
# 2 -0.001356 0.012716 -0.008158 0.000000 0.000177 0.000000
# 3 -0.003088 -0.008158 0.015293 0.000000 0.002075 0.000000
# 4 0.000000 0.000000 0.000000 -0.101628 0.000000 0.030715
# 5 0.002565 0.000177 0.002075 0.000000 0.033420 0.000000
# 6 0.000000 0.000000 0.000000 0.030715 0.000000 0.025141
#
#
# Mechanical properties :
#
#
# Convention : Reuss Voigt Hill
#
# Bulk Modulus (GPa) = 61.13018 69.99559 65.56289
# Shear Modulus (GPa) = 171.50294 23.18234 97.34264
#
# Velocity S-wave (km/s) = 9.37767 3.44777 7.06498
# Velocity P-wave (km/s) = 12.19014 7.19310 10.00850
#
# Compressibility (1/GPa) = 0.01635853
#
# Stress axis : x y z
#
# Youngs Moduli (GPa) = 73.77895 78.63855 65.38874
#
# Poissons Ratio (x) = 0.10664 0.20192
# Poissons Ratio (y) = 0.10005 0.53347
# Poissons Ratio (z) = 0.22782 0.64157
#
# Static dielectric constant tensor:
#      x y z
#    x 1.945200 0.000000 0.043010 
#    y 0.000000 1.698660 0.000000 
#    z 0.043010 0.000000 1.720290 
# 
# From -- ./inp_files/35082.got.cif
#   From: 2010.05.17/outbox.cif.g08.bks.cpg/sg15_18_cif.got.tgz:35082.got - 2010.06.03 18:47:42.
