data_PCOD9267436
_publ_section_title
;
Structure prediction by ZEFSAII (Michael W. Deem and Ramdas Pophale) SiO2 
 PCOD9267436
Probable space group: C 2/C
;
_chemical_formula_sum "Si O2"
_cell_formula_units_Z 44
_cell_length_a 20.522668
_cell_length_b 11.001418
_cell_length_c 8.356767
_cell_angle_alpha 90.000000
_cell_angle_beta 111.292574
_cell_angle_gamma 90.000000
_cell_volume 1757.983227
_symmetry_space_group_name_H-M "C 2/C"
_symmetry_group_IT_number 15
_symmetry_cell_setting 'monoclinic'
loop_
_space_group_symop_operation_xyz
x,y,z
-x,y,1/2-z
-x,-y,-z
x,-y,1/2+z
1/2+x,1/2+y,z
1/2-x,1/2+y,1/2-z
1/2-x,1/2-y,-z
1/2+x,1/2-y,1/2+z
loop_
_atom_site_type_symbol
_atom_site_label
_atom_site_fract_x
_atom_site_fract_y
_atom_site_fract_z
Si Si1 0.000000 0.676201 0.250000
Si Si2 0.878234 0.145576 0.748009
Si Si3 0.331221 0.736918 0.378476
Si Si4 0.810986 0.327323 0.876412
Si Si5 0.452590 0.407659 0.851905
Si Si6 0.859650 0.544914 0.089215
O O1 0.050554 0.772375 0.201971
O O2 0.059341 0.582699 0.366063
O O3 0.829127 0.176147 0.553335
O O4 0.843198 0.193531 0.878600
O O5 0.895109 0.005599 0.746997
O O6 0.271781 0.687268 0.210232
O O7 0.409227 0.699921 0.393445
O O8 0.321773 0.877192 0.416149
O O9 0.840969 0.404946 0.048435
O O10 0.836682 0.400335 0.739334
O O11 0.500000 0.362935 0.750000
O O12 0.500000 0.500000 0.000000
#
# Coordination Sequence:
#
# PCOD9267436 Si02
#       6
#     4   8   8   8   8   8
#     4   8  16  36  64  82 120 154 204 256 294 364
#     4  10  19  39  63  89 119 165 205 246 315 371
#     4  10  22  38  65  88 129 162 204 258 304 379
#     4  10  23  38  65  90 125 169 203 251 313 374
#     4  12  22  39  64  92 120 163 209 258 312 359
#     4  10  21  41  61  92 124 163 212 248 314 371
#
# _framework density 25.028680000000001
#
# number of rings (size 3 to 8) (size 9 to 14) (size 15 to 20)
#    0.000    2.182    2.727    3.273    5.091    2.909 
#    3.273    0.909    2.000    0.000    0.000    0.000 
#    0.000    0.000    0.000    0.000    0.000    0.000 
#
# Total GULP energy -122830.523109 kJ/mol
# GULP energy per Si atom -5583.205596 kJ/mol
# Density = 2.497171 g / cm^3
# Si number density = 25.028680 Si / 1000 Ang^3
#
#
#
# Elastic Constant Matrix: (Units=GPa)
#
#
# Indices 1 2 3 4 5 6 
#
# 1 122.0967 15.1744 14.2199 0.0000 8.8415 0.0000
# 2 15.1744 59.7046 -0.0210 0.0000 -2.1275 0.0000
# 3 14.2199 -0.0210 33.0664 0.0000 1.7327 0.0000
# 4 0.0000 0.0000 0.0000 41.2105 0.0000 -3.6310
# 5 8.8415 -2.1275 1.7327 0.0000 38.9184 0.0000
# 6 0.0000 0.0000 0.0000 -3.6310 0.0000 25.9020
#
#
#
# Elastic Compliance Matrix: (Units=1/GPa)
#
#
# Indices 1 2 3 4 5 6 
#
# 1 0.009075 -0.002380 -0.003798 0.000000 -0.002023 0.000000
# 2 -0.002380 0.017406 0.000959 0.000000 0.001449 0.000000
# 3 -0.003798 0.000959 0.031903 0.000000 -0.000505 0.000000
# 4 0.000000 0.000000 0.000000 0.024569 0.000000 0.003444
# 5 -0.002023 0.001449 -0.000505 0.000000 0.026256 0.000000
# 6 0.000000 0.000000 0.000000 0.003444 0.000000 0.039090
#
#
# Mechanical properties :
#
#
# Convention : Reuss Voigt Hill
#
# Bulk Modulus (GPa) = 20.85739 30.40159 25.62949
# Shear Modulus (GPa) = 28.61742 33.57247 31.09494
#
# Velocity S-wave (km/s) = 3.38507 3.66643 3.52855
# Velocity P-wave (km/s) = 4.86104 5.48605 5.18297
#
# Compressibility (1/GPa) = 0.04794463
#
# Stress axis : x y z
#
# Youngs Moduli (GPa) = 110.19516 57.45151 31.34538
#
# Poissons Ratio (x) = 0.13673 0.11905
# Poissons Ratio (y) = 0.26225 -0.03005
# Poissons Ratio (z) = 0.41853 -0.05507
#
# Static dielectric constant tensor:
#      x y z
#    x 2.008500 0.000000 -0.005910 
#    y 0.000000 2.033560 0.000000 
#    z -0.005910 0.000000 2.065240 
# 
# From -- ./inp_files/54546.got.cif
#   From: 2010.05.17/outbox.cif.g08.bks.cpg/sg15_28_cif.got.tgz:54546.got - 2010.06.03 18:47:42.
