data_PCOD9267897
_publ_section_title
;
Structure prediction by ZEFSAII (Michael W. Deem and Ramdas Pophale) SiO2 
 PCOD9267897
Probable space group: C 2/C
;
_chemical_formula_sum "Si O2"
_cell_formula_units_Z 44
_cell_length_a 11.800823
_cell_length_b 8.659587
_cell_length_c 27.498559
_cell_angle_alpha 90.000000
_cell_angle_beta 36.914650
_cell_angle_gamma 90.000000
_cell_volume 1687.806225
_symmetry_space_group_name_H-M "C 2/C"
_symmetry_group_IT_number 15
_symmetry_cell_setting 'monoclinic'
loop_
_space_group_symop_operation_xyz
x,y,z
-x,y,1/2-z
-x,-y,-z
x,-y,1/2+z
1/2+x,1/2+y,z
1/2-x,1/2+y,1/2-z
1/2-x,1/2-y,-z
1/2+x,1/2-y,1/2+z
loop_
_atom_site_type_symbol
_atom_site_label
_atom_site_fract_x
_atom_site_fract_y
_atom_site_fract_z
Si Si1 0.929243 0.227886 0.112029
Si Si2 0.793294 0.708401 0.555256
Si Si3 0.279977 0.938134 0.436528
Si Si4 0.200119 0.737470 0.373495
Si Si5 0.000000 0.985146 0.250000
Si Si6 0.912827 0.067251 0.675738
O O1 0.801497 0.283509 0.111052
O O2 0.034114 0.366995 0.103268
O O3 0.817234 0.805476 0.174507
O O4 0.853545 0.100050 0.175848
O O5 0.638087 0.589297 0.590538
O O6 0.999188 0.679897 0.462838
O O7 0.730293 0.878717 0.560346
O O8 0.263831 0.876013 0.386984
O O9 0.097632 0.864500 0.525490
O O10 0.348817 0.602204 0.325246
O O11 0.101996 0.907166 0.261417
#
# Coordination Sequence:
#
# PCOD9267897 Si02
#       6
#     8   8   8   8   4   8
#     4  10  20  39  69 105 141 164 214 288 348 401
#     4  11  23  41  77 111 127 169 241 298 337 390
#     4  10  19  40  70 106 132 168 216 291 350 385
#     4  11  23  47  72  97 140 181 224 290 347 401
#     4  12  30  48  58 100 150 192 222 268 354 428
#     4  12  25  46  70 102 136 181 236 278 338 418
#
# _framework density 26.069344999999998
#
# number of rings (size 3 to 8) (size 9 to 14) (size 15 to 20)
#    0.000    1.091    5.455    1.636    0.000    3.636 
#    3.273    0.000    0.000    0.000    0.000    0.000 
#    0.000    0.000    0.000    0.000    0.000    0.000 
#
# Total GULP energy -123466.229716 kJ/mol
# GULP energy per Si atom -5612.101351 kJ/mol
# Density = 2.601001 g / cm^3
# Si number density = 26.069345 Si / 1000 Ang^3
#
#
#
# Elastic Constant Matrix: (Units=GPa)
#
#
# Indices 1 2 3 4 5 6 
#
# 1 143.2053 38.8404 22.6699 0.0000 38.1984 0.0000
# 2 38.8404 84.1767 33.9069 0.0000 -1.1706 -0.0001
# 3 22.6699 33.9069 66.8040 0.0000 37.2859 0.0000
# 4 0.0000 0.0000 0.0000 24.9105 0.0000 15.9885
# 5 38.1984 -1.1706 37.2859 0.0000 53.1881 0.0000
# 6 0.0000 -0.0001 0.0000 15.9885 0.0000 52.7177
#
#
#
# Elastic Compliance Matrix: (Units=1/GPa)
#
#
# Indices 1 2 3 4 5 6 
#
# 1 0.012326 -0.009769 0.009588 0.000000 -0.015789 0.000000
# 2 -0.009769 0.026093 -0.023269 0.000000 0.023902 0.000000
# 3 0.009588 -0.023269 0.045431 0.000000 -0.039246 0.000000
# 4 0.000000 0.000000 0.000000 0.049847 0.000000 -0.015118
# 5 -0.015789 0.023902 -0.039246 0.000000 0.058178 0.000000
# 6 0.000000 0.000000 0.000000 -0.015118 0.000000 0.023554
#
#
# Mechanical properties :
#
#
# Convention : Reuss Voigt Hill
#
# Bulk Modulus (GPa) = 27.06496 53.89117 40.47806
# Shear Modulus (GPa) = 18.20523 39.41452 28.80987
#
# Velocity S-wave (km/s) = 2.64548 3.89255 3.32795
# Velocity P-wave (km/s) = 4.44250 6.39685 5.50706
#
# Compressibility (1/GPa) = 0.03694814
#
# Stress axis : x y z
#
# Youngs Moduli (GPa) = 81.12800 38.32475 22.01154
#
# Poissons Ratio (x) = 0.37440 -0.21104
# Poissons Ratio (y) = 0.79254 0.51220
# Poissons Ratio (z) = -0.77783 0.89179
#
# Static dielectric constant tensor:
#      x y z
#    x 2.001340 0.000000 0.034640 
#    y 0.000000 1.946370 0.000000 
#    z 0.034640 0.000000 2.104510 
# 
# From -- ./inp_files/312602.got.cif
#   From: 2010.05.17/outbox.cif.g08.bks.cpg/sg15_157_cif.got.tgz:312602.got - 2010.06.03 18:47:42.
