data_PCOD9267473
_publ_section_title
;
Structure prediction by ZEFSAII (Michael W. Deem and Ramdas Pophale) SiO2 
 PCOD9267473
Probable space group: C 2/C
;
_chemical_formula_sum "Si O2"
_cell_formula_units_Z 44
_cell_length_a 26.824745
_cell_length_b 13.159905
_cell_length_c 14.953605
_cell_angle_alpha 90.000000
_cell_angle_beta 159.359553
_cell_angle_gamma 90.000000
_cell_volume 1860.785380
_symmetry_space_group_name_H-M "C 2/C"
_symmetry_group_IT_number 15
_symmetry_cell_setting 'monoclinic'
loop_
_space_group_symop_operation_xyz
x,y,z
-x,y,1/2-z
-x,-y,-z
x,-y,1/2+z
1/2+x,1/2+y,z
1/2-x,1/2+y,1/2-z
1/2-x,1/2-y,-z
1/2+x,1/2-y,1/2+z
loop_
_atom_site_type_symbol
_atom_site_label
_atom_site_fract_x
_atom_site_fract_y
_atom_site_fract_z
Si Si1 0.742653 0.464895 0.479997
Si Si2 0.755285 0.038696 0.216341
Si Si3 0.495184 0.325613 0.385279
Si Si4 0.500000 0.196620 0.750000
Si Si5 0.035561 0.408628 0.913887
Si Si6 0.115117 0.177261 0.285143
O O1 0.713885 0.477575 0.324124
O O2 0.663882 0.366981 0.387197
O O3 0.674730 0.565969 0.406441
O O4 0.911792 0.455994 0.766569
O O5 0.896980 0.096835 0.481148
O O6 0.637725 0.125268 0.994980
O O7 0.685286 0.964806 0.171877
O O8 0.527519 0.211518 0.411016
O O9 0.536452 0.329483 0.558950
O O10 0.480156 0.269150 0.801235
O O11 0.000000 0.428493 0.750000
O O12 0.250000 0.250000 0.500000
#
# Coordination Sequence:
#
# PCOD9267473 Si02
#       6
#     8   8   8   4   8   8
#     4  10  20  41  62  86 132 169 194 259 327 368
#     4  10  19  39  64  86 123 167 204 250 320 375
#     4  11  23  38  66  94 126 164 213 260 314 376
#     4  12  20  38  68  86 120 172 208 258 312 368
#     4  10  21  42  67  88 128 171 203 249 325 382
#     4  11  21  40  63  92 125 163 215 262 313 370
#
# _framework density 23.645928999999999
#
# number of rings (size 3 to 8) (size 9 to 14) (size 15 to 20)
#    0.000    1.455    6.364    2.727    0.000    4.364 
#    1.636    3.636    0.000    0.000    0.000    0.000 
#    0.000    0.000    0.000    0.000    0.000    0.000 
#
# Total GULP energy -123067.984005 kJ/mol
# GULP energy per Si atom -5593.999273 kJ/mol
# Density = 2.359211 g / cm^3
# Si number density = 23.645929 Si / 1000 Ang^3
#
#
#
# Elastic Constant Matrix: (Units=GPa)
#
#
# Indices 1 2 3 4 5 6 
#
# 1 78.1052 44.0464 41.6739 0.0000 18.7281 0.0000
# 2 44.0464 147.2405 26.1872 0.0000 31.5519 0.0000
# 3 41.6739 26.1872 58.6345 0.0000 22.5239 0.0000
# 4 0.0000 0.0000 0.0000 35.6805 0.0000 13.9205
# 5 18.7281 31.5519 22.5239 0.0000 34.5758 0.0000
# 6 0.0000 0.0000 0.0000 13.9205 0.0000 46.8591
#
#
#
# Elastic Compliance Matrix: (Units=1/GPa)
#
#
# Indices 1 2 3 4 5 6 
#
# 1 0.022916 -0.004512 -0.014786 0.000000 0.001337 0.000000
# 2 -0.004512 0.009383 0.001823 0.000000 -0.007306 0.000000
# 3 -0.014786 0.001823 0.032427 0.000000 -0.014778 0.000000
# 4 0.000000 0.000000 0.000000 0.031701 0.000000 -0.009417
# 5 0.001337 -0.007306 -0.014778 0.000000 0.044492 0.000000
# 6 0.000000 0.000000 0.000000 -0.009417 0.000000 0.024138
#
#
# Mechanical properties :
#
#
# Convention : Reuss Voigt Hill
#
# Bulk Modulus (GPa) = 33.58491 56.42167 45.00329
# Shear Modulus (GPa) = 23.81726 34.89460 29.35593
#
# Velocity S-wave (km/s) = 3.17716 3.84567 3.52729
# Velocity P-wave (km/s) = 5.26243 6.60543 5.97181
#
# Compressibility (1/GPa) = 0.02977528
#
# Stress axis : x y z
#
# Youngs Moduli (GPa) = 43.63681 106.57931 30.83888
#
# Poissons Ratio (x) = 0.48089 0.45598
# Poissons Ratio (y) = 0.19689 -0.05621
# Poissons Ratio (z) = 0.64521 -0.19427
#
# Static dielectric constant tensor:
#      x y z
#    x 1.905540 0.000000 0.003850 
#    y 0.000000 1.887480 0.000000 
#    z 0.003850 0.000000 1.922630 
# 
# From -- ./inp_files/142204.got.cif
#   From: 2010.05.17/outbox.cif.g08.bks.cpg/sg15_72_cif.got.tgz:142204.got - 2010.06.03 18:47:42.
