data_PCOD9267631
_publ_section_title
;
Structure prediction by ZEFSAII (Michael W. Deem and Ramdas Pophale) SiO2 
 PCOD9267631
Probable space group: C 2/C
;
_chemical_formula_sum "Si O2"
_cell_formula_units_Z 44
_cell_length_a 11.484928
_cell_length_b 10.797682
_cell_length_c 15.322130
_cell_angle_alpha 90.000000
_cell_angle_beta 94.360186
_cell_angle_gamma 90.000000
_cell_volume 1894.607294
_symmetry_space_group_name_H-M "C 2/C"
_symmetry_group_IT_number 15
_symmetry_cell_setting 'monoclinic'
loop_
_space_group_symop_operation_xyz
x,y,z
-x,y,1/2-z
-x,-y,-z
x,-y,1/2+z
1/2+x,1/2+y,z
1/2-x,1/2+y,1/2-z
1/2-x,1/2-y,-z
1/2+x,1/2-y,1/2+z
loop_
_atom_site_type_symbol
_atom_site_label
_atom_site_fract_x
_atom_site_fract_y
_atom_site_fract_z
Si Si1 0.695634 0.825999 0.180104
Si Si2 0.000000 0.015017 0.750000
Si Si3 0.385523 0.613382 0.568469
Si Si4 0.685456 0.003780 0.960082
Si Si5 0.249850 0.921480 0.730167
Si Si6 0.507737 0.810277 0.043181
O O1 0.777695 0.804936 0.099766
O O2 0.755658 0.726333 0.248627
O O3 0.564344 0.800268 0.142399
O O4 0.701242 0.970916 0.204482
O O5 0.112038 0.941794 0.725250
O O6 0.044035 0.084767 0.839415
O O7 0.310269 0.506841 0.515947
O O8 0.467728 0.683766 0.505964
O O9 0.622227 0.136645 0.961577
O O10 0.702412 0.960527 0.861572
O O11 0.590747 0.910992 0.998640
#
# Coordination Sequence:
#
# PCOD9267631 Si02
#       6
#     8   4   8   8   8   8
#     4  10  21  41  69  93 141 177 229 289 344 420
#     4  10  26  40  64  90 134 188 208 280 382 404
#     4  10  19  45  64  93 140 180 227 288 359 414
#     4  10  20  37  68 100 130 179 236 283 343 425
#     4  11  22  43  63  99 134 182 225 287 349 418
#     4  10  19  39  70 100 128 189 226 289 360 406
#
# _framework density 23.223808999999999
#
# number of rings (size 3 to 8) (size 9 to 14) (size 15 to 20)
#    0.000    1.818    3.636    1.091    0.000    2.909 
#   26.182    0.909    0.000    0.000    0.000    0.000 
#    0.000    0.000    0.000    0.000    0.000    0.000 
#
# Total GULP energy -122578.748589 kJ/mol
# GULP energy per Si atom -5571.761300 kJ/mol
# Density = 2.317095 g / cm^3
# Si number density = 23.223809 Si / 1000 Ang^3
#
#
#
# Elastic Constant Matrix: (Units=GPa)
#
#
# Indices 1 2 3 4 5 6 
#
# 1 72.0643 34.4470 9.9594 0.0000 7.4526 0.0000
# 2 34.4470 90.5957 25.3564 0.0000 9.5130 0.0000
# 3 9.9594 25.3564 64.2711 0.0000 8.6506 0.0000
# 4 0.0000 0.0000 0.0000 10.5024 0.0000 13.0558
# 5 7.4526 9.5130 8.6506 0.0000 24.2890 0.0000
# 6 0.0000 0.0000 0.0000 13.0558 0.0000 6.7382
#
#
#
# Elastic Compliance Matrix: (Units=1/GPa)
#
#
# Indices 1 2 3 4 5 6 
#
# 1 0.017145 -0.006274 0.000206 0.000000 -0.002876 0.000000
# 2 -0.006274 0.014957 -0.004621 0.000000 -0.002287 0.000000
# 3 0.000206 -0.004621 0.017977 0.000000 -0.004656 0.000000
# 4 0.000000 0.000000 0.000000 -0.067593 0.000000 0.130968
# 5 -0.002876 -0.002287 -0.004656 0.000000 0.044607 0.000000
# 6 0.000000 0.000000 0.000000 0.130968 0.000000 -0.105354
#
#
# Mechanical properties :
#
#
# Convention : Reuss Voigt Hill
#
# Bulk Modulus (GPa) = 34.84330 40.71741 37.78035
# Shear Modulus (GPa) = -105.67450 18.78380 -43.44535
#
# Velocity S-wave (km/s) = -6.75288 2.84706 -4.32988
# Velocity P-wave (km/s) = 6.76506 5.32713 2.94854
#
# Compressibility (1/GPa) = 0.02869992
#
# Stress axis : x y z
#
# Youngs Moduli (GPa) = 58.32689 66.85712 55.62699
#
# Poissons Ratio (x) = 0.41949 -0.01145
# Poissons Ratio (y) = 0.36597 0.25704
# Poissons Ratio (z) = -0.01201 0.30894
#
# Static dielectric constant tensor:
#      x y z
#    x 1.945870 0.000000 0.028010 
#    y 0.000000 1.959110 0.000000 
#    z 0.028010 0.000000 1.922120 
# 
# From -- ./inp_files/142301.got.cif
#   From: 2010.05.17/outbox.cif.g08.bks.cpg/sg15_72_cif.got.tgz:142301.got - 2010.06.03 18:47:42.
