data_PCOD9267595
_publ_section_title
;
Structure prediction by ZEFSAII (Michael W. Deem and Ramdas Pophale) SiO2 
 PCOD9267595
Probable space group: C 2/C
;
_chemical_formula_sum "Si O2"
_cell_formula_units_Z 44
_cell_length_a 16.420798
_cell_length_b 7.978183
_cell_length_c 15.234035
_cell_angle_alpha 90.000000
_cell_angle_beta 130.898416
_cell_angle_gamma 90.000000
_cell_volume 1508.555221
_symmetry_space_group_name_H-M "C 2/C"
_symmetry_group_IT_number 15
_symmetry_cell_setting 'monoclinic'
loop_
_space_group_symop_operation_xyz
x,y,z
-x,y,1/2-z
-x,-y,-z
x,-y,1/2+z
1/2+x,1/2+y,z
1/2-x,1/2+y,1/2-z
1/2-x,1/2-y,-z
1/2+x,1/2-y,1/2+z
loop_
_atom_site_type_symbol
_atom_site_label
_atom_site_fract_x
_atom_site_fract_y
_atom_site_fract_z
Si Si1 0.000000 0.800575 0.250000
Si Si2 0.667497 0.120838 0.055408
Si Si3 0.939977 0.858128 0.399868
Si Si4 0.548918 0.226459 0.699891
Si Si5 0.190849 0.545912 0.398552
Si Si6 0.147086 0.733279 0.599979
O O1 0.947563 0.883320 0.300848
O O2 0.898856 0.687633 0.145226
O O3 0.554566 0.153206 0.923739
O O4 0.734489 0.058329 0.014571
O O5 0.661218 0.281467 0.117748
O O6 0.684642 0.958142 0.127796
O O7 0.028988 0.711518 0.474343
O O8 0.000000 0.000000 0.500000
O O9 0.500000 0.318354 0.750000
O O10 0.625254 0.307687 0.681042
O O11 0.623100 0.082053 0.792160
O O12 0.281447 0.643900 0.407968
#
# Coordination Sequence:
#
# PCOD9267595 Si02
#       6
#     4   8   8   8   8   8
#     4  12  22  42  68  92 140 180 234 290 366 420
#     4  10  19  39  67  96 129 178 233 281 349 433
#     4  11  25  44  64  97 141 186 228 294 363 423
#     4   9  18  35  60  95 132 175 226 275 337 418
#     4  11  20  36  69 104 131 176 237 291 346 421
#     4  11  21  37  69  98 130 175 237 288 339 427
#
# _framework density 29.166981
#
# number of rings (size 3 to 8) (size 9 to 14) (size 15 to 20)
#    0.000    1.455    4.545    3.818    0.000    1.455 
#   13.091    0.909    0.000    0.000    0.000    1.273 
#    0.000    0.000    0.000    0.000    0.000    0.000 
#
# Total GULP energy -122769.398740 kJ/mol
# GULP energy per Si atom -5580.427215 kJ/mol
# Density = 2.910060 g / cm^3
# Si number density = 29.166981 Si / 1000 Ang^3
#
#
#
# Elastic Constant Matrix: (Units=GPa)
#
#
# Indices 1 2 3 4 5 6 
#
# 1 208.1401 62.5901 86.6957 0.0000 -48.0016 0.0000
# 2 62.5901 131.6198 53.2871 0.0000 -42.0430 0.0000
# 3 86.6957 53.2871 116.5626 0.0000 -52.8865 0.0000
# 4 0.0000 0.0000 0.0000 49.9753 0.0000 -10.5475
# 5 -48.0016 -42.0430 -52.8865 0.0000 82.8858 0.0000
# 6 0.0000 0.0000 0.0000 -10.5475 0.0000 65.0556
#
#
#
# Elastic Compliance Matrix: (Units=1/GPa)
#
#
# Indices 1 2 3 4 5 6 
#
# 1 0.007229 -0.001443 -0.004433 0.000000 0.000626 0.000000
# 2 -0.001443 0.010107 -0.002252 0.000000 0.002854 0.000000
# 3 -0.004433 -0.002252 0.015796 0.000000 0.006369 0.000000
# 4 0.000000 0.000000 0.000000 0.020719 0.000000 0.003359
# 5 0.000626 0.002854 0.006369 0.000000 0.017939 0.000000
# 6 0.000000 0.000000 0.000000 0.003359 0.000000 0.015916
#
#
# Mechanical properties :
#
#
# Convention : Reuss Voigt Hill
#
# Bulk Modulus (GPa) = 59.25912 95.71870 77.48891
# Shear Modulus (GPa) = 45.62525 56.49999 51.06262
#
# Velocity S-wave (km/s) = 3.95939 4.40605 4.18868
# Velocity P-wave (km/s) = 6.42368 7.66636 7.07237
#
# Compressibility (1/GPa) = 0.01687504
#
# Stress axis : x y z
#
# Youngs Moduli (GPa) = 138.32565 98.93725 63.30834
#
# Poissons Ratio (x) = 0.14277 0.28066
# Poissons Ratio (y) = 0.19961 0.14260
# Poissons Ratio (z) = 0.61323 0.22285
#
# Static dielectric constant tensor:
#      x y z
#    x 2.407250 0.000000 -0.049500 
#    y 0.000000 2.348070 0.000000 
#    z -0.049500 0.000000 2.484450 
# 
# From -- ./inp_files/159801.got.cif
#   From: 2010.05.17/outbox.cif.g08.bks.cpg/sg15_80_cif.got.tgz:159801.got - 2010.06.03 18:47:42.
