data_PCOD9267692
_publ_section_title
;
Structure prediction by ZEFSAII (Michael W. Deem and Ramdas Pophale) SiO2 
 PCOD9267692
Probable space group: C 2/C
;
_chemical_formula_sum "Si O2"
_cell_formula_units_Z 56
_cell_length_a 26.767873
_cell_length_b 10.572640
_cell_length_c 11.975638
_cell_angle_alpha 90.000000
_cell_angle_beta 53.365043
_cell_angle_gamma 90.000000
_cell_volume 2719.667902
_symmetry_space_group_name_H-M "C 2/C"
_symmetry_group_IT_number 15
_symmetry_cell_setting 'monoclinic'
loop_
_space_group_symop_operation_xyz
x,y,z
-x,y,1/2-z
-x,-y,-z
x,-y,1/2+z
1/2+x,1/2+y,z
1/2-x,1/2+y,1/2-z
1/2-x,1/2-y,-z
1/2+x,1/2-y,1/2+z
loop_
_atom_site_type_symbol
_atom_site_label
_atom_site_fract_x
_atom_site_fract_y
_atom_site_fract_z
Si Si1 0.736226 0.958357 0.575441
Si Si2 0.359877 0.104933 0.653918
Si Si3 0.598764 0.880189 0.049810
Si Si4 0.755007 0.696104 0.661506
Si Si5 0.028807 0.684861 0.857997
Si Si6 0.843405 0.112567 0.535805
Si Si7 0.984664 0.037491 0.390758
O O1 0.735221 0.837035 0.657883
O O2 0.730703 0.890033 0.464514
O O3 0.679145 0.046635 0.690186
O O4 0.801423 0.034361 0.503780
O O5 0.314991 0.207877 0.659907
O O6 0.426483 0.159502 0.598631
O O7 0.367382 0.997552 0.549782
O O8 0.543525 0.849901 0.033837
O O9 0.560601 0.894267 0.215459
O O10 0.642042 0.758738 0.013805
O O11 0.701400 0.622976 0.798368
O O12 0.024487 0.831659 0.828812
O O13 0.910310 0.056530 0.479482
O O14 0.000000 0.968391 0.250000
O O15 0.000000 0.000000 0.500000
#
# Coordination Sequence:
#
# PCOD9267692 Si02
#       7
#     8   8   8   8   8   8   8
#     4  10  22  39  58  86 122 164 203 264 321 373
#     4  11  21  37  62  91 117 165 209 260 319 393
#     4  10  19  40  61  89 122 161 211 260 324 385
#     4  10  22  39  57  87 124 158 210 265 311 380
#     4  10  21  39  63  90 126 164 210 270 325 386
#     4  10  21  39  63  85 122 166 204 259 327 383
#     4  11  24  43  68  98 131 172 219 271 328 398
#
# _framework density 20.590748999999999
#
# number of rings (size 3 to 8) (size 9 to 14) (size 15 to 20)
#    0.000    1.714    4.286    1.286    4.000    0.000 
#    2.571    2.143    6.286    0.000    0.000    0.000 
#    0.000    0.000    0.000    0.000    0.000    0.000 
#
# Total GULP energy -155938.789561 kJ/mol
# GULP energy per Si atom -5569.242484 kJ/mol
# Density = 2.054388 g / cm^3
# Si number density = 20.590749 Si / 1000 Ang^3
#
#
#
# Elastic Constant Matrix: (Units=GPa)
#
#
# Indices 1 2 3 4 5 6 
#
# 1 112.5279 40.8113 4.6455 0.0000 -8.8557 0.0000
# 2 40.8113 29.7918 1.8963 0.0000 5.4836 0.0000
# 3 4.6455 1.8963 36.4809 0.0000 3.7775 0.0000
# 4 0.0000 0.0000 0.0000 7.4985 0.0000 -4.4011
# 5 -8.8557 5.4836 3.7775 0.0000 20.4394 0.0000
# 6 0.0000 0.0000 0.0000 -4.4011 0.0000 26.0233
#
#
#
# Elastic Compliance Matrix: (Units=1/GPa)
#
#
# Indices 1 2 3 4 5 6 
#
# 1 0.023724 -0.036075 -0.003275 0.000000 0.020563 0.000000
# 2 -0.036075 0.090195 0.004108 0.000000 -0.040587 0.000000
# 3 -0.003275 0.004108 0.028420 0.000000 -0.007774 0.000000
# 4 0.000000 0.000000 0.000000 0.148055 0.000000 0.025039
# 5 0.020563 -0.040587 -0.007774 0.000000 0.070160 0.000000
# 6 0.000000 0.000000 0.000000 0.025039 0.000000 0.042662
#
#
# Mechanical properties :
#
#
# Convention : Reuss Voigt Hill
#
# Bulk Modulus (GPa) = 13.91706 30.38966 22.15336
# Shear Modulus (GPa) = 10.04721 19.55542 14.80131
#
# Velocity S-wave (km/s) = 2.21135 3.08509 2.68402
# Velocity P-wave (km/s) = 3.64605 5.24226 4.51525
#
# Compressibility (1/GPa) = 0.07185424
#
# Stress axis : x y z
#
# Youngs Moduli (GPa) = 42.15176 11.08715 35.18648
#
# Poissons Ratio (x) = 0.39997 0.11524
# Poissons Ratio (y) = 1.52064 -0.14455
# Poissons Ratio (z) = 0.13805 -0.04555
#
# Static dielectric constant tensor:
#      x y z
#    x 1.781180 0.000000 0.024030 
#    y 0.000000 1.735500 0.000000 
#    z 0.024030 0.000000 1.769300 
# 
# From -- ./inp_files/122607.got.cif
#   From: 2010.05.17/outbox.cif.g08.bks.cpg/sg15_62_cif.got.tgz:122607.got - 2010.06.03 18:47:42.
