data_PCOD9267408
_publ_section_title
;
Structure prediction by ZEFSAII (Michael W. Deem and Ramdas Pophale) SiO2 
 PCOD9267408
Probable space group: C 2/C
;
_chemical_formula_sum "Si O2"
_cell_formula_units_Z 40
_cell_length_a 7.938554
_cell_length_b 17.143348
_cell_length_c 16.132824
_cell_angle_alpha 90.000000
_cell_angle_beta 128.168130
_cell_angle_gamma 90.000000
_cell_volume 1726.159393
_symmetry_space_group_name_H-M "C 2/C"
_symmetry_group_IT_number 15
_symmetry_cell_setting 'monoclinic'
loop_
_space_group_symop_operation_xyz
x,y,z
-x,y,1/2-z
-x,-y,-z
x,-y,1/2+z
1/2+x,1/2+y,z
1/2-x,1/2+y,1/2-z
1/2-x,1/2-y,-z
1/2+x,1/2-y,1/2+z
loop_
_atom_site_type_symbol
_atom_site_label
_atom_site_fract_x
_atom_site_fract_y
_atom_site_fract_z
Si Si1 0.342265 0.141834 0.306739
Si Si2 0.455022 0.427390 0.047115
Si Si3 0.689017 0.293303 0.604187
Si Si4 0.057736 0.381076 0.025207
Si Si5 0.659756 0.959295 0.226391
O O1 0.573736 0.179948 0.354391
O O2 0.180630 0.190118 0.200068
O O3 0.343100 0.134204 0.406538
O O4 0.325127 0.052940 0.270777
O O5 0.217563 0.428563 0.013242
O O6 0.611470 0.427686 0.173632
O O7 0.500000 0.500000 0.000000
O O8 0.468122 0.349413 0.995479
O O9 0.654325 0.204020 0.572555
O O10 0.065338 0.426522 0.113016
O O11 0.500000 0.936123 0.250000
#
# Coordination Sequence:
#
# PCOD9267408 Si02
#       5
#     8   8   8   8   8
#     4  10  19  39  62  92 127 159 212 257 320 371
#     4  11  21  40  64  96 127 164 216 265 314 379
#     4  10  21  39  66  95 124 167 214 271 309 381
#     4  11  25  38  71  98 122 167 223 270 315 378
#     4  12  23  41  63  92 133 175 207 261 325 389
#
# _framework density 23.172830000000001
#
# number of rings (size 3 to 8) (size 9 to 14) (size 15 to 20)
#    0.000    1.200    4.000    4.800    8.400    0.000 
#    0.000    1.000    4.400    0.000    0.000    0.000 
#    0.000    0.000    0.000    0.000    0.000    0.000 
#
# Total GULP energy -111777.411876 kJ/mol
# GULP energy per Si atom -5588.870594 kJ/mol
# Density = 2.312009 g / cm^3
# Si number density = 23.172830 Si / 1000 Ang^3
#
#
#
# Elastic Constant Matrix: (Units=GPa)
#
#
# Indices 1 2 3 4 5 6 
#
# 1 30.9309 21.7625 23.8814 0.0000 -13.2846 0.0000
# 2 21.7625 131.8212 36.3770 0.0000 -5.1753 0.0000
# 3 23.8814 36.3770 179.2826 0.0000 -22.6623 0.0000
# 4 0.0000 0.0000 0.0000 42.1410 0.0000 -5.2917
# 5 -13.2846 -5.1753 -22.6623 0.0000 37.0249 0.0000
# 6 0.0000 0.0000 0.0000 -5.2917 0.0000 11.8401
#
#
#
# Elastic Compliance Matrix: (Units=1/GPa)
#
#
# Indices 1 2 3 4 5 6 
#
# 1 0.044620 -0.006004 -0.003043 0.000000 0.013308 0.000000
# 2 -0.006004 0.008845 -0.001204 0.000000 -0.001655 0.000000
# 3 -0.003043 -0.001204 0.006577 0.000000 0.002765 0.000000
# 4 0.000000 0.000000 0.000000 0.025141 0.000000 0.011236
# 5 0.013308 -0.001655 0.002765 0.000000 0.033245 0.000000
# 6 0.000000 0.000000 0.000000 0.011236 0.000000 0.089480
#
#
# Mechanical properties :
#
#
# Convention : Reuss Voigt Hill
#
# Bulk Modulus (GPa) = 25.29165 56.23073 40.76119
# Shear Modulus (GPa) = 20.69627 35.53546 28.11587
#
# Velocity S-wave (km/s) = 2.99176 3.92024 3.48704
# Velocity P-wave (km/s) = 4.78250 6.69399 5.81729
#
# Compressibility (1/GPa) = 0.03953873
#
# Stress axis : x y z
#
# Youngs Moduli (GPa) = 22.41167 113.06418 152.04457
#
# Poissons Ratio (x) = 0.67884 0.46269
# Poissons Ratio (y) = 0.13456 0.18306
# Poissons Ratio (z) = 0.06820 0.13613
#
# Static dielectric constant tensor:
#      x y z
#    x 2.021810 0.000000 0.081140 
#    y 0.000000 1.807600 0.000000 
#    z 0.081140 0.000000 2.023520 
# 
# From -- ./inp_files/76918.got.cif
#   From: 2010.05.17/outbox.cif.g08.bks.cpg/sg15_39_cif.got.tgz:76918.got - 2010.06.03 18:47:42.
