data_PCOD9267769
_publ_section_title
;
Structure prediction by ZEFSAII (Michael W. Deem and Ramdas Pophale) SiO2 
 PCOD9267769
Probable space group: C 2/C
;
_chemical_formula_sum "Si O2"
_cell_formula_units_Z 56
_cell_length_a 27.525569
_cell_length_b 8.662713
_cell_length_c 19.707476
_cell_angle_alpha 90.000000
_cell_angle_beta 37.457242
_cell_angle_gamma 90.000000
_cell_volume 2857.891020
_symmetry_space_group_name_H-M "C 2/C"
_symmetry_group_IT_number 15
_symmetry_cell_setting 'monoclinic'
loop_
_space_group_symop_operation_xyz
x,y,z
-x,y,1/2-z
-x,-y,-z
x,-y,1/2+z
1/2+x,1/2+y,z
1/2-x,1/2+y,1/2-z
1/2-x,1/2-y,-z
1/2+x,1/2-y,1/2+z
loop_
_atom_site_type_symbol
_atom_site_label
_atom_site_fract_x
_atom_site_fract_y
_atom_site_fract_z
Si Si1 0.138676 0.558848 0.201441
Si Si2 0.222754 0.891843 0.847163
Si Si3 0.023068 0.544309 0.051017
Si Si4 0.293497 0.983307 0.130422
Si Si5 0.755534 0.418656 0.523545
Si Si6 0.897367 0.879942 0.318520
Si Si7 0.444246 0.367194 0.416535
O O1 0.209128 0.541526 0.178411
O O2 0.129100 0.740882 0.199942
O O3 0.053472 0.493579 0.319669
O O4 0.168750 0.493458 0.097272
O O5 0.218816 0.703803 0.857421
O O6 0.246994 0.945503 0.745624
O O7 0.133703 0.947874 0.966368
O O8 0.032879 0.726764 0.058744
O O9 0.111699 0.482694 0.967705
O O10 0.000000 0.500000 0.000000
O O11 0.263393 0.060026 0.094811
O O12 0.750000 0.250000 0.500000
O O13 0.675509 0.507020 0.590788
O O14 0.917803 0.810845 0.370308
O O15 0.974429 0.953956 0.195529
#
# Coordination Sequence:
#
# PCOD9267769 Si02
#       7
#     8   8   8   8   8   8   8
#     4  11  20  39  68  85 118 170 209 255 316 379
#     4  11  21  39  65  92 123 168 212 254 317 377
#     4  10  20  36  61  97 126 157 212 267 306 370
#     4  11  25  40  63  94 130 166 211 261 317 379
#     4  12  26  40  62  96 131 163 213 266 318 375
#     4  10  19  40  64  90 119 158 213 261 309 379
#     4   9  20  34  65  92 117 160 211 255 308 381
#
# _framework density 19.594868000000002
#
# number of rings (size 3 to 8) (size 9 to 14) (size 15 to 20)
#    0.000    1.429    4.286    2.143    2.000    1.714 
#    0.000    5.000    0.000    0.000    0.000    0.000 
#    0.000    0.000    0.000    0.000    0.000    0.000 
#
# Total GULP energy -156086.033273 kJ/mol
# GULP energy per Si atom -5574.501188 kJ/mol
# Density = 1.955027 g / cm^3
# Si number density = 19.594868 Si / 1000 Ang^3
#
#
#
# Elastic Constant Matrix: (Units=GPa)
#
#
# Indices 1 2 3 4 5 6 
#
# 1 58.0367 -4.0021 13.2466 -0.0274 12.2781 0.0171
# 2 -4.0021 25.7219 9.6433 -0.0203 -1.0906 0.0264
# 3 13.2466 9.6433 167.3615 -0.0261 -8.1692 0.0221
# 4 -0.0274 -0.0203 -0.0261 26.5128 0.0103 10.5396
# 5 12.2781 -1.0906 -8.1692 0.0103 39.4051 -0.0014
# 6 0.0171 0.0264 0.0221 10.5396 -0.0014 8.0495
#
#
#
# Elastic Compliance Matrix: (Units=1/GPa)
#
#
# Indices 1 2 3 4 5 6 
#
# 1 0.019276 0.003494 -0.002036 0.000088 -0.006331 -0.000163
# 2 0.003494 0.040385 -0.002629 0.000177 -0.000516 -0.000365
# 3 -0.002036 -0.002629 0.006380 0.000006 0.001884 -0.000013
# 4 0.000088 0.000177 0.000006 0.078661 -0.000045 -0.102995
# 5 -0.006331 -0.000516 0.001884 -0.000045 0.027727 0.000074
# 6 -0.000163 -0.000365 -0.000013 -0.102995 0.000074 0.259087
#
#
# Mechanical properties :
#
#
# Convention : Reuss Voigt Hill
#
# Bulk Modulus (GPa) = 15.69866 32.09952 23.89909
# Shear Modulus (GPa) = 10.98685 30.27564 20.63125
#
# Velocity S-wave (km/s) = 2.37048 3.93502 3.24835
# Velocity P-wave (km/s) = 3.93970 6.08793 5.12758
#
# Compressibility (1/GPa) = 0.06369971
#
# Stress axis : x y z
#
# Youngs Moduli (GPa) = 51.87882 24.76156 156.74774
#
# Poissons Ratio (x) = -0.08652 0.31914
# Poissons Ratio (y) = -0.18128 0.41204
# Poissons Ratio (z) = 0.10563 0.06509
#
# Static dielectric constant tensor:
#      x y z
#    x 1.713760 -0.000040 -0.045950 
#    y -0.000040 1.242000 0.000010 
#    z -0.045950 0.000010 1.722160 
# 
# From -- ./inp_files/221998.got.cif
#   From: 2010.05.17/outbox.cif.g08.bks.cpg/sg15_111_cif.got.tgz:221998.got - 2010.06.03 18:47:42.
