data_PCOD9267907
_publ_section_title
;
Structure prediction by ZEFSAII (Michael W. Deem and Ramdas Pophale) SiO2 
 PCOD9267907
Probable space group: C 2/C
;
_chemical_formula_sum "Si O2"
_cell_formula_units_Z 56
_cell_length_a 12.035251
_cell_length_b 8.175266
_cell_length_c 22.024267
_cell_angle_alpha 90.000000
_cell_angle_beta 79.831719
_cell_angle_gamma 90.000000
_cell_volume 2132.962014
_symmetry_space_group_name_H-M "C 2/C"
_symmetry_group_IT_number 15
_symmetry_cell_setting 'monoclinic'
loop_
_space_group_symop_operation_xyz
x,y,z
-x,y,1/2-z
-x,-y,-z
x,-y,1/2+z
1/2+x,1/2+y,z
1/2-x,1/2+y,1/2-z
1/2-x,1/2-y,-z
1/2+x,1/2-y,1/2+z
loop_
_atom_site_type_symbol
_atom_site_label
_atom_site_fract_x
_atom_site_fract_y
_atom_site_fract_z
Si Si1 0.080338 0.198550 0.423642
Si Si2 0.268939 0.960540 0.980593
Si Si3 0.006946 0.557652 0.392340
Si Si4 0.000000 0.510872 0.250000
Si Si5 0.676708 0.749396 0.212441
Si Si6 0.000000 0.993319 0.250000
Si Si7 0.825085 0.812784 0.929160
Si Si8 0.906466 0.129703 0.651301
O O1 0.069208 0.384511 0.399439
O O2 0.947489 0.167614 0.450076
O O3 0.175445 0.167738 0.465823
O O4 0.114413 0.047364 0.376035
O O5 0.395202 0.929705 0.944650
O O6 0.259197 0.146590 0.953282
O O7 0.240193 0.018883 0.051508
O O8 0.071185 0.726688 0.398675
O O9 0.983804 0.568326 0.321825
O O10 0.887731 0.403184 0.254568
O O11 0.612632 0.598819 0.248608
O O12 0.649068 0.720382 0.144027
O O13 0.807412 0.789770 0.201659
O O14 0.989417 0.896834 0.313034
#
# Coordination Sequence:
#
# PCOD9267907 Si02
#       8
#     8   8   8   4   8   4   8   8
#     4  11  20  43  68  98 134 179 221 280 348 407
#     4  10  21  40  70  97 137 181 225 284 348 410
#     4  11  25  42  64 102 133 175 233 279 338 424
#     4  11  19  44  60  89 139 168 219 285 324 403
#     4  11  22  42  69  99 131 183 228 282 346 408
#     4  11  25  46  66 101 145 180 239 289 352 423
#     4  10  19  40  70  99 132 179 234 281 341 415
#     4  12  25  43  68  99 136 179 224 285 346 415
#
# _framework density 26.254569
#
# number of rings (size 3 to 8) (size 9 to 14) (size 15 to 20)
#    0.000    1.143    5.714    1.714    2.000    1.143 
#    5.143    1.429    0.000    0.000    0.000    0.000 
#    0.000    0.000    0.000    0.000    0.000    0.000 
#
# Total GULP energy -156137.167510 kJ/mol
# GULP energy per Si atom -5576.327411 kJ/mol
# Density = 2.619481 g / cm^3
# Si number density = 26.254569 Si / 1000 Ang^3
#
#
#
# Elastic Constant Matrix: (Units=GPa)
#
#
# Indices 1 2 3 4 5 6 
#
# 1 100.6332 45.0691 21.7153 0.0000 -4.2451 0.0000
# 2 45.0691 160.8793 28.2592 0.0000 -3.3563 0.0000
# 3 21.7153 28.2592 78.6859 0.0000 -14.9330 0.0000
# 4 0.0000 0.0000 0.0000 110.2465 0.0000 -70.7847
# 5 -4.2451 -3.3563 -14.9330 0.0000 40.3331 0.0000
# 6 0.0000 0.0000 0.0000 -70.7847 0.0000 77.4158
#
#
#
# Elastic Compliance Matrix: (Units=1/GPa)
#
#
# Indices 1 2 3 4 5 6 
#
# 1 0.011708 -0.002897 -0.002154 0.000000 0.000194 0.000000
# 2 -0.002897 0.007356 -0.001919 0.000000 -0.000403 0.000000
# 3 -0.002154 -0.001919 0.014971 0.000000 0.005156 0.000000
# 4 0.000000 0.000000 0.000000 0.021966 0.000000 0.020085
# 5 0.000194 -0.000403 0.005156 0.000000 0.026689 0.000000
# 6 0.000000 0.000000 0.000000 0.020085 0.000000 0.031281
#
#
# Mechanical properties :
#
#
# Convention : Reuss Voigt Hill
#
# Bulk Modulus (GPa) = 49.76409 58.92063 54.34236
# Shear Modulus (GPa) = 37.14445 61.94275 49.54360
#
# Velocity S-wave (km/s) = 3.76544 4.86255 4.34873
# Velocity P-wave (km/s) = 6.15632 7.34960 6.77926
#
# Compressibility (1/GPa) = 0.02009481
#
# Stress axis : x y z
#
# Youngs Moduli (GPa) = 85.41450 135.94023 66.79664
#
# Poissons Ratio (x) = 0.39388 0.14386
# Poissons Ratio (y) = 0.24748 0.12817
# Poissons Ratio (z) = 0.18395 0.26084
#
# Static dielectric constant tensor:
#      x y z
#    x 1.911520 0.000000 0.054140 
#    y 0.000000 2.159840 0.000000 
#    z 0.054140 0.000000 2.860460 
# 
# From -- ./inp_files/291541.got.cif
#   From: 2010.05.17/outbox.cif.g08.bks.cpg/sg15_146_cif.got.tgz:291541.got - 2010.06.03 18:47:42.
