data_PCOD9267846
_publ_section_title
;
Structure prediction by ZEFSAII (Michael W. Deem and Ramdas Pophale) SiO2 
 PCOD9267846
Probable space group: C 2/C
;
_chemical_formula_sum "Si O2"
_cell_formula_units_Z 56
_cell_length_a 8.384023
_cell_length_b 17.378926
_cell_length_c 19.758455
_cell_angle_alpha 90.000000
_cell_angle_beta 117.612263
_cell_angle_gamma 90.000000
_cell_volume 2551.016515
_symmetry_space_group_name_H-M "C 2/C"
_symmetry_group_IT_number 15
_symmetry_cell_setting 'monoclinic'
loop_
_space_group_symop_operation_xyz
x,y,z
-x,y,1/2-z
-x,-y,-z
x,-y,1/2+z
1/2+x,1/2+y,z
1/2-x,1/2+y,1/2-z
1/2-x,1/2-y,-z
1/2+x,1/2-y,1/2+z
loop_
_atom_site_type_symbol
_atom_site_label
_atom_site_fract_x
_atom_site_fract_y
_atom_site_fract_z
Si Si1 0.311412 0.282042 0.311930
Si Si2 0.707123 0.022817 0.043059
Si Si3 0.500000 0.098636 0.750000
Si Si4 0.324859 0.699352 0.078129
Si Si5 0.230801 0.973074 0.102088
Si Si6 0.000000 0.318826 0.750000
Si Si7 0.193412 0.860145 0.598333
Si Si8 0.400182 0.373772 0.072592
O O1 0.227393 0.243324 0.362901
O O2 0.337791 0.225091 0.255077
O O3 0.523251 0.306216 0.365686
O O4 0.169436 0.348247 0.262822
O O5 0.746407 0.111514 0.071122
O O6 0.806085 0.945882 0.091523
O O7 0.758275 0.020018 0.974891
O O8 0.500000 0.000000 0.000000
O O9 0.581482 0.046467 0.825600
O O10 0.535509 0.690433 0.100033
O O11 0.250000 0.750000 0.000000
O O12 0.094955 0.904539 0.087999
O O13 0.140473 0.052083 0.107235
O O14 0.106606 0.358868 0.831985
O O15 0.194976 0.849870 0.516594
#
# Coordination Sequence:
#
# PCOD9267846 Si02
#       8
#     8   8   4   8   8   4   8   8
#     4  11  25  42  65  97 132 180 223 272 339 403
#     4  11  23  37  65 102 130 161 223 286 327 387
#     4  10  21  42  68  89 130 178 220 266 336 419
#     4  12  22  42  71 103 127 175 225 283 334 393
#     4  10  19  40  67  94 124 175 217 266 337 388
#     4  12  29  40  60  95 144 178 210 278 350 403
#     4  11  21  41  65  96 132 169 223 277 331 402
#     4  10  20  43  69  92 125 175 225 273 322 392
#
# _framework density 21.952034000000001
#
# number of rings (size 3 to 8) (size 9 to 14) (size 15 to 20)
#    0.000    1.143    4.286    3.000    4.000    2.857 
#    0.000    0.000    0.000    0.000    0.000    0.000 
#    0.000    0.000    0.000    0.000    0.000    0.000 
#
# Total GULP energy -155930.463650 kJ/mol
# GULP energy per Si atom -5568.945130 kJ/mol
# Density = 2.190207 g / cm^3
# Si number density = 21.952034 Si / 1000 Ang^3
#
#
#
# Elastic Constant Matrix: (Units=GPa)
#
#
# Indices 1 2 3 4 5 6 
#
# 1 49.8238 18.5922 3.3071 0.0000 15.8539 0.0000
# 2 18.5922 79.2367 26.0567 0.0000 11.9525 0.0000
# 3 3.3071 26.0567 97.2163 0.0000 38.1063 0.0000
# 4 0.0000 0.0000 0.0000 25.2752 0.0000 14.7008
# 5 15.8539 11.9525 38.1063 0.0000 38.0538 0.0000
# 6 0.0000 0.0000 0.0000 14.7008 0.0000 29.5253
#
#
#
# Elastic Compliance Matrix: (Units=1/GPa)
#
#
# Indices 1 2 3 4 5 6 
#
# 1 0.027234 -0.006272 0.007292 0.000000 -0.016679 0.000000
# 2 -0.006272 0.015310 -0.004987 0.000000 0.002798 0.000000
# 3 0.007292 -0.004987 0.019674 0.000000 -0.021173 0.000000
# 4 0.000000 0.000000 0.000000 0.055693 0.000000 -0.027730
# 5 -0.016679 0.002798 -0.021173 0.000000 0.053551 0.000000
# 6 0.000000 0.000000 0.000000 -0.027730 0.000000 0.047676
#
#
# Mechanical properties :
#
#
# Convention : Reuss Voigt Hill
#
# Bulk Modulus (GPa) = 18.42149 35.79877 27.11013
# Shear Modulus (GPa) = 20.39421 30.45891 25.42656
#
# Velocity S-wave (km/s) = 3.05131 3.72899 3.40704
# Velocity P-wave (km/s) = 4.56333 5.90623 5.27767
#
# Compressibility (1/GPa) = 0.05428443
#
# Stress axis : x y z
#
# Youngs Moduli (GPa) = 36.71819 65.31658 50.82786
#
# Poissons Ratio (x) = 0.40970 -0.37065
# Poissons Ratio (y) = 0.23031 0.25348
# Poissons Ratio (z) = -0.26776 0.32573
#
# Static dielectric constant tensor:
#      x y z
#    x 1.846240 0.000000 -0.009710 
#    y 0.000000 2.228200 0.000000 
#    z -0.009710 0.000000 1.885940 
# 
# From -- ./inp_files/232844.got.cif
#   From: 2010.05.17/outbox.cif.g08.bks.cpg/sg15_117_cif.got.tgz:232844.got - 2010.06.03 18:47:42.
