data_PCOD9267325
_publ_section_title
;
Structure prediction by ZEFSAII (Michael W. Deem and Ramdas Pophale) SiO2 
 PCOD9267325
Probable space group: C 2/C
;
_chemical_formula_sum "Si O2"
_cell_formula_units_Z 64
_cell_length_a 9.274233
_cell_length_b 17.888426
_cell_length_c 34.255900
_cell_angle_alpha 90.000000
_cell_angle_beta 143.933905
_cell_angle_gamma 90.000000
_cell_volume 3345.745626
_symmetry_space_group_name_H-M "C 2/C"
_symmetry_group_IT_number 15
_symmetry_cell_setting 'monoclinic'
loop_
_space_group_symop_operation_xyz
x,y,z
-x,y,1/2-z
-x,-y,-z
x,-y,1/2+z
1/2+x,1/2+y,z
1/2-x,1/2+y,1/2-z
1/2-x,1/2-y,-z
1/2+x,1/2-y,1/2+z
loop_
_atom_site_type_symbol
_atom_site_label
_atom_site_fract_x
_atom_site_fract_y
_atom_site_fract_z
Si Si1 0.402463 0.649525 0.605566
Si Si2 0.008707 0.050228 0.557207
Si Si3 0.257318 0.573643 0.170728
Si Si4 0.896146 0.667686 0.619777
Si Si5 0.335812 0.406629 0.174622
Si Si6 0.726669 0.593245 0.076224
Si Si7 0.165699 0.237695 0.324633
Si Si8 0.964731 0.755882 0.515719
O O1 0.416535 0.581931 0.577847
O O2 0.458608 0.623842 0.662054
O O3 0.593594 0.712653 0.632361
O O4 0.130465 0.683858 0.545957
O O5 0.837339 0.073495 0.483141
O O6 0.268631 0.091396 0.606095
O O7 0.061958 0.962765 0.565552
O O8 0.500000 0.572263 0.250000
O O9 0.254419 0.492770 0.149530
O O10 0.266849 0.652227 0.149476
O O11 0.013693 0.579892 0.143619
O O12 0.982362 0.717484 0.674694
O O13 0.675640 0.716011 0.553369
O O14 0.102390 0.644765 0.634290
O O15 0.500000 0.405097 0.250000
O O16 0.648558 0.677340 0.067416
O O17 0.000000 0.234471 0.250000
O O18 0.750000 0.750000 0.500000
#
# Coordination Sequence:
#
# PCOD9267325 Si02
#       8
#     8   8   8   8   8   8   8   8
#     4  11  22  38  60  92 118 150 207 245 294 352
#     4   9  21  35  62  87 113 154 199 240 292 362
#     4  10  21  37  61  85 114 160 204 237 290 362
#     4  10  20  36  59  85 116 154 196 235 307 350
#     4  11  22  39  60  84 121 157 194 246 296 353
#     4  10  19  39  60  83 122 162 191 241 308 351
#     4  10  21  38  60  87 114 154 204 246 286 355
#     4  11  22  37  58  88 123 155 192 255 300 357
#
# _framework density 19.128769999999999
#
# number of rings (size 3 to 8) (size 9 to 14) (size 15 to 20)
#    0.000    1.750    3.750    0.750    1.750    1.500 
#    2.250    1.250    0.000    0.000    0.000    0.000 
#    0.000    0.000    0.000    0.000    0.000    0.000 
#
# Total GULP energy -178434.797528 kJ/mol
# GULP energy per Si atom -5576.087423 kJ/mol
# Density = 1.908523 g / cm^3
# Si number density = 19.128770 Si / 1000 Ang^3
#
#
#
# Elastic Constant Matrix: (Units=GPa)
#
#
# Indices 1 2 3 4 5 6 
#
# 1 95.8352 35.0732 22.6780 0.0000 -3.3863 0.0000
# 2 35.0732 80.7366 22.6415 0.0000 -13.3266 0.0001
# 3 22.6780 22.6415 52.8946 0.0000 3.6414 0.0001
# 4 0.0000 0.0000 0.0000 15.9865 0.0000 2.1850
# 5 -3.3863 -13.3266 3.6414 0.0000 30.0437 0.0001
# 6 0.0000 0.0001 0.0001 2.1850 0.0001 23.8641
#
#
#
# Elastic Compliance Matrix: (Units=1/GPa)
#
#
# Indices 1 2 3 4 5 6 
#
# 1 0.012978 -0.004671 -0.003553 0.000000 -0.000179 0.000000
# 2 -0.004671 0.017403 -0.005992 0.000000 0.007919 0.000000
# 3 -0.003553 -0.005992 0.023399 0.000000 -0.005894 0.000000
# 4 0.000000 0.000000 0.000000 0.063345 0.000000 -0.005800
# 5 -0.000179 0.007919 -0.005894 0.000000 0.037492 0.000000
# 6 0.000000 0.000000 0.000000 -0.005800 0.000000 0.042435
#
#
# Mechanical properties :
#
#
# Convention : Reuss Voigt Hill
#
# Bulk Modulus (GPa) = 39.44867 43.36130 41.40499
# Shear Modulus (GPa) = 21.37364 23.91712 22.64538
#
# Velocity S-wave (km/s) = 3.34631 3.53983 3.44443
# Velocity P-wave (km/s) = 5.96640 6.27889 6.12464
#
# Compressibility (1/GPa) = 0.02534939
#
# Stress axis : x y z
#
# Youngs Moduli (GPa) = 77.05062 57.46255 42.73666
#
# Poissons Ratio (x) = 0.26842 0.15182
# Poissons Ratio (y) = 0.35992 0.25606
# Poissons Ratio (z) = 0.27373 0.34429
#
# Static dielectric constant tensor:
#      x y z
#    x 1.645460 0.000000 0.001890 
#    y 0.000000 1.688100 0.000000 
#    z 0.001890 0.000000 1.695450 
# 
# From -- ./inp_files/232677.got.cif
#   From: 2010.05.17/outbox.cif.g08.bks.cpg/sg15_117_cif.got.tgz:232677.got - 2010.06.03 18:47:42.
