data_PCOD9267806
_publ_section_title
;
Structure prediction by ZEFSAII (Michael W. Deem and Ramdas Pophale) SiO2 
 PCOD9267806
Probable space group: C 2/C
;
_chemical_formula_sum "Si O2"
_cell_formula_units_Z 48
_cell_length_a 14.910822
_cell_length_b 21.606351
_cell_length_c 10.031067
_cell_angle_alpha 90.000000
_cell_angle_beta 139.991003
_cell_angle_gamma 90.000000
_cell_volume 2077.681155
_symmetry_space_group_name_H-M "C 2/C"
_symmetry_group_IT_number 15
_symmetry_cell_setting 'monoclinic'
loop_
_space_group_symop_operation_xyz
x,y,z
-x,y,1/2-z
-x,-y,-z
x,-y,1/2+z
1/2+x,1/2+y,z
1/2-x,1/2+y,1/2-z
1/2-x,1/2-y,-z
1/2+x,1/2-y,1/2+z
loop_
_atom_site_type_symbol
_atom_site_label
_atom_site_fract_x
_atom_site_fract_y
_atom_site_fract_z
Si Si1 0.250000 0.750000 0.500000
Si Si2 0.500000 0.874279 0.250000
Si Si3 0.909731 0.438402 0.410366
Si Si4 0.776606 0.719447 0.386216
Si Si5 0.000000 0.348253 0.750000
Si Si6 0.024288 0.815655 0.929322
Si Si7 0.091029 0.938458 0.111726
Si Si8 0.000000 0.150718 0.750000
O O1 0.367548 0.804896 0.617460
O O2 0.131734 0.803882 0.402669
O O3 0.413298 0.910093 0.264764
O O4 0.611054 0.833647 0.460113
O O5 0.754780 0.452773 0.288473
O O6 0.000000 0.500000 0.500000
O O7 0.976424 0.391222 0.592810
O O8 0.750000 0.750000 0.500000
O O9 0.623819 0.696928 0.170921
O O10 0.848939 0.771565 0.374492
O O11 0.000000 0.795145 0.750000
O O12 0.065727 0.886718 0.969681
O O13 0.038795 0.896975 0.175448
O O14 0.000000 0.000000 0.000000
#
# Coordination Sequence:
#
# PCOD9267806 Si02
#       8
#     4   4   8   8   4   8   8   4
#     4  10  24  50  80 114 148 210 254 330 380 488
#     4  12  25  44  78 114 147 190 254 312 392 440
#     4  12  29  51  78 110 155 207 262 320 382 471
#     4  10  19  40  66 107 141 179 225 303 371 441
#     4  11  25  54  78 116 159 207 270 314 406 469
#     4  10  22  41  67 103 141 181 231 297 379 433
#     4  12  30  48  74 105 152 201 254 315 377 464
#     4  11  26  50  76 112 148 199 264 314 390 457
#
# _framework density 23.102678999999998
#
# number of rings (size 3 to 8) (size 9 to 14) (size 15 to 20)
#    0.000    1.000    4.167    2.500    5.833    5.333 
#    3.000    0.000    0.000    0.000    0.000    0.000 
#    0.000    0.000    0.000    0.000    0.000    0.000 
#
# Total GULP energy -133669.196174 kJ/mol
# GULP energy per Si atom -5569.549841 kJ/mol
# Density = 2.305010 g / cm^3
# Si number density = 23.102679 Si / 1000 Ang^3
#
#
#
# Elastic Constant Matrix: (Units=GPa)
#
#
# Indices 1 2 3 4 5 6 
#
# 1 154.0129 76.4665 82.8416 0.0000 29.0993 0.0000
# 2 76.4665 200.2367 83.3502 0.0000 40.0434 0.0000
# 3 82.8416 83.3502 105.0494 0.0000 59.1711 0.0000
# 4 0.0000 0.0000 0.0000 7.1244 0.0000 11.0705
# 5 29.0993 40.0434 59.1711 0.0000 67.4698 0.0000
# 6 0.0000 0.0000 0.0000 11.0705 0.0000 43.7558
#
#
#
# Elastic Compliance Matrix: (Units=1/GPa)
#
#
# Indices 1 2 3 4 5 6 
#
# 1 0.012617 -0.000683 -0.012985 0.000000 0.006352 0.000000
# 2 -0.000683 0.007572 -0.006134 0.000000 0.001180 0.000000
# 3 -0.012985 -0.006134 0.038382 0.000000 -0.024419 0.000000
# 4 0.000000 0.000000 0.000000 0.231293 0.000000 -0.058519
# 5 0.006352 0.001180 -0.024419 0.000000 0.032797 0.000000
# 6 0.000000 0.000000 0.000000 -0.058519 0.000000 0.037660
#
#
# Mechanical properties :
#
#
# Convention : Reuss Voigt Hill
#
# Bulk Modulus (GPa) = 52.72913 104.95729 78.84321
# Shear Modulus (GPa) = 12.30777 38.11272 25.21024
#
# Velocity S-wave (km/s) = 2.31062 4.06607 3.30695
# Velocity P-wave (km/s) = 5.47650 8.22030 6.98446
#
# Compressibility (1/GPa) = 0.01896485
#
# Stress axis : x y z
#
# Youngs Moduli (GPa) = 79.26055 132.05870 26.05416
#
# Poissons Ratio (x) = 0.09020 0.33833
# Poissons Ratio (y) = 0.05414 0.15983
# Poissons Ratio (z) = 1.02924 0.81010
#
# Static dielectric constant tensor:
#      x y z
#    x 1.988820 0.000000 -0.157350 
#    y 0.000000 1.815920 0.000000 
#    z -0.157350 0.000000 2.204470 
# 
# From -- ./inp_files/100104.got.cif
#   From: 2010.05.17/outbox.cif.g08.bks.cpg/sg15_51_cif.got.tgz:100104.got - 2010.06.03 18:47:42.
