data_PCOD9267663
_publ_section_title
;
Structure prediction by ZEFSAII (Michael W. Deem and Ramdas Pophale) SiO2 
 PCOD9267663
Probable space group: C 2/C
;
_chemical_formula_sum "Si O2"
_cell_formula_units_Z 28
_cell_length_a 13.708027
_cell_length_b 6.417234
_cell_length_c 13.659607
_cell_angle_alpha 90.000000
_cell_angle_beta 116.116217
_cell_angle_gamma 90.000000
_cell_volume 1078.923030
_symmetry_space_group_name_H-M "C 2/C"
_symmetry_group_IT_number 15
_symmetry_cell_setting 'monoclinic'
loop_
_space_group_symop_operation_xyz
x,y,z
-x,y,1/2-z
-x,-y,-z
x,-y,1/2+z
1/2+x,1/2+y,z
1/2-x,1/2+y,1/2-z
1/2-x,1/2-y,-z
1/2+x,1/2-y,1/2+z
loop_
_atom_site_type_symbol
_atom_site_label
_atom_site_fract_x
_atom_site_fract_y
_atom_site_fract_z
Si Si1 0.721546 0.312000 0.354545
Si Si2 0.142609 0.337103 0.615959
Si Si3 0.500000 0.570972 0.750000
Si Si4 0.440831 0.712449 0.406297
O O1 0.763622 0.542472 0.402791
O O2 0.702333 0.282265 0.229155
O O3 0.598743 0.289604 0.335214
O O4 0.828051 0.171594 0.417011
O O5 0.079828 0.542891 0.630153
O O6 0.050674 0.213279 0.517940
O O7 0.542821 0.422759 0.682856
#
# Coordination Sequence:
#
# PCOD9267663 Si02
#       4
#     8   8   4   8
#     4  10  19  40  57  91 118 155 195 250 281 367
#     4   9  19  40  62  79 132 150 194 249 305 325
#     4  12  22  36  68  86 120 158 206 228 312 340
#     4   9  20  40  60  89 119 161 189 257 285 356
#
# _framework density 25.951806000000001
#
# number of rings (size 3 to 8) (size 9 to 14) (size 15 to 20)
#    1.714    0.571    2.857    0.000    0.000    3.429 
#    0.000    1.429    0.000    0.000    0.000    0.000 
#    0.000    0.000    0.000    0.000    0.000    0.000 
#
# Total GULP energy -77962.433229 kJ/mol
# GULP energy per Si atom -5568.745231 kJ/mol
# Density = 2.589274 g / cm^3
# Si number density = 25.951806 Si / 1000 Ang^3
#
#
#
# Elastic Constant Matrix: (Units=GPa)
#
#
# Indices 1 2 3 4 5 6 
#
# 1 153.5728 40.4872 51.5018 0.0000 53.4677 0.0000
# 2 40.4872 61.7754 26.6829 0.0000 13.1155 0.0000
# 3 51.5018 26.6829 145.2717 0.0000 48.8072 0.0000
# 4 0.0000 0.0000 0.0000 29.9185 0.0000 14.7968
# 5 53.4677 13.1155 48.8072 0.0000 56.8177 0.0000
# 6 0.0000 0.0000 0.0000 14.7968 0.0000 41.8625
#
#
#
# Elastic Compliance Matrix: (Units=1/GPa)
#
#
# Indices 1 2 3 4 5 6 
#
# 1 0.011143 -0.005392 0.000204 0.000000 -0.009416 0.000000
# 2 -0.005392 0.020324 -0.002741 0.000000 0.002737 0.000000
# 3 0.000204 -0.002741 0.010074 0.000000 -0.008213 0.000000
# 4 0.000000 0.000000 0.000000 0.040505 0.000000 -0.014317
# 5 -0.009416 0.002737 -0.008213 0.000000 0.032884 0.000000
# 6 0.000000 0.000000 0.000000 -0.014317 0.000000 0.028948
#
#
# Mechanical properties :
#
#
# Convention : Reuss Voigt Hill
#
# Bulk Modulus (GPa) = 38.93674 66.44040 52.68857
# Shear Modulus (GPa) = 29.70898 41.84959 35.77929
#
# Velocity S-wave (km/s) = 3.38712 4.02006 3.71709
# Velocity P-wave (km/s) = 5.50753 6.87058 6.22647
#
# Compressibility (1/GPa) = 0.02568269
#
# Stress axis : x y z
#
# Youngs Moduli (GPa) = 89.74068 49.20197 99.26340
#
# Poissons Ratio (x) = 0.26529 -0.02020
# Poissons Ratio (y) = 0.48387 0.27210
# Poissons Ratio (z) = -0.01826 0.13487
#
# Static dielectric constant tensor:
#      x y z
#    x 2.169930 0.000000 0.025960 
#    y 0.000000 2.068550 0.000000 
#    z 0.025960 0.000000 2.010410 
# 
# From -- ./inp_files/92999.got.cif
#   From: 2010.05.17/outbox.cif.g08.bks.cpg/sg15_47_cif.got.tgz:92999.got - 2010.06.03 18:47:42.
