data_PCOD9267596
_publ_section_title
;
Structure prediction by ZEFSAII (Michael W. Deem and Ramdas Pophale) SiO2 
 PCOD9267596
Probable space group: C 2/C
;
_chemical_formula_sum "Si O2"
_cell_formula_units_Z 40
_cell_length_a 8.371578
_cell_length_b 18.440516
_cell_length_c 11.659284
_cell_angle_alpha 90.000000
_cell_angle_beta 95.296125
_cell_angle_gamma 90.000000
_cell_volume 1792.232225
_symmetry_space_group_name_H-M "C 2/C"
_symmetry_group_IT_number 15
_symmetry_cell_setting 'monoclinic'
loop_
_space_group_symop_operation_xyz
x,y,z
-x,y,1/2-z
-x,-y,-z
x,-y,1/2+z
1/2+x,1/2+y,z
1/2-x,1/2+y,1/2-z
1/2-x,1/2-y,-z
1/2+x,1/2-y,1/2+z
loop_
_atom_site_type_symbol
_atom_site_label
_atom_site_fract_x
_atom_site_fract_y
_atom_site_fract_z
Si Si1 0.925146 0.980635 0.867852
Si Si2 0.479909 0.181563 0.004624
Si Si3 0.627353 0.676487 0.077953
Si Si4 0.901748 0.800183 0.357877
Si Si5 0.368389 0.081346 0.645523
O O1 0.915205 0.893830 0.853828
O O2 0.000000 0.008941 0.750000
O O3 0.748109 0.013648 0.866958
O O4 0.000000 0.000000 0.000000
O O5 0.431999 0.240994 0.901850
O O6 0.538533 0.105612 0.962365
O O7 0.316989 0.177831 0.066760
O O8 0.619693 0.221034 0.086650
O O9 0.528903 0.663346 0.953363
O O10 0.747508 0.849652 0.337312
O O11 0.000000 0.791088 0.250000
O O12 0.500000 0.071402 0.750000
#
# Coordination Sequence:
#
# PCOD9267596 Si02
#       5
#     8   8   8   8   8
#     4  12  27  50  74 100 144 196 246 293 368 439
#     4   9  21  42  67 105 136 178 239 301 354 426
#     4   9  21  43  68  99 138 184 234 296 356 431
#     4  10  19  39  67  98 142 184 233 293 367 420
#     4  12  25  40  71 103 143 193 243 299 364 431
#
# _framework density 22.318536999999999
#
# number of rings (size 3 to 8) (size 9 to 14) (size 15 to 20)
#    1.200    0.400    2.000    2.400    2.800    1.600 
#    3.600    0.000    0.000    0.000    0.000    0.000 
#    0.000    0.000    0.000    0.000    0.000    0.000 
#
# Total GULP energy -111398.192977 kJ/mol
# GULP energy per Si atom -5569.909649 kJ/mol
# Density = 2.226774 g / cm^3
# Si number density = 22.318537 Si / 1000 Ang^3
#
#
#
# Elastic Constant Matrix: (Units=GPa)
#
#
# Indices 1 2 3 4 5 6 
#
# 1 92.1852 10.1916 39.1325 0.0000 18.5814 0.0000
# 2 10.1916 63.4955 24.3051 0.0000 -1.1157 0.0000
# 3 39.1325 24.3051 72.2861 0.0000 3.2560 0.0000
# 4 0.0000 0.0000 0.0000 82.5797 0.0000 67.9579
# 5 18.5814 -1.1157 3.2560 0.0000 35.6428 0.0000
# 6 0.0000 0.0000 0.0000 67.9579 0.0000 123.4551
#
#
#
# Elastic Compliance Matrix: (Units=1/GPa)
#
#
# Indices 1 2 3 4 5 6 
#
# 1 0.015882 0.000552 -0.008446 0.000000 -0.007491 0.000000
# 2 0.000552 0.018140 -0.006437 0.000000 0.000868 0.000000
# 3 -0.008446 -0.006437 0.020466 0.000000 0.002332 0.000000
# 4 0.000000 0.000000 0.000000 0.022138 0.000000 -0.012186
# 5 -0.007491 0.000868 0.002332 0.000000 0.031775 0.000000
# 6 0.000000 0.000000 0.000000 -0.012186 0.000000 0.014808
#
#
# Mechanical properties :
#
#
# Convention : Reuss Voigt Hill
#
# Bulk Modulus (GPa) = 38.72190 41.69167 40.20678
# Shear Modulus (GPa) = 31.15662 58.62470 44.89066
#
# Velocity S-wave (km/s) = 3.74036 5.13072 4.48969
# Velocity P-wave (km/s) = 6.00342 7.33620 6.70302
#
# Compressibility (1/GPa) = 0.02582518
#
# Stress axis : x y z
#
# Youngs Moduli (GPa) = 62.96484 55.12720 48.86251
#
# Poissons Ratio (x) = -0.03044 0.41269
# Poissons Ratio (y) = -0.03477 0.31454
# Poissons Ratio (z) = 0.53180 0.35487
#
# Static dielectric constant tensor:
#      x y z
#    x 1.797790 0.000000 -0.027870 
#    y 0.000000 1.828390 0.000000 
#    z -0.027870 0.000000 1.991660 
# 
# From -- ./inp_files/77798.got.cif
#   From: 2010.05.17/outbox.cif.g08.bks.cpg/sg15_39_cif.got.tgz:77798.got - 2010.06.03 18:47:42.
