data_PCOD9267424
_publ_section_title
;
Structure prediction by ZEFSAII (Michael W. Deem and Ramdas Pophale) SiO2 
 PCOD9267424
Probable space group: C 2/C
;
_chemical_formula_sum "Si O2"
_cell_formula_units_Z 44
_cell_length_a 6.819769
_cell_length_b 12.093616
_cell_length_c 30.754777
_cell_angle_alpha 90.000000
_cell_angle_beta 133.102237
_cell_angle_gamma 90.000000
_cell_volume 1852.004106
_symmetry_space_group_name_H-M "C 2/C"
_symmetry_group_IT_number 15
_symmetry_cell_setting 'monoclinic'
loop_
_space_group_symop_operation_xyz
x,y,z
-x,y,1/2-z
-x,-y,-z
x,-y,1/2+z
1/2+x,1/2+y,z
1/2-x,1/2+y,1/2-z
1/2-x,1/2-y,-z
1/2+x,1/2-y,1/2+z
loop_
_atom_site_type_symbol
_atom_site_label
_atom_site_fract_x
_atom_site_fract_y
_atom_site_fract_z
Si Si1 0.968713 0.954060 0.636509
Si Si2 0.500000 0.217047 0.750000
Si Si3 0.777450 0.484989 0.265022
Si Si4 0.616529 0.665171 0.934011
Si Si5 0.187444 0.716710 0.039666
Si Si6 0.945588 0.372588 0.860737
O O1 0.930384 0.851067 0.598332
O O2 0.692311 0.945888 0.622860
O O3 0.971875 0.068951 0.611446
O O4 0.197331 0.952814 0.708183
O O5 0.632521 0.136361 0.734907
O O6 0.716064 0.292882 0.806055
O O7 0.500000 0.478563 0.250000
O O8 0.997276 0.546509 0.328192
O O9 0.406014 0.686272 0.941277
O O10 0.638031 0.783432 0.912077
O O11 0.915523 0.642634 0.996517
O O12 0.250000 0.750000 0.000000
#
# Coordination Sequence:
#
# PCOD9267424 Si02
#       6
#     8   4   8   8   8   8
#     4  10  19  39  63  86 122 165 199 255 317 361
#     4  12  20  40  64  86 130 170 200 252 310 370
#     4  10  22  40  60  94 124 163 209 250 314 380
#     4  10  21  42  64  85 127 164 200 264 313 359
#     4  10  23  40  62  92 120 161 214 259 311 371
#     4  10  21  41  62  91 132 161 205 261 308 378
#
# _framework density 23.758049
#
# number of rings (size 3 to 8) (size 9 to 14) (size 15 to 20)
#    0.000    1.818    4.545    0.545    0.000    2.182 
#   14.727    0.000    0.000    0.000    0.000    0.000 
#    0.000    0.000    0.000    0.000    0.000    0.000 
#
# Total GULP energy -122957.247071 kJ/mol
# GULP energy per Si atom -5588.965776 kJ/mol
# Density = 2.370397 g / cm^3
# Si number density = 23.758049 Si / 1000 Ang^3
#
#
#
# Elastic Constant Matrix: (Units=GPa)
#
#
# Indices 1 2 3 4 5 6 
#
# 1 91.0233 49.0175 40.8015 0.0000 -27.1152 0.0000
# 2 49.0175 100.3886 42.3946 0.0000 -25.2560 0.0000
# 3 40.8015 42.3946 132.6323 0.0000 -27.3553 0.0000
# 4 0.0000 0.0000 0.0000 33.9719 0.0000 -9.4833
# 5 -27.1152 -25.2560 -27.3553 0.0000 56.2482 0.0000
# 6 0.0000 0.0000 0.0000 -9.4833 0.0000 35.1481
#
#
#
# Elastic Compliance Matrix: (Units=1/GPa)
#
#
# Indices 1 2 3 4 5 6 
#
# 1 0.016500 -0.006052 -0.002291 0.000000 0.004123 0.000000
# 2 -0.006052 0.014497 -0.002258 0.000000 0.002494 0.000000
# 3 -0.002291 -0.002258 0.009480 0.000000 0.002492 0.000000
# 4 0.000000 0.000000 0.000000 0.031834 0.000000 0.008589
# 5 0.004123 0.002494 0.002492 0.000000 0.022097 0.000000
# 6 0.000000 0.000000 0.000000 0.008589 0.000000 0.030768
#
#
# Mechanical properties :
#
#
# Convention : Reuss Voigt Hill
#
# Bulk Modulus (GPa) = 51.87857 65.38570 58.63214
# Shear Modulus (GPa) = 32.72146 37.86237 35.29192
#
# Velocity S-wave (km/s) = 3.71520 3.99640 3.85836
# Velocity P-wave (km/s) = 6.34722 6.99115 6.67695
#
# Compressibility (1/GPa) = 0.01927578
#
# Stress axis : x y z
#
# Youngs Moduli (GPa) = 60.60442 68.97864 105.48305
#
# Poissons Ratio (x) = 0.41746 0.24169
# Poissons Ratio (y) = 0.36678 0.23815
# Poissons Ratio (z) = 0.13886 0.15574
#
# Static dielectric constant tensor:
#      x y z
#    x 1.965860 0.000000 -0.020310 
#    y 0.000000 1.868400 0.000000 
#    z -0.020310 0.000000 1.949480 
# 
# From -- ./inp_files/306945.got.cif
#   From: 2010.05.17/outbox.cif.g08.bks.cpg/sg15_154_cif.got.tgz:306945.got - 2010.06.03 18:47:42.
