data_PCOD9267225
_publ_section_title
;
Structure prediction by ZEFSAII (Michael W. Deem and Ramdas Pophale) SiO2 
 PCOD9267225
Probable space group: C 2/C
;
_chemical_formula_sum "Si O2"
_cell_formula_units_Z 48
_cell_length_a 9.527272
_cell_length_b 16.934669
_cell_length_c 14.714658
_cell_angle_alpha 90.000000
_cell_angle_beta 105.120504
_cell_angle_gamma 90.000000
_cell_volume 2291.888322
_symmetry_space_group_name_H-M "C 2/C"
_symmetry_group_IT_number 15
_symmetry_cell_setting 'monoclinic'
loop_
_space_group_symop_operation_xyz
x,y,z
-x,y,1/2-z
-x,-y,-z
x,-y,1/2+z
1/2+x,1/2+y,z
1/2-x,1/2+y,1/2-z
1/2-x,1/2-y,-z
1/2+x,1/2-y,1/2+z
loop_
_atom_site_type_symbol
_atom_site_label
_atom_site_fract_x
_atom_site_fract_y
_atom_site_fract_z
Si Si1 0.500000 0.336751 0.750000
Si Si2 0.879111 0.806699 0.549134
Si Si3 0.364848 0.939139 0.580346
Si Si4 0.211706 0.979586 0.737125
Si Si5 0.858170 0.822108 0.045331
Si Si6 0.500000 0.615286 0.750000
Si Si7 0.345574 0.935361 0.935559
O O1 0.452119 0.284204 0.657115
O O2 0.620718 0.398178 0.733060
O O3 0.750000 0.750000 0.500000
O O4 0.796494 0.887150 0.560726
O O5 0.997328 0.814047 0.490999
O O6 0.250000 0.750000 0.500000
O O7 0.230837 0.897636 0.507048
O O8 0.514219 0.891450 0.584653
O O9 0.391574 0.021690 0.534633
O O10 0.320807 0.960295 0.674380
O O11 0.295764 0.991938 0.845599
O O12 0.104487 0.054539 0.710898
O O13 0.908682 0.834836 0.159097
#
# Coordination Sequence:
#
# PCOD9267225 Si02
#       7
#     4   8   8   8   8   4   8
#     4   9  20  36  64  94 119 164 212 262 317 384
#     4  11  23  42  63  91 130 174 216 264 326 385
#     4  11  21  40  66  96 133 165 213 271 329 378
#     4  10  19  38  68  97 126 161 217 268 326 386
#     4  12  26  44  65  96 133 179 222 271 329 396
#     4  11  24  42  68 100 129 168 224 272 329 398
#     4  10  22  38  65  98 129 166 213 271 323 390
#
# _framework density 20.943428999999998
#
# number of rings (size 3 to 8) (size 9 to 14) (size 15 to 20)
#    0.000    1.333    3.333    2.500    0.000    2.667 
#    3.000    0.000    0.000    0.000    0.000    0.000 
#    0.000    0.000    0.000    0.000    0.000    0.000 
#
# Total GULP energy -133771.056310 kJ/mol
# GULP energy per Si atom -5573.794013 kJ/mol
# Density = 2.089576 g / cm^3
# Si number density = 20.943429 Si / 1000 Ang^3
#
#
#
# Elastic Constant Matrix: (Units=GPa)
#
#
# Indices 1 2 3 4 5 6 
#
# 1 142.5397 22.8081 41.2992 0.0000 -25.6356 0.0000
# 2 22.8081 36.0303 38.7682 0.0000 -1.6772 0.0000
# 3 41.2992 38.7682 124.6411 0.0000 -6.9455 0.0000
# 4 0.0000 0.0000 0.0000 26.1626 0.0000 17.5109
# 5 -25.6356 -1.6772 -6.9455 0.0000 47.9730 0.0000
# 6 0.0000 0.0000 0.0000 17.5109 0.0000 29.5684
#
#
#
# Elastic Compliance Matrix: (Units=1/GPa)
#
#
# Indices 1 2 3 4 5 6 
#
# 1 0.008844 -0.003764 -0.001516 0.000000 0.004375 0.000000
# 2 -0.003764 0.043326 -0.012356 0.000000 -0.002285 0.000000
# 3 -0.001516 -0.012356 0.012399 0.000000 0.000553 0.000000
# 4 0.000000 0.000000 0.000000 0.063322 0.000000 -0.037500
# 5 0.004375 -0.002285 0.000553 0.000000 0.023183 0.000000
# 6 0.000000 0.000000 0.000000 -0.037500 0.000000 0.056028
#
#
# Mechanical properties :
#
#
# Convention : Reuss Voigt Hill
#
# Bulk Modulus (GPa) = 34.13278 56.55132 45.34205
# Shear Modulus (GPa) = 19.83034 34.09651 26.96342
#
# Velocity S-wave (km/s) = 3.08044 4.03926 3.59199
# Velocity P-wave (km/s) = 5.38378 6.98675 6.23698
#
# Compressibility (1/GPa) = 0.02929735
#
# Stress axis : x y z
#
# Youngs Moduli (GPa) = 113.07282 23.08106 80.64890
#
# Poissons Ratio (x) = 0.08687 0.12226
# Poissons Ratio (y) = 0.42556 0.99652
# Poissons Ratio (z) = 0.17141 0.28519
#
# Static dielectric constant tensor:
#      x y z
#    x 1.821680 0.000000 0.081960 
#    y 0.000000 1.938720 0.000000 
#    z 0.081960 0.000000 1.730630 
# 
# From -- ./inp_files/87514.got.cif
#   From: 2010.05.17/outbox.cif.g08.bks.cpg/sg15_44_cif.got.tgz:87514.got - 2010.06.03 18:47:42.
