data_PCOD9267134
_publ_section_title
;
Structure prediction by ZEFSAII (Michael W. Deem and Ramdas Pophale) SiO2 
 PCOD9267134
Probable space group: C 2/C
;
_chemical_formula_sum "Si O2"
_cell_formula_units_Z 40
_cell_length_a 22.794233
_cell_length_b 5.487614
_cell_length_c 20.877858
_cell_angle_alpha 90.000000
_cell_angle_beta 36.395575
_cell_angle_gamma 90.000000
_cell_volume 1549.566950
_symmetry_space_group_name_H-M "C 2/C"
_symmetry_group_IT_number 15
_symmetry_cell_setting 'monoclinic'
loop_
_space_group_symop_operation_xyz
x,y,z
-x,y,1/2-z
-x,-y,-z
x,-y,1/2+z
1/2+x,1/2+y,z
1/2-x,1/2+y,1/2-z
1/2-x,1/2-y,-z
1/2+x,1/2-y,1/2+z
loop_
_atom_site_type_symbol
_atom_site_label
_atom_site_fract_x
_atom_site_fract_y
_atom_site_fract_z
Si Si1 0.761103 0.523902 0.813331
Si Si2 0.091062 0.273007 0.899360
Si Si3 0.903187 0.326559 0.999705
Si Si4 0.830674 0.233578 0.371669
Si Si5 0.631154 0.769850 0.615638
O O1 0.865381 0.463868 0.690621
O O2 0.683274 0.595191 0.827003
O O3 0.775068 0.736440 0.853261
O O4 0.703949 0.296291 0.895331
O O5 0.990289 0.172779 0.957894
O O6 0.082710 0.419973 0.973975
O O7 0.915393 0.313623 0.913081
O O8 0.750000 0.250000 0.500000
O O9 0.888443 0.488178 0.326574
O O10 0.889889 0.985346 0.330605
O O11 0.750000 0.750000 0.500000
#
# Coordination Sequence:
#
# PCOD9267134 Si02
#       5
#     8   8   8   8   8
#     4  12  22  41  67  94 137 175 229 283 343 416
#     4  11  25  40  64 101 130 182 225 281 350 406
#     4  11  23  42  66  94 138 172 233 279 343 415
#     4  10  20  35  68  96 124 176 220 265 344 400
#     4  10  19  38  65  98 124 178 215 273 341 397
#
# _framework density 25.813662999999998
#
# number of rings (size 3 to 8) (size 9 to 14) (size 15 to 20)
#    0.000    1.200    6.000    3.000    0.000    0.000 
#    0.000    1.000    0.000    2.400    0.000    0.000 
#    0.000    0.000    0.000    0.000    0.000    0.000 
#
# Total GULP energy -111802.211735 kJ/mol
# GULP energy per Si atom -5590.110587 kJ/mol
# Density = 2.575491 g / cm^3
# Si number density = 25.813663 Si / 1000 Ang^3
#
#
#
# Elastic Constant Matrix: (Units=GPa)
#
#
# Indices 1 2 3 4 5 6 
#
# 1 179.7788 42.6433 29.9675 0.0945 10.0569 -0.0015
# 2 42.6433 147.1547 8.6656 0.1352 9.0560 0.0118
# 3 29.9675 8.6656 78.0450 0.1885 -16.3477 -0.0982
# 4 0.0945 0.1352 0.1885 13.7623 -0.0987 9.6457
# 5 10.0569 9.0560 -16.3477 -0.0987 35.4908 0.0439
# 6 -0.0015 0.0118 -0.0982 9.6457 0.0439 41.7082
#
#
#
# Elastic Compliance Matrix: (Units=1/GPa)
#
#
# Indices 1 2 3 4 5 6 
#
# 1 0.006581 -0.001560 -0.002945 -0.000009 -0.002824 -0.000001
# 2 -0.001560 0.007387 -0.000579 -0.000078 -0.001710 0.000016
# 3 -0.002945 -0.000579 0.015732 -0.000180 0.008228 0.000070
# 4 -0.000009 -0.000078 -0.000180 0.086724 0.000206 -0.020057
# 5 -0.002824 -0.001710 0.008228 0.000206 0.033204 -0.000063
# 6 -0.000001 0.000016 0.000070 -0.020057 -0.000063 0.028615
#
#
# Mechanical properties :
#
#
# Convention : Reuss Voigt Hill
#
# Bulk Modulus (GPa) = 51.19811 63.05903 57.12857
# Shear Modulus (GPa) = 25.65114 39.77240 32.71177
#
# Velocity S-wave (km/s) = 3.15573 3.92950 3.56368
# Velocity P-wave (km/s) = 5.75803 6.71338 6.25398
#
# Compressibility (1/GPa) = 0.01953197
#
# Stress axis : x y z
#
# Youngs Moduli (GPa) = 151.94521 135.37249 63.56284
#
# Poissons Ratio (x) = 0.21118 0.18721
# Poissons Ratio (y) = 0.23703 0.03681
# Poissons Ratio (z) = 0.44752 0.07840
#
# Static dielectric constant tensor:
#      x y z
#    x 2.044310 0.000080 -0.045020 
#    y 0.000080 2.165510 0.000080 
#    z -0.045020 0.000080 2.015850 
# 
# From -- ./inp_files/254203.got.cif
#   From: 2010.05.17/outbox.cif.g08.bks.cpg/sg15_128_cif.got.tgz:254203.got - 2010.06.03 18:47:42.
