data_PCOD9267824
_publ_section_title
;
Structure prediction by ZEFSAII (Michael W. Deem and Ramdas Pophale) SiO2 
 PCOD9267824
Probable space group: C 2/C
;
_chemical_formula_sum "Si O2"
_cell_formula_units_Z 36
_cell_length_a 8.549186
_cell_length_b 14.828477
_cell_length_c 13.301381
_cell_angle_alpha 90.000000
_cell_angle_beta 82.376807
_cell_angle_gamma 90.000000
_cell_volume 1671.331723
_symmetry_space_group_name_H-M "C 2/C"
_symmetry_group_IT_number 15
_symmetry_cell_setting 'monoclinic'
loop_
_space_group_symop_operation_xyz
x,y,z
-x,y,1/2-z
-x,-y,-z
x,-y,1/2+z
1/2+x,1/2+y,z
1/2-x,1/2+y,1/2-z
1/2-x,1/2-y,-z
1/2+x,1/2-y,1/2+z
loop_
_atom_site_type_symbol
_atom_site_label
_atom_site_fract_x
_atom_site_fract_y
_atom_site_fract_z
Si Si1 0.394778 0.154345 0.350417
Si Si2 0.500000 0.151504 0.750000
Si Si3 0.435595 0.234267 0.973802
Si Si4 0.323378 0.636417 0.803552
Si Si5 0.121090 0.080760 0.487355
O O1 0.500000 0.120668 0.250000
O O2 0.498533 0.171012 0.442143
O O3 0.330495 0.254238 0.321849
O O4 0.253091 0.088092 0.390859
O O5 0.479708 0.202923 0.858137
O O6 0.675472 0.109885 0.747322
O O7 0.520820 0.328460 0.985764
O O8 0.250000 0.250000 0.000000
O O9 0.500000 0.613542 0.750000
O O10 0.296909 0.588190 0.911631
O O11 0.000000 0.000000 0.500000
#
# Coordination Sequence:
#
# PCOD9267824 Si02
#       5
#     8   4   8   8   8
#     4  10  19  40  66  94 133 172 230 280 323 399
#     4  12  18  36  70  96 128 168 232 278 326 382
#     4  11  22  37  67  98 127 173 233 275 326 404
#     4  10  20  38  65  98 128 171 227 280 328 397
#     4  11  22  42  64  95 137 176 216 279 348 402
#
# _framework density 21.539708000000001
#
# number of rings (size 3 to 8) (size 9 to 14) (size 15 to 20)
#    0.000    1.333    4.444    5.333    0.000    0.000 
#    2.000    1.111    9.778    0.000    2.889    0.000 
#    0.000    0.000    0.000    0.000    0.000    0.000 
#
# Total GULP energy -100503.413071 kJ/mol
# GULP energy per Si atom -5583.522948 kJ/mol
# Density = 2.149068 g / cm^3
# Si number density = 21.539708 Si / 1000 Ang^3
#
#
#
# Elastic Constant Matrix: (Units=GPa)
#
#
# Indices 1 2 3 4 5 6 
#
# 1 188.3642 30.6291 64.7230 0.0000 -13.5103 0.0000
# 2 30.6291 36.2911 40.4120 0.0000 -6.9780 0.0000
# 3 64.7230 40.4120 143.5674 0.0000 -20.0868 0.0000
# 4 0.0000 0.0000 0.0000 8.8104 0.0000 -8.6035
# 5 -13.5103 -6.9780 -20.0868 0.0000 56.5381 0.0000
# 6 0.0000 0.0000 0.0000 -8.6035 0.0000 15.9522
#
#
#
# Elastic Compliance Matrix: (Units=1/GPa)
#
#
# Indices 1 2 3 4 5 6 
#
# 1 0.006547 -0.003237 -0.001976 0.000000 0.000463 0.000000
# 2 -0.003237 0.041788 -0.010197 0.000000 0.000761 0.000000
# 3 -0.001976 -0.010197 0.011033 0.000000 0.002189 0.000000
# 4 0.000000 0.000000 0.000000 0.239790 0.000000 0.129326
# 5 0.000463 0.000761 0.002189 0.000000 0.018670 0.000000
# 6 0.000000 0.000000 0.000000 0.129326 0.000000 0.132436
#
#
# Mechanical properties :
#
#
# Convention : Reuss Voigt Hill
#
# Bulk Modulus (GPa) = 35.02746 71.08345 53.05546
# Shear Modulus (GPa) = 10.19162 31.75737 20.97449
#
# Velocity S-wave (km/s) = 2.17757 3.84391 3.12390
# Velocity P-wave (km/s) = 4.75600 7.26455 6.13975
#
# Compressibility (1/GPa) = 0.02854903
#
# Stress axis : x y z
#
# Youngs Moduli (GPa) = 152.73551 23.93036 90.63990
#
# Poissons Ratio (x) = 0.07745 0.17909
# Poissons Ratio (y) = 0.49435 0.92426
# Poissons Ratio (z) = 0.30177 0.24402
#
# Static dielectric constant tensor:
#      x y z
#    x 1.768060 0.000000 -0.030240 
#    y 0.000000 1.776420 0.000000 
#    z -0.030240 0.000000 1.807200 
# 
# From -- ./inp_files/76354.got.cif
#   From: 2010.05.17/outbox.cif.g08.bks.cpg/sg15_39_cif.got.tgz:76354.got - 2010.06.03 18:47:42.
