data_PCOD9267261
_publ_section_title
;
Structure prediction by ZEFSAII (Michael W. Deem and Ramdas Pophale) SiO2 
 PCOD9267261
Probable space group: C 2/C
;
_chemical_formula_sum "Si O2"
_cell_formula_units_Z 48
_cell_length_a 8.907960
_cell_length_b 11.630102
_cell_length_c 25.051348
_cell_angle_alpha 90.000000
_cell_angle_beta 123.215864
_cell_angle_gamma 90.000000
_cell_volume 2171.287442
_symmetry_space_group_name_H-M "C 2/C"
_symmetry_group_IT_number 15
_symmetry_cell_setting 'monoclinic'
loop_
_space_group_symop_operation_xyz
x,y,z
-x,y,1/2-z
-x,-y,-z
x,-y,1/2+z
1/2+x,1/2+y,z
1/2-x,1/2+y,1/2-z
1/2-x,1/2-y,-z
1/2+x,1/2-y,1/2+z
loop_
_atom_site_type_symbol
_atom_site_label
_atom_site_fract_x
_atom_site_fract_y
_atom_site_fract_z
Si Si1 0.280852 0.916323 0.852423
Si Si2 0.803687 0.768291 0.947749
Si Si3 0.314497 0.015539 0.585995
Si Si4 0.698087 0.839987 0.310024
Si Si5 0.630718 0.107898 0.013305
Si Si6 0.042023 0.136613 0.813896
O O1 0.481126 0.963770 0.878477
O O2 0.237274 0.797042 0.815072
O O3 0.262419 0.882074 0.911404
O O4 0.150599 0.022994 0.818679
O O5 0.802921 0.901405 0.932968
O O6 0.662865 0.704163 0.880984
O O7 0.996783 0.712418 0.978009
O O8 0.750000 0.750000 0.000000
O O9 0.292355 0.103880 0.629666
O O10 0.271912 0.076852 0.521898
O O11 0.500000 0.862426 0.250000
O O12 0.855077 0.894306 0.305232
O O13 0.500000 0.000000 0.000000
O O14 0.000000 0.201757 0.750000
#
# Coordination Sequence:
#
# PCOD9267261 Si02
#       6
#     8   8   8   8   8   8
#     4  11  22  47  71  98 137 181 227 283 344 413
#     4  12  20  41  75 103 136 182 230 279 345 413
#     4  11  23  42  69 100 137 178 220 283 345 409
#     4  12  28  45  65  98 139 178 238 286 337 416
#     4  10  19  38  73 100 136 178 221 278 350 410
#     4  12  25  45  69  99 137 185 231 285 351 411
#
# _framework density 22.1067
#
# number of rings (size 3 to 8) (size 9 to 14) (size 15 to 20)
#    0.000    0.667    8.333    1.500    0.000    2.667 
#    3.000    5.833    0.000    0.000    0.000    0.000 
#    0.000    0.000    0.000    0.000    0.000    0.000 
#
# Total GULP energy -134245.891771 kJ/mol
# GULP energy per Si atom -5593.578824 kJ/mol
# Density = 2.205638 g / cm^3
# Si number density = 22.106700 Si / 1000 Ang^3
#
#
#
# Elastic Constant Matrix: (Units=GPa)
#
#
# Indices 1 2 3 4 5 6 
#
# 1 57.6304 36.2326 17.5499 0.0000 -8.3449 0.0000
# 2 36.2326 105.4932 8.3368 0.0000 4.2133 0.0000
# 3 17.5499 8.3368 105.1606 0.0000 -14.0922 0.0000
# 4 0.0000 0.0000 0.0000 22.3499 0.0000 11.1154
# 5 -8.3449 4.2133 -14.0922 0.0000 34.6178 0.0000
# 6 0.0000 0.0000 0.0000 11.1154 0.0000 22.7914
#
#
#
# Elastic Compliance Matrix: (Units=1/GPa)
#
#
# Indices 1 2 3 4 5 6 
#
# 1 0.024234 -0.008349 -0.002606 0.000000 0.005797 0.000000
# 2 -0.008349 0.012495 -0.000075 0.000000 -0.003564 0.000000
# 3 -0.002606 -0.000075 0.010436 0.000000 0.003629 0.000000
# 4 0.000000 0.000000 0.000000 0.059070 0.000000 -0.028809
# 5 0.005797 -0.003564 0.003629 0.000000 0.032196 0.000000
# 6 0.000000 0.000000 0.000000 -0.028809 0.000000 0.057926
#
#
# Mechanical properties :
#
#
# Convention : Reuss Voigt Hill
#
# Bulk Modulus (GPa) = 39.83009 43.61367 41.72188
# Shear Modulus (GPa) = 22.04730 29.69616 25.87173
#
# Velocity S-wave (km/s) = 3.16145 3.66910 3.42469
# Velocity P-wave (km/s) = 5.60203 6.14176 5.87809
#
# Compressibility (1/GPa) = 0.02510665
#
# Stress axis : x y z
#
# Youngs Moduli (GPa) = 41.26452 80.03166 95.81852
#
# Poissons Ratio (x) = 0.66818 0.24966
# Poissons Ratio (y) = 0.34452 0.00717
# Poissons Ratio (z) = 0.10752 0.00599
#
# Static dielectric constant tensor:
#      x y z
#    x 1.796720 0.000000 0.005240 
#    y 0.000000 1.802960 0.000000 
#    z 0.005240 0.000000 1.830480 
# 
# From -- ./inp_files/287775.got.cif
#   From: 2010.05.17/outbox.cif.g08.bks.cpg/sg15_144_cif.got.tgz:287775.got - 2010.06.03 18:47:42.
