data_PCOD9267082
_publ_section_title
;
Structure prediction by ZEFSAII (Michael W. Deem and Ramdas Pophale) SiO2 
 PCOD9267082
Probable space group: C 2/C
;
_chemical_formula_sum "Si O2"
_cell_formula_units_Z 56
_cell_length_a 5.058954
_cell_length_b 26.891190
_cell_length_c 24.546378
_cell_angle_alpha 90.000000
_cell_angle_beta 125.783245
_cell_angle_gamma 90.000000
_cell_volume 2708.973554
_symmetry_space_group_name_H-M "C 2/C"
_symmetry_group_IT_number 15
_symmetry_cell_setting 'monoclinic'
loop_
_space_group_symop_operation_xyz
x,y,z
-x,y,1/2-z
-x,-y,-z
x,-y,1/2+z
1/2+x,1/2+y,z
1/2-x,1/2+y,1/2-z
1/2-x,1/2-y,-z
1/2+x,1/2-y,1/2+z
loop_
_atom_site_type_symbol
_atom_site_label
_atom_site_fract_x
_atom_site_fract_y
_atom_site_fract_z
Si Si1 0.887271 0.877517 0.794410
Si Si2 0.192792 0.660407 0.490289
Si Si3 0.875238 0.782224 0.173679
Si Si4 0.360555 0.064995 0.422789
Si Si5 0.833020 0.530952 0.544614
Si Si6 0.771572 0.224846 0.133446
Si Si7 0.580737 0.140761 0.923182
O O1 0.500000 0.872214 0.750000
O O2 0.000000 0.899306 0.750000
O O3 0.030976 0.910557 0.861009
O O4 0.063499 0.824060 0.820387
O O5 0.572791 0.666084 0.547402
O O6 0.128466 0.609047 0.448407
O O7 0.032457 0.704956 0.437832
O O8 0.000667 0.652780 0.523507
O O9 0.555325 0.747547 0.130505
O O10 0.727352 0.836594 0.145175
O O11 0.000000 0.777234 0.250000
O O12 0.143508 0.762969 0.163597
O O13 0.384212 0.050059 0.488989
O O14 0.425937 0.011507 0.403986
O O15 0.500000 0.500000 0.500000
O O16 0.858405 0.582301 0.580110
#
# Coordination Sequence:
#
# PCOD9267082 Si02
#       7
#     8   8   8   8   8   8   8
#     4  11  23  38  61  91 124 158 196 248 302 366
#     4  10  21  38  61  95 118 146 193 261 310 349
#     4  12  25  41  58  83 120 169 207 238 284 366
#     4   9  21  36  60  92 121 151 197 247 307 366
#     4  10  19  38  65  86 115 158 198 249 308 369
#     4  11  23  40  64  86 119 160 204 243 301 362
#     4  11  23  38  61  89 123 153 201 251 306 350
#
# _framework density 20.672035000000001
#
# number of rings (size 3 to 8) (size 9 to 14) (size 15 to 20)
#    0.000    1.429    1.429    4.286    2.000    5.714 
#    0.000    0.714    0.000    0.000    0.000    0.000 
#    0.000    0.000    0.000    0.000    0.000    0.000 
#
# Total GULP energy -156285.875401 kJ/mol
# GULP energy per Si atom -5581.638407 kJ/mol
# Density = 2.062498 g / cm^3
# Si number density = 20.672035 Si / 1000 Ang^3
#
#
#
# Elastic Constant Matrix: (Units=GPa)
#
#
# Indices 1 2 3 4 5 6 
#
# 1 71.6107 5.2526 10.8819 0.0000 14.7288 0.0000
# 2 5.2526 86.3473 36.8028 0.0000 11.5625 0.0000
# 3 10.8819 36.8028 60.2357 0.0000 22.1436 0.0000
# 4 0.0000 0.0000 0.0000 21.9959 0.0000 -0.1424
# 5 14.7288 11.5625 22.1436 0.0000 30.2875 0.0000
# 6 0.0000 0.0000 0.0000 -0.1424 0.0000 19.0528
#
#
#
# Elastic Compliance Matrix: (Units=1/GPa)
#
#
# Indices 1 2 3 4 5 6 
#
# 1 0.015517 0.000108 -0.000109 0.000000 -0.007507 0.000000
# 2 0.000108 0.015703 -0.010107 0.000000 0.001342 0.000000
# 3 -0.000109 -0.010107 0.029209 0.000000 -0.017443 0.000000
# 4 0.000000 0.000000 0.000000 0.045465 0.000000 0.000340
# 5 -0.007507 0.001342 -0.017443 0.000000 0.048908 0.000000
# 6 0.000000 0.000000 0.000000 0.000340 0.000000 0.052488
#
#
# Mechanical properties :
#
#
# Convention : Reuss Voigt Hill
#
# Bulk Modulus (GPa) = 24.86833 36.00760 30.43796
# Shear Modulus (GPa) = 20.75455 25.28433 23.01944
#
# Velocity S-wave (km/s) = 3.17202 3.50110 3.34062
# Velocity P-wave (km/s) = 5.04695 5.81377 5.44388
#
# Compressibility (1/GPa) = 0.04021179
#
# Stress axis : x y z
#
# Youngs Moduli (GPa) = 64.44471 63.68385 34.23630
#
# Poissons Ratio (x) = -0.00688 0.00375
# Poissons Ratio (y) = -0.00696 0.34602
# Poissons Ratio (z) = 0.00706 0.64364
#
# Static dielectric constant tensor:
#      x y z
#    x 1.798500 0.000000 0.005550 
#    y 0.000000 1.831200 0.000000 
#    z 0.005550 0.000000 1.748600 
# 
# From -- ./inp_files/261991.got.cif
#   From: 2010.05.17/outbox.cif.g08.bks.cpg/sg15_131_cif.got.tgz:261991.got - 2010.06.03 18:47:42.
