data_PCOD9267331
_publ_section_title
;
Structure prediction by ZEFSAII (Michael W. Deem and Ramdas Pophale) SiO2 
 PCOD9267331
Probable space group: C 2/C
;
_chemical_formula_sum "Si O2"
_cell_formula_units_Z 60
_cell_length_a 10.132034
_cell_length_b 17.629429
_cell_length_c 18.605469
_cell_angle_alpha 90.000000
_cell_angle_beta 85.414009
_cell_angle_gamma 90.000000
_cell_volume 3312.705769
_symmetry_space_group_name_H-M "C 2/C"
_symmetry_group_IT_number 15
_symmetry_cell_setting 'monoclinic'
loop_
_space_group_symop_operation_xyz
x,y,z
-x,y,1/2-z
-x,-y,-z
x,-y,1/2+z
1/2+x,1/2+y,z
1/2-x,1/2+y,1/2-z
1/2-x,1/2-y,-z
1/2+x,1/2-y,1/2+z
loop_
_atom_site_type_symbol
_atom_site_label
_atom_site_fract_x
_atom_site_fract_y
_atom_site_fract_z
Si Si1 0.845370 0.458252 0.085227
Si Si2 0.199016 0.491002 0.251359
Si Si3 0.000000 0.618747 0.250000
Si Si4 0.342613 0.201822 0.133771
Si Si5 0.210572 0.877404 0.371594
Si Si6 0.537256 0.478170 0.078693
Si Si7 0.410554 0.112946 0.996786
Si Si8 0.095564 0.901082 0.688527
O O1 0.688591 0.448372 0.078014
O O2 0.882446 0.539202 0.047848
O O3 0.865053 0.464450 0.170280
O O4 0.945190 0.398482 0.045017
O O5 0.219560 0.423408 0.195627
O O6 0.335196 0.530478 0.270092
O O7 0.115355 0.560366 0.222046
O O8 0.946256 0.669315 0.187383
O O9 0.312729 0.289752 0.144614
O O10 0.394343 0.183135 0.051535
O O11 0.208789 0.153687 0.153674
O O12 0.301691 0.884318 0.438624
O O13 0.069571 0.917746 0.389921
O O14 0.527870 0.555198 0.125930
O O15 0.500000 0.500000 0.000000
O O16 0.000000 0.861717 0.750000
#
# Coordination Sequence:
#
# PCOD9267331 Si02
#       8
#     8   8   4   8   8   8   8   8
#     4  10  21  37  64  90 123 158 217 259 293 369
#     4  10  20  37  61  92 114 159 215 254 295 369
#     4  10  20  38  62  84 124 160 208 248 296 382
#     4  11  24  41  61  93 130 162 199 257 324 372
#     4  12  24  37  69  93 125 160 206 265 319 355
#     4  11  20  36  61  96 116 155 215 257 297 366
#     4  11  21  40  62  90 126 167 200 256 314 370
#     4  10  19  39  60  84 122 163 201 251 303 369
#
# _framework density 18.112082999999998
#
# number of rings (size 3 to 8) (size 9 to 14) (size 15 to 20)
#    0.000    1.333    6.667    1.200    1.867    2.133 
#    3.600    0.667    0.000    0.000    0.000    0.000 
#    0.000    0.000    0.000    0.000    0.000    0.000 
#
# Total GULP energy -167425.104115 kJ/mol
# GULP energy per Si atom -5580.836804 kJ/mol
# Density = 1.807086 g / cm^3
# Si number density = 18.112083 Si / 1000 Ang^3
#
#
#
# Elastic Constant Matrix: (Units=GPa)
#
#
# Indices 1 2 3 4 5 6 
#
# 1 87.7846 24.8739 44.9056 0.0000 -10.6843 0.0000
# 2 24.8739 110.3925 64.8779 0.0000 -1.6528 0.0000
# 3 44.9056 64.8779 121.1097 0.0000 -7.6179 0.0000
# 4 0.0000 0.0000 0.0000 11.1301 0.0000 -4.6947
# 5 -10.6843 -1.6528 -7.6179 0.0000 28.7719 0.0000
# 6 0.0000 0.0000 0.0000 -4.6947 0.0000 18.2244
#
#
#
# Elastic Compliance Matrix: (Units=1/GPa)
#
#
# Indices 1 2 3 4 5 6 
#
# 1 0.014509 -0.000287 -0.004971 0.000000 0.004055 0.000000
# 2 -0.000287 0.013263 -0.007075 0.000000 -0.001218 0.000000
# 3 -0.004971 -0.007075 0.013981 0.000000 0.001449 0.000000
# 4 0.000000 0.000000 0.000000 0.100799 0.000000 0.025966
# 5 0.004055 -0.001218 0.001449 0.000000 0.036576 0.000000
# 6 0.000000 0.000000 0.000000 0.025966 0.000000 0.061560
#
#
# Mechanical properties :
#
#
# Convention : Reuss Voigt Hill
#
# Bulk Modulus (GPa) = 58.52252 65.40017 61.96135
# Shear Modulus (GPa) = 18.44672 23.93392 21.19032
#
# Velocity S-wave (km/s) = 3.19482 3.63910 3.42417
# Velocity P-wave (km/s) = 6.78164 7.33787 7.06523
#
# Compressibility (1/GPa) = 0.01708744
#
# Stress axis : x y z
#
# Youngs Moduli (GPa) = 68.92128 75.39703 71.52354
#
# Poissons Ratio (x) = 0.02165 0.35554
# Poissons Ratio (y) = 0.01979 0.50604
# Poissons Ratio (z) = 0.34260 0.53344
#
# Static dielectric constant tensor:
#      x y z
#    x 1.662290 0.000000 -0.007020 
#    y 0.000000 1.592660 0.000000 
#    z -0.007020 0.000000 1.640910 
# 
# From -- ./inp_files/232724.got.cif
#   From: 2010.05.17/outbox.cif.g08.bks.cpg/sg15_117_cif.got.tgz:232724.got - 2010.06.03 18:47:42.
