data_PCOD9267598
_publ_section_title
;
Structure prediction by ZEFSAII (Michael W. Deem and Ramdas Pophale) SiO2 
 PCOD9267598
Probable space group: C 2/C
;
_chemical_formula_sum "Si O2"
_cell_formula_units_Z 36
_cell_length_a 7.041633
_cell_length_b 23.887034
_cell_length_c 8.966966
_cell_angle_alpha 90.000000
_cell_angle_beta 105.150626
_cell_angle_gamma 90.000000
_cell_volume 1455.852517
_symmetry_space_group_name_H-M "C 2/C"
_symmetry_group_IT_number 15
_symmetry_cell_setting 'monoclinic'
loop_
_space_group_symop_operation_xyz
x,y,z
-x,y,1/2-z
-x,-y,-z
x,-y,1/2+z
1/2+x,1/2+y,z
1/2-x,1/2+y,1/2-z
1/2-x,1/2-y,-z
1/2+x,1/2-y,1/2+z
loop_
_atom_site_type_symbol
_atom_site_label
_atom_site_fract_x
_atom_site_fract_y
_atom_site_fract_z
Si Si1 0.842354 0.779630 0.375826
Si Si2 0.832927 0.942630 0.843183
Si Si3 0.332133 0.316804 0.843535
Si Si4 0.000000 0.366761 0.250000
Si Si5 0.670744 0.964032 0.107625
O O1 0.750000 0.750000 0.500000
O O2 0.806754 0.733789 0.238233
O O3 0.692345 0.830211 0.318155
O O4 0.052600 0.803090 0.477818
O O5 0.742266 0.879423 0.825164
O O6 0.000000 0.936956 0.750000
O O7 0.730024 0.998566 0.760647
O O8 0.846601 0.954296 0.024192
O O9 0.500000 0.317666 0.750000
O O10 0.068035 0.406488 0.130607
O O11 0.500000 0.000000 0.000000
#
# Coordination Sequence:
#
# PCOD9267598 Si02
#       5
#     8   8   8   4   8
#     4  10  19  39  68 104 135 195 229 303 350 433
#     4  11  25  45  73 103 146 192 241 301 360 436
#     4   9  20  37  70  97 139 180 243 287 361 411
#     4  12  24  40  76 100 152 182 248 290 366 432
#     4  12  26  45  68 109 145 195 240 297 365 436
#
# _framework density 24.727781
#
# number of rings (size 3 to 8) (size 9 to 14) (size 15 to 20)
#    0.000    1.333    5.556    0.667    9.333    1.778 
#    0.000    1.111    4.889    0.000    0.000    0.000 
#    0.000    0.000    0.000    0.000    0.000    0.000 
#
# Total GULP energy -100368.309292 kJ/mol
# GULP energy per Si atom -5576.017183 kJ/mol
# Density = 2.467150 g / cm^3
# Si number density = 24.727781 Si / 1000 Ang^3
#
#
#
# Elastic Constant Matrix: (Units=GPa)
#
#
# Indices 1 2 3 4 5 6 
#
# 1 93.9073 41.1448 47.3893 0.0000 -10.3709 0.0000
# 2 41.1448 177.7854 73.1719 0.0000 5.2637 0.0000
# 3 47.3893 73.1719 117.8640 0.0000 -4.4279 0.0000
# 4 0.0000 0.0000 0.0000 41.5294 0.0000 44.3811
# 5 -10.3709 5.2637 -4.4279 0.0000 50.0848 0.0000
# 6 0.0000 0.0000 0.0000 44.3811 0.0000 -255.4102
#
#
#
# Elastic Compliance Matrix: (Units=1/GPa)
#
#
# Indices 1 2 3 4 5 6 
#
# 1 0.013876 -0.001387 -0.004620 0.000000 0.002611 0.000000
# 2 -0.001387 0.007768 -0.004321 0.000000 -0.001486 0.000000
# 3 -0.004620 -0.004321 0.013049 0.000000 0.000651 0.000000
# 4 0.000000 0.000000 0.000000 0.020308 0.000000 0.003529
# 5 0.002611 -0.001486 0.000651 0.000000 0.020720 0.000000
# 6 0.000000 0.000000 0.000000 0.003529 0.000000 -0.003302
#
#
# Mechanical properties :
#
#
# Convention : Reuss Voigt Hill
#
# Bulk Modulus (GPa) = 71.23772 79.21872 75.22822
# Shear Modulus (GPa) = 51.14878 -17.56915 16.78981
#
# Velocity S-wave (km/s) = 4.55298 -2.66842 2.60856
# Velocity P-wave (km/s) = 7.51737 4.75520 6.28979
#
# Compressibility (1/GPa) = 0.01403751
#
# Stress axis : x y z
#
# Youngs Moduli (GPa) = 72.06530 128.73282 76.63655
#
# Poissons Ratio (x) = 0.17858 0.35405
# Poissons Ratio (y) = 0.09997 0.33111
# Poissons Ratio (z) = 0.33294 0.55620
#
# Static dielectric constant tensor:
#      x y z
#    x 2.023130 0.000000 -0.018200 
#    y 0.000000 1.937700 0.000000 
#    z -0.018200 0.000000 1.986850 
# 
# From -- ./inp_files/23165.got.cif
#   From: 2010.05.17/outbox.cif.g08.bks.cpg/sg15_12_cif.got.tgz:23165.got - 2010.06.03 18:47:42.
