data_PCOD9267790
_publ_section_title
;
Structure prediction by ZEFSAII (Michael W. Deem and Ramdas Pophale) SiO2 
 PCOD9267790
Probable space group: C 2/C
;
_chemical_formula_sum "Si O2"
_cell_formula_units_Z 48
_cell_length_a 16.668014
_cell_length_b 29.415781
_cell_length_c 9.585508
_cell_angle_alpha 90.000000
_cell_angle_beta 149.179427
_cell_angle_gamma 90.000000
_cell_volume 2407.948416
_symmetry_space_group_name_H-M "C 2/C"
_symmetry_group_IT_number 15
_symmetry_cell_setting 'monoclinic'
loop_
_space_group_symop_operation_xyz
x,y,z
-x,y,1/2-z
-x,-y,-z
x,-y,1/2+z
1/2+x,1/2+y,z
1/2-x,1/2+y,1/2-z
1/2-x,1/2-y,-z
1/2+x,1/2-y,1/2+z
loop_
_atom_site_type_symbol
_atom_site_label
_atom_site_fract_x
_atom_site_fract_y
_atom_site_fract_z
Si Si1 0.281770 0.226074 0.194560
Si Si2 0.820845 0.029755 0.532621
Si Si3 0.630615 0.227863 0.714428
Si Si4 0.672326 0.365834 0.444463
Si Si5 0.660895 0.967254 0.075070
Si Si6 0.157764 0.360766 0.077970
O O1 0.455717 0.235905 0.505648
O O2 0.151886 0.244038 0.104270
O O3 0.274685 0.172198 0.169884
O O4 0.250000 0.250000 0.000000
O O5 0.777841 0.082861 0.448871
O O6 0.795271 0.023534 0.659521
O O7 0.000000 0.022849 0.750000
O O8 0.703935 0.998590 0.269450
O O9 0.662359 0.175873 0.709549
O O10 0.750000 0.250000 0.000000
O O11 0.698406 0.356712 0.318060
O O12 0.500000 0.360469 0.250000
O O13 0.500000 0.976221 0.750000
O O14 0.655739 0.914195 0.113132
O O15 0.000000 0.352040 0.750000
#
# Coordination Sequence:
#
# PCOD9267790 Si02
#       6
#     8   8   8   8   8   8
#     4  12  22  41  67  86 115 164 209 241 295 374
#     4  10  21  39  61  93 128 159 203 255 307 360
#     4  12  25  41  59  92 126 151 195 263 312 350
#     4  10  20  36  64  93 115 160 219 245 284 368
#     4  10  21  38  65  91 122 163 208 251 302 364
#     4  10  19  40  65  86 120 171 210 240 298 384
#
# _framework density 19.933980999999999
#
# number of rings (size 3 to 8) (size 9 to 14) (size 15 to 20)
#    0.000    1.333    3.333    3.000    0.000    0.000 
#    3.000    1.667    0.000    0.000    0.000    0.000 
#    0.000    0.000    0.000    0.000    0.000    0.000 
#
# Total GULP energy -133924.010177 kJ/mol
# GULP energy per Si atom -5580.167091 kJ/mol
# Density = 1.988861 g / cm^3
# Si number density = 19.933981 Si / 1000 Ang^3
#
#
#
# Elastic Constant Matrix: (Units=GPa)
#
#
# Indices 1 2 3 4 5 6 
#
# 1 67.5029 16.8706 1.2989 0.0000 6.1425 0.0000
# 2 16.8706 104.6097 53.4468 0.0000 -10.8782 0.0000
# 3 1.2989 53.4468 74.5338 0.0000 -2.3318 0.0000
# 4 0.0000 0.0000 0.0000 32.5145 0.0000 -2.9092
# 5 6.1425 -10.8782 -2.3318 0.0000 29.8454 0.0000
# 6 0.0000 0.0000 0.0000 -2.9092 0.0000 29.4414
#
#
#
# Elastic Compliance Matrix: (Units=1/GPa)
#
#
# Indices 1 2 3 4 5 6 
#
# 1 0.016347 -0.004600 0.002863 0.000000 -0.004817 0.000000
# 2 -0.004600 0.017058 -0.011957 0.000000 0.006230 0.000000
# 3 0.002863 -0.011957 0.021840 0.000000 -0.003241 0.000000
# 4 0.000000 0.000000 0.000000 0.031030 0.000000 0.003066
# 5 -0.004817 0.006230 -0.003241 0.000000 0.036515 0.000000
# 6 0.000000 0.000000 0.000000 0.003066 0.000000 0.034269
#
#
# Mechanical properties :
#
#
# Convention : Reuss Voigt Hill
#
# Bulk Modulus (GPa) = 35.89793 43.31990 39.60891
# Shear Modulus (GPa) = 25.80887 30.02893 27.91890
#
# Velocity S-wave (km/s) = 3.60212 3.88547 3.74648
# Velocity P-wave (km/s) = 5.94541 6.47364 6.21514
#
# Compressibility (1/GPa) = 0.02785676
#
# Stress axis : x y z
#
# Youngs Moduli (GPa) = 61.17293 58.62338 45.78848
#
# Poissons Ratio (x) = 0.26967 -0.13109
# Poissons Ratio (y) = 0.28140 0.54749
# Poissons Ratio (z) = -0.17514 0.70096
#
# Static dielectric constant tensor:
#      x y z
#    x 1.776500 0.000000 0.023240 
#    y 0.000000 1.714290 0.000000 
#    z 0.023240 0.000000 1.664150 
# 
# From -- ./inp_files/52888.got.cif
#   From: 2010.05.17/outbox.cif.g08.bks.cpg/sg15_27_cif.got.tgz:52888.got - 2010.06.03 18:47:42.
