data_PCOD9267341
_publ_section_title
;
Structure prediction by ZEFSAII (Michael W. Deem and Ramdas Pophale) SiO2 
 PCOD9267341
Probable space group: C 2/C
;
_chemical_formula_sum "Si O2"
_cell_formula_units_Z 36
_cell_length_a 22.778614
_cell_length_b 9.464468
_cell_length_c 9.392593
_cell_angle_alpha 90.000000
_cell_angle_beta 130.376661
_cell_angle_gamma 90.000000
_cell_volume 1542.592651
_symmetry_space_group_name_H-M "C 2/C"
_symmetry_group_IT_number 15
_symmetry_cell_setting 'monoclinic'
loop_
_space_group_symop_operation_xyz
x,y,z
-x,y,1/2-z
-x,-y,-z
x,-y,1/2+z
1/2+x,1/2+y,z
1/2-x,1/2+y,1/2-z
1/2-x,1/2-y,-z
1/2+x,1/2-y,1/2+z
loop_
_atom_site_type_symbol
_atom_site_label
_atom_site_fract_x
_atom_site_fract_y
_atom_site_fract_z
Si Si1 0.636026 0.069547 0.650518
Si Si2 0.871379 0.877368 0.801609
Si Si3 0.000000 0.617680 0.250000
Si Si4 0.737029 0.925814 0.035191
Si Si5 0.103388 0.135725 0.825516
O O1 0.617393 0.212444 0.708164
O O2 0.559043 0.032127 0.441007
O O3 0.697357 0.109206 0.622530
O O4 0.675780 0.959600 0.816398
O O5 0.783422 0.924776 0.633229
O O6 0.920080 0.991124 0.788919
O O7 0.887865 0.897062 0.994222
O O8 0.048660 0.729217 0.230341
O O9 0.811290 0.834805 0.103219
#
# Coordination Sequence:
#
# PCOD9267341 Si02
#       5
#     8   8   4   8   8
#     4  11  22  38  61  85 123 155 197 239 299 340
#     4   9  19  36  60  88 114 151 194 249 278 341
#     4  10  24  38  58  90 126 154 182 252 304 338
#     4  10  19  39  60  89 113 156 202 241 273 368
#     4   9  19  38  59  89 119 147 199 245 287 345
#
# _framework density 23.337333000000001
#
# number of rings (size 3 to 8) (size 9 to 14) (size 15 to 20)
#    1.333    0.889    2.222    0.667    0.000    8.000 
#    0.000    0.000    0.000    6.667    0.000    0.000 
#    0.000    0.000    0.000    0.000    0.000    0.000 
#
# Total GULP energy -100430.374125 kJ/mol
# GULP energy per Si atom -5579.465229 kJ/mol
# Density = 2.328422 g / cm^3
# Si number density = 23.337333 Si / 1000 Ang^3
#
#
#
# Elastic Constant Matrix: (Units=GPa)
#
#
# Indices 1 2 3 4 5 6 
#
# 1 81.3297 26.9697 27.5653 0.0000 5.0896 0.0000
# 2 26.9697 64.3562 45.1831 0.0000 -5.6990 0.0000
# 3 27.5653 45.1831 121.6679 0.0000 19.0880 0.0000
# 4 0.0000 0.0000 0.0000 31.9006 0.0000 -5.8392
# 5 5.0896 -5.6990 19.0880 0.0000 38.7005 0.0000
# 6 0.0000 0.0000 0.0000 -5.8392 0.0000 27.8004
#
#
#
# Elastic Compliance Matrix: (Units=1/GPa)
#
#
# Indices 1 2 3 4 5 6 
#
# 1 0.014632 -0.005788 -0.000791 0.000000 -0.002386 0.000000
# 2 -0.005788 0.025547 -0.009631 0.000000 0.009273 0.000000
# 3 -0.000791 -0.009631 0.013203 0.000000 -0.007826 0.000000
# 4 0.000000 0.000000 0.000000 0.032601 0.000000 0.006847
# 5 -0.002386 0.009273 -0.007826 0.000000 0.031379 0.000000
# 6 0.000000 0.000000 0.000000 0.006847 0.000000 0.037409
#
#
# Mechanical properties :
#
#
# Convention : Reuss Voigt Hill
#
# Bulk Modulus (GPa) = 47.70495 51.86556 49.78525
# Shear Modulus (GPa) = 25.74967 30.85602 28.30284
#
# Velocity S-wave (km/s) = 3.32530 3.64012 3.48626
# Velocity P-wave (km/s) = 5.93543 6.31979 6.13063
#
# Compressibility (1/GPa) = 0.02096219
#
# Stress axis : x y z
#
# Youngs Moduli (GPa) = 68.34123 39.14409 75.74220
#
# Poissons Ratio (x) = 0.22655 0.05995
# Poissons Ratio (y) = 0.39554 0.72945
# Poissons Ratio (z) = 0.05409 0.37698
#
# Static dielectric constant tensor:
#      x y z
#    x 1.922460 0.000000 0.058850 
#    y 0.000000 1.998060 0.000000 
#    z 0.058850 0.000000 1.869800 
# 
# From -- ./inp_files/53872.got.cif
#   From: 2010.05.17/outbox.cif.g08.bks.cpg/sg15_27_cif.got.tgz:53872.got - 2010.06.03 18:47:42.
