data_PCOD9267050
_publ_section_title
;
Structure prediction by ZEFSAII (Michael W. Deem and Ramdas Pophale) SiO2 
 PCOD9267050
Probable space group: C 2/C
;
_chemical_formula_sum "Si O2"
_cell_formula_units_Z 56
_cell_length_a 8.048035
_cell_length_b 22.610079
_cell_length_c 20.504160
_cell_angle_alpha 90.000000
_cell_angle_beta 45.392146
_cell_angle_gamma 90.000000
_cell_volume 2656.263068
_symmetry_space_group_name_H-M "C 2/C"
_symmetry_group_IT_number 15
_symmetry_cell_setting 'monoclinic'
loop_
_space_group_symop_operation_xyz
x,y,z
-x,y,1/2-z
-x,-y,-z
x,-y,1/2+z
1/2+x,1/2+y,z
1/2-x,1/2+y,1/2-z
1/2-x,1/2-y,-z
1/2+x,1/2-y,1/2+z
loop_
_atom_site_type_symbol
_atom_site_label
_atom_site_fract_x
_atom_site_fract_y
_atom_site_fract_z
Si Si1 0.491515 0.482954 0.361036
Si Si2 0.000000 0.074943 0.250000
Si Si3 0.950518 0.353561 0.636621
Si Si4 0.547462 0.720328 0.814654
Si Si5 0.172273 0.457789 0.639322
Si Si6 0.941578 0.570738 0.661478
Si Si7 0.168836 0.623142 0.947692
Si Si8 0.000000 0.341893 0.250000
O O1 0.407366 0.531227 0.331810
O O2 0.591414 0.518228 0.394921
O O3 0.695993 0.445764 0.265806
O O4 0.300140 0.436118 0.433894
O O5 0.206135 0.115104 0.221676
O O6 0.969688 0.287208 0.655759
O O7 0.152350 0.393939 0.612966
O O8 0.971294 0.359004 0.552971
O O9 0.500000 0.718805 0.750000
O O10 0.351672 0.676816 0.897041
O O11 0.796889 0.695483 0.771200
O O12 0.000000 0.457359 0.750000
O O13 0.068541 0.508104 0.620741
O O14 0.904755 0.605680 0.605102
O O15 0.086105 0.613011 0.670172
#
# Coordination Sequence:
#
# PCOD9267050 Si02
#       8
#     8   4   8   8   8   8   8   4
#     4  11  19  37  70  94 128 168 222 266 325 400
#     4  12  23  42  64  96 131 174 220 260 334 418
#     4  12  27  42  63  93 140 174 214 278 336 397
#     4  12  25  45  73  94 128 184 228 265 329 399
#     4  10  19  38  64  91 129 168 216 260 327 398
#     4  11  18  37  70  99 125 164 215 280 321 389
#     4  12  23  42  66 101 130 169 224 284 331 374
#     4  12  21  42  76 100 119 172 234 276 314 398
#
# _framework density 21.082249000000001
#
# number of rings (size 3 to 8) (size 9 to 14) (size 15 to 20)
#    0.000    0.571    9.286    1.286    0.000    2.857 
#    0.000    2.143    0.000    0.000    0.000    0.000 
#    0.000    0.000    0.000    0.000    0.000    0.000 
#
# Total GULP energy -156507.336643 kJ/mol
# GULP energy per Si atom -5589.547737 kJ/mol
# Density = 2.103426 g / cm^3
# Si number density = 21.082249 Si / 1000 Ang^3
#
#
#
# Elastic Constant Matrix: (Units=GPa)
#
#
# Indices 1 2 3 4 5 6 
#
# 1 107.4748 49.3903 7.8836 0.0000 18.6641 0.0000
# 2 49.3903 165.1751 23.0202 0.0000 8.8582 0.0000
# 3 7.8836 23.0202 48.6488 0.0000 8.8597 0.0000
# 4 0.0000 0.0000 0.0000 17.5356 0.0000 10.5819
# 5 18.6641 8.8582 8.8597 0.0000 13.2439 0.0000
# 6 0.0000 0.0000 0.0000 10.5819 0.0000 29.1362
#
#
#
# Elastic Compliance Matrix: (Units=1/GPa)
#
#
# Indices 1 2 3 4 5 6 
#
# 1 0.014119 -0.003590 0.002957 0.000000 -0.019475 0.000000
# 2 -0.003590 0.007474 -0.003377 0.000000 0.002319 0.000000
# 3 0.002957 -0.003377 0.025077 0.000000 -0.018684 0.000000
# 4 0.000000 0.000000 0.000000 0.073034 0.000000 -0.026525
# 5 -0.019475 0.002319 -0.018684 0.000000 0.113899 0.000000
# 6 0.000000 0.000000 0.000000 -0.026525 0.000000 0.043955
#
#
# Mechanical properties :
#
#
# Convention : Reuss Voigt Hill
#
# Bulk Modulus (GPa) = 25.87265 53.54298 39.70782
# Shear Modulus (GPa) = 16.75260 28.05012 22.40136
#
# Velocity S-wave (km/s) = 2.82198 3.65157 3.26324
# Velocity P-wave (km/s) = 4.78717 6.57502 5.75100
#
# Compressibility (1/GPa) = 0.03865085
#
# Stress axis : x y z
#
# Youngs Moduli (GPa) = 70.82541 133.79991 39.87725
#
# Poissons Ratio (x) = 0.48029 -0.11793
# Poissons Ratio (y) = 0.25424 0.13467
# Poissons Ratio (z) = -0.20945 0.45187
#
# Static dielectric constant tensor:
#      x y z
#    x 1.802310 0.000000 0.006720 
#    y 0.000000 1.724260 0.000000 
#    z 0.006720 0.000000 1.777050 
# 
# From -- ./inp_files/233802.got.cif
#   From: 2010.05.17/outbox.cif.g08.bks.cpg/sg15_117_cif.got.tgz:233802.got - 2010.06.03 18:47:42.
