data_PCOD9267098
_publ_section_title
;
Structure prediction by ZEFSAII (Michael W. Deem and Ramdas Pophale) SiO2 
 PCOD9267098
Probable space group: C 2/C
;
_chemical_formula_sum "Si O2"
_cell_formula_units_Z 44
_cell_length_a 25.086470
_cell_length_b 13.381446
_cell_length_c 17.707035
_cell_angle_alpha 90.000000
_cell_angle_beta 161.632712
_cell_angle_gamma 90.000000
_cell_volume 1873.039044
_symmetry_space_group_name_H-M "C 2/C"
_symmetry_group_IT_number 15
_symmetry_cell_setting 'monoclinic'
loop_
_space_group_symop_operation_xyz
x,y,z
-x,y,1/2-z
-x,-y,-z
x,-y,1/2+z
1/2+x,1/2+y,z
1/2-x,1/2+y,1/2-z
1/2-x,1/2-y,-z
1/2+x,1/2-y,1/2+z
loop_
_atom_site_type_symbol
_atom_site_label
_atom_site_fract_x
_atom_site_fract_y
_atom_site_fract_z
Si Si1 0.261001 0.720891 0.320810
Si Si2 0.239950 0.490520 0.317192
Si Si3 0.466658 0.000648 0.825757
Si Si4 0.499679 0.344190 0.615903
Si Si5 0.193263 0.678504 0.069015
Si Si6 0.000000 0.654235 0.250000
O O1 0.226467 0.610066 0.305252
O O2 0.103192 0.793960 0.092559
O O3 0.313358 0.696140 0.304458
O O4 0.383307 0.777007 0.541591
O O5 0.419929 0.450751 0.530616
O O6 0.178876 0.452721 0.316986
O O7 0.102690 0.456565 0.069708
O O8 0.408340 0.918941 0.687071
O O9 0.577469 0.083705 0.932568
O O10 0.693219 0.338369 0.851510
O O11 0.431388 0.271880 0.589505
#
# Coordination Sequence:
#
# PCOD9267098 Si02
#       6
#     8   8   8   8   8   4
#     4   9  23  34  61  96 127 169 207 264 319 379
#     4  10  20  40  60  89 127 176 217 251 311 391
#     4  10  21  37  64  88 127 173 212 259 316 384
#     4  10  19  38  65  90 123 160 227 263 295 375
#     4   9  20  37  63  95 116 173 221 254 303 385
#     4  12  22  42  60 104 138 160 202 276 338 364
#
# _framework density 23.491236000000001
#
# number of rings (size 3 to 8) (size 9 to 14) (size 15 to 20)
#    1.091    1.091    1.818    1.091    5.091    3.636 
#    0.000    0.000    0.000    5.455    0.000    0.000 
#    0.000    0.000    0.000    0.000    0.000    0.000 
#
# Total GULP energy -122648.966432 kJ/mol
# GULP energy per Si atom -5574.953020 kJ/mol
# Density = 2.343777 g / cm^3
# Si number density = 23.491236 Si / 1000 Ang^3
#
#
#
# Elastic Constant Matrix: (Units=GPa)
#
#
# Indices 1 2 3 4 5 6 
#
# 1 122.6599 37.4187 63.8309 0.0000 6.4392 0.0000
# 2 37.4187 100.2572 31.9674 0.0001 -3.8961 0.0000
# 3 63.8309 31.9674 64.0662 0.0001 1.2394 0.0000
# 4 0.0000 0.0001 0.0001 16.7095 0.0000 -5.9540
# 5 6.4392 -3.8961 1.2394 0.0000 59.1037 0.0000
# 6 0.0000 0.0000 0.0000 -5.9540 0.0000 8.6732
#
#
#
# Elastic Compliance Matrix: (Units=1/GPa)
#
#
# Indices 1 2 3 4 5 6 
#
# 1 0.017188 -0.001221 -0.016484 0.000000 -0.001607 0.000000
# 2 -0.001221 0.011997 -0.004789 0.000000 0.001024 0.000000
# 3 -0.016484 -0.004789 0.034407 0.000000 0.000759 0.000000
# 4 0.000000 0.000000 0.000000 0.079225 0.000000 0.054386
# 5 -0.001607 0.001024 0.000759 0.000000 0.017146 0.000000
# 6 0.000000 0.000000 0.000000 0.054386 0.000000 0.152633
#
#
# Mechanical properties :
#
#
# Convention : Reuss Voigt Hill
#
# Bulk Modulus (GPa) = 53.75486 61.49079 57.62282
# Shear Modulus (GPa) = 13.74430 27.14837 20.44634
#
# Velocity S-wave (km/s) = 2.42147 3.40322 2.95342
# Velocity P-wave (km/s) = 5.54533 6.45565 6.01773
#
# Compressibility (1/GPa) = 0.01860297
#
# Stress axis : x y z
#
# Youngs Moduli (GPa) = 58.18093 83.35386 29.06349
#
# Poissons Ratio (x) = 0.10181 0.47909
# Poissons Ratio (y) = 0.07106 0.13919
# Poissons Ratio (z) = 0.95906 0.39919
#
# Static dielectric constant tensor:
#      x y z
#    x 1.882970 0.000000 0.075390 
#    y 0.000000 1.946320 0.000000 
#    z 0.075390 0.000000 1.604480 
# 
# From -- ./inp_files/219782.got.cif
#   From: 2010.05.17/outbox.cif.g08.bks.cpg/sg15_110_cif.got.tgz:219782.got - 2010.06.03 18:47:42.
