data_PCOD9267967
_publ_section_title
;
Structure prediction by ZEFSAII (Michael W. Deem and Ramdas Pophale) SiO2 
 PCOD9267967
Probable space group: C 2/C
;
_chemical_formula_sum "Si O2"
_cell_formula_units_Z 56
_cell_length_a 7.801926
_cell_length_b 15.465330
_cell_length_c 25.106242
_cell_angle_alpha 90.000000
_cell_angle_beta 54.271651
_cell_angle_gamma 90.000000
_cell_volume 2459.172202
_symmetry_space_group_name_H-M "C 2/C"
_symmetry_group_IT_number 15
_symmetry_cell_setting 'monoclinic'
loop_
_space_group_symop_operation_xyz
x,y,z
-x,y,1/2-z
-x,-y,-z
x,-y,1/2+z
1/2+x,1/2+y,z
1/2-x,1/2+y,1/2-z
1/2-x,1/2-y,-z
1/2+x,1/2-y,1/2+z
loop_
_atom_site_type_symbol
_atom_site_label
_atom_site_fract_x
_atom_site_fract_y
_atom_site_fract_z
Si Si1 0.873094 0.080656 0.222966
Si Si2 0.082091 0.781566 0.861595
Si Si3 0.427069 0.093035 0.352656
Si Si4 0.690914 0.151599 0.006146
Si Si5 0.394542 0.469646 0.391681
Si Si6 0.736411 0.135552 0.483513
Si Si7 0.470579 0.086415 0.625595
O O1 0.991946 0.163624 0.176088
O O2 0.000000 0.047247 0.250000
O O3 0.652773 0.114136 0.285453
O O4 0.895464 0.001290 0.177105
O O5 0.904950 0.790260 0.939687
O O6 0.118700 0.681216 0.841887
O O7 0.271180 0.843114 0.848391
O O8 0.365543 0.112469 0.425616
O O9 0.453016 0.987833 0.347946
O O10 0.480162 0.146309 0.009233
O O11 0.750000 0.250000 0.000000
O O12 0.875210 0.107586 0.937247
O O13 0.337932 0.550699 0.438741
O O14 0.209168 0.453941 0.381261
O O15 0.676907 0.110464 0.553729
#
# Coordination Sequence:
#
# PCOD9267967 Si02
#       7
#     8   8   8   8   8   8   8
#     4  11  23  47  69  88 132 186 230 286 359 417
#     4  11  26  41  64 101 139 180 228 298 359 425
#     4  12  22  43  68  99 138 179 230 294 355 417
#     4  11  21  39  70 105 134 177 236 289 348 433
#     4  10  19  41  69  94 130 180 232 276 347 436
#     4  10  19  41  63  92 141 176 222 278 351 418
#     4  11  20  40  68 101 132 180 231 282 352 431
#
# _framework density 22.771891
#
# number of rings (size 3 to 8) (size 9 to 14) (size 15 to 20)
#    0.000    1.143    4.286    4.286    0.000    0.571 
#   12.857    1.429    0.000    0.000    0.000    0.000 
#    0.000    0.000    0.000    0.000    0.000    0.000 
#
# Total GULP energy -156051.532081 kJ/mol
# GULP energy per Si atom -5573.269003 kJ/mol
# Density = 2.272006 g / cm^3
# Si number density = 22.771891 Si / 1000 Ang^3
#
#
#
# Elastic Constant Matrix: (Units=GPa)
#
#
# Indices 1 2 3 4 5 6 
#
# 1 40.9827 12.7284 17.9565 -0.0001 -2.9243 0.0002
# 2 12.7284 145.7636 25.8184 0.0000 7.0616 0.0001
# 3 17.9565 25.8184 103.5630 0.0001 -11.4602 0.0000
# 4 -0.0001 0.0000 0.0001 28.6035 -0.0001 5.5558
# 5 -2.9243 7.0616 -11.4602 -0.0001 32.2963 0.0000
# 6 0.0002 0.0001 0.0000 5.5558 0.0000 28.9163
#
#
#
# Elastic Compliance Matrix: (Units=1/GPa)
#
#
# Indices 1 2 3 4 5 6 
#
# 1 0.026807 -0.001684 -0.004079 0.000000 0.001348 0.000000
# 2 -0.001684 0.007450 -0.001835 0.000000 -0.002432 0.000000
# 3 -0.004079 -0.001835 0.011267 0.000000 0.004030 0.000000
# 4 0.000000 0.000000 0.000000 0.036316 0.000000 -0.006978
# 5 0.001348 -0.002432 0.004030 0.000000 0.033047 0.000000
# 6 0.000000 0.000000 0.000000 -0.006978 0.000000 0.035923
#
#
# Mechanical properties :
#
#
# Convention : Reuss Voigt Hill
#
# Bulk Modulus (GPa) = 32.97174 44.81287 38.89231
# Shear Modulus (GPa) = 28.39065 33.55029 30.97047
#
# Velocity S-wave (km/s) = 3.53475 3.84255 3.69186
# Velocity P-wave (km/s) = 5.58300 6.27763 5.94048
#
# Compressibility (1/GPa) = 0.03032900
#
# Stress axis : x y z
#
# Youngs Moduli (GPa) = 37.30382 134.22391 88.75860
#
# Poissons Ratio (x) = 0.22598 0.36205
# Poissons Ratio (y) = 0.06281 0.16284
# Poissons Ratio (z) = 0.15217 0.24625
#
# Static dielectric constant tensor:
#      x y z
#    x 1.918620 0.000000 -0.017390 
#    y 0.000000 1.835030 0.000000 
#    z -0.017390 0.000000 1.801770 
# 
# From -- ./inp_files/288373.got.cif
#   From: 2010.05.17/outbox.cif.g08.bks.cpg/sg15_145_cif.got.tgz:288373.got - 2010.06.03 18:47:42.
