data_PCOD9267208
_publ_section_title
;
Structure prediction by ZEFSAII (Michael W. Deem and Ramdas Pophale) SiO2 
 PCOD9267208
Probable space group: C 2/C
;
_chemical_formula_sum "Si O2"
_cell_formula_units_Z 56
_cell_length_a 6.514942
_cell_length_b 28.583017
_cell_length_c 13.943122
_cell_angle_alpha 90.000000
_cell_angle_beta 91.013102
_cell_angle_gamma 90.000000
_cell_volume 2596.036257
_symmetry_space_group_name_H-M "C 2/C"
_symmetry_group_IT_number 15
_symmetry_cell_setting 'monoclinic'
loop_
_space_group_symop_operation_xyz
x,y,z
-x,y,1/2-z
-x,-y,-z
x,-y,1/2+z
1/2+x,1/2+y,z
1/2-x,1/2+y,1/2-z
1/2-x,1/2-y,-z
1/2+x,1/2-y,1/2+z
loop_
_atom_site_type_symbol
_atom_site_label
_atom_site_fract_x
_atom_site_fract_y
_atom_site_fract_z
Si Si1 0.368492 0.755099 0.662371
Si Si2 0.569336 0.508307 0.646310
Si Si3 0.114107 0.420768 0.849796
Si Si4 0.694603 0.339274 0.536886
Si Si5 0.817967 0.201164 0.956920
Si Si6 0.076713 0.670010 0.651027
Si Si7 0.307493 0.965391 0.978659
O O1 0.500000 0.777978 0.750000
O O2 0.305403 0.792632 0.580590
O O3 0.529762 0.717297 0.625147
O O4 0.173239 0.721250 0.679672
O O5 0.500000 0.525361 0.750000
O O6 0.737065 0.466270 0.658391
O O7 0.365451 0.489198 0.590548
O O8 0.685628 0.544166 0.576148
O O9 0.255855 0.379991 0.889895
O O10 0.000000 0.412166 0.750000
O O11 0.927220 0.425337 0.924186
O O12 0.454356 0.328237 0.530745
O O13 0.770454 0.351134 0.428883
O O14 0.626638 0.175609 0.912606
O O15 0.750000 0.250000 0.000000
O O16 0.000000 0.646998 0.750000
O O17 0.500000 0.000000 0.000000
#
# Coordination Sequence:
#
# PCOD9267208 Si02
#       7
#     8   8   8   8   8   8   8
#     4  11  20  33  56  85 108 143 207 257 306 373
#     4  10  19  38  67  99 124 165 214 246 296 372
#     4  11  22  40  60  94 137 168 192 253 330 387
#     4  11  24  35  55  87 123 156 203 248 318 390
#     4  11  19  37  56  79 110 152 207 262 306 354
#     4  11  21  37  59  75 103 156 208 264 310 354
#     4   9  20  37  66  95 127 162 206 249 296 362
#
# _framework density 21.571345999999998
#
# number of rings (size 3 to 8) (size 9 to 14) (size 15 to 20)
#    0.000    1.429    5.714    1.286    0.000    1.143 
#    0.000    0.714    9.429    0.000    0.000    0.000 
#    0.000    0.000    0.000    0.000    0.000    0.000 
#
# Total GULP energy -156082.495598 kJ/mol
# GULP energy per Si atom -5574.374843 kJ/mol
# Density = 2.152225 g / cm^3
# Si number density = 21.571346 Si / 1000 Ang^3
#
#
#
# Elastic Constant Matrix: (Units=GPa)
#
#
# Indices 1 2 3 4 5 6 
#
# 1 128.9603 12.2855 49.1777 0.0000 12.9077 0.0000
# 2 12.2855 21.7008 19.7075 0.0000 4.4213 0.0000
# 3 49.1777 19.7075 120.8569 0.0000 10.8757 0.0000
# 4 0.0000 0.0000 0.0000 15.7854 0.0000 6.1697
# 5 12.9077 4.4213 10.8757 0.0000 43.4911 0.0000
# 6 0.0000 0.0000 0.0000 6.1697 0.0000 23.3927
#
#
#
# Elastic Compliance Matrix: (Units=1/GPa)
#
#
# Indices 1 2 3 4 5 6 
#
# 1 0.009390 -0.001916 -0.003351 0.000000 -0.001754 0.000000
# 2 -0.001916 0.054969 -0.007910 0.000000 -0.003041 0.000000
# 3 -0.003351 -0.007910 0.011014 0.000000 -0.000956 0.000000
# 4 0.000000 0.000000 0.000000 0.070631 0.000000 -0.018628
# 5 -0.001754 -0.003041 -0.000956 0.000000 0.024062 0.000000
# 6 0.000000 0.000000 0.000000 -0.018628 0.000000 0.047661
#
#
# Mechanical properties :
#
#
# Convention : Reuss Voigt Hill
#
# Bulk Modulus (GPa) = 20.40012 48.20661 34.30337
# Shear Modulus (GPa) = 19.19976 29.22367 24.21171
#
# Velocity S-wave (km/s) = 2.98662 3.68468 3.35386
# Velocity P-wave (km/s) = 4.62285 6.36384 5.56189
#
# Compressibility (1/GPa) = 0.04901932
#
# Stress axis : x y z
#
# Youngs Moduli (GPa) = 106.49439 18.19206 90.79726
#
# Poissons Ratio (x) = 0.03485 0.30423
# Poissons Ratio (y) = 0.20402 0.71823
# Poissons Ratio (z) = 0.35683 0.14390
#
# Static dielectric constant tensor:
#      x y z
#    x 1.927230 0.000000 -0.097190 
#    y 0.000000 1.792530 0.000000 
#    z -0.097190 0.000000 1.912710 
# 
# From -- ./inp_files/130766.got.cif
#   From: 2010.05.17/outbox.cif.g08.bks.cpg/sg15_66_cif.got.tgz:130766.got - 2010.06.03 18:47:42.
