data_PCOD9267381
_publ_section_title
;
Structure prediction by ZEFSAII (Michael W. Deem and Ramdas Pophale) SiO2 
 PCOD9267381
Probable space group: C 2/C
;
_chemical_formula_sum "Si O2"
_cell_formula_units_Z 48
_cell_length_a 23.924748
_cell_length_b 16.752881
_cell_length_c 18.123321
_cell_angle_alpha 90.000000
_cell_angle_beta 159.108348
_cell_angle_gamma 90.000000
_cell_volume 2590.349049
_symmetry_space_group_name_H-M "C 2/C"
_symmetry_group_IT_number 15
_symmetry_cell_setting 'monoclinic'
loop_
_space_group_symop_operation_xyz
x,y,z
-x,y,1/2-z
-x,-y,-z
x,-y,1/2+z
1/2+x,1/2+y,z
1/2-x,1/2+y,1/2-z
1/2-x,1/2-y,-z
1/2+x,1/2-y,1/2+z
loop_
_atom_site_type_symbol
_atom_site_label
_atom_site_fract_x
_atom_site_fract_y
_atom_site_fract_z
Si Si1 0.562554 0.309569 0.103721
Si Si2 0.878124 0.928148 0.446040
Si Si3 0.327032 0.461435 0.176204
Si Si4 0.739587 0.517720 0.075344
Si Si5 0.893089 0.483845 0.977222
Si Si6 0.761334 0.346065 0.720274
O O1 0.572945 0.347259 0.034095
O O2 0.656431 0.372201 0.271544
O O3 0.638658 0.223165 0.194018
O O4 0.387825 0.310622 0.920693
O O5 0.837944 0.939536 0.482480
O O6 0.719684 0.958608 0.210551
O O7 0.021587 0.989218 0.609360
O O8 0.177206 0.504297 0.028068
O O9 0.319389 0.465188 0.079068
O O10 0.705869 0.591580 0.088878
O O11 0.926832 0.506914 0.305192
O O12 0.861502 0.397650 0.902366
#
# Coordination Sequence:
#
# PCOD9267381 Si02
#       6
#     8   8   8   8   8   8
#     4  11  23  37  60  85 118 157 192 237 286 347
#     4  10  19  39  62  79 111 156 203 234 275 342
#     4  11  20  40  61  87 116 154 189 242 295 340
#     4  11  23  35  63  91 117 146 194 246 292 341
#     4  10  20  39  59  85 115 153 201 240 273 340
#     4  11  23  38  58  87 119 154 195 234 287 347
#
# _framework density 18.530321000000001
#
# number of rings (size 3 to 8) (size 9 to 14) (size 15 to 20)
#    0.000    1.333    5.000    4.000    7.000    0.667 
#    0.000    0.000    0.000    6.000    0.000    0.000 
#    0.000    0.000    0.000    0.000    0.000    0.000 
#
# Total GULP energy -133899.744184 kJ/mol
# GULP energy per Si atom -5579.156008 kJ/mol
# Density = 1.848814 g / cm^3
# Si number density = 18.530321 Si / 1000 Ang^3
#
#
#
# Elastic Constant Matrix: (Units=GPa)
#
#
# Indices 1 2 3 4 5 6 
#
# 1 28.4484 46.9476 -2.6184 -0.0048 23.6296 -0.0064
# 2 46.9476 5.3609 19.7835 0.0020 -24.8395 0.0021
# 3 -2.6184 19.7835 62.4544 -0.0016 20.3870 -0.0024
# 4 -0.0048 0.0020 -0.0016 18.9848 0.0014 12.8702
# 5 23.6296 -24.8395 20.3870 0.0014 25.8364 0.0015
# 6 -0.0064 0.0021 -0.0024 12.8702 0.0015 26.0286
#
#
#
# Elastic Compliance Matrix: (Units=1/GPa)
#
#
# Indices 1 2 3 4 5 6 
#
# 1 0.006889 0.011628 -0.006717 -0.000001 0.010179 0.000000
# 2 0.011628 0.000386 0.005004 0.000002 -0.014212 0.000003
# 3 -0.006717 0.005004 0.014236 -0.000001 -0.000278 0.000000
# 4 -0.000001 0.000002 -0.000001 0.079234 0.000002 -0.039178
# 5 0.010179 -0.014212 -0.000278 0.000002 0.015951 0.000002
# 6 0.000000 0.000003 0.000000 -0.039178 0.000002 0.057791
#
#
# Mechanical properties :
#
#
# Convention : Reuss Voigt Hill
#
# Bulk Modulus (GPa) = 24.18939 24.94323 24.56631
# Shear Modulus (GPa) = 29.68474 16.31336 22.99905
#
# Velocity S-wave (km/s) = 4.00678 2.97031 3.52683
# Velocity P-wave (km/s) = 5.87265 5.02530 5.46542
#
# Compressibility (1/GPa) = 0.04134045
#
# Stress axis : x y z
#
# Youngs Moduli (GPa) = 145.16452 2588.51894 70.24648
#
# Poissons Ratio (x) = -30.09897 0.47187
# Poissons Ratio (y) = -1.68795 -0.35154
# Poissons Ratio (z) = 0.97513 -12.95402
#
# Static dielectric constant tensor:
#      x y z
#    x 1.696490 0.000000 0.010880 
#    y 0.000000 1.622540 0.000000 
#    z 0.010880 0.000000 1.638830 
# 
# From -- ./inp_files/47974.got.cif
#   From: 2010.05.17/outbox.cif.g08.bks.cpg/sg15_24_cif.got.tgz:47974.got - 2010.06.03 18:47:42.
