data_PCOD9267538
_publ_section_title
;
Structure prediction by ZEFSAII (Michael W. Deem and Ramdas Pophale) SiO2 
 PCOD9267538
Probable space group: C 2/C
;
_chemical_formula_sum "Si O2"
_cell_formula_units_Z 40
_cell_length_a 12.336594
_cell_length_b 15.640990
_cell_length_c 7.713644
_cell_angle_alpha 90.000000
_cell_angle_beta 94.596259
_cell_angle_gamma 90.000000
_cell_volume 1483.611563
_symmetry_space_group_name_H-M "C 2/C"
_symmetry_group_IT_number 15
_symmetry_cell_setting 'monoclinic'
loop_
_space_group_symop_operation_xyz
x,y,z
-x,y,1/2-z
-x,-y,-z
x,-y,1/2+z
1/2+x,1/2+y,z
1/2-x,1/2+y,1/2-z
1/2-x,1/2-y,-z
1/2+x,1/2-y,1/2+z
loop_
_atom_site_type_symbol
_atom_site_label
_atom_site_fract_x
_atom_site_fract_y
_atom_site_fract_z
Si Si1 0.654214 0.151622 0.632870
Si Si2 0.068188 0.102327 0.481023
Si Si3 0.561558 0.093387 0.993701
Si Si4 0.364325 0.584776 0.619378
Si Si5 0.746388 0.306238 0.825815
O O1 0.541268 0.158035 0.517740
O O2 0.740207 0.089984 0.547811
O O3 0.726981 0.235801 0.676348
O O4 0.618550 0.107690 0.812430
O O5 0.128532 0.103187 0.675638
O O6 0.130191 0.151444 0.340669
O O7 0.950882 0.137703 0.519925
O O8 0.084392 0.007323 0.409106
O O9 0.653662 0.126120 0.142545
O O10 0.500000 0.000000 0.000000
O O11 0.750000 0.250000 0.000000
#
# Coordination Sequence:
#
# PCOD9267538 Si02
#       5
#     8   8   8   8   8
#     4  10  21  37  68  98 133 182 231 284 354 420
#     4  10  20  37  66  90 130 175 232 284 353 406
#     4  10  20  37  66 102 133 181 233 288 347 425
#     4  10  20  37  64  96 124 181 233 287 338 429
#     4  10  19  39  65  92 134 184 215 293 347 413
#
# _framework density 26.961234999999999
#
# number of rings (size 3 to 8) (size 9 to 14) (size 15 to 20)
#    0.000    2.000    4.000    1.200    0.000    0.000 
#    0.000   16.000   30.800   14.400    0.000    0.000 
#    0.000    0.000    0.000    0.000    0.000    0.000 
#
# Total GULP energy -111627.312033 kJ/mol
# GULP energy per Si atom -5581.365602 kJ/mol
# Density = 2.689987 g / cm^3
# Si number density = 26.961235 Si / 1000 Ang^3
#
#
#
# Elastic Constant Matrix: (Units=GPa)
#
#
# Indices 1 2 3 4 5 6 
#
# 1 190.4624 25.5027 55.6352 0.0000 -27.1067 0.0000
# 2 25.5027 112.0266 32.2362 0.0000 -6.0785 0.0000
# 3 55.6352 32.2362 130.5553 0.0000 9.1071 0.0000
# 4 0.0000 0.0000 0.0000 97.6336 0.0000 -120.4696
# 5 -27.1067 -6.0785 9.1071 0.0000 29.8233 0.0000
# 6 0.0000 0.0000 0.0000 -120.4696 0.0000 219.3604
#
#
#
# Elastic Compliance Matrix: (Units=1/GPa)
#
#
# Indices 1 2 3 4 5 6 
#
# 1 0.007475 -0.000215 -0.003682 0.000000 0.007875 0.000000
# 2 -0.000215 0.009840 -0.002518 0.000000 0.002579 0.000000
# 3 -0.003682 -0.002518 0.010340 0.000000 -0.007017 0.000000
# 4 0.000000 0.000000 0.000000 0.031773 0.000000 0.017449
# 5 0.007875 0.002579 -0.007017 0.000000 0.043357 0.000000
# 6 0.000000 0.000000 0.000000 0.017449 0.000000 0.014142
#
#
# Mechanical properties :
#
#
# Convention : Reuss Voigt Hill
#
# Bulk Modulus (GPa) = 67.45099 73.31026 70.38063
# Shear Modulus (GPa) = 37.12012 90.67480 63.89746
#
# Velocity S-wave (km/s) = 3.71455 5.80556 4.87352
# Velocity P-wave (km/s) = 6.59312 8.49644 7.60456
#
# Compressibility (1/GPa) = 0.01482558
#
# Stress axis : x y z
#
# Youngs Moduli (GPa) = 133.77161 101.62738 96.71389
#
# Poissons Ratio (x) = 0.02185 0.35609
# Poissons Ratio (y) = 0.02876 0.24352
# Poissons Ratio (z) = 0.49253 0.25589
#
# Static dielectric constant tensor:
#      x y z
#    x 1.704170 0.000000 0.096580 
#    y 0.000000 1.815570 0.000000 
#    z 0.096580 0.000000 2.172720 
# 
# From -- ./inp_files/30281.got.cif
#   From: 2010.05.17/outbox.cif.g08.bks.cpg/sg15_16_cif.got.tgz:30281.got - 2010.06.03 18:47:42.
