data_PCOD9267856
_publ_section_title
;
Structure prediction by ZEFSAII (Michael W. Deem and Ramdas Pophale) SiO2 
 PCOD9267856
Probable space group: C 2/C
;
_chemical_formula_sum "Si O2"
_cell_formula_units_Z 60
_cell_length_a 12.170850
_cell_length_b 14.699308
_cell_length_c 23.006127
_cell_angle_alpha 90.000000
_cell_angle_beta 133.366445
_cell_angle_gamma 90.000000
_cell_volume 2992.140244
_symmetry_space_group_name_H-M "C 2/C"
_symmetry_group_IT_number 15
_symmetry_cell_setting 'monoclinic'
loop_
_space_group_symop_operation_xyz
x,y,z
-x,y,1/2-z
-x,-y,-z
x,-y,1/2+z
1/2+x,1/2+y,z
1/2-x,1/2+y,1/2-z
1/2-x,1/2-y,-z
1/2+x,1/2-y,1/2+z
loop_
_atom_site_type_symbol
_atom_site_label
_atom_site_fract_x
_atom_site_fract_y
_atom_site_fract_z
Si Si1 0.000000 0.434510 0.250000
Si Si2 0.963391 0.098467 0.511083
Si Si3 0.896383 0.714582 0.263096
Si Si4 0.231285 0.821302 0.173754
Si Si5 0.445830 0.928393 0.028320
Si Si6 0.806308 0.791337 0.583081
Si Si7 0.072965 0.768708 0.605415
Si Si8 0.878737 0.441597 0.611726
O O1 0.115086 0.374133 0.254618
O O2 0.114093 0.495207 0.328794
O O3 0.991341 0.174040 0.471909
O O4 0.785823 0.099133 0.462357
O O5 0.086984 0.117667 0.604667
O O6 0.000000 0.000000 0.500000
O O7 0.830696 0.768334 0.293635
O O8 0.742331 0.693812 0.172887
O O9 0.000000 0.758810 0.250000
O O10 0.996773 0.634477 0.327689
O O11 0.274838 0.763701 0.131057
O O12 0.549814 0.838703 0.080715
O O13 0.423289 0.989215 0.077055
O O14 0.287463 0.884487 0.949223
O O15 0.500000 0.000000 0.000000
O O16 0.750000 0.750000 0.500000
O O17 0.982995 0.794165 0.631656
#
# Coordination Sequence:
#
# PCOD9267856 Si02
#       8
#     4   8   8   8   8   8   8   8
#     4  12  22  44  64 104 126 174 226 282 340 408
#     4  12  23  41  71 104 129 177 238 282 330 415
#     4  12  26  45  63  96 142 183 220 277 350 408
#     4  12  24  40  72 100 130 179 226 277 343 410
#     4  11  23  41  68  99 133 173 224 288 343 398
#     4  10  19  40  68 101 128 163 225 283 334 390
#     4  11  23  45  69  94 143 176 221 293 342 400
#     4  12  24  42  67  96 135 177 230 277 340 412
#
# _framework density 20.052537000000001
#
# number of rings (size 3 to 8) (size 9 to 14) (size 15 to 20)
#    0.000    0.533    6.000    4.800    0.000    1.600 
#    0.000    0.000    0.000    0.000    0.000    0.000 
#    0.000    0.000    0.000    0.000    0.000    0.000 
#
# Total GULP energy -167208.523669 kJ/mol
# GULP energy per Si atom -5573.617456 kJ/mol
# Density = 2.000690 g / cm^3
# Si number density = 20.052537 Si / 1000 Ang^3
#
#
#
# Elastic Constant Matrix: (Units=GPa)
#
#
# Indices 1 2 3 4 5 6 
#
# 1 100.5655 40.0610 12.9863 0.0000 17.5157 0.0000
# 2 40.0610 91.7391 9.2344 0.0000 6.5708 0.0000
# 3 12.9863 9.2344 56.1871 0.0000 24.1572 0.0000
# 4 0.0000 0.0000 0.0000 30.3602 0.0000 1.4054
# 5 17.5157 6.5708 24.1572 0.0000 44.0549 0.0000
# 6 0.0000 0.0000 0.0000 1.4054 0.0000 42.0716
#
#
#
# Elastic Compliance Matrix: (Units=1/GPa)
#
#
# Indices 1 2 3 4 5 6 
#
# 1 0.012800 -0.005262 -0.000318 0.000000 -0.004130 0.000000
# 2 -0.005262 0.013272 -0.001326 0.000000 0.000840 0.000000
# 3 -0.000318 -0.001326 0.023487 0.000000 -0.012555 0.000000
# 4 0.000000 0.000000 0.000000 0.032989 0.000000 -0.001102
# 5 -0.004130 0.000840 -0.012555 0.000000 0.031100 0.000000
# 6 0.000000 0.000000 0.000000 -0.001102 0.000000 0.023806
#
#
# Mechanical properties :
#
#
# Convention : Reuss Voigt Hill
#
# Bulk Modulus (GPa) = 27.97449 41.45057 34.71253
# Shear Modulus (GPa) = 30.64082 35.71132 33.17607
#
# Velocity S-wave (km/s) = 3.91324 4.22464 4.07192
# Velocity P-wave (km/s) = 5.86505 6.67178 6.28138
#
# Compressibility (1/GPa) = 0.03574686
#
# Stress axis : x y z
#
# Youngs Moduli (GPa) = 78.12338 75.34901 42.57691
#
# Poissons Ratio (x) = 0.39647 0.01354
# Poissons Ratio (y) = 0.41107 0.05646
# Poissons Ratio (z) = 0.02484 0.09992
#
# Static dielectric constant tensor:
#      x y z
#    x 1.744810 0.000000 0.035620 
#    y 0.000000 1.698090 0.000000 
#    z 0.035620 0.000000 1.818160 
# 
# From -- ./inp_files/269977.got.cif
#   From: 2010.05.17/outbox.cif.g08.bks.cpg/sg15_135_cif.got.tgz:269977.got - 2010.06.03 18:47:42.
