data_PCOD9267578
_publ_section_title
;
Structure prediction by ZEFSAII (Michael W. Deem and Ramdas Pophale) SiO2 
 PCOD9267578
Probable space group: C 2/C
;
_chemical_formula_sum "Si O2"
_cell_formula_units_Z 60
_cell_length_a 14.426892
_cell_length_b 17.809378
_cell_length_c 11.567963
_cell_angle_alpha 90.000000
_cell_angle_beta 94.505341
_cell_angle_gamma 90.000000
_cell_volume 2963.018633
_symmetry_space_group_name_H-M "C 2/C"
_symmetry_group_IT_number 15
_symmetry_cell_setting 'monoclinic'
loop_
_space_group_symop_operation_xyz
x,y,z
-x,y,1/2-z
-x,-y,-z
x,-y,1/2+z
1/2+x,1/2+y,z
1/2-x,1/2+y,1/2-z
1/2-x,1/2-y,-z
1/2+x,1/2-y,1/2+z
loop_
_atom_site_type_symbol
_atom_site_label
_atom_site_fract_x
_atom_site_fract_y
_atom_site_fract_z
Si Si1 0.594227 0.380255 0.206070
Si Si2 0.630409 0.328525 0.956070
Si Si3 0.138749 0.288070 0.100290
Si Si4 0.000000 0.199523 0.250000
Si Si5 0.844845 0.270851 0.661241
Si Si6 0.156217 0.350660 0.479630
Si Si7 0.698892 0.927886 0.240334
Si Si8 0.403371 0.918100 0.802701
O O1 0.500000 0.412908 0.250000
O O2 0.610804 0.299415 0.268406
O O3 0.689225 0.424499 0.242202
O O4 0.589646 0.364512 0.068800
O O5 0.569410 0.346821 0.838397
O O6 0.738246 0.352325 0.959938
O O7 0.631488 0.237333 0.966490
O O8 0.060955 0.252104 0.172732
O O9 0.235182 0.244983 0.137560
O O10 0.160720 0.373756 0.135585
O O11 0.115804 0.278103 0.963967
O O12 0.863341 0.345231 0.734431
O O13 0.161653 0.389709 0.355323
O O14 0.090676 0.394152 0.562486
O O15 0.662390 0.010794 0.219117
O O16 0.500000 0.935915 0.750000
#
# Coordination Sequence:
#
# PCOD9267578 Si02
#       8
#     8   8   8   4   8   8   8   8
#     4  10  19  39  67  87 114 156 210 249 301 360
#     4  10  20  35  64  92 117 154 203 257 303 352
#     4  10  22  36  58  85 124 155 198 253 298 344
#     4  12  20  30  60  94 118 148 196 254 298 352
#     4  10  21  39  58  90 118 154 200 253 301 350
#     4  10  21  42  59  82 125 165 199 243 306 366
#     4  10  24  40  56  87 123 170 196 242 304 368
#     4  12  26  37  61  89 123 162 201 247 299 369
#
# _framework density 20.24962
#
# number of rings (size 3 to 8) (size 9 to 14) (size 15 to 20)
#    0.000    1.600    2.667    2.000    4.667    0.533 
#    0.000    0.000    5.867    1.600    0.000    0.000 
#    0.000    0.000    0.000    0.000    0.000    0.000 
#
# Total GULP energy -167773.374724 kJ/mol
# GULP energy per Si atom -5592.445824 kJ/mol
# Density = 2.020353 g / cm^3
# Si number density = 20.249620 Si / 1000 Ang^3
#
#
#
# Elastic Constant Matrix: (Units=GPa)
#
#
# Indices 1 2 3 4 5 6 
#
# 1 68.0160 17.2719 28.3500 0.0000 -19.7804 0.0000
# 2 17.2719 65.3484 2.0368 0.0000 -2.7921 0.0000
# 3 28.3500 2.0368 82.1116 0.0000 -9.1850 0.0000
# 4 0.0000 0.0000 0.0000 7.1182 0.0000 0.2945
# 5 -19.7804 -2.7921 -9.1850 0.0000 41.2642 0.0000
# 6 0.0000 0.0000 0.0000 0.2945 0.0000 -1.0927
#
#
#
# Elastic Compliance Matrix: (Units=1/GPa)
#
#
# Indices 1 2 3 4 5 6 
#
# 1 0.020974 -0.004994 -0.006185 0.000000 0.008339 0.000000
# 2 -0.004994 0.016542 0.001201 0.000000 -0.001007 0.000000
# 3 -0.006185 0.001201 0.014318 0.000000 0.000304 0.000000
# 4 0.000000 0.000000 0.000000 0.138936 0.000000 0.037441
# 5 0.008339 -0.001007 0.000304 0.000000 0.028231 0.000000
# 6 0.000000 0.000000 0.000000 0.037441 0.000000 -0.905040
#
#
# Mechanical properties :
#
#
# Convention : Reuss Voigt Hill
#
# Bulk Modulus (GPa) = 31.36911 34.53261 32.95086
# Shear Modulus (GPa) = -7.62826 20.64576 6.50875
#
# Velocity S-wave (km/s) = -1.94301 3.19652 1.79478
# Velocity P-wave (km/s) = 3.23900 5.54204 4.53901
#
# Compressibility (1/GPa) = 0.03187849
#
# Stress axis : x y z
#
# Youngs Moduli (GPa) = 47.67843 60.45164 69.84182
#
# Poissons Ratio (x) = 0.30192 0.43195
# Poissons Ratio (y) = 0.23813 -0.08391
# Poissons Ratio (z) = 0.29488 -0.07262
#
# Static dielectric constant tensor:
#      x y z
#    x 1.759230 0.000000 -0.010290 
#    y 0.000000 1.662360 0.000000 
#    z -0.010290 0.000000 1.732130 
# 
# From -- ./inp_files/98313.got.cif
#   From: 2010.05.17/outbox.cif.g08.bks.cpg/sg15_50_cif.got.tgz:98313.got - 2010.06.03 18:47:42.
