data_PCOD9267835
_publ_section_title
;
Structure prediction by ZEFSAII (Michael W. Deem and Ramdas Pophale) SiO2 
 PCOD9267835
Probable space group: C 2/C
;
_chemical_formula_sum "Si O2"
_cell_formula_units_Z 44
_cell_length_a 7.599433
_cell_length_b 25.757852
_cell_length_c 10.074314
_cell_angle_alpha 90.000000
_cell_angle_beta 106.647367
_cell_angle_gamma 90.000000
_cell_volume 1889.343138
_symmetry_space_group_name_H-M "C 2/C"
_symmetry_group_IT_number 15
_symmetry_cell_setting 'monoclinic'
loop_
_space_group_symop_operation_xyz
x,y,z
-x,y,1/2-z
-x,-y,-z
x,-y,1/2+z
1/2+x,1/2+y,z
1/2-x,1/2+y,1/2-z
1/2-x,1/2-y,-z
1/2+x,1/2-y,1/2+z
loop_
_atom_site_type_symbol
_atom_site_label
_atom_site_fract_x
_atom_site_fract_y
_atom_site_fract_z
Si Si1 0.323883 0.718533 0.888038
Si Si2 0.699146 0.095428 0.235928
Si Si3 0.929772 0.554490 0.552974
Si Si4 0.384133 0.491141 0.345714
Si Si5 0.355709 0.704815 0.341564
Si Si6 0.500000 0.862597 0.250000
O O1 0.290312 0.752181 0.745311
O O2 0.176973 0.671559 0.832650
O O3 0.250000 0.750000 0.000000
O O4 0.530786 0.708384 0.993740
O O5 0.500000 0.082495 0.250000
O O6 0.759258 0.149369 0.309664
O O7 0.831404 0.049081 0.297683
O O8 0.683693 0.088995 0.075688
O O9 0.201767 0.536744 0.856554
O O10 0.058368 0.599511 0.640695
O O11 0.000000 0.500000 0.500000
O O12 0.500000 0.467206 0.250000
O O13 0.500000 0.500000 0.500000
O O14 0.500000 0.705252 0.250000
#
# Coordination Sequence:
#
# PCOD9267835 Si02
#       6
#     8   8   8   8   8   4
#     4  10  19  40  67 106 139 184 254 311 380 456
#     4  12  25  44  69 100 150 203 248 310 382 455
#     4  12  25  45  70 106 151 203 253 303 379 463
#     4  12  26  45  70 105 148 193 257 320 373 450
#     4  10  21  39  69 101 137 183 251 310 380 449
#     4  12  24  38  76 104 146 200 250 310 384 458
#
# _framework density 23.288513999999999
#
# number of rings (size 3 to 8) (size 9 to 14) (size 15 to 20)
#    0.000    0.727    6.364    3.818    2.545    0.000 
#    0.000    0.909    0.000    0.000    0.000    0.000 
#    0.000    0.000    0.000    0.000    0.000    0.000 
#
# Total GULP energy -122528.539116 kJ/mol
# GULP energy per Si atom -5569.479051 kJ/mol
# Density = 2.323551 g / cm^3
# Si number density = 23.288514 Si / 1000 Ang^3
#
#
#
# Elastic Constant Matrix: (Units=GPa)
#
#
# Indices 1 2 3 4 5 6 
#
# 1 105.4224 32.4752 32.0172 0.0000 -7.2975 0.0000
# 2 32.4752 72.9420 80.0381 0.0000 13.5027 0.0000
# 3 32.0172 80.0381 209.8453 0.0000 30.1831 0.0000
# 4 0.0000 0.0000 0.0000 67.6602 0.0000 18.7868
# 5 -7.2975 13.5027 30.1831 0.0000 35.5339 0.0000
# 6 0.0000 0.0000 0.0000 18.7868 0.0000 41.4529
#
#
#
# Elastic Compliance Matrix: (Units=1/GPa)
#
#
# Indices 1 2 3 4 5 6 
#
# 1 0.011690 -0.005812 -0.000262 0.000000 0.004832 0.000000
# 2 -0.005812 0.026537 -0.008672 0.000000 -0.003911 0.000000
# 3 -0.000262 -0.008672 0.008711 0.000000 -0.004158 0.000000
# 4 0.000000 0.000000 0.000000 0.016907 0.000000 -0.007663
# 5 0.004832 -0.003911 -0.004158 0.000000 0.034152 0.000000
# 6 0.000000 0.000000 0.000000 -0.007663 0.000000 0.027597
#
#
# Mechanical properties :
#
#
# Convention : Reuss Voigt Hill
#
# Bulk Modulus (GPa) = 57.31857 75.25230 66.28543
# Shear Modulus (GPa) = 31.07498 45.17469 38.12483
#
# Velocity S-wave (km/s) = 3.65684 4.40908 4.05046
# Velocity P-wave (km/s) = 6.51888 7.63565 7.09926
#
# Compressibility (1/GPa) = 0.01744635
#
# Stress axis : x y z
#
# Youngs Moduli (GPa) = 85.54401 37.68333 114.79520
#
# Poissons Ratio (x) = 0.21900 0.03007
# Poissons Ratio (y) = 0.49714 0.99554
# Poissons Ratio (z) = 0.02241 0.32680
#
# Static dielectric constant tensor:
#      x y z
#    x 1.923370 0.000000 -0.015430 
#    y 0.000000 1.845250 0.000000 
#    z -0.015430 0.000000 1.632670 
# 
# From -- ./inp_files/81554.got.cif
#   From: 2010.05.17/outbox.cif.g08.bks.cpg/sg15_41_cif.got.tgz:81554.got - 2010.06.03 18:47:42.
