data_PCOD9267931
_publ_section_title
;
Structure prediction by ZEFSAII (Michael W. Deem and Ramdas Pophale) SiO2 
 PCOD9267931
Probable space group: C 2/C
;
_chemical_formula_sum "Si O2"
_cell_formula_units_Z 56
_cell_length_a 20.301695
_cell_length_b 9.579919
_cell_length_c 14.172669
_cell_angle_alpha 90.000000
_cell_angle_beta 96.863789
_cell_angle_gamma 90.000000
_cell_volume 2736.667376
_symmetry_space_group_name_H-M "C 2/C"
_symmetry_group_IT_number 15
_symmetry_cell_setting 'monoclinic'
loop_
_space_group_symop_operation_xyz
x,y,z
-x,y,1/2-z
-x,-y,-z
x,-y,1/2+z
1/2+x,1/2+y,z
1/2-x,1/2+y,1/2-z
1/2-x,1/2-y,-z
1/2+x,1/2-y,1/2+z
loop_
_atom_site_type_symbol
_atom_site_label
_atom_site_fract_x
_atom_site_fract_y
_atom_site_fract_z
Si Si1 0.209242 0.908953 0.678911
Si Si2 0.182912 0.636086 0.565327
Si Si3 0.310750 0.335897 0.460662
Si Si4 0.845355 0.324152 0.656621
Si Si5 0.468875 0.985798 0.151889
Si Si6 0.919202 0.609023 0.446301
Si Si7 0.828379 0.018522 0.638108
O O1 0.177001 0.787177 0.610988
O O2 0.284140 0.858254 0.714125
O O3 0.213115 0.055113 0.623041
O O4 0.169519 0.928039 0.767858
O O5 0.185419 0.652888 0.453196
O O6 0.121675 0.534805 0.574324
O O7 0.251450 0.567586 0.611385
O O8 0.250000 0.250000 0.500000
O O9 0.365764 0.231450 0.429246
O O10 0.343765 0.429713 0.548578
O O11 0.904348 0.431583 0.675858
O O12 0.866500 0.163301 0.661316
O O13 0.500000 0.916176 0.250000
O O14 0.520355 0.098375 0.116058
O O15 0.447924 0.893054 0.058342
#
# Coordination Sequence:
#
# PCOD9267931 Si02
#       7
#     8   8   8   8   8   8   8
#     4  11  23  35  62  94 122 160 190 246 321 359
#     4  10  19  41  59  82 128 159 190 244 308 363
#     4  12  22  38  59  97 127 149 196 261 302 363
#     4  10  20  42  59  84 123 168 195 242 304 365
#     4  10  23  40  63  84 116 168 210 242 284 363
#     4  10  23  40  64  91 118 157 208 250 298 346
#     4  11  22  34  60  94 125 153 196 245 308 363
#
# _framework density 20.462844
#
# number of rings (size 3 to 8) (size 9 to 14) (size 15 to 20)
#    0.000    1.429    4.286    1.714    8.000    1.143 
#    0.000    0.714    0.000    0.857    0.000    0.000 
#    0.000    0.000    0.000    0.000    0.000    0.000 
#
# Total GULP energy -156431.896462 kJ/mol
# GULP energy per Si atom -5586.853445 kJ/mol
# Density = 2.041627 g / cm^3
# Si number density = 20.462844 Si / 1000 Ang^3
#
#
#
# Elastic Constant Matrix: (Units=GPa)
#
#
# Indices 1 2 3 4 5 6 
#
# 1 33.8155 10.1606 -1.1334 0.0000 4.7541 0.0000
# 2 10.1606 75.0539 6.1886 0.0000 4.1932 0.0000
# 3 -1.1334 6.1886 59.1096 0.0000 15.9216 0.0000
# 4 0.0000 0.0000 0.0000 22.0972 0.0000 -7.2125
# 5 4.7541 4.1932 15.9216 0.0000 23.2294 0.0000
# 6 0.0000 0.0000 0.0000 -7.2125 0.0000 12.7283
#
#
#
# Elastic Compliance Matrix: (Units=1/GPa)
#
#
# Indices 1 2 3 4 5 6 
#
# 1 0.032054 -0.004156 0.003207 0.000000 -0.008008 0.000000
# 2 -0.004156 0.014040 -0.001344 0.000000 -0.000762 0.000000
# 3 0.003207 -0.001344 0.021133 0.000000 -0.014898 0.000000
# 4 0.000000 0.000000 0.000000 0.055524 0.000000 0.031462
# 5 -0.008008 -0.000762 -0.014898 0.000000 0.055037 0.000000
# 6 0.000000 0.000000 0.000000 0.031462 0.000000 0.096393
#
#
# Mechanical properties :
#
#
# Convention : Reuss Voigt Hill
#
# Bulk Modulus (GPa) = 15.96442 22.04564 19.00503
# Shear Modulus (GPa) = 16.68621 21.79521 19.24071
#
# Velocity S-wave (km/s) = 2.85869 3.26715 3.06972
# Velocity P-wave (km/s) = 4.32605 5.00292 4.67675
#
# Compressibility (1/GPa) = 0.06263928
#
# Stress axis : x y z
#
# Youngs Moduli (GPa) = 31.19694 71.22568 47.31952
#
# Poissons Ratio (x) = 0.29605 -0.15174
# Poissons Ratio (y) = 0.12967 0.06361
# Poissons Ratio (z) = -0.10004 0.09575
#
# Static dielectric constant tensor:
#      x y z
#    x 1.743290 0.000000 0.005030 
#    y 0.000000 1.731080 0.000000 
#    z 0.005030 0.000000 1.759500 
# 
# From -- ./inp_files/166661.got.cif
#   From: 2010.05.17/outbox.cif.g08.bks.cpg/sg15_84_cif.got.tgz:166661.got - 2010.06.03 18:47:42.
