data_PCOD9267077
_publ_section_title
;
Structure prediction by ZEFSAII (Michael W. Deem and Ramdas Pophale) SiO2 
 PCOD9267077
Probable space group: C 2/C
;
_chemical_formula_sum "Si O2"
_cell_formula_units_Z 52
_cell_length_a 20.984168
_cell_length_b 9.331221
_cell_length_c 17.049155
_cell_angle_alpha 90.000000
_cell_angle_beta 34.807880
_cell_angle_gamma 90.000000
_cell_volume 1905.623996
_symmetry_space_group_name_H-M "C 2/C"
_symmetry_group_IT_number 15
_symmetry_cell_setting 'monoclinic'
loop_
_space_group_symop_operation_xyz
x,y,z
-x,y,1/2-z
-x,-y,-z
x,-y,1/2+z
1/2+x,1/2+y,z
1/2-x,1/2+y,1/2-z
1/2-x,1/2-y,-z
1/2+x,1/2-y,1/2+z
loop_
_atom_site_type_symbol
_atom_site_label
_atom_site_fract_x
_atom_site_fract_y
_atom_site_fract_z
Si Si1 0.664079 0.068354 0.506268
Si Si2 0.897485 0.297995 0.123966
Si Si3 0.731844 0.427320 0.950762
Si Si4 0.000000 0.882412 0.250000
Si Si5 0.343619 0.656870 0.596779
Si Si6 0.541311 0.085223 0.344407
Si Si7 0.608036 0.498263 0.797876
O O1 0.721562 0.047462 0.533461
O O2 0.635808 0.218512 0.490407
O O3 0.550440 0.978859 0.621099
O O4 0.760119 0.001282 0.354736
O O5 0.969632 0.313547 0.973162
O O6 0.766104 0.279806 0.248474
O O7 0.918587 0.448765 0.145722
O O8 0.927347 0.166013 0.149687
O O9 0.685742 0.517757 0.924631
O O10 0.846361 0.351305 0.806282
O O11 0.626429 0.336195 0.090011
O O12 0.957397 0.959276 0.214194
O O13 0.405007 0.589739 0.610453
#
# Coordination Sequence:
#
# PCOD9267077 Si02
#       7
#     8   8   8   4   8   8   8
#     4  10  20  37  65 103 137 172 231 294 345 409
#     4   9  20  37  63 100 135 179 235 286 344 418
#     4  10  22  39  62  99 140 179 231 289 355 405
#     4  10  24  42  62  98 148 182 232 286 354 426
#     4  10  20  38  64 101 138 182 226 286 358 417
#     4  10  19  38  64  99 131 179 232 292 346 406
#     4  10  21  41  67  99 142 187 228 286 352 423
#
# _framework density 27.287648999999998
#
# number of rings (size 3 to 8) (size 9 to 14) (size 15 to 20)
#    0.000    2.154    1.538    0.923    2.154    1.846 
#    0.000    0.000    0.000    0.923    4.000    1.077 
#    0.000    0.000    0.000    0.000    0.000    0.000 
#
# Total GULP energy -145105.877282 kJ/mol
# GULP energy per Si atom -5580.995280 kJ/mol
# Density = 2.722554 g / cm^3
# Si number density = 27.287649 Si / 1000 Ang^3
#
#
#
# Elastic Constant Matrix: (Units=GPa)
#
#
# Indices 1 2 3 4 5 6 
#
# 1 163.3132 64.6928 25.9729 0.0000 29.3908 0.0000
# 2 64.6928 83.9422 21.3937 0.0002 23.1645 -0.0002
# 3 25.9729 21.3937 210.1144 0.0000 -12.8314 0.0000
# 4 0.0000 0.0002 0.0000 -7.7408 0.0000 49.2449
# 5 29.3908 23.1645 -12.8314 0.0000 48.4569 0.0000
# 6 0.0000 -0.0002 0.0000 49.2449 0.0000 -0.1501
#
#
#
# Elastic Compliance Matrix: (Units=1/GPa)
#
#
# Indices 1 2 3 4 5 6 
#
# 1 0.009157 -0.006107 -0.000682 0.000000 -0.002816 0.000000
# 2 -0.006107 0.018522 -0.001469 0.000000 -0.005540 0.000000
# 3 -0.000682 -0.001469 0.005145 0.000000 0.002478 0.000000
# 4 0.000000 0.000000 0.000000 0.000062 0.000000 0.020316
# 5 -0.002816 -0.005540 0.002478 0.000000 0.025649 0.000000
# 6 0.000000 0.000000 0.000000 0.020316 0.000000 0.003194
#
#
# Mechanical properties :
#
#
# Convention : Reuss Voigt Hill
#
# Bulk Modulus (GPa) = 61.31890 75.72094 68.51992
# Shear Modulus (GPa) = 59.75031 31.13388 45.44210
#
# Velocity S-wave (km/s) = 4.68444 3.38146 4.08523
# Velocity P-wave (km/s) = 7.19575 6.56164 6.88600
#
# Compressibility (1/GPa) = 0.01630819
#
# Stress axis : x y z
#
# Youngs Moduli (GPa) = 109.20122 53.98853 194.37831
#
# Poissons Ratio (x) = 0.32969 0.13260
# Poissons Ratio (y) = 0.66685 0.28562
# Poissons Ratio (z) = 0.07449 0.07933
#
# Static dielectric constant tensor:
#      x y z
#    x 2.180590 0.000000 -0.140530 
#    y 0.000000 2.127570 0.000000 
#    z -0.140530 0.000000 2.264690 
# 
# From -- ./inp_files/219504.got.cif
#   From: 2010.05.17/outbox.cif.g08.bks.cpg/sg15_110_cif.got.tgz:219504.got - 2010.06.03 18:47:42.
