data_PCOD9267787
_publ_section_title
;
Structure prediction by ZEFSAII (Michael W. Deem and Ramdas Pophale) SiO2 
 PCOD9267787
Probable space group: C 2/C
;
_chemical_formula_sum "Si O2"
_cell_formula_units_Z 56
_cell_length_a 14.593799
_cell_length_b 11.071835
_cell_length_c 19.705255
_cell_angle_alpha 90.000000
_cell_angle_beta 126.702011
_cell_angle_gamma 90.000000
_cell_volume 2552.769027
_symmetry_space_group_name_H-M "C 2/C"
_symmetry_group_IT_number 15
_symmetry_cell_setting 'monoclinic'
loop_
_space_group_symop_operation_xyz
x,y,z
-x,y,1/2-z
-x,-y,-z
x,-y,1/2+z
1/2+x,1/2+y,z
1/2-x,1/2+y,1/2-z
1/2-x,1/2-y,-z
1/2+x,1/2-y,1/2+z
loop_
_atom_site_type_symbol
_atom_site_label
_atom_site_fract_x
_atom_site_fract_y
_atom_site_fract_z
Si Si1 0.695870 0.384444 0.976341
Si Si2 0.202567 0.654112 0.720553
Si Si3 0.440921 0.640853 0.415993
Si Si4 0.573662 0.211156 0.226777
Si Si5 0.183687 0.479751 0.592132
Si Si6 0.720800 0.005807 0.851432
Si Si7 0.976227 0.321088 0.541302
O O1 0.564402 0.388915 0.941214
O O2 0.713088 0.436873 0.908550
O O3 0.750000 0.250000 0.000000
O O4 0.765518 0.460455 0.064109
O O5 0.109678 0.746886 0.649923
O O6 0.323937 0.714484 0.760466
O O7 0.202335 0.531527 0.675613
O O8 0.186023 0.621140 0.791181
O O9 0.344297 0.538678 0.377497
O O10 0.454009 0.691577 0.498488
O O11 0.500000 0.281189 0.250000
O O12 0.494323 0.175385 0.129038
O O13 0.631776 0.099653 0.292814
O O14 0.091298 0.373267 0.557737
O O15 0.124019 0.589973 0.525976
#
# Coordination Sequence:
#
# PCOD9267787 Si02
#       7
#     8   8   8   8   8   8   8
#     4  12  24  39  64  97 122 159 215 258 305 376
#     4  10  23  41  63  88 126 171 203 250 327 371
#     4  10  23  41  64  91 125 170 206 257 317 377
#     4  11  23  38  63  93 121 158 212 264 305 369
#     4  10  21  38  64  89 120 164 207 252 305 375
#     4  11  24  42  63  91 131 165 204 262 325 365
#     4  10  19  40  65  85 123 166 205 247 321 373
#
# _framework density 21.936962999999999
#
# number of rings (size 3 to 8) (size 9 to 14) (size 15 to 20)
#    0.000    1.429    2.857    2.143    0.000    3.429 
#    0.000    5.714    0.000    0.000    0.000    0.000 
#    0.000    0.000    0.000    0.000    0.000    0.000 
#
# Total GULP energy -156560.032850 kJ/mol
# GULP energy per Si atom -5591.429745 kJ/mol
# Density = 2.188703 g / cm^3
# Si number density = 21.936963 Si / 1000 Ang^3
#
#
#
# Elastic Constant Matrix: (Units=GPa)
#
#
# Indices 1 2 3 4 5 6 
#
# 1 55.6696 -4.9168 12.0343 0.0000 -8.4856 0.0000
# 2 -4.9168 33.4019 9.0467 0.0000 2.2840 0.0000
# 3 12.0343 9.0467 43.6909 0.0000 3.6228 0.0000
# 4 0.0000 0.0000 0.0000 29.6593 0.0000 1.0406
# 5 -8.4856 2.2840 3.6228 0.0000 21.8997 0.0000
# 6 0.0000 0.0000 0.0000 1.0406 0.0000 -6.2608
#
#
#
# Elastic Compliance Matrix: (Units=1/GPa)
#
#
# Indices 1 2 3 4 5 6 
#
# 1 0.021392 0.004585 -0.007593 0.000000 0.009067 0.000000
# 2 0.004585 0.032810 -0.008030 0.000000 -0.000317 0.000000
# 3 -0.007593 -0.008030 0.027190 0.000000 -0.006603 0.000000
# 4 0.000000 0.000000 0.000000 0.033521 0.000000 0.005571
# 5 0.009067 -0.000317 -0.006603 0.000000 0.050301 0.000000
# 6 0.000000 0.000000 0.000000 0.005571 0.000000 -0.158798
#
#
# Mechanical properties :
#
#
# Convention : Reuss Voigt Hill
#
# Bulk Modulus (GPa) = 16.85922 18.34344 17.60133
# Shear Modulus (GPa) = 103.59629 16.83285 60.21457
#
# Velocity S-wave (km/s) = 6.87947 2.77307 5.24485
# Velocity P-wave (km/s) = 8.41455 4.31663 6.68723
#
# Compressibility (1/GPa) = 0.05931474
#
# Stress axis : x y z
#
# Youngs Moduli (GPa) = 46.74730 30.47846 36.77834
#
# Poissons Ratio (x) = -0.13976 0.27927
# Poissons Ratio (y) = -0.21436 0.29535
# Poissons Ratio (z) = 0.35497 0.24476
#
# Static dielectric constant tensor:
#      x y z
#    x 1.766130 0.000000 0.020800 
#    y 0.000000 1.819820 0.000000 
#    z 0.020800 0.000000 1.825710 
# 
# From -- ./inp_files/181882.got.cif
#   From: 2010.05.17/outbox.cif.g08.bks.cpg/sg15_91_cif.got.tgz:181882.got - 2010.06.03 18:47:42.
