data_PCOD9267111
_publ_section_title
;
Structure prediction by ZEFSAII (Michael W. Deem and Ramdas Pophale) SiO2 
 PCOD9267111
Probable space group: C 2/C
;
_chemical_formula_sum "Si O2"
_cell_formula_units_Z 44
_cell_length_a 9.059833
_cell_length_b 16.092198
_cell_length_c 16.254868
_cell_angle_alpha 90.000000
_cell_angle_beta 58.188468
_cell_angle_gamma 90.000000
_cell_volume 2013.858225
_symmetry_space_group_name_H-M "C 2/C"
_symmetry_group_IT_number 15
_symmetry_cell_setting 'monoclinic'
loop_
_space_group_symop_operation_xyz
x,y,z
-x,y,1/2-z
-x,-y,-z
x,-y,1/2+z
1/2+x,1/2+y,z
1/2-x,1/2+y,1/2-z
1/2-x,1/2-y,-z
1/2+x,1/2-y,1/2+z
loop_
_atom_site_type_symbol
_atom_site_label
_atom_site_fract_x
_atom_site_fract_y
_atom_site_fract_z
Si Si1 0.890972 0.020567 0.362128
Si Si2 0.301590 0.157095 0.009899
Si Si3 0.876209 0.157780 0.879277
Si Si4 0.500000 0.030964 0.250000
Si Si5 0.141387 0.420463 0.334552
Si Si6 0.040661 0.664166 0.095606
O O1 0.859378 0.093184 0.435795
O O2 0.000000 0.047573 0.250000
O O3 0.966092 0.931525 0.369098
O O4 0.701605 0.989155 0.384559
O O5 0.383447 0.160057 0.077302
O O6 0.250000 0.250000 0.000000
O O7 0.453094 0.117965 0.908540
O O8 0.785697 0.148028 0.815728
O O9 0.967563 0.244976 0.861967
O O10 0.715438 0.159690 0.990338
O O11 0.548925 0.091662 0.160716
O O12 0.639141 0.968303 0.249434
#
# Coordination Sequence:
#
# PCOD9267111 Si02
#       6
#     8   8   8   4   8   8
#     4  10  20  41  64  89 127 166 211 273 313 370
#     4  11  22  45  65  91 131 176 216 260 320 387
#     4   8  19  40  63  85 123 165 210 256 312 377
#     4  12  20  36  68  94 116 170 212 258 322 380
#     4   9  21  42  63  87 128 167 213 255 325 379
#     4  10  19  38  65  93 120 168 215 258 308 387
#
# _framework density 21.848609
#
# number of rings (size 3 to 8) (size 9 to 14) (size 15 to 20)
#    1.091    1.091    1.818    1.636    1.273    0.000 
#   18.000    0.909    0.000    0.000    0.000    0.000 
#    0.000    0.000    0.000    0.000    0.000    0.000 
#
# Total GULP energy -122481.654278 kJ/mol
# GULP energy per Si atom -5567.347922 kJ/mol
# Density = 2.179888 g / cm^3
# Si number density = 21.848609 Si / 1000 Ang^3
#
#
#
# Elastic Constant Matrix: (Units=GPa)
#
#
# Indices 1 2 3 4 5 6 
#
# 1 42.5482 56.6017 24.6683 0.0000 11.5139 0.0000
# 2 56.6017 144.5162 65.0001 0.0000 0.1406 0.0000
# 3 24.6683 65.0001 66.5869 0.0000 2.1891 0.0000
# 4 0.0000 0.0000 0.0000 45.8095 0.0000 13.4187
# 5 11.5139 0.1406 2.1891 0.0000 36.5243 0.0000
# 6 0.0000 0.0000 0.0000 13.4187 0.0000 38.5367
#
#
#
# Elastic Compliance Matrix: (Units=1/GPa)
#
#
# Indices 1 2 3 4 5 6 
#
# 1 0.059782 -0.024448 0.002339 0.000000 -0.018892 0.000000
# 2 -0.024448 0.022351 -0.013037 0.000000 0.008402 0.000000
# 3 0.002339 -0.013037 0.026953 0.000000 -0.002303 0.000000
# 4 0.000000 0.000000 0.000000 0.024309 0.000000 -0.008465
# 5 -0.018892 0.008402 -0.002303 0.000000 0.033440 0.000000
# 6 0.000000 0.000000 0.000000 -0.008465 0.000000 0.028897
#
#
# Mechanical properties :
#
#
# Convention : Reuss Voigt Hill
#
# Bulk Modulus (GPa) = 25.77692 60.68796 43.23244
# Shear Modulus (GPa) = 17.92400 31.33282 24.62841
#
# Velocity S-wave (km/s) = 2.86732 3.79104 3.36107
# Velocity P-wave (km/s) = 4.77343 6.85562 5.90700
#
# Compressibility (1/GPa) = 0.03879439
#
# Stress axis : x y z
#
# Youngs Moduli (GPa) = 16.72739 44.74123 37.10113
#
# Poissons Ratio (x) = 1.09385 -0.08680
# Poissons Ratio (y) = 0.40896 0.48369
# Poissons Ratio (z) = -0.03913 0.58329
#
# Static dielectric constant tensor:
#      x y z
#    x 1.859210 0.000000 -0.009730 
#    y 0.000000 1.823750 0.000000 
#    z -0.009730 0.000000 1.832100 
# 
# From -- ./inp_files/197157.got.cif
#   From: 2010.05.17/outbox.cif.g08.bks.cpg/sg15_99_cif.got.tgz:197157.got - 2010.06.03 18:47:42.
