data_PCOD9267323
_publ_section_title
;
Structure prediction by ZEFSAII (Michael W. Deem and Ramdas Pophale) SiO2 
 PCOD9267323
Probable space group: C 2/C
;
_chemical_formula_sum "Si O2"
_cell_formula_units_Z 52
_cell_length_a 12.927113
_cell_length_b 13.575995
_cell_length_c 13.615097
_cell_angle_alpha 90.000000
_cell_angle_beta 65.740638
_cell_angle_gamma 90.000000
_cell_volume 2178.429400
_symmetry_space_group_name_H-M "C 2/C"
_symmetry_group_IT_number 15
_symmetry_cell_setting 'monoclinic'
loop_
_space_group_symop_operation_xyz
x,y,z
-x,y,1/2-z
-x,-y,-z
x,-y,1/2+z
1/2+x,1/2+y,z
1/2-x,1/2+y,1/2-z
1/2-x,1/2-y,-z
1/2+x,1/2-y,1/2+z
loop_
_atom_site_type_symbol
_atom_site_label
_atom_site_fract_x
_atom_site_fract_y
_atom_site_fract_z
Si Si1 0.202374 0.613631 0.130963
Si Si2 0.856858 0.796791 0.214977
Si Si3 0.599087 0.936222 0.421810
Si Si4 0.816579 0.019297 0.280281
Si Si5 0.418410 0.279543 0.503674
Si Si6 0.606203 0.722325 0.260671
Si Si7 0.500000 0.971430 0.250000
O O1 0.147513 0.715387 0.196315
O O2 0.267819 0.557663 0.195000
O O3 0.309947 0.650834 0.022635
O O4 0.096313 0.540107 0.159018
O O5 0.865207 0.909840 0.247302
O O6 0.731887 0.773506 0.214633
O O7 0.966012 0.784909 0.102679
O O8 0.710177 0.000383 0.390278
O O9 0.614194 0.835466 0.475067
O O10 0.568590 0.925312 0.317546
O O11 0.500000 0.000000 0.500000
O O12 0.879412 0.114980 0.294969
O O13 0.436678 0.298585 0.612199
O O14 0.500000 0.772274 0.250000
#
# Coordination Sequence:
#
# PCOD9267323 Si02
#       7
#     8   8   8   8   8   8   4
#     4   9  20  37  57  89 118 157 208 252 304 373
#     4  10  19  39  60  82 120 166 202 244 320 364
#     4  11  20  38  65  91 121 165 211 255 313 367
#     4   9  18  38  58  79 122 167 189 250 318 363
#     4  10  20  36  62  85 120 167 200 254 315 374
#     4  10  22  36  55  89 121 151 208 257 303 369
#     4  10  22  38  64  94 126 158 212 270 298 368
#
# _framework density 23.870408999999999
#
# number of rings (size 3 to 8) (size 9 to 14) (size 15 to 20)
#    0.000    2.462    3.077    2.769    1.077    3.077 
#    1.385    9.231    0.000    0.000    0.000    0.000 
#    0.000    0.000    0.000    0.000    0.000    0.000 
#
# Total GULP energy -144814.738569 kJ/mol
# GULP energy per Si atom -5569.797637 kJ/mol
# Density = 2.381608 g / cm^3
# Si number density = 23.870409 Si / 1000 Ang^3
#
#
#
# Elastic Constant Matrix: (Units=GPa)
#
#
# Indices 1 2 3 4 5 6 
#
# 1 114.8631 -3.0096 41.2086 0.0000 -25.5385 0.0000
# 2 -3.0096 32.5436 18.6391 0.0000 -7.4507 0.0000
# 3 41.2086 18.6391 148.6979 0.0000 -50.9797 0.0000
# 4 0.0000 0.0000 0.0000 37.7569 0.0000 -6.1678
# 5 -25.5385 -7.4507 -50.9797 0.0000 39.8557 0.0000
# 6 0.0000 0.0000 0.0000 -6.1678 0.0000 36.5932
#
#
#
# Elastic Compliance Matrix: (Units=1/GPa)
#
#
# Indices 1 2 3 4 5 6 
#
# 1 0.010515 0.003039 -0.001407 0.000000 0.005505 0.000000
# 2 0.003039 0.034038 -0.004025 0.000000 0.003163 0.000000
# 3 -0.001407 -0.004025 0.012561 0.000000 0.014412 0.000000
# 4 0.000000 0.000000 0.000000 0.027235 0.000000 0.004590
# 5 0.005505 0.003163 0.014412 0.000000 0.047644 0.000000
# 6 0.000000 0.000000 0.000000 0.004590 0.000000 0.028101
#
#
# Mechanical properties :
#
#
# Convention : Reuss Voigt Hill
#
# Bulk Modulus (GPa) = 19.11044 45.53118 32.32081
# Shear Modulus (GPa) = 27.42396 38.79228 33.10812
#
# Velocity S-wave (km/s) = 3.39317 4.03565 3.72828
# Velocity P-wave (km/s) = 4.83475 6.38992 5.66594
#
# Compressibility (1/GPa) = 0.05232742
#
# Stress axis : x y z
#
# Youngs Moduli (GPa) = 95.10564 29.37879 79.61393
#
# Poissons Ratio (x) = -0.08928 0.11204
# Poissons Ratio (y) = -0.28901 0.32041
# Poissons Ratio (z) = 0.13385 0.11824
#
# Static dielectric constant tensor:
#      x y z
#    x 1.868100 0.000000 0.124250 
#    y 0.000000 1.988820 0.000000 
#    z 0.124250 0.000000 1.948300 
# 
# From -- ./inp_files/204975.got.cif
#   From: 2010.05.17/outbox.cif.g08.bks.cpg/sg15_103_cif.got.tgz:204975.got - 2010.06.03 18:47:42.
