data_PCOD9267922
_publ_section_title
;
Structure prediction by ZEFSAII (Michael W. Deem and Ramdas Pophale) SiO2 
 PCOD9267922
Probable space group: C 2/C
;
_chemical_formula_sum "Si O2"
_cell_formula_units_Z 32
_cell_length_a 9.890748
_cell_length_b 14.517057
_cell_length_c 9.747027
_cell_angle_alpha 90.000000
_cell_angle_beta 81.106077
_cell_angle_gamma 90.000000
_cell_volume 1382.695028
_symmetry_space_group_name_H-M "C 2/C"
_symmetry_group_IT_number 15
_symmetry_cell_setting 'monoclinic'
loop_
_space_group_symop_operation_xyz
x,y,z
-x,y,1/2-z
-x,-y,-z
x,-y,1/2+z
1/2+x,1/2+y,z
1/2-x,1/2+y,1/2-z
1/2-x,1/2-y,-z
1/2+x,1/2-y,1/2+z
loop_
_atom_site_type_symbol
_atom_site_label
_atom_site_fract_x
_atom_site_fract_y
_atom_site_fract_z
Si Si1 0.506949 0.891680 0.528503
Si Si2 0.808055 0.312035 0.366433
Si Si3 0.594759 0.475495 0.356185
Si Si4 0.775850 0.349906 0.793112
O O1 0.455843 0.841908 0.399269
O O2 0.393847 0.870829 0.662905
O O3 0.650426 0.859984 0.571061
O O4 0.500000 0.000000 0.500000
O O5 0.750000 0.250000 0.500000
O O6 0.713990 0.402798 0.369944
O O7 0.787171 0.248008 0.237399
O O8 0.500000 0.436801 0.250000
O O9 0.500000 0.500000 0.500000
O O10 0.663908 0.570406 0.297405
#
# Coordination Sequence:
#
# PCOD9267922 Si02
#       4
#     8   8   8   8
#     4  10  19  40  72  99 135 180 238 295 345 417
#     4  10  22  42  69  98 138 182 233 289 351 424
#     4  12  26  46  71 101 149 189 231 295 365 429
#     4  10  23  42  69 103 135 181 241 288 357 422
#
# _framework density 23.143211000000001
#
# number of rings (size 3 to 8) (size 9 to 14) (size 15 to 20)
#    0.000    1.500    2.500    3.000    7.000    0.000 
#    0.000   11.250    0.000    0.000    0.000    0.000 
#    0.000    0.000    0.000    0.000    0.000    0.000 
#
# Total GULP energy -89531.269582 kJ/mol
# GULP energy per Si atom -5595.704349 kJ/mol
# Density = 2.309054 g / cm^3
# Si number density = 23.143211 Si / 1000 Ang^3
#
#
#
# Elastic Constant Matrix: (Units=GPa)
#
#
# Indices 1 2 3 4 5 6 
#
# 1 94.9398 47.2981 33.9174 0.0000 42.9940 0.0000
# 2 47.2981 141.5692 36.6322 0.0000 23.0872 0.0000
# 3 33.9174 36.6322 97.6557 0.0000 36.9081 0.0000
# 4 0.0000 0.0000 0.0000 40.8698 0.0000 6.1449
# 5 42.9940 23.0872 36.9081 0.0000 54.9383 0.0000
# 6 0.0000 0.0000 0.0000 6.1449 0.0000 49.0232
#
#
#
# Elastic Compliance Matrix: (Units=1/GPa)
#
#
# Indices 1 2 3 4 5 6 
#
# 1 0.018244 -0.004029 -0.000092 0.000000 -0.012522 0.000000
# 2 -0.004029 0.008843 -0.002285 0.000000 0.000972 0.000000
# 3 -0.000092 -0.002285 0.014394 0.000000 -0.008637 0.000000
# 4 0.000000 0.000000 0.000000 0.024938 0.000000 -0.003126
# 5 -0.012522 0.000972 -0.008637 0.000000 0.033396 0.000000
# 6 0.000000 0.000000 0.000000 -0.003126 0.000000 0.020790
#
#
# Mechanical properties :
#
#
# Convention : Reuss Voigt Hill
#
# Bulk Modulus (GPa) = 34.88332 63.31777 49.10054
# Shear Modulus (GPa) = 34.97148 43.38740 39.17944
#
# Velocity S-wave (km/s) = 3.89149 4.33452 4.11897
# Velocity P-wave (km/s) = 5.94114 7.24357 6.62444
#
# Compressibility (1/GPa) = 0.02866700
#
# Stress axis : x y z
#
# Youngs Moduli (GPa) = 54.81212 113.08938 69.47498
#
# Poissons Ratio (x) = 0.45567 0.00641
# Poissons Ratio (y) = 0.22085 0.15875
# Poissons Ratio (z) = 0.00506 0.25842
#
# Static dielectric constant tensor:
#      x y z
#    x 1.845300 0.000000 0.006120 
#    y 0.000000 1.806080 0.000000 
#    z 0.006120 0.000000 1.942780 
# 
# From -- ./inp_files/75337.got.cif
#   From: 2010.05.17/outbox.cif.g08.bks.cpg/sg15_38_cif.got.tgz:75337.got - 2010.06.03 18:47:42.
