data_PCOD9267164
_publ_section_title
;
Structure prediction by ZEFSAII (Michael W. Deem and Ramdas Pophale) SiO2 
 PCOD9267164
Probable space group: C 2/C
;
_chemical_formula_sum "Si O2"
_cell_formula_units_Z 48
_cell_length_a 25.240334
_cell_length_b 9.097740
_cell_length_c 17.510283
_cell_angle_alpha 90.000000
_cell_angle_beta 144.679280
_cell_angle_gamma 90.000000
_cell_volume 2324.686338
_symmetry_space_group_name_H-M "C 2/C"
_symmetry_group_IT_number 15
_symmetry_cell_setting 'monoclinic'
loop_
_space_group_symop_operation_xyz
x,y,z
-x,y,1/2-z
-x,-y,-z
x,-y,1/2+z
1/2+x,1/2+y,z
1/2-x,1/2+y,1/2-z
1/2-x,1/2-y,-z
1/2+x,1/2-y,1/2+z
loop_
_atom_site_type_symbol
_atom_site_label
_atom_site_fract_x
_atom_site_fract_y
_atom_site_fract_z
Si Si1 0.941378 0.822787 0.391828
Si Si2 0.446307 0.643700 0.343797
Si Si3 0.000000 0.493260 0.250000
Si Si4 0.176350 0.356238 0.372238
Si Si5 0.000000 0.003400 0.750000
Si Si6 0.407962 0.250671 0.047346
Si Si7 0.273940 0.180121 0.110834
O O1 0.871007 0.727011 0.260583
O O2 0.962910 0.798695 0.506036
O O3 0.039163 0.795876 0.466079
O O4 0.916440 0.992974 0.349548
O O5 0.368125 0.764453 0.248873
O O6 0.466432 0.593057 0.280904
O O7 0.086610 0.404691 0.317069
O O8 0.046603 0.602917 0.366578
O O9 0.250000 0.250000 0.500000
O O10 0.223285 0.505779 0.399098
O O11 0.073915 0.117604 0.870341
O O12 0.299465 0.251513 0.916960
O O13 0.250000 0.250000 0.000000
#
# Coordination Sequence:
#
# PCOD9267164 Si02
#       7
#     8   8   4   8   4   8   8
#     4  10  22  43  65  92 131 181 215 268 338 402
#     4  10  22  40  64  93 137 167 217 277 340 381
#     4  11  21  40  64  98 126 170 222 266 330 390
#     4  12  24  38  65 102 131 166 224 279 327 392
#     4   9  17  38  66  90 124 172 216 272 326 396
#     4  10  19  38  66  94 123 170 229 268 319 398
#     4  12  21  38  67  95 128 174 225 267 323 402
#
# _framework density 20.647946999999998
#
# number of rings (size 3 to 8) (size 9 to 14) (size 15 to 20)
#    0.000    1.333    3.333    4.500    0.000    2.000 
#    0.000    8.333    0.000    0.000    0.000    0.000 
#    0.000    0.000    0.000    0.000    0.000    0.000 
#
# Total GULP energy -133886.699052 kJ/mol
# GULP energy per Si atom -5578.612461 kJ/mol
# Density = 2.060095 g / cm^3
# Si number density = 20.647947 Si / 1000 Ang^3
#
#
#
# Elastic Constant Matrix: (Units=GPa)
#
#
# Indices 1 2 3 4 5 6 
#
# 1 66.1040 7.4611 17.1680 0.0000 19.6051 0.0000
# 2 7.4611 123.6284 48.4035 0.0000 3.6057 0.0000
# 3 17.1680 48.4035 101.3440 0.0000 -4.5909 0.0000
# 4 0.0000 0.0000 0.0000 28.8438 0.0000 9.2804
# 5 19.6051 3.6057 -4.5909 0.0000 36.7942 0.0000
# 6 0.0000 0.0000 0.0000 9.2804 0.0000 24.3548
#
#
#
# Elastic Compliance Matrix: (Units=1/GPa)
#
#
# Indices 1 2 3 4 5 6 
#
# 1 0.019349 0.000771 -0.004140 0.000000 -0.010902 0.000000
# 2 0.000771 0.010072 -0.005033 0.000000 -0.002026 0.000000
# 3 -0.004140 -0.005033 0.013169 0.000000 0.004342 0.000000
# 4 0.000000 0.000000 0.000000 0.039514 0.000000 -0.015057
# 5 -0.010902 -0.002026 0.004342 0.000000 0.033727 0.000000
# 6 0.000000 0.000000 0.000000 -0.015057 0.000000 0.046797
#
#
# Mechanical properties :
#
#
# Convention : Reuss Voigt Hill
#
# Bulk Modulus (GPa) = 38.77966 48.57129 43.67548
# Shear Modulus (GPa) = 26.59187 32.53482 29.56335
#
# Velocity S-wave (km/s) = 3.59258 3.97381 3.78799
# Velocity P-wave (km/s) = 6.00258 6.68053 6.35061
#
# Compressibility (1/GPa) = 0.02578671
#
# Stress axis : x y z
#
# Youngs Moduli (GPa) = 51.68189 99.28729 75.93484
#
# Poissons Ratio (x) = -0.07656 0.31437
# Poissons Ratio (y) = -0.03985 0.38217
# Poissons Ratio (z) = 0.21396 0.49970
#
# Static dielectric constant tensor:
#      x y z
#    x 2.076720 0.000000 0.135860 
#    y 0.000000 1.752590 0.000000 
#    z 0.135860 0.000000 1.843750 
# 
# From -- ./inp_files/166420.got.cif
#   From: 2010.05.17/outbox.cif.g08.bks.cpg/sg15_84_cif.got.tgz:166420.got - 2010.06.03 18:47:42.
