data_PCOD9267552
_publ_section_title
;
Structure prediction by ZEFSAII (Michael W. Deem and Ramdas Pophale) SiO2 
 PCOD9267552
Probable space group: C 2/C
;
_chemical_formula_sum "Si O2"
_cell_formula_units_Z 64
_cell_length_a 8.600866
_cell_length_b 11.467087
_cell_length_c 27.650625
_cell_angle_alpha 90.000000
_cell_angle_beta 89.548147
_cell_angle_gamma 90.000000
_cell_volume 2727.010034
_symmetry_space_group_name_H-M "C 2/C"
_symmetry_group_IT_number 15
_symmetry_cell_setting 'monoclinic'
loop_
_space_group_symop_operation_xyz
x,y,z
-x,y,1/2-z
-x,-y,-z
x,-y,1/2+z
1/2+x,1/2+y,z
1/2-x,1/2+y,1/2-z
1/2-x,1/2-y,-z
1/2+x,1/2-y,1/2+z
loop_
_atom_site_type_symbol
_atom_site_label
_atom_site_fract_x
_atom_site_fract_y
_atom_site_fract_z
Si Si1 0.777966 0.998812 0.776338
Si Si2 0.901513 0.499766 0.559768
Si Si3 0.237286 0.953552 0.333736
Si Si4 0.444628 0.263602 0.804388
Si Si5 0.142051 0.744003 0.899259
Si Si6 0.961712 0.582152 0.156907
Si Si7 0.939342 0.837105 0.346661
Si Si8 0.219923 0.379305 0.523086
O O1 0.796047 0.994506 0.719309
O O2 0.853690 0.111638 0.799998
O O3 0.861739 0.887133 0.798685
O O4 0.604499 0.988079 0.797601
O O5 0.947064 0.634542 0.574750
O O6 0.853979 0.442305 0.610736
O O7 0.769504 0.523615 0.519569
O O8 0.043926 0.417277 0.540694
O O9 0.323629 0.832527 0.322412
O O10 0.077096 0.924697 0.360316
O O11 0.368573 0.033242 0.356750
O O12 0.500000 0.233063 0.750000
O O13 0.571243 0.269244 0.846795
O O14 0.313907 0.691444 0.887961
O O15 0.164927 0.858881 0.931986
O O16 0.982556 0.715849 0.167863
O O17 0.250000 0.250000 0.500000
#
# Coordination Sequence:
#
# PCOD9267552 Si02
#       8
#     8   8   8   8   8   8   8   8
#     4  12  27  43  62  97 137 183 238 288 341 411
#     4  10  19  39  66 102 133 173 227 286 360 425
#     4  12  26  43  65  96 136 186 235 287 339 408
#     4  12  25  43  64  98 142 184 235 285 340 411
#     4  11  22  41  68  99 137 182 225 286 349 414
#     4  12  24  44  68  95 134 181 226 292 350 416
#     4  12  25  41  65  96 131 181 233 281 347 410
#     4   9  20  36  68 107 132 173 232 287 355 429
#
# _framework density 23.468927000000001
#
# number of rings (size 3 to 8) (size 9 to 14) (size 15 to 20)
#    0.000    0.750    5.000    3.000    5.250    1.000 
#    0.000    0.000    0.000    1.500   16.250    0.000 
#    0.000    0.000    0.000    0.000    0.000    0.000 
#
# Total GULP energy -178682.190935 kJ/mol
# GULP energy per Si atom -5583.818467 kJ/mol
# Density = 2.341551 g / cm^3
# Si number density = 23.468927 Si / 1000 Ang^3
#
#
#
# Elastic Constant Matrix: (Units=GPa)
#
#
# Indices 1 2 3 4 5 6 
#
# 1 86.3227 35.7885 33.6529 0.0000 5.4836 0.0000
# 2 35.7885 114.7242 38.0131 0.0000 12.6835 0.0000
# 3 33.6529 38.0131 111.1044 0.0000 14.4292 0.0000
# 4 0.0000 0.0000 0.0000 14.6866 0.0000 -0.0671
# 5 5.4836 12.6835 14.4292 0.0000 24.7261 0.0000
# 6 0.0000 0.0000 0.0000 -0.0671 0.0000 43.5851
#
#
#
# Elastic Compliance Matrix: (Units=1/GPa)
#
#
# Indices 1 2 3 4 5 6 
#
# 1 0.014222 -0.003430 -0.003195 0.000000 0.000470 0.000000
# 2 -0.003430 0.010919 -0.002238 0.000000 -0.003534 0.000000
# 3 -0.003195 -0.002238 0.011353 0.000000 -0.004769 0.000000
# 4 0.000000 0.000000 0.000000 0.068090 0.000000 0.000105
# 5 0.000470 -0.003534 -0.004769 0.000000 0.044935 0.000000
# 6 0.000000 0.000000 0.000000 0.000105 0.000000 0.022944
#
#
# Mechanical properties :
#
#
# Convention : Reuss Voigt Hill
#
# Bulk Modulus (GPa) = 53.28151 58.56225 55.92188
# Shear Modulus (GPa) = 25.45241 30.24600 27.84921
#
# Velocity S-wave (km/s) = 3.29677 3.59384 3.44850
# Velocity P-wave (km/s) = 6.10278 6.49832 6.30365
#
# Compressibility (1/GPa) = 0.01876824
#
# Stress axis : x y z
#
# Youngs Moduli (GPa) = 70.31214 91.58563 88.07946
#
# Poissons Ratio (x) = 0.31413 0.28145
# Poissons Ratio (y) = 0.24116 0.19711
# Poissons Ratio (z) = 0.22468 0.20495
#
# Static dielectric constant tensor:
#      x y z
#    x 1.954310 0.000000 -0.000820 
#    y 0.000000 1.888940 0.000000 
#    z -0.000820 0.000000 1.968320 
# 
# From -- ./inp_files/307483.got.cif
#   From: 2010.05.17/outbox.cif.g08.bks.cpg/sg15_154_cif.got.tgz:307483.got - 2010.06.03 18:47:42.
