data_PCOD9267834
_publ_section_title
;
Structure prediction by ZEFSAII (Michael W. Deem and Ramdas Pophale) SiO2 
 PCOD9267834
Probable space group: C 2/C
;
_chemical_formula_sum "Si O2"
_cell_formula_units_Z 44
_cell_length_a 16.040059
_cell_length_b 11.300978
_cell_length_c 27.335996
_cell_angle_alpha 90.000000
_cell_angle_beta 156.778463
_cell_angle_gamma 90.000000
_cell_volume 1953.753489
_symmetry_space_group_name_H-M "C 2/C"
_symmetry_group_IT_number 15
_symmetry_cell_setting 'monoclinic'
loop_
_space_group_symop_operation_xyz
x,y,z
-x,y,1/2-z
-x,-y,-z
x,-y,1/2+z
1/2+x,1/2+y,z
1/2-x,1/2+y,1/2-z
1/2-x,1/2-y,-z
1/2+x,1/2-y,1/2+z
loop_
_atom_site_type_symbol
_atom_site_label
_atom_site_fract_x
_atom_site_fract_y
_atom_site_fract_z
Si Si1 0.500000 0.048526 0.750000
Si Si2 0.458685 0.478899 0.784550
Si Si3 0.683533 0.853118 0.018653
Si Si4 0.950882 0.336328 0.796141
Si Si5 0.810538 0.241125 0.089131
Si Si6 0.898234 0.644639 0.913554
O O1 0.658047 0.138822 0.863441
O O2 0.429307 0.958650 0.755003
O O3 0.500000 0.513186 0.750000
O O4 0.657441 0.545351 0.916312
O O5 0.478022 0.338877 0.797056
O O6 0.244022 0.539508 0.685321
O O7 0.840221 0.738812 0.108278
O O8 0.595504 0.874839 0.025063
O O9 0.499503 0.842894 0.879871
O O10 0.743338 0.259771 0.673954
O O11 0.750000 0.250000 0.000000
O O12 0.628330 0.163715 0.016418
#
# Coordination Sequence:
#
# PCOD9267834 Si02
#       6
#     4   8   8   8   8   8
#     4  12  24  44  66  94 154 174 218 304 354 404
#     4   9  19  43  66  92 126 178 231 288 333 407
#     4   9  18  37  72  97 131 175 241 278 327 426
#     4  10  19  40  67 104 134 182 223 277 352 419
#     4  12  27  45  63 104 145 181 231 293 351 412
#     4  10  22  43  72  95 134 181 237 283 341 416
#
# _framework density 22.520752999999999
#
# number of rings (size 3 to 8) (size 9 to 14) (size 15 to 20)
#    0.000    1.818    2.727    2.182    0.000    5.091 
#    6.545    0.000    0.000    0.000    0.000    0.000 
#    0.000    0.000    0.000    0.000    0.000    0.000 
#
# Total GULP energy -122872.117600 kJ/mol
# GULP energy per Si atom -5585.096255 kJ/mol
# Density = 2.246949 g / cm^3
# Si number density = 22.520753 Si / 1000 Ang^3
#
#
#
# Elastic Constant Matrix: (Units=GPa)
#
#
# Indices 1 2 3 4 5 6 
#
# 1 82.1417 21.5381 38.3181 0.0009 -4.4751 0.0001
# 2 21.5381 141.2271 52.0791 0.0002 9.3456 0.0001
# 3 38.3181 52.0791 103.9689 0.0059 -10.1497 -0.0001
# 4 0.0009 0.0002 0.0059 38.0585 -0.0008 6.4035
# 5 -4.4751 9.3456 -10.1497 -0.0008 31.5262 0.0000
# 6 0.0001 0.0001 -0.0001 6.4035 0.0000 27.5982
#
#
#
# Elastic Compliance Matrix: (Units=1/GPa)
#
#
# Indices 1 2 3 4 5 6 
#
# 1 0.014720 -0.000366 -0.005190 0.000001 0.000527 0.000000
# 2 -0.000366 0.009241 -0.004921 0.000001 -0.004376 0.000000
# 3 -0.005190 -0.004921 0.014523 -0.000002 0.005398 0.000001
# 4 0.000001 0.000001 -0.000002 0.027343 0.000000 -0.006344
# 5 0.000527 -0.004376 0.005398 0.000000 0.034829 0.000000
# 6 0.000000 0.000000 0.000001 -0.006344 0.000000 0.037706
#
#
# Mechanical properties :
#
#
# Convention : Reuss Voigt Hill
#
# Bulk Modulus (GPa) = 57.04740 61.24539 59.14639
# Shear Modulus (GPa) = 30.27360 33.79675 32.03518
#
# Velocity S-wave (km/s) = 3.67038 3.87808 3.77566
# Velocity P-wave (km/s) = 6.58394 6.87799 6.73257
#
# Compressibility (1/GPa) = 0.01752928
#
# Stress axis : x y z
#
# Youngs Moduli (GPa) = 67.93488 108.21474 68.85505
#
# Poissons Ratio (x) = 0.03958 0.35739
# Poissons Ratio (y) = 0.02484 0.33885
# Poissons Ratio (z) = 0.35261 0.53255
#
# Static dielectric constant tensor:
#      x y z
#    x 1.819270 0.000000 -0.026370 
#    y 0.000000 1.894010 0.000000 
#    z -0.026370 0.000000 1.860920 
# 
# From -- ./inp_files/316270.got.cif
#   From: 2010.05.17/outbox.cif.g08.bks.cpg/sg15_159_cif.got.tgz:316270.got - 2010.06.03 18:47:42.
