data_PCOD9267601
_publ_section_title
;
Structure prediction by ZEFSAII (Michael W. Deem and Ramdas Pophale) SiO2 
 PCOD9267601
Probable space group: C 2/C
;
_chemical_formula_sum "Si O2"
_cell_formula_units_Z 32
_cell_length_a 6.683875
_cell_length_b 14.449282
_cell_length_c 14.028804
_cell_angle_alpha 90.000000
_cell_angle_beta 92.812438
_cell_angle_gamma 90.000000
_cell_volume 1353.230616
_symmetry_space_group_name_H-M "C 2/C"
_symmetry_group_IT_number 15
_symmetry_cell_setting 'monoclinic'
loop_
_space_group_symop_operation_xyz
x,y,z
-x,y,1/2-z
-x,-y,-z
x,-y,1/2+z
1/2+x,1/2+y,z
1/2-x,1/2+y,1/2-z
1/2-x,1/2-y,-z
1/2+x,1/2-y,1/2+z
loop_
_atom_site_type_symbol
_atom_site_label
_atom_site_fract_x
_atom_site_fract_y
_atom_site_fract_z
Si Si1 0.866325 0.787175 0.159459
Si Si2 0.554279 0.893335 0.603859
Si Si3 0.599645 0.600505 0.519115
Si Si4 0.984935 0.406210 0.386962
O O1 0.917846 0.679072 0.155326
O O2 0.000000 0.823741 0.250000
O O3 0.640760 0.823968 0.161773
O O4 0.947936 0.827270 0.060975
O O5 0.777038 0.864295 0.571481
O O6 0.441087 0.906964 0.499965
O O7 0.581549 0.993491 0.650849
O O8 0.500000 0.500000 0.500000
O O9 0.775986 0.595771 0.603032
#
# Coordination Sequence:
#
# PCOD9267601 Si02
#       4
#     8   8   8   8
#     4  12  23  38  59  96 132 162 210 275 332 386
#     4   9  19  40  64  88 117 167 220 259 312 391
#     4  10  19  39  68  86 116 168 218 256 314 386
#     4   9  20  39  65  86 121 167 216 259 320 384
#
# _framework density 23.647117000000001
#
# number of rings (size 3 to 8) (size 9 to 14) (size 15 to 20)
#    1.500    0.500    2.500    1.500    0.000    1.000 
#    4.500    0.000    0.000    0.000    0.000    0.000 
#    0.000    0.000    0.000    0.000    0.000    0.000 
#
# Total GULP energy -89102.078795 kJ/mol
# GULP energy per Si atom -5568.879925 kJ/mol
# Density = 2.359329 g / cm^3
# Si number density = 23.647117 Si / 1000 Ang^3
#
#
#
# Elastic Constant Matrix: (Units=GPa)
#
#
# Indices 1 2 3 4 5 6 
#
# 1 105.2944 44.6998 20.4808 0.0000 21.0874 0.0000
# 2 44.6998 123.0732 18.8920 0.0000 8.0027 0.0000
# 3 20.4808 18.8920 64.0087 0.0000 6.3736 0.0000
# 4 0.0000 0.0000 0.0000 -0.4081 0.0000 23.5074
# 5 21.0874 8.0027 6.3736 0.0000 28.9856 0.0000
# 6 0.0000 0.0000 0.0000 23.5074 0.0000 13.7790
#
#
#
# Elastic Compliance Matrix: (Units=1/GPa)
#
#
# Indices 1 2 3 4 5 6 
#
# 1 0.013215 -0.003929 -0.002269 0.000000 -0.008030 0.000000
# 2 -0.003929 0.009776 -0.001681 0.000000 0.000529 0.000000
# 3 -0.002269 -0.001681 0.017007 0.000000 -0.001625 0.000000
# 4 0.000000 0.000000 0.000000 -0.024684 0.000000 0.042111
# 5 -0.008030 0.000529 -0.001625 0.000000 0.040553 0.000000
# 6 0.000000 0.000000 0.000000 0.042111 0.000000 0.000731
#
#
# Mechanical properties :
#
#
# Convention : Reuss Voigt Hill
#
# Bulk Modulus (GPa) = 41.25500 51.16904 46.21202
# Shear Modulus (GPa) = 62.16162 22.35822 42.25992
#
# Velocity S-wave (km/s) = 5.13267 3.07823 4.23200
# Velocity P-wave (km/s) = 7.25325 5.85829 6.59277
#
# Compressibility (1/GPa) = 0.02423949
#
# Stress axis : x y z
#
# Youngs Moduli (GPa) = 75.67318 102.29242 58.80010
#
# Poissons Ratio (x) = 0.40192 0.13342
# Poissons Ratio (y) = 0.29733 0.09883
# Poissons Ratio (z) = 0.17171 0.17194
#
# Static dielectric constant tensor:
#      x y z
#    x 1.998610 0.000000 -0.037840 
#    y 0.000000 1.946280 0.000000 
#    z -0.037840 0.000000 1.834730 
# 
# From -- ./inp_files/229663.got.cif
#   From: 2010.05.17/outbox.cif.g08.bks.cpg/sg15_115_cif.got.tgz:229663.got - 2010.06.03 18:47:42.
