data_PCOD9267246
_publ_section_title
;
Structure prediction by ZEFSAII (Michael W. Deem and Ramdas Pophale) SiO2 
 PCOD9267246
Probable space group: C 2/C
;
_chemical_formula_sum "Si O2"
_cell_formula_units_Z 32
_cell_length_a 6.092525
_cell_length_b 18.334425
_cell_length_c 11.959852
_cell_angle_alpha 90.000000
_cell_angle_beta 73.934169
_cell_angle_gamma 90.000000
_cell_volume 1283.774258
_symmetry_space_group_name_H-M "C 2/C"
_symmetry_group_IT_number 15
_symmetry_cell_setting 'monoclinic'
loop_
_space_group_symop_operation_xyz
x,y,z
-x,y,1/2-z
-x,-y,-z
x,-y,1/2+z
1/2+x,1/2+y,z
1/2-x,1/2+y,1/2-z
1/2-x,1/2-y,-z
1/2+x,1/2-y,1/2+z
loop_
_atom_site_type_symbol
_atom_site_label
_atom_site_fract_x
_atom_site_fract_y
_atom_site_fract_z
Si Si1 0.701693 0.479621 0.628166
Si Si2 0.194281 0.143473 0.632061
Si Si3 0.470874 0.655522 0.076626
Si Si4 0.000000 0.392702 0.750000
Si Si5 0.000000 0.260431 0.250000
O O1 0.500000 0.481307 0.750000
O O2 0.762820 0.561672 0.585878
O O3 0.600580 0.422441 0.552870
O O4 0.911287 0.443448 0.662766
O O5 0.083289 0.181625 0.539891
O O6 0.378018 0.187879 0.676770
O O7 0.000000 0.133739 0.750000
O O8 0.614444 0.705122 0.142746
O O9 0.220783 0.649576 0.171147
#
# Coordination Sequence:
#
# PCOD9267246 Si02
#       5
#     8   8   8   4   4
#     4   9  19  40  66  97 126 167 219 262 320 378
#     4  11  26  42  65  96 135 166 213 274 319 375
#     4  11  23  43  67  96 126 175 218 257 324 388
#     4  10  19  38  70  89 130 166 214 264 315 370
#     4  12  25  44  62 101 130 172 218 254 329 390
#
# _framework density 24.926497999999999
#
# number of rings (size 3 to 8) (size 9 to 14) (size 15 to 20)
#    0.000    1.500    3.750    2.250    1.750    4.000 
#    0.000    0.000    0.000    0.000    0.000    0.000 
#    0.000    0.000    0.000    0.000    0.000    0.000 
#
# Total GULP energy -89342.093138 kJ/mol
# GULP energy per Si atom -5583.880821 kJ/mol
# Density = 2.486976 g / cm^3
# Si number density = 24.926498 Si / 1000 Ang^3
#
#
#
# Elastic Constant Matrix: (Units=GPa)
#
#
# Indices 1 2 3 4 5 6 
#
# 1 71.1985 34.7645 45.7527 0.0000 26.5243 0.0000
# 2 34.7645 132.1303 41.3158 0.0000 31.5401 0.0000
# 3 45.7527 41.3158 166.9368 0.0000 49.2763 0.0000
# 4 0.0000 0.0000 0.0000 19.3144 0.0000 16.3205
# 5 26.5243 31.5401 49.2763 0.0000 61.8927 0.0000
# 6 0.0000 0.0000 0.0000 16.3205 0.0000 46.3557
#
#
#
# Elastic Compliance Matrix: (Units=1/GPa)
#
#
# Indices 1 2 3 4 5 6 
#
# 1 0.019158 -0.003045 -0.003309 0.000000 -0.004024 0.000000
# 2 -0.003045 0.009256 -0.000587 0.000000 -0.002944 0.000000
# 3 -0.003309 -0.000587 0.008543 0.000000 -0.005085 0.000000
# 4 0.000000 0.000000 0.000000 0.073701 0.000000 -0.025948
# 5 -0.004024 -0.002944 -0.005085 0.000000 0.023430 0.000000
# 6 0.000000 0.000000 0.000000 -0.025948 0.000000 0.030708
#
#
# Mechanical properties :
#
#
# Convention : Reuss Voigt Hill
#
# Bulk Modulus (GPa) = 43.33924 68.21463 55.77694
# Shear Modulus (GPa) = 26.82841 42.07472 34.45157
#
# Velocity S-wave (km/s) = 3.28426 4.11293 3.72173
# Velocity P-wave (km/s) = 5.63972 7.06970 6.39480
#
# Compressibility (1/GPa) = 0.02307378
#
# Stress axis : x y z
#
# Youngs Moduli (GPa) = 52.19845 108.03899 117.04939
#
# Poissons Ratio (x) = 0.32902 0.38734
# Poissons Ratio (y) = 0.15896 0.06871
# Poissons Ratio (z) = 0.17274 0.06342
#
# Static dielectric constant tensor:
#      x y z
#    x 1.909140 0.000000 -0.053630 
#    y 0.000000 2.121180 0.000000 
#    z -0.053630 0.000000 1.887790 
# 
# From -- ./inp_files/71921.got.cif
#   From: 2010.05.17/outbox.cif.g08.bks.cpg/sg15_36_cif.got.tgz:71921.got - 2010.06.03 18:47:42.
