data_PCOD9267753
_publ_section_title
;
Structure prediction by ZEFSAII (Michael W. Deem and Ramdas Pophale) SiO2 
 PCOD9267753
Probable space group: C 2/C
;
_chemical_formula_sum "Si O2"
_cell_formula_units_Z 36
_cell_length_a 23.206274
_cell_length_b 5.111294
_cell_length_c 14.128633
_cell_angle_alpha 90.000000
_cell_angle_beta 128.519207
_cell_angle_gamma 90.000000
_cell_volume 1311.187945
_symmetry_space_group_name_H-M "C 2/C"
_symmetry_group_IT_number 15
_symmetry_cell_setting 'monoclinic'
loop_
_space_group_symop_operation_xyz
x,y,z
-x,y,1/2-z
-x,-y,-z
x,-y,1/2+z
1/2+x,1/2+y,z
1/2-x,1/2+y,1/2-z
1/2-x,1/2-y,-z
1/2+x,1/2-y,1/2+z
loop_
_atom_site_type_symbol
_atom_site_label
_atom_site_fract_x
_atom_site_fract_y
_atom_site_fract_z
Si Si1 0.237197 0.944060 0.602732
Si Si2 0.623282 0.403902 0.852986
Si Si3 0.096895 0.694623 0.186159
Si Si4 0.147784 0.570928 0.046312
Si Si5 0.500000 0.206962 0.250000
O O1 0.324020 0.924982 0.702230
O O2 0.190416 0.699746 0.591453
O O3 0.206019 0.998528 0.463988
O O4 0.208263 0.201717 0.625910
O O5 0.605135 0.497750 0.727610
O O6 0.565907 0.596026 0.847974
O O7 0.617500 0.142786 0.910557
O O8 0.090208 0.624403 0.070642
O O9 0.032654 0.584740 0.187838
#
# Coordination Sequence:
#
# PCOD9267753 Si02
#       5
#     8   8   8   8   4
#     4  10  21  41  64  94 119 159 210 258 302 355
#     4   8  21  40  62  94 123 162 208 246 315 357
#     4  10  19  40  63  93 127 162 206 254 306 370
#     4  10  22  39  67  92 121 158 210 257 305 355
#     4   8  20  40  62  90 128 170 198 248 310 374
#
# _framework density 27.456019000000001
#
# number of rings (size 3 to 8) (size 9 to 14) (size 15 to 20)
#    2.667    0.000    0.000    2.000    0.000    1.778 
#    4.000    2.222    4.889    0.000    0.000    0.000 
#    0.000    0.000    0.000    0.000    0.000    0.000 
#
# Total GULP energy -100410.552502 kJ/mol
# GULP energy per Si atom -5578.364028 kJ/mol
# Density = 2.739353 g / cm^3
# Si number density = 27.456019 Si / 1000 Ang^3
#
#
#
# Elastic Constant Matrix: (Units=GPa)
#
#
# Indices 1 2 3 4 5 6 
#
# 1 177.1940 54.1491 31.0886 0.0000 -15.0053 0.0000
# 2 54.1491 135.9808 28.4413 -0.0001 -7.2891 0.0000
# 3 31.0886 28.4413 113.0145 0.0000 -16.1046 0.0000
# 4 0.0000 -0.0001 0.0000 11.7044 0.0000 4.8321
# 5 -15.0053 -7.2891 -16.1046 0.0000 48.4699 0.0000
# 6 0.0000 0.0000 0.0000 4.8321 0.0000 33.3136
#
#
#
# Elastic Compliance Matrix: (Units=1/GPa)
#
#
# Indices 1 2 3 4 5 6 
#
# 1 0.006664 -0.002362 -0.001045 0.000000 0.001361 0.000000
# 2 -0.002362 0.008614 -0.001509 0.000000 0.000063 0.000000
# 3 -0.001045 -0.001509 0.009906 0.000000 0.002741 0.000000
# 4 0.000000 0.000000 0.000000 0.090880 0.000000 -0.013182
# 5 0.001361 0.000063 0.002741 0.000000 0.021973 0.000000
# 6 0.000000 0.000000 0.000000 -0.013182 0.000000 0.031930
#
#
# Mechanical properties :
#
#
# Convention : Reuss Voigt Hill
#
# Bulk Modulus (GPa) = 65.13888 72.61637 68.87762
# Shear Modulus (GPa) = 27.03941 39.53161 33.28551
#
# Velocity S-wave (km/s) = 3.14160 3.79861 3.48562
# Velocity P-wave (km/s) = 6.07749 6.76350 6.42965
#
# Compressibility (1/GPa) = 0.01535182
#
# Stress axis : x y z
#
# Youngs Moduli (GPa) = 150.06166 116.09551 100.94719
#
# Poissons Ratio (x) = 0.27424 0.10547
# Poissons Ratio (y) = 0.35447 0.15233
# Poissons Ratio (z) = 0.15678 0.17518
#
# Static dielectric constant tensor:
#      x y z
#    x 2.166030 0.000000 -0.013890 
#    y 0.000000 2.270390 0.000000 
#    z -0.013890 0.000000 2.162130 
# 
# From -- ./inp_files/217343.got.cif
#   From: 2010.05.17/outbox.cif.g08.bks.cpg/sg15_109_cif.got.tgz:217343.got - 2010.06.03 18:47:42.
