data_PCOD9267896
_publ_section_title
;
Structure prediction by ZEFSAII (Michael W. Deem and Ramdas Pophale) SiO2 
 PCOD9267896
Probable space group: C 2/C
;
_chemical_formula_sum "Si O2"
_cell_formula_units_Z 44
_cell_length_a 8.215238
_cell_length_b 12.210713
_cell_length_c 18.113697
_cell_angle_alpha 90.000000
_cell_angle_beta 94.990014
_cell_angle_gamma 90.000000
_cell_volume 1810.168961
_symmetry_space_group_name_H-M "C 2/C"
_symmetry_group_IT_number 15
_symmetry_cell_setting 'monoclinic'
loop_
_space_group_symop_operation_xyz
x,y,z
-x,y,1/2-z
-x,-y,-z
x,-y,1/2+z
1/2+x,1/2+y,z
1/2-x,1/2+y,1/2-z
1/2-x,1/2-y,-z
1/2+x,1/2-y,1/2+z
loop_
_atom_site_type_symbol
_atom_site_label
_atom_site_fract_x
_atom_site_fract_y
_atom_site_fract_z
Si Si1 0.730381 0.643212 0.403242
Si Si2 0.913545 0.245600 0.350204
Si Si3 0.500000 0.919217 0.250000
Si Si4 0.562995 0.347365 0.058519
Si Si5 0.711032 0.037635 0.380204
Si Si6 0.312216 0.914125 0.454531
O O1 0.584873 0.683348 0.344725
O O2 0.642794 0.644048 0.480374
O O3 0.872121 0.733503 0.406126
O O4 0.858163 0.449437 0.539228
O O5 0.928121 0.322949 0.423678
O O6 0.878538 0.334810 0.286526
O O7 0.779453 0.154254 0.357837
O O8 0.591540 0.989706 0.314497
O O9 0.641102 0.450174 0.104955
O O10 0.369297 0.361422 0.047276
O O11 0.291978 0.019665 0.401126
#
# Coordination Sequence:
#
# PCOD9267896 Si02
#       6
#     8   8   4   8   8   8
#     4  10  20  39  69 105 140 166 208 288 351 396
#     4  12  25  46  72  99 135 186 228 283 349 405
#     4  12  30  48  58 100 150 192 220 270 350 428
#     4  10  19  40  70 105 136 166 221 291 342 386
#     4  11  23  47  70  99 142 176 231 287 332 414
#     4  11  23  41  77 110 127 170 239 296 341 388
#
# _framework density 24.307123000000001
#
# number of rings (size 3 to 8) (size 9 to 14) (size 15 to 20)
#    0.000    1.091    5.455    1.636    0.000    3.636 
#    3.273    0.000    0.000    0.000    0.000    0.000 
#    0.000    0.000    0.000    0.000    0.000    0.000 
#
# Total GULP energy -123283.671203 kJ/mol
# GULP energy per Si atom -5603.803237 kJ/mol
# Density = 2.425180 g / cm^3
# Si number density = 24.307123 Si / 1000 Ang^3
#
#
#
# Elastic Constant Matrix: (Units=GPa)
#
#
# Indices 1 2 3 4 5 6 
#
# 1 76.6665 41.7223 28.8806 0.0000 14.2423 0.0000
# 2 41.7223 196.4805 57.4816 0.0000 -2.1703 0.0000
# 3 28.8806 57.4816 107.7715 0.0000 14.2408 0.0000
# 4 0.0000 0.0000 0.0000 44.7181 0.0000 4.5862
# 5 14.2423 -2.1703 14.2408 0.0000 21.5240 0.0000
# 6 0.0000 0.0000 0.0000 4.5862 0.0000 34.2535
#
#
#
# Elastic Compliance Matrix: (Units=1/GPa)
#
#
# Indices 1 2 3 4 5 6 
#
# 1 0.017474 -0.003420 -0.001408 0.000000 -0.010975 0.000000
# 2 -0.003420 0.006882 -0.003446 0.000000 0.005237 0.000000
# 3 -0.001408 -0.003446 0.012511 0.000000 -0.007693 0.000000
# 4 0.000000 0.000000 0.000000 0.022674 0.000000 -0.003036
# 5 -0.010975 0.005237 -0.007693 0.000000 0.059340 0.000000
# 6 0.000000 0.000000 0.000000 -0.003036 0.000000 0.029601
#
#
# Mechanical properties :
#
#
# Convention : Reuss Voigt Hill
#
# Bulk Modulus (GPa) = 49.21694 70.78748 60.00221
# Shear Modulus (GPa) = 29.10326 36.95472 33.02899
#
# Velocity S-wave (km/s) = 3.46398 3.90336 3.69022
# Velocity P-wave (km/s) = 6.02418 7.03565 6.54947
#
# Compressibility (1/GPa) = 0.02031821
#
# Stress axis : x y z
#
# Youngs Moduli (GPa) = 57.22780 145.31182 79.93049
#
# Poissons Ratio (x) = 0.49693 0.11257
# Poissons Ratio (y) = 0.19571 0.27544
# Poissons Ratio (z) = 0.08060 0.50075
#
# Static dielectric constant tensor:
#      x y z
#    x 1.927930 0.000000 -0.016580 
#    y 0.000000 1.927280 0.000000 
#    z -0.016580 0.000000 1.967640 
# 
# From -- ./inp_files/230200.got.cif
#   From: 2010.05.17/outbox.cif.g08.bks.cpg/sg15_116_cif.got.tgz:230200.got - 2010.06.03 18:47:42.
