data_PCOD9267045
_publ_section_title
;
Structure prediction by ZEFSAII (Michael W. Deem and Ramdas Pophale) SiO2 
 PCOD9267045
Probable space group: C 2/C
;
_chemical_formula_sum "Si O2"
_cell_formula_units_Z 48
_cell_length_a 20.240639
_cell_length_b 7.686943
_cell_length_c 26.041289
_cell_angle_alpha 90.000000
_cell_angle_beta 29.442851
_cell_angle_gamma 90.000000
_cell_volume 1991.648265
_symmetry_space_group_name_H-M "C 2/C"
_symmetry_group_IT_number 15
_symmetry_cell_setting 'monoclinic'
loop_
_space_group_symop_operation_xyz
x,y,z
-x,y,1/2-z
-x,-y,-z
x,-y,1/2+z
1/2+x,1/2+y,z
1/2-x,1/2+y,1/2-z
1/2-x,1/2-y,-z
1/2+x,1/2-y,1/2+z
loop_
_atom_site_type_symbol
_atom_site_label
_atom_site_fract_x
_atom_site_fract_y
_atom_site_fract_z
Si Si1 0.626096 0.631439 0.855034
Si Si2 0.266881 0.201745 0.071080
Si Si3 0.128644 0.273960 0.631478
Si Si4 0.183255 0.101272 0.227677
Si Si5 0.670248 0.432655 0.923228
Si Si6 0.549618 0.133771 0.646710
O O1 0.708358 0.803681 0.810182
O O2 0.627288 0.560250 0.796503
O O3 0.473327 0.656572 0.974968
O O4 0.687742 0.483456 0.851787
O O5 0.248309 0.064811 0.128786
O O6 0.130029 0.266666 0.137253
O O7 0.336612 0.374246 0.046441
O O8 0.354100 0.128426 0.967058
O O9 0.250000 0.250000 0.500000
O O10 0.223846 0.332834 0.613649
O O11 0.041202 0.434745 0.668772
O O12 0.000000 0.169889 0.750000
O O13 0.075603 0.250896 0.285908
#
# Coordination Sequence:
#
# PCOD9267045 Si02
#       6
#     8   8   8   8   8   8
#     4  10  21  36  60  86 127 172 213 268 317 393
#     4   9  18  35  63  90 113 152 220 278 321 374
#     4  11  24  44  67  95 130 172 214 272 343 400
#     4  11  21  37  60  93 127 172 223 266 327 392
#     4   9  19  40  62  85 122 167 215 256 328 392
#     4  10  19  38  64  91 121 165 215 282 330 385
#
# _framework density 24.100643000000002
#
# number of rings (size 3 to 8) (size 9 to 14) (size 15 to 20)
#    0.000    2.000    1.667    3.500    0.000    2.667 
#    6.000    0.833    0.000    0.000    0.000    0.000 
#    0.000    0.000    0.000    0.000    0.000    0.000 
#
# Total GULP energy -133643.199656 kJ/mol
# GULP energy per Si atom -5568.466652 kJ/mol
# Density = 2.404579 g / cm^3
# Si number density = 24.100643 Si / 1000 Ang^3
#
#
#
# Elastic Constant Matrix: (Units=GPa)
#
#
# Indices 1 2 3 4 5 6 
#
# 1 92.8752 10.6795 31.9313 -0.0044 4.9335 0.0071
# 2 10.6795 38.4606 16.0362 -0.0041 8.1960 0.0095
# 3 31.9313 16.0362 95.0320 -0.0024 22.2790 0.0032
# 4 -0.0044 -0.0041 -0.0024 20.1541 0.0033 7.4750
# 5 4.9335 8.1960 22.2790 0.0033 49.0733 -0.0020
# 6 0.0071 0.0095 0.0032 7.4750 -0.0020 28.6084
#
#
#
# Elastic Compliance Matrix: (Units=1/GPa)
#
#
# Indices 1 2 3 4 5 6 
#
# 1 0.012327 -0.001938 -0.004029 0.000003 0.000914 -0.000003
# 2 -0.001938 0.028629 -0.003474 0.000010 -0.003009 -0.000011
# 3 -0.004029 -0.003474 0.013689 0.000001 -0.005229 0.000000
# 4 0.000003 0.000010 0.000001 0.054942 -0.000007 -0.014356
# 5 0.000914 -0.003009 -0.005229 -0.000007 0.023163 0.000005
# 6 -0.000003 -0.000011 0.000000 -0.014356 0.000005 0.038706
#
#
# Mechanical properties :
#
#
# Convention : Reuss Voigt Hill
#
# Bulk Modulus (GPa) = 27.96266 38.18466 33.07366
# Shear Modulus (GPa) = 24.72100 30.74854 27.73477
#
# Velocity S-wave (km/s) = 3.20619 3.57576 3.39601
# Velocity P-wave (km/s) = 5.03328 5.73815 5.39723
#
# Compressibility (1/GPa) = 0.03576198
#
# Stress axis : x y z
#
# Youngs Moduli (GPa) = 81.12526 34.93011 73.05250
#
# Poissons Ratio (x) = 0.06768 0.29433
# Poissons Ratio (y) = 0.15718 0.25382
# Poissons Ratio (z) = 0.32686 0.12136
#
# Static dielectric constant tensor:
#      x y z
#    x 1.928920 0.000000 0.035030 
#    y 0.000000 1.913820 0.000010 
#    z 0.035030 0.000010 2.139250 
# 
# From -- ./inp_files/300453.got.cif
#   From: 2010.05.17/outbox.cif.g08.bks.cpg/sg15_151_cif.got.tgz:300453.got - 2010.06.03 18:47:42.
