data_PCOD9267364
_publ_section_title
;
Structure prediction by ZEFSAII (Michael W. Deem and Ramdas Pophale) SiO2 
 PCOD9267364
Probable space group: C 2/C
;
_chemical_formula_sum "Si O2"
_cell_formula_units_Z 48
_cell_length_a 10.905719
_cell_length_b 17.560927
_cell_length_c 12.847847
_cell_angle_alpha 90.000000
_cell_angle_beta 89.463797
_cell_angle_gamma 90.000000
_cell_volume 2460.441698
_symmetry_space_group_name_H-M "C 2/C"
_symmetry_group_IT_number 15
_symmetry_cell_setting 'monoclinic'
loop_
_space_group_symop_operation_xyz
x,y,z
-x,y,1/2-z
-x,-y,-z
x,-y,1/2+z
1/2+x,1/2+y,z
1/2-x,1/2+y,1/2-z
1/2-x,1/2-y,-z
1/2+x,1/2-y,1/2+z
loop_
_atom_site_type_symbol
_atom_site_label
_atom_site_fract_x
_atom_site_fract_y
_atom_site_fract_z
Si Si1 0.048952 0.242877 0.002013
Si Si2 0.244302 0.361412 0.084062
Si Si3 0.863989 0.397788 0.206560
Si Si4 0.318371 0.734951 0.109749
Si Si5 0.095806 0.354222 0.656687
Si Si6 0.145040 0.486707 0.499220
O O1 0.130904 0.181468 0.941918
O O2 0.981826 0.300425 0.921832
O O3 0.138365 0.297689 0.067748
O O4 0.947631 0.199817 0.072855
O O5 0.230540 0.395260 0.198718
O O6 0.214358 0.434154 0.013229
O O7 0.861485 0.313610 0.159132
O O8 0.000000 0.416276 0.250000
O O9 0.825734 0.451320 0.112576
O O10 0.218778 0.693672 0.183482
O O11 0.250000 0.750000 0.000000
O O12 0.153095 0.425433 0.592807
O O13 0.000000 0.373786 0.750000
O O14 0.000000 0.500000 0.500000
#
# Coordination Sequence:
#
# PCOD9267364 Si02
#       6
#     8   8   8   8   8   8
#     4  10  20  40  59  91 119 161 210 255 304 368
#     4  11  23  36  62  91 124 163 208 258 307 373
#     4  12  20  37  62  88 124 165 206 249 321 362
#     4  10  19  39  61  89 122 157 205 261 308 368
#     4  11  22  37  63  90 118 159 208 257 311 373
#     4  12  22  37  56  94 123 155 206 262 306 362
#
# _framework density 19.508692
#
# number of rings (size 3 to 8) (size 9 to 14) (size 15 to 20)
#    0.000    1.000    8.333    1.000    2.333    0.000 
#    0.000    0.833    0.000    0.000    4.333    0.000 
#    0.000    0.000    0.000    0.000    0.000    0.000 
#
# Total GULP energy -133844.320026 kJ/mol
# GULP energy per Si atom -5576.846668 kJ/mol
# Density = 1.946429 g / cm^3
# Si number density = 19.508692 Si / 1000 Ang^3
#
#
#
# Elastic Constant Matrix: (Units=GPa)
#
#
# Indices 1 2 3 4 5 6 
#
# 1 87.4265 26.3981 20.8939 0.0000 -26.3067 0.0000
# 2 26.3981 69.3863 24.3774 0.0000 -13.9970 0.0000
# 3 20.8939 24.3774 89.3802 0.0000 -25.0631 0.0000
# 4 0.0000 0.0000 0.0000 2.6748 0.0000 -0.6096
# 5 -26.3067 -13.9970 -25.0631 0.0000 24.0318 0.0000
# 6 0.0000 0.0000 0.0000 -0.6096 0.0000 20.8329
#
#
#
# Elastic Compliance Matrix: (Units=1/GPa)
#
#
# Indices 1 2 3 4 5 6 
#
# 1 0.018016 -0.003646 0.002427 0.000000 0.020129 0.000000
# 2 -0.003646 0.017482 -0.003081 0.000000 0.002978 0.000000
# 3 0.002427 -0.003081 0.016540 0.000000 0.018113 0.000000
# 4 0.000000 0.000000 0.000000 0.376374 0.000000 0.011014
# 5 0.020129 0.002978 0.018113 0.000000 0.084270 0.000000
# 6 0.000000 0.000000 0.000000 0.011014 0.000000 0.048323
#
#
# Mechanical properties :
#
#
# Convention : Reuss Voigt Hill
#
# Bulk Modulus (GPa) = 23.02088 43.28130 33.15109
# Shear Modulus (GPa) = 8.56040 21.14279 14.85159
#
# Velocity S-wave (km/s) = 2.09703 3.29563 2.76213
# Velocity P-wave (km/s) = 4.20586 6.05932 5.21558
#
# Compressibility (1/GPa) = 0.04343883
#
# Stress axis : x y z
#
# Youngs Moduli (GPa) = 55.50631 57.20030 60.45995
#
# Poissons Ratio (x) = 0.20858 -0.14676
# Poissons Ratio (y) = 0.20240 0.18626
# Poissons Ratio (z) = -0.13474 0.17622
#
# Static dielectric constant tensor:
#      x y z
#    x 1.713530 0.000000 -0.004810 
#    y 0.000000 1.648510 0.000000 
#    z -0.004810 0.000000 1.768080 
# 
# From -- ./inp_files/87363.got.cif
#   From: 2010.05.17/outbox.cif.g08.bks.cpg/sg15_44_cif.got.tgz:87363.got - 2010.06.03 18:47:42.
