data_PCOD9267731
_publ_section_title
;
Structure prediction by ZEFSAII (Michael W. Deem and Ramdas Pophale) SiO2 
 PCOD9267731
Probable space group: C 2/C
;
_chemical_formula_sum "Si O2"
_cell_formula_units_Z 44
_cell_length_a 11.394928
_cell_length_b 7.396487
_cell_length_c 26.615885
_cell_angle_alpha 90.000000
_cell_angle_beta 126.492412
_cell_angle_gamma 90.000000
_cell_volume 1803.429924
_symmetry_space_group_name_H-M "C 2/C"
_symmetry_group_IT_number 15
_symmetry_cell_setting 'monoclinic'
loop_
_space_group_symop_operation_xyz
x,y,z
-x,y,1/2-z
-x,-y,-z
x,-y,1/2+z
1/2+x,1/2+y,z
1/2-x,1/2+y,1/2-z
1/2-x,1/2-y,-z
1/2+x,1/2-y,1/2+z
loop_
_atom_site_type_symbol
_atom_site_label
_atom_site_fract_x
_atom_site_fract_y
_atom_site_fract_z
Si Si1 0.364659 0.405592 0.493030
Si Si2 0.000000 0.095712 0.250000
Si Si3 0.717766 0.877665 0.354007
Si Si4 0.154929 0.093559 0.198312
Si Si5 0.928087 0.523460 0.536596
Si Si6 0.941515 0.487970 0.828905
O O1 0.500000 0.500000 0.500000
O O2 0.278829 0.320082 0.423312
O O3 0.243311 0.519242 0.493697
O O4 0.423202 0.241322 0.540992
O O5 0.134113 0.222720 0.302019
O O6 0.051974 0.997559 0.213454
O O7 0.592039 0.021474 0.336807
O O8 0.833625 0.978686 0.348953
O O9 0.099938 0.297971 0.178992
O O10 0.314056 0.098217 0.264267
O O11 0.000000 0.500000 0.500000
O O12 0.026007 0.434033 0.605285
#
# Coordination Sequence:
#
# PCOD9267731 Si02
#       6
#     8   4   8   8   8   8
#     4  10  22  41  65  90 119 168 204 249 305 365
#     4  10  22  36  58  92 118 160 196 246 304 362
#     4  10  19  40  63  82 124 157 195 249 306 352
#     4  11  19  39  60  88 121 153 201 246 304 359
#     4  10  23  41  63  91 125 159 209 254 303 356
#     4  10  22  38  63  89 121 162 198 250 303 363
#
# _framework density 24.397953000000001
#
# number of rings (size 3 to 8) (size 9 to 14) (size 15 to 20)
#    0.000    1.818    3.636    1.091    2.545    2.182 
#    3.273    0.000    0.000    0.000    0.000    0.000 
#    0.000    0.000    0.000    0.000    0.000    0.000 
#
# Total GULP energy -122848.977542 kJ/mol
# GULP energy per Si atom -5584.044434 kJ/mol
# Density = 2.434242 g / cm^3
# Si number density = 24.397953 Si / 1000 Ang^3
#
#
#
# Elastic Constant Matrix: (Units=GPa)
#
#
# Indices 1 2 3 4 5 6 
#
# 1 189.6098 26.5190 26.4626 0.0000 -34.3893 0.0000
# 2 26.5190 45.2300 2.3463 0.0000 0.6228 0.0000
# 3 26.4626 2.3463 96.6728 0.0000 -16.1022 0.0000
# 4 0.0000 0.0000 0.0000 21.8243 0.0000 -9.2231
# 5 -34.3893 0.6228 -16.1022 0.0000 44.3614 0.0000
# 6 0.0000 0.0000 0.0000 -9.2231 0.0000 31.7186
#
#
#
# Elastic Compliance Matrix: (Units=1/GPa)
#
#
# Indices 1 2 3 4 5 6 
#
# 1 0.006891 -0.004061 -0.000946 0.000000 0.005056 0.000000
# 2 -0.004061 0.024542 -0.000070 0.000000 -0.003518 0.000000
# 3 -0.000946 -0.000070 0.011157 0.000000 0.003318 0.000000
# 4 0.000000 0.000000 0.000000 0.052240 0.000000 0.015190
# 5 0.005056 -0.003518 0.003318 0.000000 0.027715 0.000000
# 6 0.000000 0.000000 0.000000 0.015190 0.000000 0.035944
#
#
# Mechanical properties :
#
#
# Convention : Reuss Voigt Hill
#
# Bulk Modulus (GPa) = 30.82848 49.12982 39.97915
# Shear Modulus (GPa) = 27.86217 37.99317 32.92767
#
# Velocity S-wave (km/s) = 3.38300 3.95045 3.67769
# Velocity P-wave (km/s) = 5.28419 6.40224 5.86990
#
# Compressibility (1/GPa) = 0.03243754
#
# Stress axis : x y z
#
# Youngs Moduli (GPa) = 145.12043 40.74618 89.62707
#
# Poissons Ratio (x) = 0.16546 0.08475
# Poissons Ratio (y) = 0.58930 0.00628
# Poissons Ratio (z) = 0.13723 0.00285
#
# Static dielectric constant tensor:
#      x y z
#    x 2.033170 0.000000 0.018360 
#    y 0.000000 1.948240 0.000000 
#    z 0.018360 0.000000 1.931260 
# 
# From -- ./inp_files/310128.got.cif
#   From: 2010.05.17/outbox.cif.g08.bks.cpg/sg15_156_cif.got.tgz:310128.got - 2010.06.03 18:47:42.
