data_PCOD9267972
_publ_section_title
;
Structure prediction by ZEFSAII (Michael W. Deem and Ramdas Pophale) SiO2 
 PCOD9267972
Probable space group: C 2/C
;
_chemical_formula_sum "Si O2"
_cell_formula_units_Z 52
_cell_length_a 16.676877
_cell_length_b 19.185581
_cell_length_c 7.666198
_cell_angle_alpha 90.000000
_cell_angle_beta 95.334265
_cell_angle_gamma 90.000000
_cell_volume 2442.220208
_symmetry_space_group_name_H-M "C 2/C"
_symmetry_group_IT_number 15
_symmetry_cell_setting 'monoclinic'
loop_
_space_group_symop_operation_xyz
x,y,z
-x,y,1/2-z
-x,-y,-z
x,-y,1/2+z
1/2+x,1/2+y,z
1/2-x,1/2+y,1/2-z
1/2-x,1/2-y,-z
1/2+x,1/2-y,1/2+z
loop_
_atom_site_type_symbol
_atom_site_label
_atom_site_fract_x
_atom_site_fract_y
_atom_site_fract_z
Si Si1 0.083300 0.306950 0.743959
Si Si2 0.218524 0.095477 0.822768
Si Si3 0.500000 0.581950 0.250000
Si Si4 0.325584 0.220609 0.905244
Si Si5 0.260891 0.684266 0.131957
Si Si6 0.323450 0.447304 0.790885
Si Si7 0.060422 0.155736 0.612082
O O1 0.170627 0.330429 0.690232
O O2 0.062918 0.239456 0.623625
O O3 0.000000 0.349827 0.750000
O O4 0.103568 0.284525 0.945576
O O5 0.296109 0.145830 0.828774
O O6 0.148051 0.133855 0.701757
O O7 0.224186 0.018798 0.744793
O O8 0.194979 0.085163 0.022286
O O9 0.580550 0.540050 0.209854
O O10 0.528856 0.626476 0.423207
O O11 0.331292 0.279754 0.763456
O O12 0.250000 0.250000 0.000000
O O13 0.295202 0.606161 0.134121
O O14 0.250000 0.750000 0.000000
O O15 0.000000 0.130595 0.750000
#
# Coordination Sequence:
#
# PCOD9267972 Si02
#       7
#     8   8   4   8   8   8   8
#     4  10  20  38  66  91 116 164 212 260 322 375
#     4  12  23  41  61  88 124 175 214 250 319 380
#     4  12  26  38  56  96 134 174 206 248 308 394
#     4  10  19  41  64  84 119 167 206 256 314 381
#     4  11  22  40  59  94 128 161 210 263 315 372
#     4  12  26  38  60  90 130 172 210 257 314 384
#     4  11  21  37  60  88 130 167 204 255 307 376
#
# _framework density 21.292102
#
# number of rings (size 3 to 8) (size 9 to 14) (size 15 to 20)
#    0.000    0.923    7.692    1.846    5.385    1.231 
#    0.000    0.000    0.000    0.923    0.000    0.000 
#    0.000    0.000    0.000    0.000    0.000    0.000 
#
# Total GULP energy -144875.884169 kJ/mol
# GULP energy per Si atom -5572.149391 kJ/mol
# Density = 2.124364 g / cm^3
# Si number density = 21.292102 Si / 1000 Ang^3
#
#
#
# Elastic Constant Matrix: (Units=GPa)
#
#
# Indices 1 2 3 4 5 6 
#
# 1 95.8104 9.2263 10.5416 0.0000 14.0061 0.0000
# 2 9.2263 98.9265 4.5554 0.0000 7.0190 0.0000
# 3 10.5416 4.5554 83.3533 0.0000 9.6212 0.0000
# 4 0.0000 0.0000 0.0000 18.9597 0.0000 4.4700
# 5 14.0061 7.0190 9.6212 0.0000 31.3719 0.0000
# 6 0.0000 0.0000 0.0000 4.4700 0.0000 21.2954
#
#
#
# Elastic Compliance Matrix: (Units=1/GPa)
#
#
# Indices 1 2 3 4 5 6 
#
# 1 0.011272 -0.000684 -0.000855 0.000000 -0.004617 0.000000
# 2 -0.000684 0.010321 -0.000255 0.000000 -0.001925 0.000000
# 3 -0.000855 -0.000255 0.012511 0.000000 -0.003398 0.000000
# 4 0.000000 0.000000 0.000000 0.055490 0.000000 -0.011647
# 5 -0.004617 -0.001925 -0.003398 0.000000 0.035410 0.000000
# 6 0.000000 0.000000 0.000000 -0.011647 0.000000 0.049403
#
#
# Mechanical properties :
#
#
# Convention : Reuss Voigt Hill
#
# Bulk Modulus (GPa) = 32.77105 36.30407 34.53756
# Shear Modulus (GPa) = 26.57195 31.24319 28.90757
#
# Velocity S-wave (km/s) = 3.53650 3.83477 3.68865
# Velocity P-wave (km/s) = 5.66572 6.05762 5.86494
#
# Compressibility (1/GPa) = 0.03051474
#
# Stress axis : x y z
#
# Youngs Moduli (GPa) = 88.71361 96.89270 79.92671
#
# Poissons Ratio (x) = 0.06631 0.06836
# Poissons Ratio (y) = 0.06071 0.02040
# Poissons Ratio (z) = 0.07587 0.02473
#
# Static dielectric constant tensor:
#      x y z
#    x 1.853980 0.000000 -0.082940 
#    y 0.000000 1.784780 0.000000 
#    z -0.082940 0.000000 1.919800 
# 
# From -- ./inp_files/48667.got.cif
#   From: 2010.05.17/outbox.cif.g08.bks.cpg/sg15_25_cif.got.tgz:48667.got - 2010.06.03 18:47:42.
