data_PCOD9267394
_publ_section_title
;
Structure prediction by ZEFSAII (Michael W. Deem and Ramdas Pophale) SiO2 
 PCOD9267394
Probable space group: C 2/C
;
_chemical_formula_sum "Si O2"
_cell_formula_units_Z 56
_cell_length_a 13.918103
_cell_length_b 9.388889
_cell_length_c 26.583117
_cell_angle_alpha 90.000000
_cell_angle_beta 48.861601
_cell_angle_gamma 90.000000
_cell_volume 2616.169432
_symmetry_space_group_name_H-M "C 2/C"
_symmetry_group_IT_number 15
_symmetry_cell_setting 'monoclinic'
loop_
_space_group_symop_operation_xyz
x,y,z
-x,y,1/2-z
-x,-y,-z
x,-y,1/2+z
1/2+x,1/2+y,z
1/2-x,1/2+y,1/2-z
1/2-x,1/2-y,-z
1/2+x,1/2-y,1/2+z
loop_
_atom_site_type_symbol
_atom_site_label
_atom_site_fract_x
_atom_site_fract_y
_atom_site_fract_z
Si Si1 0.356977 0.158844 0.600891
Si Si2 0.820996 0.905379 0.533372
Si Si3 0.136306 0.818282 0.610944
Si Si4 0.644381 0.606218 0.311242
Si Si5 0.865324 0.439177 0.467278
Si Si6 0.899122 0.111745 0.596579
Si Si7 0.255653 0.869686 0.664829
O O1 0.332019 0.258134 0.560960
O O2 0.345238 0.267048 0.651879
O O3 0.496601 0.083533 0.554810
O O4 0.260535 0.030766 0.643814
O O5 0.950592 0.920186 0.456649
O O6 0.695389 0.927106 0.542471
O O7 0.840021 0.035427 0.567334
O O8 0.128744 0.680080 0.578543
O O9 0.258047 0.899157 0.545244
O O10 0.156630 0.789055 0.662757
O O11 0.003741 0.899480 0.652672
O O12 0.670938 0.462103 0.332447
O O13 0.726208 0.629592 0.233541
O O14 0.881255 0.279478 0.608283
#
# Coordination Sequence:
#
# PCOD9267394 Si02
#       7
#     8   8   8   8   8   8   8
#     4  10  24  38  61  92 127 159 206 262 331 371
#     4  10  19  39  62  88 121 158 204 263 315 379
#     4  10  20  35  62  90 111 153 209 253 304 366
#     4  10  21  40  60  83 118 167 204 246 301 389
#     4  10  19  39  62  90 122 152 205 269 305 378
#     4  10  20  35  62  87 111 160 207 242 311 374
#     4  12  22  38  57  89 125 157 202 257 308 380
#
# _framework density 21.405341
#
# number of rings (size 3 to 8) (size 9 to 14) (size 15 to 20)
#    0.000    1.714    2.857    2.143    4.000    2.286 
#    2.571    1.429    0.000    0.000    0.000    0.000 
#    0.000    0.000    0.000    0.000    0.000    0.000 
#
# Total GULP energy -156164.836163 kJ/mol
# GULP energy per Si atom -5577.315577 kJ/mol
# Density = 2.135662 g / cm^3
# Si number density = 21.405341 Si / 1000 Ang^3
#
#
#
# Elastic Constant Matrix: (Units=GPa)
#
#
# Indices 1 2 3 4 5 6 
#
# 1 54.4162 19.2898 22.1816 0.0000 18.7686 0.0000
# 2 19.2898 92.7182 35.2583 0.0000 10.2143 0.0000
# 3 22.1816 35.2583 65.1974 0.0000 19.7529 0.0000
# 4 0.0000 0.0000 0.0000 19.3998 0.0000 3.1560
# 5 18.7686 10.2143 19.7529 0.0000 27.2192 0.0000
# 6 0.0000 0.0000 0.0000 3.1560 0.0000 30.7988
#
#
#
# Elastic Compliance Matrix: (Units=1/GPa)
#
#
# Indices 1 2 3 4 5 6 
#
# 1 0.025473 -0.002615 -0.002856 0.000000 -0.014511 0.000000
# 2 -0.002615 0.013848 -0.007141 0.000000 0.001789 0.000000
# 3 -0.002856 -0.007141 0.024051 0.000000 -0.012805 0.000000
# 4 0.000000 0.000000 0.000000 0.052421 0.000000 -0.005372
# 5 -0.014511 0.001789 -0.012805 0.000000 0.055365 0.000000
# 6 0.000000 0.000000 0.000000 -0.005372 0.000000 0.033019
#
#
# Mechanical properties :
#
#
# Convention : Reuss Voigt Hill
#
# Bulk Modulus (GPa) = 26.21403 40.64349 33.42876
# Shear Modulus (GPa) = 20.65116 24.52371 22.58744
#
# Velocity S-wave (km/s) = 3.10944 3.38846 3.25195
# Velocity P-wave (km/s) = 5.01643 5.85984 5.45446
#
# Compressibility (1/GPa) = 0.03814750
#
# Stress axis : x y z
#
# Youngs Moduli (GPa) = 39.25750 72.21295 41.57832
#
# Poissons Ratio (x) = 0.18883 0.11875
# Poissons Ratio (y) = 0.10266 0.29692
# Poissons Ratio (z) = 0.11212 0.51568
#
# Static dielectric constant tensor:
#      x y z
#    x 1.838460 0.000000 0.003080 
#    y 0.000000 1.818530 0.000000 
#    z 0.003080 0.000000 1.738900 
# 
# From -- ./inp_files/312870.got.cif
#   From: 2010.05.17/outbox.cif.g08.bks.cpg/sg15_157_cif.got.tgz:312870.got - 2010.06.03 18:47:42.
