data_PCOD9267933
_publ_section_title
;
Structure prediction by ZEFSAII (Michael W. Deem and Ramdas Pophale) SiO2 
 PCOD9267933
Probable space group: C 2/C
;
_chemical_formula_sum "Si O2"
_cell_formula_units_Z 60
_cell_length_a 26.458889
_cell_length_b 11.955702
_cell_length_c 7.602972
_cell_angle_alpha 90.000000
_cell_angle_beta 87.619953
_cell_angle_gamma 90.000000
_cell_volume 2403.008308
_symmetry_space_group_name_H-M "C 2/C"
_symmetry_group_IT_number 15
_symmetry_cell_setting 'monoclinic'
loop_
_space_group_symop_operation_xyz
x,y,z
-x,y,1/2-z
-x,-y,-z
x,-y,1/2+z
1/2+x,1/2+y,z
1/2-x,1/2+y,1/2-z
1/2-x,1/2-y,-z
1/2+x,1/2-y,1/2+z
loop_
_atom_site_type_symbol
_atom_site_label
_atom_site_fract_x
_atom_site_fract_y
_atom_site_fract_z
Si Si1 0.500000 0.694227 0.750000
Si Si2 0.549676 0.885591 0.362991
Si Si3 0.671869 0.236182 0.090710
Si Si4 0.075977 0.375454 0.750902
Si Si5 0.724434 0.418796 0.558556
Si Si6 0.848688 0.063603 0.131016
Si Si7 0.268061 0.147332 0.717051
Si Si8 0.046028 0.130805 0.375037
O O1 0.543941 0.772276 0.834547
O O2 0.525637 0.631439 0.579768
O O3 0.500000 0.893523 0.250000
O O4 0.544837 0.890104 0.573371
O O5 0.567483 0.757458 0.333809
O O6 0.579393 0.000403 0.325500
O O7 0.650387 0.356585 0.039744
O O8 0.683063 0.173215 0.906074
O O9 0.631910 0.168483 0.207080
O O10 0.725314 0.259634 0.175626
O O11 0.681042 0.454053 0.424236
O O12 0.688466 0.377461 0.721608
O O13 0.750535 0.528715 0.636347
O O14 0.766423 0.361166 0.428409
O O15 0.906815 0.050210 0.170728
O O16 0.000000 0.112177 0.250000
#
# Coordination Sequence:
#
# PCOD9267933 Si02
#       8
#     4   8   8   8   8   8   8   8
#     4  10  20  36  56  82 118 168 192 248 292 344
#     4  10  20  33  51  77 113 155 194 230 286 348
#     4  10  20  37  58  83 123 144 199 239 297 345
#     4  11  21  33  53  83 113 164 191 242 285 351
#     4   9  20  38  67  79 113 150 193 239 306 360
#     4  10  19  41  59  88 111 153 196 242 298 356
#     4   9  20  38  59  87 110 157 185 247 296 354
#     4  10  22  37  59  86 119 160 205 249 289 362
#
# _framework density 24.968699999999998
#
# number of rings (size 3 to 8) (size 9 to 14) (size 15 to 20)
#    0.000    2.133    3.333    0.400    3.733    2.667 
#    2.400    0.667    0.000    0.000    0.000    0.000 
#    0.000    0.000    0.000    0.000    0.000    0.000 
#
# Total GULP energy -167411.393522 kJ/mol
# GULP energy per Si atom -5580.379784 kJ/mol
# Density = 2.491187 g / cm^3
# Si number density = 24.968700 Si / 1000 Ang^3
#
#
#
# Elastic Constant Matrix: (Units=GPa)
#
#
# Indices 1 2 3 4 5 6 
#
# 1 73.9357 -4.8487 1.7093 0.0000 -16.5784 0.0000
# 2 -4.8487 39.4475 12.9064 0.0000 -15.8025 0.0000
# 3 1.7093 12.9064 57.1536 0.0000 -4.5554 0.0000
# 4 0.0000 0.0000 0.0000 36.9194 0.0000 -9.9065
# 5 -16.5784 -15.8025 -4.5554 0.0000 33.9410 0.0000
# 6 0.0000 0.0000 0.0000 -9.9065 0.0000 30.1125
#
#
#
# Elastic Compliance Matrix: (Units=1/GPa)
#
#
# Indices 1 2 3 4 5 6 
#
# 1 0.016486 0.006845 -0.001155 0.000000 0.011085 0.000000
# 2 0.006845 0.036139 -0.006831 0.000000 0.019252 0.000000
# 3 -0.001155 -0.006831 0.018978 0.000000 -0.001198 0.000000
# 4 0.000000 0.000000 0.000000 0.029709 0.000000 0.009774
# 5 0.011085 0.019252 -0.001198 0.000000 0.043680 0.000000
# 6 0.000000 0.000000 0.000000 0.009774 0.000000 0.036424
#
#
# Mechanical properties :
#
#
# Convention : Reuss Voigt Hill
#
# Bulk Modulus (GPa) = 14.42577 21.11901 17.77239
# Shear Modulus (GPa) = 24.17721 30.91255 27.54488
#
# Velocity S-wave (km/s) = 3.11513 3.52241 3.32501
# Velocity P-wave (km/s) = 4.32768 5.00197 4.67699
#
# Compressibility (1/GPa) = 0.06932041
#
# Stress axis : x y z
#
# Youngs Moduli (GPa) = 60.65639 27.67107 52.69144
#
# Poissons Ratio (x) = -0.18940 0.06087
# Poissons Ratio (y) = -0.41518 0.35994
# Poissons Ratio (z) = 0.07007 0.18902
#
# Static dielectric constant tensor:
#      x y z
#    x 1.975730 0.000000 -0.009010 
#    y 0.000000 2.099580 0.000000 
#    z -0.009010 0.000000 1.996600 
# 
# From -- ./inp_files/65963.got.cif
#   From: 2010.05.17/outbox.cif.g08.bks.cpg/sg15_33_cif.got.tgz:65963.got - 2010.06.03 18:47:42.
