data_PCOD9267754
_publ_section_title
;
Structure prediction by ZEFSAII (Michael W. Deem and Ramdas Pophale) SiO2 
 PCOD9267754
Probable space group: C 2/C
;
_chemical_formula_sum "Si O2"
_cell_formula_units_Z 56
_cell_length_a 20.715683
_cell_length_b 21.984062
_cell_length_c 9.326799
_cell_angle_alpha 90.000000
_cell_angle_beta 138.204764
_cell_angle_gamma 90.000000
_cell_volume 2830.875270
_symmetry_space_group_name_H-M "C 2/C"
_symmetry_group_IT_number 15
_symmetry_cell_setting 'monoclinic'
loop_
_space_group_symop_operation_xyz
x,y,z
-x,y,1/2-z
-x,-y,-z
x,-y,1/2+z
1/2+x,1/2+y,z
1/2-x,1/2+y,1/2-z
1/2-x,1/2-y,-z
1/2+x,1/2-y,1/2+z
loop_
_atom_site_type_symbol
_atom_site_label
_atom_site_fract_x
_atom_site_fract_y
_atom_site_fract_z
Si Si1 0.248665 0.156476 0.075250
Si Si2 0.602143 0.259667 0.156609
Si Si3 0.500000 0.207482 0.250000
Si Si4 0.000000 0.843300 0.750000
Si Si5 0.716263 0.551885 0.200609
Si Si6 0.326764 0.431742 0.537917
Si Si7 0.336666 0.891254 0.443691
Si Si8 0.066492 0.515192 0.974013
O O1 0.337504 0.197891 0.282061
O O2 0.190419 0.117902 0.095787
O O3 0.178342 0.200194 0.870850
O O4 0.284358 0.110807 0.009679
O O5 0.521942 0.243185 0.141588
O O6 0.556573 0.299162 0.954075
O O7 0.593491 0.166355 0.439020
O O8 0.920759 0.888736 0.689397
O O9 0.664065 0.494574 0.038500
O O10 0.702732 0.551105 0.348896
O O11 0.829895 0.547014 0.343229
O O12 0.240322 0.395877 0.312364
O O13 0.401410 0.950863 0.538911
O O14 0.000000 0.549857 0.750000
O O15 0.000000 0.500000 0.000000
#
# Coordination Sequence:
#
# PCOD9267754 Si02
#       8
#     8   8   4   4   8   8   8   8
#     4  10  21  45  67  91 131 174 222 274 334 400
#     4  10  24  42  68  95 126 179 222 279 332 392
#     4  10  22  38  71  93 126 172 224 270 336 404
#     4  12  26  48  65  97 138 172 240 278 334 404
#     4  11  24  42  65  97 134 172 223 272 347 396
#     4  11  25  43  68  96 133 181 218 289 333 399
#     4  10  19  40  63  93 131 169 211 270 337 392
#     4  11  20  33  59  94 129 165 203 259 326 403
#
# _framework density 19.781867999999999
#
# number of rings (size 3 to 8) (size 9 to 14) (size 15 to 20)
#    0.000    1.429    2.143    4.286    4.000    1.714 
#    1.286    1.429    0.000    0.000    0.000    0.000 
#    0.000    0.000    0.000    0.000    0.000    0.000 
#
# Total GULP energy -156164.348236 kJ/mol
# GULP energy per Si atom -5577.298151 kJ/mol
# Density = 1.973684 g / cm^3
# Si number density = 19.781868 Si / 1000 Ang^3
#
#
#
# Elastic Constant Matrix: (Units=GPa)
#
#
# Indices 1 2 3 4 5 6 
#
# 1 62.8861 29.2756 30.5514 0.0000 -23.9835 0.0000
# 2 29.2756 78.0403 39.8336 0.0000 -19.3759 0.0000
# 3 30.5514 39.8336 96.5732 0.0000 -17.7516 0.0000
# 4 0.0000 0.0000 0.0000 34.7838 0.0000 7.1763
# 5 -23.9835 -19.3759 -17.7516 0.0000 30.6790 0.0000
# 6 0.0000 0.0000 0.0000 7.1763 0.0000 47.4901
#
#
#
# Elastic Compliance Matrix: (Units=1/GPa)
#
#
# Indices 1 2 3 4 5 6 
#
# 1 0.025251 -0.003856 -0.003600 0.000000 0.015222 0.000000
# 2 -0.003856 0.018347 -0.005340 0.000000 0.005484 0.000000
# 3 -0.003600 -0.005340 0.014054 0.000000 0.001945 0.000000
# 4 0.000000 0.000000 0.000000 0.029674 0.000000 -0.004484
# 5 0.015222 0.005484 0.001945 0.000000 0.049084 0.000000
# 6 0.000000 0.000000 0.000000 -0.004484 0.000000 0.021735
#
#
# Mechanical properties :
#
#
# Convention : Reuss Voigt Hill
#
# Bulk Modulus (GPa) = 31.19057 48.53563 39.86310
# Shear Modulus (GPa) = 25.71706 31.77984 28.74845
#
# Velocity S-wave (km/s) = 3.60951 4.01248 3.81632
# Velocity P-wave (km/s) = 5.75959 6.78641 6.29397
#
# Compressibility (1/GPa) = 0.03206097
#
# Stress axis : x y z
#
# Youngs Moduli (GPa) = 39.60240 54.50346 71.15507
#
# Poissons Ratio (x) = 0.21015 0.25615
# Poissons Ratio (y) = 0.15270 0.37997
# Poissons Ratio (z) = 0.14256 0.29105
#
# Static dielectric constant tensor:
#      x y z
#    x 1.674460 0.000000 0.037370 
#    y 0.000000 1.750250 0.000000 
#    z 0.037370 0.000000 1.647970 
# 
# From -- ./inp_files/57825.got.cif
#   From: 2010.05.17/outbox.cif.g08.bks.cpg/sg15_29_cif.got.tgz:57825.got - 2010.06.03 18:47:42.
