data_PCOD9267623
_publ_section_title
;
Structure prediction by ZEFSAII (Michael W. Deem and Ramdas Pophale) SiO2 
 PCOD9267623
Probable space group: C 2/C
;
_chemical_formula_sum "Si O2"
_cell_formula_units_Z 64
_cell_length_a 12.523409
_cell_length_b 16.887239
_cell_length_c 14.088757
_cell_angle_alpha 90.000000
_cell_angle_beta 87.644124
_cell_angle_gamma 90.000000
_cell_volume 2977.053671
_symmetry_space_group_name_H-M "C 2/C"
_symmetry_group_IT_number 15
_symmetry_cell_setting 'monoclinic'
loop_
_space_group_symop_operation_xyz
x,y,z
-x,y,1/2-z
-x,-y,-z
x,-y,1/2+z
1/2+x,1/2+y,z
1/2-x,1/2+y,1/2-z
1/2-x,1/2-y,-z
1/2+x,1/2-y,1/2+z
loop_
_atom_site_type_symbol
_atom_site_label
_atom_site_fract_x
_atom_site_fract_y
_atom_site_fract_z
Si Si1 0.181376 0.453866 0.715617
Si Si2 0.655723 0.494415 0.933342
Si Si3 0.995020 0.136837 0.507868
Si Si4 0.383753 0.198534 0.213016
Si Si5 0.532385 0.086113 0.642704
Si Si6 0.132742 0.712764 0.508050
Si Si7 0.194243 0.455505 0.398080
Si Si8 0.893019 0.863709 0.301783
O O1 0.289466 0.489381 0.669712
O O2 0.187637 0.359389 0.719619
O O3 0.168004 0.474546 0.826268
O O4 0.088104 0.500853 0.662405
O O5 0.599385 0.577436 0.956085
O O6 0.571877 0.422344 0.947281
O O7 0.748248 0.480279 0.007872
O O8 0.946935 0.214781 0.462865
O O9 0.059112 0.164309 0.598825
O O10 0.500000 0.180471 0.250000
O O11 0.385471 0.186961 0.100268
O O12 0.362617 0.290289 0.236584
O O13 0.500000 0.115393 0.750000
O O14 0.613619 0.142409 0.583265
O O15 0.421878 0.084034 0.587181
O O16 0.250000 0.750000 0.500000
O O17 0.285212 0.407384 0.337003
O O18 0.000000 0.903826 0.250000
#
# Coordination Sequence:
#
# PCOD9267623 Si02
#       8
#     8   8   8   8   8   8   8   8
#     4  11  24  42  62  95 135 173 223 273 335 402
#     4  10  23  40  69  94 134 168 223 282 330 410
#     4  10  21  43  62 101 127 172 221 276 341 395
#     4  11  24  41  66 100 127 176 223 272 325 413
#     4  10  25  46  64  94 137 179 220 283 338 397
#     4  12  26  43  74  98 136 181 226 280 341 407
#     4  10  23  40  66  96 126 178 219 272 339 394
#     4  10  19  39  69  89 131 170 221 268 326 403
#
# _framework density 21.497765000000001
#
# number of rings (size 3 to 8) (size 9 to 14) (size 15 to 20)
#    0.000    1.500    2.500    2.625    8.750    1.500 
#    0.000    2.500    0.000    0.000    0.000    0.000 
#    0.000    0.000    0.000    0.000    0.000    0.000 
#
# Total GULP energy -178498.108817 kJ/mol
# GULP energy per Si atom -5578.065901 kJ/mol
# Density = 2.144884 g / cm^3
# Si number density = 21.497765 Si / 1000 Ang^3
#
#
#
# Elastic Constant Matrix: (Units=GPa)
#
#
# Indices 1 2 3 4 5 6 
#
# 1 94.7852 26.0481 16.3853 0.0000 -1.6538 0.0000
# 2 26.0481 84.4915 32.7467 0.0000 -1.1642 0.0000
# 3 16.3853 32.7467 81.4176 0.0000 -6.0117 0.0000
# 4 0.0000 0.0000 0.0000 26.3979 0.0000 -10.0642
# 5 -1.6538 -1.1642 -6.0117 0.0000 31.8217 0.0000
# 6 0.0000 0.0000 0.0000 -10.0642 0.0000 12.4359
#
#
#
# Elastic Compliance Matrix: (Units=1/GPa)
#
#
# Indices 1 2 3 4 5 6 
#
# 1 0.011606 -0.003172 -0.001039 0.000000 0.000291 0.000000
# 2 -0.003172 0.014898 -0.005401 0.000000 -0.000640 0.000000
# 3 -0.001039 -0.005401 0.014852 0.000000 0.002554 0.000000
# 4 0.000000 0.000000 0.000000 0.054785 0.000000 0.044337
# 5 0.000291 -0.000640 0.002554 0.000000 0.031899 0.000000
# 6 0.000000 0.000000 0.000000 0.044337 0.000000 0.116294
#
#
# Mechanical properties :
#
#
# Convention : Reuss Voigt Hill
#
# Bulk Modulus (GPa) = 45.17938 45.67272 45.42605
# Shear Modulus (GPa) = 18.45455 26.49869 22.47662
#
# Velocity S-wave (km/s) = 2.93309 3.51469 3.23698
# Velocity P-wave (km/s) = 5.70370 6.14509 5.92850
#
# Compressibility (1/GPa) = 0.02213399
#
# Stress axis : x y z
#
# Youngs Moduli (GPa) = 86.15939 67.12423 67.32969
#
# Poissons Ratio (x) = 0.21289 0.06993
# Poissons Ratio (y) = 0.27326 0.36364
# Poissons Ratio (z) = 0.08949 0.36254
#
# Static dielectric constant tensor:
#      x y z
#    x 1.897030 0.000000 -0.144470 
#    y 0.000000 1.837090 0.000000 
#    z -0.144470 0.000000 2.057900 
# 
# From -- ./inp_files/146087.got.cif
#   From: 2010.05.17/outbox.cif.g08.bks.cpg/sg15_74_cif.got.tgz:146087.got - 2010.06.03 18:47:42.
