data_PCOD9267223
_publ_section_title
;
Structure prediction by ZEFSAII (Michael W. Deem and Ramdas Pophale) SiO2 
 PCOD9267223
Probable space group: C 2/C
;
_chemical_formula_sum "Si O2"
_cell_formula_units_Z 60
_cell_length_a 20.224961
_cell_length_b 23.747455
_cell_length_c 14.436579
_cell_angle_alpha 90.000000
_cell_angle_beta 159.418662
_cell_angle_gamma 90.000000
_cell_volume 2437.472823
_symmetry_space_group_name_H-M "C 2/C"
_symmetry_group_IT_number 15
_symmetry_cell_setting 'monoclinic'
loop_
_space_group_symop_operation_xyz
x,y,z
-x,y,1/2-z
-x,-y,-z
x,-y,1/2+z
1/2+x,1/2+y,z
1/2-x,1/2+y,1/2-z
1/2-x,1/2-y,-z
1/2+x,1/2-y,1/2+z
loop_
_atom_site_type_symbol
_atom_site_label
_atom_site_fract_x
_atom_site_fract_y
_atom_site_fract_z
Si Si1 0.906151 0.986919 0.772152
Si Si2 0.363295 0.828355 0.487908
Si Si3 0.077241 0.115512 0.533466
Si Si4 0.936049 0.735183 0.415263
Si Si5 0.500000 0.419743 0.250000
Si Si6 0.310809 0.702406 0.973190
Si Si7 0.109113 0.398953 0.308044
Si Si8 0.745536 0.628959 0.234059
O O1 0.712775 0.953153 0.490614
O O2 0.911936 0.040154 0.713597
O O3 0.052664 0.937724 0.935804
O O4 0.000000 0.000000 0.000000
O O5 0.268392 0.888145 0.341844
O O6 0.189710 0.786349 0.285254
O O7 0.487647 0.801653 0.569921
O O8 0.500000 0.834549 0.750000
O O9 0.126183 0.170998 0.538999
O O10 0.902066 0.119867 0.374800
O O11 0.805349 0.693912 0.304102
O O12 0.130895 0.741608 0.726801
O O13 0.648579 0.385804 0.508351
O O14 0.251779 0.648267 0.957338
O O15 0.500000 0.732572 0.250000
O O16 0.000000 0.371222 0.250000
O O17 0.939582 0.405410 0.010163
#
# Coordination Sequence:
#
# PCOD9267223 Si02
#       8
#     8   8   8   8   4   8   8   8
#     4  12  23  41  66  98 134 180 230 289 348 402
#     4  11  24  42  68  99 135 179 220 281 349 412
#     4  11  22  43  67  94 137 176 229 280 342 410
#     4  10  24  40  66 102 133 173 226 274 342 419
#     4  12  26  42  68 100 140 182 236 290 348 408
#     4  10  19  38  68  95 132 179 222 274 343 402
#     4  11  20  40  68  97 131 180 231 281 343 406
#     4  11  24  42  70  99 137 183 230 285 348 413
#
# _framework density 24.615658
#
# number of rings (size 3 to 8) (size 9 to 14) (size 15 to 20)
#    0.000    1.067    4.000    2.000    2.800    0.533 
#    0.000    8.667    2.933    0.000    0.000    0.000 
#    0.000    0.000    0.000    0.000    0.000    0.000 
#
# Total GULP energy -167269.755588 kJ/mol
# GULP energy per Si atom -5575.658520 kJ/mol
# Density = 2.455963 g / cm^3
# Si number density = 24.615658 Si / 1000 Ang^3
#
#
#
# Elastic Constant Matrix: (Units=GPa)
#
#
# Indices 1 2 3 4 5 6 
#
# 1 94.5943 6.3462 41.6869 0.0000 -4.3229 0.0000
# 2 6.3462 58.8686 52.0254 0.0000 -1.9111 0.0000
# 3 41.6869 52.0254 191.8228 -0.0001 -22.6767 0.0000
# 4 0.0000 0.0000 -0.0001 4.5288 0.0000 -6.3246
# 5 -4.3229 -1.9111 -22.6767 0.0000 34.9068 0.0000
# 6 0.0000 0.0000 0.0000 -6.3246 0.0000 29.8529
#
#
#
# Elastic Compliance Matrix: (Units=1/GPa)
#
#
# Indices 1 2 3 4 5 6 
#
# 1 0.011772 0.001342 -0.002969 0.000000 -0.000398 0.000000
# 2 0.001342 0.022777 -0.006826 0.000000 -0.003021 0.000000
# 3 -0.002969 -0.006826 0.008256 0.000000 0.004622 0.000000
# 4 0.000000 0.000000 0.000000 0.313588 0.000000 0.066436
# 5 -0.000398 -0.003021 0.004622 0.000000 0.031436 0.000000
# 6 0.000000 0.000000 0.000000 0.066436 0.000000 0.047573
#
#
# Mechanical properties :
#
#
# Convention : Reuss Voigt Hill
#
# Bulk Modulus (GPa) = 38.61280 60.60030 49.60655
# Shear Modulus (GPa) = 10.84738 30.20618 20.52678
#
# Velocity S-wave (km/s) = 2.10149 3.50682 2.89085
# Velocity P-wave (km/s) = 4.64851 6.40851 5.59811
#
# Compressibility (1/GPa) = 0.02589815
#
# Stress axis : x y z
#
# Youngs Moduli (GPa) = 84.94890 43.90390 121.12024
#
# Poissons Ratio (x) = -0.05893 0.35964
# Poissons Ratio (y) = -0.11402 0.82681
# Poissons Ratio (z) = 0.25224 0.29970
#
# Static dielectric constant tensor:
#      x y z
#    x 2.045610 0.000000 -0.108680 
#    y 0.000000 1.986140 0.000000 
#    z -0.108680 0.000000 2.083610 
# 
# From -- ./inp_files/169954.got.cif
#   From: 2010.05.17/outbox.cif.g08.bks.cpg/sg15_85_cif.got.tgz:169954.got - 2010.06.03 18:47:42.
