data_PCOD9267919
_publ_section_title
;
Structure prediction by ZEFSAII (Michael W. Deem and Ramdas Pophale) SiO2 
 PCOD9267919
Probable space group: C 2/C
;
_chemical_formula_sum "Si O2"
_cell_formula_units_Z 36
_cell_length_a 21.636217
_cell_length_b 8.420876
_cell_length_c 14.857865
_cell_angle_alpha 90.000000
_cell_angle_beta 39.602624
_cell_angle_gamma 90.000000
_cell_volume 1725.629094
_symmetry_space_group_name_H-M "C 2/C"
_symmetry_group_IT_number 15
_symmetry_cell_setting 'monoclinic'
loop_
_space_group_symop_operation_xyz
x,y,z
-x,y,1/2-z
-x,-y,-z
x,-y,1/2+z
1/2+x,1/2+y,z
1/2-x,1/2+y,1/2-z
1/2-x,1/2-y,-z
1/2+x,1/2-y,1/2+z
loop_
_atom_site_type_symbol
_atom_site_label
_atom_site_fract_x
_atom_site_fract_y
_atom_site_fract_z
Si Si1 0.483874 0.865971 0.368484
Si Si2 0.770968 0.575509 0.172391
Si Si3 0.000000 0.952113 0.750000
Si Si4 0.796655 0.082928 0.921493
Si Si5 0.195744 0.412230 0.189723
O O1 0.500000 0.934656 0.250000
O O2 0.384851 0.925968 0.521057
O O3 0.478434 0.674977 0.354895
O O4 0.579680 0.908930 0.315562
O O5 0.717484 0.449251 0.168179
O O6 0.762413 0.539215 0.286978
O O7 0.729530 0.743572 0.188635
O O8 0.092675 0.055924 0.672447
O O9 0.750000 0.250000 0.000000
O O10 0.737043 0.949605 0.044649
#
# Coordination Sequence:
#
# PCOD9267919 Si02
#       5
#     8   8   4   8   8
#     4  10  19  40  72  93 128 175 218 266 331 384
#     4  12  23  42  66 100 133 175 220 269 327 387
#     4  10  20  42  72  96 124 174 220 268 338 376
#     4  12  24  43  67  96 134 175 218 272 327 391
#     4  12  23  42  66 100 133 175 220 269 327 387
#
# _framework density 20.861955999999999
#
# number of rings (size 3 to 8) (size 9 to 14) (size 15 to 20)
#    0.667    0.000    6.667    2.667    0.000    1.778 
#    0.000    8.889    0.000    0.000    0.000    0.000 
#    0.000    0.000    0.000    0.000    0.000    0.000 
#
# Total GULP energy -100573.093973 kJ/mol
# GULP energy per Si atom -5587.394110 kJ/mol
# Density = 2.081447 g / cm^3
# Si number density = 20.861956 Si / 1000 Ang^3
#
#
#
# Elastic Constant Matrix: (Units=GPa)
#
#
# Indices 1 2 3 4 5 6 
#
# 1 131.7373 21.5488 23.1027 0.0000 -23.1690 0.0000
# 2 21.5488 63.0384 -21.9761 0.0000 -2.3531 0.0000
# 3 23.1027 -21.9761 33.6015 0.0001 -17.7467 0.0000
# 4 0.0000 0.0000 0.0001 15.4305 0.0000 9.7578
# 5 -23.1690 -2.3531 -17.7467 0.0000 50.5935 0.0000
# 6 0.0000 0.0000 0.0000 9.7578 0.0000 27.8443
#
#
#
# Elastic Compliance Matrix: (Units=1/GPa)
#
#
# Indices 1 2 3 4 5 6 
#
# 1 0.011334 -0.008498 -0.013278 0.000000 0.000138 0.000000
# 2 -0.008498 0.029131 0.028911 0.000000 0.007605 0.000000
# 3 -0.013278 0.028911 0.067871 0.000000 0.019071 0.000000
# 4 0.000000 0.000000 0.000000 0.083257 0.000000 -0.029177
# 5 0.000138 0.007605 0.019071 0.000000 0.026872 0.000000
# 6 0.000000 0.000000 0.000000 -0.029177 0.000000 0.046139
#
#
# Mechanical properties :
#
#
# Convention : Reuss Voigt Hill
#
# Bulk Modulus (GPa) = 8.15609 30.41422 19.28516
# Shear Modulus (GPa) = 17.17033 32.48712 24.82872
#
# Velocity S-wave (km/s) = 2.87199 3.95047 3.45359
# Velocity P-wave (km/s) = 3.86210 5.95137 5.01670
#
# Compressibility (1/GPa) = 0.12260771
#
# Stress axis : x y z
#
# Youngs Moduli (GPa) = 88.23363 34.32764 14.73386
#
# Poissons Ratio (x) = 0.29171 0.19563
# Poissons Ratio (y) = 0.74979 -0.42598
# Poissons Ratio (z) = 1.17152 -0.99246
#
# Static dielectric constant tensor:
#      x y z
#    x 1.727780 0.000000 0.011520 
#    y 0.000000 1.759700 0.000000 
#    z 0.011520 0.000000 1.723270 
# 
# From -- ./inp_files/159047.got.cif
#   From: 2010.05.17/outbox.cif.g08.bks.cpg/sg15_80_cif.got.tgz:159047.got - 2010.06.03 18:47:42.
