data_PCOD9267064
_publ_section_title
;
Structure prediction by ZEFSAII (Michael W. Deem and Ramdas Pophale) SiO2 
 PCOD9267064
Probable space group: C 2/C
;
_chemical_formula_sum "Si O2"
_cell_formula_units_Z 48
_cell_length_a 10.377837
_cell_length_b 15.299192
_cell_length_c 16.597776
_cell_angle_alpha 90.000000
_cell_angle_beta 50.680817
_cell_angle_gamma 90.000000
_cell_volume 2038.719509
_symmetry_space_group_name_H-M "C 2/C"
_symmetry_group_IT_number 15
_symmetry_cell_setting 'monoclinic'
loop_
_space_group_symop_operation_xyz
x,y,z
-x,y,1/2-z
-x,-y,-z
x,-y,1/2+z
1/2+x,1/2+y,z
1/2-x,1/2+y,1/2-z
1/2-x,1/2-y,-z
1/2+x,1/2-y,1/2+z
loop_
_atom_site_type_symbol
_atom_site_label
_atom_site_fract_x
_atom_site_fract_y
_atom_site_fract_z
Si Si1 0.804064 0.994260 0.563804
Si Si2 0.384179 0.580981 0.862777
Si Si3 0.864457 0.154872 0.153545
Si Si4 0.453010 0.237936 0.176391
Si Si5 0.063363 0.673413 0.973700
Si Si6 0.238260 0.854070 0.513847
O O1 0.799119 0.963880 0.472750
O O2 0.764206 0.924910 0.649797
O O3 0.733514 0.092027 0.580981
O O4 0.000000 0.000000 0.500000
O O5 0.500000 0.535231 0.750000
O O6 0.498439 0.660411 0.851839
O O7 0.226575 0.623422 0.880083
O O8 0.736614 0.206768 0.261096
O O9 0.915846 0.227454 0.066681
O O10 0.045656 0.128264 0.116351
O O11 0.500000 0.218932 0.250000
O O12 0.560569 0.183771 0.070687
O O13 0.894027 0.628408 0.010802
O O14 0.250000 0.750000 0.500000
#
# Coordination Sequence:
#
# PCOD9267064 Si02
#       6
#     8   8   8   8   8   8
#     4  10  21  41  66  89 129 172 213 265 327 389
#     4  11  21  37  66  92 126 162 214 267 318 380
#     4  10  19  38  64  94 127 167 211 258 320 391
#     4  11  20  33  63  98 119 161 213 257 312 391
#     4  11  20  38  64  92 129 164 210 266 325 380
#     4   9  22  40  65  90 123 171 213 262 328 382
#
# _framework density 23.54419
#
# number of rings (size 3 to 8) (size 9 to 14) (size 15 to 20)
#    0.000    1.667    5.000    1.500    0.000    1.333 
#    6.000    0.000    3.667    3.000    0.000    0.000 
#    0.000    0.000    0.000    0.000    0.000    0.000 
#
# Total GULP energy -133648.327780 kJ/mol
# GULP energy per Si atom -5568.680324 kJ/mol
# Density = 2.349060 g / cm^3
# Si number density = 23.544190 Si / 1000 Ang^3
#
#
#
# Elastic Constant Matrix: (Units=GPa)
#
#
# Indices 1 2 3 4 5 6 
#
# 1 59.0010 20.5978 7.4524 0.0001 -7.1791 0.0000
# 2 20.5978 86.4960 4.8702 0.0000 -4.5992 0.0000
# 3 7.4524 4.8702 64.2066 0.0001 -13.8771 -0.0001
# 4 0.0001 0.0000 0.0001 22.4390 -0.0001 1.1357
# 5 -7.1791 -4.5992 -13.8771 -0.0001 26.6311 0.0000
# 6 0.0000 0.0000 -0.0001 1.1357 0.0000 35.1066
#
#
#
# Elastic Compliance Matrix: (Units=1/GPa)
#
#
# Indices 1 2 3 4 5 6 
#
# 1 0.019041 -0.004270 -0.001055 0.000000 0.003846 0.000000
# 2 -0.004270 0.012641 -0.000271 0.000000 0.000891 0.000000
# 3 -0.001055 -0.000271 0.017632 0.000000 0.008857 0.000000
# 4 0.000000 0.000000 0.000000 0.044638 0.000000 -0.001444
# 5 0.003846 0.000891 0.008857 0.000000 0.043356 0.000000
# 6 0.000000 0.000000 0.000000 -0.001444 0.000000 0.028531
#
#
# Mechanical properties :
#
#
# Convention : Reuss Voigt Hill
#
# Bulk Modulus (GPa) = 26.23190 30.61604 28.42397
# Shear Modulus (GPa) = 26.35208 28.62088 27.48648
#
# Velocity S-wave (km/s) = 3.34916 3.49036 3.42049
# Velocity P-wave (km/s) = 5.11093 5.41067 5.26294
#
# Compressibility (1/GPa) = 0.03812153
#
# Stress axis : x y z
#
# Youngs Moduli (GPa) = 52.51848 79.10899 56.71543
#
# Poissons Ratio (x) = 0.33783 0.05983
# Poissons Ratio (y) = 0.22428 0.01535
# Poissons Ratio (z) = 0.05541 0.02141
#
# Static dielectric constant tensor:
#      x y z
#    x 1.932680 0.000000 0.013090 
#    y 0.000000 2.111050 0.000000 
#    z 0.013090 0.000000 1.925170 
# 
# From -- ./inp_files/199015.got.cif
#   From: 2010.05.17/outbox.cif.g08.bks.cpg/sg15_100_cif.got.tgz:199015.got - 2010.06.03 18:47:42.
