data_PCOD9267398
_publ_section_title
;
Structure prediction by ZEFSAII (Michael W. Deem and Ramdas Pophale) SiO2 
 PCOD9267398
Probable space group: C 2/C
;
_chemical_formula_sum "Si O2"
_cell_formula_units_Z 64
_cell_length_a 15.735910
_cell_length_b 21.967267
_cell_length_c 10.912677
_cell_angle_alpha 90.000000
_cell_angle_beta 129.741227
_cell_angle_gamma 90.000000
_cell_volume 2900.624393
_symmetry_space_group_name_H-M "C 2/C"
_symmetry_group_IT_number 15
_symmetry_cell_setting 'monoclinic'
loop_
_space_group_symop_operation_xyz
x,y,z
-x,y,1/2-z
-x,-y,-z
x,-y,1/2+z
1/2+x,1/2+y,z
1/2-x,1/2+y,1/2-z
1/2-x,1/2-y,-z
1/2+x,1/2-y,1/2+z
loop_
_atom_site_type_symbol
_atom_site_label
_atom_site_fract_x
_atom_site_fract_y
_atom_site_fract_z
Si Si1 0.668557 0.301749 0.380570
Si Si2 0.616438 0.534730 0.602133
Si Si3 0.750478 0.571047 0.318992
Si Si4 0.026036 0.765055 0.463209
Si Si5 0.859163 0.366853 0.431456
Si Si6 0.979039 0.135659 0.374200
Si Si7 0.953376 0.456519 0.849468
Si Si8 0.311726 0.939933 0.135664
O O1 0.750000 0.250000 0.500000
O O2 0.593495 0.310245 0.432285
O O3 0.593845 0.269051 0.208671
O O4 0.743815 0.356080 0.396926
O O5 0.500000 0.500000 0.500000
O O6 0.701678 0.499191 0.771505
O O7 0.570951 0.603570 0.546244
O O8 0.691010 0.530735 0.549064
O O9 0.640712 0.609781 0.201825
O O10 0.845688 0.577387 0.305988
O O11 0.804843 0.589646 0.497457
O O12 0.081641 0.699065 0.519455
O O13 0.020926 0.793947 0.592068
O O14 0.836526 0.396434 0.275646
O O15 0.946618 0.410256 0.581190
O O16 0.000000 0.123289 0.250000
O O17 0.898526 0.505507 0.708923
O O18 0.000000 0.500000 0.000000
#
# Coordination Sequence:
#
# PCOD9267398 Si02
#       8
#     8   8   8   8   8   8   8   8
#     4   9  20  41  67  87 125 167 212 275 316 374
#     4   9  19  36  59  88 120 166 212 258 322 366
#     4  10  21  38  61  89 127 168 207 267 319 381
#     4  10  22  41  63  98 131 163 220 266 323 386
#     4  10  21  40  65  91 128 172 210 267 330 383
#     4  11  21  39  64  92 133 173 212 265 320 389
#     4   9  21  39  58  88 124 164 218 263 315 382
#     4  10  19  39  62  89 129 172 214 266 319 390
#
# _framework density 22.064214
#
# number of rings (size 3 to 8) (size 9 to 14) (size 15 to 20)
#    0.000    2.250    1.250    0.750    0.000    4.000 
#    2.250   38.125    0.000    0.000    0.000    0.000 
#    0.000    0.000    0.000    0.000    0.000    0.000 
#
# Total GULP energy -178211.698147 kJ/mol
# GULP energy per Si atom -5569.115567 kJ/mol
# Density = 2.201400 g / cm^3
# Si number density = 22.064214 Si / 1000 Ang^3
#
#
#
# Elastic Constant Matrix: (Units=GPa)
#
#
# Indices 1 2 3 4 5 6 
#
# 1 104.2727 29.5140 34.3273 0.0000 27.8923 0.0000
# 2 29.5140 91.6509 34.0171 0.0000 1.9467 0.0000
# 3 34.3273 34.0171 105.7092 0.0000 9.3865 0.0000
# 4 0.0000 0.0000 0.0000 27.9620 0.0000 3.7626
# 5 27.8923 1.9467 9.3865 0.0000 34.2774 0.0000
# 6 0.0000 0.0000 0.0000 3.7626 0.0000 35.9683
#
#
#
# Elastic Compliance Matrix: (Units=1/GPa)
#
#
# Indices 1 2 3 4 5 6 
#
# 1 0.014272 -0.003408 -0.002587 0.000000 -0.010711 0.000000
# 2 -0.003408 0.013210 -0.003407 0.000000 0.002956 0.000000
# 3 -0.002587 -0.003407 0.011471 0.000000 -0.000843 0.000000
# 4 0.000000 0.000000 0.000000 0.036273 0.000000 -0.003794
# 5 -0.010711 0.002956 -0.000843 0.000000 0.037953 0.000000
# 6 0.000000 0.000000 0.000000 -0.003794 0.000000 0.028199
#
#
# Mechanical properties :
#
#
# Convention : Reuss Voigt Hill
#
# Bulk Modulus (GPa) = 49.62867 55.26105 52.44486
# Shear Modulus (GPa) = 29.95842 33.22650 31.59246
#
# Velocity S-wave (km/s) = 3.68881 3.88480 3.78807
# Velocity P-wave (km/s) = 6.37846 6.72474 6.55389
#
# Compressibility (1/GPa) = 0.02014964
#
# Stress axis : x y z
#
# Youngs Moduli (GPa) = 70.06880 75.69921 87.17641
#
# Poissons Ratio (x) = 0.25801 0.22549
# Poissons Ratio (y) = 0.23882 0.29698
# Poissons Ratio (z) = 0.18124 0.25789
#
# Static dielectric constant tensor:
#      x y z
#    x 1.868400 0.000000 0.011190 
#    y 0.000000 1.852290 0.000000 
#    z 0.011190 0.000000 1.817430 
# 
# From -- ./inp_files/107524.got.cif
#   From: 2010.05.17/outbox.cif.g08.bks.cpg/sg15_54_cif.got.tgz:107524.got - 2010.06.03 18:47:42.
