data_PCOD9267412
_publ_section_title
;
Structure prediction by ZEFSAII (Michael W. Deem and Ramdas Pophale) SiO2 
 PCOD9267412
Probable space group: C 2/C
;
_chemical_formula_sum "Si O2"
_cell_formula_units_Z 56
_cell_length_a 10.035248
_cell_length_b 13.842244
_cell_length_c 17.889253
_cell_angle_alpha 90.000000
_cell_angle_beta 105.794788
_cell_angle_gamma 90.000000
_cell_volume 2391.175583
_symmetry_space_group_name_H-M "C 2/C"
_symmetry_group_IT_number 15
_symmetry_cell_setting 'monoclinic'
loop_
_space_group_symop_operation_xyz
x,y,z
-x,y,1/2-z
-x,-y,-z
x,-y,1/2+z
1/2+x,1/2+y,z
1/2-x,1/2+y,1/2-z
1/2-x,1/2-y,-z
1/2+x,1/2-y,1/2+z
loop_
_atom_site_type_symbol
_atom_site_label
_atom_site_fract_x
_atom_site_fract_y
_atom_site_fract_z
Si Si1 0.500000 0.912435 0.750000
Si Si2 0.671570 0.760202 0.381004
Si Si3 0.500000 0.463562 0.250000
Si Si4 0.935811 0.103023 0.900707
Si Si5 0.883370 0.876735 0.931201
Si Si6 0.402665 0.071288 0.079147
Si Si7 0.186392 0.141663 0.239853
Si Si8 0.366160 0.877216 0.993233
O O1 0.546036 0.966931 0.832443
O O2 0.646321 0.859952 0.749187
O O3 0.796878 0.834996 0.382961
O O4 0.644364 0.716121 0.296808
O O5 0.580637 0.820149 0.425972
O O6 0.727836 0.671054 0.440654
O O7 0.498469 0.402672 0.172549
O O8 0.631835 0.536331 0.260106
O O9 0.901892 0.991926 0.917421
O O10 0.028510 0.144207 0.982290
O O11 0.724322 0.858642 0.927103
O O12 0.895469 0.835676 0.849436
O O13 0.350553 0.986759 0.017046
O O14 0.527500 0.123706 0.057926
#
# Coordination Sequence:
#
# PCOD9267412 Si02
#       8
#     4   8   4   8   8   8   8   8
#     4  10  20  39  67  92 128 172 220 266 326 389
#     4  11  22  40  64  96 132 173 207 275 344 388
#     4  10  24  41  71 100 120 180 230 268 318 401
#     4  10  21  40  67  97 129 167 222 273 326 388
#     4   9  20  39  68  92 124 172 226 261 314 400
#     4  10  19  39  62  96 120 178 218 270 307 411
#     4  10  22  40  69  96 131 174 223 267 332 390
#     4  10  22  34  62  92 127 165 223 258 336 379
#
# _framework density 23.419442
#
# number of rings (size 3 to 8) (size 9 to 14) (size 15 to 20)
#    0.000    2.000    2.857    0.000    2.000    4.000 
#    0.000    2.857    6.286    0.000    0.000    0.000 
#    0.000    0.000    0.000    0.000    0.000    0.000 
#
# Total GULP energy -156278.809401 kJ/mol
# GULP energy per Si atom -5581.386050 kJ/mol
# Density = 2.336614 g / cm^3
# Si number density = 23.419442 Si / 1000 Ang^3
#
#
#
# Elastic Constant Matrix: (Units=GPa)
#
#
# Indices 1 2 3 4 5 6 
#
# 1 84.3750 -8.8115 45.1925 0.0000 -27.0501 0.0000
# 2 -8.8115 34.6822 32.1116 0.0000 -2.3983 0.0000
# 3 45.1925 32.1116 194.0643 0.0000 -26.0168 0.0000
# 4 0.0000 0.0000 0.0000 35.1937 0.0000 -1.0222
# 5 -27.0501 -2.3983 -26.0168 0.0000 42.5260 0.0000
# 6 0.0000 0.0000 0.0000 -1.0222 0.0000 16.2016
#
#
#
# Elastic Compliance Matrix: (Units=1/GPa)
#
#
# Indices 1 2 3 4 5 6 
#
# 1 0.018313 0.009549 -0.004587 0.000000 0.009381 0.000000
# 2 0.009549 0.039137 -0.008267 0.000000 0.003223 0.000000
# 3 -0.004587 -0.008267 0.007773 0.000000 0.001371 0.000000
# 4 0.000000 0.000000 0.000000 0.028466 0.000000 0.001796
# 5 0.009381 0.003223 0.001371 0.000000 0.030503 0.000000
# 6 0.000000 0.000000 0.000000 0.001796 0.000000 0.061836
#
#
# Mechanical properties :
#
#
# Convention : Reuss Voigt Hill
#
# Bulk Modulus (GPa) = 17.06159 50.01186 33.53672
# Shear Modulus (GPa) = 23.56523 35.09285 29.32904
#
# Velocity S-wave (km/s) = 3.17555 3.87518 3.54268
# Velocity P-wave (km/s) = 4.55483 6.43614 5.57541
#
# Compressibility (1/GPa) = 0.05861120
#
# Stress axis : x y z
#
# Youngs Moduli (GPa) = 54.60464 25.55151 128.65061
#
# Poissons Ratio (x) = -0.24398 0.59013
# Poissons Ratio (y) = -0.52139 1.06361
# Poissons Ratio (z) = 0.25047 0.21125
#
# Static dielectric constant tensor:
#      x y z
#    x 1.960100 0.000000 0.006120 
#    y 0.000000 1.866480 0.000000 
#    z 0.006120 0.000000 1.901310 
# 
# From -- ./inp_files/197797.got.cif
#   From: 2010.05.17/outbox.cif.g08.bks.cpg/sg15_99_cif.got.tgz:197797.got - 2010.06.03 18:47:42.
