data_PCOD9267319
_publ_section_title
;
Structure prediction by ZEFSAII (Michael W. Deem and Ramdas Pophale) SiO2 
 PCOD9267319
Probable space group: C 2/C
;
_chemical_formula_sum "Si O2"
_cell_formula_units_Z 40
_cell_length_a 8.410376
_cell_length_b 11.164181
_cell_length_c 16.417244
_cell_angle_alpha 90.000000
_cell_angle_beta 97.630209
_cell_angle_gamma 90.000000
_cell_volume 1527.847550
_symmetry_space_group_name_H-M "C 2/C"
_symmetry_group_IT_number 15
_symmetry_cell_setting 'monoclinic'
loop_
_space_group_symop_operation_xyz
x,y,z
-x,y,1/2-z
-x,-y,-z
x,-y,1/2+z
1/2+x,1/2+y,z
1/2-x,1/2+y,1/2-z
1/2-x,1/2-y,-z
1/2+x,1/2-y,1/2+z
loop_
_atom_site_type_symbol
_atom_site_label
_atom_site_fract_x
_atom_site_fract_y
_atom_site_fract_z
Si Si1 0.682450 0.413670 0.667009
Si Si2 0.479689 0.178763 0.891882
Si Si3 0.189414 0.910217 0.023010
Si Si4 0.500000 0.616487 0.750000
Si Si5 0.500000 0.016940 0.250000
Si Si6 0.849830 0.119131 0.575659
O O1 0.564087 0.301916 0.656554
O O2 0.711801 0.466910 0.578522
O O3 0.615181 0.529730 0.707494
O O4 0.848902 0.398955 0.724492
O O5 0.332574 0.164854 0.945646
O O6 0.655630 0.168576 0.944858
O O7 0.475844 0.070698 0.825938
O O8 0.173087 0.973615 0.934038
O O9 0.016614 0.858578 0.038024
O O10 0.394921 0.667045 0.668899
#
# Coordination Sequence:
#
# PCOD9267319 Si02
#       6
#     8   8   8   4   4   8
#     4  10  21  38  61  92 124 164 218 259 317 387
#     4  11  21  39  65  87 127 170 204 264 326 361
#     4   9  22  41  61  92 125 162 216 260 307 390
#     4  10  19  39  60  80 122 164 203 257 318 374
#     4  10  21  41  58  96 132 164 221 273 308 388
#     4  10  20  40  65  86 125 168 204 260 322 368
#
# _framework density 26.180620000000001
#
# number of rings (size 3 to 8) (size 9 to 14) (size 15 to 20)
#    0.000    2.000    2.000    1.200    0.000    1.600 
#    3.600    9.000    0.000    0.000    0.000    0.000 
#    0.000    0.000    0.000    0.000    0.000    0.000 
#
# Total GULP energy -111632.306703 kJ/mol
# GULP energy per Si atom -5581.615335 kJ/mol
# Density = 2.612103 g / cm^3
# Si number density = 26.180620 Si / 1000 Ang^3
#
#
#
# Elastic Constant Matrix: (Units=GPa)
#
#
# Indices 1 2 3 4 5 6 
#
# 1 227.7695 52.0343 49.2359 0.0000 51.4443 0.0000
# 2 52.0343 89.2200 22.9062 0.0000 23.6820 0.0000
# 3 49.2359 22.9062 76.8953 0.0000 19.4153 0.0000
# 4 0.0000 0.0000 0.0000 -18.8291 0.0000 9.4030
# 5 51.4443 23.6820 19.4153 0.0000 60.6770 0.0000
# 6 0.0000 0.0000 0.0000 9.4030 0.0000 51.5694
#
#
#
# Elastic Compliance Matrix: (Units=1/GPa)
#
#
# Indices 1 2 3 4 5 6 
#
# 1 0.006215 -0.002015 -0.002445 0.000000 -0.003701 0.000000
# 2 -0.002015 0.013699 -0.002037 0.000000 -0.002987 0.000000
# 3 -0.002445 -0.002037 0.015723 0.000000 -0.002163 0.000000
# 4 0.000000 0.000000 0.000000 -0.048677 0.000000 0.008876
# 5 -0.003701 -0.002987 -0.002163 0.000000 0.021476 0.000000
# 6 0.000000 0.000000 0.000000 0.008876 0.000000 0.017773
#
#
# Mechanical properties :
#
#
# Convention : Reuss Voigt Hill
#
# Bulk Modulus (GPa) = 44.16070 71.35973 57.76021
# Shear Modulus (GPa) = 106.95205 36.66401 71.80803
#
# Velocity S-wave (km/s) = 6.39846 3.74629 5.24285
# Velocity P-wave (km/s) = 8.45526 6.78445 7.66551
#
# Compressibility (1/GPa) = 0.02264457
#
# Stress axis : x y z
#
# Youngs Moduli (GPa) = 160.90074 72.99839 63.60094
#
# Poissons Ratio (x) = 0.14707 0.15550
# Poissons Ratio (y) = 0.32417 0.12953
# Poissons Ratio (z) = 0.39339 0.14867
#
# Static dielectric constant tensor:
#      x y z
#    x 2.413040 0.000000 -0.160950 
#    y 0.000000 2.113120 0.000000 
#    z -0.160950 0.000000 2.520860 
# 
# From -- ./inp_files/187842.got.cif
#   From: 2010.05.17/outbox.cif.g08.bks.cpg/sg15_94_cif.got.tgz:187842.got - 2010.06.03 18:47:42.
