data_PCOD9267373
_publ_section_title
;
Structure prediction by ZEFSAII (Michael W. Deem and Ramdas Pophale) SiO2 
 PCOD9267373
Probable space group: C 2/C
;
_chemical_formula_sum "Si O2"
_cell_formula_units_Z 56
_cell_length_a 24.090772
_cell_length_b 9.182110
_cell_length_c 16.035692
_cell_angle_alpha 90.000000
_cell_angle_beta 132.190768
_cell_angle_gamma 90.000000
_cell_volume 2628.137144
_symmetry_space_group_name_H-M "C 2/C"
_symmetry_group_IT_number 15
_symmetry_cell_setting 'monoclinic'
loop_
_space_group_symop_operation_xyz
x,y,z
-x,y,1/2-z
-x,-y,-z
x,-y,1/2+z
1/2+x,1/2+y,z
1/2-x,1/2+y,1/2-z
1/2-x,1/2-y,-z
1/2+x,1/2-y,1/2+z
loop_
_atom_site_type_symbol
_atom_site_label
_atom_site_fract_x
_atom_site_fract_y
_atom_site_fract_z
Si Si1 0.230831 0.604234 0.428623
Si Si2 0.824467 0.937748 0.785611
Si Si3 0.113622 0.909594 0.465676
Si Si4 0.582540 0.919203 0.873687
Si Si5 0.197158 0.731088 0.213599
Si Si6 0.044684 0.384710 0.489284
Si Si7 0.479970 0.420396 0.891201
O O1 0.250000 0.750000 0.500000
O O2 0.311981 0.526520 0.504052
O O3 0.155011 0.539829 0.391025
O O4 0.211963 0.650790 0.315506
O O5 0.756115 0.828175 0.705386
O O6 0.892137 0.946861 0.788533
O O7 0.791888 0.098428 0.763033
O O8 0.862484 0.893657 0.912638
O O9 0.094361 0.749402 0.412340
O O10 0.040322 0.009985 0.389783
O O11 0.500000 0.930503 0.750000
O O12 0.579904 0.024204 0.949970
O O13 0.112397 0.696126 0.104264
O O14 0.000000 0.500000 0.500000
O O15 0.991962 0.252127 0.408440
O O16 0.500000 0.500000 0.000000
#
# Coordination Sequence:
#
# PCOD9267373 Si02
#       7
#     8   8   8   8   8   8   8
#     4   9  21  39  61  88 128 170 217 265 324 398
#     4  10  22  36  64  98 130 158 217 272 330 381
#     4   9  19  41  63  87 127 169 221 271 317 395
#     4  11  24  41  64  93 133 179 222 267 336 399
#     4  11  23  39  66  97 128 170 219 274 329 384
#     4  12  24  38  67  95 129 169 222 277 326 384
#     4  10  19  39  61  91 127 160 211 276 323 381
#
# _framework density 21.307867999999999
#
# number of rings (size 3 to 8) (size 9 to 14) (size 15 to 20)
#    0.000    1.714    2.857    2.571   10.000    0.000 
#    0.000    1.429    0.000    0.000    0.000    0.000 
#    0.000    0.000    0.000    0.000    0.000    0.000 
#
# Total GULP energy -156264.600099 kJ/mol
# GULP energy per Si atom -5580.878575 kJ/mol
# Density = 2.125937 g / cm^3
# Si number density = 21.307868 Si / 1000 Ang^3
#
#
#
# Elastic Constant Matrix: (Units=GPa)
#
#
# Indices 1 2 3 4 5 6 
#
# 1 152.6365 42.3145 22.8701 0.0000 41.2659 0.0000
# 2 42.3145 103.9056 -6.7876 0.0000 22.5559 0.0000
# 3 22.8701 -6.7876 9.5574 0.0000 4.0542 0.0000
# 4 0.0000 0.0000 0.0000 25.9177 0.0000 7.6245
# 5 41.2659 22.5559 4.0542 0.0000 34.7588 0.0000
# 6 0.0000 0.0000 0.0000 7.6245 0.0000 14.5312
#
#
#
# Elastic Compliance Matrix: (Units=1/GPa)
#
#
# Indices 1 2 3 4 5 6 
#
# 1 0.018870 -0.008131 -0.045937 0.000000 -0.011769 0.000000
# 2 -0.008131 0.016081 0.032834 0.000000 -0.004612 0.000000
# 3 -0.045937 0.032834 0.235426 0.000000 0.005771 0.000000
# 4 0.000000 0.000000 0.000000 0.045626 0.000000 -0.023940
# 5 -0.011769 -0.004612 0.005771 0.000000 0.045061 0.000000
# 6 0.000000 0.000000 0.000000 -0.023940 0.000000 0.081379
#
#
# Mechanical properties :
#
#
# Convention : Reuss Voigt Hill
#
# Bulk Modulus (GPa) = 4.38770 42.54372 23.46571
# Shear Modulus (GPa) = 8.91452 28.88837 18.90144
#
# Velocity S-wave (km/s) = 2.04762 3.68606 2.98159
# Velocity P-wave (km/s) = 2.76659 6.17459 4.78433
#
# Compressibility (1/GPa) = 0.22790968
#
# Stress axis : x y z
#
# Youngs Moduli (GPa) = 52.99358 62.18349 4.24761
#
# Poissons Ratio (x) = 0.50560 0.19512
# Poissons Ratio (y) = 0.43088 -0.13947
# Poissons Ratio (z) = 2.43438 -2.04173
#
# Static dielectric constant tensor:
#      x y z
#    x 1.838990 0.000000 0.027120 
#    y 0.000000 1.721070 0.000000 
#    z 0.027120 0.000000 1.844850 
# 
# From -- ./inp_files/218677.got.cif
#   From: 2010.05.17/outbox.cif.g08.bks.cpg/sg15_110_cif.got.tgz:218677.got - 2010.06.03 18:47:42.
