data_PCOD9267609
_publ_section_title
;
Structure prediction by ZEFSAII (Michael W. Deem and Ramdas Pophale) SiO2 
 PCOD9267609
Probable space group: C 2/C
;
_chemical_formula_sum "Si O2"
_cell_formula_units_Z 56
_cell_length_a 15.909251
_cell_length_b 9.154595
_cell_length_c 24.008245
_cell_angle_alpha 90.000000
_cell_angle_beta 136.068784
_cell_angle_gamma 90.000000
_cell_volume 2425.939745
_symmetry_space_group_name_H-M "C 2/C"
_symmetry_group_IT_number 15
_symmetry_cell_setting 'monoclinic'
loop_
_space_group_symop_operation_xyz
x,y,z
-x,y,1/2-z
-x,-y,-z
x,-y,1/2+z
1/2+x,1/2+y,z
1/2-x,1/2+y,1/2-z
1/2-x,1/2-y,-z
1/2+x,1/2-y,1/2+z
loop_
_atom_site_type_symbol
_atom_site_label
_atom_site_fract_x
_atom_site_fract_y
_atom_site_fract_z
Si Si1 0.995471 0.401553 0.580036
Si Si2 0.360208 0.596183 0.675308
Si Si3 0.660165 0.882009 0.552720
Si Si4 0.884930 0.922574 0.858568
Si Si5 0.667217 0.371329 0.992001
Si Si6 0.801102 0.168407 0.443542
Si Si7 0.181047 0.777486 0.224988
O O1 0.921236 0.551493 0.536571
O O2 0.900991 0.276784 0.516658
O O3 0.095816 0.419719 0.579564
O O4 0.071771 0.341110 0.668352
O O5 0.500000 0.568857 0.750000
O O6 0.289184 0.460688 0.615060
O O7 0.320931 0.737867 0.621423
O O8 0.313425 0.638554 0.713957
O O9 0.662842 0.709930 0.549326
O O10 0.853498 0.879728 0.907782
O O11 0.803577 0.816306 0.780924
O O12 0.025931 0.898339 0.910249
O O13 0.846920 0.090747 0.830509
O O14 0.750000 0.250000 0.000000
O O15 0.720648 0.530702 0.027443
#
# Coordination Sequence:
#
# PCOD9267609 Si02
#       7
#     8   8   8   8   8   8   8
#     4  10  19  39  68  92 117 163 219 259 306 380
#     4  10  24  42  61  88 129 166 210 258 334 390
#     4  10  22  38  65  91 123 164 209 261 316 382
#     4  11  23  41  65  94 128 165 219 268 324 384
#     4  12  25  40  64  97 130 165 216 268 323 388
#     4  10  21  44  66  88 122 179 215 258 320 399
#     4  11  23  37  65  94 122 161 210 269 312 375
#
# _framework density 23.083839000000001
#
# number of rings (size 3 to 8) (size 9 to 14) (size 15 to 20)
#    0.000    1.429    2.857    2.143    6.000    1.143 
#    2.571    3.571    0.000    0.000    0.000    0.000 
#    0.000    0.000    0.000    0.000    0.000    0.000 
#
# Total GULP energy -156371.362323 kJ/mol
# GULP energy per Si atom -5584.691512 kJ/mol
# Density = 2.303130 g / cm^3
# Si number density = 23.083839 Si / 1000 Ang^3
#
#
#
# Elastic Constant Matrix: (Units=GPa)
#
#
# Indices 1 2 3 4 5 6 
#
# 1 57.3686 13.9715 14.6391 0.0000 15.1217 0.0000
# 2 13.9715 111.4670 42.9932 0.0000 10.9158 0.0000
# 3 14.6391 42.9932 110.2247 0.0000 23.9148 0.0000
# 4 0.0000 0.0000 0.0000 37.3689 0.0000 -7.3294
# 5 15.1217 10.9158 23.9148 0.0000 33.0238 0.0000
# 6 0.0000 0.0000 0.0000 -7.3294 0.0000 27.1659
#
#
#
# Elastic Compliance Matrix: (Units=1/GPa)
#
#
# Indices 1 2 3 4 5 6 
#
# 1 0.020125 -0.001612 -0.000190 0.000000 -0.008545 0.000000
# 2 -0.001612 0.010699 -0.003977 0.000000 0.000082 0.000000
# 3 -0.000190 -0.003977 0.012273 0.000000 -0.007486 0.000000
# 4 0.000000 0.000000 0.000000 0.028255 0.000000 0.007623
# 5 -0.008545 0.000082 -0.007486 0.000000 0.039588 0.000000
# 6 0.000000 0.000000 0.000000 0.007623 0.000000 0.038868
#
#
# Mechanical properties :
#
#
# Convention : Reuss Voigt Hill
#
# Bulk Modulus (GPa) = 31.70740 46.91865 39.31302
# Shear Modulus (GPa) = 29.09020 33.34216 31.21618
#
# Velocity S-wave (km/s) = 3.55378 3.80464 3.68135
# Velocity P-wave (km/s) = 5.53215 6.29840 5.92767
#
# Compressibility (1/GPa) = 0.03153838
#
# Stress axis : x y z
#
# Youngs Moduli (GPa) = 49.69057 93.46461 81.47961
#
# Poissons Ratio (x) = 0.15070 0.01548
# Poissons Ratio (y) = 0.08012 0.32403
# Poissons Ratio (z) = 0.00944 0.37169
#
# Static dielectric constant tensor:
#      x y z
#    x 2.015940 0.000000 -0.037950 
#    y 0.000000 1.892650 0.000000 
#    z -0.037950 0.000000 1.876210 
# 
# From -- ./inp_files/298573.got.cif
#   From: 2010.05.17/outbox.cif.g08.bks.cpg/sg15_150_cif.got.tgz:298573.got - 2010.06.03 18:47:42.
