data_PCOD9267162
_publ_section_title
;
Structure prediction by ZEFSAII (Michael W. Deem and Ramdas Pophale) SiO2 
 PCOD9267162
Probable space group: C 2/C
;
_chemical_formula_sum "Si O2"
_cell_formula_units_Z 56
_cell_length_a 9.607224
_cell_length_b 31.940711
_cell_length_c 10.272893
_cell_angle_alpha 90.000000
_cell_angle_beta 125.758463
_cell_angle_gamma 90.000000
_cell_volume 2558.098063
_symmetry_space_group_name_H-M "C 2/C"
_symmetry_group_IT_number 15
_symmetry_cell_setting 'monoclinic'
loop_
_space_group_symop_operation_xyz
x,y,z
-x,y,1/2-z
-x,-y,-z
x,-y,1/2+z
1/2+x,1/2+y,z
1/2-x,1/2+y,1/2-z
1/2-x,1/2-y,-z
1/2+x,1/2-y,1/2+z
loop_
_atom_site_type_symbol
_atom_site_label
_atom_site_fract_x
_atom_site_fract_y
_atom_site_fract_z
Si Si1 0.684142 0.518117 0.636293
Si Si2 0.798991 0.793996 0.094812
Si Si3 0.982679 0.725887 0.586613
Si Si4 0.366881 0.314154 0.564327
Si Si5 0.743829 0.614840 0.973550
Si Si6 0.112490 0.108055 0.608518
Si Si7 0.642629 0.026744 0.501226
O O1 0.500000 0.500000 0.500000
O O2 0.698501 0.566418 0.601911
O O3 0.708580 0.521014 0.806453
O O4 0.812248 0.492533 0.613991
O O5 0.658086 0.792855 0.132066
O O6 0.743348 0.835790 0.983609
O O7 0.000000 0.795425 0.250000
O O8 0.750000 0.750000 0.000000
O O9 0.813337 0.698808 0.468862
O O10 0.939266 0.773732 0.524863
O O11 0.000000 0.728383 0.750000
O O12 0.500000 0.324212 0.750000
O O13 0.351722 0.353055 0.462385
O O14 0.679216 0.617836 0.789308
O O15 0.589662 0.599043 0.981279
O O16 0.880662 0.576861 0.037563
O O17 0.500000 0.000000 0.500000
#
# Coordination Sequence:
#
# PCOD9267162 Si02
#       7
#     8   8   8   8   8   8   8
#     4  11  22  40  68  95 128 172 226 265 337 418
#     4  12  26  42  68  98 135 181 234 285 344 418
#     4  10  23  40  64  92 129 180 229 280 349 409
#     4  10  22  38  64  93 135 168 225 292 346 396
#     4  10  21  41  67  90 131 181 221 271 341 419
#     4  10  19  38  66  93 124 176 223 264 334 416
#     4  11  24  43  67 101 135 176 219 287 347 409
#
# _framework density 21.891264
#
# number of rings (size 3 to 8) (size 9 to 14) (size 15 to 20)
#    0.000    1.429    2.857    2.571    6.000    2.286 
#    0.000    2.857    0.000    0.000    0.000    0.000 
#    0.000    0.000    0.000    0.000    0.000    0.000 
#
# Total GULP energy -156144.363332 kJ/mol
# GULP energy per Si atom -5576.584405 kJ/mol
# Density = 2.184144 g / cm^3
# Si number density = 21.891264 Si / 1000 Ang^3
#
#
#
# Elastic Constant Matrix: (Units=GPa)
#
#
# Indices 1 2 3 4 5 6 
#
# 1 82.9191 39.5758 5.6799 0.0000 12.4625 0.0000
# 2 39.5758 171.6528 24.5377 0.0000 2.5653 0.0000
# 3 5.6799 24.5377 57.2039 0.0000 5.2626 0.0000
# 4 0.0000 0.0000 0.0000 29.2226 0.0000 -2.0481
# 5 12.4625 2.5653 5.2626 0.0000 30.4887 0.0000
# 6 0.0000 0.0000 0.0000 -2.0481 0.0000 21.0255
#
#
#
# Elastic Compliance Matrix: (Units=1/GPa)
#
#
# Indices 1 2 3 4 5 6 
#
# 1 0.014472 -0.003325 0.000516 0.000000 -0.005725 0.000000
# 2 -0.003325 0.006970 -0.002775 0.000000 0.001252 0.000000
# 3 0.000516 -0.002775 0.018919 0.000000 -0.003243 0.000000
# 4 0.000000 0.000000 0.000000 0.034455 0.000000 0.003356
# 5 -0.005725 0.001252 -0.003243 0.000000 0.035594 0.000000
# 6 0.000000 0.000000 0.000000 0.003356 0.000000 0.047888
#
#
# Mechanical properties :
#
#
# Convention : Reuss Voigt Hill
#
# Bulk Modulus (GPa) = 34.25449 50.15140 42.20295
# Shear Modulus (GPa) = 27.90230 32.27951 30.09090
#
# Velocity S-wave (km/s) = 3.57401 3.84414 3.71153
# Velocity P-wave (km/s) = 5.71952 6.53163 6.13902
#
# Compressibility (1/GPa) = 0.02919325
#
# Stress axis : x y z
#
# Youngs Moduli (GPa) = 69.09948 143.46724 52.85764
#
# Poissons Ratio (x) = 0.47700 -0.02727
# Poissons Ratio (y) = 0.22974 0.14667
# Poissons Ratio (z) = -0.03565 0.39811
#
# Static dielectric constant tensor:
#      x y z
#    x 1.775020 0.000000 0.002190 
#    y 0.000000 1.887240 0.000000 
#    z 0.002190 0.000000 1.827910 
# 
# From -- ./inp_files/82681.got.cif
#   From: 2010.05.17/outbox.cif.g08.bks.cpg/sg15_42_cif.got.tgz:82681.got - 2010.06.03 18:47:42.
