data_PCOD9267211
_publ_section_title
;
Structure prediction by ZEFSAII (Michael W. Deem and Ramdas Pophale) SiO2 
 PCOD9267211
Probable space group: C 2/C
;
_chemical_formula_sum "Si O2"
_cell_formula_units_Z 56
_cell_length_a 17.126501
_cell_length_b 17.770256
_cell_length_c 9.315859
_cell_angle_alpha 90.000000
_cell_angle_beta 74.709631
_cell_angle_gamma 90.000000
_cell_volume 2734.848576
_symmetry_space_group_name_H-M "C 2/C"
_symmetry_group_IT_number 15
_symmetry_cell_setting 'monoclinic'
loop_
_space_group_symop_operation_xyz
x,y,z
-x,y,1/2-z
-x,-y,-z
x,-y,1/2+z
1/2+x,1/2+y,z
1/2-x,1/2+y,1/2-z
1/2-x,1/2-y,-z
1/2+x,1/2-y,1/2+z
loop_
_atom_site_type_symbol
_atom_site_label
_atom_site_fract_x
_atom_site_fract_y
_atom_site_fract_z
Si Si1 0.076188 0.816306 0.383041
Si Si2 0.253969 0.330516 0.072848
Si Si3 0.018868 0.355677 0.911288
Si Si4 0.828941 0.448122 0.597975
Si Si5 0.847551 0.691413 0.590225
Si Si6 0.264491 0.918361 0.944918
Si Si7 0.600852 0.649298 0.535961
O O1 0.152875 0.844630 0.433013
O O2 0.060997 0.726565 0.410175
O O3 0.095459 0.826823 0.205470
O O4 0.993058 0.859727 0.460494
O O5 0.201835 0.327812 0.243759
O O6 0.250000 0.250000 0.000000
O O7 0.217411 0.390395 0.982579
O O8 0.078081 0.420818 0.937982
O O9 0.000000 0.364510 0.750000
O O10 0.934434 0.349415 0.035894
O O11 0.806303 0.527939 0.541574
O O12 0.795725 0.441068 0.774695
O O13 0.796349 0.663776 0.477217
O O14 0.866016 0.779813 0.569943
O O15 0.167159 0.916029 0.993108
#
# Coordination Sequence:
#
# PCOD9267211 Si02
#       7
#     8   8   8   8   8   8   8
#     4  10  19  38  68 101 129 165 216 283 326 391
#     4  12  24  40  66 101 135 170 223 278 332 391
#     4  11  20  42  65 102 134 170 221 272 333 398
#     4  12  27  44  63  94 136 174 220 277 327 403
#     4  11  22  39  70  97 129 174 220 268 329 398
#     4  12  24  43  66  92 128 178 221 264 337 397
#     4  10  20  38  71  96 125 169 223 268 330 389
#
# _framework density 20.476452999999999
#
# number of rings (size 3 to 8) (size 9 to 14) (size 15 to 20)
#    0.000    0.857    7.143    2.143    0.000    1.143 
#    0.000    2.857    0.000    0.000    0.000    0.000 
#    0.000    0.000    0.000    0.000    0.000    0.000 
#
# Total GULP energy -156521.300639 kJ/mol
# GULP energy per Si atom -5590.046451 kJ/mol
# Density = 2.042985 g / cm^3
# Si number density = 20.476453 Si / 1000 Ang^3
#
#
#
# Elastic Constant Matrix: (Units=GPa)
#
#
# Indices 1 2 3 4 5 6 
#
# 1 170.9651 39.5601 57.2662 0.0000 -14.4921 0.0000
# 2 39.5601 41.5736 9.9570 0.0000 -4.2841 0.0000
# 3 57.2662 9.9570 90.5422 0.0000 -2.8009 0.0000
# 4 0.0000 0.0000 0.0000 11.2923 0.0000 8.3842
# 5 -14.4921 -4.2841 -2.8009 0.0000 30.1739 0.0000
# 6 0.0000 0.0000 0.0000 8.3842 0.0000 36.9297
#
#
#
# Elastic Compliance Matrix: (Units=1/GPa)
#
#
# Indices 1 2 3 4 5 6 
#
# 1 0.009578 -0.007571 -0.005131 0.000000 0.003049 0.000000
# 2 -0.007571 0.031014 0.001406 0.000000 0.000897 0.000000
# 3 -0.005131 0.001406 0.014106 0.000000 -0.000955 0.000000
# 4 0.000000 0.000000 0.000000 0.106509 0.000000 -0.024181
# 5 0.003049 0.000897 -0.000955 0.000000 0.034644 0.000000
# 6 0.000000 0.000000 0.000000 -0.024181 0.000000 0.032568
#
#
# Mechanical properties :
#
#
# Convention : Reuss Voigt Hill
#
# Bulk Modulus (GPa) = 31.14789 57.40530 44.27660
# Shear Modulus (GPa) = 19.10478 28.76569 23.93524
#
# Velocity S-wave (km/s) = 3.05784 3.75216 3.42265
# Velocity P-wave (km/s) = 5.26420 6.84596 6.10651
#
# Compressibility (1/GPa) = 0.03210490
#
# Stress axis : x y z
#
# Youngs Moduli (GPa) = 104.40329 32.24345 70.89306
#
# Poissons Ratio (x) = 0.24412 0.36376
# Poissons Ratio (y) = 0.79046 -0.09966
# Poissons Ratio (z) = 0.53571 -0.04533
#
# Static dielectric constant tensor:
#      x y z
#    x 1.775280 0.000000 -0.004870 
#    y 0.000000 1.837470 0.000000 
#    z -0.004870 0.000000 1.684820 
# 
# From -- ./inp_files/48999.got.cif
#   From: 2010.05.17/outbox.cif.g08.bks.cpg/sg15_25_cif.got.tgz:48999.got - 2010.06.03 18:47:42.
