data_PCOD9267807
_publ_section_title
;
Structure prediction by ZEFSAII (Michael W. Deem and Ramdas Pophale) SiO2 
 PCOD9267807
Probable space group: C 2/C
;
_chemical_formula_sum "Si O2"
_cell_formula_units_Z 40
_cell_length_a 8.957935
_cell_length_b 16.924529
_cell_length_c 10.459852
_cell_angle_alpha 90.000000
_cell_angle_beta 94.304503
_cell_angle_gamma 90.000000
_cell_volume 1581.332749
_symmetry_space_group_name_H-M "C 2/C"
_symmetry_group_IT_number 15
_symmetry_cell_setting 'monoclinic'
loop_
_space_group_symop_operation_xyz
x,y,z
-x,y,1/2-z
-x,-y,-z
x,-y,1/2+z
1/2+x,1/2+y,z
1/2-x,1/2+y,1/2-z
1/2-x,1/2-y,-z
1/2+x,1/2-y,1/2+z
loop_
_atom_site_type_symbol
_atom_site_label
_atom_site_fract_x
_atom_site_fract_y
_atom_site_fract_z
Si Si1 0.000000 0.700549 0.250000
Si Si2 0.463200 0.853209 0.466324
Si Si3 0.704624 0.671164 0.618957
Si Si4 0.000000 0.934470 0.750000
Si Si5 0.698352 0.433917 0.350604
Si Si6 0.070220 0.178468 0.056912
O O1 0.038024 0.649911 0.379166
O O2 0.133133 0.757703 0.201755
O O3 0.624822 0.841343 0.412832
O O4 0.371970 0.926720 0.402223
O O5 0.385800 0.768921 0.424609
O O6 0.676506 0.594465 0.704214
O O7 0.607608 0.677821 0.483972
O O8 0.105338 0.876400 0.677344
O O9 0.104068 0.986402 0.849919
O O10 0.630045 0.367697 0.438574
#
# Coordination Sequence:
#
# PCOD9267807 Si02
#       6
#     4   8   8   4   8   8
#     4  10  19  40  66 110 146 173 234 310 345 418
#     4  11  25  40  75 111 144 179 239 303 361 406
#     4  11  21  42  70 104 145 179 235 296 362 409
#     4  12  27  44  76 102 144 197 246 276 351 446
#     4  12  23  44  67 101 148 187 225 301 355 410
#     4  11  23  44  72 102 137 192 244 284 349 430
#
# _framework density 25.295119
#
# number of rings (size 3 to 8) (size 9 to 14) (size 15 to 20)
#    0.000    0.800    6.000    4.200    2.800    1.600 
#    0.000    1.000    4.400    0.000    0.000    0.000 
#    0.000    0.000    0.000    0.000    0.000    0.000 
#
# Total GULP energy -111718.959538 kJ/mol
# GULP energy per Si atom -5585.947977 kJ/mol
# Density = 2.523755 g / cm^3
# Si number density = 25.295119 Si / 1000 Ang^3
#
#
#
# Elastic Constant Matrix: (Units=GPa)
#
#
# Indices 1 2 3 4 5 6 
#
# 1 133.7085 6.7642 32.0688 0.0000 -6.9537 0.0000
# 2 6.7642 59.7084 39.5240 0.0000 -1.1416 0.0000
# 3 32.0688 39.5240 96.7843 0.0000 -0.7582 0.0000
# 4 0.0000 0.0000 0.0000 16.8970 0.0000 33.0496
# 5 -6.9537 -1.1416 -0.7582 0.0000 42.1882 0.0000
# 6 0.0000 0.0000 0.0000 33.0496 0.0000 -32.6047
#
#
#
# Elastic Compliance Matrix: (Units=1/GPa)
#
#
# Indices 1 2 3 4 5 6 
#
# 1 0.008260 0.001226 -0.003227 0.000000 0.001337 0.000000
# 2 0.001226 0.023143 -0.009852 0.000000 0.000651 0.000000
# 3 -0.003227 -0.009852 0.015421 0.000000 -0.000521 0.000000
# 4 0.000000 0.000000 0.000000 0.019842 0.000000 0.020113
# 5 0.001337 0.000651 -0.000521 0.000000 0.023932 0.000000
# 6 0.000000 0.000000 0.000000 0.020113 0.000000 -0.010283
#
#
# Mechanical properties :
#
#
# Convention : Reuss Voigt Hill
#
# Bulk Modulus (GPa) = 43.25675 49.65724 46.45700
# Shear Modulus (GPa) = 44.75131 19.41905 32.08518
#
# Velocity S-wave (km/s) = 4.21071 2.77374 3.56537
# Velocity P-wave (km/s) = 6.38577 5.47101 5.94601
#
# Compressibility (1/GPa) = 0.02311778
#
# Stress axis : x y z
#
# Youngs Moduli (GPa) = 121.05837 43.20900 64.84717
#
# Poissons Ratio (x) = -0.05298 0.20928
# Poissons Ratio (y) = -0.14842 0.63889
# Poissons Ratio (z) = 0.39069 0.42570
#
# Static dielectric constant tensor:
#      x y z
#    x 2.184080 0.000000 0.075500 
#    y 0.000000 1.960810 0.000000 
#    z 0.075500 0.000000 2.018150 
# 
# From -- ./inp_files/76953.got.cif
#   From: 2010.05.17/outbox.cif.g08.bks.cpg/sg15_39_cif.got.tgz:76953.got - 2010.06.03 18:47:42.
