data_PCOD9267238
_publ_section_title
;
Structure prediction by ZEFSAII (Michael W. Deem and Ramdas Pophale) SiO2 
 PCOD9267238
Probable space group: C 2/C
;
_chemical_formula_sum "Si O2"
_cell_formula_units_Z 64
_cell_length_a 24.496865
_cell_length_b 15.495520
_cell_length_c 22.518023
_cell_angle_alpha 90.000000
_cell_angle_beta 22.063509
_cell_angle_gamma 90.000000
_cell_volume 3210.790159
_symmetry_space_group_name_H-M "C 2/C"
_symmetry_group_IT_number 15
_symmetry_cell_setting 'monoclinic'
loop_
_space_group_symop_operation_xyz
x,y,z
-x,y,1/2-z
-x,-y,-z
x,-y,1/2+z
1/2+x,1/2+y,z
1/2-x,1/2+y,1/2-z
1/2-x,1/2-y,-z
1/2+x,1/2-y,1/2+z
loop_
_atom_site_type_symbol
_atom_site_label
_atom_site_fract_x
_atom_site_fract_y
_atom_site_fract_z
Si Si1 0.840342 0.999194 0.411681
Si Si2 0.522983 0.200427 0.101474
Si Si3 0.806355 0.813864 0.391759
Si Si4 0.346186 0.022503 0.285340
Si Si5 0.084936 0.604475 0.605667
Si Si6 0.175181 0.509378 0.826018
Si Si7 0.866980 0.300715 0.134945
Si Si8 0.163085 0.662841 0.404533
O O1 0.850051 0.905517 0.372729
O O2 0.777538 0.983542 0.540631
O O3 0.000000 0.040176 0.250000
O O4 0.719037 0.051493 0.497739
O O5 0.439839 0.270555 0.223801
O O6 0.419252 0.116536 0.204552
O O7 0.671269 0.175089 0.983970
O O8 0.562178 0.234626 0.996853
O O9 0.750000 0.750000 0.500000
O O10 0.281395 0.001161 0.286319
O O11 0.473333 0.958464 0.181753
O O12 0.149013 0.666116 0.489920
O O13 0.000000 0.639303 0.750000
O O14 0.206929 0.608351 0.810231
O O15 0.219870 0.431463 0.824412
O O16 0.000000 0.500000 0.000000
O O17 0.761660 0.235540 0.274601
O O18 0.000717 0.324193 0.042952
#
# Coordination Sequence:
#
# PCOD9267238 Si02
#       8
#     8   8   8   8   8   8   8   8
#     4  11  24  38  57  89 126 158 204 265 320 359
#     4  12  22  36  55  89 121 173 211 250 314 371
#     4  12  24  33  53  84 132 167 209 254 306 378
#     4  11  19  39  66  86 115 169 216 248 297 394
#     4  10  21  41  68  86 113 165 215 252 308 387
#     4  10  19  38  69  92 123 164 214 251 311 382
#     4  11  23  41  66  93 129 164 209 271 309 376
#     4  11  22  43  66  99 124 162 213 260 319 380
#
# _framework density 19.932789
#
# number of rings (size 3 to 8) (size 9 to 14) (size 15 to 20)
#    0.000    1.000    7.500    1.875    0.000    0.000 
#    2.250    1.250    0.000    0.000    0.000    0.000 
#    0.000    0.000    0.000    0.000    0.000    0.000 
#
# Total GULP energy -178691.404495 kJ/mol
# GULP energy per Si atom -5584.106390 kJ/mol
# Density = 1.988742 g / cm^3
# Si number density = 19.932789 Si / 1000 Ang^3
#
#
#
# Elastic Constant Matrix: (Units=GPa)
#
#
# Indices 1 2 3 4 5 6 
#
# 1 85.4301 11.6507 46.2318 0.0028 30.7787 -0.0014
# 2 11.6507 70.1683 43.4002 0.0008 18.6144 -0.0008
# 3 46.2318 43.4002 113.7479 0.0053 22.5694 -0.0034
# 4 0.0028 0.0008 0.0053 22.2284 -0.0016 16.4699
# 5 30.7787 18.6144 22.5694 -0.0016 37.7411 0.0010
# 6 -0.0014 -0.0008 -0.0034 16.4699 0.0010 16.0194
#
#
#
# Elastic Compliance Matrix: (Units=1/GPa)
#
#
# Indices 1 2 3 4 5 6 
#
# 1 0.020192 0.004983 -0.007208 -0.000013 -0.014614 0.000015
# 2 0.004983 0.020992 -0.008140 -0.000002 -0.009549 0.000002
# 3 -0.007208 -0.008140 0.014596 -0.000015 0.001165 0.000018
# 4 -0.000013 -0.000002 -0.000015 0.188844 0.000034 -0.194155
# 5 -0.014614 -0.009549 0.001165 0.000034 0.042427 -0.000039
# 6 0.000015 0.000002 0.000018 -0.194155 -0.000039 0.262040
#
#
# Mechanical properties :
#
#
# Convention : Reuss Voigt Hill
#
# Bulk Modulus (GPa) = 28.53188 52.43464 40.48326
# Shear Modulus (GPa) = 8.59838 26.40203 17.50020
#
# Velocity S-wave (km/s) = 2.07919 3.64339 2.96625
# Velocity P-wave (km/s) = 4.48433 6.63791 5.66441
#
# Compressibility (1/GPa) = 0.03504852
#
# Stress axis : x y z
#
# Youngs Moduli (GPa) = 49.52480 47.63724 68.51325
#
# Poissons Ratio (x) = -0.23736 0.49386
# Poissons Ratio (y) = -0.24676 0.55769
# Poissons Ratio (z) = 0.35699 0.38776
#
# Static dielectric constant tensor:
#      x y z
#    x 1.758110 -0.000010 0.022630 
#    y -0.000010 1.755830 -0.000010 
#    z 0.022630 -0.000010 1.705830 
# 
# From -- ./inp_files/256004.got.cif
#   From: 2010.05.17/outbox.cif.g08.bks.cpg/sg15_129_cif.got.tgz:256004.got - 2010.06.03 18:47:42.
