data_PCOD9267903
_publ_section_title
;
Structure prediction by ZEFSAII (Michael W. Deem and Ramdas Pophale) SiO2 
 PCOD9267903
Probable space group: C 2/C
;
_chemical_formula_sum "Si O2"
_cell_formula_units_Z 44
_cell_length_a 8.331464
_cell_length_b 11.645140
_cell_length_c 21.535217
_cell_angle_alpha 90.000000
_cell_angle_beta 113.552631
_cell_angle_gamma 90.000000
_cell_volume 1915.311403
_symmetry_space_group_name_H-M "C 2/C"
_symmetry_group_IT_number 15
_symmetry_cell_setting 'monoclinic'
loop_
_space_group_symop_operation_xyz
x,y,z
-x,y,1/2-z
-x,-y,-z
x,-y,1/2+z
1/2+x,1/2+y,z
1/2-x,1/2+y,1/2-z
1/2-x,1/2-y,-z
1/2+x,1/2-y,1/2+z
loop_
_atom_site_type_symbol
_atom_site_label
_atom_site_fract_x
_atom_site_fract_y
_atom_site_fract_z
Si Si1 0.734778 0.501282 0.698279
Si Si2 0.539109 0.950271 0.659761
Si Si3 0.500000 0.337621 0.250000
Si Si4 0.690306 0.005947 0.557602
Si Si5 0.197151 0.756043 0.399400
Si Si6 0.995463 0.095228 0.053959
O O1 0.892339 0.527533 0.672820
O O2 0.630070 0.594132 0.722803
O O3 0.593179 0.446845 0.631480
O O4 0.828582 0.419918 0.763884
O O5 0.436712 0.848542 0.607955
O O6 0.657994 0.006605 0.626075
O O7 0.633109 0.275935 0.318463
O O8 0.801482 0.123140 0.564836
O O9 0.500000 0.000000 0.500000
O O10 0.796311 0.899991 0.545207
O O11 0.392154 0.708175 0.441835
O O12 0.000000 0.000000 0.000000
#
# Coordination Sequence:
#
# PCOD9267903 Si02
#       6
#     8   8   4   8   8   8
#     4  10  19  40  70  96 137 176 225 291 345 402
#     4  10  22  42  68 101 139 175 230 291 340 418
#     4  12  20  44  76 102 136 188 226 296 356 418
#     4  12  25  45  68 101 142 181 233 291 342 414
#     4  11  24  44  72  98 136 185 231 273 366 406
#     4  11  24  44  70 100 139 183 230 285 345 417
#
# _framework density 22.972766
#
# number of rings (size 3 to 8) (size 9 to 14) (size 15 to 20)
#    0.000    1.091    3.636    4.364    0.000    3.636 
#    3.273    0.000    8.000    0.000    0.000    0.000 
#    0.000    0.000    0.000    0.000    0.000    0.000 
#
# Total GULP energy -122476.154624 kJ/mol
# GULP energy per Si atom -5567.097937 kJ/mol
# Density = 2.292048 g / cm^3
# Si number density = 22.972766 Si / 1000 Ang^3
#
#
#
# Elastic Constant Matrix: (Units=GPa)
#
#
# Indices 1 2 3 4 5 6 
#
# 1 105.3850 34.9606 22.1225 0.0000 -3.3038 0.0000
# 2 34.9606 62.1232 16.8571 0.0000 -1.1509 0.0000
# 3 22.1225 16.8571 110.3765 0.0000 5.2345 0.0000
# 4 0.0000 0.0000 0.0000 36.0608 0.0000 18.7351
# 5 -3.3038 -1.1509 5.2345 0.0000 53.2802 0.0000
# 6 0.0000 0.0000 0.0000 18.7351 0.0000 19.5219
#
#
#
# Elastic Compliance Matrix: (Units=1/GPa)
#
#
# Indices 1 2 3 4 5 6 
#
# 1 0.011906 -0.006290 -0.001461 0.000000 0.000746 0.000000
# 2 -0.006290 0.020136 -0.001825 0.000000 0.000224 0.000000
# 3 -0.001461 -0.001825 0.009683 0.000000 -0.001081 0.000000
# 4 0.000000 0.000000 0.000000 0.055307 0.000000 -0.053078
# 5 0.000746 0.000224 -0.001081 0.000000 0.018926 0.000000
# 6 0.000000 0.000000 0.000000 -0.053078 0.000000 0.102163
#
#
# Mechanical properties :
#
#
# Convention : Reuss Voigt Hill
#
# Bulk Modulus (GPa) = 44.30176 47.30725 45.80450
# Shear Modulus (GPa) = 20.42510 35.36889 27.89700
#
# Velocity S-wave (km/s) = 2.98501 3.92803 3.48853
# Velocity P-wave (km/s) = 5.58630 6.41950 6.01734
#
# Compressibility (1/GPa) = 0.02257247
#
# Stress axis : x y z
#
# Youngs Moduli (GPa) = 83.99340 49.66192 103.27633
#
# Poissons Ratio (x) = 0.31236 0.15089
# Poissons Ratio (y) = 0.52830 0.18851
# Poissons Ratio (z) = 0.12271 0.09065
#
# Static dielectric constant tensor:
#      x y z
#    x 1.946070 0.000000 0.007890 
#    y 0.000000 1.965770 0.000000 
#    z 0.007890 0.000000 1.876650 
# 
# From -- ./inp_files/263316.got.cif
#   From: 2010.05.17/outbox.cif.g08.bks.cpg/sg15_132_cif.got.tgz:263316.got - 2010.06.03 18:47:42.
