data_PCOD9267417
_publ_section_title
;
Structure prediction by ZEFSAII (Michael W. Deem and Ramdas Pophale) SiO2 
 PCOD9267417
Probable space group: C 2/C
;
_chemical_formula_sum "Si O2"
_cell_formula_units_Z 32
_cell_length_a 7.958592
_cell_length_b 11.922743
_cell_length_c 22.152991
_cell_angle_alpha 90.000000
_cell_angle_beta 142.613990
_cell_angle_gamma 90.000000
_cell_volume 1276.331755
_symmetry_space_group_name_H-M "C 2/C"
_symmetry_group_IT_number 15
_symmetry_cell_setting 'monoclinic'
loop_
_space_group_symop_operation_xyz
x,y,z
-x,y,1/2-z
-x,-y,-z
x,-y,1/2+z
1/2+x,1/2+y,z
1/2-x,1/2+y,1/2-z
1/2-x,1/2-y,-z
1/2+x,1/2-y,1/2+z
loop_
_atom_site_type_symbol
_atom_site_label
_atom_site_fract_x
_atom_site_fract_y
_atom_site_fract_z
Si Si1 0.451547 0.524763 0.385542
Si Si2 0.404101 0.861061 0.521996
Si Si3 0.996913 0.785973 0.821381
Si Si4 0.389626 0.061173 0.605272
O O1 0.674365 0.436080 0.421729
O O2 0.334952 0.610140 0.303878
O O3 0.623810 0.589955 0.487165
O O4 0.229851 0.460305 0.362296
O O5 0.250000 0.750000 0.500000
O O6 0.685121 0.821085 0.571971
O O7 0.484196 0.947968 0.598718
O O8 0.921584 0.669615 0.832232
O O9 0.000000 0.777454 0.750000
#
# Coordination Sequence:
#
# PCOD9267417 Si02
#       4
#     8   8   8   8
#     4   9  19  39  64  81 111 154 203 229 284 349
#     4  10  19  39  63  84 111 156 200 238 275 354
#     4  12  23  36  57  90 123 147 189 251 297 336
#     4   9  20  38  64  82 111 152 200 239 279 347
#
# _framework density 25.071850999999999
#
# number of rings (size 3 to 8) (size 9 to 14) (size 15 to 20)
#    1.500    0.500    2.500    1.500    0.000    2.000 
#    0.000    0.000    0.000    0.000    0.000    0.000 
#    0.000    0.000    0.000    0.000    0.000    0.000 
#
# Total GULP energy -89254.478088 kJ/mol
# GULP energy per Si atom -5578.404880 kJ/mol
# Density = 2.501479 g / cm^3
# Si number density = 25.071851 Si / 1000 Ang^3
#
#
#
# Elastic Constant Matrix: (Units=GPa)
#
#
# Indices 1 2 3 4 5 6 
#
# 1 61.5827 19.6872 3.3308 0.0000 -4.6796 0.0000
# 2 19.6872 170.0161 44.5718 0.0000 -20.4944 0.0000
# 3 3.3308 44.5718 78.6819 0.0000 -21.1110 0.0000
# 4 0.0000 0.0000 0.0000 12.1859 0.0000 -16.8976
# 5 -4.6796 -20.4944 -21.1110 0.0000 22.6203 0.0000
# 6 0.0000 0.0000 0.0000 -16.8976 0.0000 34.9889
#
#
#
# Elastic Compliance Matrix: (Units=1/GPa)
#
#
# Indices 1 2 3 4 5 6 
#
# 1 0.017007 -0.001924 0.001129 0.000000 0.002829 0.000000
# 2 -0.001924 0.007337 -0.003199 0.000000 0.003264 0.000000
# 3 0.001129 -0.003199 0.018355 0.000000 0.014465 0.000000
# 4 0.000000 0.000000 0.000000 0.248425 0.000000 0.119975
# 5 0.002829 0.003264 0.014465 0.000000 0.061250 0.000000
# 6 0.000000 0.000000 0.000000 0.119975 0.000000 0.086521
#
#
# Mechanical properties :
#
#
# Convention : Reuss Voigt Hill
#
# Bulk Modulus (GPa) = 28.80973 49.49561 39.15267
# Shear Modulus (GPa) = 10.90620 30.13842 20.52231
#
# Velocity S-wave (km/s) = 2.08792 3.47087 2.86412
# Velocity P-wave (km/s) = 4.16274 5.98723 5.15632
#
# Compressibility (1/GPa) = 0.03471050
#
# Stress axis : x y z
#
# Youngs Moduli (GPa) = 58.79790 136.30123 54.48115
#
# Poissons Ratio (x) = 0.26230 -0.06152
# Poissons Ratio (y) = 0.11315 0.17429
# Poissons Ratio (z) = -0.06639 0.43603
#
# Static dielectric constant tensor:
#      x y z
#    x 1.992990 0.000000 0.018010 
#    y 0.000000 2.020880 0.000000 
#    z 0.018010 0.000000 1.986280 
# 
# From -- ./inp_files/187358.got.cif
#   From: 2010.05.17/outbox.cif.g08.bks.cpg/sg15_94_cif.got.tgz:187358.got - 2010.06.03 18:47:42.
