data_PCOD9267828
_publ_section_title
;
Structure prediction by ZEFSAII (Michael W. Deem and Ramdas Pophale) SiO2 
 PCOD9267828
Probable space group: C 2/C
;
_chemical_formula_sum "Si O2"
_cell_formula_units_Z 48
_cell_length_a 17.325859
_cell_length_b 15.373886
_cell_length_c 9.580277
_cell_angle_alpha 90.000000
_cell_angle_beta 123.211042
_cell_angle_gamma 90.000000
_cell_volume 2135.034352
_symmetry_space_group_name_H-M "C 2/C"
_symmetry_group_IT_number 15
_symmetry_cell_setting 'monoclinic'
loop_
_space_group_symop_operation_xyz
x,y,z
-x,y,1/2-z
-x,-y,-z
x,-y,1/2+z
1/2+x,1/2+y,z
1/2-x,1/2+y,1/2-z
1/2-x,1/2-y,-z
1/2+x,1/2-y,1/2+z
loop_
_atom_site_type_symbol
_atom_site_label
_atom_site_fract_x
_atom_site_fract_y
_atom_site_fract_z
Si Si1 0.371645 0.200733 0.361873
Si Si2 0.686976 0.076162 0.709283
Si Si3 0.000000 0.996991 0.250000
Si Si4 0.314249 0.264624 0.926411
Si Si5 0.096480 0.447499 0.408120
Si Si6 0.605850 0.591464 0.600235
Si Si7 0.500000 0.240299 0.250000
O O1 0.261801 0.179381 0.235088
O O2 0.410696 0.146248 0.526957
O O3 0.383180 0.304263 0.392828
O O4 0.436072 0.184013 0.290760
O O5 0.671887 0.175561 0.645438
O O6 0.666800 0.060612 0.850517
O O7 0.792363 0.053811 0.785043
O O8 0.625520 0.014626 0.554249
O O9 0.946614 0.939640 0.312627
O O10 0.061736 0.056904 0.413289
O O11 0.250000 0.250000 0.000000
O O12 0.417851 0.289394 0.079531
O O13 0.000000 0.474099 0.250000
#
# Coordination Sequence:
#
# PCOD9267828 Si02
#       7
#     8   8   4   8   8   8   4
#     4  10  23  42  65 101 135 177 231 281 339 410
#     4  11  25  44  66  99 137 180 229 280 349 399
#     4  10  21  42  70 103 126 178 224 280 345 404
#     4   9  21  39  67  95 132 174 225 276 338 401
#     4  12  27  44  69 101 136 185 230 281 343 409
#     4  10  22  43  68  98 137 172 223 282 340 407
#     4  10  19  40  66  99 128 178 222 276 339 398
#
# _framework density 22.482074000000001
#
# number of rings (size 3 to 8) (size 9 to 14) (size 15 to 20)
#    0.000    1.667    0.000    3.000    7.000    2.667 
#   12.000    0.000    0.000    0.000    0.000    0.000 
#    0.000    0.000    0.000    0.000    0.000    0.000 
#
# Total GULP energy -134069.401730 kJ/mol
# GULP energy per Si atom -5586.225072 kJ/mol
# Density = 2.243090 g / cm^3
# Si number density = 22.482074 Si / 1000 Ang^3
#
#
#
# Elastic Constant Matrix: (Units=GPa)
#
#
# Indices 1 2 3 4 5 6 
#
# 1 116.0628 25.1215 43.5466 0.0000 13.3237 0.0000
# 2 25.1215 62.7809 39.5533 0.0000 -3.6363 0.0000
# 3 43.5466 39.5533 138.2536 0.0000 12.6828 0.0000
# 4 0.0000 0.0000 0.0000 -93.2690 0.0000 13.4911
# 5 13.3237 -3.6363 12.6828 0.0000 55.5679 0.0000
# 6 0.0000 0.0000 0.0000 13.4911 0.0000 27.0744
#
#
#
# Elastic Compliance Matrix: (Units=1/GPa)
#
#
# Indices 1 2 3 4 5 6 
#
# 1 0.010318 -0.002842 -0.002240 0.000000 -0.002149 0.000000
# 2 -0.002842 0.020587 -0.005291 0.000000 0.003236 0.000000
# 3 -0.002240 -0.005291 0.009637 0.000000 -0.002009 0.000000
# 4 0.000000 0.000000 0.000000 -0.010001 0.000000 0.004983
# 5 -0.002149 0.003236 -0.002009 0.000000 0.019181 0.000000
# 6 0.000000 0.000000 0.000000 0.004983 0.000000 0.034452
#
#
# Mechanical properties :
#
#
# Convention : Reuss Voigt Hill
#
# Bulk Modulus (GPa) = 50.51761 59.28223 54.89992
# Shear Modulus (GPa) = 44.83521 11.79972 28.31746
#
# Velocity S-wave (km/s) = 4.47056 2.29345 3.55287
# Velocity P-wave (km/s) = 7.01191 5.78266 6.42674
#
# Compressibility (1/GPa) = 0.01979508
#
# Stress axis : x y z
#
# Youngs Moduli (GPa) = 96.91574 48.57466 103.77041
#
# Poissons Ratio (x) = 0.13806 0.23242
# Poissons Ratio (y) = 0.27545 0.54909
# Poissons Ratio (z) = 0.21707 0.25703
#
# Static dielectric constant tensor:
#      x y z
#    x 1.905350 0.000000 -0.056850 
#    y 0.000000 1.832270 0.000000 
#    z -0.056850 0.000000 1.979610 
# 
# From -- ./inp_files/48763.got.cif
#   From: 2010.05.17/outbox.cif.g08.bks.cpg/sg15_25_cif.got.tgz:48763.got - 2010.06.03 18:47:42.
