data_PCOD9267757
_publ_section_title
;
Structure prediction by ZEFSAII (Michael W. Deem and Ramdas Pophale) SiO2 
 PCOD9267757
Probable space group: C 2/C
;
_chemical_formula_sum "Si O2"
_cell_formula_units_Z 48
_cell_length_a 20.322824
_cell_length_b 5.093905
_cell_length_c 18.321682
_cell_angle_alpha 90.000000
_cell_angle_beta 92.785137
_cell_angle_gamma 90.000000
_cell_volume 1894.466526
_symmetry_space_group_name_H-M "C 2/C"
_symmetry_group_IT_number 15
_symmetry_cell_setting 'monoclinic'
loop_
_space_group_symop_operation_xyz
x,y,z
-x,y,1/2-z
-x,-y,-z
x,-y,1/2+z
1/2+x,1/2+y,z
1/2-x,1/2+y,1/2-z
1/2-x,1/2-y,-z
1/2+x,1/2-y,1/2+z
loop_
_atom_site_type_symbol
_atom_site_label
_atom_site_fract_x
_atom_site_fract_y
_atom_site_fract_z
Si Si1 0.724881 0.172542 0.612213
Si Si2 0.018333 0.195553 0.836684
Si Si3 0.334536 0.678712 0.255633
Si Si4 0.186741 0.937550 0.994432
Si Si5 0.101290 0.694989 0.879612
Si Si6 0.119844 0.335403 0.666071
O O1 0.729049 0.260975 0.697127
O O2 0.681425 0.384484 0.565717
O O3 0.790574 0.142113 0.569223
O O4 0.680194 0.911487 0.616602
O O5 0.047642 0.909520 0.851830
O O6 0.000000 0.227705 0.750000
O O7 0.948502 0.248277 0.871913
O O8 0.070605 0.410839 0.866432
O O9 0.336104 0.752832 0.171408
O O10 0.358126 0.389340 0.276442
O O11 0.387139 0.886162 0.292436
O O12 0.125881 0.773528 0.960889
O O13 0.250000 0.750000 0.000000
#
# Coordination Sequence:
#
# PCOD9267757 Si02
#       6
#     8   8   8   8   8   8
#     4   9  23  44  69  93 133 191 215 287 341 392
#     4  12  21  41  68 103 146 168 217 288 348 405
#     4  10  19  40  64 103 129 165 227 272 338 397
#     4  11  25  48  70  92 144 184 236 279 335 405
#     4  12  25  40  71 109 128 184 231 273 343 413
#     4  10  20  38  68  96 134 175 210 275 351 393
#
# _framework density 25.336948
#
# number of rings (size 3 to 8) (size 9 to 14) (size 15 to 20)
#    1.000    0.333    3.333    2.500    4.667    0.000 
#    6.000    1.667    0.000    0.000    0.000    0.000 
#    0.000    0.000    0.000    0.000    0.000    0.000 
#
# Total GULP energy -134192.222278 kJ/mol
# GULP energy per Si atom -5591.342595 kJ/mol
# Density = 2.527928 g / cm^3
# Si number density = 25.336948 Si / 1000 Ang^3
#
#
#
# Elastic Constant Matrix: (Units=GPa)
#
#
# Indices 1 2 3 4 5 6 
#
# 1 75.6529 17.9467 23.6325 0.0000 2.7495 0.0000
# 2 17.9467 115.1709 1.3303 0.0000 6.6173 0.0000
# 3 23.6325 1.3303 65.1183 0.0000 4.6938 0.0000
# 4 0.0000 0.0000 0.0000 30.1208 0.0000 -0.9198
# 5 2.7495 6.6173 4.6938 0.0000 40.4200 0.0000
# 6 0.0000 0.0000 0.0000 -0.9198 0.0000 39.7726
#
#
#
# Elastic Compliance Matrix: (Units=1/GPa)
#
#
# Indices 1 2 3 4 5 6 
#
# 1 0.015521 -0.002353 -0.005583 0.000000 -0.000022 0.000000
# 2 -0.002353 0.009122 0.000770 0.000000 -0.001423 0.000000
# 3 -0.005583 0.000770 0.017495 0.000000 -0.001778 0.000000
# 4 0.000000 0.000000 0.000000 0.033223 0.000000 0.000768
# 5 -0.000022 -0.001423 -0.001778 0.000000 0.025181 0.000000
# 6 0.000000 0.000000 0.000000 0.000768 0.000000 0.025161
#
#
# Mechanical properties :
#
#
# Convention : Reuss Voigt Hill
#
# Bulk Modulus (GPa) = 35.96239 37.97346 36.96793
# Shear Modulus (GPa) = 33.48851 36.26485 34.87668
#
# Velocity S-wave (km/s) = 3.63950 3.78736 3.71417
# Velocity P-wave (km/s) = 5.64675 5.84341 5.74592
#
# Compressibility (1/GPa) = 0.02780682
#
# Stress axis : x y z
#
# Youngs Moduli (GPa) = 64.42742 109.62216 57.15806
#
# Poissons Ratio (x) = 0.25793 0.31913
# Poissons Ratio (y) = 0.15159 -0.04402
# Poissons Ratio (z) = 0.35972 -0.08442
#
# Static dielectric constant tensor:
#      x y z
#    x 2.083510 0.000000 -0.094700 
#    y 0.000000 2.026520 0.000000 
#    z -0.094700 0.000000 2.048490 
# 
# From -- ./inp_files/278519.got.cif
#   From: 2010.05.17/outbox.cif.g08.bks.cpg/sg15_140_cif.got.tgz:278519.got - 2010.06.03 18:47:42.
