data_PCOD9267315
_publ_section_title
;
Structure prediction by ZEFSAII (Michael W. Deem and Ramdas Pophale) SiO2 
 PCOD9267315
Probable space group: C 2/C
;
_chemical_formula_sum "Si O2"
_cell_formula_units_Z 60
_cell_length_a 20.659255
_cell_length_b 9.154251
_cell_length_c 18.050611
_cell_angle_alpha 90.000000
_cell_angle_beta 101.728078
_cell_angle_gamma 90.000000
_cell_volume 3342.464260
_symmetry_space_group_name_H-M "C 2/C"
_symmetry_group_IT_number 15
_symmetry_cell_setting 'monoclinic'
loop_
_space_group_symop_operation_xyz
x,y,z
-x,y,1/2-z
-x,-y,-z
x,-y,1/2+z
1/2+x,1/2+y,z
1/2-x,1/2+y,1/2-z
1/2-x,1/2-y,-z
1/2+x,1/2-y,1/2+z
loop_
_atom_site_type_symbol
_atom_site_label
_atom_site_fract_x
_atom_site_fract_y
_atom_site_fract_z
Si Si1 0.206168 0.804853 0.672626
Si Si2 0.559506 0.603373 0.113962
Si Si3 0.387709 0.600247 0.618023
Si Si4 0.240068 0.018298 0.326488
Si Si5 0.808306 0.655467 0.476453
Si Si6 0.298327 0.853360 0.559539
Si Si7 0.430508 0.630139 0.003250
Si Si8 0.000000 0.005210 0.750000
O O1 0.131063 0.823216 0.627592
O O2 0.215616 0.892664 0.750378
O O3 0.225246 0.635031 0.685450
O O4 0.257208 0.873547 0.625362
O O5 0.501691 0.678009 0.051835
O O6 0.535650 0.587739 0.193378
O O7 0.565008 0.443076 0.076694
O O8 0.323141 0.524548 0.638451
O O9 0.364236 0.760519 0.589538
O O10 0.408907 0.502241 0.553130
O O11 0.445095 0.596191 0.692576
O O12 0.287809 0.115619 0.388176
O O13 0.750000 0.750000 0.500000
O O14 0.811821 0.503349 0.521335
O O15 0.875670 0.746079 0.494366
O O16 0.250000 0.750000 0.500000
#
# Coordination Sequence:
#
# PCOD9267315 Si02
#       8
#     8   8   8   8   8   8   8   4
#     4  11  23  39  60  87 127 157 199 249 306 363
#     4  10  21  39  61  88 115 163 201 248 294 359
#     4  10  19  39  59  90 117 157 200 239 305 353
#     4  11  24  36  60  91 122 159 195 247 309 354
#     4  12  22  38  63  94 121 155 207 251 298 360
#     4  11  21  38  63  90 122 157 192 252 309 354
#     4  10  22  36  65  88 117 156 207 243 293 357
#     4  10  20  36  66  82 116 158 204 244 284 374
#
# _framework density 17.950828999999999
#
# number of rings (size 3 to 8) (size 9 to 14) (size 15 to 20)
#    0.000    1.333    5.333    1.600    3.733    0.000 
#    0.000    0.667    5.867    0.000    0.000    0.000 
#    0.000    0.000    0.000    0.000    0.000    0.000 
#
# Total GULP energy -167521.977881 kJ/mol
# GULP energy per Si atom -5584.065929 kJ/mol
# Density = 1.790997 g / cm^3
# Si number density = 17.950829 Si / 1000 Ang^3
#
#
#
# Elastic Constant Matrix: (Units=GPa)
#
#
# Indices 1 2 3 4 5 6 
#
# 1 98.2339 47.3792 22.9630 0.0000 25.7370 0.0000
# 2 47.3792 69.6307 29.3235 0.0000 10.8921 0.0000
# 3 22.9630 29.3235 74.7739 0.0000 2.7762 0.0000
# 4 0.0000 0.0000 0.0000 23.6430 0.0000 1.5097
# 5 25.7370 10.8921 2.7762 0.0000 36.8386 0.0000
# 6 0.0000 0.0000 0.0000 1.5097 0.0000 35.3209
#
#
#
# Elastic Compliance Matrix: (Units=1/GPa)
#
#
# Indices 1 2 3 4 5 6 
#
# 1 0.017798 -0.010174 -0.001129 0.000000 -0.009341 0.000000
# 2 -0.010174 0.023829 -0.006240 0.000000 0.000533 0.000000
# 3 -0.001129 -0.006240 0.016115 0.000000 0.001420 0.000000
# 4 0.000000 0.000000 0.000000 0.042412 0.000000 -0.001813
# 5 -0.009341 0.000533 0.001420 0.000000 0.033407 0.000000
# 6 0.000000 0.000000 0.000000 -0.001813 0.000000 0.028389
#
#
# Mechanical properties :
#
#
# Convention : Reuss Voigt Hill
#
# Bulk Modulus (GPa) = 44.13938 49.10777 46.62357
# Shear Modulus (GPa) = 24.43944 28.69200 26.56572
#
# Velocity S-wave (km/s) = 3.69381 4.00229 3.85114
# Velocity P-wave (km/s) = 6.54482 6.98384 6.76789
#
# Compressibility (1/GPa) = 0.02265551
#
# Stress axis : x y z
#
# Youngs Moduli (GPa) = 56.18618 41.96648 62.05444
#
# Poissons Ratio (x) = 0.42695 0.07007
# Poissons Ratio (y) = 0.57162 0.38723
# Poissons Ratio (z) = 0.06345 0.26188
#
# Static dielectric constant tensor:
#      x y z
#    x 1.628410 0.000000 -0.006610 
#    y 0.000000 1.583650 0.000000 
#    z -0.006610 0.000000 1.646600 
# 
# From -- ./inp_files/213883.got.cif
#   From: 2010.05.17/outbox.cif.g08.bks.cpg/sg15_107_cif.got.tgz:213883.got - 2010.06.03 18:47:42.
