data_PCOD9267051
_publ_section_title
;
Structure prediction by ZEFSAII (Michael W. Deem and Ramdas Pophale) SiO2 
 PCOD9267051
Probable space group: C 2/C
;
_chemical_formula_sum "Si O2"
_cell_formula_units_Z 52
_cell_length_a 19.342982
_cell_length_b 9.196232
_cell_length_c 25.753092
_cell_angle_alpha 90.000000
_cell_angle_beta 30.698277
_cell_angle_gamma 90.000000
_cell_volume 2338.691761
_symmetry_space_group_name_H-M "C 2/C"
_symmetry_group_IT_number 15
_symmetry_cell_setting 'monoclinic'
loop_
_space_group_symop_operation_xyz
x,y,z
-x,y,1/2-z
-x,-y,-z
x,-y,1/2+z
1/2+x,1/2+y,z
1/2-x,1/2+y,1/2-z
1/2-x,1/2-y,-z
1/2+x,1/2-y,1/2+z
loop_
_atom_site_type_symbol
_atom_site_label
_atom_site_fract_x
_atom_site_fract_y
_atom_site_fract_z
Si Si1 0.494096 0.685747 0.546827
Si Si2 0.039893 0.726926 0.598534
Si Si3 0.401006 0.483492 0.208196
Si Si4 0.113869 0.494683 0.856295
Si Si5 0.000000 0.942225 0.750000
Si Si6 0.236511 0.012366 0.350811
Si Si7 0.673088 0.835101 0.114979
O O1 0.472965 0.606433 0.616235
O O2 0.460243 0.853277 0.575253
O O3 0.641442 0.645673 0.429588
O O4 0.376153 0.612467 0.588193
O O5 0.171414 0.821440 0.501515
O O6 0.083590 0.637597 0.621551
O O7 0.921839 0.843115 0.684771
O O8 0.992412 0.622514 0.584118
O O9 0.241331 0.457557 0.308453
O O10 0.470352 0.462845 0.218838
O O11 0.181066 0.464239 0.755615
O O12 0.876639 0.826867 0.836514
O O13 0.328651 0.951227 0.337908
#
# Coordination Sequence:
#
# PCOD9267051 Si02
#       7
#     8   8   8   8   4   8   8
#     4  10  21  38  60  89 125 163 207 252 316 378
#     4  10  21  37  65  91 123 159 212 268 301 363
#     4  10  19  39  60  85 124 162 207 258 312 375
#     4  11  22  38  61  94 125 163 209 263 307 383
#     4  10  20  34  62  92 112 160 212 264 308 360
#     4  10  20  39  65  83 125 173 202 249 328 371
#     4  10  19  38  64  92 118 163 217 254 306 383
#
# _framework density 22.234655
#
# number of rings (size 3 to 8) (size 9 to 14) (size 15 to 20)
#    0.000    1.846    1.538    4.615    0.000    0.000 
#    2.769    3.846    0.000    0.000    0.000    0.000 
#    0.000    0.000    0.000    0.000    0.000    0.000 
#
# Total GULP energy -145392.218658 kJ/mol
# GULP energy per Si atom -5592.008410 kJ/mol
# Density = 2.218405 g / cm^3
# Si number density = 22.234655 Si / 1000 Ang^3
#
#
#
# Elastic Constant Matrix: (Units=GPa)
#
#
# Indices 1 2 3 4 5 6 
#
# 1 98.4008 29.0905 3.4132 0.0000 4.8280 0.0000
# 2 29.0905 55.1318 16.2057 0.0000 -5.8855 0.0000
# 3 3.4132 16.2057 57.4481 0.0001 -9.0784 0.0000
# 4 0.0000 0.0000 0.0001 19.9819 0.0000 5.0637
# 5 4.8280 -5.8855 -9.0784 0.0000 28.1463 0.0000
# 6 0.0000 0.0000 0.0000 5.0637 0.0000 27.9730
#
#
#
# Elastic Compliance Matrix: (Units=1/GPa)
#
#
# Indices 1 2 3 4 5 6 
#
# 1 0.012409 -0.007126 0.000739 0.000000 -0.003380 0.000000
# 2 -0.007126 0.024033 -0.005657 0.000000 0.004423 0.000000
# 3 0.000739 -0.005657 0.019759 0.000000 0.005063 0.000000
# 4 0.000000 0.000000 0.000000 0.052452 0.000000 -0.009495
# 5 -0.003380 0.004423 0.005063 0.000000 0.038666 0.000000
# 6 0.000000 0.000000 0.000000 -0.009495 0.000000 0.037468
#
#
# Mechanical properties :
#
#
# Convention : Reuss Voigt Hill
#
# Bulk Modulus (GPa) = 31.14004 34.26662 32.70333
# Shear Modulus (GPa) = 22.77063 26.03832 24.40448
#
# Velocity S-wave (km/s) = 3.20364 3.42580 3.31658
# Velocity P-wave (km/s) = 5.26498 5.57611 5.42277
#
# Compressibility (1/GPa) = 0.03211300
#
# Stress axis : x y z
#
# Youngs Moduli (GPa) = 80.58407 41.60864 50.60932
#
# Poissons Ratio (x) = 0.29650 -0.03738
# Poissons Ratio (y) = 0.57423 0.28632
# Poissons Ratio (z) = -0.05953 0.23540
#
# Static dielectric constant tensor:
#      x y z
#    x 1.844390 0.000000 0.065250 
#    y 0.000000 1.786170 0.000000 
#    z 0.065250 0.000000 1.873960 
# 
# From -- ./inp_files/317353.got.cif
#   From: 2010.05.17/outbox.cif.g08.bks.cpg/sg15_159_cif.got.tgz:317353.got - 2010.06.03 18:47:42.
