data_PCOD9267986
_publ_section_title
;
Structure prediction by ZEFSAII (Michael W. Deem and Ramdas Pophale) SiO2 
 PCOD9267986
Probable space group: C 2/C
;
_chemical_formula_sum "Si O2"
_cell_formula_units_Z 52
_cell_length_a 17.279029
_cell_length_b 13.778950
_cell_length_c 13.827467
_cell_angle_alpha 90.000000
_cell_angle_beta 46.834012
_cell_angle_gamma 90.000000
_cell_volume 2401.203009
_symmetry_space_group_name_H-M "C 2/C"
_symmetry_group_IT_number 15
_symmetry_cell_setting 'monoclinic'
loop_
_space_group_symop_operation_xyz
x,y,z
-x,y,1/2-z
-x,-y,-z
x,-y,1/2+z
1/2+x,1/2+y,z
1/2-x,1/2+y,1/2-z
1/2-x,1/2-y,-z
1/2+x,1/2-y,1/2+z
loop_
_atom_site_type_symbol
_atom_site_label
_atom_site_fract_x
_atom_site_fract_y
_atom_site_fract_z
Si Si1 0.412839 0.570580 0.527260
Si Si2 0.327192 0.630234 0.877284
Si Si3 0.462680 0.953419 0.183887
Si Si4 0.500000 0.533293 0.250000
Si Si5 0.393592 0.893456 0.041388
Si Si6 0.269941 0.082420 0.343047
Si Si7 0.591767 0.237792 0.340249
O O1 0.500000 0.500000 0.500000
O O2 0.452675 0.588282 0.383160
O O3 0.306644 0.505208 0.621826
O O4 0.402046 0.670968 0.593530
O O5 0.404098 0.537803 0.799454
O O6 0.222050 0.621038 0.902419
O O7 0.388850 0.721717 0.783478
O O8 0.293367 0.635466 0.017436
O O9 0.500000 0.901766 0.250000
O O10 0.402234 0.897545 0.150376
O O11 0.378255 0.034678 0.290621
O O12 0.558345 0.007488 0.045992
O O13 0.477601 0.810813 0.942897
O O14 0.315274 0.157281 0.224979
#
# Coordination Sequence:
#
# PCOD9267986 Si02
#       7
#     8   8   8   4   8   8   8
#     4  11  23  45  65  94 139 178 220 276 336 404
#     4  11  21  40  65  96 132 166 220 286 330 392
#     4  10  19  41  64  93 128 168 217 276 332 395
#     4  10  24  42  68  98 128 184 230 266 332 406
#     4  10  23  38  64  96 129 171 219 273 338 391
#     4  10  23  40  67  99 126 171 224 278 336 393
#     4  11  24  40  65  99 134 173 221 274 341 396
#
# _framework density 21.655811
#
# number of rings (size 3 to 8) (size 9 to 14) (size 15 to 20)
#    0.000    1.538    3.077    1.385    2.154    1.231 
#    1.385    0.000    0.000    2.769    0.000    0.000 
#    0.000    0.000    0.000    0.000    0.000    0.000 
#
# Total GULP energy -145242.368532 kJ/mol
# GULP energy per Si atom -5586.244944 kJ/mol
# Density = 2.160652 g / cm^3
# Si number density = 21.655811 Si / 1000 Ang^3
#
#
#
# Elastic Constant Matrix: (Units=GPa)
#
#
# Indices 1 2 3 4 5 6 
#
# 1 124.6401 40.0095 54.2211 0.0000 -7.6047 0.0000
# 2 40.0095 71.6102 55.4028 0.0000 -5.1941 0.0000
# 3 54.2211 55.4028 128.0437 0.0000 -10.7616 0.0000
# 4 0.0000 0.0000 0.0000 35.9002 0.0000 3.7778
# 5 -7.6047 -5.1941 -10.7616 0.0000 22.7043 0.0000
# 6 0.0000 0.0000 0.0000 3.7778 0.0000 14.9630
#
#
#
# Elastic Compliance Matrix: (Units=1/GPa)
#
#
# Indices 1 2 3 4 5 6 
#
# 1 0.010465 -0.003620 -0.002750 0.000000 0.001374 0.000000
# 2 -0.003620 0.022250 -0.008091 0.000000 0.000043 0.000000
# 3 -0.002750 -0.008091 0.012750 0.000000 0.003271 0.000000
# 4 0.000000 0.000000 0.000000 0.028615 0.000000 -0.007225
# 5 0.001374 0.000043 0.003271 0.000000 0.046065 0.000000
# 6 0.000000 0.000000 0.000000 -0.007225 0.000000 0.068656
#
#
# Mechanical properties :
#
#
# Convention : Reuss Voigt Hill
#
# Bulk Modulus (GPa) = 60.44507 69.28453 64.86480
# Shear Modulus (GPa) = 22.39785 26.35754 24.37769
#
# Velocity S-wave (km/s) = 3.21949 3.49250 3.35877
# Velocity P-wave (km/s) = 6.46471 6.95172 6.71263
#
# Compressibility (1/GPa) = 0.01654395
#
# Stress axis : x y z
#
# Youngs Moduli (GPa) = 95.55547 44.94466 78.43193
#
# Poissons Ratio (x) = 0.16270 0.21567
# Poissons Ratio (y) = 0.34590 0.63456
# Poissons Ratio (z) = 0.26276 0.36363
#
# Static dielectric constant tensor:
#      x y z
#    x 1.826900 0.000000 -0.020100 
#    y 0.000000 1.813210 0.000000 
#    z -0.020100 0.000000 1.905240 
# 
# From -- ./inp_files/162468.got.cif
#   From: 2010.05.17/outbox.cif.g08.bks.cpg/sg15_82_cif.got.tgz:162468.got - 2010.06.03 18:47:42.
