data_PCOD9267078
_publ_section_title
;
Structure prediction by ZEFSAII (Michael W. Deem and Ramdas Pophale) SiO2 
 PCOD9267078
Probable space group: C 2/C
;
_chemical_formula_sum "Si O2"
_cell_formula_units_Z 56
_cell_length_a 24.283817
_cell_length_b 7.217188
_cell_length_c 14.421024
_cell_angle_alpha 90.000000
_cell_angle_beta 114.740519
_cell_angle_gamma 90.000000
_cell_volume 2295.453583
_symmetry_space_group_name_H-M "C 2/C"
_symmetry_group_IT_number 15
_symmetry_cell_setting 'monoclinic'
loop_
_space_group_symop_operation_xyz
x,y,z
-x,y,1/2-z
-x,-y,-z
x,-y,1/2+z
1/2+x,1/2+y,z
1/2-x,1/2+y,1/2-z
1/2-x,1/2-y,-z
1/2+x,1/2-y,1/2+z
loop_
_atom_site_type_symbol
_atom_site_label
_atom_site_fract_x
_atom_site_fract_y
_atom_site_fract_z
Si Si1 0.709612 0.222646 0.787236
Si Si2 0.747491 0.529057 0.524266
Si Si3 0.402596 0.697794 0.919468
Si Si4 0.890851 0.076422 0.577955
Si Si5 0.185461 0.484984 0.099436
Si Si6 0.595445 0.419330 0.720845
Si Si7 0.968541 0.702822 0.992425
O O1 0.759644 0.378794 0.832723
O O2 0.646878 0.277811 0.791885
O O3 0.691391 0.188346 0.669269
O O4 0.734784 0.039910 0.856037
O O5 0.750000 0.750000 0.500000
O O6 0.682205 0.439151 0.460246
O O7 0.799711 0.447268 0.496422
O O8 0.373660 0.897798 0.914736
O O9 0.370134 0.569789 0.820758
O O10 0.402220 0.595901 0.016989
O O11 0.471084 0.691506 0.931456
O O12 0.918671 0.249265 0.537443
O O13 0.922801 0.031347 0.699079
O O14 0.553747 0.296174 0.620924
O O15 0.000000 0.500000 0.000000
#
# Coordination Sequence:
#
# PCOD9267078 Si02
#       7
#     8   8   8   8   8   8   8
#     4  11  21  37  64  99 136 185 239 298 371 443
#     4  10  19  38  64  99 143 181 238 298 354 442
#     4  11  23  43  65  96 139 188 239 306 364 444
#     4  11  21  42  73  98 136 191 243 297 372 449
#     4  11  21  37  63  94 142 180 236 296 375 434
#     4  11  22  42  73  99 134 194 250 297 373 445
#     4  11  27  47  70 104 145 188 247 316 375 436
#
# _framework density 24.396049999999999
#
# number of rings (size 3 to 8) (size 9 to 14) (size 15 to 20)
#    0.000    1.143    5.714    3.429    2.000    2.286 
#    0.000    9.286    0.000    1.714    0.000    0.000 
#    0.000    0.000    0.000    0.000    0.000    0.000 
#
# Total GULP energy -156168.418139 kJ/mol
# GULP energy per Si atom -5577.443505 kJ/mol
# Density = 2.434052 g / cm^3
# Si number density = 24.396050 Si / 1000 Ang^3
#
#
#
# Elastic Constant Matrix: (Units=GPa)
#
#
# Indices 1 2 3 4 5 6 
#
# 1 118.3956 30.5185 33.7057 0.0000 10.9447 0.0000
# 2 30.5185 121.4499 41.3697 0.0000 -5.1554 0.0000
# 3 33.7057 41.3697 124.0704 0.0000 -21.3441 0.0000
# 4 0.0000 0.0000 0.0000 30.2915 0.0000 -5.2912
# 5 10.9447 -5.1554 -21.3441 0.0000 46.9911 0.0000
# 6 0.0000 0.0000 0.0000 -5.2912 0.0000 41.1331
#
#
#
# Elastic Compliance Matrix: (Units=1/GPa)
#
#
# Indices 1 2 3 4 5 6 
#
# 1 0.010042 -0.001729 -0.002806 0.000000 -0.003803 0.000000
# 2 -0.001729 0.009594 -0.002689 0.000000 0.000234 0.000000
# 3 -0.002806 -0.002689 0.010610 0.000000 0.005178 0.000000
# 4 0.000000 0.000000 0.000000 0.033771 0.000000 0.004344
# 5 -0.003803 0.000234 0.005178 0.000000 0.024544 0.000000
# 6 0.000000 0.000000 0.000000 0.004344 0.000000 0.024870
#
#
# Mechanical properties :
#
#
# Convention : Reuss Voigt Hill
#
# Bulk Modulus (GPa) = 63.29944 63.90041 63.59993
# Shear Modulus (GPa) = 37.55285 40.90460 39.22873
#
# Velocity S-wave (km/s) = 3.92765 4.09918 4.01433
# Velocity P-wave (km/s) = 6.82433 6.97526 6.90021
#
# Compressibility (1/GPa) = 0.01579793
#
# Stress axis : x y z
#
# Youngs Moduli (GPa) = 99.57842 104.22871 94.25481
#
# Poissons Ratio (x) = 0.18023 0.26447
# Poissons Ratio (y) = 0.17219 0.25346
# Poissons Ratio (z) = 0.27940 0.28028
#
# Static dielectric constant tensor:
#      x y z
#    x 2.049140 0.000000 0.013160 
#    y 0.000000 2.018900 0.000000 
#    z 0.013160 0.000000 1.991520 
# 
# From -- ./inp_files/176680.got.cif
#   From: 2010.05.17/outbox.cif.g08.bks.cpg/sg15_89_cif.got.tgz:176680.got - 2010.06.03 18:47:42.
