data_PCOD9267029
_publ_section_title
;
Structure prediction by ZEFSAII (Michael W. Deem and Ramdas Pophale) SiO2 
 PCOD9267029
Probable space group: C 2/C
;
_chemical_formula_sum "Si O2"
_cell_formula_units_Z 64
_cell_length_a 10.116878
_cell_length_b 20.971474
_cell_length_c 13.728260
_cell_angle_alpha 90.000000
_cell_angle_beta 87.025293
_cell_angle_gamma 90.000000
_cell_volume 2908.743168
_symmetry_space_group_name_H-M "C 2/C"
_symmetry_group_IT_number 15
_symmetry_cell_setting 'monoclinic'
loop_
_space_group_symop_operation_xyz
x,y,z
-x,y,1/2-z
-x,-y,-z
x,-y,1/2+z
1/2+x,1/2+y,z
1/2-x,1/2+y,1/2-z
1/2-x,1/2-y,-z
1/2+x,1/2-y,1/2+z
loop_
_atom_site_type_symbol
_atom_site_label
_atom_site_fract_x
_atom_site_fract_y
_atom_site_fract_z
Si Si1 0.632554 0.836523 0.864442
Si Si2 0.806372 0.573880 0.981044
Si Si3 0.293165 0.556045 0.983649
Si Si4 0.055085 0.584305 0.858347
Si Si5 0.963931 0.133099 0.854109
Si Si6 0.269130 0.704724 0.623104
Si Si7 0.321392 0.836499 0.869212
Si Si8 0.190737 0.290387 0.341653
O O1 0.713794 0.778049 0.910200
O O2 0.476063 0.825726 0.889656
O O3 0.666206 0.840390 0.748793
O O4 0.674251 0.902638 0.910400
O O5 0.707576 0.515434 0.976864
O O6 0.776308 0.639497 0.925383
O O7 0.945274 0.553396 0.930356
O O8 0.231238 0.603616 0.067102
O O9 0.194696 0.556195 0.891843
O O10 0.431966 0.584212 0.941223
O O11 0.077531 0.660447 0.877972
O O12 0.000000 0.576496 0.750000
O O13 0.828885 0.172898 0.852468
O O14 0.000000 0.100170 0.750000
O O15 0.079058 0.184504 0.861694
O O16 0.183959 0.713097 0.725058
O O17 0.217612 0.777997 0.888845
#
# Coordination Sequence:
#
# PCOD9267029 Si02
#       8
#     8   8   8   8   8   8   8   8
#     4  10  21  38  62  90 125 165 202 265 313 361
#     4  12  24  39  58  92 129 166 209 246 314 387
#     4  11  25  40  61  95 127 167 212 247 308 388
#     4  11  22  38  59  93 127 161 200 260 315 368
#     4   9  19  38  64  93 114 157 212 262 305 365
#     4  10  19  38  64  88 118 158 214 258 313 357
#     4  10  20  39  63  90 124 160 208 260 310 366
#     4   9  18  36  63  92 119 154 207 261 309 365
#
# _framework density 22.00263
#
# number of rings (size 3 to 8) (size 9 to 14) (size 15 to 20)
#    0.000    1.750    3.750    0.750    0.000    4.500 
#    0.000    0.000    0.000    0.000    0.000    0.000 
#    0.000    0.000    0.000    0.000    0.000    0.000 
#
# Total GULP energy -178261.604480 kJ/mol
# GULP energy per Si atom -5570.675140 kJ/mol
# Density = 2.195255 g / cm^3
# Si number density = 22.002630 Si / 1000 Ang^3
#
#
#
# Elastic Constant Matrix: (Units=GPa)
#
#
# Indices 1 2 3 4 5 6 
#
# 1 32.7649 16.7929 11.0512 0.0000 -6.0948 0.0000
# 2 16.7929 127.9241 44.2100 0.0000 -10.3706 0.0000
# 3 11.0512 44.2100 72.5838 0.0000 -10.8111 0.0000
# 4 0.0000 0.0000 0.0000 -33.4273 0.0000 57.4239
# 5 -6.0948 -10.3706 -10.8111 0.0000 27.9418 0.0000
# 6 0.0000 0.0000 0.0000 57.4239 0.0000 -29.8369
#
#
#
# Elastic Compliance Matrix: (Units=1/GPa)
#
#
# Indices 1 2 3 4 5 6 
#
# 1 0.033959 -0.003185 -0.002444 0.000000 0.005280 0.000000
# 2 -0.003185 0.010254 -0.005621 0.000000 0.000936 0.000000
# 3 -0.002444 -0.005621 0.018234 0.000000 0.004436 0.000000
# 4 0.000000 0.000000 0.000000 0.012972 0.000000 0.024965
# 5 0.005280 0.000936 0.004436 0.000000 0.039004 0.000000
# 6 0.000000 0.000000 0.000000 0.024965 0.000000 0.014533
#
#
# Mechanical properties :
#
#
# Convention : Reuss Voigt Hill
#
# Bulk Modulus (GPa) = 25.03369 41.93124 33.48246
# Shear Modulus (GPa) = 30.34506 3.68342 17.01424
#
# Velocity S-wave (km/s) = 3.71773 1.29527 2.78381
# Velocity P-wave (km/s) = 5.46177 4.61906 5.05800
#
# Compressibility (1/GPa) = 0.03994616
#
# Stress axis : x y z
#
# Youngs Moduli (GPa) = 29.44693 97.52508 54.84354
#
# Poissons Ratio (x) = 0.31065 0.13404
# Poissons Ratio (y) = 0.09380 0.30828
# Poissons Ratio (z) = 0.07197 0.54820
#
# Static dielectric constant tensor:
#      x y z
#    x 1.835850 0.000000 0.052880 
#    y 0.000000 1.828600 0.000000 
#    z 0.052880 0.000000 1.884530 
# 
# From -- ./inp_files/146094.got.cif
#   From: 2010.05.17/outbox.cif.g08.bks.cpg/sg15_74_cif.got.tgz:146094.got - 2010.06.03 18:47:42.
