data_PCOD9267992
_publ_section_title
;
Structure prediction by ZEFSAII (Michael W. Deem and Ramdas Pophale) SiO2 
 PCOD9267992
Probable space group: C 2/C
;
_chemical_formula_sum "Si O2"
_cell_formula_units_Z 52
_cell_length_a 12.659743
_cell_length_b 28.345201
_cell_length_c 9.389553
_cell_angle_alpha 90.000000
_cell_angle_beta 128.620202
_cell_angle_gamma 90.000000
_cell_volume 2632.494194
_symmetry_space_group_name_H-M "C 2/C"
_symmetry_group_IT_number 15
_symmetry_cell_setting 'monoclinic'
loop_
_space_group_symop_operation_xyz
x,y,z
-x,y,1/2-z
-x,-y,-z
x,-y,1/2+z
1/2+x,1/2+y,z
1/2-x,1/2+y,1/2-z
1/2-x,1/2-y,-z
1/2+x,1/2-y,1/2+z
loop_
_atom_site_type_symbol
_atom_site_label
_atom_site_fract_x
_atom_site_fract_y
_atom_site_fract_z
Si Si1 0.500000 0.048393 0.250000
Si Si2 0.339551 0.864069 0.326185
Si Si3 0.374706 0.508526 0.998008
Si Si4 0.349933 0.384983 0.591201
Si Si5 0.638790 0.876127 0.659237
Si Si6 0.156583 0.295228 0.903957
Si Si7 0.773614 0.468008 0.379822
O O1 0.408567 0.083926 0.268215
O O2 0.591763 0.016827 0.427562
O O3 0.503166 0.867377 0.449381
O O4 0.323285 0.824877 0.434035
O O5 0.292724 0.913691 0.355532
O O6 0.245264 0.859065 0.106978
O O7 0.250981 0.504210 0.784472
O O8 0.500000 0.500000 0.000000
O O9 0.375540 0.562149 0.053912
O O10 0.346922 0.475974 0.109512
O O11 0.500000 0.364634 0.750000
O O12 0.262214 0.388787 0.660891
O O13 0.679228 0.830814 0.789613
O O14 0.000000 0.281077 0.750000
O O15 0.250000 0.250000 0.000000
#
# Coordination Sequence:
#
# PCOD9267992 Si02
#       7
#     4   8   8   8   8   8   8
#     4  10  20  38  64  82 112 154 208 250 300 346
#     4   9  20  42  60  86 118 163 200 246 310 361
#     4  11  24  39  53  82 122 163 199 246 313 357
#     4  11  24  37  60  90 122 161 206 255 303 363
#     4  10  19  41  65  85 121 158 202 245 306 366
#     4  10  20  38  66  95 123 155 199 247 306 371
#     4  10  21  37  57  79 112 153 201 245 293 351
#
# _framework density 19.753129999999999
#
# number of rings (size 3 to 8) (size 9 to 14) (size 15 to 20)
#    0.000    1.846    3.846    1.846    4.308    1.846 
#    5.538    2.308    0.000    0.000    0.000    0.000 
#    0.000    0.000    0.000    0.000    0.000    0.000 
#
# Total GULP energy -145031.128835 kJ/mol
# GULP energy per Si atom -5578.120340 kJ/mol
# Density = 1.970817 g / cm^3
# Si number density = 19.753130 Si / 1000 Ang^3
#
#
#
# Elastic Constant Matrix: (Units=GPa)
#
#
# Indices 1 2 3 4 5 6 
#
# 1 133.2135 45.9320 52.8714 0.0000 -11.0565 0.0000
# 2 45.9320 65.3859 20.3568 0.0000 3.0059 0.0000
# 3 52.8714 20.3568 158.2849 0.0000 8.9969 0.0000
# 4 0.0000 0.0000 0.0000 16.1498 0.0000 2.5222
# 5 -11.0565 3.0059 8.9969 0.0000 25.3249 0.0000
# 6 0.0000 0.0000 0.0000 2.5222 0.0000 20.5667
#
#
#
# Elastic Compliance Matrix: (Units=1/GPa)
#
#
# Indices 1 2 3 4 5 6 
#
# 1 0.012224 -0.007842 -0.003501 0.000000 0.007512 0.000000
# 2 -0.007842 0.020998 0.000261 0.000000 -0.006009 0.000000
# 3 -0.003501 0.000261 0.007698 0.000000 -0.004294 0.000000
# 4 0.000000 0.000000 0.000000 0.063130 0.000000 -0.007742
# 5 0.007512 -0.006009 -0.004294 0.000000 0.045005 0.000000
# 6 0.000000 0.000000 0.000000 -0.007742 0.000000 0.049572
#
#
# Mechanical properties :
#
#
# Convention : Reuss Voigt Hill
#
# Bulk Modulus (GPa) = 53.32372 66.13386 59.72879
# Shear Modulus (GPa) = 22.02222 28.25654 25.13938
#
# Velocity S-wave (km/s) = 3.34259 3.78628 3.57133
# Velocity P-wave (km/s) = 6.47695 7.25723 6.87817
#
# Compressibility (1/GPa) = 0.01875338
#
# Stress axis : x y z
#
# Youngs Moduli (GPa) = 81.80701 47.62386 129.90560
#
# Poissons Ratio (x) = 0.37347 0.45486
# Poissons Ratio (y) = 0.64155 -0.03384
# Poissons Ratio (z) = 0.28645 -0.01241
#
# Static dielectric constant tensor:
#      x y z
#    x 1.730980 0.000000 0.048050 
#    y 0.000000 1.663180 0.000000 
#    z 0.048050 0.000000 1.784710 
# 
# From -- ./inp_files/35374.got.cif
#   From: 2010.05.17/outbox.cif.g08.bks.cpg/sg15_18_cif.got.tgz:35374.got - 2010.06.03 18:47:42.
