data_PCOD9267216
_publ_section_title
;
Structure prediction by ZEFSAII (Michael W. Deem and Ramdas Pophale) SiO2 
 PCOD9267216
Probable space group: C 2/C
;
_chemical_formula_sum "Si O2"
_cell_formula_units_Z 64
_cell_length_a 11.705023
_cell_length_b 27.550614
_cell_length_c 15.105571
_cell_angle_alpha 90.000000
_cell_angle_beta 139.786624
_cell_angle_gamma 90.000000
_cell_volume 3145.056315
_symmetry_space_group_name_H-M "C 2/C"
_symmetry_group_IT_number 15
_symmetry_cell_setting 'monoclinic'
loop_
_space_group_symop_operation_xyz
x,y,z
-x,y,1/2-z
-x,-y,-z
x,-y,1/2+z
1/2+x,1/2+y,z
1/2-x,1/2+y,1/2-z
1/2-x,1/2-y,-z
1/2+x,1/2-y,1/2+z
loop_
_atom_site_type_symbol
_atom_site_label
_atom_site_fract_x
_atom_site_fract_y
_atom_site_fract_z
Si Si1 0.940807 0.401282 0.595700
Si Si2 0.315170 0.999288 0.114008
Si Si3 0.360386 0.402246 0.535320
Si Si4 0.295258 0.733660 0.127382
Si Si5 0.752228 0.335343 0.196781
Si Si6 0.816204 0.919752 0.868334
Si Si7 0.940929 0.876843 0.117254
Si Si8 0.406708 0.861414 0.988414
O O1 0.868460 0.455117 0.581291
O O2 0.769733 0.365980 0.499237
O O3 0.125152 0.393558 0.758269
O O4 0.014543 0.395856 0.540435
O O5 0.500000 0.975065 0.250000
O O6 0.188771 0.958705 0.002926
O O7 0.233646 0.023977 0.153804
O O8 0.286121 0.369276 0.410876
O O9 0.570763 0.400831 0.646062
O O10 0.262418 0.383646 0.563028
O O11 0.500000 0.717261 0.250000
O O12 0.276233 0.780997 0.176547
O O13 0.250000 0.750000 0.000000
O O14 0.163110 0.691629 0.081643
O O15 0.588434 0.339297 0.169492
O O16 0.932355 0.352902 0.348550
O O17 0.931682 0.912107 0.025935
O O18 0.000000 0.894315 0.250000
#
# Coordination Sequence:
#
# PCOD9267216 Si02
#       8
#     8   8   8   8   8   8   8   8
#     4  10  22  40  62  95 130 169 207 270 317 372
#     4   9  18  37  60  86 128 171 214 261 312 370
#     4  11  21  35  63  95 124 174 215 254 318 389
#     4  12  24  42  64  94 131 164 206 266 332 383
#     4  11  22  41  64  96 125 162 219 266 313 389
#     4   9  21  37  61  92 131 163 214 260 317 368
#     4  10  19  38  68  89 119 169 213 256 309 375
#     4  12  24  38  65  92 133 163 214 261 322 388
#
# _framework density 20.349398000000001
#
# number of rings (size 3 to 8) (size 9 to 14) (size 15 to 20)
#    0.000    1.500    3.750    2.625    1.750    0.500 
#    0.000    0.625   11.000    0.000    0.000    0.000 
#    0.000    0.000    0.000    0.000    0.000    0.000 
#
# Total GULP energy -178140.585231 kJ/mol
# GULP energy per Si atom -5566.893288 kJ/mol
# Density = 2.030308 g / cm^3
# Si number density = 20.349398 Si / 1000 Ang^3
#
#
#
# Elastic Constant Matrix: (Units=GPa)
#
#
# Indices 1 2 3 4 5 6 
#
# 1 139.5884 33.9848 25.5802 0.0000 20.8776 0.0000
# 2 33.9848 45.8558 7.2611 0.0000 11.8155 0.0000
# 3 25.5802 7.2611 79.7118 0.0000 11.0313 0.0000
# 4 0.0000 0.0000 0.0000 1.6425 0.0000 12.3228
# 5 20.8776 11.8155 11.0313 0.0000 35.2038 0.0000
# 6 0.0000 0.0000 0.0000 12.3228 0.0000 1.8110
#
#
#
# Elastic Compliance Matrix: (Units=1/GPa)
#
#
# Indices 1 2 3 4 5 6 
#
# 1 0.009421 -0.005891 -0.002077 0.000000 -0.002959 0.000000
# 2 -0.005891 0.027650 0.000180 0.000000 -0.005843 0.000000
# 3 -0.002077 0.000180 0.013624 0.000000 -0.003098 0.000000
# 4 0.000000 0.000000 0.000000 -0.012164 0.000000 0.082772
# 5 -0.002959 -0.005843 -0.003098 0.000000 0.033093 0.000000
# 6 0.000000 0.000000 0.000000 0.082772 0.000000 -0.011033
#
#
# Mechanical properties :
#
#
# Convention : Reuss Voigt Hill
#
# Bulk Modulus (GPa) = 28.47364 44.31202 36.39283
# Shear Modulus (GPa) = 56.89949 20.95346 38.92647
#
# Velocity S-wave (km/s) = 5.29358 3.21235 4.37842
# Velocity P-wave (km/s) = 7.16836 5.96505 6.59421
#
# Compressibility (1/GPa) = 0.03512020
#
# Stress axis : x y z
#
# Youngs Moduli (GPa) = 106.14092 36.16576 73.39947
#
# Poissons Ratio (x) = 0.21305 0.15247
# Poissons Ratio (y) = 0.62528 -0.01324
# Poissons Ratio (z) = 0.22048 -0.00652
#
# Static dielectric constant tensor:
#      x y z
#    x 1.803140 0.000000 -0.005870 
#    y 0.000000 1.703290 0.000000 
#    z -0.005870 0.000000 1.790050 
# 
# From -- ./inp_files/149181.got.cif
#   From: 2010.05.17/outbox.cif.g08.bks.cpg/sg15_75_cif.got.tgz:149181.got - 2010.06.03 18:47:42.
