data_PCOD9267870
_publ_section_title
;
Structure prediction by ZEFSAII (Michael W. Deem and Ramdas Pophale) SiO2 
 PCOD9267870
Probable space group: C 2/C
;
_chemical_formula_sum "Si O2"
_cell_formula_units_Z 48
_cell_length_a 18.741642
_cell_length_b 28.655482
_cell_length_c 10.869370
_cell_angle_alpha 90.000000
_cell_angle_beta 157.218330
_cell_angle_gamma 90.000000
_cell_volume 2260.363224
_symmetry_space_group_name_H-M "C 2/C"
_symmetry_group_IT_number 15
_symmetry_cell_setting 'monoclinic'
loop_
_space_group_symop_operation_xyz
x,y,z
-x,y,1/2-z
-x,-y,-z
x,-y,1/2+z
1/2+x,1/2+y,z
1/2-x,1/2+y,1/2-z
1/2-x,1/2-y,-z
1/2+x,1/2-y,1/2+z
loop_
_atom_site_type_symbol
_atom_site_label
_atom_site_fract_x
_atom_site_fract_y
_atom_site_fract_z
Si Si1 0.322230 0.380658 0.794657
Si Si2 0.356686 0.946570 0.185670
Si Si3 0.083292 0.363517 0.649555
Si Si4 0.500000 0.976281 0.750000
Si Si5 0.846664 0.297072 0.112992
Si Si6 0.000000 0.077912 0.250000
Si Si7 0.798846 0.102394 0.700367
O O1 0.193528 0.417411 0.518166
O O2 0.244139 0.368427 0.803558
O O3 0.298764 0.333721 0.676134
O O4 0.525839 0.401299 0.111025
O O5 0.471489 0.911830 0.454881
O O6 0.472244 0.990494 0.323763
O O7 0.155942 0.952689 0.929444
O O8 0.950988 0.322555 0.392081
O O9 0.165459 0.361943 0.916866
O O10 0.319367 0.944139 0.466282
O O11 0.000000 0.289774 0.250000
O O12 0.750000 0.250000 0.000000
O O13 0.105444 0.110355 0.516150
#
# Coordination Sequence:
#
# PCOD9267870 Si02
#       7
#     8   8   8   4   8   4   8
#     4   9  19  40  65  91 130 168 214 258 329 392
#     4  10  20  42  61  87 124 172 218 273 323 381
#     4  10  19  40  68  90 132 170 215 258 335 389
#     4  12  24  42  62  92 129 172 229 278 324 386
#     4   9  19  40  70 105 130 170 206 253 325 409
#     4  10  24  40  56  84 125 164 231 272 330 376
#     4  11  24  38  58  92 124 174 217 272 321 375
#
# _framework density 21.235524999999999
#
# number of rings (size 3 to 8) (size 9 to 14) (size 15 to 20)
#    0.000    2.000    1.667    2.500    0.000    5.333 
#   19.500    0.833    0.000    0.000    0.000    0.000 
#    0.000    0.000    0.000    0.000    0.000    0.000 
#
# Total GULP energy -133933.693403 kJ/mol
# GULP energy per Si atom -5580.570558 kJ/mol
# Density = 2.118719 g / cm^3
# Si number density = 21.235525 Si / 1000 Ang^3
#
#
#
# Elastic Constant Matrix: (Units=GPa)
#
#
# Indices 1 2 3 4 5 6 
#
# 1 103.5981 46.9903 54.3465 0.0000 15.4611 0.0000
# 2 46.9903 104.5671 49.2541 0.0000 18.9045 0.0000
# 3 54.3465 49.2541 122.2114 -0.0001 -1.5644 0.0000
# 4 0.0000 0.0000 -0.0001 19.5704 0.0000 16.2546
# 5 15.4611 18.9045 -1.5644 0.0000 58.4880 0.0000
# 6 0.0000 0.0000 0.0000 16.2546 0.0000 32.6874
#
#
#
# Elastic Compliance Matrix: (Units=1/GPa)
#
#
# Indices 1 2 3 4 5 6 
#
# 1 0.014284 -0.003597 -0.004938 0.000000 -0.002745 0.000000
# 2 -0.003597 0.013695 -0.003966 0.000000 -0.003582 0.000000
# 3 -0.004938 -0.003966 0.012014 0.000000 0.002908 0.000000
# 4 0.000000 0.000000 0.000000 0.087051 0.000000 -0.043288
# 5 -0.002745 -0.003582 0.002908 0.000000 0.019059 0.000000
# 6 0.000000 0.000000 0.000000 -0.043288 0.000000 0.052119
#
#
# Mechanical properties :
#
#
# Convention : Reuss Voigt Hill
#
# Bulk Modulus (GPa) = 66.69994 70.17318 68.43656
# Shear Modulus (GPa) = 21.90866 34.13487 28.02177
#
# Velocity S-wave (km/s) = 3.21549 4.01364 3.63653
# Velocity P-wave (km/s) = 6.72783 7.38891 7.06610
#
# Compressibility (1/GPa) = 0.01499252
#
# Stress axis : x y z
#
# Youngs Moduli (GPa) = 70.00790 73.01846 83.23779
#
# Poissons Ratio (x) = 0.26264 0.41099
# Poissons Ratio (y) = 0.25181 0.33010
# Poissons Ratio (z) = 0.34567 0.28958
#
# Static dielectric constant tensor:
#      x y z
#    x 1.854500 0.000000 -0.016230 
#    y 0.000000 1.723160 0.000000 
#    z -0.016230 0.000000 1.818270 
# 
# From -- ./inp_files/115076.got.cif
#   From: 2010.05.17/outbox.cif.g08.bks.cpg/sg15_58_cif.got.tgz:115076.got - 2010.06.03 18:47:42.
