data_PCOD9267532
_publ_section_title
;
Structure prediction by ZEFSAII (Michael W. Deem and Ramdas Pophale) SiO2 
 PCOD9267532
Probable space group: C 2/C
;
_chemical_formula_sum "Si O2"
_cell_formula_units_Z 64
_cell_length_a 23.012239
_cell_length_b 8.733781
_cell_length_c 18.893031
_cell_angle_alpha 90.000000
_cell_angle_beta 55.042325
_cell_angle_gamma 90.000000
_cell_volume 3112.087454
_symmetry_space_group_name_H-M "C 2/C"
_symmetry_group_IT_number 15
_symmetry_cell_setting 'monoclinic'
loop_
_space_group_symop_operation_xyz
x,y,z
-x,y,1/2-z
-x,-y,-z
x,-y,1/2+z
1/2+x,1/2+y,z
1/2-x,1/2+y,1/2-z
1/2-x,1/2-y,-z
1/2+x,1/2-y,1/2+z
loop_
_atom_site_type_symbol
_atom_site_label
_atom_site_fract_x
_atom_site_fract_y
_atom_site_fract_z
Si Si1 0.299350 0.886892 0.624552
Si Si2 0.014540 0.216071 0.655386
Si Si3 0.124113 0.248293 0.056576
Si Si4 0.117794 0.623801 0.289129
Si Si5 0.659146 0.797429 0.196661
Si Si6 0.728422 0.685976 0.629383
Si Si7 0.331174 0.396662 0.479818
Si Si8 0.478973 0.378099 0.681519
O O1 0.342813 0.863225 0.522178
O O2 0.349812 0.865076 0.655818
O O3 0.235549 0.764190 0.665849
O O4 0.265286 0.055220 0.649361
O O5 0.097820 0.205901 0.579944
O O6 0.000000 0.228420 0.750000
O O7 0.966095 0.345702 0.654629
O O8 0.986580 0.050128 0.648827
O O9 0.149285 0.289905 0.118328
O O10 0.038987 0.235533 0.110455
O O11 0.149432 0.073904 0.022973
O O12 0.139731 0.463864 0.238642
O O13 0.157312 0.752612 0.214704
O O14 0.599605 0.683563 0.269069
O O15 0.709252 0.613031 0.566844
O O16 0.781760 0.825171 0.574677
O O17 0.500000 0.388810 0.750000
#
# Coordination Sequence:
#
# PCOD9267532 Si02
#       8
#     8   8   8   8   8   8   8   8
#     4  12  25  41  61  91 132 169 204 259 320 379
#     4  10  19  39  65  91 121 164 211 258 307 371
#     4  10  21  41  66  94 119 162 214 259 307 374
#     4  12  26  40  60  94 131 167 205 258 324 375
#     4  11  22  39  63  91 124 166 212 256 308 376
#     4  11  23  39  62  91 126 160 208 258 309 372
#     4  10  21  39  67  95 115 157 215 266 303 359
#     4   8  18  37  63  90 118 154 212 264 304 356
#
# _framework density 20.564975
#
# number of rings (size 3 to 8) (size 9 to 14) (size 15 to 20)
#    0.000    1.500    2.500    3.375    3.500    2.500 
#    0.000    7.500    0.000    0.000    0.000    0.000 
#    0.000    0.000    0.000    0.000    0.000    0.000 
#
# Total GULP energy -178871.055990 kJ/mol
# GULP energy per Si atom -5589.720500 kJ/mol
# Density = 2.051817 g / cm^3
# Si number density = 20.564975 Si / 1000 Ang^3
#
#
#
# Elastic Constant Matrix: (Units=GPa)
#
#
# Indices 1 2 3 4 5 6 
#
# 1 91.0924 16.5774 21.1004 0.0002 -4.6192 0.0000
# 2 16.5774 34.0915 6.5146 0.0005 12.2982 -0.0002
# 3 21.1004 6.5146 38.0434 0.0000 -14.2784 -0.0001
# 4 0.0002 0.0005 0.0000 19.0493 -0.0001 -8.4564
# 5 -4.6192 12.2982 -14.2784 -0.0001 19.3035 0.0000
# 6 0.0000 -0.0002 -0.0001 -8.4564 0.0000 18.4705
#
#
#
# Elastic Compliance Matrix: (Units=1/GPa)
#
#
# Indices 1 2 3 4 5 6 
#
# 1 0.013616 -0.007419 -0.004547 0.000000 0.004622 0.000000
# 2 -0.007419 0.061553 -0.030192 -0.000002 -0.063323 0.000000
# 3 -0.004547 -0.030192 0.056464 0.000001 0.059912 0.000001
# 4 0.000000 -0.000002 0.000001 0.065886 0.000003 0.030165
# 5 0.004622 -0.063323 0.059912 0.000003 0.137569 0.000001
# 6 0.000000 0.000000 0.000001 0.030165 0.000001 0.067951
#
#
# Mechanical properties :
#
#
# Convention : Reuss Voigt Hill
#
# Bulk Modulus (GPa) = 21.13389 27.95689 24.54539
# Shear Modulus (GPa) = 9.93787 19.30030 14.61908
#
# Velocity S-wave (km/s) = 2.20066 3.06682 2.66911
# Velocity P-wave (km/s) = 4.09343 5.11512 4.63253
#
# Compressibility (1/GPa) = 0.04731737
#
# Stress axis : x y z
#
# Youngs Moduli (GPa) = 73.44527 16.24617 17.71047
#
# Poissons Ratio (x) = 0.12053 0.08052
# Poissons Ratio (y) = 0.54490 0.53471
# Poissons Ratio (z) = 0.33393 0.49050
#
# Static dielectric constant tensor:
#      x y z
#    x 1.704360 0.000000 -0.018150 
#    y 0.000000 1.741420 0.000000 
#    z -0.018150 0.000000 1.740050 
# 
# From -- ./inp_files/255044.got.cif
#   From: 2010.05.17/outbox.cif.g08.bks.cpg/sg15_128_cif.got.tgz:255044.got - 2010.06.03 18:47:42.
