data_PCOD9267133
_publ_section_title
;
Structure prediction by ZEFSAII (Michael W. Deem and Ramdas Pophale) SiO2 
 PCOD9267133
Probable space group: C 2/C
;
_chemical_formula_sum "Si O2"
_cell_formula_units_Z 56
_cell_length_a 12.590491
_cell_length_b 24.644123
_cell_length_c 8.892977
_cell_angle_alpha 90.000000
_cell_angle_beta 58.180770
_cell_angle_gamma 90.000000
_cell_volume 2344.643886
_symmetry_space_group_name_H-M "C 2/C"
_symmetry_group_IT_number 15
_symmetry_cell_setting 'monoclinic'
loop_
_space_group_symop_operation_xyz
x,y,z
-x,y,1/2-z
-x,-y,-z
x,-y,1/2+z
1/2+x,1/2+y,z
1/2-x,1/2+y,1/2-z
1/2-x,1/2-y,-z
1/2+x,1/2-y,1/2+z
loop_
_atom_site_type_symbol
_atom_site_label
_atom_site_fract_x
_atom_site_fract_y
_atom_site_fract_z
Si Si1 0.263985 0.188011 0.444468
Si Si2 0.500000 0.863968 0.250000
Si Si3 0.364661 0.465917 0.399685
Si Si4 0.907966 0.833868 0.015724
Si Si5 0.818667 0.391310 0.138120
Si Si6 0.377762 0.575300 0.222426
Si Si7 0.500000 0.317505 0.250000
Si Si8 0.226544 0.325470 0.909808
O O1 0.250000 0.250000 0.500000
O O2 0.355442 0.153037 0.481376
O O3 0.283750 0.192151 0.253408
O O4 0.131675 0.159293 0.588419
O O5 0.431913 0.898480 0.169811
O O6 0.398934 0.825189 0.403715
O O7 0.500000 0.441136 0.250000
O O8 0.247155 0.441426 0.397381
O O9 0.379456 0.528991 0.348064
O O10 0.356175 0.455853 0.582734
O O11 0.791389 0.865541 0.176894
O O12 0.956568 0.796144 0.116699
O O13 0.844702 0.804308 0.920401
O O14 0.010619 0.880031 0.893901
O O15 0.262169 0.611641 0.357401
#
# Coordination Sequence:
#
# PCOD9267133 Si02
#       8
#     8   4   8   8   8   8   4   8
#     4  11  24  43  71 102 133 179 228 288 358 414
#     4  10  26  44  70  88 129 199 228 284 330 406
#     4  12  23  36  64 105 142 173 221 290 362 425
#     4  10  19  38  65  97 138 175 213 285 354 416
#     4  10  22  44  64  91 142 176 232 282 343 413
#     4  12  23  37  64 107 140 176 223 286 366 418
#     4  10  20  40  66 104 141 171 216 288 358 408
#     4  11  23  43  67  98 135 182 239 281 344 404
#
# _framework density 23.884222999999999
#
# number of rings (size 3 to 8) (size 9 to 14) (size 15 to 20)
#    0.000    1.143    4.286    2.571    5.000    1.714 
#    0.000    8.571    0.000    0.000    0.000    0.000 
#    0.000    0.000    0.000    0.000    0.000    0.000 
#
# Total GULP energy -156037.682495 kJ/mol
# GULP energy per Si atom -5572.774375 kJ/mol
# Density = 2.382986 g / cm^3
# Si number density = 23.884223 Si / 1000 Ang^3
#
#
#
# Elastic Constant Matrix: (Units=GPa)
#
#
# Indices 1 2 3 4 5 6 
#
# 1 138.0679 35.9809 62.9917 0.0000 25.3775 0.0000
# 2 35.9809 95.6062 32.4073 0.0000 5.9266 0.0000
# 3 62.9917 32.4073 150.6062 0.0000 31.3751 0.0000
# 4 0.0000 0.0000 0.0000 -8.2426 0.0000 -14.5177
# 5 25.3775 5.9266 31.3751 0.0000 46.7589 0.0000
# 6 0.0000 0.0000 0.0000 -14.5177 0.0000 6.6283
#
#
#
# Elastic Compliance Matrix: (Units=1/GPa)
#
#
# Indices 1 2 3 4 5 6 
#
# 1 0.009786 -0.002504 -0.002922 0.000000 -0.003033 0.000000
# 2 -0.002504 0.011926 -0.001729 0.000000 0.001008 0.000000
# 3 -0.002922 -0.001729 0.009135 0.000000 -0.004324 0.000000
# 4 0.000000 0.000000 0.000000 -0.024975 0.000000 -0.054702
# 5 -0.003033 0.001008 -0.004324 0.000000 0.025806 0.000000
# 6 0.000000 0.000000 0.000000 -0.054702 0.000000 0.031057
#
#
# Mechanical properties :
#
#
# Convention : Reuss Voigt Hill
#
# Bulk Modulus (GPa) = 60.47386 71.89334 66.18360
# Shear Modulus (GPa) = 60.56345 25.88897 43.22621
#
# Velocity S-wave (km/s) = 5.04105 3.29589 4.25882
# Velocity P-wave (km/s) = 7.69788 6.68206 7.20789
#
# Compressibility (1/GPa) = 0.01653607
#
# Stress axis : x y z
#
# Youngs Moduli (GPa) = 102.18423 83.85360 109.46950
#
# Poissons Ratio (x) = 0.21000 0.31991
# Poissons Ratio (y) = 0.25591 0.18922
# Poissons Ratio (z) = 0.29862 0.14494
#
# Static dielectric constant tensor:
#      x y z
#    x 2.103870 0.000000 0.033410 
#    y 0.000000 1.983650 0.000000 
#    z 0.033410 0.000000 1.946590 
# 
# From -- ./inp_files/35631.got.cif
#   From: 2010.05.17/outbox.cif.g08.bks.cpg/sg15_18_cif.got.tgz:35631.got - 2010.06.03 18:47:42.
