data_PCOD9267220
_publ_section_title
;
Structure prediction by ZEFSAII (Michael W. Deem and Ramdas Pophale) SiO2 
 PCOD9267220
Probable space group: C 2/C
;
_chemical_formula_sum "Si O2"
_cell_formula_units_Z 56
_cell_length_a 19.559443
_cell_length_b 8.998811
_cell_length_c 14.727076
_cell_angle_alpha 90.000000
_cell_angle_beta 64.068131
_cell_angle_gamma 90.000000
_cell_volume 2331.147885
_symmetry_space_group_name_H-M "C 2/C"
_symmetry_group_IT_number 15
_symmetry_cell_setting 'monoclinic'
loop_
_space_group_symop_operation_xyz
x,y,z
-x,y,1/2-z
-x,-y,-z
x,-y,1/2+z
1/2+x,1/2+y,z
1/2-x,1/2+y,1/2-z
1/2-x,1/2-y,-z
1/2+x,1/2-y,1/2+z
loop_
_atom_site_type_symbol
_atom_site_label
_atom_site_fract_x
_atom_site_fract_y
_atom_site_fract_z
Si Si1 0.525741 0.940296 0.642860
Si Si2 0.198824 0.790437 0.774612
Si Si3 0.327065 0.386668 0.282949
Si Si4 0.680815 0.465876 0.534935
Si Si5 0.453200 0.827252 0.060233
Si Si6 0.427881 0.394946 0.054684
Si Si7 0.333928 0.867907 0.385184
O O1 0.500000 0.856461 0.750000
O O2 0.461637 0.031434 0.622401
O O3 0.585435 0.055688 0.651797
O O4 0.564343 0.856754 0.535632
O O5 0.265425 0.742276 0.803811
O O6 0.208906 0.953328 0.726205
O O7 0.113421 0.774040 0.861610
O O8 0.199611 0.666232 0.694611
O O9 0.347406 0.415151 0.375674
O O10 0.397273 0.364504 0.173355
O O11 0.639807 0.468341 0.462684
O O12 0.661702 0.298642 0.578573
O O13 0.771470 0.466238 0.473206
O O14 0.537323 0.755210 0.008169
O O15 0.500000 0.500000 0.000000
#
# Coordination Sequence:
#
# PCOD9267220 Si02
#       7
#     8   8   8   8   8   8   8
#     4  11  22  39  64  99 134 178 224 286 334 406
#     4  11  22  43  69 100 134 180 227 287 342 406
#     4  11  25  43  71 100 134 181 233 285 343 408
#     4  10  22  40  66  97 125 176 223 279 326 409
#     4  11  24  40  66  97 138 178 225 283 341 400
#     4  12  24  45  65  95 138 179 227 274 341 415
#     4  10  19  38  68  93 127 168 232 273 331 400
#
# _framework density 24.022500000000001
#
# number of rings (size 3 to 8) (size 9 to 14) (size 15 to 20)
#    0.000    1.143    5.714    0.857    0.000    2.857 
#    2.571    0.714    0.000    0.000    0.000    0.000 
#    0.000    0.000    0.000    0.000    0.000    0.000 
#
# Total GULP energy -156394.052233 kJ/mol
# GULP energy per Si atom -5585.501865 kJ/mol
# Density = 2.396782 g / cm^3
# Si number density = 24.022500 Si / 1000 Ang^3
#
#
#
# Elastic Constant Matrix: (Units=GPa)
#
#
# Indices 1 2 3 4 5 6 
#
# 1 52.7086 5.9755 13.2848 0.0000 2.7609 0.0000
# 2 5.9755 30.9509 -2.8584 0.0000 2.9161 0.0000
# 3 13.2848 -2.8584 118.5414 0.0000 13.0024 0.0000
# 4 0.0000 0.0000 0.0000 32.5679 0.0000 3.1699
# 5 2.7609 2.9161 13.0024 0.0000 41.8406 0.0000
# 6 0.0000 0.0000 0.0000 3.1699 0.0000 26.5340
#
#
#
# Elastic Compliance Matrix: (Units=1/GPa)
#
#
# Indices 1 2 3 4 5 6 
#
# 1 0.020030 -0.004050 -0.002307 0.000000 -0.000323 0.000000
# 2 -0.004050 0.033473 0.001540 0.000000 -0.002544 0.000000
# 3 -0.002307 0.001540 0.009035 0.000000 -0.002763 0.000000
# 4 0.000000 0.000000 0.000000 0.031066 0.000000 -0.003711
# 5 -0.000323 -0.002544 -0.002763 0.000000 0.024957 0.000000
# 6 0.000000 0.000000 0.000000 -0.003711 0.000000 0.038131
#
#
# Mechanical properties :
#
#
# Convention : Reuss Voigt Hill
#
# Bulk Modulus (GPa) = 18.90214 26.11164 22.50689
# Shear Modulus (GPa) = 27.17988 32.57511 29.87750
#
# Velocity S-wave (km/s) = 3.36733 3.68642 3.53048
# Velocity P-wave (km/s) = 4.79626 5.38636 5.09985
#
# Compressibility (1/GPa) = 0.05290405
#
# Stress axis : x y z
#
# Youngs Moduli (GPa) = 49.92587 29.87486 110.68594
#
# Poissons Ratio (x) = 0.12098 0.25535
# Poissons Ratio (y) = 0.20218 -0.17046
# Poissons Ratio (z) = 0.11518 -0.04601
#
# Static dielectric constant tensor:
#      x y z
#    x 1.878550 0.000000 0.015950 
#    y 0.000000 1.981930 0.000000 
#    z 0.015950 0.000000 1.982170 
# 
# From -- ./inp_files/160833.got.cif
#   From: 2010.05.17/outbox.cif.g08.bks.cpg/sg15_81_cif.got.tgz:160833.got - 2010.06.03 18:47:42.
