data_PCOD9267469
_publ_section_title
;
Structure prediction by ZEFSAII (Michael W. Deem and Ramdas Pophale) SiO2 
 PCOD9267469
Probable space group: C 2/C
;
_chemical_formula_sum "Si O2"
_cell_formula_units_Z 64
_cell_length_a 26.580499
_cell_length_b 7.360116
_cell_length_c 14.832555
_cell_angle_alpha 90.000000
_cell_angle_beta 97.906237
_cell_angle_gamma 90.000000
_cell_volume 2874.192308
_symmetry_space_group_name_H-M "C 2/C"
_symmetry_group_IT_number 15
_symmetry_cell_setting 'monoclinic'
loop_
_space_group_symop_operation_xyz
x,y,z
-x,y,1/2-z
-x,-y,-z
x,-y,1/2+z
1/2+x,1/2+y,z
1/2-x,1/2+y,1/2-z
1/2-x,1/2-y,-z
1/2+x,1/2-y,1/2+z
loop_
_atom_site_type_symbol
_atom_site_label
_atom_site_fract_x
_atom_site_fract_y
_atom_site_fract_z
Si Si1 0.099849 0.571870 0.941752
Si Si2 0.928304 0.171378 0.800945
Si Si3 0.379416 0.492843 0.030558
Si Si4 0.657211 0.079773 0.125594
Si Si5 0.792226 0.924284 0.377425
Si Si6 0.839924 0.016161 0.209243
Si Si7 0.683500 0.074086 0.819170
Si Si8 0.965315 0.257399 0.607799
O O1 0.102978 0.792993 0.953350
O O2 0.133813 0.521899 0.863195
O O3 0.046296 0.467716 0.919852
O O4 0.128953 0.489509 0.035403
O O5 0.886711 0.300787 0.836288
O O6 0.947027 0.234701 0.707309
O O7 0.977348 0.183191 0.876641
O O8 0.895960 0.988493 0.771144
O O9 0.350446 0.430719 0.114751
O O10 0.429216 0.369664 0.038347
O O11 0.338164 0.479049 0.941110
O O12 0.699327 0.214322 0.093929
O O13 0.680486 0.971689 0.213294
O O14 0.735621 0.993677 0.376458
O O15 0.803141 0.926354 0.272804
O O16 0.817258 0.209326 0.180784
#
# Coordination Sequence:
#
# PCOD9267469 Si02
#       8
#     8   8   8   8   8   8   8   8
#     4  10  22  38  59  86 119 152 198 239 295 351
#     4   9  19  39  61  83 117 155 192 243 305 343
#     4   9  21  39  58  86 124 151 198 246 286 359
#     4  10  21  38  56  85 121 148 198 252 285 356
#     4  10  21  37  59  84 119 159 195 242 303 345
#     4   9  20  37  57  84 119 153 198 244 289 360
#     4  11  21  37  59  87 118 157 198 243 296 356
#     4  10  19  39  64  85 117 159 190 247 302 347
#
# _framework density 22.267123999999999
#
# number of rings (size 3 to 8) (size 9 to 14) (size 15 to 20)
#    0.000    2.250    1.250    0.750    1.750    6.000 
#    2.250    7.500    0.000    0.000    0.000    0.000 
#    0.000    0.000    0.000    0.000    0.000    0.000 
#
# Total GULP energy -178273.111443 kJ/mol
# GULP energy per Si atom -5571.034733 kJ/mol
# Density = 2.221644 g / cm^3
# Si number density = 22.267124 Si / 1000 Ang^3
#
#
#
# Elastic Constant Matrix: (Units=GPa)
#
#
# Indices 1 2 3 4 5 6 
#
# 1 68.9980 6.5199 1.0833 0.0000 22.0610 0.0000
# 2 6.5199 34.3229 -7.0154 0.0000 8.8458 0.0000
# 3 1.0833 -7.0154 64.1402 0.0000 9.5347 0.0000
# 4 0.0000 0.0000 0.0000 27.5779 0.0000 1.5760
# 5 22.0610 8.8458 9.5347 0.0000 30.8293 0.0000
# 6 0.0000 0.0000 0.0000 1.5760 0.0000 18.9517
#
#
#
# Elastic Compliance Matrix: (Units=1/GPa)
#
#
# Indices 1 2 3 4 5 6 
#
# 1 0.018991 0.000455 0.001854 0.000000 -0.014294 0.000000
# 2 0.000455 0.033090 0.005316 0.000000 -0.011464 0.000000
# 3 0.001854 0.005316 0.017363 0.000000 -0.008222 0.000000
# 4 0.000000 0.000000 0.000000 0.036434 0.000000 -0.003030
# 5 -0.014294 -0.011464 -0.008222 0.000000 0.048497 0.000000
# 6 0.000000 0.000000 0.000000 -0.003030 0.000000 0.053018
#
#
# Mechanical properties :
#
#
# Convention : Reuss Voigt Hill
#
# Bulk Modulus (GPa) = 11.80728 18.73742 15.27235
# Shear Modulus (GPa) = 22.68863 26.59667 24.64265
#
# Velocity S-wave (km/s) = 3.19553 3.45981 3.33029
# Velocity P-wave (km/s) = 4.35078 4.93898 4.65418
#
# Compressibility (1/GPa) = 0.08469351
#
# Stress axis : x y z
#
# Youngs Moduli (GPa) = 52.65579 30.22099 57.59323
#
# Poissons Ratio (x) = -0.01376 -0.10677
# Poissons Ratio (y) = -0.02397 -0.30615
# Poissons Ratio (z) = -0.09762 -0.16065
#
# Static dielectric constant tensor:
#      x y z
#    x 1.834020 0.000000 0.000840 
#    y 0.000000 1.867460 0.000000 
#    z 0.000840 0.000000 1.864830 
# 
# From -- ./inp_files/176650.got.cif
#   From: 2010.05.17/outbox.cif.g08.bks.cpg/sg15_89_cif.got.tgz:176650.got - 2010.06.03 18:47:42.
