data_PCOD9267742
_publ_section_title
;
Structure prediction by ZEFSAII (Michael W. Deem and Ramdas Pophale) SiO2 
 PCOD9267742
Probable space group: C 2/C
;
_chemical_formula_sum "Si O2"
_cell_formula_units_Z 48
_cell_length_a 18.727989
_cell_length_b 8.814185
_cell_length_c 25.891510
_cell_angle_alpha 90.000000
_cell_angle_beta 146.703700
_cell_angle_gamma 90.000000
_cell_volume 2346.272136
_symmetry_space_group_name_H-M "C 2/C"
_symmetry_group_IT_number 15
_symmetry_cell_setting 'monoclinic'
loop_
_space_group_symop_operation_xyz
x,y,z
-x,y,1/2-z
-x,-y,-z
x,-y,1/2+z
1/2+x,1/2+y,z
1/2-x,1/2+y,1/2-z
1/2-x,1/2-y,-z
1/2+x,1/2-y,1/2+z
loop_
_atom_site_type_symbol
_atom_site_label
_atom_site_fract_x
_atom_site_fract_y
_atom_site_fract_z
Si Si1 0.578290 0.159481 0.045459
Si Si2 0.294334 0.483592 0.127680
Si Si3 0.125804 0.572639 0.185006
Si Si4 0.384499 0.277863 0.852540
Si Si5 0.874049 0.277061 0.539060
Si Si6 0.000899 0.002560 0.161601
O O1 0.617662 0.177854 0.128372
O O2 0.706255 0.126369 0.089562
O O3 0.487974 0.276855 0.961557
O O4 0.500000 0.000000 0.000000
O O5 0.384609 0.523374 0.133042
O O6 0.382684 0.444923 0.230628
O O7 0.194775 0.348267 0.052800
O O8 0.254009 0.634042 0.289775
O O9 0.141627 0.398233 0.177909
O O10 0.983701 0.601389 0.123720
O O11 0.446124 0.357043 0.839148
O O12 0.750000 0.250000 0.500000
O O13 0.950842 0.119667 0.589843
#
# Coordination Sequence:
#
# PCOD9267742 Si02
#       6
#     8   8   8   8   8   8
#     4  10  20  37  62  85 117 161 200 246 308 356
#     4  10  19  40  63  87 123 167 197 253 307 366
#     4  11  22  38  63  88 124 156 206 254 310 362
#     4  11  22  39  64  94 118 163 209 255 305 369
#     4  10  21  38  61  93 120 164 203 246 308 368
#     4  10  22  37  66  90 122 163 210 244 308 370
#
# _framework density 20.457985000000001
#
# number of rings (size 3 to 8) (size 9 to 14) (size 15 to 20)
#    0.000    1.667    5.000    1.000    2.333    0.667 
#    0.000    5.000    0.000    2.000    0.000    0.000 
#    0.000    0.000    0.000    0.000    0.000    0.000 
#
# Total GULP energy -133721.892009 kJ/mol
# GULP energy per Si atom -5571.745500 kJ/mol
# Density = 2.041142 g / cm^3
# Si number density = 20.457985 Si / 1000 Ang^3
#
#
#
# Elastic Constant Matrix: (Units=GPa)
#
#
# Indices 1 2 3 4 5 6 
#
# 1 89.8127 31.4451 31.4979 0.0000 9.3894 0.0000
# 2 31.4451 67.2949 37.4225 0.0000 6.7839 0.0000
# 3 31.4979 37.4225 132.8729 0.0000 8.8053 0.0000
# 4 0.0000 0.0000 0.0000 37.6967 0.0000 -0.7628
# 5 9.3894 6.7839 8.8053 0.0000 34.5410 0.0000
# 6 0.0000 0.0000 0.0000 -0.7628 0.0000 30.3594
#
#
#
# Elastic Compliance Matrix: (Units=1/GPa)
#
#
# Indices 1 2 3 4 5 6 
#
# 1 0.013805 -0.005317 -0.001623 0.000000 -0.002295 0.000000
# 2 -0.005317 0.019838 -0.004236 0.000000 -0.001371 0.000000
# 3 -0.001623 -0.004236 0.009174 0.000000 -0.001066 0.000000
# 4 0.000000 0.000000 0.000000 0.026541 0.000000 0.000667
# 5 -0.002295 -0.001371 -0.001066 0.000000 0.030116 0.000000
# 6 0.000000 0.000000 0.000000 0.000667 0.000000 0.032955
#
#
# Mechanical properties :
#
#
# Convention : Reuss Voigt Hill
#
# Bulk Modulus (GPa) = 48.86192 54.52352 51.69272
# Shear Modulus (GPa) = 30.93995 33.16043 32.05019
#
# Velocity S-wave (km/s) = 3.89313 4.03041 3.96237
# Velocity P-wave (km/s) = 6.64414 6.95473 6.80121
#
# Compressibility (1/GPa) = 0.02046584
#
# Stress axis : x y z
#
# Youngs Moduli (GPa) = 72.43818 50.40775 108.99912
#
# Poissons Ratio (x) = 0.26801 0.17690
# Poissons Ratio (y) = 0.38514 0.46172
# Poissons Ratio (z) = 0.11757 0.21353
#
# Static dielectric constant tensor:
#      x y z
#    x 1.793350 0.000000 0.020340 
#    y 0.000000 1.718480 0.000000 
#    z 0.020340 0.000000 1.795260 
# 
# From -- ./inp_files/300549.got.cif
#   From: 2010.05.17/outbox.cif.g08.bks.cpg/sg15_151_cif.got.tgz:300549.got - 2010.06.03 18:47:42.
