data_PCOD9267590
_publ_section_title
;
Structure prediction by ZEFSAII (Michael W. Deem and Ramdas Pophale) SiO2 
 PCOD9267590
Probable space group: C 2/C
;
_chemical_formula_sum "Si O2"
_cell_formula_units_Z 56
_cell_length_a 9.695482
_cell_length_b 27.828409
_cell_length_c 21.015200
_cell_angle_alpha 90.000000
_cell_angle_beta 32.623303
_cell_angle_gamma 90.000000
_cell_volume 3056.830924
_symmetry_space_group_name_H-M "C 2/C"
_symmetry_group_IT_number 15
_symmetry_cell_setting 'monoclinic'
loop_
_space_group_symop_operation_xyz
x,y,z
-x,y,1/2-z
-x,-y,-z
x,-y,1/2+z
1/2+x,1/2+y,z
1/2-x,1/2+y,1/2-z
1/2-x,1/2-y,-z
1/2+x,1/2-y,1/2+z
loop_
_atom_site_type_symbol
_atom_site_label
_atom_site_fract_x
_atom_site_fract_y
_atom_site_fract_z
Si Si1 0.140532 0.167965 0.760417
Si Si2 0.524948 0.780918 0.813496
Si Si3 0.287663 0.130491 0.948369
Si Si4 0.203859 0.477208 0.109905
Si Si5 0.981463 0.573836 0.333747
Si Si6 0.422602 0.656450 0.979855
Si Si7 0.912855 0.141328 0.211473
O O1 0.102165 0.225534 0.781358
O O2 0.431813 0.151215 0.649003
O O3 0.000000 0.153086 0.750000
O O4 0.018026 0.147686 0.872061
O O5 0.500000 0.798266 0.750000
O O6 0.740825 0.811847 0.764205
O O7 0.252640 0.795881 0.948919
O O8 0.284260 0.074419 0.928467
O O9 0.146251 0.157890 0.945106
O O10 0.133148 0.138752 0.073298
O O11 0.000000 0.470686 0.250000
O O12 0.071930 0.520256 0.122216
O O13 0.500000 0.500000 0.000000
O O14 0.231666 0.596166 0.267093
O O15 0.000000 0.571462 0.250000
O O16 0.755573 0.611362 0.433930
O O17 0.000000 0.141481 0.250000
#
# Coordination Sequence:
#
# PCOD9267590 Si02
#       7
#     8   8   8   8   8   8   8
#     4  11  27  40  57  94 134 167 201 260 338 375
#     4  10  21  44  65  87 118 166 218 263 309 380
#     4  12  23  41  64  96 126 162 216 270 313 382
#     4  11  21  38  68 102 127 165 223 273 318 377
#     4  10  19  39  67  93 123 158 216 263 310 376
#     4  11  19  40  67  87 122 163 214 262 310 373
#     4  11  23  40  65  93 124 164 212 265 318 380
#
# _framework density 18.319626
#
# number of rings (size 3 to 8) (size 9 to 14) (size 15 to 20)
#    0.000    1.143    4.286    3.429    4.000    1.714 
#    0.000    1.429    0.000    0.000    0.000    0.000 
#    0.000    0.000    0.000    0.000    0.000    0.000 
#
# Total GULP energy -156119.461900 kJ/mol
# GULP energy per Si atom -5575.695068 kJ/mol
# Density = 1.827793 g / cm^3
# Si number density = 18.319626 Si / 1000 Ang^3
#
#
#
# Elastic Constant Matrix: (Units=GPa)
#
#
# Indices 1 2 3 4 5 6 
#
# 1 156.7419 48.6207 85.9479 0.0000 3.5633 -0.0002
# 2 48.6207 84.2134 25.3097 -0.0001 -19.0093 0.0000
# 3 85.9479 25.3097 128.0264 0.0020 -12.2060 0.0023
# 4 0.0000 -0.0001 0.0020 14.0596 0.0000 -11.6229
# 5 3.5633 -19.0093 -12.2060 0.0000 30.0424 0.0001
# 6 -0.0002 0.0000 0.0023 -11.6229 0.0001 5.7140
#
#
#
# Elastic Compliance Matrix: (Units=1/GPa)
#
#
# Indices 1 2 3 4 5 6 
#
# 1 0.013679 -0.007536 -0.008637 -0.000007 -0.009900 -0.000010
# 2 -0.007536 0.018505 0.002708 0.000003 0.013703 0.000004
# 3 -0.008637 0.002708 0.013872 0.000010 0.008374 0.000015
# 4 -0.000007 0.000003 0.000010 -0.104358 0.000008 -0.212275
# 5 -0.009900 0.013703 0.008374 0.000008 0.046533 0.000011
# 6 -0.000010 0.000004 0.000015 -0.212275 0.000011 -0.256778
#
#
# Mechanical properties :
#
#
# Convention : Reuss Voigt Hill
#
# Bulk Modulus (GPa) = 52.28887 76.52647 64.40767
# Shear Modulus (GPa) = -21.25480 23.90343 1.32431
#
# Velocity S-wave (km/s) = -3.40990 3.61612 0.85115
# Velocity P-wave (km/s) = 3.61957 7.70057 6.01664
#
# Compressibility (1/GPa) = 0.01912453
#
# Stress axis : x y z
#
# Youngs Moduli (GPa) = 73.10631 54.03895 72.08659
#
# Poissons Ratio (x) = 0.40726 0.62261
# Poissons Ratio (y) = 0.55096 -0.19518
# Poissons Ratio (z) = 0.63141 -0.14631
#
# Static dielectric constant tensor:
#      x y z
#    x 1.680240 0.000000 0.210440 
#    y 0.000000 1.642850 0.000010 
#    z 0.210440 0.000010 2.255950 
# 
# From -- ./inp_files/139584.got.cif
#   From: 2010.05.17/outbox.cif.g08.bks.cpg/sg15_70_cif.got.tgz:139584.got - 2010.06.03 18:47:42.
