data_PCOD9267926
_publ_section_title
;
Structure prediction by ZEFSAII (Michael W. Deem and Ramdas Pophale) SiO2 
 PCOD9267926
Probable space group: C 2/C
;
_chemical_formula_sum "Si O2"
_cell_formula_units_Z 48
_cell_length_a 12.052757
_cell_length_b 21.972284
_cell_length_c 9.388973
_cell_angle_alpha 90.000000
_cell_angle_beta 132.302806
_cell_angle_gamma 90.000000
_cell_volume 1838.973629
_symmetry_space_group_name_H-M "C 2/C"
_symmetry_group_IT_number 15
_symmetry_cell_setting 'monoclinic'
loop_
_space_group_symop_operation_xyz
x,y,z
-x,y,1/2-z
-x,-y,-z
x,-y,1/2+z
1/2+x,1/2+y,z
1/2-x,1/2+y,1/2-z
1/2-x,1/2-y,-z
1/2+x,1/2-y,1/2+z
loop_
_atom_site_type_symbol
_atom_site_label
_atom_site_fract_x
_atom_site_fract_y
_atom_site_fract_z
Si Si1 0.750537 0.822208 0.484263
Si Si2 0.148014 0.542166 0.592314
Si Si3 0.851368 0.081775 0.531775
Si Si4 0.901705 0.680753 0.927964
Si Si5 0.066426 0.070167 0.460262
Si Si6 0.277421 0.804057 0.721061
O O1 0.750000 0.750000 0.500000
O O2 0.616715 0.831113 0.257283
O O3 0.887356 0.858688 0.529082
O O4 0.747713 0.839122 0.647703
O O5 0.242606 0.535700 0.525442
O O6 0.095049 0.611100 0.521281
O O7 0.000000 0.500000 0.500000
O O8 0.277986 0.547327 0.827702
O O9 0.772842 0.146465 0.436077
O O10 0.000000 0.094635 0.750000
O O11 0.930040 0.061780 0.452415
O O12 0.790127 0.737112 0.853875
O O13 0.048961 0.708024 0.121408
O O14 0.000000 0.048130 0.250000
#
# Coordination Sequence:
#
# PCOD9267926 Si02
#       6
#     8   8   8   8   8   8
#     4   9  19  32  65 111 165 208 259 326 425 505
#     4  10  24  48  74 109 166 230 287 350 428 518
#     4  10  23  41  74 118 161 211 274 348 434 513
#     4  10  24  39  72 116 160 225 265 345 430 507
#     4  10  19  40  76 119 154 212 282 354 418 506
#     4  11  22  39  70 119 167 204 275 346 432 514
#
# _framework density 26.101516
#
# number of rings (size 3 to 8) (size 9 to 14) (size 15 to 20)
#    0.000    2.000    1.667    0.500    9.333    1.333 
#    0.000    0.833   14.667    5.000    4.333    0.000 
#    0.000    0.000    0.000    0.000    0.000    0.000 
#
# Total GULP energy -133713.950329 kJ/mol
# GULP energy per Si atom -5571.414597 kJ/mol
# Density = 2.604211 g / cm^3
# Si number density = 26.101516 Si / 1000 Ang^3
#
#
#
# Elastic Constant Matrix: (Units=GPa)
#
#
# Indices 1 2 3 4 5 6 
#
# 1 175.3929 83.5543 91.3479 0.0000 -3.0727 0.0000
# 2 83.5543 168.6643 85.9783 0.0000 26.8797 0.0000
# 3 91.3479 85.9783 151.1102 0.0000 21.5086 0.0000
# 4 0.0000 0.0000 0.0000 -44.9694 0.0000 -57.5981
# 5 -3.0727 26.8797 21.5086 0.0000 49.8953 0.0000
# 6 0.0000 0.0000 0.0000 -57.5981 0.0000 -3.3565
#
#
#
# Elastic Compliance Matrix: (Units=1/GPa)
#
#
# Indices 1 2 3 4 5 6 
#
# 1 0.009707 -0.003085 -0.004724 0.000000 0.004296 0.000000
# 2 -0.003085 0.009664 -0.003053 0.000000 -0.004080 0.000000
# 3 -0.004724 -0.003053 0.011738 0.000000 -0.003706 0.000000
# 4 0.000000 0.000000 0.000000 0.001060 0.000000 -0.018189
# 5 0.004296 -0.004080 -0.003706 0.000000 0.024102 0.000000
# 6 0.000000 0.000000 0.000000 -0.018189 0.000000 0.014201
#
#
# Mechanical properties :
#
#
# Convention : Reuss Voigt Hill
#
# Bulk Modulus (GPa) = 106.55680 112.99205 109.77443
# Shear Modulus (GPa) = 52.45290 15.93301 34.19295
#
# Velocity S-wave (km/s) = 4.48769 2.47336 3.62332
# Velocity P-wave (km/s) = 8.23196 7.17914 7.72351
#
# Compressibility (1/GPa) = 0.00938467
#
# Stress axis : x y z
#
# Youngs Moduli (GPa) = 103.01991 103.48048 85.19495
#
# Poissons Ratio (x) = 0.31926 0.40246
# Poissons Ratio (y) = 0.31784 0.26006
# Poissons Ratio (z) = 0.48667 0.31588
#
# Static dielectric constant tensor:
#      x y z
#    x 2.302130 0.000000 -0.064700 
#    y 0.000000 2.226930 0.000000 
#    z -0.064700 0.000000 2.089000 
# 
# From -- ./inp_files/100076.got.cif
#   From: 2010.05.17/outbox.cif.g08.bks.cpg/sg15_51_cif.got.tgz:100076.got - 2010.06.03 18:47:42.
