data_PCOD9267959
_publ_section_title
;
Structure prediction by ZEFSAII (Michael W. Deem and Ramdas Pophale) SiO2 
 PCOD9267959
Probable space group: C 2/C
;
_chemical_formula_sum "Si O2"
_cell_formula_units_Z 48
_cell_length_a 11.424962
_cell_length_b 12.013601
_cell_length_c 23.338574
_cell_angle_alpha 90.000000
_cell_angle_beta 133.781120
_cell_angle_gamma 90.000000
_cell_volume 2312.769878
_symmetry_space_group_name_H-M "C 2/C"
_symmetry_group_IT_number 15
_symmetry_cell_setting 'monoclinic'
loop_
_space_group_symop_operation_xyz
x,y,z
-x,y,1/2-z
-x,-y,-z
x,-y,1/2+z
1/2+x,1/2+y,z
1/2-x,1/2+y,1/2-z
1/2-x,1/2-y,-z
1/2+x,1/2-y,1/2+z
loop_
_atom_site_type_symbol
_atom_site_label
_atom_site_fract_x
_atom_site_fract_y
_atom_site_fract_z
Si Si1 0.397303 0.569346 0.297224
Si Si2 0.287870 0.343315 0.557162
Si Si3 0.648814 0.371221 0.366691
Si Si4 0.642032 0.931926 0.611784
Si Si5 0.271608 0.073604 0.022371
Si Si6 0.321761 0.875194 0.669155
O O1 0.542816 0.657869 0.351690
O O2 0.486805 0.450386 0.313013
O O3 0.270597 0.596239 0.204561
O O4 0.301028 0.581581 0.324028
O O5 0.250000 0.250000 0.500000
O O6 0.154007 0.351725 0.561207
O O7 0.295520 0.455555 0.522399
O O8 0.792103 0.450994 0.391373
O O9 0.686772 0.346091 0.446561
O O10 0.655588 0.258420 0.332733
O O11 0.463764 0.931055 0.575869
O O12 0.256261 0.088051 0.084740
O O13 0.500000 0.916096 0.750000
#
# Coordination Sequence:
#
# PCOD9267959 Si02
#       6
#     8   8   8   8   8   8
#     4  10  22  40  64  88 128 161 209 268 306 384
#     4  10  22  39  63  92 119 167 210 259 324 378
#     4  10  22  40  65  88 117 171 211 250 323 382
#     4  10  19  41  63  85 122 161 210 263 313 378
#     4  10  22  40  60  90 124 160 207 264 311 373
#     4  12  23  40  62  96 126 162 210 258 324 383
#
# _framework density 20.754335000000001
#
# number of rings (size 3 to 8) (size 9 to 14) (size 15 to 20)
#    0.000    2.000    1.667    5.500    4.667    2.667 
#    3.000    1.667    0.000    0.000    0.000    0.000 
#    0.000    0.000    0.000    0.000    0.000    0.000 
#
# Total GULP energy -133822.901605 kJ/mol
# GULP energy per Si atom -5575.954234 kJ/mol
# Density = 2.070710 g / cm^3
# Si number density = 20.754335 Si / 1000 Ang^3
#
#
#
# Elastic Constant Matrix: (Units=GPa)
#
#
# Indices 1 2 3 4 5 6 
#
# 1 112.9236 17.8433 17.8087 0.0000 -21.8045 0.0000
# 2 17.8433 42.3834 16.4567 0.0000 -8.3554 0.0000
# 3 17.8087 16.4567 116.7718 0.0000 -15.0127 0.0000
# 4 0.0000 0.0000 0.0000 26.0770 0.0000 -13.0679
# 5 -21.8045 -8.3554 -15.0127 0.0000 46.2225 0.0000
# 6 0.0000 0.0000 0.0000 -13.0679 0.0000 13.8817
#
#
#
# Elastic Compliance Matrix: (Units=1/GPa)
#
#
# Indices 1 2 3 4 5 6 
#
# 1 0.010249 -0.003292 -0.000578 0.000000 0.004052 0.000000
# 2 -0.003292 0.026577 -0.002949 0.000000 0.002294 0.000000
# 3 -0.000578 -0.002949 0.009354 0.000000 0.002232 0.000000
# 4 0.000000 0.000000 0.000000 0.072594 0.000000 0.068338
# 5 0.004052 0.002294 0.002232 0.000000 0.024686 0.000000
# 6 0.000000 0.000000 0.000000 0.068338 0.000000 0.136368
#
#
# Mechanical properties :
#
#
# Convention : Reuss Voigt Hill
#
# Bulk Modulus (GPa) = 30.72781 41.81071 36.26926
# Shear Modulus (GPa) = 16.43043 31.90091 24.16567
#
# Velocity S-wave (km/s) = 2.81670 3.92480 3.41598
# Velocity P-wave (km/s) = 5.04143 6.38185 5.75083
#
# Compressibility (1/GPa) = 0.03254381
#
# Stress axis : x y z
#
# Youngs Moduli (GPa) = 97.56802 37.62652 106.90076
#
# Poissons Ratio (x) = 0.12385 0.06182
# Poissons Ratio (y) = 0.32115 0.31521
# Poissons Ratio (z) = 0.05642 0.11095
#
# Static dielectric constant tensor:
#      x y z
#    x 1.738280 0.000000 0.000320 
#    y 0.000000 1.794190 0.000000 
#    z 0.000320 0.000000 1.823330 
# 
# From -- ./inp_files/269023.got.cif
#   From: 2010.05.17/outbox.cif.g08.bks.cpg/sg15_135_cif.got.tgz:269023.got - 2010.06.03 18:47:42.
