data_PCOD9267610
_publ_section_title
;
Structure prediction by ZEFSAII (Michael W. Deem and Ramdas Pophale) SiO2 
 PCOD9267610
Probable space group: C 2/C
;
_chemical_formula_sum "Si O2"
_cell_formula_units_Z 44
_cell_length_a 19.411318
_cell_length_b 19.563264
_cell_length_c 5.410842
_cell_angle_alpha 90.000000
_cell_angle_beta 66.214385
_cell_angle_gamma 90.000000
_cell_volume 1880.231037
_symmetry_space_group_name_H-M "C 2/C"
_symmetry_group_IT_number 15
_symmetry_cell_setting 'monoclinic'
loop_
_space_group_symop_operation_xyz
x,y,z
-x,y,1/2-z
-x,-y,-z
x,-y,1/2+z
1/2+x,1/2+y,z
1/2-x,1/2+y,1/2-z
1/2-x,1/2-y,-z
1/2+x,1/2-y,1/2+z
loop_
_atom_site_type_symbol
_atom_site_label
_atom_site_fract_x
_atom_site_fract_y
_atom_site_fract_z
Si Si1 0.000000 0.712922 0.250000
Si Si2 0.619178 0.861898 0.245906
Si Si3 0.758915 0.356150 0.085886
Si Si4 0.500000 0.454395 0.250000
Si Si5 0.500000 0.957293 0.250000
Si Si6 0.860552 0.247156 0.663909
Si Si7 0.835471 0.044541 0.054014
O O1 0.946887 0.662672 0.478800
O O2 0.945026 0.755728 0.149465
O O3 0.688956 0.893710 0.291077
O O4 0.576131 0.912453 0.127166
O O5 0.642410 0.792428 0.076390
O O6 0.683284 0.323285 0.307167
O O7 0.731197 0.402292 0.900843
O O8 0.812003 0.293773 0.923266
O O9 0.500000 0.500000 0.500000
O O10 0.582017 0.419908 0.104517
O O11 0.500000 0.000000 0.500000
O O12 0.831558 0.991131 0.827579
#
# Coordination Sequence:
#
# PCOD9267610 Si02
#       7
#     4   8   8   4   4   8   8
#     4  10  19  39  68  92 124 173 217 274 336 392
#     4  11  22  42  65  87 137 169 218 285 333 386
#     4  10  24  38  64  96 129 169 223 272 339 405
#     4   8  16  35  62  82 116 160 199 248 308 370
#     4  12  27  42  68 100 128 183 236 272 334 402
#     4  10  21  41  64  94 126 174 217 277 343 392
#     4  10  22  41  64  92 129 171 214 267 328 394
#
# _framework density 23.401378999999999
#
# number of rings (size 3 to 8) (size 9 to 14) (size 15 to 20)
#    0.000    1.818    1.818    1.091    5.091    2.182 
#    0.000    0.000   12.000    0.000    0.000    0.000 
#    0.000    0.000    0.000    0.000    0.000    0.000 
#
# Total GULP energy -122861.229043 kJ/mol
# GULP energy per Si atom -5584.601320 kJ/mol
# Density = 2.334812 g / cm^3
# Si number density = 23.401379 Si / 1000 Ang^3
#
#
#
# Elastic Constant Matrix: (Units=GPa)
#
#
# Indices 1 2 3 4 5 6 
#
# 1 168.3835 19.5418 3.7156 0.0000 1.5284 0.0000
# 2 19.5418 29.8275 -0.1968 0.0000 -0.0082 0.0000
# 3 3.7156 -0.1968 80.7994 0.0000 13.3255 0.0000
# 4 0.0000 0.0000 0.0000 11.9346 0.0000 19.7434
# 5 1.5284 -0.0082 13.3255 0.0000 24.3733 0.0000
# 6 0.0000 0.0000 0.0000 19.7434 0.0000 -11.9254
#
#
#
# Elastic Compliance Matrix: (Units=1/GPa)
#
#
# Indices 1 2 3 4 5 6 
#
# 1 0.006437 -0.004219 -0.000263 0.000000 -0.000261 0.000000
# 2 -0.004219 0.036292 0.000260 0.000000 0.000134 0.000000
# 3 -0.000263 0.000260 0.013614 0.000000 -0.007426 0.000000
# 4 0.000000 0.000000 0.000000 0.022411 0.000000 0.037103
# 5 -0.000261 0.000134 -0.007426 0.000000 0.045105 0.000000
# 6 0.000000 0.000000 0.000000 0.037103 0.000000 -0.022428
#
#
# Mechanical properties :
#
#
# Convention : Reuss Voigt Hill
#
# Bulk Modulus (GPa) = 20.87742 36.12574 28.50158
# Shear Modulus (GPa) = 39.73305 21.93983 30.83644
#
# Velocity S-wave (km/s) = 4.12502 3.06526 3.63398
# Velocity P-wave (km/s) = 5.62393 5.29138 5.46018
#
# Compressibility (1/GPa) = 0.04789865
#
# Stress axis : x y z
#
# Youngs Moduli (GPa) = 155.36106 27.55443 73.45477
#
# Poissons Ratio (x) = 0.11625 0.01933
# Poissons Ratio (y) = 0.65544 -0.01911
# Poissons Ratio (z) = 0.04089 -0.00717
#
# Static dielectric constant tensor:
#      x y z
#    x 1.939890 0.000000 0.017820 
#    y 0.000000 1.884570 0.000000 
#    z 0.017820 0.000000 2.009580 
# 
# From -- ./inp_files/10308.got.cif
#   From: 2010.05.17/outbox.cif.g08.bks.cpg/sg15_6_cif.got.tgz:10308.got - 2010.06.03 18:47:42.
