data_PCOD9267635
_publ_section_title
;
Structure prediction by ZEFSAII (Michael W. Deem and Ramdas Pophale) SiO2 
 PCOD9267635
Probable space group: C 2/C
;
_chemical_formula_sum "Si O2"
_cell_formula_units_Z 64
_cell_length_a 20.893678
_cell_length_b 28.241777
_cell_length_c 9.940409
_cell_angle_alpha 90.000000
_cell_angle_beta 36.315100
_cell_angle_gamma 90.000000
_cell_volume 3473.748045
_symmetry_space_group_name_H-M "C 2/C"
_symmetry_group_IT_number 15
_symmetry_cell_setting 'monoclinic'
loop_
_space_group_symop_operation_xyz
x,y,z
-x,y,1/2-z
-x,-y,-z
x,-y,1/2+z
1/2+x,1/2+y,z
1/2-x,1/2+y,1/2-z
1/2-x,1/2-y,-z
1/2+x,1/2-y,1/2+z
loop_
_atom_site_type_symbol
_atom_site_label
_atom_site_fract_x
_atom_site_fract_y
_atom_site_fract_z
Si Si1 0.070592 0.871281 0.001365
Si Si2 0.253658 0.539607 0.794549
Si Si3 0.740627 0.687562 0.615006
Si Si4 0.620237 0.273563 0.060847
Si Si5 0.858948 0.399026 0.784378
Si Si6 0.218447 0.569104 0.379434
Si Si7 0.581528 0.382248 0.495320
Si Si8 0.568813 0.049852 0.885022
O O1 0.176686 0.898873 0.772929
O O2 0.113192 0.819285 0.975436
O O3 0.000000 0.889077 0.250000
O O4 0.984138 0.874985 0.029937
O O5 0.263785 0.483972 0.794015
O O6 0.365617 0.566196 0.578356
O O7 0.167455 0.545853 0.821130
O O8 0.203661 0.564409 0.011776
O O9 0.655261 0.707267 0.649191
O O10 0.796458 0.730851 0.597003
O O11 0.822284 0.653276 0.393003
O O12 0.681025 0.653732 0.820149
O O13 0.500000 0.253163 0.250000
O O14 0.826347 0.411855 0.687058
O O15 0.985322 0.410636 0.578341
O O16 0.122459 0.564701 0.652002
O O17 0.500000 0.371224 0.750000
O O18 0.500000 0.000000 0.000000
#
# Coordination Sequence:
#
# PCOD9267635 Si02
#       8
#     8   8   8   8   8   8   8   8
#     4  11  21  41  66  90 119 169 213 261 318 378
#     4  11  23  38  56  89 125 172 215 253 306 377
#     4  10  21  39  66  94 119 156 214 264 313 396
#     4  10  19  39  70  93 114 155 209 264 325 379
#     4  11  22  37  61  90 123 166 216 259 310 375
#     4  12  22  37  61  91 127 168 220 261 303 375
#     4  11  23  40  61  90 130 165 203 264 324 369
#     4  12  23  37  58  87 131 175 207 261 322 364
#
# _framework density 18.423905000000001
#
# number of rings (size 3 to 8) (size 9 to 14) (size 15 to 20)
#    0.000    1.000    6.250    2.250    0.000    3.000 
#    0.000    0.625    5.500    0.000    0.000    0.000 
#    0.000    0.000    0.000    0.000    0.000    0.000 
#
# Total GULP energy -178439.784937 kJ/mol
# GULP energy per Si atom -5576.243279 kJ/mol
# Density = 1.838197 g / cm^3
# Si number density = 18.423905 Si / 1000 Ang^3
#
#
#
# Elastic Constant Matrix: (Units=GPa)
#
#
# Indices 1 2 3 4 5 6 
#
# 1 74.5723 10.2015 18.6084 0.0000 -17.1191 0.0000
# 2 10.2015 50.9591 29.0298 0.0000 -23.2145 0.0000
# 3 18.6084 29.0298 104.3747 0.0000 1.8620 0.0000
# 4 0.0000 0.0000 0.0000 21.2760 0.0000 -10.9567
# 5 -17.1191 -23.2145 1.8620 0.0000 24.8522 0.0000
# 6 0.0000 0.0000 0.0000 -10.9567 0.0000 29.1448
#
#
#
# Elastic Compliance Matrix: (Units=1/GPa)
#
#
# Indices 1 2 3 4 5 6 
#
# 1 0.019139 0.011053 -0.006915 0.000000 0.024026 0.000000
# 2 0.011053 0.055909 -0.018613 0.000000 0.061233 0.000000
# 3 -0.006915 -0.018613 0.016408 0.000000 -0.023379 0.000000
# 4 0.000000 0.000000 0.000000 0.058285 0.000000 0.021912
# 5 0.024026 0.061233 -0.023379 0.000000 0.115738 0.000000
# 6 0.000000 0.000000 0.000000 0.021912 0.000000 0.042549
#
#
# Mechanical properties :
#
#
# Convention : Reuss Voigt Hill
#
# Bulk Modulus (GPa) = 15.99851 38.39839 27.19845
# Shear Modulus (GPa) = 13.97376 26.52569 20.24972
#
# Velocity S-wave (km/s) = 2.75700 3.79851 3.31887
# Velocity P-wave (km/s) = 4.34018 6.33444 5.42965
#
# Compressibility (1/GPa) = 0.06250581
#
# Stress axis : x y z
#
# Youngs Moduli (GPa) = 52.24973 17.88617 60.94714
#
# Poissons Ratio (x) = -0.19770 0.42145
# Poissons Ratio (y) = -0.57753 1.13441
# Poissons Ratio (z) = 0.36131 0.33292
#
# Static dielectric constant tensor:
#      x y z
#    x 1.644700 0.000000 -0.011450 
#    y 0.000000 1.680850 0.000000 
#    z -0.011450 0.000000 1.643800 
# 
# From -- ./inp_files/52807.got.cif
#   From: 2010.05.17/outbox.cif.g08.bks.cpg/sg15_27_cif.got.tgz:52807.got - 2010.06.03 18:47:42.
