data_PCOD9267660
_publ_section_title
;
Structure prediction by ZEFSAII (Michael W. Deem and Ramdas Pophale) SiO2 
 PCOD9267660
Probable space group: C 2/C
;
_chemical_formula_sum "Si O2"
_cell_formula_units_Z 32
_cell_length_a 9.179196
_cell_length_b 14.221396
_cell_length_c 10.053603
_cell_angle_alpha 90.000000
_cell_angle_beta 87.818420
_cell_angle_gamma 90.000000
_cell_volume 1311.455976
_symmetry_space_group_name_H-M "C 2/C"
_symmetry_group_IT_number 15
_symmetry_cell_setting 'monoclinic'
loop_
_space_group_symop_operation_xyz
x,y,z
-x,y,1/2-z
-x,-y,-z
x,-y,1/2+z
1/2+x,1/2+y,z
1/2-x,1/2+y,1/2-z
1/2-x,1/2-y,-z
1/2+x,1/2-y,1/2+z
loop_
_atom_site_type_symbol
_atom_site_label
_atom_site_fract_x
_atom_site_fract_y
_atom_site_fract_z
Si Si1 0.678137 0.388686 0.253853
Si Si2 0.848351 0.958665 0.957800
Si Si3 0.233492 0.677474 0.271223
Si Si4 0.033491 0.571653 0.113004
O O1 0.500000 0.378907 0.250000
O O2 0.718694 0.425940 0.399744
O O3 0.718345 0.461315 0.135978
O O4 0.746503 0.285918 0.239777
O O5 0.857760 0.870745 0.855352
O O6 0.000000 0.000000 0.000000
O O7 0.089785 0.654510 0.369719
O O8 0.187683 0.622234 0.137816
O O9 0.000000 0.515985 0.250000
O O10 0.000000 0.500000 0.000000
#
# Coordination Sequence:
#
# PCOD9267660 Si02
#       4
#     8   8   8   8
#     4  10  19  40  56  82 115 156 189 232 282 342
#     4  10  22  33  60  84 117 148 189 232 286 339
#     4   9  19  36  62  79 114 153 191 227 286 340
#     4   8  18  32  60  81 109 143 198 237 274 320
#
# _framework density 24.400359000000002
#
# number of rings (size 3 to 8) (size 9 to 14) (size 15 to 20)
#    1.500    1.000    2.500    0.750    3.500    0.000 
#    0.000    1.250    5.500    0.000    0.000    0.000 
#    0.000    0.000    0.000    0.000    0.000    0.000 
#
# Total GULP energy -89167.703200 kJ/mol
# GULP energy per Si atom -5572.981450 kJ/mol
# Density = 2.434482 g / cm^3
# Si number density = 24.400359 Si / 1000 Ang^3
#
#
#
# Elastic Constant Matrix: (Units=GPa)
#
#
# Indices 1 2 3 4 5 6 
#
# 1 54.7441 -1.7822 18.3464 0.0000 25.3535 0.0000
# 2 -1.7822 186.8734 109.1990 0.0000 16.2526 0.0000
# 3 18.3464 109.1990 203.4384 0.0000 27.2910 0.0000
# 4 0.0000 0.0000 0.0000 32.3668 0.0000 2.3073
# 5 25.3535 16.2526 27.2910 0.0000 39.5219 0.0000
# 6 0.0000 0.0000 0.0000 2.3073 0.0000 26.6206
#
#
#
# Elastic Compliance Matrix: (Units=1/GPa)
#
#
# Indices 1 2 3 4 5 6 
#
# 1 0.026862 0.002652 -0.001530 0.000000 -0.017267 0.000000
# 2 0.002652 0.008063 -0.004292 0.000000 -0.002053 0.000000
# 3 -0.001530 -0.004292 0.007702 0.000000 -0.002573 0.000000
# 4 0.000000 0.000000 0.000000 0.031088 0.000000 -0.002694
# 5 -0.017267 -0.002053 -0.002573 0.000000 0.039000 0.000000
# 6 0.000000 0.000000 0.000000 -0.002694 0.000000 0.037798
#
#
# Mechanical properties :
#
#
# Convention : Reuss Voigt Hill
#
# Bulk Modulus (GPa) = 27.55698 77.39804 52.47751
# Shear Modulus (GPa) = 29.59484 40.98804 35.29144
#
# Velocity S-wave (km/s) = 3.48643 4.10300 3.80722
# Velocity P-wave (km/s) = 5.24644 7.36444 6.39375
#
# Compressibility (1/GPa) = 0.03628844
#
# Stress axis : x y z
#
# Youngs Moduli (GPa) = 37.22682 124.02593 129.83500
#
# Poissons Ratio (x) = -0.32887 0.19858
# Poissons Ratio (y) = -0.09871 0.55719
# Poissons Ratio (z) = 0.05694 0.53226
#
# Static dielectric constant tensor:
#      x y z
#    x 2.147640 0.000000 -0.012750 
#    y 0.000000 1.933790 0.000000 
#    z -0.012750 0.000000 1.946190 
# 
# From -- ./inp_files/84121.got.cif
#   From: 2010.05.17/outbox.cif.g08.bks.cpg/sg15_43_cif.got.tgz:84121.got - 2010.06.03 18:47:42.
