data_PCOD9267205
_publ_section_title
;
Structure prediction by ZEFSAII (Michael W. Deem and Ramdas Pophale) SiO2 
 PCOD9267205
Probable space group: C 2/C
;
_chemical_formula_sum "Si O2"
_cell_formula_units_Z 40
_cell_length_a 5.819434
_cell_length_b 18.319459
_cell_length_c 24.376051
_cell_angle_alpha 90.000000
_cell_angle_beta 35.886941
_cell_angle_gamma 90.000000
_cell_volume 1523.328100
_symmetry_space_group_name_H-M "C 2/C"
_symmetry_group_IT_number 15
_symmetry_cell_setting 'monoclinic'
loop_
_space_group_symop_operation_xyz
x,y,z
-x,y,1/2-z
-x,-y,-z
x,-y,1/2+z
1/2+x,1/2+y,z
1/2-x,1/2+y,1/2-z
1/2-x,1/2-y,-z
1/2+x,1/2-y,1/2+z
loop_
_atom_site_type_symbol
_atom_site_label
_atom_site_fract_x
_atom_site_fract_y
_atom_site_fract_z
Si Si1 0.510873 0.319978 0.992174
Si Si2 0.393296 0.282380 0.854949
Si Si3 0.914075 0.079961 0.922560
Si Si4 0.525509 0.420846 0.606814
Si Si5 0.851952 0.851813 0.221341
O O1 0.527965 0.376420 0.938994
O O2 0.959172 0.289459 0.912328
O O3 0.212652 0.252825 0.064424
O O4 0.397645 0.369197 0.067865
O O5 0.574699 0.362517 0.826692
O O6 0.695787 0.228729 0.766484
O O7 0.821342 0.128913 0.886555
O O8 0.124268 0.002913 0.870778
O O9 0.485363 0.065093 0.030156
O O10 0.500000 0.880720 0.250000
O O11 0.000000 0.884278 0.250000
#
# Coordination Sequence:
#
# PCOD9267205 Si02
#       5
#     8   8   8   8   8
#     4  10  19  38  67  98 133 173 237 288 347 416
#     4  10  22  37  64  99 133 179 234 284 346 418
#     4  10  22  40  65 101 134 187 232 287 360 422
#     4  10  21  39  67 101 135 177 236 301 341 420
#     4  12  26  45  69  96 139 188 232 280 357 427
#
# _framework density 26.258296000000001
#
# number of rings (size 3 to 8) (size 9 to 14) (size 15 to 20)
#    0.000    1.600    2.000    2.400    2.800    0.000 
#    0.000    2.000    0.000    0.000    0.000    0.000 
#    0.000    0.000    0.000    0.000    0.000    0.000 
#
# Total GULP energy -111507.105462 kJ/mol
# GULP energy per Si atom -5575.355273 kJ/mol
# Density = 2.619853 g / cm^3
# Si number density = 26.258296 Si / 1000 Ang^3
#
#
#
# Elastic Constant Matrix: (Units=GPa)
#
#
# Indices 1 2 3 4 5 6 
#
# 1 78.5708 23.4216 7.6701 0.0043 9.0243 -0.0087
# 2 23.4216 205.0505 45.8874 0.0030 10.0891 -0.0046
# 3 7.6701 45.8874 63.3016 0.0012 3.5750 -0.0022
# 4 0.0043 0.0030 0.0012 38.4388 -0.0007 6.9280
# 5 9.0243 10.0891 3.5750 -0.0007 47.2488 0.0038
# 6 -0.0087 -0.0046 -0.0022 6.9280 0.0038 23.6421
#
#
#
# Elastic Compliance Matrix: (Units=1/GPa)
#
#
# Indices 1 2 3 4 5 6 
#
# 1 0.013427 -0.001298 -0.000559 -0.000002 -0.002245 0.000006
# 2 -0.001298 0.005987 -0.004143 0.000000 -0.000717 0.000001
# 3 -0.000559 -0.004143 0.018893 0.000000 -0.000438 0.000001
# 4 -0.000002 0.000000 0.000000 0.027466 0.000002 -0.008049
# 5 -0.002245 -0.000717 -0.000438 0.000002 0.021780 -0.000005
# 6 0.000006 0.000001 0.000001 -0.008049 -0.000005 0.044656
#
#
# Mechanical properties :
#
#
# Convention : Reuss Voigt Hill
#
# Bulk Modulus (GPa) = 38.01187 55.65345 46.83266
# Shear Modulus (GPa) = 32.68458 39.86218 36.27338
#
# Velocity S-wave (km/s) = 3.53191 3.90048 3.72076
# Velocity P-wave (km/s) = 5.58033 6.44404 6.02767
#
# Compressibility (1/GPa) = 0.02630757
#
# Stress axis : x y z
#
# Youngs Moduli (GPa) = 74.47815 167.01629 52.93020
#
# Poissons Ratio (x) = 0.21680 0.02959
# Poissons Ratio (y) = 0.09668 0.21926
# Poissons Ratio (z) = 0.04164 0.69187
#
# Static dielectric constant tensor:
#      x y z
#    x 2.174390 0.000000 -0.098210 
#    y 0.000000 2.074730 0.000000 
#    z -0.098210 0.000000 2.597080 
# 
# From -- ./inp_files/261280.got.cif
#   From: 2010.05.17/outbox.cif.g08.bks.cpg/sg15_131_cif.got.tgz:261280.got - 2010.06.03 18:47:42.
