data_PCOD9267988
_publ_section_title
;
Structure prediction by ZEFSAII (Michael W. Deem and Ramdas Pophale) SiO2 
 PCOD9267988
Probable space group: C 2/C
;
_chemical_formula_sum "Si O2"
_cell_formula_units_Z 40
_cell_length_a 17.560677
_cell_length_b 7.959706
_cell_length_c 18.960934
_cell_angle_alpha 90.000000
_cell_angle_beta 38.598985
_cell_angle_gamma 90.000000
_cell_volume 1653.442716
_symmetry_space_group_name_H-M "C 2/C"
_symmetry_group_IT_number 15
_symmetry_cell_setting 'monoclinic'
loop_
_space_group_symop_operation_xyz
x,y,z
-x,y,1/2-z
-x,-y,-z
x,-y,1/2+z
1/2+x,1/2+y,z
1/2-x,1/2+y,1/2-z
1/2-x,1/2-y,-z
1/2+x,1/2-y,1/2+z
loop_
_atom_site_type_symbol
_atom_site_label
_atom_site_fract_x
_atom_site_fract_y
_atom_site_fract_z
Si Si1 0.600006 0.880874 0.124270
Si Si2 0.348471 0.503611 0.911691
Si Si3 0.607745 0.577743 0.771393
Si Si4 0.942949 0.379636 0.100505
Si Si5 0.749477 0.863099 0.735538
O O1 0.500000 0.948067 0.250000
O O2 0.634270 0.692180 0.123538
O O3 0.545386 0.854188 0.085406
O O4 0.715568 0.002712 0.040455
O O5 0.463973 0.544704 0.876583
O O6 0.358402 0.613212 0.833956
O O7 0.647368 0.723191 0.795561
O O8 0.691814 0.419280 0.732562
O O9 0.873852 0.220513 0.114223
O O10 0.830186 0.471225 0.223778
O O11 0.000000 0.500000 0.000000
#
# Coordination Sequence:
#
# PCOD9267988 Si02
#       5
#     8   8   8   8   8
#     4  11  20  37  63  92 123 171 225 268 326 407
#     4  10  20  37  66  90 126 173 219 269 338 397
#     4  10  19  41  64  96 127 171 223 277 331 401
#     4  11  23  43  66  95 136 179 217 283 340 395
#     4  10  21  39  65  94 130 171 221 268 338 396
#
# _framework density 24.191949999999999
#
# number of rings (size 3 to 8) (size 9 to 14) (size 15 to 20)
#    0.000    1.600    4.000    2.400    0.000    1.600 
#    7.200    3.000    0.000    0.000    0.000    0.000 
#    0.000    0.000    0.000    0.000    0.000    0.000 
#
# Total GULP energy -111432.757747 kJ/mol
# GULP energy per Si atom -5571.637887 kJ/mol
# Density = 2.413689 g / cm^3
# Si number density = 24.191950 Si / 1000 Ang^3
#
#
#
# Elastic Constant Matrix: (Units=GPa)
#
#
# Indices 1 2 3 4 5 6 
#
# 1 137.5186 39.1704 33.8827 0.0000 -32.8857 0.0000
# 2 39.1704 62.5518 13.7501 0.0000 -4.4364 0.0000
# 3 33.8827 13.7501 113.1257 0.0000 -29.9241 0.0000
# 4 0.0000 0.0000 0.0000 16.1758 0.0000 -9.5625
# 5 -32.8857 -4.4364 -29.9241 0.0000 37.0897 0.0000
# 6 0.0000 0.0000 0.0000 -9.5625 0.0000 20.2231
#
#
#
# Elastic Compliance Matrix: (Units=1/GPa)
#
#
# Indices 1 2 3 4 5 6 
#
# 1 0.011323 -0.006400 -0.000204 0.000000 0.009110 0.000000
# 2 -0.006400 0.020049 -0.001763 0.000000 -0.004699 0.000000
# 3 -0.000204 -0.001763 0.011456 0.000000 0.008851 0.000000
# 4 0.000000 0.000000 0.000000 0.085806 0.000000 0.040573
# 5 0.009110 -0.004699 0.008851 0.000000 0.041618 0.000000
# 6 0.000000 0.000000 0.000000 0.040573 0.000000 0.068633
#
#
# Mechanical properties :
#
#
# Convention : Reuss Voigt Hill
#
# Bulk Modulus (GPa) = 38.32114 54.08917 46.20516
# Shear Modulus (GPa) = 18.91661 29.79059 24.35360
#
# Velocity S-wave (km/s) = 2.79935 3.51297 3.17627
# Velocity P-wave (km/s) = 5.13063 6.23390 5.70898
#
# Compressibility (1/GPa) = 0.02609526
#
# Stress axis : x y z
#
# Youngs Moduli (GPa) = 88.31252 49.87861 87.28696
#
# Poissons Ratio (x) = 0.31922 0.01779
# Poissons Ratio (y) = 0.56519 0.15388
# Poissons Ratio (z) = 0.01800 0.08793
#
# Static dielectric constant tensor:
#      x y z
#    x 1.887460 0.000000 -0.036260 
#    y 0.000000 2.021820 0.000000 
#    z -0.036260 0.000000 1.952110 
# 
# From -- ./inp_files/247223.got.cif
#   From: 2010.05.17/outbox.cif.g08.bks.cpg/sg15_124_cif.got.tgz:247223.got - 2010.06.03 18:47:42.
