data_PCOD9267721
_publ_section_title
;
Structure prediction by ZEFSAII (Michael W. Deem and Ramdas Pophale) SiO2 
 PCOD9267721
Probable space group: C 2/C
;
_chemical_formula_sum "Si O2"
_cell_formula_units_Z 56
_cell_length_a 17.600632
_cell_length_b 26.375016
_cell_length_c 8.415603
_cell_angle_alpha 90.000000
_cell_angle_beta 44.621050
_cell_angle_gamma 90.000000
_cell_volume 2744.098921
_symmetry_space_group_name_H-M "C 2/C"
_symmetry_group_IT_number 15
_symmetry_cell_setting 'monoclinic'
loop_
_space_group_symop_operation_xyz
x,y,z
-x,y,1/2-z
-x,-y,-z
x,-y,1/2+z
1/2+x,1/2+y,z
1/2-x,1/2+y,1/2-z
1/2-x,1/2-y,-z
1/2+x,1/2-y,1/2+z
loop_
_atom_site_type_symbol
_atom_site_label
_atom_site_fract_x
_atom_site_fract_y
_atom_site_fract_z
Si Si1 0.109994 0.373929 0.512836
Si Si2 0.783235 0.194108 0.900161
Si Si3 0.728308 0.036731 0.007473
Si Si4 0.609805 0.068880 0.680928
Si Si5 0.568353 0.541757 0.988044
Si Si6 0.504395 0.355418 0.433243
Si Si7 0.780165 0.885364 0.689462
O O1 0.205869 0.332443 0.384848
O O2 0.142847 0.421380 0.576587
O O3 0.094249 0.397446 0.361763
O O4 0.000000 0.351815 0.750000
O O5 0.911252 0.190228 0.664202
O O6 0.750000 0.250000 0.000000
O O7 0.764888 0.158988 0.083533
O O8 0.793010 0.064108 0.057284
O O9 0.670544 0.983875 0.132031
O O10 0.808546 0.028075 0.738550
O O11 0.500000 0.056710 0.750000
O O12 0.682945 0.100396 0.448885
O O13 0.500000 0.544720 0.250000
O O14 0.500000 0.500000 0.000000
O O15 0.562724 0.597722 0.926102
O O16 0.500000 0.361463 0.250000
O O17 0.378246 0.365275 0.655653
#
# Coordination Sequence:
#
# PCOD9267721 Si02
#       7
#     8   8   8   8   8   8   8
#     4  11  24  43  64  92 129 168 227 276 327 407
#     4  10  22  43  71  96 126 173 218 275 347 406
#     4  11  23  40  59  93 134 178 228 260 329 401
#     4  12  25  40  65  93 133 184 225 278 334 393
#     4  12  25  34  57  91 134 178 216 260 323 400
#     4  10  19  40  62  90 131 161 213 270 335 395
#     4  10  22  40  65  94 131 169 219 282 334 406
#
# _framework density 20.407427999999999
#
# number of rings (size 3 to 8) (size 9 to 14) (size 15 to 20)
#    0.000    1.143    4.286    4.286    6.000    3.429 
#    0.000    0.714    0.000    4.286    0.000    0.000 
#    0.000    0.000    0.000    0.000    0.000    0.000 
#
# Total GULP energy -156015.376288 kJ/mol
# GULP energy per Si atom -5571.977725 kJ/mol
# Density = 2.036098 g / cm^3
# Si number density = 20.407428 Si / 1000 Ang^3
#
#
#
# Elastic Constant Matrix: (Units=GPa)
#
#
# Indices 1 2 3 4 5 6 
#
# 1 93.7726 39.5760 33.4671 0.0000 -16.6094 0.0000
# 2 39.5760 111.5404 17.5609 0.0000 -10.2115 0.0000
# 3 33.4671 17.5609 96.4911 0.0000 -20.1827 0.0000
# 4 0.0000 0.0000 0.0000 43.5536 0.0000 7.7611
# 5 -16.6094 -10.2115 -20.1827 0.0000 32.3664 0.0000
# 6 0.0000 0.0000 0.0000 7.7611 0.0000 22.8553
#
#
#
# Elastic Compliance Matrix: (Units=1/GPa)
#
#
# Indices 1 2 3 4 5 6 
#
# 1 0.014339 -0.004195 -0.003390 0.000000 0.003921 0.000000
# 2 -0.004195 0.010588 -0.000257 0.000000 0.001028 0.000000
# 3 -0.003390 -0.000257 0.012886 0.000000 0.006215 0.000000
# 4 0.000000 0.000000 0.000000 0.024439 0.000000 -0.008299
# 5 0.003921 0.001028 0.006215 0.000000 0.037108 0.000000
# 6 0.000000 0.000000 0.000000 -0.008299 0.000000 0.046572
#
#
# Mechanical properties :
#
#
# Convention : Reuss Voigt Hill
#
# Bulk Modulus (GPa) = 45.18815 53.66801 49.42808
# Shear Modulus (GPa) = 29.58724 33.83508 31.71116
#
# Velocity S-wave (km/s) = 3.81179 4.07625 3.94623
# Velocity P-wave (km/s) = 6.44702 6.96489 6.71095
#
# Compressibility (1/GPa) = 0.02212969
#
# Stress axis : x y z
#
# Youngs Moduli (GPa) = 69.74076 94.44357 77.60333
#
# Poissons Ratio (x) = 0.39619 0.26305
# Poissons Ratio (y) = 0.29256 0.01995
# Poissons Ratio (z) = 0.23640 0.02428
#
# Static dielectric constant tensor:
#      x y z
#    x 1.816390 0.000000 -0.059530 
#    y 0.000000 1.488760 0.000000 
#    z -0.059530 0.000000 1.690550 
# 
# From -- ./inp_files/52286.got.cif
#   From: 2010.05.17/outbox.cif.g08.bks.cpg/sg15_27_cif.got.tgz:52286.got - 2010.06.03 18:47:42.
