data_PCOD9267147
_publ_section_title
;
Structure prediction by ZEFSAII (Michael W. Deem and Ramdas Pophale) SiO2 
 PCOD9267147
Probable space group: C 2/C
;
_chemical_formula_sum "Si O2"
_cell_formula_units_Z 56
_cell_length_a 15.756229
_cell_length_b 9.030790
_cell_length_c 21.666615
_cell_angle_alpha 90.000000
_cell_angle_beta 108.540695
_cell_angle_gamma 90.000000
_cell_volume 2922.956457
_symmetry_space_group_name_H-M "C 2/C"
_symmetry_group_IT_number 15
_symmetry_cell_setting 'monoclinic'
loop_
_space_group_symop_operation_xyz
x,y,z
-x,y,1/2-z
-x,-y,-z
x,-y,1/2+z
1/2+x,1/2+y,z
1/2-x,1/2+y,1/2-z
1/2-x,1/2-y,-z
1/2+x,1/2-y,1/2+z
loop_
_atom_site_type_symbol
_atom_site_label
_atom_site_fract_x
_atom_site_fract_y
_atom_site_fract_z
Si Si1 0.280542 0.980394 0.145649
Si Si2 0.926451 0.460013 0.779793
Si Si3 0.003027 0.322300 0.006149
Si Si4 0.683034 0.348544 0.523497
Si Si5 0.152993 0.697684 0.117436
Si Si6 0.939823 0.678209 0.628281
Si Si7 0.207774 0.875672 0.942982
O O1 0.217932 0.837724 0.143520
O O2 0.361002 0.944862 0.115412
O O3 0.336871 0.014784 0.219670
O O4 0.221869 0.104960 0.099259
O O5 0.893694 0.374394 0.833464
O O6 0.000000 0.386174 0.750000
O O7 0.979546 0.611115 0.812190
O O8 0.094483 0.245741 0.010281
O O9 0.980009 0.296408 0.071239
O O10 0.000000 0.500000 0.000000
O O11 0.927498 0.254281 0.945143
O O12 0.750000 0.250000 0.500000
O O13 0.674853 0.496769 0.480626
O O14 0.213080 0.589053 0.087667
O O15 0.875419 0.821302 0.619283
O O16 0.250000 0.750000 0.000000
#
# Coordination Sequence:
#
# PCOD9267147 Si02
#       7
#     8   8   8   8   8   8   8
#     4  10  22  43  60  95 128 169 217 264 328 390
#     4  10  23  39  65  91 126 182 223 257 317 406
#     4  12  22  36  65  95 126 161 216 266 327 382
#     4  12  25  38  66 102 131 168 219 280 333 396
#     4  11  21  40  67  88 134 172 207 274 333 383
#     4  10  19  38  66  89 123 168 209 257 326 379
#     4  11  20  41  67  96 136 161 211 277 339 381
#
# _framework density 19.158684000000001
#
# number of rings (size 3 to 8) (size 9 to 14) (size 15 to 20)
#    0.000    1.143    5.714    1.714    2.000    3.429 
#    0.000    0.000    0.000    0.000    0.000    0.000 
#    0.000    0.000    0.000    0.000    0.000    0.000 
#
# Total GULP energy -155887.418048 kJ/mol
# GULP energy per Si atom -5567.407787 kJ/mol
# Density = 1.911508 g / cm^3
# Si number density = 19.158684 Si / 1000 Ang^3
#
#
#
# Elastic Constant Matrix: (Units=GPa)
#
#
# Indices 1 2 3 4 5 6 
#
# 1 153.4437 45.5832 68.2553 0.0000 -11.4508 0.0000
# 2 45.5832 72.5046 35.2359 0.0000 7.2616 0.0000
# 3 68.2553 35.2359 115.0033 0.0000 0.8214 0.0000
# 4 0.0000 0.0000 0.0000 4.0252 0.0000 5.1416
# 5 -11.4508 7.2616 0.8214 0.0000 43.0577 0.0000
# 6 0.0000 0.0000 0.0000 5.1416 0.0000 28.8734
#
#
#
# Elastic Compliance Matrix: (Units=1/GPa)
#
#
# Indices 1 2 3 4 5 6 
#
# 1 0.010212 -0.004487 -0.004711 0.000000 0.003562 0.000000
# 2 -0.004487 0.018482 -0.002969 0.000000 -0.004254 0.000000
# 3 -0.004711 -0.002969 0.012408 0.000000 -0.000989 0.000000
# 4 0.000000 0.000000 0.000000 0.321589 0.000000 -0.057267
# 5 0.003562 -0.004254 -0.000989 0.000000 0.024908 0.000000
# 6 0.000000 0.000000 0.000000 -0.057267 0.000000 0.044832
#
#
# Mechanical properties :
#
#
# Convention : Reuss Voigt Hill
#
# Bulk Modulus (GPa) = 59.64124 71.01114 65.32619
# Shear Modulus (GPa) = 10.81419 27.98307 19.39863
#
# Velocity S-wave (km/s) = 2.37840 3.82592 3.18547
# Velocity P-wave (km/s) = 6.22415 7.52742 6.90660
#
# Compressibility (1/GPa) = 0.01676692
#
# Stress axis : x y z
#
# Youngs Moduli (GPa) = 97.92842 54.10583 80.59067
#
# Poissons Ratio (x) = 0.24278 0.37968
# Poissons Ratio (y) = 0.43942 0.23929
# Poissons Ratio (z) = 0.46137 0.16065
#
# Static dielectric constant tensor:
#      x y z
#    x 1.607240 0.000000 -0.022310 
#    y 0.000000 2.307340 0.000000 
#    z -0.022310 0.000000 1.684070 
# 
# From -- ./inp_files/272823.got.cif
#   From: 2010.05.17/outbox.cif.g08.bks.cpg/sg15_137_cif.got.tgz:272823.got - 2010.06.03 18:47:42.
