data_PCOD9267485
_publ_section_title
;
Structure prediction by ZEFSAII (Michael W. Deem and Ramdas Pophale) SiO2 
 PCOD9267485
Probable space group: C 2/C
;
_chemical_formula_sum "Si O2"
_cell_formula_units_Z 64
_cell_length_a 17.851800
_cell_length_b 30.716419
_cell_length_c 11.485292
_cell_angle_alpha 90.000000
_cell_angle_beta 149.363184
_cell_angle_gamma 90.000000
_cell_volume 3209.366201
_symmetry_space_group_name_H-M "C 2/C"
_symmetry_group_IT_number 15
_symmetry_cell_setting 'monoclinic'
loop_
_space_group_symop_operation_xyz
x,y,z
-x,y,1/2-z
-x,-y,-z
x,-y,1/2+z
1/2+x,1/2+y,z
1/2-x,1/2+y,1/2-z
1/2-x,1/2-y,-z
1/2+x,1/2-y,1/2+z
loop_
_atom_site_type_symbol
_atom_site_label
_atom_site_fract_x
_atom_site_fract_y
_atom_site_fract_z
Si Si1 0.365914 0.371533 0.656888
Si Si2 0.757040 0.436160 0.183210
Si Si3 0.871865 0.250124 0.834660
Si Si4 0.798359 0.779408 0.672681
Si Si5 0.331248 0.814569 0.566482
Si Si6 0.949553 0.962711 0.842565
Si Si7 0.864028 0.498082 0.159346
Si Si8 0.828140 0.410299 0.540828
O O1 0.500000 0.358637 0.750000
O O2 0.251662 0.394825 0.414815
O O3 0.308667 0.329464 0.646084
O O4 0.422874 0.410071 0.819349
O O5 0.877975 0.469543 0.295473
O O6 0.770703 0.423364 0.335911
O O7 0.598814 0.460043 0.963895
O O8 0.819493 0.270359 0.885188
O O9 0.771868 0.208698 0.666300
O O10 0.836017 0.285753 0.688460
O O11 0.041250 0.235892 0.067436
O O12 0.750000 0.750000 0.500000
O O13 0.500000 0.814893 0.750000
O O14 0.272965 0.863556 0.508047
O O15 0.783145 0.977600 0.593159
O O16 0.000000 0.000000 0.000000
O O17 0.819901 0.548633 0.115501
O O18 0.000000 0.495539 0.250000
O O19 0.000000 0.404239 0.750000
#
# Coordination Sequence:
#
# PCOD9267485 Si02
#       8
#     8   8   8   8   8   8   8   8
#     4   9  21  38  63  95 124 172 210 254 327 387
#     4  10  21  40  65  86 128 169 204 263 317 379
#     4  11  24  43  69  91 129 170 212 275 317 390
#     4  12  25  41  66 102 132 169 213 264 338 391
#     4  10  22  44  67  91 124 173 220 267 325 372
#     4  10  19  39  64  88 122 166 208 258 313 374
#     4  10  21  38  59  94 121 163 209 252 314 377
#     4  10  22  37  62  92 123 165 217 252 318 385
#
# _framework density 19.941631999999998
#
# number of rings (size 3 to 8) (size 9 to 14) (size 15 to 20)
#    0.000    1.750    2.500    2.250    5.250    2.000 
#    2.250    8.750    2.750    0.000    0.000    0.000 
#    0.000    0.000    0.000    0.000    0.000    0.000 
#
# Total GULP energy -178178.007311 kJ/mol
# GULP energy per Si atom -5568.062728 kJ/mol
# Density = 1.989624 g / cm^3
# Si number density = 19.941632 Si / 1000 Ang^3
#
#
#
# Elastic Constant Matrix: (Units=GPa)
#
#
# Indices 1 2 3 4 5 6 
#
# 1 40.3587 24.6539 -10.5229 0.0000 3.7335 0.0000
# 2 24.6539 133.4930 -2.9120 0.0000 -1.0646 0.0000
# 3 -10.5229 -2.9120 67.9442 0.0000 1.0711 0.0000
# 4 0.0000 0.0000 0.0000 28.2784 0.0000 -8.4126
# 5 3.7335 -1.0646 1.0711 0.0000 27.4406 0.0000
# 6 0.0000 0.0000 0.0000 -8.4126 0.0000 27.1277
#
#
#
# Elastic Compliance Matrix: (Units=1/GPa)
#
#
# Indices 1 2 3 4 5 6 
#
# 1 0.029649 -0.005414 0.004429 0.000000 -0.004417 0.000000
# 2 -0.005414 0.008489 -0.000492 0.000000 0.001085 0.000000
# 3 0.004429 -0.000492 0.015402 0.000000 -0.001223 0.000000
# 4 0.000000 0.000000 0.000000 0.038957 0.000000 0.012081
# 5 -0.004417 0.001085 -0.001223 0.000000 0.037133 0.000000
# 6 0.000000 0.000000 0.000000 0.012081 0.000000 0.040609
#
#
# Mechanical properties :
#
#
# Convention : Reuss Voigt Hill
#
# Bulk Modulus (GPa) = 19.76809 29.35933 24.56371
# Shear Modulus (GPa) = 26.30832 31.94114 29.12473
#
# Velocity S-wave (km/s) = 3.63611 4.00651 3.82579
# Velocity P-wave (km/s) = 5.25004 6.01310 5.64448
#
# Compressibility (1/GPa) = 0.05058657
#
# Stress axis : x y z
#
# Youngs Moduli (GPa) = 33.72829 117.80139 64.92593
#
# Poissons Ratio (x) = 0.63780 -0.28759
# Poissons Ratio (y) = 0.18261 0.03193
# Poissons Ratio (z) = -0.14940 0.05794
#
# Static dielectric constant tensor:
#      x y z
#    x 1.811780 0.000000 -0.136940 
#    y 0.000000 1.751560 0.000000 
#    z -0.136940 0.000000 1.849310 
# 
# From -- ./inp_files/108666.got.cif
#   From: 2010.05.17/outbox.cif.g08.bks.cpg/sg15_55_cif.got.tgz:108666.got - 2010.06.03 18:47:42.
