data_PCOD9267452
_publ_section_title
;
Structure prediction by ZEFSAII (Michael W. Deem and Ramdas Pophale) SiO2 
 PCOD9267452
Probable space group: C 2/C
;
_chemical_formula_sum "Si O2"
_cell_formula_units_Z 48
_cell_length_a 8.605376
_cell_length_b 21.140587
_cell_length_c 13.061906
_cell_angle_alpha 90.000000
_cell_angle_beta 49.727878
_cell_angle_gamma 90.000000
_cell_volume 1813.043718
_symmetry_space_group_name_H-M "C 2/C"
_symmetry_group_IT_number 15
_symmetry_cell_setting 'monoclinic'
loop_
_space_group_symop_operation_xyz
x,y,z
-x,y,1/2-z
-x,-y,-z
x,-y,1/2+z
1/2+x,1/2+y,z
1/2-x,1/2+y,1/2-z
1/2-x,1/2-y,-z
1/2+x,1/2-y,1/2+z
loop_
_atom_site_type_symbol
_atom_site_label
_atom_site_fract_x
_atom_site_fract_y
_atom_site_fract_z
Si Si1 0.974222 0.759738 0.154073
Si Si2 0.441901 0.929825 0.389405
Si Si3 0.844174 0.642615 0.521772
Si Si4 0.969552 0.999754 0.876068
Si Si5 0.299269 0.304806 0.056719
Si Si6 0.642567 0.600869 0.423308
O O1 0.016616 0.704892 0.052052
O O2 0.000000 0.725397 0.250000
O O3 0.775156 0.788642 0.187879
O O4 0.128675 0.818692 0.109997
O O5 0.500000 0.954809 0.250000
O O6 0.599822 0.906087 0.411694
O O7 0.259240 0.972562 0.513100
O O8 0.336354 0.863654 0.410541
O O9 0.835148 0.607823 0.415125
O O10 0.000000 0.023515 0.750000
O O11 0.001309 0.057138 0.941280
O O12 0.131557 0.943049 0.828266
O O13 0.250000 0.250000 0.000000
O O14 0.531355 0.332718 0.947767
#
# Coordination Sequence:
#
# PCOD9267452 Si02
#       6
#     8   8   8   8   8   8
#     4  10  20  35  57  87 129 175 218 268 338 412
#     4  11  23  40  66 103 136 177 233 286 344 406
#     4  10  21  37  58  90 129 169 217 280 338 397
#     4  10  23  45  69  94 130 182 231 281 341 406
#     4  10  19  39  63  92 135 180 226 270 339 423
#     4   9  22  41  64  91 130 177 225 275 343 413
#
# _framework density 26.474816000000001
#
# number of rings (size 3 to 8) (size 9 to 14) (size 15 to 20)
#    0.000    2.000    1.667    1.000    0.000    8.667 
#    0.000    1.667    0.000    0.000    0.000    0.000 
#    0.000    0.000    0.000    0.000    0.000    0.000 
#
# Total GULP energy -133765.618226 kJ/mol
# GULP energy per Si atom -5573.567426 kJ/mol
# Density = 2.641456 g / cm^3
# Si number density = 26.474816 Si / 1000 Ang^3
#
#
#
# Elastic Constant Matrix: (Units=GPa)
#
#
# Indices 1 2 3 4 5 6 
#
# 1 150.5108 51.1900 40.9643 0.0000 41.7080 0.0000
# 2 51.1900 127.0666 22.5683 0.0000 12.1137 0.0000
# 3 40.9643 22.5683 75.8030 0.0000 21.1016 0.0000
# 4 0.0000 0.0000 0.0000 26.7503 0.0000 15.8089
# 5 41.7080 12.1137 21.1016 0.0000 40.8968 0.0000
# 6 0.0000 0.0000 0.0000 15.8089 0.0000 46.9713
#
#
#
# Elastic Compliance Matrix: (Units=1/GPa)
#
#
# Indices 1 2 3 4 5 6 
#
# 1 0.010811 -0.003074 -0.002465 0.000000 -0.008843 0.000000
# 2 -0.003074 0.009251 -0.001405 0.000000 0.001120 0.000000
# 3 -0.002465 -0.001405 0.016496 0.000000 -0.005581 0.000000
# 4 0.000000 0.000000 0.000000 0.046664 0.000000 -0.015706
# 5 -0.008843 0.001120 -0.005581 0.000000 0.036018 0.000000
# 6 0.000000 0.000000 0.000000 -0.015706 0.000000 0.026576
#
#
# Mechanical properties :
#
#
# Convention : Reuss Voigt Hill
#
# Bulk Modulus (GPa) = 44.11201 64.75842 54.43521
# Shear Modulus (GPa) = 29.89317 38.83419 34.36368
#
# Velocity S-wave (km/s) = 3.36388 3.83408 3.60665
# Velocity P-wave (km/s) = 5.63787 6.64182 6.16033
#
# Compressibility (1/GPa) = 0.02266956
#
# Stress axis : x y z
#
# Youngs Moduli (GPa) = 92.49712 108.09443 60.61974
#
# Poissons Ratio (x) = 0.33233 0.14945
# Poissons Ratio (y) = 0.28438 0.08515
# Poissons Ratio (z) = 0.22805 0.15183
#
# Static dielectric constant tensor:
#      x y z
#    x 2.176080 0.000000 0.030140 
#    y 0.000000 2.118990 0.000000 
#    z 0.030140 0.000000 2.382750 
# 
# From -- ./inp_files/79741.got.cif
#   From: 2010.05.17/outbox.cif.g08.bks.cpg/sg15_40_cif.got.tgz:79741.got - 2010.06.03 18:47:42.
