data_PCOD9267581
_publ_section_title
;
Structure prediction by ZEFSAII (Michael W. Deem and Ramdas Pophale) SiO2 
 PCOD9267581
Probable space group: C 2/C
;
_chemical_formula_sum "Si O2"
_cell_formula_units_Z 48
_cell_length_a 8.913879
_cell_length_b 23.670002
_cell_length_c 12.270944
_cell_angle_alpha 90.000000
_cell_angle_beta 70.397844
_cell_angle_gamma 90.000000
_cell_volume 2439.015574
_symmetry_space_group_name_H-M "C 2/C"
_symmetry_group_IT_number 15
_symmetry_cell_setting 'monoclinic'
loop_
_space_group_symop_operation_xyz
x,y,z
-x,y,1/2-z
-x,-y,-z
x,-y,1/2+z
1/2+x,1/2+y,z
1/2-x,1/2+y,1/2-z
1/2-x,1/2-y,-z
1/2+x,1/2-y,1/2+z
loop_
_atom_site_type_symbol
_atom_site_label
_atom_site_fract_x
_atom_site_fract_y
_atom_site_fract_z
Si Si1 0.692240 0.332507 0.223357
Si Si2 0.809057 0.297090 0.787805
Si Si3 0.314255 0.605583 0.327336
Si Si4 0.175603 0.520989 0.186504
Si Si5 0.224375 0.883838 0.990889
Si Si6 0.851033 0.910843 0.070495
O O1 0.500000 0.332324 0.250000
O O2 0.744912 0.267517 0.208867
O O3 0.718080 0.363813 0.330792
O O4 0.763449 0.367357 0.104699
O O5 0.758004 0.335855 0.698963
O O6 0.739994 0.328361 0.911349
O O7 0.000000 0.298041 0.750000
O O8 0.500000 0.605457 0.250000
O O9 0.234355 0.555439 0.277646
O O10 0.297703 0.597703 0.459635
O O11 0.171352 0.567568 0.090810
O O12 0.295783 0.471554 0.126582
O O13 0.000000 0.497863 0.250000
O O14 0.042356 0.905146 0.028447
#
# Coordination Sequence:
#
# PCOD9267581 Si02
#       6
#     8   8   8   8   8   8
#     4   9  21  37  63  93 125 162 207 247 294 369
#     4  10  20  40  64  93 124 164 204 249 304 358
#     4  11  22  39  67  90 123 159 208 254 307 364
#     4  11  25  42  63  89 125 161 206 254 311 365
#     4  10  19  39  67  90 119 166 211 244 294 373
#     4  11  23  40  62  95 122 161 207 254 307 360
#
# _framework density 19.680071000000002
#
# number of rings (size 3 to 8) (size 9 to 14) (size 15 to 20)
#    0.000    1.667    3.333    3.000    2.333    2.000 
#    3.000    0.833    0.000    0.000    0.000    0.000 
#    0.000    0.000    0.000    0.000    0.000    0.000 
#
# Total GULP energy -134112.241526 kJ/mol
# GULP energy per Si atom -5588.010064 kJ/mol
# Density = 1.963528 g / cm^3
# Si number density = 19.680071 Si / 1000 Ang^3
#
#
#
# Elastic Constant Matrix: (Units=GPa)
#
#
# Indices 1 2 3 4 5 6 
#
# 1 56.7777 27.6498 32.8005 0.0000 7.0588 0.0000
# 2 27.6498 110.4892 71.9308 0.0000 5.6507 0.0000
# 3 32.8005 71.9308 153.1836 0.0000 19.2037 0.0000
# 4 0.0000 0.0000 0.0000 12.5043 0.0000 -10.8370
# 5 7.0588 5.6507 19.2037 0.0000 23.7462 0.0000
# 6 0.0000 0.0000 0.0000 -10.8370 0.0000 23.2093
#
#
#
# Elastic Compliance Matrix: (Units=1/GPa)
#
#
# Indices 1 2 3 4 5 6 
#
# 1 0.021175 -0.003533 -0.002438 0.000000 -0.003482 0.000000
# 2 -0.003533 0.013716 -0.006017 0.000000 0.002652 0.000000
# 3 -0.002438 -0.006017 0.010689 0.000000 -0.006487 0.000000
# 4 0.000000 0.000000 0.000000 0.134331 0.000000 0.062722
# 5 -0.003482 0.002652 -0.006487 0.000000 0.047762 0.000000
# 6 0.000000 0.000000 0.000000 0.062722 0.000000 0.072373
#
#
# Mechanical properties :
#
#
# Convention : Reuss Voigt Hill
#
# Bulk Modulus (GPa) = 46.29020 65.02364 55.65692
# Shear Modulus (GPa) = 15.09552 24.42992 19.76272
#
# Velocity S-wave (km/s) = 2.77256 3.52711 3.17235
# Velocity P-wave (km/s) = 5.81566 7.04978 6.46225
#
# Compressibility (1/GPa) = 0.02160285
#
# Stress axis : x y z
#
# Youngs Moduli (GPa) = 47.22595 72.90631 93.55612
#
# Poissons Ratio (x) = 0.25761 0.22812
# Poissons Ratio (y) = 0.16687 0.56289
# Poissons Ratio (z) = 0.11515 0.43865
#
# Static dielectric constant tensor:
#      x y z
#    x 1.683690 0.000000 -0.011570 
#    y 0.000000 1.671530 0.000000 
#    z -0.011570 0.000000 1.689600 
# 
# From -- ./inp_files/79779.got.cif
#   From: 2010.05.17/outbox.cif.g08.bks.cpg/sg15_40_cif.got.tgz:79779.got - 2010.06.03 18:47:42.
