data_PCOD9267142
_publ_section_title
;
Structure prediction by ZEFSAII (Michael W. Deem and Ramdas Pophale) SiO2 
 PCOD9267142
Probable space group: C 2/C
;
_chemical_formula_sum "Si O2"
_cell_formula_units_Z 36
_cell_length_a 10.970559
_cell_length_b 11.029801
_cell_length_c 17.624617
_cell_angle_alpha 90.000000
_cell_angle_beta 112.713908
_cell_angle_gamma 90.000000
_cell_volume 1967.235329
_symmetry_space_group_name_H-M "C 2/C"
_symmetry_group_IT_number 15
_symmetry_cell_setting 'monoclinic'
loop_
_space_group_symop_operation_xyz
x,y,z
-x,y,1/2-z
-x,-y,-z
x,-y,1/2+z
1/2+x,1/2+y,z
1/2-x,1/2+y,1/2-z
1/2-x,1/2-y,-z
1/2+x,1/2-y,1/2+z
loop_
_atom_site_type_symbol
_atom_site_label
_atom_site_fract_x
_atom_site_fract_y
_atom_site_fract_z
Si Si1 0.791340 0.034220 0.617300
Si Si2 0.641494 0.434495 0.529542
Si Si3 0.833810 0.373061 0.027750
Si Si4 0.617733 0.222505 0.645153
Si Si5 0.500000 0.633284 0.250000
O O1 0.838950 0.106337 0.553409
O O2 0.731804 0.122975 0.665164
O O3 0.679720 0.944601 0.555321
O O4 0.909429 0.951277 0.675605
O O5 0.500000 0.500000 0.500000
O O6 0.755807 0.536297 0.565735
O O7 0.646682 0.328278 0.591237
O O8 0.979925 0.340021 0.087567
O O9 0.750000 0.250000 0.000000
O O10 0.592902 0.283722 0.720033
#
# Coordination Sequence:
#
# PCOD9267142 Si02
#       5
#     8   8   8   8   4
#     4  10  24  41  63  94 121 166 209 256 305 366
#     4  10  19  38  66  88 116 156 211 248 296 358
#     4  10  19  38  66  89 115 157 209 255 291 361
#     4  12  22  43  63  92 125 162 211 256 306 368
#     4  12  24  40  56  92 136 164 192 256 328 364
#
# _framework density 18.299795
#
# number of rings (size 3 to 8) (size 9 to 14) (size 15 to 20)
#    1.333    0.000    6.667    1.333    0.000    1.778 
#    4.000    0.000    0.000    0.000    0.000    0.000 
#    0.000    0.000    0.000    0.000    0.000    0.000 
#
# Total GULP energy -100284.611930 kJ/mol
# GULP energy per Si atom -5571.367329 kJ/mol
# Density = 1.825814 g / cm^3
# Si number density = 18.299795 Si / 1000 Ang^3
#
#
#
# Elastic Constant Matrix: (Units=GPa)
#
#
# Indices 1 2 3 4 5 6 
#
# 1 73.6301 33.9829 0.9937 0.0000 -20.7677 0.0000
# 2 33.9829 75.3397 1.8723 0.0000 -17.1151 0.0000
# 3 0.9937 1.8723 30.8623 0.0000 -20.8187 0.0000
# 4 0.0000 0.0000 0.0000 14.8789 0.0000 -12.9400
# 5 -20.7677 -17.1151 -20.8187 0.0000 32.9830 0.0000
# 6 0.0000 0.0000 0.0000 -12.9400 0.0000 51.1042
#
#
#
# Elastic Compliance Matrix: (Units=1/GPa)
#
#
# Indices 1 2 3 4 5 6 
#
# 1 0.021030 -0.005804 0.011451 0.000000 0.017457 0.000000
# 2 -0.005804 0.017742 0.004973 0.000000 0.008691 0.000000
# 3 0.011451 0.004973 0.066762 0.000000 0.051931 0.000000
# 4 0.000000 0.000000 0.000000 0.086189 0.000000 0.021824
# 5 0.017457 0.008691 0.051931 0.000000 0.078599 0.000000
# 6 0.000000 0.000000 0.000000 0.021824 0.000000 0.025094
#
#
# Mechanical properties :
#
#
# Convention : Reuss Voigt Hill
#
# Bulk Modulus (GPa) = 7.88810 28.17000 18.02905
# Shear Modulus (GPa) = 15.80109 29.32544 22.56327
#
# Velocity S-wave (km/s) = 2.94165 4.00747 3.51519
# Velocity P-wave (km/s) = 3.98216 6.06960 5.13311
#
# Compressibility (1/GPa) = 0.12677331
#
# Stress axis : x y z
#
# Youngs Moduli (GPa) = 47.55176 56.36318 14.97848
#
# Poissons Ratio (x) = 0.32716 -0.17152
# Poissons Ratio (y) = 0.27601 -0.07449
# Poissons Ratio (z) = -0.54452 -0.28029
#
# Static dielectric constant tensor:
#      x y z
#    x 1.630370 0.000000 -0.023160 
#    y 0.000000 1.631780 0.000000 
#    z -0.023160 0.000000 1.618130 
# 
# From -- ./inp_files/195766.got.cif
#   From: 2010.05.17/outbox.cif.g08.bks.cpg/sg15_98_cif.got.tgz:195766.got - 2010.06.03 18:47:42.
