data_PCOD9267015
_publ_section_title
;
Structure prediction by ZEFSAII (Michael W. Deem and Ramdas Pophale) SiO2 
 PCOD9267015
Probable space group: C 2/C
;
_chemical_formula_sum "Si O2"
_cell_formula_units_Z 48
_cell_length_a 23.134960
_cell_length_b 7.745631
_cell_length_c 17.070915
_cell_angle_alpha 90.000000
_cell_angle_beta 123.940232
_cell_angle_gamma 90.000000
_cell_volume 2537.825759
_symmetry_space_group_name_H-M "C 2/C"
_symmetry_group_IT_number 15
_symmetry_cell_setting 'monoclinic'
loop_
_space_group_symop_operation_xyz
x,y,z
-x,y,1/2-z
-x,-y,-z
x,-y,1/2+z
1/2+x,1/2+y,z
1/2-x,1/2+y,1/2-z
1/2-x,1/2-y,-z
1/2+x,1/2-y,1/2+z
loop_
_atom_site_type_symbol
_atom_site_label
_atom_site_fract_x
_atom_site_fract_y
_atom_site_fract_z
Si Si1 0.330886 0.857679 0.006190
Si Si2 0.984106 0.223253 0.850622
Si Si3 0.531318 0.175178 0.991276
Si Si4 0.884011 0.672439 0.139263
Si Si5 0.181027 0.954308 0.889583
Si Si6 0.959271 0.838122 0.792389
O O1 0.394582 0.848579 0.994349
O O2 0.322323 0.666649 0.035902
O O3 0.346504 0.994622 0.088435
O O4 0.258341 0.924437 0.915328
O O5 0.926477 0.320347 0.753497
O O6 0.057879 0.307191 0.884973
O O7 0.991637 0.028422 0.826270
O O8 0.964440 0.213091 0.926437
O O9 0.477744 0.242316 0.885511
O O10 0.500000 0.000000 0.000000
O O11 0.836661 0.845586 0.106004
O O12 0.120564 0.875802 0.788677
O O13 0.000000 0.752344 0.750000
#
# Coordination Sequence:
#
# PCOD9267015 Si02
#       6
#     8   8   8   8   8   8
#     4  11  22  38  62  88 126 155 203 252 307 363
#     4  10  20  37  62  93 117 155 211 253 300 362
#     4  12  24  35  59  95 124 154 203 257 309 361
#     4  10  19  38  64  87 119 160 207 247 299 362
#     4  10  22  39  62  90 113 165 208 246 302 366
#     4  11  20  40  64  84 120 163 209 253 299 368
#
# _framework density 18.913827000000001
#
# number of rings (size 3 to 8) (size 9 to 14) (size 15 to 20)
#    0.000    1.333    6.667    1.000    2.333    0.000 
#    0.000    3.333    0.000    0.000    0.000    0.000 
#    0.000    0.000    0.000    0.000    0.000    0.000 
#
# Total GULP energy -133892.383428 kJ/mol
# GULP energy per Si atom -5578.849310 kJ/mol
# Density = 1.887078 g / cm^3
# Si number density = 18.913827 Si / 1000 Ang^3
#
#
#
# Elastic Constant Matrix: (Units=GPa)
#
#
# Indices 1 2 3 4 5 6 
#
# 1 57.1225 0.1426 10.7866 0.0000 -10.5623 0.0000
# 2 0.1426 55.6745 8.1678 0.0000 -9.1018 0.0000
# 3 10.7866 8.1678 56.0770 0.0000 -20.2715 0.0000
# 4 0.0000 0.0000 0.0000 25.9030 0.0000 -7.1415
# 5 -10.5623 -9.1018 -20.2715 0.0000 37.5742 0.0000
# 6 0.0000 0.0000 0.0000 -7.1415 0.0000 23.3407
#
#
#
# Elastic Compliance Matrix: (Units=1/GPa)
#
#
# Indices 1 2 3 4 5 6 
#
# 1 0.018715 0.000978 -0.002180 0.000000 0.004322 0.000000
# 2 0.000978 0.018836 -0.001469 0.000000 0.004045 0.000000
# 3 -0.002180 -0.001469 0.022505 0.000000 0.011173 0.000000
# 4 0.000000 0.000000 0.000000 0.042162 0.000000 0.012900
# 5 0.004322 0.004045 0.011173 0.000000 0.034836 0.000000
# 6 0.000000 0.000000 0.000000 0.012900 0.000000 0.046791
#
#
# Mechanical properties :
#
#
# Convention : Reuss Voigt Hill
#
# Bulk Modulus (GPa) = 18.27718 23.00756 20.64237
# Shear Modulus (GPa) = 24.10517 27.34873 25.72695
#
# Velocity S-wave (km/s) = 3.57385 3.80671 3.69212
# Velocity P-wave (km/s) = 5.16858 5.61357 5.39567
#
# Compressibility (1/GPa) = 0.05471303
#
# Stress axis : x y z
#
# Youngs Moduli (GPa) = 53.43433 53.09015 44.43480
#
# Poissons Ratio (x) = -0.05194 0.09687
# Poissons Ratio (y) = -0.05228 0.06530
# Poissons Ratio (z) = 0.11649 0.07801
#
# Static dielectric constant tensor:
#      x y z
#    x 1.481510 0.000000 0.193250 
#    y 0.000000 1.726050 0.000000 
#    z 0.193250 0.000000 1.512030 
# 
# From -- ./inp_files/218380.got.cif
#   From: 2010.05.17/outbox.cif.g08.bks.cpg/sg15_110_cif.got.tgz:218380.got - 2010.06.03 18:47:42.
