data_PCOD9267506
_publ_section_title
;
Structure prediction by ZEFSAII (Michael W. Deem and Ramdas Pophale) SiO2 
 PCOD9267506
Probable space group: C 2/C
;
_chemical_formula_sum "Si O2"
_cell_formula_units_Z 44
_cell_length_a 23.730092
_cell_length_b 8.843478
_cell_length_c 14.059249
_cell_angle_alpha 90.000000
_cell_angle_beta 38.923154
_cell_angle_gamma 90.000000
_cell_volume 1853.685935
_symmetry_space_group_name_H-M "C 2/C"
_symmetry_group_IT_number 15
_symmetry_cell_setting 'monoclinic'
loop_
_space_group_symop_operation_xyz
x,y,z
-x,y,1/2-z
-x,-y,-z
x,-y,1/2+z
1/2+x,1/2+y,z
1/2-x,1/2+y,1/2-z
1/2-x,1/2-y,-z
1/2+x,1/2-y,1/2+z
loop_
_atom_site_type_symbol
_atom_site_label
_atom_site_fract_x
_atom_site_fract_y
_atom_site_fract_z
Si Si1 0.648592 0.946727 0.130450
Si Si2 0.598599 0.252552 0.088221
Si Si3 0.847085 0.041919 0.559545
Si Si4 0.500000 0.287223 0.750000
Si Si5 0.758632 0.358881 0.662403
Si Si6 0.598101 0.953665 0.408434
O O1 0.571129 0.826062 0.204840
O O2 0.649097 0.944551 0.241752
O O3 0.627681 0.114228 0.117460
O O4 0.734259 0.891531 0.958626
O O5 0.500000 0.299228 0.250000
O O6 0.662086 0.399599 0.001635
O O7 0.589783 0.185435 0.992659
O O8 0.825460 0.951059 0.685381
O O9 0.942546 0.114744 0.402085
O O10 0.780042 0.184109 0.653577
O O11 0.846139 0.430724 0.599674
O O12 0.500000 0.000000 0.500000
#
# Coordination Sequence:
#
# PCOD9267506 Si02
#       6
#     8   8   8   4   8   8
#     4  10  19  39  64  94 122 162 204 256 311 374
#     4  11  20  37  64  91 123 162 203 254 307 364
#     4  11  22  43  64  93 126 170 211 257 312 371
#     4  10  20  38  70  92 126 166 210 256 312 372
#     4  10  23  40  63  89 130 166 206 261 314 365
#     4  11  20  37  67  94 125 164 208 254 315 376
#
# _framework density 23.73649
#
# number of rings (size 3 to 8) (size 9 to 14) (size 15 to 20)
#    0.000    1.455    3.636    4.364    0.000    0.000 
#    0.000   19.091    0.000    0.000    0.000    0.000 
#    0.000    0.000    0.000    0.000    0.000    0.000 
#
# Total GULP energy -122675.611260 kJ/mol
# GULP energy per Si atom -5576.164148 kJ/mol
# Density = 2.368246 g / cm^3
# Si number density = 23.736490 Si / 1000 Ang^3
#
#
#
# Elastic Constant Matrix: (Units=GPa)
#
#
# Indices 1 2 3 4 5 6 
#
# 1 49.2706 20.7307 7.5898 0.0002 16.8373 -0.0001
# 2 20.7307 157.5716 70.0973 -0.0001 8.4292 -0.0002
# 3 7.5898 70.0973 150.7599 0.0002 34.5912 -0.0001
# 4 0.0002 -0.0001 0.0002 55.9536 0.0000 -9.5659
# 5 16.8373 8.4292 34.5912 0.0000 40.4097 0.0000
# 6 -0.0001 -0.0002 -0.0001 -9.5659 0.0000 11.4239
#
#
#
# Elastic Compliance Matrix: (Units=1/GPa)
#
#
# Indices 1 2 3 4 5 6 
#
# 1 0.026061 -0.004392 0.003748 0.000000 -0.013150 0.000000
# 2 -0.004392 0.008859 -0.004845 0.000000 0.004130 0.000000
# 3 0.003748 -0.004845 0.010980 0.000000 -0.009950 0.000000
# 4 0.000000 0.000000 0.000000 0.020858 0.000000 0.017465
# 5 -0.013150 0.004130 -0.009950 0.000000 0.037882 0.000000
# 6 0.000000 0.000000 0.000000 0.017465 0.000000 0.102160
#
#
# Mechanical properties :
#
#
# Convention : Reuss Voigt Hill
#
# Bulk Modulus (GPa) = 28.63736 61.60419 45.12077
# Shear Modulus (GPa) = 21.79408 38.83638 30.31523
#
# Velocity S-wave (km/s) = 3.03342 4.04932 3.57761
# Velocity P-wave (km/s) = 4.93555 6.91899 6.00966
#
# Compressibility (1/GPa) = 0.03491943
#
# Stress axis : x y z
#
# Youngs Moduli (GPa) = 38.37186 112.88180 91.07175
#
# Poissons Ratio (x) = 0.49581 -0.34130
# Poissons Ratio (y) = 0.16854 0.44129
# Poissons Ratio (z) = -0.14380 0.54697
#
# Static dielectric constant tensor:
#      x y z
#    x 2.040770 0.000000 -0.154230 
#    y 0.000000 1.954120 0.000000 
#    z -0.154230 0.000000 2.091960 
# 
# From -- ./inp_files/176451.got.cif
#   From: 2010.05.17/outbox.cif.g08.bks.cpg/sg15_89_cif.got.tgz:176451.got - 2010.06.03 18:47:42.
