data_PCOD9267476
_publ_section_title
;
Structure prediction by ZEFSAII (Michael W. Deem and Ramdas Pophale) SiO2 
 PCOD9267476
Probable space group: C 2/C
;
_chemical_formula_sum "Si O2"
_cell_formula_units_Z 52
_cell_length_a 13.206937
_cell_length_b 9.792069
_cell_length_c 20.353618
_cell_angle_alpha 90.000000
_cell_angle_beta 80.058389
_cell_angle_gamma 90.000000
_cell_volume 2592.671275
_symmetry_space_group_name_H-M "C 2/C"
_symmetry_group_IT_number 15
_symmetry_cell_setting 'monoclinic'
loop_
_space_group_symop_operation_xyz
x,y,z
-x,y,1/2-z
-x,-y,-z
x,-y,1/2+z
1/2+x,1/2+y,z
1/2-x,1/2+y,1/2-z
1/2-x,1/2-y,-z
1/2+x,1/2-y,1/2+z
loop_
_atom_site_type_symbol
_atom_site_label
_atom_site_fract_x
_atom_site_fract_y
_atom_site_fract_z
Si Si1 0.612347 0.783958 0.770647
Si Si2 0.410745 0.552516 0.621989
Si Si3 0.326838 0.743679 0.170189
Si Si4 0.837727 0.471557 0.610227
Si Si5 0.899828 0.908340 0.886054
Si Si6 0.500000 0.719533 0.250000
Si Si7 0.867324 0.747119 0.009681
O O1 0.500000 0.802279 0.750000
O O2 0.611503 0.642612 0.811516
O O3 0.710481 0.774114 0.710778
O O4 0.631231 0.899717 0.824320
O O5 0.362261 0.403068 0.638047
O O6 0.533309 0.536972 0.599841
O O7 0.373602 0.633040 0.562706
O O8 0.405705 0.786336 0.220583
O O9 0.340272 0.866258 0.117198
O O10 0.719072 0.435751 0.609179
O O11 0.895435 0.392161 0.544508
O O12 0.942847 0.868684 0.810785
O O13 0.923864 0.789992 0.936551
O O14 0.750000 0.750000 0.000000
#
# Coordination Sequence:
#
# PCOD9267476 Si02
#       7
#     8   8   8   8   8   4   8
#     4  11  22  36  58  89 126 161 204 251 301 360
#     4  10  22  37  62  88 116 165 213 243 301 364
#     4  11  22  37  58  91 129 152 202 253 309 357
#     4  10  21  38  58  91 124 159 201 253 308 358
#     4  10  19  39  64  87 118 160 212 248 291 371
#     4  10  22  36  60  92 118 162 190 252 308 358
#     4   9  20  40  62  86 120 167 207 251 300 361
#
# _framework density 20.056535
#
# number of rings (size 3 to 8) (size 9 to 14) (size 15 to 20)
#    0.000    1.846    1.538    2.308    7.538    0.000 
#    0.000    6.154    0.000    5.538    0.000    0.000 
#    0.000    0.000    0.000    0.000    0.000    0.000 
#
# Total GULP energy -144892.703102 kJ/mol
# GULP energy per Si atom -5572.796273 kJ/mol
# Density = 2.001088 g / cm^3
# Si number density = 20.056535 Si / 1000 Ang^3
#
#
#
# Elastic Constant Matrix: (Units=GPa)
#
#
# Indices 1 2 3 4 5 6 
#
# 1 111.9558 39.6419 37.1915 0.0000 16.3077 0.0000
# 2 39.6419 95.4889 28.8614 0.0000 15.0587 0.0000
# 3 37.1915 28.8614 78.6991 0.0000 18.4770 0.0000
# 4 0.0000 0.0000 0.0000 22.6065 0.0000 1.8794
# 5 16.3077 15.0587 18.4770 0.0000 28.9774 0.0000
# 6 0.0000 0.0000 0.0000 1.8794 0.0000 24.8785
#
#
#
# Elastic Compliance Matrix: (Units=1/GPa)
#
#
# Indices 1 2 3 4 5 6 
#
# 1 0.011716 -0.003347 -0.003728 0.000000 -0.002477 0.000000
# 2 -0.003347 0.013133 -0.002440 0.000000 -0.003386 0.000000
# 3 -0.003728 -0.002440 0.017139 0.000000 -0.007562 0.000000
# 4 0.000000 0.000000 0.000000 0.044515 0.000000 -0.003363
# 5 -0.002477 -0.003386 -0.007562 0.000000 0.042485 0.000000
# 6 0.000000 0.000000 0.000000 -0.003363 0.000000 0.040449
#
#
# Mechanical properties :
#
#
# Convention : Reuss Voigt Hill
#
# Bulk Modulus (GPa) = 43.55533 55.28149 49.41841
# Shear Modulus (GPa) = 25.49466 27.32239 26.40853
#
# Velocity S-wave (km/s) = 3.56917 3.69490 3.63258
# Velocity P-wave (km/s) = 6.22485 6.76947 6.50286
#
# Compressibility (1/GPa) = 0.02295930
#
# Stress axis : x y z
#
# Youngs Moduli (GPa) = 85.35077 76.14330 58.34770
#
# Poissons Ratio (x) = 0.25482 0.21752
# Poissons Ratio (y) = 0.28563 0.14236
# Poissons Ratio (z) = 0.31818 0.18578
#
# Static dielectric constant tensor:
#      x y z
#    x 1.747360 0.000000 0.025730 
#    y 0.000000 1.739790 0.000000 
#    z 0.025730 0.000000 1.776310 
# 
# From -- ./inp_files/242386.got.cif
#   From: 2010.05.17/outbox.cif.g08.bks.cpg/sg15_122_cif.got.tgz:242386.got - 2010.06.03 18:47:42.
