data_PCOD9267966
_publ_section_title
;
Structure prediction by ZEFSAII (Michael W. Deem and Ramdas Pophale) SiO2 
 PCOD9267966
Probable space group: C 2/C
;
_chemical_formula_sum "Si O2"
_cell_formula_units_Z 40
_cell_length_a 8.553713
_cell_length_b 11.551370
_cell_length_c 16.128126
_cell_angle_alpha 90.000000
_cell_angle_beta 112.654759
_cell_angle_gamma 90.000000
_cell_volume 1470.617302
_symmetry_space_group_name_H-M "C 2/C"
_symmetry_group_IT_number 15
_symmetry_cell_setting 'monoclinic'
loop_
_space_group_symop_operation_xyz
x,y,z
-x,y,1/2-z
-x,-y,-z
x,-y,1/2+z
1/2+x,1/2+y,z
1/2-x,1/2+y,1/2-z
1/2-x,1/2-y,-z
1/2+x,1/2-y,1/2+z
loop_
_atom_site_type_symbol
_atom_site_label
_atom_site_fract_x
_atom_site_fract_y
_atom_site_fract_z
Si Si1 0.500000 0.293645 0.750000
Si Si2 0.000000 0.385566 0.750000
Si Si3 0.051155 0.239426 0.928168
Si Si4 0.327103 0.093668 0.784525
Si Si5 0.407935 0.501765 0.115685
Si Si6 0.896436 0.400329 0.025925
O O1 0.334335 0.213938 0.736125
O O2 0.520953 0.382075 0.830332
O O3 0.962914 0.312393 0.659990
O O4 0.847571 0.475247 0.738211
O O5 0.994553 0.108242 0.898500
O O6 0.930660 0.291247 0.974431
O O7 0.250000 0.250000 0.000000
O O8 0.194143 0.063497 0.829177
O O9 0.507476 0.111329 0.869041
O O10 0.288459 0.548285 0.018307
O O11 0.000000 0.500000 0.000000
#
# Coordination Sequence:
#
# PCOD9267966 Si02
#       6
#     4   4   8   8   8   8
#     4  11  27  40  58 102 125 159 220 260 312 387
#     4  11  21  36  64  98 121 171 218 250 328 375
#     4  12  21  37  69  98 125 171 218 256 318 389
#     4  10  22  42  64  86 129 168 208 267 313 375
#     4  11  23  40  62  89 130 161 208 267 313 375
#     4  10  19  41  63  91 125 169 212 259 323 375
#
# _framework density 27.199462
#
# number of rings (size 3 to 8) (size 9 to 14) (size 15 to 20)
#    0.000    1.200    8.000    0.600    2.800    2.400 
#    0.000    1.000    0.000    0.000    0.000    0.000 
#    0.000    0.000    0.000    0.000    0.000    0.000 
#
# Total GULP energy -111953.331920 kJ/mol
# GULP energy per Si atom -5597.666596 kJ/mol
# Density = 2.713755 g / cm^3
# Si number density = 27.199462 Si / 1000 Ang^3
#
#
#
# Elastic Constant Matrix: (Units=GPa)
#
#
# Indices 1 2 3 4 5 6 
#
# 1 60.4880 63.9696 24.1507 0.0000 -13.9042 0.0000
# 2 63.9696 220.2103 48.5558 0.0000 -2.2683 0.0000
# 3 24.1507 48.5558 98.2445 0.0000 0.1289 0.0000
# 4 0.0000 0.0000 0.0000 48.8695 0.0000 -9.0474
# 5 -13.9042 -2.2683 0.1289 0.0000 40.4229 0.0000
# 6 0.0000 0.0000 0.0000 -9.0474 0.0000 49.3882
#
#
#
# Elastic Compliance Matrix: (Units=1/GPa)
#
#
# Indices 1 2 3 4 5 6 
#
# 1 0.027501 -0.007185 -0.003221 0.000000 0.009067 0.000000
# 2 -0.007185 0.006977 -0.001679 0.000000 -0.002075 0.000000
# 3 -0.003221 -0.001679 0.011802 0.000000 -0.001240 0.000000
# 4 0.000000 0.000000 0.000000 0.021181 0.000000 0.003880
# 5 0.009067 -0.002075 -0.001240 0.000000 0.027745 0.000000
# 6 0.000000 0.000000 0.000000 0.003880 0.000000 0.020959
#
#
# Mechanical properties :
#
#
# Convention : Reuss Voigt Hill
#
# Bulk Modulus (GPa) = 45.23017 72.47722 58.85369
# Shear Modulus (GPa) = 33.85099 43.88724 38.86912
#
# Velocity S-wave (km/s) = 3.53164 4.02124 3.78437
# Velocity P-wave (km/s) = 5.77019 6.94729 6.38592
#
# Compressibility (1/GPa) = 0.02210914
#
# Stress axis : x y z
#
# Youngs Moduli (GPa) = 36.36201 143.32140 84.73034
#
# Poissons Ratio (x) = 1.02980 0.27292
# Poissons Ratio (y) = 0.26127 0.14230
# Poissons Ratio (z) = 0.11713 0.24070
#
# Static dielectric constant tensor:
#      x y z
#    x 2.201700 0.000000 0.057610 
#    y 0.000000 2.126230 0.000000 
#    z 0.057610 0.000000 2.047610 
# 
# From -- ./inp_files/196362.got.cif
#   From: 2010.05.17/outbox.cif.g08.bks.cpg/sg15_99_cif.got.tgz:196362.got - 2010.06.03 18:47:42.
