data_PCOD9267678
_publ_section_title
;
Structure prediction by ZEFSAII (Michael W. Deem and Ramdas Pophale) SiO2 
 PCOD9267678
Probable space group: C 2/C
;
_chemical_formula_sum "Si O2"
_cell_formula_units_Z 48
_cell_length_a 13.890201
_cell_length_b 12.474966
_cell_length_c 14.707889
_cell_angle_alpha 90.000000
_cell_angle_beta 79.974478
_cell_angle_gamma 90.000000
_cell_volume 2509.663810
_symmetry_space_group_name_H-M "C 2/C"
_symmetry_group_IT_number 15
_symmetry_cell_setting 'monoclinic'
loop_
_space_group_symop_operation_xyz
x,y,z
-x,y,1/2-z
-x,-y,-z
x,-y,1/2+z
1/2+x,1/2+y,z
1/2-x,1/2+y,1/2-z
1/2-x,1/2-y,-z
1/2+x,1/2-y,1/2+z
loop_
_atom_site_type_symbol
_atom_site_label
_atom_site_fract_x
_atom_site_fract_y
_atom_site_fract_z
Si Si1 0.993661 0.350690 0.419124
Si Si2 0.325702 0.868950 0.234453
Si Si3 0.101882 0.173756 0.181322
Si Si4 0.136866 0.264746 0.551877
Si Si5 0.815449 0.950844 0.400876
Si Si6 0.332693 0.011790 0.410424
O O1 0.065946 0.383705 0.325093
O O2 0.064704 0.306369 0.485266
O O3 0.925588 0.252937 0.396903
O O4 0.921312 0.449871 0.446559
O O5 0.326189 0.744851 0.266969
O O6 0.252960 0.900342 0.166295
O O7 0.309636 0.943505 0.324700
O O8 0.000000 0.156488 0.250000
O O9 0.141819 0.060991 0.142929
O O10 0.250000 0.250000 0.500000
O O11 0.109846 0.146112 0.589393
O O12 0.139377 0.365924 0.619090
O O13 0.754080 0.978895 0.501904
#
# Coordination Sequence:
#
# PCOD9267678 Si02
#       6
#     8   8   8   8   8   8
#     4  10  19  40  60  85 119 160 197 245 293 356
#     4  10  21  37  62  85 121 160 195 239 299 350
#     4   9  22  40  60  82 120 162 196 234 307 359
#     4  10  20  35  59  86 116 155 200 241 297 347
#     4  11  23  38  61  92 117 156 201 247 294 350
#     4  10  21  36  63  90 117 156 203 246 292 344
#
# _framework density 19.126068
#
# number of rings (size 3 to 8) (size 9 to 14) (size 15 to 20)
#    0.000    2.000    3.333    2.000    2.333    4.667 
#    0.000    3.333    0.000    0.000    0.000    0.000 
#    0.000    0.000    0.000    0.000    0.000    0.000 
#
# Total GULP energy -133733.920011 kJ/mol
# GULP energy per Si atom -5572.246667 kJ/mol
# Density = 1.908254 g / cm^3
# Si number density = 19.126068 Si / 1000 Ang^3
#
#
#
# Elastic Constant Matrix: (Units=GPa)
#
#
# Indices 1 2 3 4 5 6 
#
# 1 40.8144 34.6542 15.7736 0.0000 10.8024 0.0000
# 2 34.6542 181.5543 51.4450 0.0000 -17.1268 0.0000
# 3 15.7736 51.4450 83.6168 0.0000 9.1721 0.0000
# 4 0.0000 0.0000 0.0000 18.8187 0.0000 4.5280
# 5 10.8024 -17.1268 9.1721 0.0000 19.9839 0.0000
# 6 0.0000 0.0000 0.0000 4.5280 0.0000 23.8628
#
#
#
# Elastic Compliance Matrix: (Units=1/GPa)
#
#
# Indices 1 2 3 4 5 6 
#
# 1 0.043428 -0.012695 0.003566 0.000000 -0.035992 0.000000
# 2 -0.012695 0.011869 -0.007135 0.000000 0.020309 0.000000
# 3 0.003566 -0.007135 0.017437 0.000000 -0.016046 0.000000
# 4 0.000000 0.000000 0.000000 0.055681 0.000000 -0.010565
# 5 -0.035992 0.020309 -0.016046 0.000000 0.094266 0.000000
# 6 0.000000 0.000000 0.000000 -0.010565 0.000000 0.043911
#
#
# Mechanical properties :
#
#
# Convention : Reuss Voigt Hill
#
# Bulk Modulus (GPa) = 24.87229 56.63681 40.75455
# Shear Modulus (GPa) = 15.99892 26.14059 21.06975
#
# Velocity S-wave (km/s) = 2.89537 3.70097 3.32267
# Velocity P-wave (km/s) = 4.92038 6.92384 6.00623
#
# Compressibility (1/GPa) = 0.04020539
#
# Stress axis : x y z
#
# Youngs Moduli (GPa) = 23.02665 84.25390 57.35067
#
# Poissons Ratio (x) = 1.06962 -0.20454
# Poissons Ratio (y) = 0.29233 0.40921
# Poissons Ratio (z) = -0.08212 0.60117
#
# Static dielectric constant tensor:
#      x y z
#    x 1.679040 0.000000 0.028670 
#    y 0.000000 1.696180 0.000000 
#    z 0.028670 0.000000 1.686220 
# 
# From -- ./inp_files/151924.got.cif
#   From: 2010.05.17/outbox.cif.g08.bks.cpg/sg15_76_cif.got.tgz:151924.got - 2010.06.03 18:47:42.
