data_PCOD9267100
_publ_section_title
;
Structure prediction by ZEFSAII (Michael W. Deem and Ramdas Pophale) SiO2 
 PCOD9267100
Probable space group: C 2/C
;
_chemical_formula_sum "Si O2"
_cell_formula_units_Z 52
_cell_length_a 11.876724
_cell_length_b 10.382953
_cell_length_c 20.430089
_cell_angle_alpha 90.000000
_cell_angle_beta 61.665474
_cell_angle_gamma 90.000000
_cell_volume 2217.506936
_symmetry_space_group_name_H-M "C 2/C"
_symmetry_group_IT_number 15
_symmetry_cell_setting 'monoclinic'
loop_
_space_group_symop_operation_xyz
x,y,z
-x,y,1/2-z
-x,-y,-z
x,-y,1/2+z
1/2+x,1/2+y,z
1/2-x,1/2+y,1/2-z
1/2-x,1/2-y,-z
1/2+x,1/2-y,1/2+z
loop_
_atom_site_type_symbol
_atom_site_label
_atom_site_fract_x
_atom_site_fract_y
_atom_site_fract_z
Si Si1 0.359629 0.611502 0.592919
Si Si2 0.000000 0.009522 0.250000
Si Si3 0.617586 0.877597 0.842695
Si Si4 0.830011 0.123922 0.191654
Si Si5 0.302539 0.508191 0.399673
Si Si6 0.536175 0.721644 0.063991
Si Si7 0.144834 0.507953 0.559031
O O1 0.356599 0.732504 0.641292
O O2 0.383592 0.489588 0.631287
O O3 0.455629 0.649349 0.507831
O O4 0.228536 0.569706 0.593701
O O5 0.097835 0.102921 0.260032
O O6 0.086573 0.937221 0.172748
O O7 0.692529 0.959482 0.877650
O O8 0.683998 0.888420 0.752885
O O9 0.470751 0.920024 0.885509
O O10 0.896435 0.240566 0.135432
O O11 0.372242 0.637305 0.411763
O O12 0.238932 0.442066 0.480176
O O13 0.591178 0.863783 0.038328
#
# Coordination Sequence:
#
# PCOD9267100 Si02
#       7
#     8   4   8   8   8   8   8
#     4  11  22  41  63  91 130 167 211 271 329 382
#     4   8  18  36  60  82 118 166 208 252 316 392
#     4  11  22  37  59  96 128 163 217 267 322 387
#     4  10  23  38  60  90 124 171 209 263 334 393
#     4   9  16  35  59  91 119 156 212 264 311 375
#     4  10  19  38  65  91 121 170 217 263 322 396
#     4  11  21  36  66  96 123 162 221 272 312 395
#
# _framework density 23.449757999999999
#
# number of rings (size 3 to 8) (size 9 to 14) (size 15 to 20)
#    0.000    1.846    3.077    1.846    2.154    0.615 
#    0.000    1.538    3.385    5.538    0.000    0.000 
#    0.000    0.000    0.000    0.000    0.000    0.000 
#
# Total GULP energy -144989.576612 kJ/mol
# GULP energy per Si atom -5576.522177 kJ/mol
# Density = 2.339639 g / cm^3
# Si number density = 23.449758 Si / 1000 Ang^3
#
#
#
# Elastic Constant Matrix: (Units=GPa)
#
#
# Indices 1 2 3 4 5 6 
#
# 1 34.1474 21.7371 40.6478 0.0000 -24.3427 0.0000
# 2 21.7371 34.8865 21.2954 0.0000 3.2213 0.0000
# 3 40.6478 21.2954 148.1210 0.0000 -29.1459 0.0000
# 4 0.0000 0.0000 0.0000 16.6845 0.0000 -2.6304
# 5 -24.3427 3.2213 -29.1459 0.0000 38.2719 0.0000
# 6 0.0000 0.0000 0.0000 -2.6304 0.0000 18.0623
#
#
#
# Elastic Compliance Matrix: (Units=1/GPa)
#
#
# Indices 1 2 3 4 5 6 
#
# 1 0.496551 -0.323211 -0.026228 0.000000 0.323060 0.000000
# 2 -0.323211 0.243565 0.010814 0.000000 -0.217842 0.000000
# 3 -0.026228 0.010814 0.010507 0.000000 -0.009591 0.000000
# 4 0.000000 0.000000 0.000000 0.061344 0.000000 0.008933
# 5 0.323060 -0.217842 -0.009591 0.000000 0.242641 0.000000
# 6 0.000000 0.000000 0.000000 0.008933 0.000000 0.056665
#
#
# Mechanical properties :
#
#
# Convention : Reuss Voigt Hill
#
# Bulk Modulus (GPa) = 13.62917 42.72393 28.17655
# Shear Modulus (GPa) = 2.75789 23.50205 13.12997
#
# Velocity S-wave (km/s) = 1.08565 3.16924 2.36883
# Velocity P-wave (km/s) = 2.71960 5.62592 4.41855
#
# Compressibility (1/GPa) = 0.07337207
#
# Stress axis : x y z
#
# Youngs Moduli (GPa) = 2.01389 4.10569 95.17625
#
# Poissons Ratio (x) = 1.32700 2.49630
# Poissons Ratio (y) = 0.65091 -1.02926
# Poissons Ratio (z) = 0.05282 -0.04440
#
# Static dielectric constant tensor:
#      x y z
#    x 1.969230 0.000000 -0.039100 
#    y 0.000000 1.880010 0.000000 
#    z -0.039100 0.000000 1.983890 
# 
# From -- ./inp_files/237502.got.cif
#   From: 2010.05.17/outbox.cif.g08.bks.cpg/sg15_119_cif.got.tgz:237502.got - 2010.06.03 18:47:42.
