data_PCOD9267542
_publ_section_title
;
Structure prediction by ZEFSAII (Michael W. Deem and Ramdas Pophale) SiO2 
 PCOD9267542
Probable space group: C 2/C
;
_chemical_formula_sum "Si O2"
_cell_formula_units_Z 56
_cell_length_a 31.270982
_cell_length_b 7.700668
_cell_length_c 22.949009
_cell_angle_alpha 90.000000
_cell_angle_beta 154.605130
_cell_angle_gamma 90.000000
_cell_volume 2369.973966
_symmetry_space_group_name_H-M "C 2/C"
_symmetry_group_IT_number 15
_symmetry_cell_setting 'monoclinic'
loop_
_space_group_symop_operation_xyz
x,y,z
-x,y,1/2-z
-x,-y,-z
x,-y,1/2+z
1/2+x,1/2+y,z
1/2-x,1/2+y,1/2-z
1/2-x,1/2-y,-z
1/2+x,1/2-y,1/2+z
loop_
_atom_site_type_symbol
_atom_site_label
_atom_site_fract_x
_atom_site_fract_y
_atom_site_fract_z
Si Si1 0.954811 0.142369 0.363592
Si Si2 0.090025 0.764771 0.820554
Si Si3 0.795695 0.193632 0.365966
Si Si4 0.650842 0.371524 0.444240
Si Si5 0.872529 0.608545 0.178875
Si Si6 0.641933 0.542313 0.655823
Si Si7 0.906577 0.502530 0.342375
O O1 0.946329 0.145304 0.284191
O O2 0.887921 0.303445 0.302077
O O3 0.068099 0.160979 0.525803
O O4 0.911174 0.983767 0.347364
O O5 0.143291 0.583786 0.869019
O O6 0.000000 0.703852 0.750000
O O7 0.137886 0.924688 0.914783
O O8 0.864609 0.171375 0.507223
O O9 0.750831 0.382888 0.301104
O O10 0.847021 0.125813 0.370945
O O11 0.693909 0.083848 0.254846
O O12 0.766781 0.330452 0.574595
O O13 0.595198 0.247465 0.329686
O O14 0.936312 0.587151 0.316311
O O15 0.000000 0.500000 0.500000
#
# Coordination Sequence:
#
# PCOD9267542 Si02
#       7
#     8   8   8   8   8   8   8
#     4  10  23  40  65  90 129 174 207 265 325 384
#     4  11  23  41  64  96 130 168 215 265 320 386
#     4  11  23  41  65  98 125 168 214 273 321 387
#     4  10  22  42  66  93 128 170 214 262 323 387
#     4   9  22  39  65  95 125 171 216 258 325 384
#     4  11  23  41  62  94 128 166 220 261 327 384
#     4  10  19  39  65  94 130 165 211 264 323 386
#
# _framework density 23.628952999999999
#
# number of rings (size 3 to 8) (size 9 to 14) (size 15 to 20)
#    0.000    1.714    1.429    2.143    6.000    0.571 
#    5.143    2.857    0.000    0.000    0.000    0.000 
#    0.000    0.000    0.000    0.000    0.000    0.000 
#
# Total GULP energy -156328.266437 kJ/mol
# GULP energy per Si atom -5583.152373 kJ/mol
# Density = 2.357517 g / cm^3
# Si number density = 23.628953 Si / 1000 Ang^3
#
#
#
# Elastic Constant Matrix: (Units=GPa)
#
#
# Indices 1 2 3 4 5 6 
#
# 1 105.2007 8.8775 25.3787 0.0000 -26.4702 0.0000
# 2 8.8775 55.5645 9.1746 0.0000 -15.0840 -0.0001
# 3 25.3787 9.1746 69.5563 0.0000 -22.2801 0.0000
# 4 0.0000 0.0000 0.0000 28.0017 0.0000 -17.9226
# 5 -26.4702 -15.0840 -22.2801 0.0000 31.5989 0.0000
# 6 0.0000 -0.0001 0.0000 -17.9226 0.0000 -15.7800
#
#
#
# Elastic Compliance Matrix: (Units=1/GPa)
#
#
# Indices 1 2 3 4 5 6 
#
# 1 0.012206 0.000903 -0.001498 0.000000 0.009600 0.000000
# 2 0.000903 0.020760 0.000451 0.000000 0.010985 0.000000
# 3 -0.001498 0.000451 0.018770 0.000000 0.012195 0.000000
# 4 0.000000 0.000000 0.000000 0.020679 0.000000 -0.023487
# 5 0.009600 0.010985 0.012195 0.000000 0.053531 0.000000
# 6 0.000000 0.000000 0.000000 -0.023487 0.000000 -0.036695
#
#
# Mechanical properties :
#
#
# Convention : Reuss Voigt Hill
#
# Bulk Modulus (GPa) = 19.43659 35.24257 27.33958
# Shear Modulus (GPa) = 46.86510 21.22348 34.04429
#
# Velocity S-wave (km/s) = 4.45834 3.00025 3.79989
# Velocity P-wave (km/s) = 5.89458 5.19128 5.55407
#
# Compressibility (1/GPa) = 0.05144935
#
# Stress axis : x y z
#
# Youngs Moduli (GPa) = 81.92480 48.16879 53.27600
#
# Poissons Ratio (x) = -0.04351 0.07979
# Poissons Ratio (y) = -0.07400 -0.02401
# Poissons Ratio (z) = 0.12269 -0.02171
#
# Static dielectric constant tensor:
#      x y z
#    x 1.894730 0.000000 -0.005730 
#    y 0.000000 1.996900 0.000000 
#    z -0.005730 0.000000 1.929040 
# 
# From -- ./inp_files/259021.got.cif
#   From: 2010.05.17/outbox.cif.g08.bks.cpg/sg15_130_cif.got.tgz:259021.got - 2010.06.03 18:47:42.
