data_PCOD9267479
_publ_section_title
;
Structure prediction by ZEFSAII (Michael W. Deem and Ramdas Pophale) SiO2 
 PCOD9267479
Probable space group: C 2/C
;
_chemical_formula_sum "Si O2"
_cell_formula_units_Z 56
_cell_length_a 13.735639
_cell_length_b 14.292932
_cell_length_c 16.796982
_cell_angle_alpha 90.000000
_cell_angle_beta 130.478588
_cell_angle_gamma 90.000000
_cell_volume 2508.334970
_symmetry_space_group_name_H-M "C 2/C"
_symmetry_group_IT_number 15
_symmetry_cell_setting 'monoclinic'
loop_
_space_group_symop_operation_xyz
x,y,z
-x,y,1/2-z
-x,-y,-z
x,-y,1/2+z
1/2+x,1/2+y,z
1/2-x,1/2+y,1/2-z
1/2-x,1/2-y,-z
1/2+x,1/2-y,1/2+z
loop_
_atom_site_type_symbol
_atom_site_label
_atom_site_fract_x
_atom_site_fract_y
_atom_site_fract_z
Si Si1 0.841066 0.931146 0.756634
Si Si2 0.987124 0.189529 0.040735
Si Si3 0.000000 0.494620 0.250000
Si Si4 0.500000 0.581274 0.750000
Si Si5 0.781639 0.041648 0.884182
Si Si6 0.148453 0.860184 0.478922
Si Si7 0.385047 0.120562 0.467317
Si Si8 0.097112 0.578409 0.452441
O O1 0.733252 0.870485 0.655856
O O2 0.892253 0.010130 0.724067
O O3 0.788690 0.990633 0.803107
O O4 0.950342 0.865834 0.852675
O O5 0.094342 0.195971 0.026628
O O6 0.875045 0.128485 0.941018
O O7 0.921614 0.285777 0.032738
O O8 0.867747 0.438566 0.181242
O O9 0.994335 0.562294 0.171108
O O10 0.448333 0.639099 0.647002
O O11 0.837451 0.965001 0.975898
O O12 0.290531 0.851919 0.515986
O O13 0.357103 0.027193 0.502155
O O14 0.512797 0.105253 0.482815
#
# Coordination Sequence:
#
# PCOD9267479 Si02
#       8
#     8   8   4   4   8   8   8   8
#     4  11  21  41  63  89 127 168 207 258 319 382
#     4  11  23  41  62  93 129 164 208 266 319 365
#     4  10  20  36  68  90 114 166 210 240 302 390
#     4  12  18  36  68  94 112 166 212 258 306 382
#     4  10  19  39  64  87 122 167 207 246 315 385
#     4  10  20  37  65  89 118 161 216 257 306 380
#     4  11  24  41  62  92 132 163 209 265 317 374
#     4  10  22  41  64  90 123 172 210 252 318 388
#
# _framework density 22.325565999999998
#
# number of rings (size 3 to 8) (size 9 to 14) (size 15 to 20)
#    0.000    1.429    5.714    0.857    0.000    1.714 
#    2.571    8.571    0.000    0.000    0.000    0.000 
#    0.000    0.000    0.000    0.000    0.000    0.000 
#
# Total GULP energy -156280.188820 kJ/mol
# GULP energy per Si atom -5581.435315 kJ/mol
# Density = 2.227475 g / cm^3
# Si number density = 22.325566 Si / 1000 Ang^3
#
#
#
# Elastic Constant Matrix: (Units=GPa)
#
#
# Indices 1 2 3 4 5 6 
#
# 1 44.7534 -1.1681 -9.3087 0.0000 9.1868 0.0000
# 2 -1.1681 39.9544 18.9774 0.0000 13.0767 0.0000
# 3 -9.3087 18.9774 73.2703 0.0000 5.4026 0.0000
# 4 0.0000 0.0000 0.0000 -1.4581 0.0000 4.0293
# 5 9.1868 13.0767 5.4026 0.0000 40.4194 0.0000
# 6 0.0000 0.0000 0.0000 4.0293 0.0000 22.1443
#
#
#
# Elastic Compliance Matrix: (Units=1/GPa)
#
#
# Indices 1 2 3 4 5 6 
#
# 1 0.024360 0.001261 0.003238 0.000000 -0.006378 0.000000
# 2 0.001261 0.031679 -0.007340 0.000000 -0.009554 0.000000
# 3 0.003238 -0.007340 0.015998 0.000000 -0.000500 0.000000
# 4 0.000000 0.000000 0.000000 -0.456361 0.000000 0.083039
# 5 -0.006378 -0.009554 -0.000500 0.000000 0.029348 0.000000
# 6 0.000000 0.000000 0.000000 0.083039 0.000000 0.030049
#
#
# Mechanical properties :
#
#
# Convention : Reuss Voigt Hill
#
# Bulk Modulus (GPa) = 15.07024 19.44215 17.25620
# Shear Modulus (GPa) = -16.82779 22.18630 2.67926
#
# Velocity S-wave (km/s) = -2.74842 3.15582 1.09667
# Velocity P-wave (km/s) = 1.81848 4.69109 3.05773
#
# Compressibility (1/GPa) = 0.06635595
#
# Stress axis : x y z
#
# Youngs Moduli (GPa) = 41.05029 31.56675 62.50975
#
# Poissons Ratio (x) = -0.03982 -0.20243
# Poissons Ratio (y) = -0.05178 0.45884
# Poissons Ratio (z) = -0.13294 0.23171
#
# Static dielectric constant tensor:
#      x y z
#    x 1.886820 0.000000 0.002060 
#    y 0.000000 1.825360 0.000000 
#    z 0.002060 0.000000 1.799300 
# 
# From -- ./inp_files/205516.got.cif
#   From: 2010.05.17/outbox.cif.g08.bks.cpg/sg15_103_cif.got.tgz:205516.got - 2010.06.03 18:47:42.
