data_PCOD9267741
_publ_section_title
;
Structure prediction by ZEFSAII (Michael W. Deem and Ramdas Pophale) SiO2 
 PCOD9267741
Probable space group: C 2/C
;
_chemical_formula_sum "Si O2"
_cell_formula_units_Z 64
_cell_length_a 7.587689
_cell_length_b 14.896128
_cell_length_c 26.109670
_cell_angle_alpha 90.000000
_cell_angle_beta 62.000918
_cell_angle_gamma 90.000000
_cell_volume 2605.691084
_symmetry_space_group_name_H-M "C 2/C"
_symmetry_group_IT_number 15
_symmetry_cell_setting 'monoclinic'
loop_
_space_group_symop_operation_xyz
x,y,z
-x,y,1/2-z
-x,-y,-z
x,-y,1/2+z
1/2+x,1/2+y,z
1/2-x,1/2+y,1/2-z
1/2-x,1/2-y,-z
1/2+x,1/2-y,1/2+z
loop_
_atom_site_type_symbol
_atom_site_label
_atom_site_fract_x
_atom_site_fract_y
_atom_site_fract_z
Si Si1 0.559889 0.306570 0.464711
Si Si2 0.778027 0.295979 0.801716
Si Si3 0.236834 0.459420 0.103643
Si Si4 0.613158 0.114450 0.454891
Si Si5 0.743350 0.006397 0.216680
Si Si6 0.776824 0.078471 0.924846
Si Si7 0.224833 0.650101 0.081122
Si Si8 0.799832 0.600310 0.679834
O O1 0.717264 0.385534 0.445068
O O2 0.691345 0.216068 0.448143
O O3 0.427941 0.356036 0.436378
O O4 0.386775 0.292586 0.529191
O O5 0.691333 0.389155 0.790916
O O6 0.804895 0.315784 0.858130
O O7 0.658033 0.203839 0.810645
O O8 0.000000 0.279782 0.750000
O O9 0.302183 0.460627 0.154691
O O10 0.318137 0.551436 0.070658
O O11 0.999887 0.455595 0.141849
O O12 0.443369 0.096537 0.520843
O O13 0.477958 0.132868 0.422135
O O14 0.767246 0.031865 0.430442
O O15 0.500000 0.010755 0.250000
O O16 0.798912 0.948519 0.258323
O O17 0.800646 0.101341 0.861950
#
# Coordination Sequence:
#
# PCOD9267741 Si02
#       8
#     8   8   8   8   8   8   8   8
#     4  11  22  38  61  94 128 166 206 258 324 384
#     4  10  21  36  63  91 112 157 218 259 306 392
#     4  10  21  39  60  85 125 162 199 254 322 372
#     4  10  20  37  60  86 124 163 206 256 312 371
#     4   8  19  38  57  82 115 156 201 248 311 376
#     4  10  21  37  60  88 121 161 210 256 311 380
#     4  10  19  40  63  87 121 169 209 248 310 391
#     4  11  20  39  64  89 118 160 208 262 315 383
#
# _framework density 24.561623000000001
#
# number of rings (size 3 to 8) (size 9 to 14) (size 15 to 20)
#    0.000    2.000    1.250    4.125    0.000    2.000 
#    4.500    1.250    0.000    0.000    0.000    0.000 
#    0.000    0.000    0.000    0.000    0.000    0.000 
#
# Total GULP energy -178438.988581 kJ/mol
# GULP energy per Si atom -5576.218393 kJ/mol
# Density = 2.450572 g / cm^3
# Si number density = 24.561623 Si / 1000 Ang^3
#
#
#
# Elastic Constant Matrix: (Units=GPa)
#
#
# Indices 1 2 3 4 5 6 
#
# 1 43.6739 0.3166 -21.7923 0.0000 13.6302 0.0000
# 2 0.3166 169.1993 30.0796 0.0000 2.7992 0.0000
# 3 -21.7923 30.0796 53.2535 0.0000 7.5560 -0.0001
# 4 0.0000 0.0000 0.0000 73.4329 0.0000 -20.5040
# 5 13.6302 2.7992 7.5560 0.0000 27.2612 0.0000
# 6 0.0000 0.0000 -0.0001 -20.5040 0.0000 25.4456
#
#
#
# Elastic Compliance Matrix: (Units=1/GPa)
#
#
# Indices 1 2 3 4 5 6 
#
# 1 0.043727 -0.003899 0.024089 0.000000 -0.028139 0.000000
# 2 -0.003899 0.006921 -0.005913 0.000000 0.002878 0.000000
# 3 0.024089 -0.005913 0.034974 0.000000 -0.021130 0.000000
# 4 0.000000 0.000000 0.000000 0.017571 0.000000 0.014159
# 5 -0.028139 0.002878 -0.021130 0.000000 0.056313 0.000000
# 6 0.000000 0.000000 0.000000 0.014159 0.000000 0.050709
#
#
# Mechanical properties :
#
#
# Convention : Reuss Voigt Hill
#
# Bulk Modulus (GPa) = 8.75845 31.48160 20.12002
# Shear Modulus (GPa) = 22.75634 42.39613 32.57623
#
# Velocity S-wave (km/s) = 3.04715 4.15916 3.64580
# Velocity P-wave (km/s) = 3.99422 5.99250 5.09234
#
# Compressibility (1/GPa) = 0.11417552
#
# Stress axis : x y z
#
# Youngs Moduli (GPa) = 22.86920 144.48635 28.59296
#
# Poissons Ratio (x) = 0.56331 -0.68876
# Poissons Ratio (y) = 0.08916 0.16907
# Poissons Ratio (z) = -0.55089 0.85435
#
# Static dielectric constant tensor:
#      x y z
#    x 2.077050 0.000000 0.057250 
#    y 0.000000 2.055650 0.000000 
#    z 0.057250 0.000000 1.958840 
# 
# From -- ./inp_files/288720.got.cif
#   From: 2010.05.17/outbox.cif.g08.bks.cpg/sg15_145_cif.got.tgz:288720.got - 2010.06.03 18:47:42.
