data_PCOD9267912
_publ_section_title
;
Structure prediction by ZEFSAII (Michael W. Deem and Ramdas Pophale) SiO2 
 PCOD9267912
Probable space group: C 2/C
;
_chemical_formula_sum "Si O2"
_cell_formula_units_Z 40
_cell_length_a 11.810907
_cell_length_b 14.415168
_cell_length_c 8.913105
_cell_angle_alpha 90.000000
_cell_angle_beta 127.612961
_cell_angle_gamma 90.000000
_cell_volume 1202.099136
_symmetry_space_group_name_H-M "C 2/C"
_symmetry_group_IT_number 15
_symmetry_cell_setting 'monoclinic'
loop_
_space_group_symop_operation_xyz
x,y,z
-x,y,1/2-z
-x,-y,-z
x,-y,1/2+z
1/2+x,1/2+y,z
1/2-x,1/2+y,1/2-z
1/2-x,1/2-y,-z
1/2+x,1/2-y,1/2+z
loop_
_atom_site_type_symbol
_atom_site_label
_atom_site_fract_x
_atom_site_fract_y
_atom_site_fract_z
Si Si1 0.233390 0.388796 0.587515
Si Si2 0.213397 0.659494 0.478640
Si Si3 0.313064 0.572521 0.789436
Si Si4 0.000000 0.478449 0.750000
Si Si5 0.433908 0.305279 0.566299
Si Si6 0.500000 0.661378 0.750000
O O1 0.313472 0.463343 0.766924
O O2 0.094206 0.457184 0.432133
O O3 0.401976 0.312328 0.736016
O O4 0.140623 0.292247 0.528290
O O5 0.176173 0.632992 0.622658
O O6 0.117630 0.597410 0.290963
O O7 0.136982 0.762734 0.397378
O O8 0.690108 0.396171 0.028721
O O9 0.357209 0.587339 0.626670
O O10 0.453745 0.649556 0.908477
#
# Coordination Sequence:
#
# PCOD9267912 Si02
#       6
#     8   8   8   4   8   4
#     4  10  23  46  67 106 147 192 247 299 374 450
#     4   9  18  37  64 104 142 181 233 302 368 435
#     4   9  22  45  69 105 142 192 238 310 365 441
#     4  10  19  40  71  90 146 190 240 297 365 438
#     4  11  24  46  74 105 146 197 250 304 368 449
#     4   8  19  38  65 100 144 176 244 283 373 426
#
# _framework density 33.275126
#
# number of rings (size 3 to 8) (size 9 to 14) (size 15 to 20)
#    1.200    1.200    1.000    0.600    1.400    0.800 
#   14.400    4.000    0.000    0.000    0.000    0.000 
#    0.000    0.000    0.000    0.000    0.000    0.000 
#
# Total GULP energy -111403.600903 kJ/mol
# GULP energy per Si atom -5570.180045 kJ/mol
# Density = 3.319939 g / cm^3
# Si number density = 33.275126 Si / 1000 Ang^3
#
#
#
# Elastic Constant Matrix: (Units=GPa)
#
#
# Indices 1 2 3 4 5 6 
#
# 1 226.4245 130.5658 114.0077 0.0000 17.2291 0.0000
# 2 130.5658 374.4823 131.9411 0.0000 -5.7761 0.0000
# 3 114.0077 131.9411 331.5655 0.0000 -3.0712 0.0000
# 4 0.0000 0.0000 0.0000 93.9092 0.0000 -22.1147
# 5 17.2291 -5.7761 -3.0712 0.0000 90.0426 0.0000
# 6 0.0000 0.0000 0.0000 -22.1147 0.0000 37.5442
#
#
#
# Elastic Compliance Matrix: (Units=1/GPa)
#
#
# Indices 1 2 3 4 5 6 
#
# 1 0.006232 -0.001668 -0.001492 0.000000 -0.001350 0.000000
# 2 -0.001668 0.003555 -0.000836 0.000000 0.000519 0.000000
# 3 -0.001492 -0.000836 0.003865 0.000000 0.000364 0.000000
# 4 0.000000 0.000000 0.000000 0.012364 0.000000 0.007283
# 5 -0.001350 0.000519 0.000364 0.000000 0.011410 0.000000
# 6 0.000000 0.000000 0.000000 0.007283 0.000000 0.030925
#
#
# Mechanical properties :
#
#
# Convention : Reuss Voigt Hill
#
# Bulk Modulus (GPa) = 176.67894 187.27792 181.97843
# Shear Modulus (GPa) = 63.91535 81.36306 72.63920
#
# Velocity S-wave (km/s) = 4.38746 4.95022 4.67731
# Velocity P-wave (km/s) = 8.88134 9.43805 9.16392
#
# Compressibility (1/GPa) = 0.00565998
#
# Stress axis : x y z
#
# Youngs Moduli (GPa) = 160.45605 281.32921 258.73577
#
# Poissons Ratio (x) = 0.46931 0.38593
# Poissons Ratio (y) = 0.26767 0.21632
# Poissons Ratio (z) = 0.23934 0.23521
#
# Static dielectric constant tensor:
#      x y z
#    x 2.962470 0.000000 0.006380 
#    y 0.000000 2.350720 0.000000 
#    z 0.006380 0.000000 2.429360 
# 
# From -- ./inp_files/117042.got.cif
#   From: 2010.05.17/outbox.cif.g08.bks.cpg/sg15_59_cif.got.tgz:117042.got - 2010.06.03 18:47:42.
