data_PCOD9267445
_publ_section_title
;
Structure prediction by ZEFSAII (Michael W. Deem and Ramdas Pophale) SiO2 
 PCOD9267445
Probable space group: C 2/C
;
_chemical_formula_sum "Si O2"
_cell_formula_units_Z 40
_cell_length_a 26.701603
_cell_length_b 6.712980
_cell_length_c 12.164407
_cell_angle_alpha 90.000000
_cell_angle_beta 128.082757
_cell_angle_gamma 90.000000
_cell_volume 1716.267402
_symmetry_space_group_name_H-M "C 2/C"
_symmetry_group_IT_number 15
_symmetry_cell_setting 'monoclinic'
loop_
_space_group_symop_operation_xyz
x,y,z
-x,y,1/2-z
-x,-y,-z
x,-y,1/2+z
1/2+x,1/2+y,z
1/2-x,1/2+y,1/2-z
1/2-x,1/2-y,-z
1/2+x,1/2-y,1/2+z
loop_
_atom_site_type_symbol
_atom_site_label
_atom_site_fract_x
_atom_site_fract_y
_atom_site_fract_z
Si Si1 0.650554 0.021370 0.043659
Si Si2 0.384544 0.295580 0.301589
Si Si3 0.781472 0.089586 0.123883
Si Si4 0.056939 0.555328 0.742916
Si Si5 0.595186 0.296649 0.594406
O O1 0.645519 0.151232 0.147313
O O2 0.723405 0.989576 0.111052
O O3 0.602483 0.834273 0.996190
O O4 0.618768 0.126990 0.895035
O O5 0.329646 0.409028 0.156106
O O6 0.429686 0.164374 0.287016
O O7 0.418428 0.470479 0.417294
O O8 0.830192 0.211044 0.266667
O O9 0.750000 0.250000 0.000000
O O10 0.052715 0.689174 0.628158
O O11 0.000000 0.575134 0.750000
#
# Coordination Sequence:
#
# PCOD9267445 Si02
#       5
#     8   8   8   8   8
#     4  11  20  39  63  87 124 162 192 259 312 366
#     4   9  23  39  58  95 122 154 207 247 318 370
#     4  10  19  39  63  91 127 148 193 249 313 377
#     4  11  24  42  60  85 122 169 218 255 297 355
#     4   9  22  39  58  93 120 157 202 250 315 371
#
# _framework density 23.30639
#
# number of rings (size 3 to 8) (size 9 to 14) (size 15 to 20)
#    1.200    0.800    2.000    1.200    0.000    8.000 
#    0.000    2.000    0.000    0.000    0.000    0.000 
#    0.000    0.000    0.000    0.000    0.000    0.000 
#
# Total GULP energy -111430.188471 kJ/mol
# GULP energy per Si atom -5571.509424 kJ/mol
# Density = 2.325334 g / cm^3
# Si number density = 23.306390 Si / 1000 Ang^3
#
#
#
# Elastic Constant Matrix: (Units=GPa)
#
#
# Indices 1 2 3 4 5 6 
#
# 1 135.5627 42.2357 -9.9265 0.0000 -11.1907 0.0000
# 2 42.2357 106.3480 -13.3917 0.0000 -9.0691 0.0000
# 3 -9.9265 -13.3917 44.4783 0.0000 7.1965 0.0000
# 4 0.0000 0.0000 0.0000 -119.2484 0.0000 -57.4630
# 5 -11.1907 -9.0691 7.1965 0.0000 31.3080 0.0000
# 6 0.0000 0.0000 0.0000 -57.4630 0.0000 -4.9984
#
#
#
# Elastic Compliance Matrix: (Units=1/GPa)
#
#
# Indices 1 2 3 4 5 6 
#
# 1 0.008571 -0.003153 0.000640 0.000000 0.002003 0.000000
# 2 -0.003153 0.011087 0.002386 0.000000 0.001536 0.000000
# 3 0.000640 0.002386 0.024091 0.000000 -0.004618 0.000000
# 4 0.000000 0.000000 0.000000 0.001847 0.000000 -0.021236
# 5 0.002003 0.001536 -0.004618 0.000000 0.034163 0.000000
# 6 0.000000 0.000000 0.000000 -0.021236 0.000000 0.044069
#
#
# Mechanical properties :
#
#
# Convention : Reuss Voigt Hill
#
# Bulk Modulus (GPa) = 22.99151 36.02490 29.50821
# Shear Modulus (GPa) = 36.08001 -0.75632 17.66185
#
# Velocity S-wave (km/s) = 3.93883 -0.57028 2.75582
# Velocity P-wave (km/s) = 5.52920 3.88034 4.77646
#
# Compressibility (1/GPa) = 0.04349431
#
# Stress axis : x y z
#
# Youngs Moduli (GPa) = 116.67126 90.19919 41.50908
#
# Poissons Ratio (x) = 0.28436 -0.02655
# Poissons Ratio (y) = 0.36782 -0.09903
# Poissons Ratio (z) = -0.07461 -0.21520
#
# Static dielectric constant tensor:
#      x y z
#    x 1.851330 0.000000 0.007020 
#    y 0.000000 1.974040 0.000000 
#    z 0.007020 0.000000 1.967590 
# 
# From -- ./inp_files/115999.got.cif
#   From: 2010.05.17/outbox.cif.g08.bks.cpg/sg15_58_cif.got.tgz:115999.got - 2010.06.03 18:47:42.
