data_PCOD9267481
_publ_section_title
;
Structure prediction by ZEFSAII (Michael W. Deem and Ramdas Pophale) SiO2 
 PCOD9267481
Probable space group: C 2/C
;
_chemical_formula_sum "Si O2"
_cell_formula_units_Z 52
_cell_length_a 9.048986
_cell_length_b 18.117647
_cell_length_c 14.309590
_cell_angle_alpha 90.000000
_cell_angle_beta 105.029133
_cell_angle_gamma 90.000000
_cell_volume 2265.757617
_symmetry_space_group_name_H-M "C 2/C"
_symmetry_group_IT_number 15
_symmetry_cell_setting 'monoclinic'
loop_
_space_group_symop_operation_xyz
x,y,z
-x,y,1/2-z
-x,-y,-z
x,-y,1/2+z
1/2+x,1/2+y,z
1/2-x,1/2+y,1/2-z
1/2-x,1/2-y,-z
1/2+x,1/2-y,1/2+z
loop_
_atom_site_type_symbol
_atom_site_label
_atom_site_fract_x
_atom_site_fract_y
_atom_site_fract_z
Si Si1 0.000000 0.991615 0.750000
Si Si2 0.208854 0.042337 0.620463
Si Si3 0.561714 0.202321 0.170109
Si Si4 0.524014 0.679678 0.506600
Si Si5 0.190668 0.866170 0.873234
Si Si6 0.292437 0.113981 0.041967
Si Si7 0.968608 0.577758 0.546583
O O1 0.092780 0.937984 0.834775
O O2 0.129775 0.031690 0.708569
O O3 0.098698 0.102212 0.553054
O O4 0.385240 0.070030 0.632835
O O5 0.222392 0.963619 0.567885
O O6 0.500000 0.244088 0.250000
O O7 0.571050 0.257608 0.085525
O O8 0.728627 0.165804 0.205397
O O9 0.432918 0.139834 0.130207
O O10 0.588033 0.690992 0.413286
O O11 0.343659 0.671334 0.476758
O O12 0.335116 0.885626 0.962338
O O13 0.368604 0.114428 0.950294
O O14 0.000000 0.500000 0.500000
#
# Coordination Sequence:
#
# PCOD9267481 Si02
#       7
#     4   8   8   8   8   8   8
#     4  12  22  34  64  94 124 160 214 264 304 364
#     4  10  21  36  60  93 122 155 204 257 314 363
#     4  11  24  40  60  91 126 160 208 264 313 364
#     4  11  22  39  65  90 123 164 206 255 318 378
#     4  10  22  39  61  87 120 166 213 250 304 381
#     4  10  19  39  64  88 117 166 211 246 302 391
#     4   8  18  34  59  84 117 154 198 252 302 367
#
# _framework density 22.950379999999999
#
# number of rings (size 3 to 8) (size 9 to 14) (size 15 to 20)
#    0.000    1.846    1.538    2.308    5.385    0.000 
#    0.000    0.000    0.000    0.000    0.000    0.000 
#    0.000    0.000    0.000    0.000    0.000    0.000 
#
# Total GULP energy -144894.196561 kJ/mol
# GULP energy per Si atom -5572.853714 kJ/mol
# Density = 2.289814 g / cm^3
# Si number density = 22.950380 Si / 1000 Ang^3
#
#
#
# Elastic Constant Matrix: (Units=GPa)
#
#
# Indices 1 2 3 4 5 6 
#
# 1 179.4260 26.2216 42.4738 0.0000 -57.2761 0.0000
# 2 26.2216 42.4883 16.5011 0.0000 -1.3654 0.0000
# 3 42.4738 16.5011 52.6921 0.0000 -38.7229 0.0000
# 4 0.0000 0.0000 0.0000 24.3154 0.0000 -12.6998
# 5 -57.2761 -1.3654 -38.7229 0.0000 52.1652 0.0000
# 6 0.0000 0.0000 0.0000 -12.6998 0.0000 25.1645
#
#
#
# Elastic Compliance Matrix: (Units=1/GPa)
#
#
# Indices 1 2 3 4 5 6 
#
# 1 0.010240 -0.007814 0.005072 0.000000 0.014804 0.000000
# 2 -0.007814 0.036792 -0.023808 0.000000 -0.025289 0.000000
# 3 0.005072 -0.023808 0.057164 0.000000 0.047379 0.000000
# 4 0.000000 0.000000 0.000000 0.055847 0.000000 0.028184
# 5 0.014804 -0.025289 0.047379 0.000000 0.069932 0.000000
# 6 0.000000 0.000000 0.000000 0.028184 0.000000 0.053962
#
#
# Mechanical properties :
#
#
# Convention : Reuss Voigt Hill
#
# Bulk Modulus (GPa) = 19.57102 49.44436 34.50769
# Shear Modulus (GPa) = 14.12151 32.95636 23.53893
#
# Velocity S-wave (km/s) = 2.48323 3.79355 3.20604
# Velocity P-wave (km/s) = 4.09487 6.38583 5.36408
#
# Compressibility (1/GPa) = 0.05109596
#
# Stress axis : x y z
#
# Youngs Moduli (GPa) = 97.65286 27.18006 17.49350
#
# Poissons Ratio (x) = 0.21238 -0.08872
# Poissons Ratio (y) = 0.76304 0.41649
# Poissons Ratio (z) = -0.49527 0.64710
#
# Static dielectric constant tensor:
#      x y z
#    x 1.943870 0.000000 -0.115350 
#    y 0.000000 1.908260 0.000000 
#    z -0.115350 0.000000 1.974260 
# 
# From -- ./inp_files/136114.got.cif
#   From: 2010.05.17/outbox.cif.g08.bks.cpg/sg15_69_cif.got.tgz:136114.got - 2010.06.03 18:47:42.
