data_PCOD9267472
_publ_section_title
;
Structure prediction by ZEFSAII (Michael W. Deem and Ramdas Pophale) SiO2 
 PCOD9267472
Probable space group: C 2/C
;
_chemical_formula_sum "Si O2"
_cell_formula_units_Z 56
_cell_length_a 13.599120
_cell_length_b 23.503511
_cell_length_c 9.812021
_cell_angle_alpha 90.000000
_cell_angle_beta 110.743543
_cell_angle_gamma 90.000000
_cell_volume 2932.884545
_symmetry_space_group_name_H-M "C 2/C"
_symmetry_group_IT_number 15
_symmetry_cell_setting 'monoclinic'
loop_
_space_group_symop_operation_xyz
x,y,z
-x,y,1/2-z
-x,-y,-z
x,-y,1/2+z
1/2+x,1/2+y,z
1/2-x,1/2+y,1/2-z
1/2-x,1/2-y,-z
1/2+x,1/2-y,1/2+z
loop_
_atom_site_type_symbol
_atom_site_label
_atom_site_fract_x
_atom_site_fract_y
_atom_site_fract_z
Si Si1 0.706363 0.449448 0.779141
Si Si2 0.479547 0.286354 0.579246
Si Si3 0.459444 0.843022 0.076837
Si Si4 0.458783 0.948387 0.885516
Si Si5 0.081732 0.111612 0.981824
Si Si6 0.854809 0.922322 0.267451
Si Si7 0.279840 0.362162 0.477878
O O1 0.831885 0.450172 0.821795
O O2 0.649180 0.425676 0.617909
O O3 0.668647 0.513439 0.785959
O O4 0.678963 0.406963 0.889251
O O5 0.500000 0.292257 0.750000
O O6 0.493527 0.220337 0.552101
O O7 0.556681 0.327620 0.534984
O O8 0.362602 0.311406 0.497651
O O9 0.500000 0.856094 0.250000
O O10 0.332998 0.841697 0.028379
O O11 0.489597 0.890640 0.981422
O O12 0.500000 0.951093 0.750000
O O13 0.500000 0.000000 0.000000
O O14 0.138339 0.115137 0.864643
O O15 0.968686 0.082410 0.896063
O O16 0.772269 0.897467 0.334077
#
# Coordination Sequence:
#
# PCOD9267472 Si02
#       7
#     8   8   8   8   8   8   8
#     4  11  22  37  64  85 124 161 203 243 305 369
#     4  10  19  39  64  86 123 158 200 253 295 369
#     4  10  23  41  66  88 115 162 210 249 302 352
#     4  11  27  44  64  91 122 161 203 255 295 358
#     4  10  21  37  57  94 125 159 196 244 314 357
#     4  10  22  34  57  94 126 157 193 252 303 369
#     4  10  21  37  60  90 117 162 203 250 297 363
#
# _framework density 19.093830000000001
#
# number of rings (size 3 to 8) (size 9 to 14) (size 15 to 20)
#    0.000    1.714    1.429    2.143    8.000    3.429 
#    5.143    0.000    0.000    2.571    0.000    0.000 
#    0.000    0.000    0.000    0.000    0.000    0.000 
#
# Total GULP energy -156387.733980 kJ/mol
# GULP energy per Si atom -5585.276214 kJ/mol
# Density = 1.905037 g / cm^3
# Si number density = 19.093830 Si / 1000 Ang^3
#
#
#
# Elastic Constant Matrix: (Units=GPa)
#
#
# Indices 1 2 3 4 5 6 
#
# 1 36.3911 34.0279 32.3353 0.0000 -15.1473 0.0000
# 2 34.0279 137.3086 72.3097 0.0000 -3.9892 0.0000
# 3 32.3353 72.3097 112.0581 0.0000 -18.8816 0.0000
# 4 0.0000 0.0000 0.0000 25.0718 0.0000 -2.4784
# 5 -15.1473 -3.9892 -18.8816 0.0000 21.7320 0.0000
# 6 0.0000 0.0000 0.0000 -2.4784 0.0000 8.7831
#
#
#
# Elastic Compliance Matrix: (Units=1/GPa)
#
#
# Indices 1 2 3 4 5 6 
#
# 1 0.054078 -0.010841 -0.003038 0.000000 0.033063 0.000000
# 2 -0.010841 0.013664 -0.007661 0.000000 -0.011704 0.000000
# 3 -0.003038 -0.007661 0.016577 0.000000 0.010879 0.000000
# 4 0.000000 0.000000 0.000000 0.041030 0.000000 0.011578
# 5 0.033063 -0.011704 0.010879 0.000000 0.076364 0.000000
# 6 0.000000 0.000000 0.000000 0.011578 0.000000 0.117122
#
#
# Mechanical properties :
#
#
# Convention : Reuss Voigt Hill
#
# Bulk Modulus (GPa) = 24.24899 62.56707 43.40803
# Shear Modulus (GPa) = 13.30986 20.92305 17.11645
#
# Velocity S-wave (km/s) = 2.64309 3.31388 2.99731
# Velocity P-wave (km/s) = 4.69489 6.89070 5.89592
#
# Compressibility (1/GPa) = 0.04123883
#
# Stress axis : x y z
#
# Youngs Moduli (GPa) = 18.49189 73.18522 60.32373
#
# Poissons Ratio (x) = 0.79342 0.18325
# Poissons Ratio (y) = 0.20048 0.46214
# Poissons Ratio (z) = 0.05617 0.56067
#
# Static dielectric constant tensor:
#      x y z
#    x 1.670960 0.000000 0.008190 
#    y 0.000000 1.645070 0.000000 
#    z 0.008190 0.000000 1.660460 
# 
# From -- ./inp_files/42259.got.cif
#   From: 2010.05.17/outbox.cif.g08.bks.cpg/sg15_22_cif.got.tgz:42259.got - 2010.06.03 18:47:42.
