data_PCOD9267108
_publ_section_title
;
Structure prediction by ZEFSAII (Michael W. Deem and Ramdas Pophale) SiO2 
 PCOD9267108
Probable space group: C 2/C
;
_chemical_formula_sum "Si O2"
_cell_formula_units_Z 44
_cell_length_a 26.905679
_cell_length_b 5.431626
_cell_length_c 13.467575
_cell_angle_alpha 90.000000
_cell_angle_beta 65.518560
_cell_angle_gamma 90.000000
_cell_volume 1791.225287
_symmetry_space_group_name_H-M "C 2/C"
_symmetry_group_IT_number 15
_symmetry_cell_setting 'monoclinic'
loop_
_space_group_symop_operation_xyz
x,y,z
-x,y,1/2-z
-x,-y,-z
x,-y,1/2+z
1/2+x,1/2+y,z
1/2-x,1/2+y,1/2-z
1/2-x,1/2-y,-z
1/2+x,1/2-y,1/2+z
loop_
_atom_site_type_symbol
_atom_site_label
_atom_site_fract_x
_atom_site_fract_y
_atom_site_fract_z
Si Si1 0.970647 0.815513 0.450954
Si Si2 0.103796 0.813729 0.603041
Si Si3 0.230478 0.323213 0.218066
Si Si4 0.204639 0.063991 0.498400
Si Si5 0.865921 0.426083 0.086263
Si Si6 0.000000 0.502216 0.750000
O O1 0.927677 0.658486 0.549427
O O2 0.005236 0.651146 0.347553
O O3 0.933625 0.968271 0.405754
O O4 0.000000 0.000000 0.500000
O O5 0.127730 0.667529 0.487036
O O6 0.057964 0.645741 0.692813
O O7 0.158341 0.934408 0.605103
O O8 0.238867 0.037427 0.240663
O O9 0.168834 0.422212 0.284268
O O10 0.259842 0.364283 0.090032
O O11 0.250000 0.250000 0.500000
O O12 0.168412 0.231087 0.452322
#
# Coordination Sequence:
#
# PCOD9267108 Si02
#       6
#     8   8   8   8   8   4
#     4  10  22  42  69  98 133 186 243 299 364 440
#     4  10  20  42  65  91 140 180 229 298 362 433
#     4  10  19  38  65  92 132 185 228 284 361 428
#     4  10  21  38  65  95 134 177 229 287 356 433
#     4   9  20  38  64  91 132 175 222 294 349 425
#     4  10  22  40  70  96 140 194 234 308 378 428
#
# _framework density 24.564188999999999
#
# number of rings (size 3 to 8) (size 9 to 14) (size 15 to 20)
#    0.000    2.182    1.818    0.545    0.000    3.636 
#    0.000   14.545    8.000    0.000    0.000    0.000 
#    0.000    0.000    0.000    0.000    0.000    0.000 
#
# Total GULP energy -122771.683530 kJ/mol
# GULP energy per Si atom -5580.531070 kJ/mol
# Density = 2.450828 g / cm^3
# Si number density = 24.564189 Si / 1000 Ang^3
#
#
#
# Elastic Constant Matrix: (Units=GPa)
#
#
# Indices 1 2 3 4 5 6 
#
# 1 113.7592 43.6175 66.8103 0.0000 -20.0156 0.0000
# 2 43.6175 85.7004 48.1904 0.0000 -15.5261 0.0000
# 3 66.8103 48.1904 145.0778 0.0000 -47.4850 0.0000
# 4 0.0000 0.0000 0.0000 25.0814 0.0000 -8.9978
# 5 -20.0156 -15.5261 -47.4850 0.0000 32.7090 0.0000
# 6 0.0000 0.0000 0.0000 -8.9978 0.0000 58.2625
#
#
#
# Elastic Compliance Matrix: (Units=1/GPa)
#
#
# Indices 1 2 3 4 5 6 
#
# 1 0.013120 -0.004028 -0.005148 0.000000 -0.001357 0.000000
# 2 -0.004028 0.015586 -0.003253 0.000000 0.000210 0.000000
# 3 -0.005148 -0.003253 0.016782 0.000000 0.019668 0.000000
# 4 0.000000 0.000000 0.000000 0.042209 0.000000 0.006519
# 5 -0.001357 0.000210 0.019668 0.000000 0.058395 0.000000
# 6 0.000000 0.000000 0.000000 0.006519 0.000000 0.018170
#
#
# Mechanical properties :
#
#
# Convention : Reuss Voigt Hill
#
# Bulk Modulus (GPa) = 48.47673 73.53044 61.00358
# Shear Modulus (GPa) = 25.51052 35.60519 30.55786
#
# Velocity S-wave (km/s) = 3.22611 3.81133 3.53087
# Velocity P-wave (km/s) = 5.80126 7.02619 6.44290
#
# Compressibility (1/GPa) = 0.02062845
#
# Stress axis : x y z
#
# Youngs Moduli (GPa) = 76.22182 64.15876 59.58838
#
# Poissons Ratio (x) = 0.25846 0.30676
# Poissons Ratio (y) = 0.30706 0.19386
# Poissons Ratio (z) = 0.39238 0.20873
#
# Static dielectric constant tensor:
#      x y z
#    x 1.985380 0.000000 0.019910 
#    y 0.000000 2.098430 0.000000 
#    z 0.019910 0.000000 2.117630 
# 
# From -- ./inp_files/175636.got.cif
#   From: 2010.05.17/outbox.cif.g08.bks.cpg/sg15_88_cif.got.tgz:175636.got - 2010.06.03 18:47:42.
