data_PCOD9267217
_publ_section_title
;
Structure prediction by ZEFSAII (Michael W. Deem and Ramdas Pophale) SiO2 
 PCOD9267217
Probable space group: C 2/C
;
_chemical_formula_sum "Si O2"
_cell_formula_units_Z 44
_cell_length_a 21.535225
_cell_length_b 9.360922
_cell_length_c 12.672008
_cell_angle_alpha 90.000000
_cell_angle_beta 51.196422
_cell_angle_gamma 90.000000
_cell_volume 1990.753576
_symmetry_space_group_name_H-M "C 2/C"
_symmetry_group_IT_number 15
_symmetry_cell_setting 'monoclinic'
loop_
_space_group_symop_operation_xyz
x,y,z
-x,y,1/2-z
-x,-y,-z
x,-y,1/2+z
1/2+x,1/2+y,z
1/2-x,1/2+y,1/2-z
1/2-x,1/2-y,-z
1/2+x,1/2-y,1/2+z
loop_
_atom_site_type_symbol
_atom_site_label
_atom_site_fract_x
_atom_site_fract_y
_atom_site_fract_z
Si Si1 0.230619 0.960022 0.648481
Si Si2 0.514013 0.836361 0.463587
Si Si3 0.416484 0.413220 0.108732
Si Si4 0.816893 0.250252 0.120602
Si Si5 0.657447 0.472294 0.530819
Si Si6 0.000000 0.203050 0.250000
O O1 0.139847 0.022891 0.743035
O O2 0.284199 0.096269 0.619235
O O3 0.232547 0.835956 0.734904
O O4 0.231752 0.918759 0.523156
O O5 0.445451 0.745836 0.594769
O O6 0.597848 0.780655 0.417412
O O7 0.508214 0.796858 0.346408
O O8 0.500000 0.000000 0.500000
O O9 0.500000 0.500000 0.000000
O O10 0.354222 0.420631 0.078387
O O11 0.829823 0.141402 0.008421
O O12 0.575098 0.399244 0.655430
#
# Coordination Sequence:
#
# PCOD9267217 Si02
#       6
#     8   8   8   8   8   4
#     4  11  22  40  63  90 132 169 216 262 331 379
#     4  11  23  42  62  96 133 160 219 274 322 380
#     4  10  19  40  65  89 119 171 220 266 316 382
#     4  11  24  41  61  97 129 173 211 268 323 390
#     4  10  19  38  68  91 120 167 227 256 315 396
#     4  10  20  42  72  94 126 178 208 272 334 374
#
# _framework density 22.102181999999999
#
# number of rings (size 3 to 8) (size 9 to 14) (size 15 to 20)
#    0.000    1.455    5.455    1.636    2.545    0.000 
#    3.273    7.273    0.000    0.000    0.000    0.000 
#    0.000    0.000    0.000    0.000    0.000    0.000 
#
# Total GULP energy -122521.140215 kJ/mol
# GULP energy per Si atom -5569.142737 kJ/mol
# Density = 2.205188 g / cm^3
# Si number density = 22.102182 Si / 1000 Ang^3
#
#
#
# Elastic Constant Matrix: (Units=GPa)
#
#
# Indices 1 2 3 4 5 6 
#
# 1 111.6298 34.8852 12.1141 0.0000 25.4718 0.0000
# 2 34.8852 110.5294 7.6481 0.0000 3.0862 0.0000
# 3 12.1141 7.6481 18.7618 0.0000 8.2171 0.0000
# 4 0.0000 0.0000 0.0000 30.2048 0.0000 0.6313
# 5 25.4718 3.0862 8.2171 0.0000 29.7997 0.0000
# 6 0.0000 0.0000 0.0000 0.6313 0.0000 32.8925
#
#
#
# Elastic Compliance Matrix: (Units=1/GPa)
#
#
# Indices 1 2 3 4 5 6 
#
# 1 0.012528 -0.003517 -0.002417 0.000000 -0.009678 0.000000
# 2 -0.003517 0.010297 -0.003158 0.000000 0.002810 0.000000
# 3 -0.002417 -0.003158 0.062668 0.000000 -0.014887 0.000000
# 4 0.000000 0.000000 0.000000 0.033121 0.000000 -0.000636
# 5 -0.009678 0.002810 -0.014887 0.000000 0.045644 0.000000
# 6 0.000000 0.000000 0.000000 -0.000636 0.000000 0.030414
#
#
# Mechanical properties :
#
#
# Convention : Reuss Voigt Hill
#
# Bulk Modulus (GPa) = 14.85655 38.91289 26.88472
# Shear Modulus (GPa) = 21.25033 30.99764 26.12399
#
# Velocity S-wave (km/s) = 3.10410 3.74902 3.44170
# Velocity P-wave (km/s) = 4.42534 6.03194 5.28999
#
# Compressibility (1/GPa) = 0.06731037
#
# Stress axis : x y z
#
# Youngs Moduli (GPa) = 79.82337 97.11295 15.95713
#
# Poissons Ratio (x) = 0.34150 0.03857
# Poissons Ratio (y) = 0.28070 0.05039
# Poissons Ratio (z) = 0.19293 0.30667
#
# Static dielectric constant tensor:
#      x y z
#    x 1.919750 0.000000 0.097900 
#    y 0.000000 1.829620 0.000000 
#    z 0.097900 0.000000 2.013820 
# 
# From -- ./inp_files/166057.got.cif
#   From: 2010.05.17/outbox.cif.g08.bks.cpg/sg15_84_cif.got.tgz:166057.got - 2010.06.03 18:47:42.
