data_PCOD9267195
_publ_section_title
;
Structure prediction by ZEFSAII (Michael W. Deem and Ramdas Pophale) SiO2 
 PCOD9267195
Probable space group: C 2/C
;
_chemical_formula_sum "Si O2"
_cell_formula_units_Z 56
_cell_length_a 22.593158
_cell_length_b 14.261496
_cell_length_c 11.247418
_cell_angle_alpha 90.000000
_cell_angle_beta 136.974500
_cell_angle_gamma 90.000000
_cell_volume 2472.779388
_symmetry_space_group_name_H-M "C 2/C"
_symmetry_group_IT_number 15
_symmetry_cell_setting 'monoclinic'
loop_
_space_group_symop_operation_xyz
x,y,z
-x,y,1/2-z
-x,-y,-z
x,-y,1/2+z
1/2+x,1/2+y,z
1/2-x,1/2+y,1/2-z
1/2-x,1/2-y,-z
1/2+x,1/2-y,1/2+z
loop_
_atom_site_type_symbol
_atom_site_label
_atom_site_fract_x
_atom_site_fract_y
_atom_site_fract_z
Si Si1 0.480790 0.400403 0.913688
Si Si2 0.172926 0.867047 0.547489
Si Si3 0.863960 0.438128 0.775367
Si Si4 0.907977 0.768272 0.293643
Si Si5 0.132497 0.075074 0.462145
Si Si6 0.761390 0.313532 0.290743
Si Si7 0.400159 0.037540 0.080131
O O1 0.392234 0.412325 0.711371
O O2 0.555489 0.379847 0.925882
O O3 0.500000 0.500000 0.000000
O O4 0.502606 0.319376 0.038702
O O5 0.264741 0.904087 0.631818
O O6 0.117744 0.808357 0.372037
O O7 0.201064 0.789012 0.684809
O O8 0.128937 0.967191 0.501433
O O9 0.916544 0.342280 0.826001
O O10 0.874035 0.502960 0.672653
O O11 0.890212 0.477523 0.943577
O O12 0.820988 0.797324 0.241898
O O13 0.221459 0.125172 0.626352
O O14 0.834672 0.376414 0.460512
O O15 0.500000 0.062041 0.250000
#
# Coordination Sequence:
#
# PCOD9267195 Si02
#       7
#     8   8   8   8   8   8   8
#     4  10  20  36  59  93 127 159 199 270 332 387
#     4  11  18  37  70  91 120 171 221 261 317 404
#     4  11  23  43  67  95 122 177 223 269 323 393
#     4  10  19  38  67  92 121 165 223 252 318 411
#     4  10  21  36  60  93 125 159 208 265 326 384
#     4  10  20  38  60  92 122 167 215 264 308 389
#     4  12  24  42  65  91 131 166 222 273 325 378
#
# _framework density 22.646581000000001
#
# number of rings (size 3 to 8) (size 9 to 14) (size 15 to 20)
#    0.000    1.429    5.714    1.286    0.000    0.000 
#   12.857    0.000    0.000    4.286    0.000    0.000 
#    0.000    0.000    0.000    0.000    0.000    0.000 
#
# Total GULP energy -156040.135287 kJ/mol
# GULP energy per Si atom -5572.861975 kJ/mol
# Density = 2.259504 g / cm^3
# Si number density = 22.646581 Si / 1000 Ang^3
#
#
#
# Elastic Constant Matrix: (Units=GPa)
#
#
# Indices 1 2 3 4 5 6 
#
# 1 56.4253 26.1622 35.9467 0.0000 -13.8386 0.0000
# 2 26.1622 104.5971 67.5885 0.0000 -12.0455 0.0000
# 3 35.9467 67.5885 178.4764 0.0000 -15.1794 0.0000
# 4 0.0000 0.0000 0.0000 26.8442 0.0000 -0.9594
# 5 -13.8386 -12.0455 -15.1794 0.0000 26.4243 0.0000
# 6 0.0000 0.0000 0.0000 -0.9594 0.0000 28.0289
#
#
#
# Elastic Compliance Matrix: (Units=1/GPa)
#
#
# Indices 1 2 3 4 5 6 
#
# 1 0.023091 -0.002937 -0.002759 0.000000 0.009169 0.000000
# 2 -0.002937 0.013290 -0.004265 0.000000 0.002070 0.000000
# 3 -0.002759 -0.004265 0.007870 0.000000 0.001132 0.000000
# 4 0.000000 0.000000 0.000000 0.037298 0.000000 0.001277
# 5 0.009169 0.002070 0.001132 0.000000 0.044240 0.000000
# 6 0.000000 0.000000 0.000000 0.001277 0.000000 0.035721
#
#
# Mechanical properties :
#
#
# Convention : Reuss Voigt Hill
#
# Bulk Modulus (GPa) = 41.10380 66.54373 53.82377
# Shear Modulus (GPa) = 26.37972 30.24623 28.31297
#
# Velocity S-wave (km/s) = 3.41668 3.65852 3.53967
# Velocity P-wave (km/s) = 5.80986 6.87704 6.36585
#
# Compressibility (1/GPa) = 0.02432865
#
# Stress axis : x y z
#
# Youngs Moduli (GPa) = 43.30783 75.24735 127.06422
#
# Poissons Ratio (x) = 0.22101 0.35051
# Poissons Ratio (y) = 0.12720 0.54194
# Poissons Ratio (z) = 0.11947 0.32094
#
# Static dielectric constant tensor:
#      x y z
#    x 1.960690 0.000000 -0.030370 
#    y 0.000000 1.858490 0.000000 
#    z -0.030370 0.000000 1.892790 
# 
# From -- ./inp_files/123349.got.cif
#   From: 2010.05.17/outbox.cif.g08.bks.cpg/sg15_62_cif.got.tgz:123349.got - 2010.06.03 18:47:42.
