data_PCOD9267267
_publ_section_title
;
Structure prediction by ZEFSAII (Michael W. Deem and Ramdas Pophale) SiO2 
 PCOD9267267
Probable space group: C 2/C
;
_chemical_formula_sum "Si O2"
_cell_formula_units_Z 64
_cell_length_a 19.145306
_cell_length_b 19.710636
_cell_length_c 19.357537
_cell_angle_alpha 90.000000
_cell_angle_beta 152.069593
_cell_angle_gamma 90.000000
_cell_volume 3421.596469
_symmetry_space_group_name_H-M "C 2/C"
_symmetry_group_IT_number 15
_symmetry_cell_setting 'monoclinic'
loop_
_space_group_symop_operation_xyz
x,y,z
-x,y,1/2-z
-x,-y,-z
x,-y,1/2+z
1/2+x,1/2+y,z
1/2-x,1/2+y,1/2-z
1/2-x,1/2-y,-z
1/2+x,1/2-y,1/2+z
loop_
_atom_site_type_symbol
_atom_site_label
_atom_site_fract_x
_atom_site_fract_y
_atom_site_fract_z
Si Si1 0.367545 0.404030 0.183359
Si Si2 0.421576 0.554460 0.981493
Si Si3 0.103629 0.062554 0.280766
Si Si4 0.857382 0.405370 0.910086
Si Si5 0.887882 0.486078 0.322205
Si Si6 0.968462 0.602660 0.142064
Si Si7 0.543034 0.664845 0.598899
Si Si8 0.699834 0.805138 0.765415
O O1 0.500000 0.377841 0.250000
O O2 0.357730 0.485228 0.165011
O O3 0.420810 0.386322 0.306845
O O4 0.203102 0.376831 0.021584
O O5 0.254924 0.529038 0.847973
O O6 0.420458 0.624976 0.939310
O O7 0.500000 0.500000 0.000000
O O8 0.507648 0.560037 0.127439
O O9 0.254640 0.098090 0.387561
O O10 0.000000 0.092733 0.250000
O O11 0.832537 0.474454 0.842858
O O12 0.821164 0.346561 0.824635
O O13 0.027144 0.417966 0.081281
O O14 0.994509 0.537348 0.373727
O O15 0.000000 0.588309 0.250000
O O16 0.084232 0.659736 0.217333
O O17 0.646978 0.729233 0.704538
O O18 0.368691 0.686170 0.440494
#
# Coordination Sequence:
#
# PCOD9267267 Si02
#       8
#     8   8   8   8   8   8   8   8
#     4  11  23  37  60  89 128 164 205 251 304 368
#     4  12  21  37  62  91 123 155 204 257 310 364
#     4  11  22  37  62  92 124 156 199 253 317 369
#     4  10  19  39  54  89 117 157 195 254 303 358
#     4  10  21  31  61  85 123 156 203 251 307 347
#     4  11  23  39  58  90 133 167 204 249 307 365
#     4  12  24  41  62  89 121 161 214 251 307 370
#     4  11  25  39  62  85 122 161 209 252 303 371
#
# _framework density 18.704719000000001
#
# number of rings (size 3 to 8) (size 9 to 14) (size 15 to 20)
#    0.000    1.000    5.000    2.250    8.750    0.500 
#    0.000    2.500    0.000    0.750    0.000    0.000 
#    0.000    0.000    0.000    0.000    0.000    0.000 
#
# Total GULP energy -178649.925607 kJ/mol
# GULP energy per Si atom -5582.810175 kJ/mol
# Density = 1.866215 g / cm^3
# Si number density = 18.704719 Si / 1000 Ang^3
#
#
#
# Elastic Constant Matrix: (Units=GPa)
#
#
# Indices 1 2 3 4 5 6 
#
# 1 102.5858 5.9815 12.9644 -0.0017 4.3762 -0.0004
# 2 5.9815 26.0750 5.3717 -0.0045 5.9985 -0.0016
# 3 12.9644 5.3717 84.3795 -0.0051 14.7952 0.0002
# 4 -0.0017 -0.0045 -0.0051 22.7076 -0.0019 -1.8459
# 5 4.3762 5.9985 14.7952 -0.0019 34.1250 0.0007
# 6 -0.0004 -0.0016 0.0002 -1.8459 0.0007 12.4598
#
#
#
# Elastic Compliance Matrix: (Units=1/GPa)
#
#
# Indices 1 2 3 4 5 6 
#
# 1 0.010048 -0.001943 -0.001357 0.000000 -0.000359 0.000000
# 2 -0.001943 0.040501 -0.001164 0.000008 -0.006366 0.000007
# 3 -0.001357 -0.001164 0.013060 0.000002 -0.005284 0.000000
# 4 0.000000 0.000008 0.000002 0.044575 0.000000 0.006604
# 5 -0.000359 -0.006366 -0.005284 0.000000 0.032760 -0.000003
# 6 0.000000 0.000007 0.000000 0.006604 -0.000003 0.081236
#
#
# Mechanical properties :
#
#
# Convention : Reuss Voigt Hill
#
# Bulk Modulus (GPa) = 18.28774 29.07505 23.68140
# Shear Modulus (GPa) = 20.05336 26.44001 23.24668
#
# Velocity S-wave (km/s) = 3.27785 3.76380 3.52920
# Velocity P-wave (km/s) = 4.91162 5.87079 5.41250
#
# Compressibility (1/GPa) = 0.05468144
#
# Stress axis : x y z
#
# Youngs Moduli (GPa) = 99.52184 24.69093 76.56792
#
# Poissons Ratio (x) = 0.04797 0.10392
# Poissons Ratio (y) = 0.19336 0.08910
# Poissons Ratio (z) = 0.13508 0.02873
#
# Static dielectric constant tensor:
#      x y z
#    x 1.659460 0.000000 0.027490 
#    y 0.000000 1.648890 0.000000 
#    z 0.027490 0.000000 1.656910 
# 
# From -- ./inp_files/212002.got.cif
#   From: 2010.05.17/outbox.cif.g08.bks.cpg/sg15_107_cif.got.tgz:212002.got - 2010.06.03 18:47:42.
