data_PCOD9267577
_publ_section_title
;
Structure prediction by ZEFSAII (Michael W. Deem and Ramdas Pophale) SiO2 
 PCOD9267577
Probable space group: C 2/C
;
_chemical_formula_sum "Si O2"
_cell_formula_units_Z 48
_cell_length_a 27.387162
_cell_length_b 8.738312
_cell_length_c 17.265310
_cell_angle_alpha 90.000000
_cell_angle_beta 150.803566
_cell_angle_gamma 90.000000
_cell_volume 2015.558922
_symmetry_space_group_name_H-M "C 2/C"
_symmetry_group_IT_number 15
_symmetry_cell_setting 'monoclinic'
loop_
_space_group_symop_operation_xyz
x,y,z
-x,y,1/2-z
-x,-y,-z
x,-y,1/2+z
1/2+x,1/2+y,z
1/2-x,1/2+y,1/2-z
1/2-x,1/2-y,-z
1/2+x,1/2-y,1/2+z
loop_
_atom_site_type_symbol
_atom_site_label
_atom_site_fract_x
_atom_site_fract_y
_atom_site_fract_z
Si Si1 0.676205 0.754247 0.324545
Si Si2 0.389719 0.247472 0.168701
Si Si3 0.741989 0.743875 0.720435
Si Si4 0.729261 0.095737 0.365294
Si Si5 0.526600 0.262171 0.875188
Si Si6 0.408639 0.090036 0.043708
O O1 0.750000 0.750000 0.500000
O O2 0.720307 0.678941 0.307485
O O3 0.566683 0.701276 0.198805
O O4 0.677621 0.933681 0.304737
O O5 0.334415 0.215291 0.171910
O O6 0.368342 0.112637 0.075499
O O7 0.506960 0.223577 0.345198
O O8 0.339527 0.393438 0.057914
O O9 0.731962 0.849954 0.781516
O O10 0.633725 0.673073 0.549995
O O11 0.825307 0.627684 0.866458
O O12 0.500000 0.301640 0.750000
O O13 0.544848 0.077106 0.902334
#
# Coordination Sequence:
#
# PCOD9267577 Si02
#       6
#     8   8   8   8   8   8
#     4  12  25  44  69 101 138 188 230 283 364 418
#     4   9  18  36  69  98 129 178 224 286 340 407
#     4  11  26  38  63 104 136 173 234 292 335 409
#     4  10  21  41  64 102 136 172 232 289 341 405
#     4  12  22  43  70  96 138 187 233 286 344 422
#     4  10  19  39  67 102 129 176 241 273 343 417
#
# _framework density 23.814731999999999
#
# number of rings (size 3 to 8) (size 9 to 14) (size 15 to 20)
#    0.000    1.333    5.000    1.000    2.333    1.333 
#    3.000    8.333    0.000    5.000    0.000    0.000 
#    0.000    0.000    0.000    0.000    0.000    0.000 
#
# Total GULP energy -134139.580918 kJ/mol
# GULP energy per Si atom -5589.149205 kJ/mol
# Density = 2.376053 g / cm^3
# Si number density = 23.814732 Si / 1000 Ang^3
#
#
#
# Elastic Constant Matrix: (Units=GPa)
#
#
# Indices 1 2 3 4 5 6 
#
# 1 205.0042 12.8785 77.0642 0.0000 -15.1374 0.0000
# 2 12.8785 14.6330 14.6642 0.0000 -8.9640 0.0000
# 3 77.0642 14.6642 196.0666 0.0000 -4.8394 0.0000
# 4 0.0000 0.0000 0.0000 31.9018 0.0000 -2.3219
# 5 -15.1374 -8.9640 -4.8394 0.0000 43.1486 0.0000
# 6 0.0000 0.0000 0.0000 -2.3219 0.0000 24.6579
#
#
#
# Elastic Compliance Matrix: (Units=1/GPa)
#
#
# Indices 1 2 3 4 5 6 
#
# 1 0.005919 -0.002238 -0.002125 0.000000 0.001373 0.000000
# 2 -0.002238 0.085473 -0.005108 0.000000 0.016399 0.000000
# 3 -0.002125 -0.005108 0.006290 0.000000 -0.001101 0.000000
# 4 0.000000 0.000000 0.000000 0.031562 0.000000 0.002972
# 5 0.001373 0.016399 -0.001101 0.000000 0.026941 0.000000
# 6 0.000000 0.000000 0.000000 0.002972 0.000000 0.040835
#
#
# Mechanical properties :
#
#
# Convention : Reuss Voigt Hill
#
# Bulk Modulus (GPa) = 12.70014 69.43530 41.06772
# Shear Modulus (GPa) = 20.64321 40.68146 30.66234
#
# Velocity S-wave (km/s) = 2.94738 4.13758 3.59212
# Velocity P-wave (km/s) = 4.11427 7.21428 5.87252
#
# Compressibility (1/GPa) = 0.07873929
#
# Stress axis : x y z
#
# Youngs Moduli (GPa) = 168.95300 11.69955 158.97124
#
# Poissons Ratio (x) = 0.02619 0.33783
# Poissons Ratio (y) = 0.37818 0.81205
# Poissons Ratio (z) = 0.35904 0.05976
#
# Static dielectric constant tensor:
#      x y z
#    x 1.934410 0.000000 0.042770 
#    y 0.000000 1.965620 0.000000 
#    z 0.042770 0.000000 1.931290 
# 
# From -- ./inp_files/224681.got.cif
#   From: 2010.05.17/outbox.cif.g08.bks.cpg/sg15_113_cif.got.tgz:224681.got - 2010.06.03 18:47:42.
