data_PCOD9267622
_publ_section_title
;
Structure prediction by ZEFSAII (Michael W. Deem and Ramdas Pophale) SiO2 
 PCOD9267622
Probable space group: C 2/C
;
_chemical_formula_sum "Si O2"
_cell_formula_units_Z 60
_cell_length_a 13.644011
_cell_length_b 14.597852
_cell_length_c 22.246054
_cell_angle_alpha 90.000000
_cell_angle_beta 42.747792
_cell_angle_gamma 90.000000
_cell_volume 3007.517817
_symmetry_space_group_name_H-M "C 2/C"
_symmetry_group_IT_number 15
_symmetry_cell_setting 'monoclinic'
loop_
_space_group_symop_operation_xyz
x,y,z
-x,y,1/2-z
-x,-y,-z
x,-y,1/2+z
1/2+x,1/2+y,z
1/2-x,1/2+y,1/2-z
1/2-x,1/2-y,-z
1/2+x,1/2-y,1/2+z
loop_
_atom_site_type_symbol
_atom_site_label
_atom_site_fract_x
_atom_site_fract_y
_atom_site_fract_z
Si Si1 0.944773 0.089507 0.397182
Si Si2 0.435083 0.939050 0.082175
Si Si3 0.342369 0.123590 0.318926
Si Si4 0.000000 0.177503 0.250000
Si Si5 0.656235 0.953952 0.090998
Si Si6 0.242181 0.318534 0.155237
Si Si7 0.237822 0.989150 0.265982
Si Si8 0.540122 0.273675 0.956974
O O1 0.983783 0.177071 0.421382
O O2 0.932527 0.120670 0.334561
O O3 0.801715 0.045407 0.487444
O O4 0.072654 0.017576 0.345646
O O5 0.530182 0.945749 0.099978
O O6 0.284809 0.977199 0.175957
O O7 0.435605 0.833866 0.062166
O O8 0.500000 0.000000 0.000000
O O9 0.500000 0.171437 0.250000
O O10 0.197190 0.180758 0.398360
O O11 0.353050 0.042338 0.362888
O O12 0.318199 0.071156 0.266124
O O13 0.866923 0.236101 0.282572
O O14 0.670659 0.867836 0.129217
O O15 0.240856 0.394128 0.208019
O O16 0.407137 0.291712 0.063439
#
# Coordination Sequence:
#
# PCOD9267622 Si02
#       8
#     8   8   8   4   8   8   8   8
#     4  10  22  36  59  90 125 155 195 256 307 362
#     4  12  25  39  57  86 127 164 194 243 317 378
#     4  10  19  39  69  89 113 159 219 256 288 355
#     4  12  22  32  60  94 124 160 206 244 308 378
#     4  10  20  39  62  89 117 157 204 254 303 360
#     4  10  20  36  65  90 117 153 208 260 299 356
#     4  10  21  38  60  91 119 162 200 247 304 366
#     4  10  22  40  59  91 123 154 201 262 312 346
#
# _framework density 19.950006999999999
#
# number of rings (size 3 to 8) (size 9 to 14) (size 15 to 20)
#    0.000    1.600    1.333    4.000    5.600    5.333 
#    0.000    2.000    0.000    0.000    0.000    0.000 
#    0.000    0.000    0.000    0.000    0.000    0.000 
#
# Total GULP energy -167537.671725 kJ/mol
# GULP energy per Si atom -5584.589058 kJ/mol
# Density = 1.990460 g / cm^3
# Si number density = 19.950007 Si / 1000 Ang^3
#
#
#
# Elastic Constant Matrix: (Units=GPa)
#
#
# Indices 1 2 3 4 5 6 
#
# 1 25.2523 20.2399 5.8605 0.0000 -14.5028 0.0000
# 2 20.2399 45.5579 14.7968 0.0000 -0.9538 0.0000
# 3 5.8605 14.7968 120.9758 0.0000 -4.8683 0.0000
# 4 0.0000 0.0000 0.0000 113.2679 0.0000 4.6238
# 5 -14.5028 -0.9538 -4.8683 0.0000 32.1557 0.0000
# 6 0.0000 0.0000 0.0000 4.6238 0.0000 7.2386
#
#
#
# Elastic Compliance Matrix: (Units=1/GPa)
#
#
# Indices 1 2 3 4 5 6 
#
# 1 0.099715 -0.044138 0.002339 0.000000 0.044018 0.000000
# 2 -0.044138 0.042398 -0.003821 0.000000 -0.019228 0.000000
# 3 0.002339 -0.003821 0.008711 0.000000 0.002261 0.000000
# 4 0.000000 0.000000 0.000000 0.009065 0.000000 -0.005790
# 5 0.044018 -0.019228 0.002261 0.000000 0.050724 0.000000
# 6 0.000000 0.000000 0.000000 -0.005790 0.000000 0.141847
#
#
# Mechanical properties :
#
#
# Convention : Reuss Voigt Hill
#
# Bulk Modulus (GPa) = 16.78316 30.39782 23.59049
# Shear Modulus (GPa) = 10.78607 40.59170 25.68888
#
# Velocity S-wave (km/s) = 2.32772 4.51563 3.59229
# Velocity P-wave (km/s) = 3.95667 6.51597 5.39042
#
# Compressibility (1/GPa) = 0.05958353
#
# Stress axis : x y z
#
# Youngs Moduli (GPa) = 10.02859 23.58611 114.79547
#
# Poissons Ratio (x) = 1.04105 -0.26856
# Poissons Ratio (y) = 0.44265 0.43867
# Poissons Ratio (z) = -0.02346 0.09013
#
# Static dielectric constant tensor:
#      x y z
#    x 1.722060 0.000000 -0.033900 
#    y 0.000000 1.685710 0.000000 
#    z -0.033900 0.000000 1.709670 
# 
# From -- ./inp_files/244700.got.cif
#   From: 2010.05.17/outbox.cif.g08.bks.cpg/sg15_123_cif.got.tgz:244700.got - 2010.06.03 18:47:42.
