data_PCOD9267348
_publ_section_title
;
Structure prediction by ZEFSAII (Michael W. Deem and Ramdas Pophale) SiO2 
 PCOD9267348
Probable space group: C 2/C
;
_chemical_formula_sum "Si O2"
_cell_formula_units_Z 64
_cell_length_a 22.058617
_cell_length_b 8.835245
_cell_length_c 16.927537
_cell_angle_alpha 90.000000
_cell_angle_beta 92.450913
_cell_angle_gamma 90.000000
_cell_volume 3296.045402
_symmetry_space_group_name_H-M "C 2/C"
_symmetry_group_IT_number 15
_symmetry_cell_setting 'monoclinic'
loop_
_space_group_symop_operation_xyz
x,y,z
-x,y,1/2-z
-x,-y,-z
x,-y,1/2+z
1/2+x,1/2+y,z
1/2-x,1/2+y,1/2-z
1/2-x,1/2-y,-z
1/2+x,1/2-y,1/2+z
loop_
_atom_site_type_symbol
_atom_site_label
_atom_site_fract_x
_atom_site_fract_y
_atom_site_fract_z
Si Si1 0.618138 0.987927 0.948137
Si Si2 0.332076 0.090238 0.710782
Si Si3 0.636890 0.549655 0.061617
Si Si4 0.799367 0.194213 0.565039
Si Si5 0.732919 0.677971 0.194540
Si Si6 0.908418 0.276736 0.935868
Si Si7 0.528709 0.788794 0.035726
Si Si8 0.550131 0.006733 0.685293
O O1 0.655551 0.836371 0.933810
O O2 0.632378 0.084242 0.870895
O O3 0.555165 0.911451 0.973705
O O4 0.632881 0.095413 0.023599
O O5 0.298306 0.245737 0.731699
O O6 0.385237 0.059556 0.776736
O O7 0.281253 0.956757 0.710305
O O8 0.681063 0.621369 0.130353
O O9 0.624134 0.378564 0.083690
O O10 0.576296 0.651297 0.048357
O O11 0.668627 0.555678 0.976788
O O12 0.750000 0.250000 0.500000
O O13 0.769152 0.189116 0.648793
O O14 0.937053 0.351468 0.860124
O O15 0.962903 0.243375 0.000865
O O16 0.527628 0.871973 0.119721
O O17 0.500000 0.989421 0.750000
#
# Coordination Sequence:
#
# PCOD9267348 Si02
#       8
#     8   8   8   8   8   8   8   8
#     4   9  19  36  58  85 109 149 202 240 279 354
#     4  11  22  39  61  86 123 157 194 240 301 343
#     4  10  20  38  58  85 121 150 194 244 297 350
#     4   8  17  35  57  77 110 153 187 232 293 344
#     4  10  22  38  58  86 119 157 194 239 296 360
#     4  11  22  34  61  90 115 149 203 248 288 342
#     4  10  19  39  61  84 115 155 200 242 293 346
#     4  11  22  39  63  87 119 159 197 243 292 352
#
# _framework density 19.417207999999999
#
# number of rings (size 3 to 8) (size 9 to 14) (size 15 to 20)
#    0.000    2.000    1.250    3.375    3.500    1.000 
#    0.000    6.250    2.750    0.000    0.000    0.000 
#    0.000    0.000    0.000    0.000    0.000    0.000 
#
# Total GULP energy -178280.321603 kJ/mol
# GULP energy per Si atom -5571.260050 kJ/mol
# Density = 1.937301 g / cm^3
# Si number density = 19.417208 Si / 1000 Ang^3
#
#
#
# Elastic Constant Matrix: (Units=GPa)
#
#
# Indices 1 2 3 4 5 6 
#
# 1 57.7663 6.9202 25.4296 0.0000 -6.1802 0.0000
# 2 6.9202 54.7877 12.1512 0.0000 -18.3015 0.0000
# 3 25.4296 12.1512 80.7827 0.0000 -23.4488 0.0000
# 4 0.0000 0.0000 0.0000 22.3493 0.0000 -1.7348
# 5 -6.1802 -18.3015 -23.4488 0.0000 28.1052 0.0000
# 6 0.0000 0.0000 0.0000 -1.7348 0.0000 20.1474
#
#
#
# Elastic Compliance Matrix: (Units=1/GPa)
#
#
# Indices 1 2 3 4 5 6 
#
# 1 0.020271 -0.001864 -0.006808 0.000000 -0.002437 0.000000
# 2 -0.001864 0.023584 0.001819 0.000000 0.016465 0.000000
# 3 -0.006808 0.001819 0.018682 0.000000 0.015274 0.000000
# 4 0.000000 0.000000 0.000000 0.045045 0.000000 0.003879
# 5 -0.002437 0.016465 0.015274 0.000000 0.058510 0.000000
# 6 0.000000 0.000000 0.000000 0.003879 0.000000 0.049968
#
#
# Mechanical properties :
#
#
# Convention : Reuss Voigt Hill
#
# Bulk Modulus (GPa) = 20.47921 31.37097 25.92509
# Shear Modulus (GPa) = 20.32155 24.04276 22.18216
#
# Velocity S-wave (km/s) = 3.23859 3.52265 3.38360
# Velocity P-wave (km/s) = 4.95524 5.72161 5.35216
#
# Compressibility (1/GPa) = 0.04883002
#
# Stress axis : x y z
#
# Youngs Moduli (GPa) = 49.33227 42.40081 53.52761
#
# Poissons Ratio (x) = 0.07905 0.36441
# Poissons Ratio (y) = 0.09197 -0.09735
# Poissons Ratio (z) = 0.33585 -0.07711
#
# Static dielectric constant tensor:
#      x y z
#    x 1.712870 0.000000 -0.014400 
#    y 0.000000 1.665480 0.000000 
#    z -0.014400 0.000000 1.691200 
# 
# From -- ./inp_files/172394.got.cif
#   From: 2010.05.17/outbox.cif.g08.bks.cpg/sg15_87_cif.got.tgz:172394.got - 2010.06.03 18:47:42.
