data_PCOD9267339
_publ_section_title
;
Structure prediction by ZEFSAII (Michael W. Deem and Ramdas Pophale) SiO2 
 PCOD9267339
Probable space group: C 2/C
;
_chemical_formula_sum "Si O2"
_cell_formula_units_Z 52
_cell_length_a 17.929478
_cell_length_b 19.701449
_cell_length_c 13.006246
_cell_angle_alpha 90.000000
_cell_angle_beta 30.272835
_cell_angle_gamma 90.000000
_cell_volume 2316.061932
_symmetry_space_group_name_H-M "C 2/C"
_symmetry_group_IT_number 15
_symmetry_cell_setting 'monoclinic'
loop_
_space_group_symop_operation_xyz
x,y,z
-x,y,1/2-z
-x,-y,-z
x,-y,1/2+z
1/2+x,1/2+y,z
1/2-x,1/2+y,1/2-z
1/2-x,1/2-y,-z
1/2+x,1/2-y,1/2+z
loop_
_atom_site_type_symbol
_atom_site_label
_atom_site_fract_x
_atom_site_fract_y
_atom_site_fract_z
Si Si1 0.456367 0.745284 0.628723
Si Si2 0.320287 0.604588 0.865646
Si Si3 0.875059 0.754765 0.985733
Si Si4 0.103038 0.897203 0.530207
Si Si5 0.666181 0.346441 0.784653
Si Si6 0.000000 0.358140 0.750000
Si Si7 0.636146 0.546367 0.460381
O O1 0.359096 0.683002 0.790898
O O2 0.423672 0.760975 0.546737
O O3 0.616788 0.708406 0.429590
O O4 0.459188 0.808426 0.702397
O O5 0.456840 0.558396 0.658396
O O6 0.146674 0.598989 0.045545
O O7 0.331065 0.584282 0.972160
O O8 0.000000 0.758557 0.750000
O O9 0.800096 0.829508 0.073647
O O10 0.768462 0.693239 0.085788
O O11 0.982289 0.870258 0.593786
O O12 0.000000 0.913543 0.750000
O O13 0.174784 0.967721 0.416041
O O14 0.724718 0.413212 0.768469
#
# Coordination Sequence:
#
# PCOD9267339 Si02
#       7
#     8   8   8   8   8   4   8
#     4  10  20  34  55  89 126 161 204 254 316 383
#     4  10  20  33  59  86 126 165 202 254 316 378
#     4  10  22  38  59  91 125 165 214 262 316 362
#     4  10  20  35  60  87 116 162 211 265 303 370
#     4  10  20  35  59  89 119 161 216 261 306 368
#     4  12  20  32  58  96 132 164 196 260 334 380
#     4  10  19  39  60  88 127 168 213 256 306 387
#
# _framework density 22.451903999999999
#
# number of rings (size 3 to 8) (size 9 to 14) (size 15 to 20)
#    0.000    1.846    1.538    4.615    0.000    5.538 
#    0.000    0.000    1.692    0.000    0.000   18.308 
#    0.000    0.000    0.000    0.000    0.000    0.000 
#
# Total GULP energy -144867.468874 kJ/mol
# GULP energy per Si atom -5571.825726 kJ/mol
# Density = 2.240080 g / cm^3
# Si number density = 22.451904 Si / 1000 Ang^3
#
#
#
# Elastic Constant Matrix: (Units=GPa)
#
#
# Indices 1 2 3 4 5 6 
#
# 1 76.6707 27.8768 19.9475 0.0005 17.6038 -0.0010
# 2 27.8768 102.6511 38.7277 -0.0015 10.2926 0.0009
# 3 19.9475 38.7277 64.2441 -0.0005 -6.7509 0.0002
# 4 0.0005 -0.0015 -0.0005 29.3769 -0.0003 4.3129
# 5 17.6038 10.2926 -6.7509 -0.0003 24.8676 0.0006
# 6 -0.0010 0.0009 0.0002 4.3129 0.0006 9.9354
#
#
#
# Elastic Compliance Matrix: (Units=1/GPa)
#
#
# Indices 1 2 3 4 5 6 
#
# 1 0.018460 -0.001080 -0.006595 -0.000001 -0.014411 0.000003
# 2 -0.001080 0.014194 -0.009015 0.000001 -0.007558 -0.000001
# 3 -0.006595 -0.009015 0.024633 0.000000 0.015087 -0.000001
# 4 -0.000001 0.000001 0.000000 0.036357 0.000001 -0.015783
# 5 -0.014411 -0.007558 0.015087 0.000001 0.057639 -0.000005
# 6 0.000003 -0.000001 -0.000001 -0.015783 -0.000005 0.107501
#
#
# Mechanical properties :
#
#
# Convention : Reuss Voigt Hill
#
# Bulk Modulus (GPa) = 41.82914 46.29666 44.06290
# Shear Modulus (GPa) = 16.65918 23.30358 19.98138
#
# Velocity S-wave (km/s) = 2.72691 3.22519 2.98646
# Velocity P-wave (km/s) = 5.34656 5.87659 5.61783
#
# Compressibility (1/GPa) = 0.02390678
#
# Stress axis : x y z
#
# Youngs Moduli (GPa) = 54.17044 70.45177 40.59524
#
# Poissons Ratio (x) = 0.07609 0.26773
# Poissons Ratio (y) = 0.05851 0.36598
# Poissons Ratio (z) = 0.35726 0.63515
#
# Static dielectric constant tensor:
#      x y z
#    x 2.001090 0.000000 0.006650 
#    y 0.000000 1.885590 0.000000 
#    z 0.006650 0.000000 1.940090 
# 
# From -- ./inp_files/168986.got.cif
#   From: 2010.05.17/outbox.cif.g08.bks.cpg/sg15_85_cif.got.tgz:168986.got - 2010.06.03 18:47:42.
