data_PCOD9267554
_publ_section_title
;
Structure prediction by ZEFSAII (Michael W. Deem and Ramdas Pophale) SiO2 
 PCOD9267554
Probable space group: C 2/C
;
_chemical_formula_sum "Si O2"
_cell_formula_units_Z 56
_cell_length_a 11.039159
_cell_length_b 18.092268
_cell_length_c 14.544648
_cell_angle_alpha 90.000000
_cell_angle_beta 114.251086
_cell_angle_gamma 90.000000
_cell_volume 2648.561225
_symmetry_space_group_name_H-M "C 2/C"
_symmetry_group_IT_number 15
_symmetry_cell_setting 'monoclinic'
loop_
_space_group_symop_operation_xyz
x,y,z
-x,y,1/2-z
-x,-y,-z
x,-y,1/2+z
1/2+x,1/2+y,z
1/2-x,1/2+y,1/2-z
1/2-x,1/2-y,-z
1/2+x,1/2-y,1/2+z
loop_
_atom_site_type_symbol
_atom_site_label
_atom_site_fract_x
_atom_site_fract_y
_atom_site_fract_z
Si Si1 0.610054 0.039481 0.410630
Si Si2 0.650058 0.448643 0.960480
Si Si3 0.641220 0.791601 0.908670
Si Si4 0.917182 0.939117 0.344322
Si Si5 0.812880 0.462952 0.779521
Si Si6 0.866421 0.231333 0.802927
Si Si7 0.155941 0.173158 0.316889
O O1 0.657282 0.123082 0.437276
O O2 0.642134 0.030466 0.312352
O O3 0.452595 0.031650 0.375798
O O4 0.705283 0.985615 0.495801
O O5 0.543593 0.504863 0.879681
O O6 0.658170 0.369241 0.914801
O O7 0.611665 0.439647 0.055121
O O8 0.490056 0.773359 0.886933
O O9 0.652530 0.765532 0.805531
O O10 0.750000 0.750000 0.000000
O O11 0.915285 0.853390 0.315224
O O12 0.797526 0.974098 0.248124
O O13 0.732905 0.387516 0.776661
O O14 0.736517 0.251583 0.822134
O O15 0.000000 0.182840 0.250000
#
# Coordination Sequence:
#
# PCOD9267554 Si02
#       7
#     8   8   8   8   8   8   8
#     4  10  19  40  64  88 118 162 216 271 319 375
#     4  10  23  39  67  91 126 175 228 271 323 406
#     4  11  22  40  69  95 125 169 213 270 339 393
#     4  10  22  42  63  94 128 172 225 271 323 401
#     4  10  19  39  66  83 122 168 211 264 328 388
#     4  11  24  43  64  96 137 168 216 279 339 393
#     4  12  23  40  64  94 129 178 214 268 344 404
#
# _framework density 21.143554999999999
#
# number of rings (size 3 to 8) (size 9 to 14) (size 15 to 20)
#    0.000    1.429    4.286    1.714    0.000    5.714 
#    7.714    0.000    0.000    0.000    0.000    0.000 
#    0.000    0.000    0.000    0.000    0.000    0.000 
#
# Total GULP energy -156175.393040 kJ/mol
# GULP energy per Si atom -5577.692609 kJ/mol
# Density = 2.109543 g / cm^3
# Si number density = 21.143555 Si / 1000 Ang^3
#
#
#
# Elastic Constant Matrix: (Units=GPa)
#
#
# Indices 1 2 3 4 5 6 
#
# 1 123.2385 -3.6407 48.4146 0.0000 6.8733 0.0000
# 2 -3.6407 37.7118 6.9799 0.0000 0.6215 0.0000
# 3 48.4146 6.9799 75.9720 0.0000 23.9316 0.0000
# 4 0.0000 0.0000 0.0000 4.5213 0.0000 4.2369
# 5 6.8733 0.6215 23.9316 0.0000 39.9958 0.0000
# 6 0.0000 0.0000 0.0000 4.2369 0.0000 20.3237
#
#
#
# Elastic Compliance Matrix: (Units=1/GPa)
#
#
# Indices 1 2 3 4 5 6 
#
# 1 0.011329 0.002602 -0.008419 0.000000 0.003050 0.000000
# 2 0.002602 0.027629 -0.004831 0.000000 0.002014 0.000000
# 3 -0.008419 -0.004831 0.022788 0.000000 -0.012113 0.000000
# 4 0.000000 0.000000 0.000000 0.274877 0.000000 -0.057304
# 5 0.003050 0.002014 -0.012113 0.000000 0.031695 0.000000
# 6 0.000000 0.000000 0.000000 -0.057304 0.000000 0.061150
#
#
# Mechanical properties :
#
#
# Convention : Reuss Voigt Hill
#
# Bulk Modulus (GPa) = 24.72291 37.82554 31.27422
# Shear Modulus (GPa) = 10.77013 25.31272 18.04143
#
# Velocity S-wave (km/s) = 2.25940 3.46379 2.92427
# Velocity P-wave (km/s) = 4.30404 5.82459 5.12106
#
# Compressibility (1/GPa) = 0.04044832
#
# Stress axis : x y z
#
# Youngs Moduli (GPa) = 88.27181 36.19383 43.88342
#
# Poissons Ratio (x) = -0.09417 0.36947
# Poissons Ratio (y) = -0.22966 0.21200
# Poissons Ratio (z) = 0.74319 0.17485
#
# Static dielectric constant tensor:
#      x y z
#    x 1.812720 0.000000 -0.039070 
#    y 0.000000 1.759090 0.000000 
#    z -0.039070 0.000000 1.737120 
# 
# From -- ./inp_files/146183.got.cif
#   From: 2010.05.17/outbox.cif.g08.bks.cpg/sg15_74_cif.got.tgz:146183.got - 2010.06.03 18:47:42.
