data_PCOD9267497
_publ_section_title
;
Structure prediction by ZEFSAII (Michael W. Deem and Ramdas Pophale) SiO2 
 PCOD9267497
Probable space group: C 2/C
;
_chemical_formula_sum "Si O2"
_cell_formula_units_Z 60
_cell_length_a 18.108776
_cell_length_b 11.892619
_cell_length_c 21.033226
_cell_angle_alpha 90.000000
_cell_angle_beta 41.165908
_cell_angle_gamma 90.000000
_cell_volume 2981.658118
_symmetry_space_group_name_H-M "C 2/C"
_symmetry_group_IT_number 15
_symmetry_cell_setting 'monoclinic'
loop_
_space_group_symop_operation_xyz
x,y,z
-x,y,1/2-z
-x,-y,-z
x,-y,1/2+z
1/2+x,1/2+y,z
1/2-x,1/2+y,1/2-z
1/2-x,1/2-y,-z
1/2+x,1/2-y,1/2+z
loop_
_atom_site_type_symbol
_atom_site_label
_atom_site_fract_x
_atom_site_fract_y
_atom_site_fract_z
Si Si1 0.843653 0.472457 0.525603
Si Si2 0.449920 0.456510 0.964400
Si Si3 0.946626 0.590066 0.165132
Si Si4 0.216504 0.442100 0.304391
Si Si5 0.490258 0.227343 0.549589
Si Si6 0.000000 0.565171 0.750000
Si Si7 0.729817 0.867373 0.049220
Si Si8 0.948962 0.170860 0.627896
O O1 0.771034 0.511114 0.632237
O O2 0.778241 0.458322 0.502484
O O3 0.947118 0.558218 0.448315
O O4 0.907018 0.354308 0.498321
O O5 0.517190 0.342200 0.904807
O O6 0.323229 0.410681 0.038512
O O7 0.467967 0.567815 0.910887
O O8 0.500000 0.500000 0.000000
O O9 0.835248 0.543825 0.203143
O O10 0.944173 0.722791 0.177662
O O11 0.964976 0.515233 0.215063
O O12 0.120477 0.346390 0.370330
O O13 0.327987 0.388367 0.204181
O O14 0.516613 0.272324 0.461648
O O15 0.108012 0.636256 0.660365
O O16 0.750000 0.750000 0.000000
#
# Coordination Sequence:
#
# PCOD9267497 Si02
#       8
#     8   8   8   8   8   4   8   8
#     4  10  19  41  65  89 122 178 218 271 335 395
#     4  10  24  40  63  99 135 172 220 285 343 393
#     4  10  21  42  61  90 133 171 228 268 327 408
#     4  11  22  36  68  93 128 180 220 271 333 407
#     4  10  19  39  64  92 133 166 223 275 334 400
#     4  10  26  42  70 100 126 190 230 264 342 420
#     4  11  23  46  70  99 139 176 221 288 341 403
#     4  11  23  38  64  96 131 173 224 277 331 397
#
# _framework density 20.12303
#
# number of rings (size 3 to 8) (size 9 to 14) (size 15 to 20)
#    0.000    1.600    4.000    0.800    5.600    1.067 
#    4.800    1.333    0.000    0.000    0.000    0.000 
#    0.000    0.000    0.000    0.000    0.000    0.000 
#
# Total GULP energy -167254.669853 kJ/mol
# GULP energy per Si atom -5575.155662 kJ/mol
# Density = 2.007723 g / cm^3
# Si number density = 20.123030 Si / 1000 Ang^3
#
#
#
# Elastic Constant Matrix: (Units=GPa)
#
#
# Indices 1 2 3 4 5 6 
#
# 1 69.6377 22.9918 26.2595 0.0000 -13.6651 0.0000
# 2 22.9918 138.5902 39.5074 0.0000 -13.3139 0.0000
# 3 26.2595 39.5074 84.7400 0.0000 -10.2845 0.0000
# 4 0.0000 0.0000 0.0000 20.8566 0.0000 0.5549
# 5 -13.6651 -13.3139 -10.2845 0.0000 22.2349 0.0000
# 6 0.0000 0.0000 0.0000 0.5549 0.0000 13.3417
#
#
#
# Elastic Compliance Matrix: (Units=1/GPa)
#
#
# Indices 1 2 3 4 5 6 
#
# 1 0.017887 -0.000996 -0.004044 0.000000 0.008526 0.000000
# 2 -0.000996 0.008623 -0.003347 0.000000 0.003003 0.000000
# 3 -0.004044 -0.003347 0.014906 0.000000 0.002405 0.000000
# 4 0.000000 0.000000 0.000000 0.048000 0.000000 -0.001996
# 5 0.008526 0.003003 0.002405 0.000000 0.053125 0.000000
# 6 0.000000 0.000000 0.000000 -0.001996 0.000000 0.075036
#
#
# Mechanical properties :
#
#
# Convention : Reuss Voigt Hill
#
# Bulk Modulus (GPa) = 40.57942 52.27617 46.42779
# Shear Modulus (GPa) = 20.61299 24.90058 22.75679
#
# Velocity S-wave (km/s) = 3.20402 3.52151 3.36651
# Velocity P-wave (km/s) = 5.82212 6.52452 6.18330
#
# Compressibility (1/GPa) = 0.02464303
#
# Stress axis : x y z
#
# Youngs Moduli (GPa) = 55.90742 115.96307 67.08495
#
# Poissons Ratio (x) = 0.11544 0.27128
# Poissons Ratio (y) = 0.05566 0.22456
# Poissons Ratio (z) = 0.22608 0.38818
#
# Static dielectric constant tensor:
#      x y z
#    x 1.768790 0.000000 0.028710 
#    y 0.000000 1.748780 0.000000 
#    z 0.028710 0.000000 1.731120 
# 
# From -- ./inp_files/248747.got.cif
#   From: 2010.05.17/outbox.cif.g08.bks.cpg/sg15_125_cif.got.tgz:248747.got - 2010.06.03 18:47:42.
