data_PCOD9267186
_publ_section_title
;
Structure prediction by ZEFSAII (Michael W. Deem and Ramdas Pophale) SiO2 
 PCOD9267186
Probable space group: C 2/C
;
_chemical_formula_sum "Si O2"
_cell_formula_units_Z 64
_cell_length_a 8.085686
_cell_length_b 17.938470
_cell_length_c 28.396875
_cell_angle_alpha 90.000000
_cell_angle_beta 140.930529
_cell_angle_gamma 90.000000
_cell_volume 2595.936664
_symmetry_space_group_name_H-M "C 2/C"
_symmetry_group_IT_number 15
_symmetry_cell_setting 'monoclinic'
loop_
_space_group_symop_operation_xyz
x,y,z
-x,y,1/2-z
-x,-y,-z
x,-y,1/2+z
1/2+x,1/2+y,z
1/2-x,1/2+y,1/2-z
1/2-x,1/2-y,-z
1/2+x,1/2-y,1/2+z
loop_
_atom_site_type_symbol
_atom_site_label
_atom_site_fract_x
_atom_site_fract_y
_atom_site_fract_z
Si Si1 0.241361 0.176986 0.531346
Si Si2 0.669755 0.777377 0.719207
Si Si3 0.061041 0.431590 0.575275
Si Si4 0.567776 0.478367 0.159078
Si Si5 0.230593 0.736860 0.121271
Si Si6 0.054910 0.022333 0.459247
Si Si7 0.708777 0.942924 0.709397
Si Si8 0.342919 0.356112 0.170030
O O1 0.250000 0.250000 0.500000
O O2 0.146355 0.204018 0.562387
O O3 0.088625 0.111377 0.470385
O O4 0.531712 0.142491 0.603229
O O5 0.682357 0.754275 0.666550
O O6 0.619458 0.864585 0.710466
O O7 0.437591 0.728254 0.687594
O O8 0.949058 0.764737 0.807099
O O9 0.334250 0.461933 0.615835
O O10 0.090225 0.342335 0.578315
O O11 0.048091 0.456979 0.627026
O O12 0.811077 0.474043 0.499827
O O13 0.652876 0.493353 0.124912
O O14 0.770138 0.498161 0.244761
O O15 0.446248 0.399765 0.147154
O O16 0.000000 0.000000 0.500000
O O17 0.000000 0.929145 0.750000
O O18 0.500000 0.388613 0.250000
#
# Coordination Sequence:
#
# PCOD9267186 Si02
#       8
#     8   8   8   8   8   8   8   8
#     4  12  28  45  68 103 148 188 234 290 353 422
#     4  10  19  38  67 102 134 171 220 286 350 407
#     4  10  19  42  74  97 129 179 236 277 344 423
#     4  11  22  41  70  96 130 180 233 276 352 420
#     4  10  20  40  70 101 134 178 224 284 351 416
#     4  12  29  47  66  97 144 186 233 294 347 420
#     4   9  17  36  70  98 122 168 227 277 332 414
#     4  12  25  40  68 109 136 178 239 299 347 416
#
# _framework density 24.653914
#
# number of rings (size 3 to 8) (size 9 to 14) (size 15 to 20)
#    0.000    1.250    6.250    2.250    3.500    2.000 
#    0.000    1.875    0.000    0.000    0.000    0.000 
#    0.000    0.000    0.000    0.000    0.000    0.000 
#
# Total GULP energy -178851.043596 kJ/mol
# GULP energy per Si atom -5589.095112 kJ/mol
# Density = 2.459780 g / cm^3
# Si number density = 24.653914 Si / 1000 Ang^3
#
#
#
# Elastic Constant Matrix: (Units=GPa)
#
#
# Indices 1 2 3 4 5 6 
#
# 1 45.0793 16.8661 12.8874 -0.0002 -4.2845 -0.0001
# 2 16.8661 107.3452 25.4002 -0.0003 -4.8881 -0.0003
# 3 12.8874 25.4002 81.5925 -0.0009 -10.9256 -0.0002
# 4 -0.0002 -0.0003 -0.0009 22.0616 -0.0001 -14.5487
# 5 -4.2845 -4.8881 -10.9256 -0.0001 39.0312 0.0002
# 6 -0.0001 -0.0003 -0.0002 -14.5487 0.0002 9.3326
#
#
#
# Elastic Compliance Matrix: (Units=1/GPa)
#
#
# Indices 1 2 3 4 5 6 
#
# 1 0.024252 -0.003112 -0.002657 -0.000005 0.001529 -0.000008
# 2 -0.003112 0.010462 -0.002738 -0.000005 0.000202 -0.000007
# 3 -0.002657 -0.002738 0.013967 -0.000024 0.003275 -0.000037
# 4 -0.000005 -0.000005 -0.000024 -1.616654 0.000002 -2.520219
# 5 0.001529 0.000202 0.003275 0.000002 0.026730 0.000003
# 6 -0.000008 -0.000007 -0.000037 -2.520219 0.000003 -3.821644
#
#
# Mechanical properties :
#
#
# Convention : Reuss Voigt Hill
#
# Bulk Modulus (GPa) = 31.57967 38.25827 34.91897
# Shear Modulus (GPa) = -0.93715 26.00930 12.53608
#
# Velocity S-wave (km/s) = -0.61721 3.25156 2.25740
# Velocity P-wave (km/s) = 3.51128 5.44506 4.58136
#
# Compressibility (1/GPa) = 0.03166594
#
# Stress axis : x y z
#
# Youngs Moduli (GPa) = 41.23297 95.58542 71.59906
#
# Poissons Ratio (x) = 0.29748 0.19025
# Poissons Ratio (y) = 0.12833 0.19605
# Poissons Ratio (z) = 0.10956 0.26173
#
# Static dielectric constant tensor:
#      x y z
#    x 2.095730 0.000000 -0.050700 
#    y 0.000000 1.951290 0.000000 
#    z -0.050700 0.000000 2.018010 
# 
# From -- ./inp_files/308829.got.cif
#   From: 2010.05.17/outbox.cif.g08.bks.cpg/sg15_155_cif.got.tgz:308829.got - 2010.06.03 18:47:42.
