data_PCOD9267817
_publ_section_title
;
Structure prediction by ZEFSAII (Michael W. Deem and Ramdas Pophale) SiO2 
 PCOD9267817
Probable space group: C 2/C
;
_chemical_formula_sum "Si O2"
_cell_formula_units_Z 64
_cell_length_a 31.016509
_cell_length_b 9.944035
_cell_length_c 15.524153
_cell_angle_alpha 90.000000
_cell_angle_beta 41.787481
_cell_angle_gamma 90.000000
_cell_volume 3190.646057
_symmetry_space_group_name_H-M "C 2/C"
_symmetry_group_IT_number 15
_symmetry_cell_setting 'monoclinic'
loop_
_space_group_symop_operation_xyz
x,y,z
-x,y,1/2-z
-x,-y,-z
x,-y,1/2+z
1/2+x,1/2+y,z
1/2-x,1/2+y,1/2-z
1/2-x,1/2-y,-z
1/2+x,1/2-y,1/2+z
loop_
_atom_site_type_symbol
_atom_site_label
_atom_site_fract_x
_atom_site_fract_y
_atom_site_fract_z
Si Si1 0.002723 0.871575 0.933118
Si Si2 0.746683 0.705203 0.215437
Si Si3 0.361178 0.751226 0.267844
Si Si4 0.443951 0.435804 0.281004
Si Si5 0.880826 0.197976 0.706493
Si Si6 0.247847 0.414081 0.353514
Si Si7 0.191596 0.460099 0.624805
Si Si8 0.322205 0.584959 0.496218
O O1 0.065134 0.783264 0.862853
O O2 0.018130 0.937008 0.817987
O O3 0.935793 0.797238 0.051581
O O4 0.000000 0.000000 0.000000
O O5 0.686776 0.722108 0.239426
O O6 0.763744 0.547858 0.186267
O O7 0.730275 0.778910 0.328550
O O8 0.803816 0.798932 0.090966
O O9 0.338504 0.659383 0.381810
O O10 0.350551 0.905011 0.309953
O O11 0.500000 0.360710 0.250000
O O12 0.413135 0.352917 0.247631
O O13 0.383721 0.492642 0.425447
O O14 0.823973 0.096326 0.763540
O O15 0.845776 0.338360 0.775725
O O16 0.210008 0.424854 0.499368
O O17 0.258631 0.496707 0.572710
#
# Coordination Sequence:
#
# PCOD9267817 Si02
#       8
#     8   8   8   8   8   8   8   8
#     4   9  20  40  62  89 121 162 213 256 305 378
#     4  11  23  36  63  97 128 161 208 273 312 380
#     4  10  19  42  70  86 125 173 212 256 326 387
#     4  10  21  38  64  90 119 170 217 257 311 380
#     4  11  24  41  61  90 136 165 210 269 321 372
#     4  12  24  40  60  97 133 165 210 267 324 375
#     4  11  21  40  66  92 126 171 206 265 329 386
#     4  10  19  40  66  90 123 164 215 255 325 380
#
# _framework density 20.058634000000001
#
# number of rings (size 3 to 8) (size 9 to 14) (size 15 to 20)
#    0.000    1.500    3.750    2.625    5.250    0.500 
#    4.500    0.000    0.000    3.000    0.000    0.000 
#    0.000    0.000    0.000    0.000    0.000    0.000 
#
# Total GULP energy -178808.692469 kJ/mol
# GULP energy per Si atom -5587.771640 kJ/mol
# Density = 2.001298 g / cm^3
# Si number density = 20.058634 Si / 1000 Ang^3
#
#
#
# Elastic Constant Matrix: (Units=GPa)
#
#
# Indices 1 2 3 4 5 6 
#
# 1 58.1380 18.1352 11.0756 0.0000 -8.6892 0.0000
# 2 18.1352 99.0223 55.4593 0.0001 -6.8405 0.0000
# 3 11.0756 55.4593 126.4276 0.0000 -18.0861 0.0000
# 4 0.0000 0.0001 0.0000 39.4307 0.0000 4.8076
# 5 -8.6892 -6.8405 -18.0861 0.0000 26.0734 0.0000
# 6 0.0000 0.0000 0.0000 4.8076 0.0000 20.6115
#
#
#
# Elastic Compliance Matrix: (Units=1/GPa)
#
#
# Indices 1 2 3 4 5 6 
#
# 1 0.019034 -0.003470 0.000701 0.000000 0.005919 0.000000
# 2 -0.003470 0.014030 -0.006094 0.000000 -0.001703 0.000000
# 3 0.000701 -0.006094 0.011464 0.000000 0.006587 0.000000
# 4 0.000000 0.000000 0.000000 0.026103 0.000000 -0.006089
# 5 0.005919 -0.001703 0.006587 0.000000 0.044448 0.000000
# 6 0.000000 0.000000 0.000000 -0.006089 0.000000 0.049937
#
#
# Mechanical properties :
#
#
# Convention : Reuss Voigt Hill
#
# Bulk Modulus (GPa) = 37.30979 50.32531 43.81755
# Shear Modulus (GPa) = 26.08589 30.48429 28.28509
#
# Velocity S-wave (km/s) = 3.61013 3.90264 3.75923
# Velocity P-wave (km/s) = 6.00151 6.74174 6.38236
#
# Compressibility (1/GPa) = 0.02680262
#
# Stress axis : x y z
#
# Youngs Moduli (GPa) = 52.53781 71.27794 87.23205
#
# Poissons Ratio (x) = 0.24732 -0.06119
# Poissons Ratio (y) = 0.18230 0.53158
# Poissons Ratio (z) = -0.03685 0.43436
#
# Static dielectric constant tensor:
#      x y z
#    x 1.747930 0.000000 0.019300 
#    y 0.000000 1.712870 0.000000 
#    z 0.019300 0.000000 1.725750 
# 
# From -- ./inp_files/224611.got.cif
#   From: 2010.05.17/outbox.cif.g08.bks.cpg/sg15_113_cif.got.tgz:224611.got - 2010.06.03 18:47:42.
