data_PCOD9267604
_publ_section_title
;
Structure prediction by ZEFSAII (Michael W. Deem and Ramdas Pophale) SiO2 
 PCOD9267604
Probable space group: C 2/C
;
_chemical_formula_sum "Si O2"
_cell_formula_units_Z 44
_cell_length_a 16.775547
_cell_length_b 8.843619
_cell_length_c 24.498878
_cell_angle_alpha 90.000000
_cell_angle_beta 142.511506
_cell_angle_gamma 90.000000
_cell_volume 2212.006271
_symmetry_space_group_name_H-M "C 2/C"
_symmetry_group_IT_number 15
_symmetry_cell_setting 'monoclinic'
loop_
_space_group_symop_operation_xyz
x,y,z
-x,y,1/2-z
-x,-y,-z
x,-y,1/2+z
1/2+x,1/2+y,z
1/2-x,1/2+y,1/2-z
1/2-x,1/2-y,-z
1/2+x,1/2-y,1/2+z
loop_
_atom_site_type_symbol
_atom_site_label
_atom_site_fract_x
_atom_site_fract_y
_atom_site_fract_z
Si Si1 0.285711 0.432913 0.585218
Si Si2 0.511349 0.917363 0.064374
Si Si3 0.243471 0.896702 0.534283
Si Si4 0.759785 0.734470 0.864843
Si Si5 0.547912 0.951262 0.699300
Si Si6 0.000000 0.711376 0.750000
O O1 0.137413 0.367921 0.504168
O O2 0.314582 0.481054 0.538376
O O3 0.281012 0.581529 0.623292
O O4 0.392154 0.315927 0.663147
O O5 0.627780 0.800312 0.117752
O O6 0.553250 0.024574 0.137287
O O7 0.500000 0.000000 0.000000
O O8 0.250000 0.750000 0.500000
O O9 0.181366 0.848239 0.557413
O O10 0.394908 0.928767 0.629536
O O11 0.637166 0.815503 0.769418
O O12 0.574594 0.106338 0.746273
#
# Coordination Sequence:
#
# PCOD9267604 Si02
#       6
#     8   8   8   8   8   4
#     4   9  22  38  63  91 127 165 205 261 322 367
#     4   9  21  41  60  88 130 163 200 262 322 376
#     4   9  18  35  63  93 114 161 215 256 297 376
#     4  10  19  39  68  89 120 168 213 248 315 391
#     4  11  22  39  64  91 128 160 211 270 307 370
#     4  12  24  38  62  94 132 156 214 272 314 364
#
# _framework density 19.891444
#
# number of rings (size 3 to 8) (size 9 to 14) (size 15 to 20)
#    0.000    2.182    1.818    1.091    5.091    5.818 
#    0.000    0.909    4.000    0.000    0.000    0.000 
#    0.000    0.000    0.000    0.000    0.000    0.000 
#
# Total GULP energy -122602.624132 kJ/mol
# GULP energy per Si atom -5572.846551 kJ/mol
# Density = 1.984617 g / cm^3
# Si number density = 19.891444 Si / 1000 Ang^3
#
#
#
# Elastic Constant Matrix: (Units=GPa)
#
#
# Indices 1 2 3 4 5 6 
#
# 1 51.5819 24.9350 13.7505 0.0000 -22.8024 0.0000
# 2 24.9350 75.0667 52.2505 0.0000 7.7397 0.0000
# 3 13.7505 52.2505 106.7491 0.0000 -6.3628 0.0000
# 4 0.0000 0.0000 0.0000 21.2916 0.0000 -7.8694
# 5 -22.8024 7.7397 -6.3628 0.0000 27.8127 0.0000
# 6 0.0000 0.0000 0.0000 -7.8694 0.0000 26.3656
#
#
#
# Elastic Compliance Matrix: (Units=1/GPa)
#
#
# Indices 1 2 3 4 5 6 
#
# 1 0.061793 -0.036780 0.013862 0.000000 0.064068 0.000000
# 2 -0.036780 0.044018 -0.019602 0.000000 -0.046888 0.000000
# 3 0.013862 -0.019602 0.018431 0.000000 0.021036 0.000000
# 4 0.000000 0.000000 0.000000 0.052790 0.000000 0.015756
# 5 0.064068 -0.046888 0.021036 0.000000 0.106342 0.000000
# 6 0.000000 0.000000 0.000000 0.015756 0.000000 0.042631
#
#
# Mechanical properties :
#
#
# Convention : Reuss Voigt Hill
#
# Bulk Modulus (GPa) = 25.51005 46.14108 35.82556
# Shear Modulus (GPa) = 11.78930 24.59142 18.19036
#
# Velocity S-wave (km/s) = 2.43715 3.51989 3.02732
# Velocity P-wave (km/s) = 4.55764 6.30606 5.50174
#
# Compressibility (1/GPa) = 0.03920023
#
# Stress axis : x y z
#
# Youngs Moduli (GPa) = 16.18298 22.71821 54.25704
#
# Poissons Ratio (x) = 0.83558 -0.75211
# Poissons Ratio (y) = 0.59522 1.06356
# Poissons Ratio (z) = -0.22433 0.44533
#
# Static dielectric constant tensor:
#      x y z
#    x 1.718640 0.000000 -0.012270 
#    y 0.000000 1.744310 0.000000 
#    z -0.012270 0.000000 1.674780 
# 
# From -- ./inp_files/159416.got.cif
#   From: 2010.05.17/outbox.cif.g08.bks.cpg/sg15_80_cif.got.tgz:159416.got - 2010.06.03 18:47:42.
