data_PCOD9267396
_publ_section_title
;
Structure prediction by ZEFSAII (Michael W. Deem and Ramdas Pophale) SiO2 
 PCOD9267396
Probable space group: C 2/C
;
_chemical_formula_sum "Si O2"
_cell_formula_units_Z 48
_cell_length_a 16.693510
_cell_length_b 9.342240
_cell_length_c 13.979685
_cell_angle_alpha 90.000000
_cell_angle_beta 84.617199
_cell_angle_gamma 90.000000
_cell_volume 2170.584347
_symmetry_space_group_name_H-M "C 2/C"
_symmetry_group_IT_number 15
_symmetry_cell_setting 'monoclinic'
loop_
_space_group_symop_operation_xyz
x,y,z
-x,y,1/2-z
-x,-y,-z
x,-y,1/2+z
1/2+x,1/2+y,z
1/2-x,1/2+y,1/2-z
1/2-x,1/2-y,-z
1/2+x,1/2-y,1/2+z
loop_
_atom_site_type_symbol
_atom_site_label
_atom_site_fract_x
_atom_site_fract_y
_atom_site_fract_z
Si Si1 0.178335 0.162120 0.427503
Si Si2 0.558635 0.433093 0.414563
Si Si3 0.168964 0.504035 0.649141
Si Si4 0.733003 0.432089 0.174594
Si Si5 0.589441 0.723804 0.641433
Si Si6 0.669968 0.700393 0.058681
O O1 0.258949 0.063711 0.424724
O O2 0.209122 0.312028 0.381145
O O3 0.134328 0.189657 0.533921
O O4 0.114849 0.065570 0.374286
O O5 0.500000 0.500000 0.500000
O O6 0.498110 0.346047 0.353751
O O7 0.612548 0.333630 0.476264
O O8 0.213882 0.508634 0.745455
O O9 0.095517 0.393344 0.653621
O O10 0.142814 0.662783 0.623068
O O11 0.652507 0.342329 0.210666
O O12 0.694524 0.564376 0.120255
O O13 0.750000 0.750000 0.000000
#
# Coordination Sequence:
#
# PCOD9267396 Si02
#       6
#     8   8   8   8   8   8
#     4  10  19  39  62  89 113 165 206 244 298 362
#     4  10  20  37  65  88 114 151 212 250 299 346
#     4  11  22  35  59  93 123 156 198 251 310 360
#     4  11  21  36  61  87 125 156 202 245 301 369
#     4  10  20  40  63  87 120 160 203 254 300 363
#     4  12  20  35  63  91 113 154 210 251 286 361
#
# _framework density 22.113862999999998
#
# number of rings (size 3 to 8) (size 9 to 14) (size 15 to 20)
#    0.000    1.333    5.000    5.000    0.000    0.667 
#    0.000    0.833    3.667    4.000    0.000    0.000 
#    0.000    0.000    0.000    0.000    0.000    0.000 
#
# Total GULP energy -133866.465286 kJ/mol
# GULP energy per Si atom -5577.769387 kJ/mol
# Density = 2.206353 g / cm^3
# Si number density = 22.113863 Si / 1000 Ang^3
#
#
#
# Elastic Constant Matrix: (Units=GPa)
#
#
# Indices 1 2 3 4 5 6 
#
# 1 123.2156 48.3914 26.0053 0.0000 25.9648 0.0000
# 2 48.3914 184.3472 45.9875 0.0000 22.0892 0.0000
# 3 26.0053 45.9875 78.6705 0.0000 27.7800 0.0000
# 4 0.0000 0.0000 0.0000 35.4358 0.0000 13.2682
# 5 25.9648 22.0892 27.7800 0.0000 33.5674 0.0000
# 6 0.0000 0.0000 0.0000 13.2682 0.0000 53.5464
#
#
#
# Elastic Compliance Matrix: (Units=1/GPa)
#
#
# Indices 1 2 3 4 5 6 
#
# 1 0.010272 -0.001913 0.000119 0.000000 -0.006785 0.000000
# 2 -0.001913 0.006766 -0.003211 0.000000 -0.000315 0.000000
# 3 0.000119 -0.003211 0.019548 0.000000 -0.014156 0.000000
# 4 0.000000 0.000000 0.000000 0.031106 0.000000 -0.007708
# 5 -0.006785 -0.000315 -0.014156 0.000000 0.046961 0.000000
# 6 0.000000 0.000000 0.000000 -0.007708 0.000000 0.020585
#
#
# Mechanical properties :
#
#
# Convention : Reuss Voigt Hill
#
# Bulk Modulus (GPa) = 37.63087 69.66686 53.64887
# Shear Modulus (GPa) = 32.44484 42.23320 37.33902
#
# Velocity S-wave (km/s) = 3.83452 4.37487 4.11358
# Velocity P-wave (km/s) = 6.05463 7.55589 6.84653
#
# Compressibility (1/GPa) = 0.02657393
#
# Stress axis : x y z
#
# Youngs Moduli (GPa) = 97.35357 147.80814 51.15586
#
# Poissons Ratio (x) = 0.28276 -0.00607
# Poissons Ratio (y) = 0.18624 0.16428
# Poissons Ratio (z) = -0.01155 0.47467
#
# Static dielectric constant tensor:
#      x y z
#    x 1.798810 0.000000 -0.035050 
#    y 0.000000 1.898980 0.000000 
#    z -0.035050 0.000000 1.901030 
# 
# From -- ./inp_files/208683.got.cif
#   From: 2010.05.17/outbox.cif.g08.bks.cpg/sg15_105_cif.got.tgz:208683.got - 2010.06.03 18:47:42.
