data_PCOD9267190
_publ_section_title
;
Structure prediction by ZEFSAII (Michael W. Deem and Ramdas Pophale) SiO2 
 PCOD9267190
Probable space group: C 2/C
;
_chemical_formula_sum "Si O2"
_cell_formula_units_Z 36
_cell_length_a 9.891946
_cell_length_b 9.512134
_cell_length_c 19.154917
_cell_angle_alpha 90.000000
_cell_angle_beta 60.051648
_cell_angle_gamma 90.000000
_cell_volume 1561.695618
_symmetry_space_group_name_H-M "C 2/C"
_symmetry_group_IT_number 15
_symmetry_cell_setting 'monoclinic'
loop_
_space_group_symop_operation_xyz
x,y,z
-x,y,1/2-z
-x,-y,-z
x,-y,1/2+z
1/2+x,1/2+y,z
1/2-x,1/2+y,1/2-z
1/2-x,1/2-y,-z
1/2+x,1/2-y,1/2+z
loop_
_atom_site_type_symbol
_atom_site_label
_atom_site_fract_x
_atom_site_fract_y
_atom_site_fract_z
Si Si1 0.401322 0.817655 0.667935
Si Si2 0.280719 0.337128 0.922884
Si Si3 0.214615 0.837358 0.077285
Si Si4 0.796705 0.602184 0.699521
Si Si5 0.000000 0.107167 0.250000
O O1 0.363085 0.822357 0.594863
O O2 0.554909 0.731273 0.645382
O O3 0.260112 0.727230 0.737308
O O4 0.416545 0.979281 0.689092
O O5 0.300327 0.499839 0.938601
O O6 0.433570 0.308399 0.834504
O O7 0.250000 0.250000 0.000000
O O8 0.329924 0.837164 0.113808
O O9 0.250000 0.750000 0.000000
O O10 0.643972 0.498093 0.730257
#
# Coordination Sequence:
#
# PCOD9267190 Si02
#       5
#     8   8   8   8   4
#     4  10  20  39  62  89 118 173 208 256 330 369
#     4  10  22  38  61  90 125 165 211 263 314 375
#     4  10  21  40  58  87 130 163 202 267 318 374
#     4  10  19  38  67  84 122 167 211 257 316 379
#     4   8  16  40  58  78 128 162 192 268 314 350
#
# _framework density 23.051866
#
# number of rings (size 3 to 8) (size 9 to 14) (size 15 to 20)
#    0.000    2.667    4.444    0.000    0.000    6.222 
#   16.000    0.000    0.000    0.000    0.000    0.000 
#    0.000    0.000    0.000    0.000    0.000    0.000 
#
# Total GULP energy -100389.475238 kJ/mol
# GULP energy per Si atom -5577.193069 kJ/mol
# Density = 2.299940 g / cm^3
# Si number density = 23.051866 Si / 1000 Ang^3
#
#
#
# Elastic Constant Matrix: (Units=GPa)
#
#
# Indices 1 2 3 4 5 6 
#
# 1 29.5630 11.3279 1.0295 0.0000 4.7931 0.0000
# 2 11.3279 180.3135 90.3132 0.0000 19.8859 0.0000
# 3 1.0295 90.3132 167.5495 0.0000 11.3891 0.0000
# 4 0.0000 0.0000 0.0000 63.1513 0.0000 2.1482
# 5 4.7931 19.8859 11.3891 0.0000 23.6905 0.0000
# 6 0.0000 0.0000 0.0000 2.1482 0.0000 28.4297
#
#
#
# Elastic Compliance Matrix: (Units=1/GPa)
#
#
# Indices 1 2 3 4 5 6 
#
# 1 0.035622 -0.002292 0.001422 0.000000 -0.005967 0.000000
# 2 -0.002292 0.008252 -0.004130 0.000000 -0.004478 0.000000
# 3 0.001422 -0.004130 0.008239 0.000000 -0.000782 0.000000
# 4 0.000000 0.000000 0.000000 0.015876 0.000000 -0.001200
# 5 -0.005967 -0.004478 -0.000782 0.000000 0.047553 0.000000
# 6 0.000000 0.000000 0.000000 -0.001200 0.000000 0.035265
#
#
# Mechanical properties :
#
#
# Convention : Reuss Voigt Hill
#
# Bulk Modulus (GPa) = 23.74507 64.75191 44.24849
# Shear Modulus (GPa) = 28.59689 41.37133 34.98411
#
# Velocity S-wave (km/s) = 3.52596 4.24099 3.89990
# Velocity P-wave (km/s) = 5.18648 7.22025 6.28616
#
# Compressibility (1/GPa) = 0.04211400
#
# Stress axis : x y z
#
# Youngs Moduli (GPa) = 28.07234 121.18057 121.37715
#
# Poissons Ratio (x) = 0.27778 -0.17263
# Poissons Ratio (y) = 0.06435 0.50124
# Poissons Ratio (z) = -0.03993 0.50043
#
# Static dielectric constant tensor:
#      x y z
#    x 1.989870 0.000000 -0.035640 
#    y 0.000000 1.881550 0.000000 
#    z -0.035640 0.000000 1.915930 
# 
# From -- ./inp_files/195031.got.cif
#   From: 2010.05.17/outbox.cif.g08.bks.cpg/sg15_98_cif.got.tgz:195031.got - 2010.06.03 18:47:42.
