data_PCOD9267998
_publ_section_title
;
Structure prediction by ZEFSAII (Michael W. Deem and Ramdas Pophale) SiO2 
 PCOD9267998
Probable space group: C 2/C
;
_chemical_formula_sum "Si O2"
_cell_formula_units_Z 60
_cell_length_a 13.416557
_cell_length_b 12.843595
_cell_length_c 14.458541
_cell_angle_alpha 90.000000
_cell_angle_beta 77.511954
_cell_angle_gamma 90.000000
_cell_volume 2432.505015
_symmetry_space_group_name_H-M "C 2/C"
_symmetry_group_IT_number 15
_symmetry_cell_setting 'monoclinic'
loop_
_space_group_symop_operation_xyz
x,y,z
-x,y,1/2-z
-x,-y,-z
x,-y,1/2+z
1/2+x,1/2+y,z
1/2-x,1/2+y,1/2-z
1/2-x,1/2-y,-z
1/2+x,1/2-y,1/2+z
loop_
_atom_site_type_symbol
_atom_site_label
_atom_site_fract_x
_atom_site_fract_y
_atom_site_fract_z
Si Si1 0.164808 0.958572 0.621136
Si Si2 0.970600 0.848277 0.637531
Si Si3 0.622072 0.142057 0.062120
Si Si4 0.000000 0.450650 0.750000
Si Si5 0.458081 0.119692 0.628066
Si Si6 0.952325 0.143040 0.930926
Si Si7 0.148074 0.061421 0.810983
Si Si8 0.699281 0.073213 0.563717
O O1 0.189492 0.037222 0.699976
O O2 0.103051 0.032904 0.563292
O O3 0.076467 0.877430 0.667139
O O4 0.254063 0.903567 0.546656
O O5 0.930236 0.734014 0.669503
O O6 0.998537 0.836397 0.522540
O O7 0.894034 0.945621 0.655082
O O8 0.542432 0.119286 0.159930
O O9 0.631339 0.265846 0.064752
O O10 0.703251 0.053698 0.068395
O O11 0.584590 0.110166 0.967009
O O12 0.072605 0.530323 0.792900
O O13 0.581933 0.107982 0.595390
O O14 0.046387 0.132683 0.840352
O O15 0.229165 0.106856 0.866537
#
# Coordination Sequence:
#
# PCOD9267998 Si02
#       8
#     8   8   8   4   8   8   8   8
#     4  11  22  37  66  90 133 157 200 260 313 359
#     4  10  19  41  65  92 121 166 206 251 306 369
#     4  10  24  41  67  88 123 167 210 246 310 375
#     4  10  20  38  64  84 120 160 208 246 296 356
#     4  10  24  41  67  88 123 167 210 246 310 375
#     4  10  19  41  65  92 121 166 206 251 306 369
#     4  11  22  38  66  94 125 160 208 256 306 358
#     4  11  22  42  58  94 129 160 199 264 309 352
#
# _framework density 24.665928999999998
#
# number of rings (size 3 to 8) (size 9 to 14) (size 15 to 20)
#    0.000    1.600    2.667    4.000    3.733    5.333 
#    0.000    1.333    0.000    0.000    0.000    0.000 
#    0.000    0.000    0.000    0.000    0.000    0.000 
#
# Total GULP energy -167424.522387 kJ/mol
# GULP energy per Si atom -5580.817413 kJ/mol
# Density = 2.460979 g / cm^3
# Si number density = 24.665929 Si / 1000 Ang^3
#
#
#
# Elastic Constant Matrix: (Units=GPa)
#
#
# Indices 1 2 3 4 5 6 
#
# 1 55.2920 -14.6015 -6.0484 0.0000 0.7521 0.0000
# 2 -14.6015 78.3386 -19.9719 0.0000 3.4245 0.0000
# 3 -6.0484 -19.9719 95.3269 0.0000 18.4563 0.0000
# 4 0.0000 0.0000 0.0000 27.7768 0.0000 2.1166
# 5 0.7521 3.4245 18.4563 0.0000 29.2964 0.0000
# 6 0.0000 0.0000 0.0000 2.1166 0.0000 18.2783
#
#
#
# Elastic Compliance Matrix: (Units=1/GPa)
#
#
# Indices 1 2 3 4 5 6 
#
# 1 0.019597 0.004462 0.002707 0.000000 -0.002730 0.000000
# 2 0.004462 0.014888 0.004284 0.000000 -0.004554 0.000000
# 3 0.002707 0.004284 0.013291 0.000000 -0.008943 0.000000
# 4 0.000000 0.000000 0.000000 0.036322 0.000000 -0.004206
# 5 -0.002730 -0.004554 -0.008943 0.000000 0.040370 0.000000
# 6 0.000000 0.000000 0.000000 -0.004206 0.000000 0.055197
#
#
# Mechanical properties :
#
#
# Convention : Reuss Voigt Hill
#
# Bulk Modulus (GPa) = 14.14779 16.41266 15.28023
# Shear Modulus (GPa) = 27.72844 33.04225 30.38535
#
# Velocity S-wave (km/s) = 3.35649 3.66401 3.51362
# Velocity P-wave (km/s) = 4.55736 4.95665 4.76120
#
# Compressibility (1/GPa) = 0.07068239
#
# Stress axis : x y z
#
# Youngs Moduli (GPa) = 51.02719 67.16810 75.23872
#
# Poissons Ratio (x) = -0.29972 -0.20366
# Poissons Ratio (y) = -0.22769 -0.32232
# Poissons Ratio (z) = -0.13812 -0.28774
#
# Static dielectric constant tensor:
#      x y z
#    x 1.971870 0.000000 -0.050110 
#    y 0.000000 1.922650 0.000000 
#    z -0.050110 0.000000 2.110000 
# 
# From -- ./inp_files/153947.got.cif
#   From: 2010.05.17/outbox.cif.g08.bks.cpg/sg15_77_cif.got.tgz:153947.got - 2010.06.03 18:47:42.
