data_PCOD9267570
_publ_section_title
;
Structure prediction by ZEFSAII (Michael W. Deem and Ramdas Pophale) SiO2 
 PCOD9267570
Probable space group: C 2/C
;
_chemical_formula_sum "Si O2"
_cell_formula_units_Z 52
_cell_length_a 9.926943
_cell_length_b 14.971179
_cell_length_c 13.789725
_cell_angle_alpha 90.000000
_cell_angle_beta 92.925892
_cell_angle_gamma 90.000000
_cell_volume 2046.730293
_symmetry_space_group_name_H-M "C 2/C"
_symmetry_group_IT_number 15
_symmetry_cell_setting 'monoclinic'
loop_
_space_group_symop_operation_xyz
x,y,z
-x,y,1/2-z
-x,-y,-z
x,-y,1/2+z
1/2+x,1/2+y,z
1/2-x,1/2+y,1/2-z
1/2-x,1/2-y,-z
1/2+x,1/2-y,1/2+z
loop_
_atom_site_type_symbol
_atom_site_label
_atom_site_fract_x
_atom_site_fract_y
_atom_site_fract_z
Si Si1 0.623635 0.893347 0.430531
Si Si2 0.332569 0.317370 0.299906
Si Si3 0.128404 0.946604 0.966846
Si Si4 0.000000 0.513348 0.750000
Si Si5 0.487690 0.739470 0.974399
Si Si6 0.621766 0.710959 0.175863
Si Si7 0.802903 0.024868 0.251570
O O1 0.711689 0.820513 0.375462
O O2 0.732208 0.965962 0.470402
O O3 0.515465 0.929266 0.349817
O O4 0.565174 0.840490 0.518961
O O5 0.468235 0.285698 0.359926
O O6 0.259468 0.257553 0.217218
O O7 0.341923 0.422823 0.277075
O O8 0.098168 0.842393 0.982509
O O9 0.153218 0.962608 0.856497
O O10 0.000000 0.000000 0.000000
O O11 0.141606 0.464579 0.750770
O O12 0.601914 0.739021 0.062652
O O13 0.500000 0.732446 0.250000
O O14 0.635425 0.604019 0.183078
#
# Coordination Sequence:
#
# PCOD9267570 Si02
#       7
#     8   8   8   4   8   8   8
#     4  10  19  39  66  96 130 188 241 282 349 440
#     4  10  22  38  63 103 139 178 232 296 352 422
#     4  11  24  39  66 104 135 178 234 305 361 420
#     4  10  24  40  66  94 140 192 238 294 358 428
#     4  11  21  37  67 101 136 177 239 289 350 435
#     4  12  22  38  73 103 133 189 241 288 362 435
#     4  11  24  42  67 102 143 185 242 295 359 427
#
# _framework density 25.406378
#
# number of rings (size 3 to 8) (size 9 to 14) (size 15 to 20)
#    0.000    1.231    3.077    4.615    7.538    0.615 
#    0.000    1.538   15.231    1.846    0.000    0.000 
#    0.000    0.000    0.000    0.000    0.000    0.000 
#
# Total GULP energy -145170.981939 kJ/mol
# GULP energy per Si atom -5583.499305 kJ/mol
# Density = 2.534855 g / cm^3
# Si number density = 25.406378 Si / 1000 Ang^3
#
#
#
# Elastic Constant Matrix: (Units=GPa)
#
#
# Indices 1 2 3 4 5 6 
#
# 1 92.7087 25.8825 33.2328 0.0000 21.2609 0.0000
# 2 25.8825 95.3149 62.9875 0.0000 15.6883 0.0000
# 3 33.2328 62.9875 205.2484 0.0000 32.0805 0.0000
# 4 0.0000 0.0000 0.0000 39.3971 0.0000 3.1815
# 5 21.2609 15.6883 32.0805 0.0000 25.0271 0.0000
# 6 0.0000 0.0000 0.0000 3.1815 0.0000 32.7254
#
#
#
# Elastic Compliance Matrix: (Units=1/GPa)
#
#
# Indices 1 2 3 4 5 6 
#
# 1 0.013736 -0.002033 0.000031 0.000000 -0.010434 0.000000
# 2 -0.002033 0.013764 -0.003522 0.000000 -0.002387 0.000000
# 3 0.000031 -0.003522 0.007012 0.000000 -0.006806 0.000000
# 4 0.000000 0.000000 0.000000 0.025583 0.000000 -0.002487
# 5 -0.010434 -0.002387 -0.006806 0.000000 0.059041 0.000000
# 6 0.000000 0.000000 0.000000 -0.002487 0.000000 0.030799
#
#
# Mechanical properties :
#
#
# Convention : Reuss Voigt Hill
#
# Bulk Modulus (GPa) = 42.61939 70.83082 56.72511
# Shear Modulus (GPa) = 29.62020 37.50786 33.56403
#
# Velocity S-wave (km/s) = 3.41817 3.84646 3.63862
# Velocity P-wave (km/s) = 5.69122 6.90410 6.32679
#
# Compressibility (1/GPa) = 0.02346350
#
# Stress axis : x y z
#
# Youngs Moduli (GPa) = 72.80242 72.65530 142.61726
#
# Poissons Ratio (x) = 0.14769 -0.00437
# Poissons Ratio (y) = 0.14799 0.50225
# Poissons Ratio (z) = -0.00223 0.25587
#
# Static dielectric constant tensor:
#      x y z
#    x 2.055900 0.000000 0.037460 
#    y 0.000000 1.953660 0.000000 
#    z 0.037460 0.000000 2.132550 
# 
# From -- ./inp_files/269786.got.cif
#   From: 2010.05.17/outbox.cif.g08.bks.cpg/sg15_135_cif.got.tgz:269786.got - 2010.06.03 18:47:42.
