data_PCOD9267068
_publ_section_title
;
Structure prediction by ZEFSAII (Michael W. Deem and Ramdas Pophale) SiO2 
 PCOD9267068
Probable space group: C 2/C
;
_chemical_formula_sum "Si O2"
_cell_formula_units_Z 56
_cell_length_a 11.546042
_cell_length_b 29.961410
_cell_length_c 8.903246
_cell_angle_alpha 90.000000
_cell_angle_beta 111.182830
_cell_angle_gamma 90.000000
_cell_volume 2871.844914
_symmetry_space_group_name_H-M "C 2/C"
_symmetry_group_IT_number 15
_symmetry_cell_setting 'monoclinic'
loop_
_space_group_symop_operation_xyz
x,y,z
-x,y,1/2-z
-x,-y,-z
x,-y,1/2+z
1/2+x,1/2+y,z
1/2-x,1/2+y,1/2-z
1/2-x,1/2-y,-z
1/2+x,1/2-y,1/2+z
loop_
_atom_site_type_symbol
_atom_site_label
_atom_site_fract_x
_atom_site_fract_y
_atom_site_fract_z
Si Si1 0.500000 0.881480 0.250000
Si Si2 0.122559 0.310001 0.522806
Si Si3 0.828622 0.403146 0.430412
Si Si4 0.048242 0.068483 0.428880
Si Si5 0.386546 0.644823 0.811949
Si Si6 0.597284 0.288059 0.917188
Si Si7 0.500000 0.856832 0.750000
Si Si8 0.878501 0.973411 0.085843
O O1 0.589979 0.849067 0.389112
O O2 0.422351 0.909156 0.335355
O O3 0.268028 0.298108 0.590760
O O4 0.066322 0.263546 0.436906
O O5 0.069586 0.326649 0.657457
O O6 0.739204 0.361977 0.339730
O O7 0.738058 0.445156 0.413342
O O8 0.904153 0.387834 0.612287
O O9 0.106441 0.104472 0.565290
O O10 0.000000 0.087580 0.250000
O O11 0.927501 0.047480 0.453795
O O12 0.138218 0.026292 0.441917
O O13 0.500000 0.640920 0.750000
O O14 0.400074 0.688153 0.920056
O O15 0.500000 0.305351 0.750000
O O16 0.000000 0.968585 0.250000
#
# Coordination Sequence:
#
# PCOD9267068 Si02
#       8
#     4   8   8   8   8   8   4   8
#     4  10  20  42  64  79 122 178 208 247 312 366
#     4  10  22  43  58  91 121 172 209 255 314 371
#     4  11  21  42  62  89 121 166 217 252 305 378
#     4  10  20  34  60 100 124 156 189 243 342 375
#     4  12  23  38  63  97 129 156 200 270 326 365
#     4  11  24  39  65  93 128 160 212 268 311 373
#     4  10  26  38  66  85 126 178 218 247 306 376
#     4  10  19  38  64  95 125 156 196 261 320 380
#
# _framework density 19.499661
#
# number of rings (size 3 to 8) (size 9 to 14) (size 15 to 20)
#    0.000    1.429    5.000    0.429    3.000    1.143 
#    0.000    1.429    0.000    2.571    0.000    0.000 
#    0.000    0.000    0.000    0.000    0.000    0.000 
#
# Total GULP energy -156295.031392 kJ/mol
# GULP energy per Si atom -5581.965407 kJ/mol
# Density = 1.945528 g / cm^3
# Si number density = 19.499661 Si / 1000 Ang^3
#
#
#
# Elastic Constant Matrix: (Units=GPa)
#
#
# Indices 1 2 3 4 5 6 
#
# 1 93.3511 41.7315 49.6056 0.0000 -13.4903 0.0000
# 2 41.7315 93.0250 29.8528 0.0000 -9.1495 0.0000
# 3 49.6056 29.8528 128.1608 0.0000 -3.6424 0.0000
# 4 0.0000 0.0000 0.0000 14.6137 0.0000 -8.6855
# 5 -13.4903 -9.1495 -3.6424 0.0000 32.6307 0.0000
# 6 0.0000 0.0000 0.0000 -8.6855 0.0000 24.6563
#
#
#
# Elastic Compliance Matrix: (Units=1/GPa)
#
#
# Indices 1 2 3 4 5 6 
#
# 1 0.016415 -0.005298 -0.004985 0.000000 0.004744 0.000000
# 2 -0.005298 0.013621 -0.001079 0.000000 0.001509 0.000000
# 3 -0.004985 -0.001079 0.009948 0.000000 -0.001253 0.000000
# 4 0.000000 0.000000 0.000000 0.086550 0.000000 0.030488
# 5 0.004744 0.001509 -0.001253 0.000000 0.032891 0.000000
# 6 0.000000 0.000000 0.000000 0.030488 0.000000 0.051298
#
#
# Mechanical properties :
#
#
# Convention : Reuss Voigt Hill
#
# Bulk Modulus (GPa) = 57.93578 61.87965 59.90772
# Shear Modulus (GPa) = 20.90313 27.26993 24.08653
#
# Velocity S-wave (km/s) = 3.27765 3.74369 3.51839
# Velocity P-wave (km/s) = 6.64076 7.10560 6.87711
#
# Compressibility (1/GPa) = 0.01726049
#
# Stress axis : x y z
#
# Youngs Moduli (GPa) = 60.92037 73.41556 100.52373
#
# Poissons Ratio (x) = 0.38892 0.50108
# Poissons Ratio (y) = 0.32273 0.10851
# Poissons Ratio (z) = 0.30367 0.07925
#
# Static dielectric constant tensor:
#      x y z
#    x 1.696550 0.000000 0.004430 
#    y 0.000000 1.703930 0.000000 
#    z 0.004430 0.000000 1.707840 
# 
# From -- ./inp_files/35335.got.cif
#   From: 2010.05.17/outbox.cif.g08.bks.cpg/sg15_18_cif.got.tgz:35335.got - 2010.06.03 18:47:42.
