data_PCOD9267274
_publ_section_title
;
Structure prediction by ZEFSAII (Michael W. Deem and Ramdas Pophale) SiO2 
 PCOD9267274
Probable space group: C 2/C
;
_chemical_formula_sum "Si O2"
_cell_formula_units_Z 60
_cell_length_a 9.030699
_cell_length_b 10.456321
_cell_length_c 29.160354
_cell_angle_alpha 90.000000
_cell_angle_beta 88.080357
_cell_angle_gamma 90.000000
_cell_volume 2752.005311
_symmetry_space_group_name_H-M "C 2/C"
_symmetry_group_IT_number 15
_symmetry_cell_setting 'monoclinic'
loop_
_space_group_symop_operation_xyz
x,y,z
-x,y,1/2-z
-x,-y,-z
x,-y,1/2+z
1/2+x,1/2+y,z
1/2-x,1/2+y,1/2-z
1/2-x,1/2-y,-z
1/2+x,1/2-y,1/2+z
loop_
_atom_site_type_symbol
_atom_site_label
_atom_site_fract_x
_atom_site_fract_y
_atom_site_fract_z
Si Si1 0.500000 0.441622 0.250000
Si Si2 0.530018 0.341186 0.897186
Si Si3 0.689629 0.029729 0.803044
Si Si4 0.521907 0.269827 0.701676
Si Si5 0.633751 0.247960 0.319768
Si Si6 0.317793 0.811079 0.577093
Si Si7 0.973551 0.077011 0.546705
Si Si8 0.713471 0.086792 0.909565
O O1 0.669741 0.476088 0.231029
O O2 0.542002 0.352298 0.294130
O O3 0.528757 0.348606 0.842000
O O4 0.359944 0.321518 0.915213
O O5 0.593134 0.470498 0.918123
O O6 0.617144 0.214325 0.910489
O O7 0.603712 0.895401 0.801827
O O8 0.738420 0.048254 0.855852
O O9 0.583106 0.147636 0.793565
O O10 0.500000 0.343780 0.750000
O O11 0.690813 0.232666 0.691530
O O12 0.617391 0.238687 0.374759
O O13 0.374580 0.703054 0.542089
O O14 0.362401 0.958836 0.568672
O O15 0.133125 0.112017 0.566283
O O16 0.000000 0.000000 0.500000
#
# Coordination Sequence:
#
# PCOD9267274 Si02
#       8
#     4   8   8   8   8   8   8   8
#     4  12  22  30  52  84 108 148 202 234 282 340
#     4   9  21  39  62  88 119 162 202 243 302 360
#     4  10  22  37  55  80 115 155 197 246 289 341
#     4  10  19  39  57  80 119 156 199 246 289 342
#     4  10  22  36  54  80 113 155 195 240 290 341
#     4   9  20  41  60  82 120 158 196 243 304 356
#     4  11  23  40  64  93 123 153 197 256 312 370
#     4   9  20  41  61  84 121 157 197 248 299 359
#
# _framework density 21.802284
#
# number of rings (size 3 to 8) (size 9 to 14) (size 15 to 20)
#    0.000    2.133    1.333    1.600    1.867    3.733 
#    0.000    8.000    0.000    0.000    0.000    0.000 
#    0.000    0.000    0.000    0.000    0.000    0.000 
#
# Total GULP energy -167480.742638 kJ/mol
# GULP energy per Si atom -5582.691421 kJ/mol
# Density = 2.175266 g / cm^3
# Si number density = 21.802284 Si / 1000 Ang^3
#
#
#
# Elastic Constant Matrix: (Units=GPa)
#
#
# Indices 1 2 3 4 5 6 
#
# 1 -8.2480 -87.0456 0.7835 0.0000 -16.0652 0.0000
# 2 -87.0456 -169.1262 -13.2145 0.0000 -66.9823 0.0000
# 3 0.7835 -13.2145 38.9586 0.0000 1.4467 0.0000
# 4 0.0000 0.0000 0.0000 25.7857 0.0000 -6.3209
# 5 -16.0652 -66.9823 1.4467 0.0000 2.1185 0.0000
# 6 0.0000 0.0000 0.0000 -6.3209 0.0000 22.5666
#
#
#
# Elastic Compliance Matrix: (Units=1/GPa)
#
#
# Indices 1 2 3 4 5 6 
#
# 1 0.040916 -0.010695 -0.003504 0.000000 -0.025476 0.000000
# 2 -0.010695 0.002363 0.001286 0.000000 -0.007252 0.000000
# 3 -0.003504 0.001286 0.026319 0.000000 -0.003885 0.000000
# 4 0.000000 0.000000 0.000000 0.041640 0.000000 0.011663
# 5 -0.025476 -0.007252 -0.003885 0.000000 0.052186 0.000000
# 6 0.000000 0.000000 0.000000 0.011663 0.000000 0.047580
#
#
# Mechanical properties :
#
#
# Convention : Reuss Voigt Hill
#
# Bulk Modulus (GPa) = 22.84548 -37.48543 -7.31997
# Shear Modulus (GPa) = 19.88686 7.49822 13.69254
#
# Velocity S-wave (km/s) = 3.02345 1.85652 2.50878
# Velocity P-wave (km/s) = 4.76336 3.55459 2.24215
#
# Compressibility (1/GPa) = 0.04377233
#
# Stress axis : x y z
#
# Youngs Moduli (GPa) = 24.44033 423.10671 37.99496
#
# Poissons Ratio (x) = 4.52505 0.13315
# Poissons Ratio (y) = 0.26138 -0.04886
# Poissons Ratio (z) = 0.08565 -0.54415
#
# Static dielectric constant tensor:
#      x y z
#    x 1.737250 0.000000 0.012910 
#    y 0.000000 9.423690 0.000000 
#    z 0.012910 0.000000 1.856490 
# 
# From -- ./inp_files/307114.got.cif
#   From: 2010.05.17/outbox.cif.g08.bks.cpg/sg15_154_cif.got.tgz:307114.got - 2010.06.03 18:47:42.
