data_PCOD9267478
_publ_section_title
;
Structure prediction by ZEFSAII (Michael W. Deem and Ramdas Pophale) SiO2 
 PCOD9267478
Probable space group: C 2/C
;
_chemical_formula_sum "Si O2"
_cell_formula_units_Z 56
_cell_length_a 18.734180
_cell_length_b 7.562291
_cell_length_c 17.823601
_cell_angle_alpha 90.000000
_cell_angle_beta 62.692713
_cell_angle_gamma 90.000000
_cell_volume 2243.725601
_symmetry_space_group_name_H-M "C 2/C"
_symmetry_group_IT_number 15
_symmetry_cell_setting 'monoclinic'
loop_
_space_group_symop_operation_xyz
x,y,z
-x,y,1/2-z
-x,-y,-z
x,-y,1/2+z
1/2+x,1/2+y,z
1/2-x,1/2+y,1/2-z
1/2-x,1/2-y,-z
1/2+x,1/2-y,1/2+z
loop_
_atom_site_type_symbol
_atom_site_label
_atom_site_fract_x
_atom_site_fract_y
_atom_site_fract_z
Si Si1 0.373352 0.977677 0.048168
Si Si2 0.834302 0.854863 0.112029
Si Si3 0.787702 0.823068 0.296272
Si Si4 0.877054 0.931975 0.940511
Si Si5 0.907905 0.133878 0.272464
Si Si6 0.446784 0.313100 0.599833
Si Si7 0.831753 0.316368 0.921634
O O1 0.291361 0.900898 0.126060
O O2 0.439608 0.841337 0.043945
O O3 0.380884 0.171389 0.077676
O O4 0.365587 0.964406 0.961700
O O5 0.777990 0.808763 0.210918
O O6 0.888139 0.026630 0.104671
O O7 0.810875 0.899393 0.036791
O O8 0.859622 0.963111 0.268453
O O9 0.815688 0.665524 0.339797
O O10 0.864530 0.819086 0.870873
O O11 0.882697 0.135724 0.911101
O O12 0.964016 0.883644 0.931468
O O13 0.000000 0.092682 0.250000
O O14 0.916114 0.256379 0.195921
O O15 0.750000 0.250000 0.000000
#
# Coordination Sequence:
#
# PCOD9267478 Si02
#       7
#     8   8   8   8   8   8   8
#     4  11  23  38  61  91 120 160 203 253 309 365
#     4  11  23  36  61  95 115 157 204 249 309 365
#     4   9  21  38  59  86 124 159 199 249 310 364
#     4  10  19  39  64  87 122 164 203 251 311 361
#     4   8  17  36  64  85 113 165 205 243 304 366
#     4  10  21  40  63  86 125 160 201 257 305 364
#     4   9  19  39  61  83 121 164 198 245 307 362
#
# _framework density 24.958487999999999
#
# number of rings (size 3 to 8) (size 9 to 14) (size 15 to 20)
#    0.000    2.286    1.429    0.429    4.000    0.571 
#    2.571    6.429    0.000    2.571    0.000    0.000 
#    0.000    0.000    0.000    0.000    0.000    0.000 
#
# Total GULP energy -156110.311253 kJ/mol
# GULP energy per Si atom -5575.368259 kJ/mol
# Density = 2.490168 g / cm^3
# Si number density = 24.958488 Si / 1000 Ang^3
#
#
#
# Elastic Constant Matrix: (Units=GPa)
#
#
# Indices 1 2 3 4 5 6 
#
# 1 39.7180 4.4423 2.9039 0.0000 -5.2214 0.0002
# 2 4.4423 86.1330 10.3624 0.0000 -1.8005 0.0003
# 3 2.9039 10.3624 209.0712 0.0000 30.4983 0.0001
# 4 0.0000 0.0000 0.0000 24.2965 0.0000 -14.4131
# 5 -5.2214 -1.8005 30.4983 0.0000 23.6609 0.0001
# 6 0.0002 0.0003 0.0001 -14.4131 0.0001 2.7167
#
#
#
# Elastic Compliance Matrix: (Units=1/GPa)
#
#
# Indices 1 2 3 4 5 6 
#
# 1 0.026393 -0.001032 -0.001421 0.000000 0.007577 0.000001
# 2 -0.001032 0.011798 -0.000823 0.000000 0.001731 0.000001
# 3 -0.001421 -0.000823 0.006033 0.000000 -0.008152 0.000000
# 4 0.000000 0.000000 0.000000 -0.019168 0.000000 -0.101693
# 5 0.007577 0.001731 -0.008152 0.000000 0.054576 0.000001
# 6 0.000001 0.000001 0.000000 -0.101693 0.000001 -0.171427
#
#
# Mechanical properties :
#
#
# Convention : Reuss Voigt Hill
#
# Bulk Modulus (GPa) = 26.54426 41.14880 33.84653
# Shear Modulus (GPa) = -68.78870 31.28239 -18.75316
#
# Velocity S-wave (km/s) = -5.25558 3.54415 -2.74409
# Velocity P-wave (km/s) = 5.11563 5.76807 1.88428
#
# Compressibility (1/GPa) = 0.03767292
#
# Stress axis : x y z
#
# Youngs Moduli (GPa) = 37.88900 84.75756 165.76064
#
# Poissons Ratio (x) = 0.08746 0.23550
# Poissons Ratio (y) = 0.03910 0.13641
# Poissons Ratio (z) = 0.05383 0.06975
#
# Static dielectric constant tensor:
#      x y z
#    x 1.988160 0.000000 0.041980 
#    y 0.000000 1.978870 0.000000 
#    z 0.041980 0.000000 2.129550 
# 
# From -- ./inp_files/221483.got.cif
#   From: 2010.05.17/outbox.cif.g08.bks.cpg/sg15_111_cif.got.tgz:221483.got - 2010.06.03 18:47:42.
