data_PCOD9267462
_publ_section_title
;
Structure prediction by ZEFSAII (Michael W. Deem and Ramdas Pophale) SiO2 
 PCOD9267462
Probable space group: C 2/C
;
_chemical_formula_sum "Si O2"
_cell_formula_units_Z 48
_cell_length_a 14.935679
_cell_length_b 20.642815
_cell_length_c 12.143706
_cell_angle_alpha 90.000000
_cell_angle_beta 142.583099
_cell_angle_gamma 90.000000
_cell_volume 2274.941088
_symmetry_space_group_name_H-M "C 2/C"
_symmetry_group_IT_number 15
_symmetry_cell_setting 'monoclinic'
loop_
_space_group_symop_operation_xyz
x,y,z
-x,y,1/2-z
-x,-y,-z
x,-y,1/2+z
1/2+x,1/2+y,z
1/2-x,1/2+y,1/2-z
1/2-x,1/2-y,-z
1/2+x,1/2-y,1/2+z
loop_
_atom_site_type_symbol
_atom_site_label
_atom_site_fract_x
_atom_site_fract_y
_atom_site_fract_z
Si Si1 0.844954 0.296045 0.011304
Si Si2 0.953834 0.098504 0.013165
Si Si3 0.915260 0.765740 0.886416
Si Si4 0.846015 0.307443 0.538206
Si Si5 0.149255 0.935470 0.322497
Si Si6 0.726495 0.427044 0.946043
O O1 0.746375 0.289577 0.804436
O O2 0.844744 0.371681 0.039051
O O3 0.750000 0.250000 0.000000
O O4 0.003861 0.269920 0.135412
O O5 0.832807 0.091141 0.990438
O O6 0.983617 0.170980 0.997142
O O7 0.099365 0.083245 0.228141
O O8 0.905418 0.059422 0.857864
O O9 0.896308 0.718337 0.968655
O O10 0.750000 0.250000 0.500000
O O11 0.742445 0.370303 0.429475
O O12 0.000000 0.320467 0.750000
O O13 0.000000 0.935903 0.250000
O O14 0.249134 0.996482 0.457610
#
# Coordination Sequence:
#
# PCOD9267462 Si02
#       6
#     8   8   8   8   8   8
#     4  11  21  38  64  96 126 162 215 273 333 388
#     4  10  19  39  63  97 127 165 226 268 328 389
#     4  11  22  39  66  93 126 168 214 277 326 388
#     4  12  26  46  66  98 134 178 229 270 332 399
#     4  12  24  41  69  97 131 177 224 282 328 395
#     4  10  22  37  64  99 132 170 221 277 327 406
#
# _framework density 21.099446
#
# number of rings (size 3 to 8) (size 9 to 14) (size 15 to 20)
#    0.000    1.000    3.333    5.500    0.000    1.333 
#    0.000    2.500    0.000    0.000    0.000    0.000 
#    0.000    0.000    0.000    0.000    0.000    0.000 
#
# Total GULP energy -133974.035963 kJ/mol
# GULP energy per Si atom -5582.251498 kJ/mol
# Density = 2.105142 g / cm^3
# Si number density = 21.099446 Si / 1000 Ang^3
#
#
#
# Elastic Constant Matrix: (Units=GPa)
#
#
# Indices 1 2 3 4 5 6 
#
# 1 91.5411 41.2850 31.2298 0.0000 1.8626 0.0000
# 2 41.2850 152.9934 20.7798 0.0000 8.4467 0.0000
# 3 31.2298 20.7798 97.0012 0.0000 2.3339 0.0000
# 4 0.0000 0.0000 0.0000 16.7141 0.0000 15.4548
# 5 1.8626 8.4467 2.3339 0.0000 18.2401 0.0000
# 6 0.0000 0.0000 0.0000 15.4548 0.0000 12.8616
#
#
#
# Elastic Compliance Matrix: (Units=1/GPa)
#
#
# Indices 1 2 3 4 5 6 
#
# 1 0.013624 -0.003203 -0.003714 0.000000 0.000567 0.000000
# 2 -0.003203 0.007646 -0.000531 0.000000 -0.003146 0.000000
# 3 -0.003714 -0.000531 0.011639 0.000000 -0.000864 0.000000
# 4 0.000000 0.000000 0.000000 -0.538583 0.000000 0.647174
# 5 0.000567 -0.003146 -0.000864 0.000000 0.056334 0.000000
# 6 0.000000 0.000000 0.000000 0.647174 0.000000 -0.699907
#
#
# Mechanical properties :
#
#
# Convention : Reuss Voigt Hill
#
# Bulk Modulus (GPa) = 55.51329 58.68053 57.09691
# Shear Modulus (GPa) = -4.43127 26.11256 10.84065
#
# Velocity S-wave (km/s) = -1.45077 3.52176 2.26915
# Velocity P-wave (km/s) = 4.85398 6.66400 5.82966
#
# Compressibility (1/GPa) = 0.01801370
#
# Stress axis : x y z
#
# Youngs Moduli (GPa) = 73.39869 130.77942 85.91535
#
# Poissons Ratio (x) = 0.41894 0.31907
# Poissons Ratio (y) = 0.23512 0.04562
# Poissons Ratio (z) = 0.27259 0.06944
#
# Static dielectric constant tensor:
#      x y z
#    x 1.729730 0.000000 -0.051630 
#    y 0.000000 1.818000 0.000000 
#    z -0.051630 0.000000 1.628020 
# 
# From -- ./inp_files/100081.got.cif
#   From: 2010.05.17/outbox.cif.g08.bks.cpg/sg15_51_cif.got.tgz:100081.got - 2010.06.03 18:47:42.
