data_PCOD9267880
_publ_section_title
;
Structure prediction by ZEFSAII (Michael W. Deem and Ramdas Pophale) SiO2 
 PCOD9267880
Probable space group: C 2/C
;
_chemical_formula_sum "Si O2"
_cell_formula_units_Z 60
_cell_length_a 17.351401
_cell_length_b 26.605355
_cell_length_c 18.493219
_cell_angle_alpha 90.000000
_cell_angle_beta 162.371599
_cell_angle_gamma 90.000000
_cell_volume 2585.429579
_symmetry_space_group_name_H-M "C 2/C"
_symmetry_group_IT_number 15
_symmetry_cell_setting 'monoclinic'
loop_
_space_group_symop_operation_xyz
x,y,z
-x,y,1/2-z
-x,-y,-z
x,-y,1/2+z
1/2+x,1/2+y,z
1/2-x,1/2+y,1/2-z
1/2-x,1/2-y,-z
1/2+x,1/2-y,1/2+z
loop_
_atom_site_type_symbol
_atom_site_label
_atom_site_fract_x
_atom_site_fract_y
_atom_site_fract_z
Si Si1 0.765239 0.495587 0.994193
Si Si2 0.851221 0.200739 0.189941
Si Si3 0.135743 0.278817 0.986349
Si Si4 0.940383 0.538136 0.383506
Si Si5 0.500000 0.847452 0.750000
Si Si6 0.832908 0.639564 0.876323
Si Si7 0.215681 0.313627 0.320802
Si Si8 0.142172 0.079263 0.001422
O O1 0.674431 0.541952 0.963624
O O2 0.000000 0.472143 0.250000
O O3 0.500000 0.465201 0.750000
O O4 0.877669 0.518526 0.020176
O O5 0.779761 0.252510 0.168151
O O6 0.000000 0.215437 0.250000
O O7 0.056920 0.170850 0.421968
O O8 0.583262 0.174538 0.931139
O O9 0.387167 0.252088 0.240432
O O10 0.050713 0.314795 0.975375
O O11 0.192320 0.312273 0.965765
O O12 0.982996 0.592067 0.459574
O O13 0.000000 0.500000 0.500000
O O14 0.675656 0.546300 0.103785
O O15 0.625582 0.882461 0.802369
O O16 0.740515 0.661820 0.717908
O O17 0.598441 0.614885 0.710058
#
# Coordination Sequence:
#
# PCOD9267880 Si02
#       8
#     8   8   8   8   4   8   8   8
#     4  10  19  40  68  99 127 175 234 279 335 431
#     4  10  20  41  67  96 123 180 238 279 331 428
#     4  12  28  43  65  97 147 193 249 295 348 410
#     4  11  24  44  71 105 136 180 239 306 361 432
#     4  12  22  46  68  98 140 200 254 300 342 426
#     4  12  26  41  66 101 147 187 229 298 373 423
#     4  10  22  34  65  94 135 166 227 281 345 407
#     4  11  22  42  71  97 140 190 247 283 357 444
#
# _framework density 23.206975
#
# number of rings (size 3 to 8) (size 9 to 14) (size 15 to 20)
#    0.000    1.067    4.667    3.200    5.600    1.600 
#    0.000    0.000    0.000    8.000    0.000    0.000 
#    0.000    0.000    0.000    0.000    0.000    0.000 
#
# Total GULP energy -167343.420008 kJ/mol
# GULP energy per Si atom -5578.114000 kJ/mol
# Density = 2.315415 g / cm^3
# Si number density = 23.206975 Si / 1000 Ang^3
#
#
#
# Elastic Constant Matrix: (Units=GPa)
#
#
# Indices 1 2 3 4 5 6 
#
# 1 61.6334 27.7909 10.3513 0.0010 -31.3982 -0.0292
# 2 27.7909 40.5877 21.1051 -0.0011 -23.2360 -0.0048
# 3 10.3513 21.1051 149.4515 0.0019 -11.4322 -0.0390
# 4 0.0010 -0.0011 0.0019 15.5976 0.0003 -20.5910
# 5 -31.3982 -23.2360 -11.4322 0.0003 42.9664 -0.0106
# 6 -0.0292 -0.0048 -0.0390 -20.5910 -0.0106 -8.4614
#
#
#
# Elastic Compliance Matrix: (Units=1/GPa)
#
#
# Indices 1 2 3 4 5 6 
#
# 1 0.029056 -0.011630 0.000789 -0.000037 0.015154 -0.000026
# 2 -0.011630 0.042390 -0.004162 0.000007 0.013318 0.000002
# 3 0.000789 -0.004162 0.007244 -0.000011 0.000253 -0.000007
# 4 -0.000037 0.000007 -0.000011 0.015219 -0.000036 -0.037036
# 5 0.015154 0.013318 0.000253 -0.000036 0.041617 -0.000026
# 6 -0.000026 0.000002 -0.000007 -0.037036 -0.000026 -0.028055
#
#
# Mechanical properties :
#
#
# Convention : Reuss Voigt Hill
#
# Bulk Modulus (GPa) = 20.54072 41.12967 30.83520
# Shear Modulus (GPa) = 32.52966 22.84886 27.68926
#
# Velocity S-wave (km/s) = 3.74802 3.14119 3.45794
# Velocity P-wave (km/s) = 5.25362 5.56035 5.40916
#
# Compressibility (1/GPa) = 0.04868378
#
# Stress axis : x y z
#
# Youngs Moduli (GPa) = 34.41580 23.59049 138.05324
#
# Poissons Ratio (x) = 0.27436 -0.10893
# Poissons Ratio (y) = 0.40026 0.57456
# Poissons Ratio (z) = -0.02716 0.09818
#
# Static dielectric constant tensor:
#      x y z
#    x 1.930860 -0.000010 -0.203990 
#    y -0.000010 1.875390 0.000050 
#    z -0.203990 0.000050 3.491830 
# 
# From -- ./inp_files/212405.got.cif
#   From: 2010.05.17/outbox.cif.g08.bks.cpg/sg15_107_cif.got.tgz:212405.got - 2010.06.03 18:47:42.
