data_PCOD9267236
_publ_section_title
;
Structure prediction by ZEFSAII (Michael W. Deem and Ramdas Pophale) SiO2 
 PCOD9267236
Probable space group: C 2/C
;
_chemical_formula_sum "Si O2"
_cell_formula_units_Z 48
_cell_length_a 16.628420
_cell_length_b 8.776036
_cell_length_c 30.345446
_cell_angle_alpha 90.000000
_cell_angle_beta 151.604073
_cell_angle_gamma 90.000000
_cell_volume 2105.958241
_symmetry_space_group_name_H-M "C 2/C"
_symmetry_group_IT_number 15
_symmetry_cell_setting 'monoclinic'
loop_
_space_group_symop_operation_xyz
x,y,z
-x,y,1/2-z
-x,-y,-z
x,-y,1/2+z
1/2+x,1/2+y,z
1/2-x,1/2+y,1/2-z
1/2-x,1/2-y,-z
1/2+x,1/2-y,1/2+z
loop_
_atom_site_type_symbol
_atom_site_label
_atom_site_fract_x
_atom_site_fract_y
_atom_site_fract_z
Si Si1 0.020881 0.593690 0.214664
Si Si2 0.909874 0.397806 0.844346
Si Si3 0.362295 0.230133 0.647492
Si Si4 0.458278 0.266594 0.853580
Si Si5 0.104980 0.090499 0.087418
Si Si6 0.010444 0.669548 0.020417
O O1 0.005377 0.666509 0.159569
O O2 0.215046 0.528433 0.309199
O O3 0.000000 0.683373 0.250000
O O4 0.895516 0.450901 0.157997
O O5 0.716508 0.338854 0.749137
O O6 0.930778 0.584389 0.851491
O O7 0.987222 0.329030 0.925973
O O8 0.500000 0.283576 0.750000
O O9 0.403650 0.289054 0.618289
O O10 0.183930 0.268198 0.582735
O O11 0.492497 0.358404 0.915303
O O12 0.139294 0.242541 0.075954
O O13 0.000000 0.000000 0.000000
O O14 0.000000 0.500000 0.000000
#
# Coordination Sequence:
#
# PCOD9267236 Si02
#       6
#     8   8   8   8   8   8
#     4   9  20  41  65  90 118 173 229 258 304 411
#     4  10  21  39  65  94 132 168 223 267 331 389
#     4  10  19  38  69  92 121 174 228 257 310 406
#     4  10  21  39  65  95 123 181 226 263 318 411
#     4  11  23  39  64  95 135 171 219 276 339 380
#     4  12  24  42  62 100 140 166 207 288 344 382
#
# _framework density 22.792473999999999
#
# number of rings (size 3 to 8) (size 9 to 14) (size 15 to 20)
#    0.000    1.667    3.333    2.000    4.667    0.667 
#    3.000    5.000    0.000    0.000    0.000    0.000 
#    0.000    0.000    0.000    0.000    0.000    0.000 
#
# Total GULP energy -133811.915686 kJ/mol
# GULP energy per Si atom -5575.496487 kJ/mol
# Density = 2.274060 g / cm^3
# Si number density = 22.792474 Si / 1000 Ang^3
#
#
#
# Elastic Constant Matrix: (Units=GPa)
#
#
# Indices 1 2 3 4 5 6 
#
# 1 206.3632 17.1448 51.0106 0.0000 -42.2057 0.0000
# 2 17.1448 50.5913 6.4340 0.0000 9.7810 0.0000
# 3 51.0106 6.4340 72.5390 0.0001 -15.1931 0.0000
# 4 0.0000 0.0000 0.0001 34.6679 0.0000 -1.1805
# 5 -42.2057 9.7810 -15.1931 0.0000 56.5532 0.0000
# 6 0.0000 0.0000 0.0000 -1.1805 0.0000 28.6508
#
#
#
# Elastic Compliance Matrix: (Units=1/GPa)
#
#
# Indices 1 2 3 4 5 6 
#
# 1 0.006937 -0.002791 -0.003651 0.000000 0.004679 0.000000
# 2 -0.002791 0.022087 -0.001306 0.000000 -0.006254 0.000000
# 3 -0.003651 -0.001306 0.016896 0.000000 0.002041 0.000000
# 4 0.000000 0.000000 0.000000 0.028886 0.000000 0.001190
# 5 0.004679 -0.006254 0.002041 0.000000 0.022804 0.000000
# 6 0.000000 0.000000 0.000000 0.001190 0.000000 0.034952
#
#
# Mechanical properties :
#
#
# Convention : Reuss Voigt Hill
#
# Bulk Modulus (GPa) = 32.86825 53.18583 43.02704
# Shear Modulus (GPa) = 31.60546 40.96797 36.28671
#
# Velocity S-wave (km/s) = 3.72783 4.24421 3.99438
# Velocity P-wave (km/s) = 5.74290 6.88500 6.33972
#
# Compressibility (1/GPa) = 0.03042450
#
# Stress axis : x y z
#
# Youngs Moduli (GPa) = 144.15190 45.27469 59.18512
#
# Poissons Ratio (x) = 0.12637 0.21607
# Poissons Ratio (y) = 0.40237 0.07730
# Poissons Ratio (z) = 0.52625 0.05913
#
# Static dielectric constant tensor:
#      x y z
#    x 1.907810 0.000000 -0.032580 
#    y 0.000000 1.895030 0.000000 
#    z -0.032580 0.000000 1.841670 
# 
# From -- ./inp_files/315793.got.cif
#   From: 2010.05.17/outbox.cif.g08.bks.cpg/sg15_158_cif.got.tgz:315793.got - 2010.06.03 18:47:42.
