data_PCOD9268594
_publ_section_title
;
Structure prediction by ZEFSAII (Michael W. Deem and Ramdas Pophale) SiO2 
 PCOD9268594
Probable space group: C 2/C
;
_chemical_formula_sum "Si O2"
_cell_formula_units_Z 48
_cell_length_a 10.684353
_cell_length_b 18.130880
_cell_length_c 11.084169
_cell_angle_alpha 90.000000
_cell_angle_beta 101.276034
_cell_angle_gamma 90.000000
_cell_volume 2105.740699
_symmetry_space_group_name_H-M "C 2/C"
_symmetry_group_IT_number 15
_symmetry_cell_setting 'monoclinic'
loop_
_space_group_symop_operation_xyz
x,y,z
-x,y,1/2-z
-x,-y,-z
x,-y,1/2+z
1/2+x,1/2+y,z
1/2-x,1/2+y,1/2-z
1/2-x,1/2-y,-z
1/2+x,1/2-y,1/2+z
loop_
_atom_site_type_symbol
_atom_site_label
_atom_site_fract_x
_atom_site_fract_y
_atom_site_fract_z
Si Si1 0.451330 0.150818 0.991551
Si Si2 0.790366 0.639471 0.586416
Si Si3 0.857104 0.995392 0.520748
Si Si4 0.195405 0.394071 0.818301
Si Si5 0.855167 0.241945 0.272093
Si Si6 0.673077 0.030955 0.682767
O O1 0.598050 0.159620 0.985209
O O2 0.370507 0.210053 0.897519
O O3 0.414998 0.070659 0.930749
O O4 0.402947 0.150884 0.117934
O O5 0.684456 0.590286 0.501619
O O6 0.768316 0.712936 0.659991
O O7 0.835355 0.583174 0.701808
O O8 0.775337 0.048952 0.417670
O O9 0.813131 0.022384 0.646066
O O10 0.000000 0.000000 0.500000
O O11 0.294486 0.336597 0.782952
O O12 0.133326 0.448904 0.709974
O O13 0.000000 0.237878 0.250000
#
# Coordination Sequence:
#
# PCOD9268594 Si02
#       6
#     8   8   8   8   8   8
#     4   9  18  35  55  85 111 142 187 237 287 326
#     4   9  19  36  57  82 113 148 181 237 280 332
#     4  10  22  36  54  86 113 148 188 230 281 337
#     4  10  20  32  57  84 111 151 187 234 273 346
#     4   9  18  33  57  82 111 153 193 227 281 338
#     4   9  19  32  53  84 107 144 182 233 282 331
#
# _framework density 22.794830999999999
#
# number of rings (size 3 to 8) (size 9 to 14) (size 15 to 20)
#    0.000    2.667    0.000    2.000    2.333    9.333 
#    0.000    0.833    0.000    0.000   47.667    0.000 
#    0.000    0.000    0.000    0.000    0.000    0.000 
#
# Total GULP energy -134022.544738 kJ/mol
# GULP energy per Si atom -5584.272697 kJ/mol
# Density = 2.274295 g / cm^3
# Si number density = 22.794831 Si / 1000 Ang^3
#
#
#
# Elastic Constant Matrix: (Units=GPa)
#
#
# Indices 1 2 3 4 5 6 
#
# 1 64.5103 7.0644 10.1366 0.0000 -13.0250 0.0000
# 2 7.0644 115.3773 22.3221 0.0000 -3.2432 0.0000
# 3 10.1366 22.3221 54.5589 0.0000 -11.7587 0.0000
# 4 0.0000 0.0000 0.0000 26.5206 0.0000 -2.4585
# 5 -13.0250 -3.2432 -11.7587 0.0000 24.0545 0.0000
# 6 0.0000 0.0000 0.0000 -2.4585 0.0000 33.2998
#
#
#
# Elastic Compliance Matrix: (Units=1/GPa)
#
#
# Indices 1 2 3 4 5 6 
#
# 1 0.017532 -0.000612 -0.001094 0.000000 0.008876 0.000000
# 2 -0.000612 0.009444 -0.003965 0.000000 -0.000996 0.000000
# 3 -0.001094 -0.003965 0.022256 0.000000 0.009753 0.000000
# 4 0.000000 0.000000 0.000000 0.037966 0.000000 0.002803
# 5 0.008876 -0.000996 0.009753 0.000000 0.051012 0.000000
# 6 0.000000 0.000000 0.000000 0.002803 0.000000 0.030237
#
#
# Mechanical properties :
#
#
# Convention : Reuss Voigt Hill
#
# Bulk Modulus (GPa) = 26.39188 34.83254 30.61221
# Shear Modulus (GPa) = 25.98486 29.76987 27.87737
#
# Velocity S-wave (km/s) = 3.37997 3.61777 3.50089
# Velocity P-wave (km/s) = 5.18029 5.72408 5.45896
#
# Compressibility (1/GPa) = 0.03789044
#
# Stress axis : x y z
#
# Youngs Moduli (GPa) = 57.03695 105.88989 44.93143
#
# Poissons Ratio (x) = 0.06484 0.04915
# Poissons Ratio (y) = 0.03493 0.17814
# Poissons Ratio (z) = 0.06239 0.41983
#
# Static dielectric constant tensor:
#      x y z
#    x 1.840430 0.000000 0.016270 
#    y 0.000000 1.817360 0.000000 
#    z 0.016270 0.000000 1.939010 
# 
# From -- ./inp_files/87267.got.cif
#   From: 2010.05.17/outbox.cif.g08.bks.cpg/sg15_44_cif.got.tgz:87267.got - 2010.06.03 18:47:42.
