data_PCOD9268460
_publ_section_title
;
Structure prediction by ZEFSAII (Michael W. Deem and Ramdas Pophale) SiO2 
 PCOD9268460
Probable space group: C 2/C
;
_chemical_formula_sum "Si O2"
_cell_formula_units_Z 44
_cell_length_a 7.663256
_cell_length_b 29.742791
_cell_length_c 13.079645
_cell_angle_alpha 90.000000
_cell_angle_beta 54.317966
_cell_angle_gamma 90.000000
_cell_volume 2421.528216
_symmetry_space_group_name_H-M "C 2/C"
_symmetry_group_IT_number 15
_symmetry_cell_setting 'monoclinic'
loop_
_space_group_symop_operation_xyz
x,y,z
-x,y,1/2-z
-x,-y,-z
x,-y,1/2+z
1/2+x,1/2+y,z
1/2-x,1/2+y,1/2-z
1/2-x,1/2-y,-z
1/2+x,1/2-y,1/2+z
loop_
_atom_site_type_symbol
_atom_site_label
_atom_site_fract_x
_atom_site_fract_y
_atom_site_fract_z
Si Si1 0.000000 0.986748 0.750000
Si Si2 0.386527 0.545298 0.504140
Si Si3 0.935410 0.636630 0.604176
Si Si4 0.144669 0.790780 0.098307
Si Si5 0.574062 0.037761 0.895526
Si Si6 0.652839 0.361536 0.405701
O O1 0.804752 0.019433 0.781963
O O2 0.926338 0.955725 0.868799
O O3 0.500000 0.500000 0.500000
O O4 0.463535 0.591477 0.528372
O O5 0.129957 0.542248 0.609816
O O6 0.831992 0.676200 0.574710
O O7 0.913224 0.587555 0.560984
O O8 0.791873 0.631562 0.755540
O O9 0.176886 0.646139 0.560633
O O10 0.000000 0.779268 0.250000
O O11 0.999413 0.820211 0.070202
O O12 0.250000 0.750000 0.000000
O O13 0.500000 0.000000 0.000000
#
# Coordination Sequence:
#
# PCOD9268460 Si02
#       6
#     4   8   8   8   8   8
#     4  10  20  32  50  76 120 150 186 232 284 330
#     4  10  20  33  52  79 114 149 193 232 277 345
#     4   9  18  34  58  81 109 144 190 233 277 346
#     4  10  22  39  62  85 111 144 194 245 295 350
#     4   9  19  31  50  80 110 148 188 227 275 331
#     4   9  19  35  56  82 107 147 189 228 284 343
#
# _framework density 18.170344
#
# number of rings (size 3 to 8) (size 9 to 14) (size 15 to 20)
#    0.000    2.545    0.000    1.091    8.909    2.909 
#    0.000    5.455    0.000    0.000    0.000    0.000 
#    0.000    0.000    0.000    0.000    0.000    0.000 
#
# Total GULP energy -122548.826224 kJ/mol
# GULP energy per Si atom -5570.401192 kJ/mol
# Density = 1.812899 g / cm^3
# Si number density = 18.170344 Si / 1000 Ang^3
#
#
#
# Elastic Constant Matrix: (Units=GPa)
#
#
# Indices 1 2 3 4 5 6 
#
# 1 79.9390 66.4208 37.9458 0.0000 -10.0174 0.0000
# 2 66.4208 168.8215 64.9376 0.0000 -1.0221 0.0000
# 3 37.9458 64.9376 77.3719 0.0000 -2.0224 0.0000
# 4 0.0000 0.0000 0.0000 35.8405 0.0000 1.9517
# 5 -10.0174 -1.0221 -2.0224 0.0000 23.4221 0.0000
# 6 0.0000 0.0000 0.0000 1.9517 0.0000 32.5960
#
#
#
# Elastic Compliance Matrix: (Units=1/GPa)
#
#
# Indices 1 2 3 4 5 6 
#
# 1 0.021174 -0.006453 -0.004750 0.000000 0.008364 0.000000
# 2 -0.006453 0.010715 -0.005902 0.000000 -0.002802 0.000000
# 3 -0.004750 -0.005902 0.020193 0.000000 -0.000545 0.000000
# 4 0.000000 0.000000 0.000000 0.027993 0.000000 -0.001676
# 5 0.008364 -0.002802 -0.000545 0.000000 0.046103 0.000000
# 6 0.000000 0.000000 0.000000 -0.001676 0.000000 0.030779
#
#
# Mechanical properties :
#
#
# Convention : Reuss Voigt Hill
#
# Bulk Modulus (GPa) = 55.94955 73.86011 64.90483
# Shear Modulus (GPa) = 25.36467 28.82693 27.09580
#
# Velocity S-wave (km/s) = 3.74028 3.98739 3.86581
# Velocity P-wave (km/s) = 7.03644 7.86994 7.46483
#
# Compressibility (1/GPa) = 0.01787325
#
# Stress axis : x y z
#
# Youngs Moduli (GPa) = 47.22735 93.32283 49.52144
#
# Poissons Ratio (x) = 0.60221 0.23522
# Poissons Ratio (y) = 0.30476 0.29227
# Poissons Ratio (z) = 0.22433 0.55078
#
# Static dielectric constant tensor:
#      x y z
#    x 1.676390 0.000000 -0.009820 
#    y 0.000000 1.622690 0.000000 
#    z -0.009820 0.000000 1.656050 
# 
# From -- ./inp_files/137168.got.cif
#   From: 2010.05.17/outbox.cif.g08.bks.cpg/sg15_69_cif.got.tgz:137168.got - 2010.06.03 18:47:42.
