data_PCOD9268439
_publ_section_title
;
Structure prediction by ZEFSAII (Michael W. Deem and Ramdas Pophale) SiO2 
 PCOD9268439
Probable space group: C 2/C
;
_chemical_formula_sum "Si O2"
_cell_formula_units_Z 64
_cell_length_a 5.052287
_cell_length_b 21.733295
_cell_length_c 21.661796
_cell_angle_alpha 90.000000
_cell_angle_beta 79.716772
_cell_angle_gamma 90.000000
_cell_volume 2340.321326
_symmetry_space_group_name_H-M "C 2/C"
_symmetry_group_IT_number 15
_symmetry_cell_setting 'monoclinic'
loop_
_space_group_symop_operation_xyz
x,y,z
-x,y,1/2-z
-x,-y,-z
x,-y,1/2+z
1/2+x,1/2+y,z
1/2-x,1/2+y,1/2-z
1/2-x,1/2-y,-z
1/2+x,1/2-y,1/2+z
loop_
_atom_site_type_symbol
_atom_site_label
_atom_site_fract_x
_atom_site_fract_y
_atom_site_fract_z
Si Si1 0.419994 0.107721 0.337226
Si Si2 0.402465 0.237373 0.558848
Si Si3 0.286863 0.108996 0.563058
Si Si4 0.563728 0.239720 0.320171
Si Si5 0.549542 0.363082 0.545349
Si Si6 0.139419 0.870120 0.310975
Si Si7 0.289195 0.976562 0.589226
Si Si8 0.177795 0.001415 0.303422
O O1 0.617933 0.166437 0.327188
O O2 0.187530 0.128026 0.394247
O O3 0.552741 0.045743 0.357911
O O4 0.270245 0.072775 0.287740
O O5 0.250000 0.250000 0.500000
O O6 0.491662 0.166426 0.556164
O O7 0.187363 0.246559 0.623492
O O8 0.622153 0.291462 0.552594
O O9 0.092871 0.120525 0.512905
O O10 0.100465 0.117565 0.630791
O O11 0.395024 0.039843 0.558056
O O12 0.500000 0.238958 0.250000
O O13 0.751524 0.300785 0.320892
O O14 0.769186 0.414469 0.550708
O O15 0.314364 0.933092 0.306800
O O16 0.000000 0.864291 0.250000
O O17 0.994587 0.991905 0.626784
O O18 0.000000 0.989331 0.250000
#
# Coordination Sequence:
#
# PCOD9268439 Si02
#       8
#     8   8   8   8   8   8   8   8
#     4  10  21  33  49  79 110 135 173 221 267 320
#     4   8  15  30  53  74 100 142 183 224 275 325
#     4   9  16  30  54  74  99 143 177 220 271 316
#     4   9  17  29  51  77 104 138 175 220 273 324
#     4   9  18  34  51  73 105 139 178 217 271 324
#     4   8  15  31  52  76  98 132 177 215 263 318
#     4  10  20  32  49  76 105 137 175 222 266 320
#     4   9  19  34  53  73 100 138 176 212 265 328
#
# _framework density 27.346672999999999
#
# number of rings (size 3 to 8) (size 9 to 14) (size 15 to 20)
#    0.000    3.000    0.000    0.375    1.750    0.500 
#    0.000    1.250    0.000   25.500    0.000    0.000 
#    0.000    0.000    0.000    0.000    0.000    0.000 
#
# Total GULP energy -178437.704076 kJ/mol
# GULP energy per Si atom -5576.178252 kJ/mol
# Density = 2.728443 g / cm^3
# Si number density = 27.346673 Si / 1000 Ang^3
#
#
#
# Elastic Constant Matrix: (Units=GPa)
#
#
# Indices 1 2 3 4 5 6 
#
# 1 25.6169 14.0332 5.2802 0.0000 -6.6724 0.0000
# 2 14.0332 309.6132 15.4555 0.0000 -2.5101 0.0000
# 3 5.2802 15.4555 108.0256 0.0000 -19.3266 0.0000
# 4 0.0000 0.0000 0.0000 39.2969 0.0000 10.9900
# 5 -6.6724 -2.5101 -19.3266 0.0000 35.6453 0.0000
# 6 0.0000 0.0000 0.0000 10.9900 0.0000 -5.6003
#
#
#
# Elastic Compliance Matrix: (Units=1/GPa)
#
#
# Indices 1 2 3 4 5 6 
#
# 1 0.042084 -0.001824 -0.000454 0.000000 0.007503 0.000000
# 2 -0.001824 0.003332 -0.000450 0.000000 -0.000351 0.000000
# 3 -0.000454 -0.000450 0.010324 0.000000 0.005481 0.000000
# 4 0.000000 0.000000 0.000000 0.016430 0.000000 0.032243
# 5 0.007503 -0.000351 0.005481 0.000000 0.032406 0.000000
# 6 0.000000 0.000000 0.000000 0.032243 0.000000 -0.115290
#
#
# Mechanical properties :
#
#
# Convention : Reuss Voigt Hill
#
# Bulk Modulus (GPa) = 19.88702 56.97706 38.43204
# Shear Modulus (GPa) = 434.65102 41.10085 237.87593
#
# Velocity S-wave (km/s) = 12.62086 3.88100 9.33671
# Velocity P-wave (km/s) = 14.82125 6.40025 11.41562
#
# Compressibility (1/GPa) = 0.05028406
#
# Stress axis : x y z
#
# Youngs Moduli (GPa) = 23.76219 300.10707 96.85888
#
# Poissons Ratio (x) = 0.54739 0.04394
# Poissons Ratio (y) = 0.04334 0.04362
# Poissons Ratio (z) = 0.01078 0.13516
#
# Static dielectric constant tensor:
#      x y z
#    x 3.102650 0.000000 0.577770 
#    y 0.000000 2.273610 0.000000 
#    z 0.577770 0.000000 2.481390 
# 
# From -- ./inp_files/261686.got.cif
#   From: 2010.05.17/outbox.cif.g08.bks.cpg/sg15_131_cif.got.tgz:261686.got - 2010.06.03 18:47:42.
