data_PCOD9268017
_publ_section_title
;
Structure prediction by ZEFSAII (Michael W. Deem and Ramdas Pophale) SiO2 
 PCOD9268017
Probable space group: C 2/C
;
_chemical_formula_sum "Si O2"
_cell_formula_units_Z 40
_cell_length_a 9.496551
_cell_length_b 12.447015
_cell_length_c 16.363233
_cell_angle_alpha 90.000000
_cell_angle_beta 88.581491
_cell_angle_gamma 90.000000
_cell_volume 1933.602149
_symmetry_space_group_name_H-M "C 2/C"
_symmetry_group_IT_number 15
_symmetry_cell_setting 'monoclinic'
loop_
_space_group_symop_operation_xyz
x,y,z
-x,y,1/2-z
-x,-y,-z
x,-y,1/2+z
1/2+x,1/2+y,z
1/2-x,1/2+y,1/2-z
1/2-x,1/2-y,-z
1/2+x,1/2-y,1/2+z
loop_
_atom_site_type_symbol
_atom_site_label
_atom_site_fract_x
_atom_site_fract_y
_atom_site_fract_z
Si Si1 0.238524 0.084570 0.101188
Si Si2 0.357368 0.615903 0.794801
Si Si3 0.036239 0.665390 0.154272
Si Si4 0.379327 0.788247 0.318957
Si Si5 0.133811 0.522013 0.556089
O O1 0.388667 0.143540 0.112109
O O2 0.132657 0.174103 0.135909
O O3 0.222553 0.978292 0.156688
O O4 0.237828 0.049805 0.006379
O O5 0.500000 0.573664 0.750000
O O6 0.407362 0.713797 0.852058
O O7 0.260074 0.673326 0.728216
O O8 0.146599 0.580985 0.114909
O O9 0.000000 0.643671 0.250000
O O10 0.500000 0.786081 0.250000
O O11 0.402970 0.878046 0.386650
O O12 0.000000 0.500000 0.500000
#
# Coordination Sequence:
#
# PCOD9268017 Si02
#       5
#     8   8   8   8   8
#     4  11  22  40  63  96 131 168 218 278 329 393
#     4  11  23  42  70  96 129 173 230 276 328 397
#     4  10  19  41  66  91 127 174 218 272 327 393
#     4  12  23  40  69  95 129 176 225 272 330 400
#     4  10  22  39  66  94 133 174 218 269 342 398
#
# _framework density 20.686778
#
# number of rings (size 3 to 8) (size 9 to 14) (size 15 to 20)
#    0.000    1.200    4.000    5.400    0.000    0.800 
#    0.000    1.000    0.000    0.000    0.000    0.000 
#    0.000    0.000    0.000    0.000    0.000    0.000 
#
# Total GULP energy -111644.159697 kJ/mol
# GULP energy per Si atom -5582.207985 kJ/mol
# Density = 2.063969 g / cm^3
# Si number density = 20.686778 Si / 1000 Ang^3
#
#
#
# Elastic Constant Matrix: (Units=GPa)
#
#
# Indices 1 2 3 4 5 6 
#
# 1 56.4321 15.1801 18.2056 0.0000 -10.5006 0.0000
# 2 15.1801 158.7941 59.3225 0.0000 -10.5696 0.0000
# 3 18.2056 59.3225 95.1813 0.0000 -31.3399 0.0000
# 4 0.0000 0.0000 0.0000 -98.1564 0.0000 6.9198
# 5 -10.5006 -10.5696 -31.3399 0.0000 23.2901 0.0000
# 6 0.0000 0.0000 0.0000 6.9198 0.0000 11.2443
#
#
#
# Elastic Compliance Matrix: (Units=1/GPa)
#
#
# Indices 1 2 3 4 5 6 
#
# 1 0.019621 -0.001179 -0.000506 0.000000 0.007631 0.000000
# 2 -0.001179 0.008719 -0.007328 0.000000 -0.006435 0.000000
# 3 -0.000506 -0.007328 0.025138 0.000000 0.030273 0.000000
# 4 0.000000 0.000000 0.000000 -0.009764 0.000000 0.006009
# 5 0.007631 -0.006435 0.030273 0.000000 0.084193 0.000000
# 6 0.000000 0.000000 0.000000 0.006009 0.000000 0.085236
#
#
# Mechanical properties :
#
#
# Convention : Reuss Voigt Hill
#
# Bulk Modulus (GPa) = 28.20594 55.09154 41.64874
# Shear Modulus (GPa) = 20.57740 1.78889 11.18314
#
# Velocity S-wave (km/s) = 3.15733 0.93093 2.32759
# Velocity P-wave (km/s) = 5.19192 5.27680 5.23453
#
# Compressibility (1/GPa) = 0.03545352
#
# Stress axis : x y z
#
# Youngs Moduli (GPa) = 50.96702 114.68773 39.78071
#
# Poissons Ratio (x) = 0.13520 0.02011
# Poissons Ratio (y) = 0.06008 0.29150
# Poissons Ratio (z) = 0.02577 0.84040
#
# Static dielectric constant tensor:
#      x y z
#    x 1.775520 0.000000 -0.000930 
#    y 0.000000 1.748080 0.000000 
#    z -0.000930 0.000000 1.754780 
# 
# From -- ./inp_files/187791.got.cif
#   From: 2010.05.17/outbox.cif.g08.bks.cpg/sg15_94_cif.got.tgz:187791.got - 2010.06.03 18:47:42.
