data_PCOD9268536
_publ_section_title
;
Structure prediction by ZEFSAII (Michael W. Deem and Ramdas Pophale) SiO2 
 PCOD9268536
Probable space group: C 2/C
;
_chemical_formula_sum "Si O2"
_cell_formula_units_Z 64
_cell_length_a 9.206824
_cell_length_b 31.670134
_cell_length_c 14.929747
_cell_angle_alpha 90.000000
_cell_angle_beta 123.129538
_cell_angle_gamma 90.000000
_cell_volume 3645.561021
_symmetry_space_group_name_H-M "C 2/C"
_symmetry_group_IT_number 15
_symmetry_cell_setting 'monoclinic'
loop_
_space_group_symop_operation_xyz
x,y,z
-x,y,1/2-z
-x,-y,-z
x,-y,1/2+z
1/2+x,1/2+y,z
1/2-x,1/2+y,1/2-z
1/2-x,1/2-y,-z
1/2+x,1/2-y,1/2+z
loop_
_atom_site_type_symbol
_atom_site_label
_atom_site_fract_x
_atom_site_fract_y
_atom_site_fract_z
Si Si1 0.996917 0.737917 0.354478
Si Si2 0.126305 0.907450 0.708593
Si Si3 0.701348 0.053152 0.809943
Si Si4 0.649124 0.688777 0.021794
Si Si5 0.342565 0.686316 0.266832
Si Si6 0.678574 0.015526 0.156674
Si Si7 0.537419 0.405848 0.476314
Si Si8 0.230965 0.511919 0.484123
O O1 0.152444 0.704341 0.422594
O O2 0.035694 0.779291 0.424932
O O3 0.000000 0.748218 0.250000
O O4 0.813372 0.716640 0.312781
O O5 0.220684 0.862398 0.750049
O O6 0.251456 0.946956 0.758790
O O7 0.028185 0.907991 0.581266
O O8 0.000000 0.910135 0.750000
O O9 0.500000 0.066768 0.750000
O O10 0.847788 0.088413 0.869563
O O11 0.712048 0.027890 0.720515
O O12 0.744427 0.019312 0.903779
O O13 0.604617 0.694912 0.112213
O O14 0.619636 0.640042 0.985352
O O15 0.500000 0.689090 0.250000
O O16 0.473109 0.022876 0.077659
O O17 0.768165 0.012289 0.089846
O O18 0.653952 0.446122 0.486613
#
# Coordination Sequence:
#
# PCOD9268536 Si02
#       8
#     8   8   8   8   8   8   8   8
#     4   9  18  38  60  80 114 143 175 223 282 326
#     4  10  20  32  54  81 109 138 179 231 275 311
#     4  10  21  37  51  72 109 148 178 227 271 312
#     4   9  20  36  58  84 110 144 178 229 274 326
#     4   9  19  34  56  88 110 139 180 224 273 333
#     4  10  21  34  51  76 108 145 180 226 273 306
#     4  11  21  35  57  80 105 144 192 222 264 332
#     4  10  21  35  52  77 107 143 190 222 262 323
#
# _framework density 17.555596999999999
#
# number of rings (size 3 to 8) (size 9 to 14) (size 15 to 20)
#    0.000    2.250    1.250    1.125    3.500    0.500 
#    2.250    0.625    0.000    0.000    0.000    0.000 
#    0.000    0.000    0.000    0.000    0.000    0.000 
#
# Total GULP energy -178434.534302 kJ/mol
# GULP energy per Si atom -5576.079197 kJ/mol
# Density = 1.751564 g / cm^3
# Si number density = 17.555597 Si / 1000 Ang^3
#
#
#
# Elastic Constant Matrix: (Units=GPa)
#
#
# Indices 1 2 3 4 5 6 
#
# 1 51.5436 35.0709 23.8030 0.0000 0.3215 0.0000
# 2 35.0709 84.1617 40.1068 0.0000 16.6907 0.0000
# 3 23.8030 40.1068 75.9714 0.0000 14.9350 0.0000
# 4 0.0000 0.0000 0.0000 28.2622 0.0000 -0.1430
# 5 0.3215 16.6907 14.9350 0.0000 21.2473 0.0000
# 6 0.0000 0.0000 0.0000 -0.1430 0.0000 17.8559
#
#
#
# Elastic Compliance Matrix: (Units=1/GPa)
#
#
# Indices 1 2 3 4 5 6 
#
# 1 0.030536 -0.012786 -0.005455 0.000000 0.013416 0.000000
# 2 -0.012786 0.022374 -0.005092 0.000000 -0.013803 0.000000
# 3 -0.005455 -0.005092 0.019445 0.000000 -0.009585 0.000000
# 4 0.000000 0.000000 0.000000 0.035384 0.000000 0.000283
# 5 0.013416 -0.013803 -0.009585 0.000000 0.064442 0.000000
# 6 0.000000 0.000000 0.000000 0.000283 0.000000 0.056006
#
#
# Mechanical properties :
#
#
# Convention : Reuss Voigt Hill
#
# Bulk Modulus (GPa) = 38.92772 45.51534 42.22153
# Shear Modulus (GPa) = 17.64194 20.98616 19.31405
#
# Velocity S-wave (km/s) = 3.17348 3.46122 3.32047
# Velocity P-wave (km/s) = 5.97077 6.47735 6.22921
#
# Compressibility (1/GPa) = 0.02568863
#
# Stress axis : x y z
#
# Youngs Moduli (GPa) = 32.74819 44.69528 51.42833
#
# Poissons Ratio (x) = 0.57146 0.28054
# Poissons Ratio (y) = 0.41871 0.26188
# Poissons Ratio (z) = 0.17864 0.22759
#
# Static dielectric constant tensor:
#      x y z
#    x 1.596680 0.000000 -0.001070 
#    y 0.000000 1.588680 0.000000 
#    z -0.001070 0.000000 1.607950 
# 
# From -- ./inp_files/139532.got.cif
#   From: 2010.05.17/outbox.cif.g08.bks.cpg/sg15_70_cif.got.tgz:139532.got - 2010.06.03 18:47:42.
