data_PCOD9268214
_publ_section_title
;
Structure prediction by ZEFSAII (Michael W. Deem and Ramdas Pophale) SiO2 
 PCOD9268214
Probable space group: C 2/C
;
_chemical_formula_sum "Si O2"
_cell_formula_units_Z 40
_cell_length_a 24.159156
_cell_length_b 9.976748
_cell_length_c 11.096169
_cell_angle_alpha 90.000000
_cell_angle_beta 144.270140
_cell_angle_gamma 90.000000
_cell_volume 1561.817056
_symmetry_space_group_name_H-M "C 2/C"
_symmetry_group_IT_number 15
_symmetry_cell_setting 'monoclinic'
loop_
_space_group_symop_operation_xyz
x,y,z
-x,y,1/2-z
-x,-y,-z
x,-y,1/2+z
1/2+x,1/2+y,z
1/2-x,1/2+y,1/2-z
1/2-x,1/2-y,-z
1/2+x,1/2-y,1/2+z
loop_
_atom_site_type_symbol
_atom_site_label
_atom_site_fract_x
_atom_site_fract_y
_atom_site_fract_z
Si Si1 0.105702 0.718399 0.805916
Si Si2 0.000000 0.484477 0.750000
Si Si3 0.657328 0.033907 0.704451
Si Si4 0.500000 0.635695 0.750000
Si Si5 0.089290 0.246418 0.675699
Si Si6 0.843429 0.066505 0.898620
O O1 0.072449 0.584417 0.814086
O O2 0.175104 0.656128 0.827949
O O3 0.010196 0.770299 0.571748
O O4 0.133681 0.823475 0.957238
O O5 0.935374 0.418786 0.533994
O O6 0.628675 0.894636 0.717926
O O7 0.743937 0.008802 0.767690
O O8 0.567631 0.713330 0.775486
O O9 0.426806 0.542195 0.547329
O O10 0.158763 0.139648 0.734191
#
# Coordination Sequence:
#
# PCOD9268214 Si02
#       6
#     8   4   8   4   8   8
#     4  11  21  45  77 101 153 200 238 303 381 439
#     4  10  19  45  68 102 150 193 243 306 356 436
#     4  11  26  41  78 113 148 191 258 306 370 438
#     4  12  27  47  78 100 158 199 251 306 372 446
#     4  11  24  49  74 108 149 201 250 301 370 444
#     4  12  24  47  74 114 149 202 240 310 376 449
#
# _framework density 25.611193
#
# number of rings (size 3 to 8) (size 9 to 14) (size 15 to 20)
#    0.000    0.800    6.000    3.600    0.000    7.200 
#    0.000    0.000    0.000    0.000    0.000    0.000 
#    0.000    0.000    0.000    0.000    0.000    0.000 
#
# Total GULP energy -112028.360338 kJ/mol
# GULP energy per Si atom -5601.418017 kJ/mol
# Density = 2.555290 g / cm^3
# Si number density = 25.611193 Si / 1000 Ang^3
#
#
#
# Elastic Constant Matrix: (Units=GPa)
#
#
# Indices 1 2 3 4 5 6 
#
# 1 175.1611 79.9161 32.2921 0.0000 2.7274 0.0000
# 2 79.9161 102.1794 37.3558 0.0000 -6.1163 0.0000
# 3 32.2921 37.3558 57.4534 0.0000 -3.1885 0.0000
# 4 0.0000 0.0000 0.0000 21.4504 0.0000 -3.5852
# 5 2.7274 -6.1163 -3.1885 0.0000 42.3758 0.0000
# 6 0.0000 0.0000 0.0000 -3.5852 0.0000 58.2773
#
#
#
# Elastic Compliance Matrix: (Units=1/GPa)
#
#
# Indices 1 2 3 4 5 6 
#
# 1 0.009003 -0.006895 -0.000668 0.000000 -0.001625 0.000000
# 2 -0.006895 0.018183 -0.007809 0.000000 0.002481 0.000000
# 3 -0.000668 -0.007809 0.022894 0.000000 0.000638 0.000000
# 4 0.000000 0.000000 0.000000 0.047104 0.000000 0.002898
# 5 -0.001625 0.002481 0.000638 0.000000 0.024109 0.000000
# 6 0.000000 0.000000 0.000000 0.002898 0.000000 0.017338
#
#
# Mechanical properties :
#
#
# Convention : Reuss Voigt Hill
#
# Bulk Modulus (GPa) = 51.71649 70.43576 61.07613
# Shear Modulus (GPa) = 28.43849 36.76935 32.60392
#
# Velocity S-wave (km/s) = 3.33587 3.79314 3.57183
# Velocity P-wave (km/s) = 5.92234 6.83707 6.39608
#
# Compressibility (1/GPa) = 0.01933619
#
# Stress axis : x y z
#
# Youngs Moduli (GPa) = 111.07387 54.99761 43.68018
#
# Poissons Ratio (x) = 0.37919 0.02916
# Poissons Ratio (y) = 0.76581 0.34112
# Poissons Ratio (z) = 0.07415 0.42950
#
# Static dielectric constant tensor:
#      x y z
#    x 2.250310 0.000000 -0.147720 
#    y 0.000000 2.067870 0.000000 
#    z -0.147720 0.000000 2.083220 
# 
# From -- ./inp_files/122861.got.cif
#   From: 2010.05.17/outbox.cif.g08.bks.cpg/sg15_62_cif.got.tgz:122861.got - 2010.06.03 18:47:42.
