data_PCOD9268375
_publ_section_title
;
Structure prediction by ZEFSAII (Michael W. Deem and Ramdas Pophale) SiO2 
 PCOD9268375
Probable space group: C 2/C
;
_chemical_formula_sum "Si O2"
_cell_formula_units_Z 56
_cell_length_a 23.497845
_cell_length_b 10.504034
_cell_length_c 14.576800
_cell_angle_alpha 90.000000
_cell_angle_beta 36.681286
_cell_angle_gamma 90.000000
_cell_volume 2149.239637
_symmetry_space_group_name_H-M "C 2/C"
_symmetry_group_IT_number 15
_symmetry_cell_setting 'monoclinic'
loop_
_space_group_symop_operation_xyz
x,y,z
-x,y,1/2-z
-x,-y,-z
x,-y,1/2+z
1/2+x,1/2+y,z
1/2-x,1/2+y,1/2-z
1/2-x,1/2-y,-z
1/2+x,1/2-y,1/2+z
loop_
_atom_site_type_symbol
_atom_site_label
_atom_site_fract_x
_atom_site_fract_y
_atom_site_fract_z
Si Si1 0.497690 0.420462 0.642928
Si Si2 0.383455 0.781681 0.175070
Si Si3 0.159400 0.427879 0.741432
Si Si4 0.309716 0.479472 0.401046
Si Si5 0.666817 0.690036 0.985383
Si Si6 0.351866 0.955454 0.528999
Si Si7 0.512849 0.805173 0.634277
O O1 0.500000 0.404312 0.750000
O O2 0.451037 0.305493 0.648277
O O3 0.421023 0.535452 0.728034
O O4 0.612136 0.403959 0.484630
O O5 0.270659 0.767000 0.319396
O O6 0.388401 0.929621 0.201594
O O7 0.416713 0.745237 0.029938
O O8 0.254995 0.409990 0.556081
O O9 0.170197 0.419673 0.836690
O O10 0.084477 0.332712 0.793328
O O11 0.314286 0.618693 0.443756
O O12 0.238391 0.485211 0.408283
O O13 0.615798 0.824972 0.060606
O O14 0.434183 0.059741 0.417308
O O15 0.500000 0.743525 0.750000
#
# Coordination Sequence:
#
# PCOD9268375 Si02
#       7
#     8   8   8   8   8   8   8
#     4  10  20  31  55  84 114 142 181 232 284 324
#     4  10  20  34  50  86 114 141 186 227 278 337
#     4  10  21  32  51  82 115 145 184 224 288 337
#     4  10  20  33  52  85 112 145 185 226 283 332
#     4  10  20  32  55  84 117 139 184 231 282 324
#     4  11  19  33  53  80 117 146 173 233 285 323
#     4  11  21  34  53  81 116 149 181 225 282 341
#
# _framework density 26.055727999999998
#
# number of rings (size 3 to 8) (size 9 to 14) (size 15 to 20)
#    0.000    1.714    2.857    3.857    6.000    2.286 
#    0.000    0.000    0.000   24.857    0.000    0.000 
#    0.000    0.000    0.000    0.000    0.000    0.000 
#
# Total GULP energy -156223.646315 kJ/mol
# GULP energy per Si atom -5579.415940 kJ/mol
# Density = 2.599642 g / cm^3
# Si number density = 26.055728 Si / 1000 Ang^3
#
#
#
# Elastic Constant Matrix: (Units=GPa)
#
#
# Indices 1 2 3 4 5 6 
#
# 1 166.1587 16.1219 40.7405 0.0000 -9.3814 0.0000
# 2 16.1219 44.9271 -15.8874 0.0000 -2.8821 0.0000
# 3 40.7405 -15.8874 75.8474 0.0000 -5.3263 0.0000
# 4 0.0000 0.0000 0.0000 11.0004 0.0000 1.2380
# 5 -9.3814 -2.8821 -5.3263 0.0000 43.2244 0.0000
# 6 0.0000 0.0000 0.0000 1.2380 0.0000 27.4625
#
#
#
# Elastic Compliance Matrix: (Units=1/GPa)
#
#
# Indices 1 2 3 4 5 6 
#
# 1 0.007737 -0.004513 -0.005048 0.000000 0.000756 0.000000
# 2 -0.004513 0.026889 0.008184 0.000000 0.001822 0.000000
# 3 -0.005048 0.008184 0.017725 0.000000 0.001634 0.000000
# 4 0.000000 0.000000 0.000000 0.091370 0.000000 -0.004119
# 5 0.000756 0.001822 0.001634 0.000000 0.023622 0.000000
# 6 0.000000 0.000000 0.000000 -0.004119 0.000000 0.036599
#
#
# Mechanical properties :
#
#
# Convention : Reuss Voigt Hill
#
# Bulk Modulus (GPa) = 20.16237 40.98702 30.57469
# Shear Modulus (GPa) = 22.39884 32.73466 27.56675
#
# Velocity S-wave (km/s) = 2.93516 3.54832 3.25621
# Velocity P-wave (km/s) = 4.38656 5.70545 5.08891
#
# Compressibility (1/GPa) = 0.04959734
#
# Stress axis : x y z
#
# Youngs Moduli (GPa) = 129.25642 37.19038 56.41816
#
# Poissons Ratio (x) = 0.16783 0.28479
# Poissons Ratio (y) = 0.58330 -0.46174
# Poissons Ratio (z) = 0.65246 -0.30437
#
# Static dielectric constant tensor:
#      x y z
#    x 2.022320 0.000000 -0.059630 
#    y 0.000000 2.177040 0.000000 
#    z -0.059630 0.000000 2.297850 
# 
# From -- ./inp_files/173469.got.cif
#   From: 2010.05.17/outbox.cif.g08.bks.cpg/sg15_87_cif.got.tgz:173469.got - 2010.06.03 18:47:42.
