data_PCOD9268473
_publ_section_title
;
Structure prediction by ZEFSAII (Michael W. Deem and Ramdas Pophale) SiO2 
 PCOD9268473
Probable space group: C 2/C
;
_chemical_formula_sum "Si O2"
_cell_formula_units_Z 60
_cell_length_a 22.717921
_cell_length_b 6.682188
_cell_length_c 23.221387
_cell_angle_alpha 90.000000
_cell_angle_beta 65.286476
_cell_angle_gamma 90.000000
_cell_volume 3202.263817
_symmetry_space_group_name_H-M "C 2/C"
_symmetry_group_IT_number 15
_symmetry_cell_setting 'monoclinic'
loop_
_space_group_symop_operation_xyz
x,y,z
-x,y,1/2-z
-x,-y,-z
x,-y,1/2+z
1/2+x,1/2+y,z
1/2-x,1/2+y,1/2-z
1/2-x,1/2-y,-z
1/2+x,1/2-y,1/2+z
loop_
_atom_site_type_symbol
_atom_site_label
_atom_site_fract_x
_atom_site_fract_y
_atom_site_fract_z
Si Si1 0.315739 0.808822 0.704629
Si Si2 0.558346 0.016397 0.058450
Si Si3 0.098478 0.731276 0.648597
Si Si4 0.473726 0.619968 0.854664
Si Si5 0.000000 0.429192 0.750000
Si Si6 0.591177 0.934995 0.413905
Si Si7 0.321892 0.165690 0.782756
Si Si8 0.101470 0.085882 0.335466
O O1 0.242719 0.771940 0.713976
O O2 0.351043 0.597660 0.693608
O O3 0.356753 0.931307 0.640676
O O4 0.317449 0.936542 0.762969
O O5 0.563569 0.233858 0.086534
O O6 0.591807 0.855183 0.086816
O O7 0.481047 0.971969 0.082930
O O8 0.586980 0.019883 0.982878
O O9 0.054179 0.576854 0.703425
O O10 0.165684 0.708538 0.655322
O O11 0.071293 0.958127 0.659446
O O12 0.511716 0.773961 0.797139
O O13 0.528552 0.491386 0.863178
O O14 0.610282 0.707702 0.390679
O O15 0.382167 0.261154 0.722727
#
# Coordination Sequence:
#
# PCOD9268473 Si02
#       8
#     8   8   8   8   4   8   8   8
#     4  11  22  40  60  87 116 156 197 241 292 351
#     4  10  22  39  57  89 120 154 198 243 291 349
#     4  11  22  36  56  85 122 152 188 245 299 352
#     4  11  20  34  57  89 117 152 191 237 308 348
#     4  10  20  32  50  84 122 146 180 236 304 366
#     4  10  22  39  60  84 122 156 197 245 287 346
#     4  11  23  38  59  85 120 152 197 240 293 360
#     4  11  20  35  59  88 117 151 193 241 295 352
#
# _framework density 18.736744000000002
#
# number of rings (size 3 to 8) (size 9 to 14) (size 15 to 20)
#    0.000    1.333    4.000    2.800    3.733    2.667 
#    0.000    0.667    0.000    1.600    0.000    0.000 
#    0.000    0.000    0.000    0.000    0.000    0.000 
#
# Total GULP energy -167345.459499 kJ/mol
# GULP energy per Si atom -5578.181983 kJ/mol
# Density = 1.869410 g / cm^3
# Si number density = 18.736744 Si / 1000 Ang^3
#
#
#
# Elastic Constant Matrix: (Units=GPa)
#
#
# Indices 1 2 3 4 5 6 
#
# 1 57.6740 26.4471 8.5651 -0.0007 16.2772 0.0013
# 2 26.4471 108.3855 17.8925 0.0013 8.7307 0.0039
# 3 8.5651 17.8925 63.0740 -0.0007 17.2362 0.0003
# 4 -0.0007 0.0013 -0.0007 12.4851 -0.0008 -1.9873
# 5 16.2772 8.7307 17.2362 -0.0008 24.6174 -0.0008
# 6 0.0013 0.0039 0.0003 -1.9873 -0.0008 28.5007
#
#
#
# Elastic Compliance Matrix: (Units=1/GPa)
#
#
# Indices 1 2 3 4 5 6 
#
# 1 0.023630 -0.004914 0.002447 0.000001 -0.015595 -0.000001
# 2 -0.004914 0.010771 -0.002760 -0.000002 0.001362 -0.000001
# 3 0.002447 -0.002760 0.020379 0.000001 -0.014907 0.000000
# 4 0.000001 -0.000002 0.000001 0.080995 0.000002 0.005647
# 5 -0.015595 0.001362 -0.014907 0.000002 0.060888 0.000002
# 6 -0.000001 -0.000001 0.000000 0.005647 0.000002 0.035481
#
#
# Mechanical properties :
#
#
# Convention : Reuss Voigt Hill
#
# Bulk Modulus (GPa) = 22.56047 37.21588 29.88818
# Shear Modulus (GPa) = 19.42706 24.86921 22.14814
#
# Velocity S-wave (km/s) = 3.22350 3.64716 3.44185
# Velocity P-wave (km/s) = 5.09131 6.13525 5.63750
#
# Compressibility (1/GPa) = 0.04432532
#
# Stress axis : x y z
#
# Youngs Moduli (GPa) = 42.31919 92.83920 49.07032
#
# Poissons Ratio (x) = 0.45618 -0.12005
# Poissons Ratio (y) = 0.20794 0.13545
# Poissons Ratio (z) = -0.10354 0.25627
#
# Static dielectric constant tensor:
#      x y z
#    x 1.698800 0.000000 0.015270 
#    y 0.000000 1.676590 0.000000 
#    z 0.015270 0.000000 1.644570 
# 
# From -- ./inp_files/280960.got.cif
#   From: 2010.05.17/outbox.cif.g08.bks.cpg/sg15_141_cif.got.tgz:280960.got - 2010.06.03 18:47:42.
