data_PCOD9268789
_publ_section_title
;
Structure prediction by ZEFSAII (Michael W. Deem and Ramdas Pophale) SiO2 
 PCOD9268789
Probable space group: C 2/C
;
_chemical_formula_sum "Si O2"
_cell_formula_units_Z 56
_cell_length_a 22.919949
_cell_length_b 20.746310
_cell_length_c 11.666559
_cell_angle_alpha 90.000000
_cell_angle_beta 31.328041
_cell_angle_gamma 90.000000
_cell_volume 2884.351647
_symmetry_space_group_name_H-M "C 2/C"
_symmetry_group_IT_number 15
_symmetry_cell_setting 'monoclinic'
loop_
_space_group_symop_operation_xyz
x,y,z
-x,y,1/2-z
-x,-y,-z
x,-y,1/2+z
1/2+x,1/2+y,z
1/2-x,1/2+y,1/2-z
1/2-x,1/2-y,-z
1/2+x,1/2-y,1/2+z
loop_
_atom_site_type_symbol
_atom_site_label
_atom_site_fract_x
_atom_site_fract_y
_atom_site_fract_z
Si Si1 0.180677 0.440673 0.983291
Si Si2 0.462638 0.898752 0.488345
Si Si3 0.887487 0.424366 0.862942
Si Si4 0.299047 0.733096 0.608180
Si Si5 0.124726 0.277411 0.593033
Si Si6 0.968291 0.754333 0.017483
Si Si7 0.698488 0.332529 0.618930
O O1 0.287457 0.403272 0.853875
O O2 0.135724 0.411641 0.938913
O O3 0.190904 0.517669 0.964243
O O4 0.076483 0.426377 0.243962
O O5 0.426164 0.931381 0.667216
O O6 0.482998 0.823012 0.480536
O O7 0.839628 0.352102 0.951797
O O8 0.000000 0.427908 0.750000
O O9 0.408699 0.724993 0.500120
O O10 0.279030 0.673755 0.554992
O O11 0.294051 0.792032 0.526937
O O12 0.205435 0.749055 0.859904
O O13 0.111775 0.240904 0.735784
O O14 0.000000 0.278478 0.750000
O O15 0.081347 0.795861 0.840650
#
# Coordination Sequence:
#
# PCOD9268789 Si02
#       7
#     8   8   8   8   8   8   8
#     4  11  21  33  52  79 115 151 180 226 287 342
#     4  10  20  33  52  80 112 148 181 228 287 345
#     4  10  21  33  54  81 112 147 190 232 288 343
#     4  11  21  36  56  83 113 151 188 236 289 337
#     4  10  21  36  56  83 116 150 187 238 285 344
#     4  11  21  38  56  81 118 151 190 231 286 346
#     4  11  23  33  55  84 116 153 188 231 287 349
#
# _framework density 19.415109000000001
#
# number of rings (size 3 to 8) (size 9 to 14) (size 15 to 20)
#    0.000    1.429    4.286    3.000    6.000    0.000 
#    0.000    0.000    0.000    0.857    0.000    0.000 
#    0.000    0.000    0.000    0.571    0.000    0.000 
#
# Total GULP energy -156234.683144 kJ/mol
# GULP energy per Si atom -5579.810112 kJ/mol
# Density = 1.937092 g / cm^3
# Si number density = 19.415109 Si / 1000 Ang^3
#
#
#
# Elastic Constant Matrix: (Units=GPa)
#
#
# Indices 1 2 3 4 5 6 
#
# 1 132.4250 42.1833 34.3344 0.0000 13.8660 0.0000
# 2 42.1833 57.8912 8.6642 0.0001 -4.1780 0.0000
# 3 34.3344 8.6642 67.6108 0.0001 16.3982 -0.0001
# 4 0.0000 0.0001 0.0001 6.3917 -0.0001 6.1637
# 5 13.8660 -4.1780 16.3982 -0.0001 30.9223 0.0000
# 6 0.0000 0.0000 -0.0001 6.1637 0.0000 -2.5091
#
#
#
# Elastic Compliance Matrix: (Units=1/GPa)
#
#
# Indices 1 2 3 4 5 6 
#
# 1 0.011594 -0.008190 -0.003797 0.000000 -0.004292 0.000000
# 2 -0.008190 0.023862 -0.000656 0.000000 0.007244 0.000000
# 3 -0.003797 -0.000656 0.018834 0.000000 -0.008374 -0.000001
# 4 0.000000 0.000000 0.000000 0.046440 0.000000 0.114083
# 5 -0.004292 0.007244 -0.008374 0.000000 0.039683 0.000001
# 6 0.000000 0.000000 -0.000001 0.114083 0.000001 -0.118304
#
#
# Mechanical properties :
#
#
# Convention : Reuss Voigt Hill
#
# Bulk Modulus (GPa) = 34.47775 47.58786 41.03280
# Shear Modulus (GPa) = 87.62136 18.47732 53.04934
#
# Velocity S-wave (km/s) = 6.72521 3.08831 5.23288
# Velocity P-wave (km/s) = 8.83750 6.10580 7.59547
#
# Compressibility (1/GPa) = 0.02900421
#
# Stress axis : x y z
#
# Youngs Moduli (GPa) = 86.25024 41.90707 53.09573
#
# Poissons Ratio (x) = 0.34320 0.20163
# Poissons Ratio (y) = 0.70636 0.03483
# Poissons Ratio (z) = 0.32753 0.02749
#
# Static dielectric constant tensor:
#      x y z
#    x 1.714130 0.000000 0.001840 
#    y 0.000000 1.730540 0.000000 
#    z 0.001840 0.000000 1.702330 
# 
# From -- ./inp_files/119809.got.cif
#   From: 2010.05.17/outbox.cif.g08.bks.cpg/sg15_60_cif.got.tgz:119809.got - 2010.06.03 18:47:42.
