data_PCOD9268407
_publ_section_title
;
Structure prediction by ZEFSAII (Michael W. Deem and Ramdas Pophale) SiO2 
 PCOD9268407
Probable space group: C 2/C
;
_chemical_formula_sum "Si O2"
_cell_formula_units_Z 32
_cell_length_a 26.577201
_cell_length_b 15.624290
_cell_length_c 5.018397
_cell_angle_alpha 90.000000
_cell_angle_beta 106.003777
_cell_angle_gamma 90.000000
_cell_volume 2003.124643
_symmetry_space_group_name_H-M "C 2/C"
_symmetry_group_IT_number 15
_symmetry_cell_setting 'monoclinic'
loop_
_space_group_symop_operation_xyz
x,y,z
-x,y,1/2-z
-x,-y,-z
x,-y,1/2+z
1/2+x,1/2+y,z
1/2-x,1/2+y,1/2-z
1/2-x,1/2-y,-z
1/2+x,1/2-y,1/2+z
loop_
_atom_site_type_symbol
_atom_site_label
_atom_site_fract_x
_atom_site_fract_y
_atom_site_fract_z
Si Si1 0.842677 0.677224 0.482876
Si Si2 0.744816 0.442976 0.781444
Si Si3 0.060020 0.559085 0.872383
Si Si4 0.306267 0.274810 0.957106
O O1 0.801138 0.603700 0.335512
O O2 0.897796 0.632378 0.613880
O O3 0.845095 0.747074 0.249859
O O4 0.819352 0.720375 0.713889
O O5 0.740983 0.522102 0.574369
O O6 0.701192 0.627222 0.141629
O O7 0.067572 0.481897 0.673939
O O8 0.000000 0.588380 0.750000
O O9 0.250000 0.250000 0.000000
#
# Coordination Sequence:
#
# PCOD9268407 Si02
#       4
#     8   8   8   8
#     4  11  19  32  48  66  95 130 158 185 234 279
#     4  11  19  29  45  66  92 122 156 187 224 274
#     4  10  20  33  49  72  99 126 161 199 229 268
#     4  10  20  32  45  66  94 124 158 195 229 275
#
# _framework density 15.975042999999999
#
# number of rings (size 3 to 8) (size 9 to 14) (size 15 to 20)
#    0.000    1.500    0.000   10.500    0.000    0.000 
#    0.000    0.000    0.000    0.000    0.000    0.000 
#    0.000   20.000    0.000    0.000    0.000    0.000 
#
# Total GULP energy -89278.804780 kJ/mol
# GULP energy per Si atom -5579.925299 kJ/mol
# Density = 1.593868 g / cm^3
# Si number density = 15.975043 Si / 1000 Ang^3
#
#
#
# Elastic Constant Matrix: (Units=GPa)
#
#
# Indices 1 2 3 4 5 6 
#
# 1 64.8674 40.6749 18.7151 0.0000 7.8076 0.0000
# 2 40.6749 57.0593 11.7331 0.0000 5.7973 0.0000
# 3 18.7151 11.7331 67.0434 0.0000 -7.1859 0.0000
# 4 0.0000 0.0000 0.0000 32.9776 0.0000 -9.4083
# 5 7.8076 5.7973 -7.1859 0.0000 17.1659 0.0000
# 6 0.0000 0.0000 0.0000 -9.4083 0.0000 25.2138
#
#
#
# Elastic Compliance Matrix: (Units=1/GPa)
#
#
# Indices 1 2 3 4 5 6 
#
# 1 0.030685 -0.019589 -0.006203 0.000000 -0.009937 0.000000
# 2 -0.019589 0.031747 -0.000295 0.000000 -0.001936 0.000000
# 3 -0.006203 -0.000295 0.017811 0.000000 0.010377 0.000000
# 4 0.000000 0.000000 0.000000 0.033936 0.000000 0.012663
# 5 -0.009937 -0.001936 0.010377 0.000000 0.067772 0.000000
# 6 0.000000 0.000000 0.000000 0.012663 0.000000 0.044386
#
#
# Mechanical properties :
#
#
# Convention : Reuss Voigt Hill
#
# Bulk Modulus (GPa) = 35.62560 36.80179 36.21370
# Shear Modulus (GPa) = 17.36917 22.92794 20.14856
#
# Velocity S-wave (km/s) = 3.30095 3.79256 3.55526
# Velocity P-wave (km/s) = 6.07269 6.50116 6.29058
#
# Compressibility (1/GPa) = 0.02806970
#
# Stress axis : x y z
#
# Youngs Moduli (GPa) = 32.58961 31.49925 56.14498
#
# Poissons Ratio (x) = 0.61703 0.34824
# Poissons Ratio (y) = 0.63838 0.01658
# Poissons Ratio (z) = 0.20214 0.00930
#
# Static dielectric constant tensor:
#      x y z
#    x 1.519400 0.000000 0.003750 
#    y 0.000000 1.542730 0.000000 
#    z 0.003750 0.000000 1.562890 
# 
# From -- ./inp_files/14832.got.cif
#   From: 2010.05.17/outbox.cif.g08.bks.cpg/sg15_8_cif.got.tgz:14832.got - 2010.06.03 18:47:42.
