data_PCOD9268563
_publ_section_title
;
Structure prediction by ZEFSAII (Michael W. Deem and Ramdas Pophale) SiO2 
 PCOD9268563
Probable space group: C 2/C
;
_chemical_formula_sum "Si O2"
_cell_formula_units_Z 40
_cell_length_a 16.081626
_cell_length_b 7.072547
_cell_length_c 13.862717
_cell_angle_alpha 90.000000
_cell_angle_beta 77.041918
_cell_angle_gamma 90.000000
_cell_volume 1536.566365
_symmetry_space_group_name_H-M "C 2/C"
_symmetry_group_IT_number 15
_symmetry_cell_setting 'monoclinic'
loop_
_space_group_symop_operation_xyz
x,y,z
-x,y,1/2-z
-x,-y,-z
x,-y,1/2+z
1/2+x,1/2+y,z
1/2-x,1/2+y,1/2-z
1/2-x,1/2-y,-z
1/2+x,1/2-y,1/2+z
loop_
_atom_site_type_symbol
_atom_site_label
_atom_site_fract_x
_atom_site_fract_y
_atom_site_fract_z
Si Si1 0.643403 0.795857 0.975754
Si Si2 0.650049 0.470951 0.769341
Si Si3 0.299886 0.861209 0.339972
Si Si4 0.987763 0.731694 0.141797
Si Si5 0.334305 0.368645 0.446130
O O1 0.651266 0.904757 0.074490
O O2 0.645690 0.572690 0.007854
O O3 0.730989 0.797815 0.892908
O O4 0.573668 0.867713 0.919385
O O5 0.639161 0.251183 0.747647
O O6 0.736852 0.489318 0.808993
O O7 0.565257 0.568835 0.833149
O O8 0.665742 0.593161 0.668713
O O9 0.000000 0.662082 0.250000
O O10 0.076364 0.762728 0.065716
O O11 0.250000 0.250000 0.500000
#
# Coordination Sequence:
#
# PCOD9268563 Si02
#       5
#     8   8   8   8   8
#     4   9  18  34  55  82 116 152 189 241 294 346
#     4   9  19  33  56  85 110 155 194 237 287 349
#     4   9  18  33  56  85 113 151 193 238 293 347
#     4   9  18  34  55  87 114 151 199 245 279 343
#     4  10  20  32  55  89 112 148 196 244 293 345
#
# _framework density 26.032067999999999
#
# number of rings (size 3 to 8) (size 9 to 14) (size 15 to 20)
#    0.000    2.800    0.000    0.600    5.600    0.000 
#    0.000    0.000    0.000   30.000    0.000    0.000 
#    0.000    0.000    0.000    0.000    0.000    0.000 
#
# Total GULP energy -111512.559668 kJ/mol
# GULP energy per Si atom -5575.627983 kJ/mol
# Density = 2.597282 g / cm^3
# Si number density = 26.032068 Si / 1000 Ang^3
#
#
#
# Elastic Constant Matrix: (Units=GPa)
#
#
# Indices 1 2 3 4 5 6 
#
# 1 153.9376 34.9610 59.1485 0.0000 28.4717 0.0000
# 2 34.9610 73.5503 21.2950 0.0000 -9.8851 0.0000
# 3 59.1485 21.2950 84.3633 0.0000 19.5609 0.0000
# 4 0.0000 0.0000 0.0000 28.3571 0.0000 -1.2095
# 5 28.4717 -9.8851 19.5609 0.0000 76.0816 0.0000
# 6 0.0000 0.0000 0.0000 -1.2095 0.0000 14.0569
#
#
#
# Elastic Compliance Matrix: (Units=1/GPa)
#
#
# Indices 1 2 3 4 5 6 
#
# 1 0.009878 -0.003503 -0.005401 0.000000 -0.002763 0.000000
# 2 -0.003503 0.016602 -0.002700 0.000000 0.004162 0.000000
# 3 -0.005401 -0.002700 0.016944 0.000000 -0.002686 0.000000
# 4 0.000000 0.000000 0.000000 0.035394 0.000000 0.003045
# 5 -0.002763 0.004162 -0.002686 0.000000 0.015409 0.000000
# 6 0.000000 0.000000 0.000000 0.003045 0.000000 0.071401
#
#
# Mechanical properties :
#
#
# Convention : Reuss Voigt Hill
#
# Bulk Modulus (GPa) = 49.46192 60.29559 54.87875
# Shear Modulus (GPa) = 25.56556 36.79557 31.18057
#
# Velocity S-wave (km/s) = 3.13721 3.76369 3.46464
# Velocity P-wave (km/s) = 5.67137 6.48841 6.09360
#
# Compressibility (1/GPa) = 0.02021758
#
# Stress axis : x y z
#
# Youngs Moduli (GPa) = 101.23599 60.23264 59.01695
#
# Poissons Ratio (x) = 0.21100 0.31873
# Poissons Ratio (y) = 0.35463 0.15933
# Poissons Ratio (z) = 0.54674 0.16262
#
# Static dielectric constant tensor:
#      x y z
#    x 2.084740 0.000000 0.044800 
#    y 0.000000 2.134670 0.000000 
#    z 0.044800 0.000000 2.151550 
# 
# From -- ./inp_files/150584.got.cif
#   From: 2010.05.17/outbox.cif.g08.bks.cpg/sg15_76_cif.got.tgz:150584.got - 2010.06.03 18:47:42.
