data_PCOD9268166
_publ_section_title
;
Structure prediction by ZEFSAII (Michael W. Deem and Ramdas Pophale) SiO2 
 PCOD9268166
Probable space group: C 2/C
;
_chemical_formula_sum "Si O2"
_cell_formula_units_Z 48
_cell_length_a 19.004767
_cell_length_b 7.894829
_cell_length_c 19.770618
_cell_angle_alpha 90.000000
_cell_angle_beta 136.866560
_cell_angle_gamma 90.000000
_cell_volume 2028.107541
_symmetry_space_group_name_H-M "C 2/C"
_symmetry_group_IT_number 15
_symmetry_cell_setting 'monoclinic'
loop_
_space_group_symop_operation_xyz
x,y,z
-x,y,1/2-z
-x,-y,-z
x,-y,1/2+z
1/2+x,1/2+y,z
1/2-x,1/2+y,1/2-z
1/2-x,1/2-y,-z
1/2+x,1/2-y,1/2+z
loop_
_atom_site_type_symbol
_atom_site_label
_atom_site_fract_x
_atom_site_fract_y
_atom_site_fract_z
Si Si1 0.510959 0.190259 0.372483
Si Si2 0.684132 0.159335 0.674122
Si Si3 0.692330 0.959183 0.809794
Si Si4 0.308032 0.572135 0.528385
Si Si5 0.966751 0.805484 0.485462
Si Si6 0.180837 0.576028 0.048559
O O1 0.424266 0.110607 0.263197
O O2 0.721640 0.557914 0.432806
O O3 0.448647 0.239089 0.396872
O O4 0.594500 0.048326 0.453435
O O5 0.745265 0.314750 0.686009
O O6 0.565299 0.203137 0.580197
O O7 0.696839 0.114603 0.761050
O O8 0.709730 0.006560 0.640883
O O9 0.750927 0.986378 0.920454
O O10 0.250000 0.750000 0.500000
O O11 0.425437 0.640268 0.603989
O O12 0.877791 0.748759 0.474223
O O13 0.000000 0.000000 0.500000
#
# Coordination Sequence:
#
# PCOD9268166 Si02
#       6
#     8   8   8   8   8   8
#     4  10  20  38  64  96 137 184 236 294 365 453
#     4  11  23  39  63 100 132 175 250 305 363 451
#     4  12  22  38  69 102 139 191 245 305 368 455
#     4  10  21  39  65 103 141 184 243 296 378 458
#     4  11  21  40  67  95 133 188 237 302 380 437
#     4  10  19  43  63  95 137 175 238 307 358 450
#
# _framework density 23.667383000000001
#
# number of rings (size 3 to 8) (size 9 to 14) (size 15 to 20)
#    0.000    1.333    8.333    1.000    2.333    2.667 
#    0.000    0.833    0.000    0.000    0.000    0.000 
#    0.000    0.000    0.000    0.000    0.000    0.000 
#
# Total GULP energy -134113.517214 kJ/mol
# GULP energy per Si atom -5588.063217 kJ/mol
# Density = 2.361352 g / cm^3
# Si number density = 23.667383 Si / 1000 Ang^3
#
#
#
# Elastic Constant Matrix: (Units=GPa)
#
#
# Indices 1 2 3 4 5 6 
#
# 1 158.1609 48.1865 52.3207 0.0000 -7.5700 0.0000
# 2 48.1865 72.6573 13.2301 0.0000 -17.9625 0.0000
# 3 52.3207 13.2301 51.7561 0.0000 -11.4611 0.0000
# 4 0.0000 0.0000 0.0000 19.2244 0.0000 -1.1971
# 5 -7.5700 -17.9625 -11.4611 0.0000 27.5915 0.0000
# 6 0.0000 0.0000 0.0000 -1.1971 0.0000 58.8690
#
#
#
# Elastic Compliance Matrix: (Units=1/GPa)
#
#
# Indices 1 2 3 4 5 6 
#
# 1 0.012250 -0.007567 -0.011890 0.000000 -0.006504 0.000000
# 2 -0.007567 0.021271 0.005307 0.000000 0.013976 0.000000
# 3 -0.011890 0.005307 0.033069 0.000000 0.013929 0.000000
# 4 0.000000 0.000000 0.000000 0.052083 0.000000 0.001059
# 5 -0.006504 0.013976 0.013929 0.000000 0.049343 0.000000
# 6 0.000000 0.000000 0.000000 0.001059 0.000000 0.017008
#
#
# Mechanical properties :
#
#
# Convention : Reuss Voigt Hill
#
# Bulk Modulus (GPa) = 26.11629 56.67210 41.39420
# Shear Modulus (GPa) = 22.11546 32.39278 27.25412
#
# Velocity S-wave (km/s) = 3.06016 3.70356 3.39713
# Velocity P-wave (km/s) = 4.85229 6.50275 5.73718
#
# Compressibility (1/GPa) = 0.03829028
#
# Stress axis : x y z
#
# Youngs Moduli (GPa) = 81.63253 47.01327 30.24021
#
# Poissons Ratio (x) = 0.35576 0.35954
# Poissons Ratio (y) = 0.61773 -0.16050
# Poissons Ratio (z) = 0.97058 -0.24952
#
# Static dielectric constant tensor:
#      x y z
#    x 1.969990 0.000000 0.009530 
#    y 0.000000 1.973030 0.000000 
#    z 0.009530 0.000000 1.938580 
# 
# From -- ./inp_files/254918.got.cif
#   From: 2010.05.17/outbox.cif.g08.bks.cpg/sg15_128_cif.got.tgz:254918.got - 2010.06.03 18:47:42.
