data_PCOD9268882
_publ_section_title
;
Structure prediction by ZEFSAII (Michael W. Deem and Ramdas Pophale) SiO2 
 PCOD9268882
Probable space group: C 2/C
;
_chemical_formula_sum "Si O2"
_cell_formula_units_Z 48
_cell_length_a 22.226749
_cell_length_b 10.998310
_cell_length_c 17.926965
_cell_angle_alpha 90.000000
_cell_angle_beta 145.027799
_cell_angle_gamma 90.000000
_cell_volume 2511.880007
_symmetry_space_group_name_H-M "C 2/C"
_symmetry_group_IT_number 15
_symmetry_cell_setting 'monoclinic'
loop_
_space_group_symop_operation_xyz
x,y,z
-x,y,1/2-z
-x,-y,-z
x,-y,1/2+z
1/2+x,1/2+y,z
1/2-x,1/2+y,1/2-z
1/2-x,1/2-y,-z
1/2+x,1/2-y,1/2+z
loop_
_atom_site_type_symbol
_atom_site_label
_atom_site_fract_x
_atom_site_fract_y
_atom_site_fract_z
Si Si1 0.529057 0.117408 0.575340
Si Si2 0.430651 0.444597 0.334680
Si Si3 0.621372 0.607062 0.348516
Si Si4 0.621561 0.646296 0.096270
Si Si5 0.828827 0.750046 0.340206
Si Si6 0.708664 0.149562 0.856715
O O1 0.586061 0.216697 0.579989
O O2 0.419462 0.183958 0.479278
O O3 0.601175 0.087263 0.719533
O O4 0.500000 0.000000 0.500000
O O5 0.386744 0.487767 0.211491
O O6 0.414803 0.562249 0.371595
O O7 0.553401 0.406815 0.459337
O O8 0.373417 0.334991 0.319963
O O9 0.500000 0.632834 0.250000
O O10 0.666780 0.721524 0.347204
O O11 0.708095 0.593343 0.501501
O O12 0.746656 0.653689 0.222256
O O13 0.771399 0.830151 0.343828
#
# Coordination Sequence:
#
# PCOD9268882 Si02
#       6
#     8   8   8   8   8   8
#     4  10  20  33  54  88 118 146 190 241 295 341
#     4  10  20  37  59  89 117 152 199 241 290 353
#     4  11  22  37  59  85 124 155 191 241 301 360
#     4   9  20  34  58  87 112 148 199 239 292 334
#     4  10  20  35  61  87 118 148 196 253 288 343
#     4  10  22  36  54  90 117 151 192 245 305 341
#
# _framework density 19.109193000000001
#
# number of rings (size 3 to 8) (size 9 to 14) (size 15 to 20)
#    0.000    2.000    3.333    1.000    9.333    0.000 
#    0.000    0.000    0.000    9.000    0.000    0.000 
#    0.000    0.000    0.000    0.000    0.000    0.000 
#
# Total GULP energy -133663.418476 kJ/mol
# GULP energy per Si atom -5569.309103 kJ/mol
# Density = 1.906570 g / cm^3
# Si number density = 19.109193 Si / 1000 Ang^3
#
#
#
# Elastic Constant Matrix: (Units=GPa)
#
#
# Indices 1 2 3 4 5 6 
#
# 1 40.6777 3.4759 39.1816 0.0000 5.0235 0.0000
# 2 3.4759 48.3759 52.9484 0.0000 -6.6589 0.0000
# 3 39.1816 52.9484 226.7701 0.0000 -7.3269 0.0000
# 4 0.0000 0.0000 0.0000 38.4565 0.0000 0.1585
# 5 5.0235 -6.6589 -7.3269 0.0000 24.7114 0.0000
# 6 0.0000 0.0000 0.0000 0.1585 0.0000 20.7626
#
#
#
# Elastic Compliance Matrix: (Units=1/GPa)
#
#
# Indices 1 2 3 4 5 6 
#
# 1 0.031508 0.003960 -0.006604 0.000000 -0.007296 0.000000
# 2 0.003960 0.029059 -0.007312 0.000000 0.004857 0.000000
# 3 -0.006604 -0.007312 0.007308 0.000000 0.001539 0.000000
# 4 0.000000 0.000000 0.000000 0.026004 0.000000 -0.000199
# 5 -0.007296 0.004857 0.001539 0.000000 0.043716 0.000000
# 6 0.000000 0.000000 0.000000 -0.000199 0.000000 0.048165
#
#
# Mechanical properties :
#
#
# Convention : Reuss Voigt Hill
#
# Bulk Modulus (GPa) = 20.84982 56.33726 38.59354
# Shear Modulus (GPa) = 22.55717 31.46728 27.01223
#
# Velocity S-wave (km/s) = 3.43947 4.06237 3.76383
# Velocity P-wave (km/s) = 5.16797 7.17980 6.25529
#
# Compressibility (1/GPa) = 0.04796204
#
# Stress axis : x y z
#
# Youngs Moduli (GPa) = 31.73842 34.41275 136.83755
#
# Poissons Ratio (x) = -0.13629 0.90373
# Poissons Ratio (y) = -0.12570 1.00060
# Poissons Ratio (z) = 0.20961 0.25164
#
# Static dielectric constant tensor:
#      x y z
#    x 1.635000 0.000000 0.019370 
#    y 0.000000 1.888700 0.000000 
#    z 0.019370 0.000000 1.749250 
# 
# From -- ./inp_files/172674.got.cif
#   From: 2010.05.17/outbox.cif.g08.bks.cpg/sg15_87_cif.got.tgz:172674.got - 2010.06.03 18:47:42.
