data_PCOD9268066
_publ_section_title
;
Structure prediction by ZEFSAII (Michael W. Deem and Ramdas Pophale) SiO2 
 PCOD9268066
Probable space group: C 2/C
;
_chemical_formula_sum "Si O2"
_cell_formula_units_Z 56
_cell_length_a 31.040574
_cell_length_b 10.359872
_cell_length_c 22.823979
_cell_angle_alpha 90.000000
_cell_angle_beta 20.790190
_cell_angle_gamma 90.000000
_cell_volume 2605.186860
_symmetry_space_group_name_H-M "C 2/C"
_symmetry_group_IT_number 15
_symmetry_cell_setting 'monoclinic'
loop_
_space_group_symop_operation_xyz
x,y,z
-x,y,1/2-z
-x,-y,-z
x,-y,1/2+z
1/2+x,1/2+y,z
1/2-x,1/2+y,1/2-z
1/2-x,1/2-y,-z
1/2+x,1/2-y,1/2+z
loop_
_atom_site_type_symbol
_atom_site_label
_atom_site_fract_x
_atom_site_fract_y
_atom_site_fract_z
Si Si1 0.897893 0.716843 0.475366
Si Si2 0.000000 0.291053 0.250000
Si Si3 0.729963 0.789639 0.119273
Si Si4 0.401264 0.002776 0.787057
Si Si5 0.390699 0.681758 0.114981
Si Si6 0.000000 0.908510 0.250000
Si Si7 0.862131 0.905086 0.200618
Si Si8 0.656310 0.478290 0.654286
O O1 0.879094 0.777925 0.563118
O O2 0.771978 0.646275 0.623652
O O3 0.010567 0.616520 0.336572
O O4 0.922135 0.816118 0.391797
O O5 0.874727 0.218476 0.425363
O O6 0.975287 0.386953 0.227085
O O7 0.667046 0.922230 0.178795
O O8 0.692687 0.757811 0.233062
O O9 0.677378 0.671108 0.145858
O O10 0.289596 0.964869 0.971228
O O11 0.361872 0.530745 0.160250
O O12 0.533039 0.692811 0.952242
O O13 0.075789 0.991379 0.200450
O O14 0.898539 0.953769 0.219182
#
# Coordination Sequence:
#
# PCOD9268066 Si02
#       8
#     8   4   8   8   8   4   8   8
#     4  12  25  41  68  99 135 181 227 287 337 410
#     4  10  19  41  70  98 132 181 227 274 356 396
#     4  10  23  42  70  98 137 178 223 286 334 414
#     4  11  23  39  65 101 135 175 226 285 341 393
#     4  10  23  44  65  95 132 185 220 273 342 406
#     4  12  25  41  68 102 130 179 237 286 340 400
#     4  10  22  44  67  89 136 181 226 268 346 407
#     4  10  21  41  67  98 131 175 227 283 334 403
#
# _framework density 21.495578999999999
#
# number of rings (size 3 to 8) (size 9 to 14) (size 15 to 20)
#    0.000    1.429    1.429    5.571    2.000    6.286 
#    2.571    1.429    0.000    0.000    0.000    0.000 
#    0.000    0.000    0.000    0.000    0.000    0.000 
#
# Total GULP energy -156465.273051 kJ/mol
# GULP energy per Si atom -5588.045466 kJ/mol
# Density = 2.144665 g / cm^3
# Si number density = 21.495579 Si / 1000 Ang^3
#
#
#
# Elastic Constant Matrix: (Units=GPa)
#
#
# Indices 1 2 3 4 5 6 
#
# 1 128.6763 51.1459 44.4810 0.0000 23.0210 0.0000
# 2 51.1459 48.4988 43.5585 -0.0001 9.0659 0.0000
# 3 44.4810 43.5585 113.4129 0.0000 14.8633 0.0000
# 4 0.0000 -0.0001 0.0000 3.8388 0.0000 15.3858
# 5 23.0210 9.0659 14.8633 0.0000 40.5679 0.0000
# 6 0.0000 0.0000 0.0000 15.3858 0.0000 14.3858
#
#
#
# Elastic Compliance Matrix: (Units=1/GPa)
#
#
# Indices 1 2 3 4 5 6 
#
# 1 0.014310 -0.014805 0.000740 0.000000 -0.005083 0.000000
# 2 -0.014805 0.047087 -0.012605 -0.000001 0.002497 0.000001
# 3 0.000740 -0.012605 0.013713 0.000000 -0.002627 0.000000
# 4 0.000000 -0.000001 0.000000 -0.079261 0.000000 0.084771
# 5 -0.005083 0.002497 -0.002627 0.000000 0.027939 0.000000
# 6 0.000000 0.000001 0.000000 0.084771 0.000000 -0.021151
#
#
# Mechanical properties :
#
#
# Convention : Reuss Voigt Hill
#
# Bulk Modulus (GPa) = 45.93825 63.21766 54.57795
# Shear Modulus (GPa) = 79.07215 21.85200 50.46207
#
# Velocity S-wave (km/s) = 6.07167 3.19185 4.85041
# Velocity P-wave (km/s) = 8.40065 6.56181 7.53752
#
# Compressibility (1/GPa) = 0.02176835
#
# Stress axis : x y z
#
# Youngs Moduli (GPa) = 69.88245 21.23730 72.92529
#
# Poissons Ratio (x) = 0.31443 -0.05397
# Poissons Ratio (y) = 1.03463 0.91924
# Poissons Ratio (z) = -0.05172 0.26770
#
# Static dielectric constant tensor:
#      x y z
#    x 1.788010 0.000000 -0.023730 
#    y 0.000000 1.800500 0.000000 
#    z -0.023730 0.000000 1.783450 
# 
# From -- ./inp_files/284622.got.cif
#   From: 2010.05.17/outbox.cif.g08.bks.cpg/sg15_143_cif.got.tgz:284622.got - 2010.06.03 18:47:42.
