data_PCOD9268826
_publ_section_title
;
Structure prediction by ZEFSAII (Michael W. Deem and Ramdas Pophale) SiO2 
 PCOD9268826
Probable space group: C 2/C
;
_chemical_formula_sum "Si O2"
_cell_formula_units_Z 56
_cell_length_a 18.123126
_cell_length_b 21.537932
_cell_length_c 14.122819
_cell_angle_alpha 90.000000
_cell_angle_beta 31.978519
_cell_angle_gamma 90.000000
_cell_volume 2919.493630
_symmetry_space_group_name_H-M "C 2/C"
_symmetry_group_IT_number 15
_symmetry_cell_setting 'monoclinic'
loop_
_space_group_symop_operation_xyz
x,y,z
-x,y,1/2-z
-x,-y,-z
x,-y,1/2+z
1/2+x,1/2+y,z
1/2-x,1/2+y,1/2-z
1/2-x,1/2-y,-z
1/2+x,1/2-y,1/2+z
loop_
_atom_site_type_symbol
_atom_site_label
_atom_site_fract_x
_atom_site_fract_y
_atom_site_fract_z
Si Si1 0.997821 0.577556 0.866446
Si Si2 0.478381 0.599945 0.025460
Si Si3 0.386317 0.270528 0.673506
Si Si4 0.892203 0.703995 0.954390
Si Si5 0.702824 0.134760 0.783980
Si Si6 0.388582 0.048696 0.453456
Si Si7 0.078062 0.995174 0.263559
O O1 0.140602 0.599563 0.759259
O O2 0.000000 0.572387 0.750000
O O3 0.899290 0.636014 0.994157
O O4 0.942579 0.510640 0.955003
O O5 0.400319 0.665758 0.100378
O O6 0.418167 0.556634 0.174791
O O7 0.635928 0.617996 0.882832
O O8 0.493415 0.556770 0.916399
O O9 0.534648 0.253470 0.556869
O O10 0.334211 0.207458 0.680772
O O11 0.269372 0.281720 0.881894
O O12 0.000000 0.701637 0.750000
O O13 0.629748 0.105148 0.955073
O O14 0.500000 0.061685 0.250000
O O15 0.236504 0.029189 0.578894
O O16 0.000000 0.006638 0.250000
#
# Coordination Sequence:
#
# PCOD9268826 Si02
#       7
#     8   8   8   8   8   8   8
#     4   9  19  33  56  87 117 148 193 243 295 357
#     4  10  22  41  64  88 123 161 202 246 303 363
#     4  11  20  38  56  85 116 161 196 245 291 360
#     4  10  20  33  53  81 118 151 197 236 296 355
#     4  10  21  38  60  87 121 161 200 245 299 355
#     4  10  21  39  61  89 118 153 202 255 299 354
#     4  10  23  42  64  92 120 156 203 251 307 359
#
# _framework density 19.181408000000001
#
# number of rings (size 3 to 8) (size 9 to 14) (size 15 to 20)
#    0.000    2.000    1.429    1.714    4.000    0.571 
#   10.286    0.714    0.000    3.429    0.000    0.000 
#    0.000    0.000    0.000    0.000    0.000    0.000 
#
# Total GULP energy -156022.193412 kJ/mol
# GULP energy per Si atom -5572.221193 kJ/mol
# Density = 1.913775 g / cm^3
# Si number density = 19.181408 Si / 1000 Ang^3
#
#
#
# Elastic Constant Matrix: (Units=GPa)
#
#
# Indices 1 2 3 4 5 6 
#
# 1 52.1180 6.4296 25.1493 0.0020 2.1963 -0.0056
# 2 6.4296 106.5373 30.3121 -0.0032 9.1338 0.0079
# 3 25.1493 30.3121 98.7720 0.0052 2.4737 -0.0120
# 4 0.0020 -0.0032 0.0052 50.7114 -0.0032 -76.7660
# 5 2.1963 9.1338 2.4737 -0.0032 18.4716 0.0090
# 6 -0.0056 0.0079 -0.0120 -76.7660 0.0090 228.9332
#
#
#
# Elastic Compliance Matrix: (Units=1/GPa)
#
#
# Indices 1 2 3 4 5 6 
#
# 1 0.021960 0.000470 -0.005684 0.000000 -0.002083 0.000000
# 2 0.000470 0.010714 -0.003285 0.000000 -0.004914 0.000000
# 3 -0.005684 -0.003285 0.012564 -0.000001 0.000617 0.000000
# 4 0.000000 0.000000 -0.000001 0.040048 0.000000 0.013429
# 5 -0.002083 -0.004914 0.000617 0.000000 0.056732 -0.000002
# 6 0.000000 0.000000 0.000000 0.013429 -0.000002 0.008871
#
#
# Mechanical properties :
#
#
# Convention : Reuss Voigt Hill
#
# Bulk Modulus (GPa) = 35.40860 42.35659 38.88260
# Shear Modulus (GPa) = 28.20119 72.65899 50.43009
#
# Velocity S-wave (km/s) = 3.83852 6.16134 5.13305
# Velocity P-wave (km/s) = 6.17621 8.52914 7.44620
#
# Compressibility (1/GPa) = 0.02824173
#
# Stress axis : x y z
#
# Youngs Moduli (GPa) = 45.53831 93.33732 79.59227
#
# Poissons Ratio (x) = -0.04390 0.45236
# Poissons Ratio (y) = -0.02142 0.26143
# Poissons Ratio (z) = 0.25882 0.30658
#
# Static dielectric constant tensor:
#      x y z
#    x 1.671670 0.000000 0.000420 
#    y 0.000000 1.712310 0.000000 
#    z 0.000420 0.000000 1.684570 
# 
# From -- ./inp_files/163771.got.cif
#   From: 2010.05.17/outbox.cif.g08.bks.cpg/sg15_82_cif.got.tgz:163771.got - 2010.06.03 18:47:42.
