data_PCOD9268663
_publ_section_title
;
Structure prediction by ZEFSAII (Michael W. Deem and Ramdas Pophale) SiO2 
 PCOD9268663
Probable space group: C 2/C
;
_chemical_formula_sum "Si O2"
_cell_formula_units_Z 56
_cell_length_a 12.136719
_cell_length_b 17.544799
_cell_length_c 13.366259
_cell_angle_alpha 90.000000
_cell_angle_beta 121.123254
_cell_angle_gamma 90.000000
_cell_volume 2436.477690
_symmetry_space_group_name_H-M "C 2/C"
_symmetry_group_IT_number 15
_symmetry_cell_setting 'monoclinic'
loop_
_space_group_symop_operation_xyz
x,y,z
-x,y,1/2-z
-x,-y,-z
x,-y,1/2+z
1/2+x,1/2+y,z
1/2-x,1/2+y,1/2-z
1/2-x,1/2-y,-z
1/2+x,1/2-y,1/2+z
loop_
_atom_site_type_symbol
_atom_site_label
_atom_site_fract_x
_atom_site_fract_y
_atom_site_fract_z
Si Si1 0.335674 0.748534 0.674295
Si Si2 0.575821 0.573611 0.500071
Si Si3 0.956331 0.223781 0.523664
Si Si4 0.758458 0.606606 0.759130
Si Si5 0.890187 0.415905 0.636629
Si Si6 0.477608 0.875982 0.012842
Si Si7 0.235780 0.012159 0.425635
O O1 0.186876 0.747553 0.569892
O O2 0.434213 0.722266 0.633158
O O3 0.317987 0.684957 0.751558
O O4 0.361452 0.840181 0.689412
O O5 0.500000 0.500000 0.500000
O O6 0.488463 0.645399 0.486412
O O7 0.706658 0.584772 0.626596
O O8 0.615963 0.562402 0.404123
O O9 0.052052 0.287445 0.522690
O O10 0.718395 0.541315 0.821004
O O11 0.911449 0.615869 0.850454
O O12 0.764866 0.457316 0.535371
O O13 0.000000 0.460269 0.750000
O O14 0.955037 0.396986 0.560694
O O15 0.358924 0.932517 0.971442
#
# Coordination Sequence:
#
# PCOD9268663 Si02
#       7
#     8   8   8   8   8   8   8
#     4   9  18  36  62  88 117 157 198 267 314 346
#     4  12  26  39  62  94 126 171 211 255 319 389
#     4   9  19  39  59  86 122 156 211 251 309 377
#     4  10  22  40  64  89 127 162 206 265 319 366
#     4  10  20  32  63  96 117 153 210 261 304 365
#     4   9  21  41  62  89 124 163 207 262 312 367
#     4  11  24  40  60  91 131 167 207 261 314 380
#
# _framework density 22.983998
#
# number of rings (size 3 to 8) (size 9 to 14) (size 15 to 20)
#    0.000    2.000    0.000    6.000    8.000    2.286 
#    0.000    0.000    0.000    1.714    0.000    0.000 
#    0.000    0.000    0.000    0.000    0.000    0.000 
#
# Total GULP energy -156143.659324 kJ/mol
# GULP energy per Si atom -5576.559262 kJ/mol
# Density = 2.293169 g / cm^3
# Si number density = 22.983998 Si / 1000 Ang^3
#
#
#
# Elastic Constant Matrix: (Units=GPa)
#
#
# Indices 1 2 3 4 5 6 
#
# 1 67.7606 40.5234 -8.1273 0.0000 -0.6020 0.0000
# 2 40.5234 120.6966 -14.3607 0.0000 -16.7748 0.0000
# 3 -8.1273 -14.3607 36.2057 0.0000 5.3564 0.0000
# 4 0.0000 0.0000 0.0000 31.0350 0.0000 -2.6021
# 5 -0.6020 -16.7748 5.3564 0.0000 17.2882 0.0000
# 6 0.0000 0.0000 0.0000 -2.6021 0.0000 44.1731
#
#
#
# Elastic Compliance Matrix: (Units=1/GPa)
#
#
# Indices 1 2 3 4 5 6 
#
# 1 0.019275 -0.007150 0.002534 0.000000 -0.007052 0.000000
# 2 -0.007150 0.012457 0.001661 0.000000 0.011324 0.000000
# 3 0.002534 0.001661 0.029970 0.000000 -0.007586 0.000000
# 4 0.000000 0.000000 0.000000 0.032382 0.000000 0.001907
# 5 -0.007052 0.011324 -0.007586 0.000000 0.070935 0.000000
# 6 0.000000 0.000000 0.000000 0.001907 0.000000 0.022751
#
#
# Mechanical properties :
#
#
# Convention : Reuss Voigt Hill
#
# Bulk Modulus (GPa) = 17.92384 28.97039 23.44711
# Shear Modulus (GPa) = 23.55406 32.27444 27.91425
#
# Velocity S-wave (km/s) = 3.20473 3.75135 3.48876
# Velocity P-wave (km/s) = 4.63778 5.60316 5.14317
#
# Compressibility (1/GPa) = 0.05579163
#
# Stress axis : x y z
#
# Youngs Moduli (GPa) = 51.88024 80.27433 33.36689
#
# Poissons Ratio (x) = 0.57397 -0.08455
# Poissons Ratio (y) = 0.37095 -0.05541
# Poissons Ratio (z) = -0.13147 -0.13331
#
# Static dielectric constant tensor:
#      x y z
#    x 1.882740 0.000000 0.072340 
#    y 0.000000 1.967780 0.000000 
#    z 0.072340 0.000000 2.011010 
# 
# From -- ./inp_files/146178.got.cif
#   From: 2010.05.17/outbox.cif.g08.bks.cpg/sg15_74_cif.got.tgz:146178.got - 2010.06.03 18:47:42.
