data_PCOD9268596
_publ_section_title
;
Structure prediction by ZEFSAII (Michael W. Deem and Ramdas Pophale) SiO2 
 PCOD9268596
Probable space group: C 2/C
;
_chemical_formula_sum "Si O2"
_cell_formula_units_Z 44
_cell_length_a 15.755341
_cell_length_b 16.338872
_cell_length_c 18.919391
_cell_angle_alpha 90.000000
_cell_angle_beta 152.014996
_cell_angle_gamma 90.000000
_cell_volume 2285.348708
_symmetry_space_group_name_H-M "C 2/C"
_symmetry_group_IT_number 15
_symmetry_cell_setting 'monoclinic'
loop_
_space_group_symop_operation_xyz
x,y,z
-x,y,1/2-z
-x,-y,-z
x,-y,1/2+z
1/2+x,1/2+y,z
1/2-x,1/2+y,1/2-z
1/2-x,1/2-y,-z
1/2+x,1/2-y,1/2+z
loop_
_atom_site_type_symbol
_atom_site_label
_atom_site_fract_x
_atom_site_fract_y
_atom_site_fract_z
Si Si1 0.176419 0.364003 0.006586
Si Si2 0.551205 0.133164 0.026736
Si Si3 0.500000 0.762422 0.750000
Si Si4 0.738330 0.677652 0.548218
Si Si5 0.633180 0.246533 0.714567
Si Si6 0.711245 0.544026 0.418120
O O1 0.329203 0.297322 0.140833
O O2 0.271297 0.448154 0.053056
O O3 0.051803 0.395427 0.979582
O O4 0.060042 0.319637 0.859792
O O5 0.682860 0.203990 0.152442
O O6 0.672476 0.076147 0.064210
O O7 0.402608 0.176444 0.868125
O O8 0.750000 0.750000 0.500000
O O9 0.527080 0.687420 0.413518
O O10 0.859126 0.701671 0.703690
O O11 0.774023 0.594893 0.532896
O O12 0.500000 0.565041 0.250000
#
# Coordination Sequence:
#
# PCOD9268596 Si02
#       6
#     8   8   4   8   8   8
#     4  11  24  44  66  88 111 157 210 255 304 343
#     4  11  22  36  60  92 126 154 198 250 290 359
#     4  10  24  48  70  80 110 158 212 260 300 354
#     4  11  18  33  56  88 127 166 192 221 291 374
#     4  10  20  32  57  90 123 163 192 230 295 359
#     4  12  22  37  62  89 128 161 194 243 300 360
#
# _framework density 19.253080000000001
#
# number of rings (size 3 to 8) (size 9 to 14) (size 15 to 20)
#    0.000    1.091    6.364    2.182    0.000    1.455 
#    0.000    0.000    0.000    2.182    0.000    0.000 
#    0.000    0.000    0.000    0.000    0.000    0.000 
#
# Total GULP energy -122656.780455 kJ/mol
# GULP energy per Si atom -5575.308202 kJ/mol
# Density = 1.920926 g / cm^3
# Si number density = 19.253080 Si / 1000 Ang^3
#
#
#
# Elastic Constant Matrix: (Units=GPa)
#
#
# Indices 1 2 3 4 5 6 
#
# 1 69.9187 18.1234 19.4398 0.0017 -0.5742 -0.0003
# 2 18.1234 93.4925 26.1630 0.0085 -4.0513 0.0041
# 3 19.4398 26.1630 104.9059 0.0104 -8.9477 0.0050
# 4 0.0017 0.0085 0.0104 23.8577 0.0068 5.2783
# 5 -0.5742 -4.0513 -8.9477 0.0068 15.9760 0.0036
# 6 -0.0003 0.0041 0.0050 5.2783 0.0036 19.0820
#
#
#
# Elastic Compliance Matrix: (Units=1/GPa)
#
#
# Indices 1 2 3 4 5 6 
#
# 1 0.015584 -0.002408 -0.002407 0.000001 -0.001398 0.000001
# 2 -0.002408 0.011899 -0.002385 -0.000003 0.001595 -0.000001
# 3 -0.002407 -0.002385 0.011042 -0.000005 0.005493 -0.000002
# 4 0.000001 -0.000003 -0.000005 0.044648 -0.000020 -0.012350
# 5 -0.001398 0.001595 0.005493 -0.000020 0.066024 -0.000009
# 6 0.000001 -0.000001 -0.000002 -0.012350 -0.000009 0.055822
#
#
# Mechanical properties :
#
#
# Convention : Reuss Voigt Hill
#
# Bulk Modulus (GPa) = 41.45037 43.97438 42.71238
# Shear Modulus (GPa) = 21.98182 25.42254 23.70218
#
# Velocity S-wave (km/s) = 3.38262 3.63773 3.51249
# Velocity P-wave (km/s) = 6.06894 6.36662 6.21956
#
# Compressibility (1/GPa) = 0.02412523
#
# Stress axis : x y z
#
# Youngs Moduli (GPa) = 64.16777 84.03715 90.56572
#
# Poissons Ratio (x) = 0.20237 0.21795
# Poissons Ratio (y) = 0.15452 0.21604
# Poissons Ratio (z) = 0.15442 0.20046
#
# Static dielectric constant tensor:
#      x y z
#    x 1.744460 0.000000 0.059510 
#    y 0.000000 1.644010 0.000000 
#    z 0.059510 0.000000 1.698960 
# 
# From -- ./inp_files/47141.got.cif
#   From: 2010.05.17/outbox.cif.g08.bks.cpg/sg15_24_cif.got.tgz:47141.got - 2010.06.03 18:47:42.
