data_PCOD9268696
_publ_section_title
;
Structure prediction by ZEFSAII (Michael W. Deem and Ramdas Pophale) SiO2 
 PCOD9268696
Probable space group: C 2/C
;
_chemical_formula_sum "Si O2"
_cell_formula_units_Z 48
_cell_length_a 9.088690
_cell_length_b 16.294343
_cell_length_c 14.581344
_cell_angle_alpha 90.000000
_cell_angle_beta 75.521906
_cell_angle_gamma 90.000000
_cell_volume 2090.837112
_symmetry_space_group_name_H-M "C 2/C"
_symmetry_group_IT_number 15
_symmetry_cell_setting 'monoclinic'
loop_
_space_group_symop_operation_xyz
x,y,z
-x,y,1/2-z
-x,-y,-z
x,-y,1/2+z
1/2+x,1/2+y,z
1/2-x,1/2+y,1/2-z
1/2-x,1/2-y,-z
1/2+x,1/2-y,1/2+z
loop_
_atom_site_type_symbol
_atom_site_label
_atom_site_fract_x
_atom_site_fract_y
_atom_site_fract_z
Si Si1 0.465093 0.814777 0.915986
Si Si2 0.139078 0.154948 0.659345
Si Si3 0.028572 0.335774 0.364470
Si Si4 0.992454 0.488685 0.612381
Si Si5 0.359762 0.474647 0.843991
Si Si6 0.201746 0.797055 0.599879
O O1 0.374519 0.735281 0.900446
O O2 0.423928 0.903305 0.879374
O O3 0.643554 0.799947 0.866047
O O4 0.458344 0.826229 0.026611
O O5 0.296379 0.159726 0.689792
O O6 0.000000 0.157218 0.750000
O O7 0.128709 0.065338 0.612313
O O8 0.951902 0.424272 0.358495
O O9 0.932031 0.260284 0.344775
O O10 0.814378 0.478345 0.666909
O O11 0.000000 0.500000 0.500000
O O12 0.500000 0.467899 0.750000
O O13 0.354861 0.390699 0.903394
O O14 0.250000 0.750000 0.500000
#
# Coordination Sequence:
#
# PCOD9268696 Si02
#       6
#     8   8   8   8   8   8
#     4   9  17  32  52  73  97 130 168 208 249 297
#     4  10  20  33  49  72 101 133 168 204 247 302
#     4   9  17  31  50  73  97 126 165 206 248 297
#     4   8  15  29  50  70  95 133 168 194 242 314
#     4   9  18  32  50  71 101 139 170 201 254 315
#     4   9  18  33  53  77 100 129 170 211 254 307
#
# _framework density 22.957312000000002
#
# number of rings (size 3 to 8) (size 9 to 14) (size 15 to 20)
#    0.000    3.000    0.000    1.500    0.000    2.667 
#    0.000    5.000    0.000    1.000    0.000    0.000 
#    0.000    0.000    0.000    0.000    0.000    0.000 
#
# Total GULP energy -133694.533768 kJ/mol
# GULP energy per Si atom -5570.605574 kJ/mol
# Density = 2.290506 g / cm^3
# Si number density = 22.957312 Si / 1000 Ang^3
#
#
#
# Elastic Constant Matrix: (Units=GPa)
#
#
# Indices 1 2 3 4 5 6 
#
# 1 52.9963 46.6684 18.6092 0.0000 -25.6502 0.0000
# 2 46.6684 268.1108 32.1009 0.0000 7.8890 0.0000
# 3 18.6092 32.1009 73.8804 0.0000 -17.5046 0.0000
# 4 0.0000 0.0000 0.0000 14.7063 0.0000 -14.4572
# 5 -25.6502 7.8890 -17.5046 0.0000 35.4949 0.0000
# 6 0.0000 0.0000 0.0000 -14.4572 0.0000 20.7919
#
#
#
# Elastic Compliance Matrix: (Units=1/GPa)
#
#
# Indices 1 2 3 4 5 6 
#
# 1 0.041420 -0.008247 0.000766 0.000000 0.032142 0.000000
# 2 -0.008247 0.005699 -0.002390 0.000000 -0.008405 0.000000
# 3 0.000766 -0.002390 0.016575 0.000000 0.009259 0.000000
# 4 0.000000 0.000000 0.000000 0.214881 0.000000 0.149414
# 5 0.032142 -0.008405 0.009259 0.000000 0.057835 0.000000
# 6 0.000000 0.000000 0.000000 0.149414 0.000000 0.151987
#
#
# Mechanical properties :
#
#
# Convention : Reuss Voigt Hill
#
# Bulk Modulus (GPa) = 22.75293 65.52716 44.14005
# Shear Modulus (GPa) = 9.56408 34.03921 21.80165
#
# Velocity S-wave (km/s) = 2.04330 3.85478 3.08500
# Velocity P-wave (km/s) = 3.93691 6.95827 5.65317
#
# Compressibility (1/GPa) = 0.04395037
#
# Stress axis : x y z
#
# Youngs Moduli (GPa) = 24.14318 175.47442 60.33295
#
# Poissons Ratio (x) = 1.44716 -0.04622
# Poissons Ratio (y) = 0.19911 0.14421
# Poissons Ratio (z) = -0.01850 0.41943
#
# Static dielectric constant tensor:
#      x y z
#    x 1.826800 0.000000 -0.014040 
#    y 0.000000 1.912440 0.000000 
#    z -0.014040 0.000000 1.953370 
# 
# From -- ./inp_files/196867.got.cif
#   From: 2010.05.17/outbox.cif.g08.bks.cpg/sg15_99_cif.got.tgz:196867.got - 2010.06.03 18:47:42.
