data_PCOD9268595
_publ_section_title
;
Structure prediction by ZEFSAII (Michael W. Deem and Ramdas Pophale) SiO2 
 PCOD9268595
Probable space group: C 2/C
;
_chemical_formula_sum "Si O2"
_cell_formula_units_Z 52
_cell_length_a 14.209148
_cell_length_b 13.930086
_cell_length_c 17.312936
_cell_angle_alpha 90.000000
_cell_angle_beta 50.018674
_cell_angle_gamma 90.000000
_cell_volume 2625.821850
_symmetry_space_group_name_H-M "C 2/C"
_symmetry_group_IT_number 15
_symmetry_cell_setting 'monoclinic'
loop_
_space_group_symop_operation_xyz
x,y,z
-x,y,1/2-z
-x,-y,-z
x,-y,1/2+z
1/2+x,1/2+y,z
1/2-x,1/2+y,1/2-z
1/2-x,1/2-y,-z
1/2+x,1/2-y,1/2+z
loop_
_atom_site_type_symbol
_atom_site_label
_atom_site_fract_x
_atom_site_fract_y
_atom_site_fract_z
Si Si1 0.282987 0.346341 0.710259
Si Si2 0.222667 0.371938 0.328388
Si Si3 0.241390 0.471952 0.154418
Si Si4 0.549452 0.170701 0.556061
Si Si5 0.573234 0.378414 0.552563
Si Si6 0.274683 0.561483 0.383795
Si Si7 0.500000 0.139207 0.750000
O O1 0.264361 0.376707 0.809628
O O2 0.214575 0.419021 0.689590
O O3 0.427163 0.371441 0.621564
O O4 0.277844 0.551904 0.860707
O O5 0.256617 0.421510 0.229359
O O6 0.074684 0.364601 0.419886
O O7 0.253100 0.260268 0.297272
O O8 0.121785 0.423365 0.182459
O O9 0.357401 0.453300 0.038963
O O10 0.613349 0.271857 0.502191
O O11 0.649924 0.088685 0.494614
O O12 0.501755 0.193593 0.668316
O O13 0.617095 0.403958 0.616249
#
# Coordination Sequence:
#
# PCOD9268595 Si02
#       7
#     8   8   8   8   8   8   4
#     4  10  22  37  56  78 116 151 185 222 281 336
#     4   9  21  36  54  81 114 148 183 226 281 336
#     4  10  20  37  57  78 113 145 184 227 278 330
#     4  10  20  32  57  84 112 137 180 230 287 324
#     4  11  21  33  58  86 109 141 188 233 278 327
#     4  11  20  34  56  85 114 142 185 237 277 327
#     4  10  20  34  56  84 106 136 180 234 276 324
#
# _framework density 19.803322999999999
#
# number of rings (size 3 to 8) (size 9 to 14) (size 15 to 20)
#    0.000    1.846    1.538    2.769    6.462    0.000 
#    0.000    0.769    6.769    0.000    0.000    0.000 
#    0.000    0.000    0.000    0.000    0.000    0.000 
#
# Total GULP energy -144790.630967 kJ/mol
# GULP energy per Si atom -5568.870422 kJ/mol
# Density = 1.975825 g / cm^3
# Si number density = 19.803323 Si / 1000 Ang^3
#
#
#
# Elastic Constant Matrix: (Units=GPa)
#
#
# Indices 1 2 3 4 5 6 
#
# 1 31.1884 5.5702 -4.9463 0.0000 4.4700 0.0000
# 2 5.5702 117.5885 18.8730 0.0000 12.7282 0.0000
# 3 -4.9463 18.8730 69.1009 0.0000 8.9240 0.0000
# 4 0.0000 0.0000 0.0000 -77.1435 0.0000 42.6645
# 5 4.4700 12.7282 8.9240 0.0000 15.3751 0.0000
# 6 0.0000 0.0000 0.0000 42.6645 0.0000 5.2014
#
#
#
# Elastic Compliance Matrix: (Units=1/GPa)
#
#
# Indices 1 2 3 4 5 6 
#
# 1 0.034602 -0.001063 0.004273 0.000000 -0.011660 0.000000
# 2 -0.001063 0.009558 -0.001843 0.000000 -0.006534 0.000000
# 3 0.004273 -0.001843 0.016479 0.000000 -0.009282 0.000000
# 4 0.000000 0.000000 0.000000 -0.002341 0.000000 0.019205
# 5 -0.011660 -0.006534 -0.009282 0.000000 0.079227 0.000000
# 6 0.000000 0.000000 0.000000 0.019205 0.000000 0.034726
#
#
# Mechanical properties :
#
#
# Convention : Reuss Voigt Hill
#
# Bulk Modulus (GPa) = 15.77940 28.54127 22.16034
# Shear Modulus (GPa) = 26.22757 1.91200 14.06978
#
# Velocity S-wave (km/s) = 3.64318 0.98366 2.66837
# Velocity P-wave (km/s) = 5.06778 3.96658 4.55061
#
# Compressibility (1/GPa) = 0.06337377
#
# Stress axis : x y z
#
# Youngs Moduli (GPa) = 28.90025 104.62931 60.68168
#
# Poissons Ratio (x) = 0.11120 -0.25929
# Poissons Ratio (y) = 0.03071 0.11182
# Poissons Ratio (z) = -0.12349 0.19280
#
# Static dielectric constant tensor:
#      x y z
#    x 1.704400 0.000000 0.005470 
#    y 0.000000 1.764120 0.000000 
#    z 0.005470 0.000000 1.715010 
# 
# From -- ./inp_files/205004.got.cif
#   From: 2010.05.17/outbox.cif.g08.bks.cpg/sg15_103_cif.got.tgz:205004.got - 2010.06.03 18:47:42.
