data_PCOD9268969
_publ_section_title
;
Structure prediction by ZEFSAII (Michael W. Deem and Ramdas Pophale) SiO2 
 PCOD9268969
Probable space group: C 2/C
;
_chemical_formula_sum "Si O2"
_cell_formula_units_Z 56
_cell_length_a 15.056499
_cell_length_b 30.028427
_cell_length_c 9.956376
_cell_angle_alpha 90.000000
_cell_angle_beta 137.187495
_cell_angle_gamma 90.000000
_cell_volume 3059.230172
_symmetry_space_group_name_H-M "C 2/C"
_symmetry_group_IT_number 15
_symmetry_cell_setting 'monoclinic'
loop_
_space_group_symop_operation_xyz
x,y,z
-x,y,1/2-z
-x,-y,-z
x,-y,1/2+z
1/2+x,1/2+y,z
1/2-x,1/2+y,1/2-z
1/2-x,1/2-y,-z
1/2+x,1/2-y,1/2+z
loop_
_atom_site_type_symbol
_atom_site_label
_atom_site_fract_x
_atom_site_fract_y
_atom_site_fract_z
Si Si1 0.011170 0.309877 0.924133
Si Si2 0.157994 0.913229 0.412045
Si Si3 0.098731 0.995088 0.737596
Si Si4 0.742908 0.145113 0.244142
Si Si5 0.156060 0.099350 0.398550
Si Si6 0.783304 0.853561 0.268965
Si Si7 0.483892 0.294838 0.071711
O O1 0.996793 0.257230 0.933627
O O2 0.000000 0.316476 0.750000
O O3 0.900538 0.338634 0.875603
O O4 0.153318 0.324734 0.131391
O O5 0.216103 0.897836 0.618865
O O6 0.214009 0.878154 0.370117
O O7 0.000000 0.909356 0.250000
O O8 0.181896 0.961120 0.367707
O O9 0.172652 0.948536 0.842797
O O10 0.000000 0.993422 0.750000
O O11 0.000000 0.000000 0.500000
O O12 0.774662 0.133063 0.126353
O O13 0.841156 0.185505 0.386666
O O14 0.211060 0.109697 0.607246
O O15 0.000000 0.105752 0.250000
O O16 0.912549 0.822844 0.401662
O O17 0.500000 0.301536 0.250000
#
# Coordination Sequence:
#
# PCOD9268969 Si02
#       7
#     8   8   8   8   8   8   8
#     4  11  24  39  60  91 118 158 209 256 297 353
#     4  11  18  34  61  88 117 150 203 249 300 347
#     4  10  20  33  57  93 124 148 195 256 298 344
#     4  12  21  38  61  87 121 159 198 248 301 363
#     4  11  22  38  60  89 127 156 192 245 309 361
#     4  12  21  38  61  88 124 160 197 250 305 359
#     4  11  20  38  64  89 114 153 214 266 297 339
#
# _framework density 18.305257999999998
#
# number of rings (size 3 to 8) (size 9 to 14) (size 15 to 20)
#    0.000    0.857    5.714    4.286    0.000    2.857 
#    0.000    4.286    0.000    5.143    0.000    0.000 
#    0.000    0.000    0.000    0.000    0.000    0.000 
#
# Total GULP energy -155982.857198 kJ/mol
# GULP energy per Si atom -5570.816329 kJ/mol
# Density = 1.826359 g / cm^3
# Si number density = 18.305258 Si / 1000 Ang^3
#
#
#
# Elastic Constant Matrix: (Units=GPa)
#
#
# Indices 1 2 3 4 5 6 
#
# 1 87.6014 24.7206 16.9221 0.0000 -3.4366 0.0000
# 2 24.7206 82.0325 6.2723 0.0000 2.2378 0.0000
# 3 16.9221 6.2723 47.5388 0.0000 -11.1339 0.0000
# 4 0.0000 0.0000 0.0000 -178.1974 0.0000 189.4515
# 5 -3.4366 2.2378 -11.1339 0.0000 28.6103 0.0000
# 6 0.0000 0.0000 0.0000 189.4515 0.0000 -198.8083
#
#
#
# Elastic Compliance Matrix: (Units=1/GPa)
#
#
# Indices 1 2 3 4 5 6 
#
# 1 0.013273 -0.003687 -0.004178 0.000000 0.000257 0.000000
# 2 -0.003687 0.013420 -0.000889 0.000000 -0.001838 0.000000
# 3 -0.004178 -0.000889 0.024799 0.000000 0.009218 0.000000
# 4 0.000000 0.000000 0.000000 0.427780 0.000000 0.407647
# 5 0.000257 -0.001838 0.009218 0.000000 0.038714 0.000000
# 6 0.000000 0.000000 0.000000 0.407647 0.000000 0.383431
#
#
# Mechanical properties :
#
#
# Convention : Reuss Voigt Hill
#
# Bulk Modulus (GPa) = 29.42601 34.77805 32.10203
# Shear Modulus (GPa) = 5.37488 -58.39523 -26.51017
#
# Velocity S-wave (km/s) = 1.71541 -5.65421 -3.80969
# Velocity P-wave (km/s) = 4.47589 4.85660 1.33285
#
# Compressibility (1/GPa) = 0.03398354
#
# Stress axis : x y z
#
# Youngs Moduli (GPa) = 75.34057 74.51798 40.32432
#
# Poissons Ratio (x) = 0.27478 0.16848
# Poissons Ratio (y) = 0.27781 0.03583
# Poissons Ratio (z) = 0.31478 0.06621
#
# Static dielectric constant tensor:
#      x y z
#    x 1.597760 0.000000 -0.019560 
#    y 0.000000 1.742410 0.000000 
#    z -0.019560 0.000000 1.633180 
# 
# From -- ./inp_files/44603.got.cif
#   From: 2010.05.17/outbox.cif.g08.bks.cpg/sg15_23_cif.got.tgz:44603.got - 2010.06.03 18:47:42.
