data_PCOD9268302
_publ_section_title
;
Structure prediction by ZEFSAII (Michael W. Deem and Ramdas Pophale) SiO2 
 PCOD9268302
Probable space group: C 2/C
;
_chemical_formula_sum "Si O2"
_cell_formula_units_Z 60
_cell_length_a 26.361279
_cell_length_b 14.772012
_cell_length_c 17.324161
_cell_angle_alpha 90.000000
_cell_angle_beta 28.592708
_cell_angle_gamma 90.000000
_cell_volume 3228.590682
_symmetry_space_group_name_H-M "C 2/C"
_symmetry_group_IT_number 15
_symmetry_cell_setting 'monoclinic'
loop_
_space_group_symop_operation_xyz
x,y,z
-x,y,1/2-z
-x,-y,-z
x,-y,1/2+z
1/2+x,1/2+y,z
1/2-x,1/2+y,1/2-z
1/2-x,1/2-y,-z
1/2+x,1/2-y,1/2+z
loop_
_atom_site_type_symbol
_atom_site_label
_atom_site_fract_x
_atom_site_fract_y
_atom_site_fract_z
Si Si1 0.237105 0.036922 0.265791
Si Si2 0.616640 0.551903 0.280965
Si Si3 0.141608 0.722726 0.423715
Si Si4 0.998788 0.218773 0.523813
Si Si5 0.824672 0.364608 0.224589
Si Si6 0.220278 0.851503 0.516251
Si Si7 0.023915 0.088331 0.627187
Si Si8 0.000000 0.213906 0.250000
O O1 0.166302 0.002330 0.288226
O O2 0.304852 0.124496 0.151475
O O3 0.148386 0.067833 0.446554
O O4 0.309513 0.956483 0.198900
O O5 0.557833 0.639863 0.394940
O O6 0.712793 0.586819 0.100625
O O7 0.540773 0.491590 0.329667
O O8 0.230284 0.794619 0.330587
O O9 0.047242 0.730689 0.613696
O O10 0.101629 0.753613 0.392969
O O11 0.070082 0.308471 0.430306
O O12 0.991641 0.176118 0.618796
O O13 0.803454 0.384856 0.342681
O O14 0.250000 0.750000 0.500000
O O15 0.099759 0.845643 0.644799
O O16 0.000000 0.094160 0.750000
#
# Coordination Sequence:
#
# PCOD9268302 Si02
#       8
#     8   8   8   8   8   8   8   4
#     4  11  23  37  60  87 118 157 197 250 305 368
#     4  11  19  36  59  90 115 147 195 253 310 354
#     4  11  20  38  61  89 124 157 199 242 306 365
#     4  11  21  38  60  83 121 164 195 247 306 358
#     4  11  21  37  59  86 125 153 193 246 305 359
#     4  11  19  33  56  90 119 143 181 243 308 355
#     4  11  23  39  60  88 116 154 216 259 293 342
#     4  10  20  30  58  90 114 152 178 238 308 358
#
# _framework density 18.583960000000001
#
# number of rings (size 3 to 8) (size 9 to 14) (size 15 to 20)
#    0.000    1.067    5.333    4.800    2.800    0.533 
#    0.000    0.667    4.400    0.000    0.000    0.000 
#    0.000    0.000    0.000    0.000    0.000    0.000 
#
# Total GULP energy -167477.778354 kJ/mol
# GULP energy per Si atom -5582.592612 kJ/mol
# Density = 1.854166 g / cm^3
# Si number density = 18.583960 Si / 1000 Ang^3
#
#
#
# Elastic Constant Matrix: (Units=GPa)
#
#
# Indices 1 2 3 4 5 6 
#
# 1 71.6882 8.6658 16.9688 0.0000 27.1422 0.0000
# 2 8.6658 58.6969 21.5809 0.0000 18.2625 0.0000
# 3 16.9688 21.5809 53.2812 0.0000 30.6709 0.0000
# 4 0.0000 0.0000 0.0000 18.8860 0.0000 -2.0947
# 5 27.1422 18.2625 30.6709 0.0000 30.3922 0.0000
# 6 0.0000 0.0000 0.0000 -2.0947 0.0000 29.6293
#
#
#
# Elastic Compliance Matrix: (Units=1/GPa)
#
#
# Indices 1 2 3 4 5 6 
#
# 1 0.023936 0.003125 0.010732 0.000000 -0.034085 0.000000
# 2 0.003125 0.021559 -0.001584 0.000000 -0.014148 0.000000
# 3 0.010732 -0.001584 0.050017 0.000000 -0.059109 0.000000
# 4 0.000000 0.000000 0.000000 0.053368 0.000000 0.003773
# 5 -0.034085 -0.014148 -0.059109 0.000000 0.131495 0.000000
# 6 0.000000 0.000000 0.000000 0.003773 0.000000 0.034017
#
#
# Mechanical properties :
#
#
# Convention : Reuss Voigt Hill
#
# Bulk Modulus (GPa) = 8.32918 30.89969 19.61444
# Shear Modulus (GPa) = 15.15764 24.87820 20.01792
#
# Velocity S-wave (km/s) = 2.85902 3.66278 3.28557
# Velocity P-wave (km/s) = 3.92305 5.87802 4.99707
#
# Compressibility (1/GPa) = 0.12005989
#
# Stress axis : x y z
#
# Youngs Moduli (GPa) = 41.77756 46.38348 19.99303
#
# Poissons Ratio (x) = -0.14497 -0.21456
# Poissons Ratio (y) = -0.13057 0.03166
# Poissons Ratio (z) = -0.44834 0.07345
#
# Static dielectric constant tensor:
#      x y z
#    x 1.688080 0.000000 0.016200 
#    y 0.000000 1.631410 0.000000 
#    z 0.016200 0.000000 1.665250 
# 
# From -- ./inp_files/224999.got.cif
#   From: 2010.05.17/outbox.cif.g08.bks.cpg/sg15_113_cif.got.tgz:224999.got - 2010.06.03 18:47:42.
