data_PCOD9268693
_publ_section_title
;
Structure prediction by ZEFSAII (Michael W. Deem and Ramdas Pophale) SiO2 
 PCOD9268693
Probable space group: C 2/C
;
_chemical_formula_sum "Si O2"
_cell_formula_units_Z 48
_cell_length_a 11.504748
_cell_length_b 14.431770
_cell_length_c 22.600893
_cell_angle_alpha 90.000000
_cell_angle_beta 37.843138
_cell_angle_gamma 90.000000
_cell_volume 2302.173980
_symmetry_space_group_name_H-M "C 2/C"
_symmetry_group_IT_number 15
_symmetry_cell_setting 'monoclinic'
loop_
_space_group_symop_operation_xyz
x,y,z
-x,y,1/2-z
-x,-y,-z
x,-y,1/2+z
1/2+x,1/2+y,z
1/2-x,1/2+y,1/2-z
1/2-x,1/2-y,-z
1/2+x,1/2-y,1/2+z
loop_
_atom_site_type_symbol
_atom_site_label
_atom_site_fract_x
_atom_site_fract_y
_atom_site_fract_z
Si Si1 0.343852 0.427867 0.628140
Si Si2 0.636233 0.765103 0.138643
Si Si3 0.794718 0.540677 0.919400
Si Si4 0.241298 0.900086 0.029261
Si Si5 0.988768 0.933368 0.825019
Si Si6 0.076271 0.776501 0.991459
O O1 0.217545 0.500259 0.642179
O O2 0.568592 0.450209 0.526201
O O3 0.328614 0.433580 0.704870
O O4 0.323331 0.328852 0.603962
O O5 0.500000 0.768731 0.250000
O O6 0.606805 0.860401 0.114900
O O7 0.604441 0.666338 0.120515
O O8 0.853752 0.770774 0.070545
O O9 0.869562 0.463944 0.934714
O O10 0.115867 0.840675 0.033048
O O11 0.125967 0.973747 0.114026
O O12 0.345974 0.824988 0.026673
O O13 0.000000 0.930106 0.750000
#
# Coordination Sequence:
#
# PCOD9268693 Si02
#       6
#     8   8   8   8   8   8
#     4   8  15  31  54  74  99 134 169 208 256 307
#     4  10  20  33  48  75 111 143 171 208 262 314
#     4   8  15  31  55  76  95 131 175 209 249 311
#     4   9  18  35  59  81 100 132 179 224 260 302
#     4  10  20  33  48  75 111 140 171 216 266 308
#     4   9  18  35  58  79 102 135 177 218 259 314
#
# _framework density 20.849858000000001
#
# number of rings (size 3 to 8) (size 9 to 14) (size 15 to 20)
#    0.000    3.000    0.000    3.000    0.000    6.667 
#    0.000   13.333    0.000    7.000    0.000    0.000 
#    0.000    0.000    0.000    0.000    0.000    0.333 
#
# Total GULP energy -133675.718380 kJ/mol
# GULP energy per Si atom -5569.821599 kJ/mol
# Density = 2.080240 g / cm^3
# Si number density = 20.849858 Si / 1000 Ang^3
#
#
#
# Elastic Constant Matrix: (Units=GPa)
#
#
# Indices 1 2 3 4 5 6 
#
# 1 50.5279 36.3809 29.4891 0.0002 29.9684 0.0002
# 2 36.3809 186.0439 32.9047 0.0001 12.5009 0.0002
# 3 29.4891 32.9047 41.7520 0.0007 20.2434 0.0006
# 4 0.0002 0.0001 0.0007 17.2137 -0.0003 6.5425
# 5 29.9684 12.5009 20.2434 -0.0003 31.5670 -0.0003
# 6 0.0002 0.0002 0.0006 6.5425 -0.0003 20.6927
#
#
#
# Elastic Compliance Matrix: (Units=1/GPa)
#
#
# Indices 1 2 3 4 5 6 
#
# 1 0.059242 -0.005802 -0.016130 -0.000001 -0.043601 -0.000001
# 2 -0.005802 0.006835 -0.003842 0.000000 0.005265 0.000000
# 3 -0.016130 -0.003842 0.043840 -0.000001 -0.011279 -0.000001
# 4 -0.000001 0.000000 -0.000001 0.066028 0.000002 -0.020876
# 5 -0.043601 0.005265 -0.011279 0.000002 0.078219 0.000001
# 6 -0.000001 0.000000 -0.000001 -0.020876 0.000001 0.054927
#
#
# Mechanical properties :
#
#
# Convention : Reuss Voigt Hill
#
# Bulk Modulus (GPa) = 17.13217 52.87480 35.00349
# Shear Modulus (GPa) = 13.15459 25.86461 19.50960
#
# Velocity S-wave (km/s) = 2.51454 3.52592 3.06227
# Velocity P-wave (km/s) = 4.08231 6.48005 5.41555
#
# Compressibility (1/GPa) = 0.05836973
#
# Stress axis : x y z
#
# Youngs Moduli (GPa) = 16.87984 146.29732 22.81039
#
# Poissons Ratio (x) = 0.84887 0.36793
# Poissons Ratio (y) = 0.09794 0.08763
# Poissons Ratio (z) = 0.27227 0.56202
#
# Static dielectric constant tensor:
#      x y z
#    x 1.780000 0.000000 0.053390 
#    y 0.000000 1.791280 0.000000 
#    z 0.053390 0.000000 1.818950 
# 
# From -- ./inp_files/238232.got.cif
#   From: 2010.05.17/outbox.cif.g08.bks.cpg/sg15_120_cif.got.tgz:238232.got - 2010.06.03 18:47:42.
