data_PCOD9268668
_publ_section_title
;
Structure prediction by ZEFSAII (Michael W. Deem and Ramdas Pophale) SiO2 
 PCOD9268668
Probable space group: C 2/C
;
_chemical_formula_sum "Si O2"
_cell_formula_units_Z 52
_cell_length_a 25.852728
_cell_length_b 15.596361
_cell_length_c 26.041332
_cell_angle_alpha 90.000000
_cell_angle_beta 162.236768
_cell_angle_gamma 90.000000
_cell_volume 3203.410705
_symmetry_space_group_name_H-M "C 2/C"
_symmetry_group_IT_number 15
_symmetry_cell_setting 'monoclinic'
loop_
_space_group_symop_operation_xyz
x,y,z
-x,y,1/2-z
-x,-y,-z
x,-y,1/2+z
1/2+x,1/2+y,z
1/2-x,1/2+y,1/2-z
1/2-x,1/2-y,-z
1/2+x,1/2-y,1/2+z
loop_
_atom_site_type_symbol
_atom_site_label
_atom_site_fract_x
_atom_site_fract_y
_atom_site_fract_z
Si Si1 0.500000 0.104745 0.750000
Si Si2 0.714639 0.212469 0.872745
Si Si3 0.874257 0.326681 0.328520
Si Si4 0.758076 0.652575 0.277807
Si Si5 0.826138 0.099082 0.118851
Si Si6 0.672027 0.501672 0.129811
Si Si7 0.003102 0.079168 0.122517
O O1 0.589008 0.162436 0.791212
O O2 0.334983 0.063463 0.565514
O O3 0.649219 0.204467 0.752502
O O4 0.727723 0.307547 0.908687
O O5 0.888391 0.157549 0.035396
O O6 0.798120 0.248601 0.289510
O O7 0.776384 0.415939 0.241505
O O8 0.066549 0.340529 0.526141
O O9 0.765793 0.587031 0.237553
O O10 0.620214 0.616029 0.187810
O O11 0.000000 0.107552 0.250000
O O12 0.881737 0.046888 0.222035
O O13 0.500000 0.500000 0.000000
O O14 0.618688 0.490015 0.019946
#
# Coordination Sequence:
#
# PCOD9268668 Si02
#       7
#     4   8   8   8   8   8   8
#     4  12  22  28  42  64  94 128 178 208 238 278
#     4  11  20  30  42  65  94 132 171 209 236 284
#     4  11  21  32  52  71  98 133 175 202 249 302
#     4  11  20  33  49  71  95 131 174 211 250 298
#     4  12  21  31  43  64  95 130 171 215 240 285
#     4   9  20  35  50  69  94 126 170 212 254 295
#     4  10  20  33  45  63  93 130 169 209 253 288
#
# _framework density 16.232699
#
# number of rings (size 3 to 8) (size 9 to 14) (size 15 to 20)
#    0.000    1.231    3.846    5.538    0.000    0.000 
#    0.000    0.000    0.000    0.000    0.000    0.000 
#    0.000    0.000    0.000   12.462   46.000   51.846 
#
# Total GULP energy -144914.585899 kJ/mol
# GULP energy per Si atom -5573.637919 kJ/mol
# Density = 1.619575 g / cm^3
# Si number density = 16.232699 Si / 1000 Ang^3
#
#
#
# Elastic Constant Matrix: (Units=GPa)
#
#
# Indices 1 2 3 4 5 6 
#
# 1 44.3614 28.2925 23.8915 0.0029 -2.4817 0.0008
# 2 28.2925 65.4492 31.0589 0.0020 -8.4188 0.0209
# 3 23.8915 31.0589 126.4989 -0.0016 -10.5363 0.0051
# 4 0.0029 0.0020 -0.0016 16.4673 -0.0018 -4.2545
# 5 -2.4817 -8.4188 -10.5363 -0.0018 33.3157 0.0029
# 6 0.0008 0.0209 0.0051 -4.2545 0.0029 6.4578
#
#
#
# Elastic Compliance Matrix: (Units=1/GPa)
#
#
# Indices 1 2 3 4 5 6 
#
# 1 0.032203 -0.012670 -0.003120 0.000007 -0.001790 0.000045
# 2 -0.012670 0.022599 -0.002833 -0.000023 0.003871 -0.000086
# 3 -0.003120 -0.002833 0.009358 0.000003 0.002011 0.000003
# 4 0.000007 -0.000023 0.000003 0.073183 -0.000005 0.048214
# 5 -0.001790 0.003871 0.002011 -0.000005 0.031497 -0.000031
# 6 0.000045 -0.000086 0.000003 0.048214 -0.000031 0.186615
#
#
# Mechanical properties :
#
#
# Convention : Reuss Voigt Hill
#
# Bulk Modulus (GPa) = 37.15829 44.75504 40.95666
# Shear Modulus (GPa) = 12.44796 21.45261 16.95028
#
# Velocity S-wave (km/s) = 2.77220 3.63928 3.23492
# Velocity P-wave (km/s) = 5.76086 6.72978 6.26408
#
# Compressibility (1/GPa) = 0.02691190
#
# Stress axis : x y z
#
# Youngs Moduli (GPa) = 31.05269 44.25059 106.86448
#
# Poissons Ratio (x) = 0.56067 0.33345
# Poissons Ratio (y) = 0.39345 0.30276
# Poissons Ratio (z) = 0.09689 0.12537
#
# Static dielectric constant tensor:
#      x y z
#    x 1.574610 0.000000 -0.012010 
#    y 0.000000 1.544930 -0.000010 
#    z -0.012010 -0.000010 1.665330 
# 
# From -- ./inp_files/282155.got.cif
#   From: 2010.05.17/outbox.cif.g08.bks.cpg/sg15_142_cif.got.tgz:282155.got - 2010.06.03 18:47:42.
