data_PCOD9268471
_publ_section_title
;
Structure prediction by ZEFSAII (Michael W. Deem and Ramdas Pophale) SiO2 
 PCOD9268471
Probable space group: C 2/C
;
_chemical_formula_sum "Si O2"
_cell_formula_units_Z 56
_cell_length_a 12.889914
_cell_length_b 13.543457
_cell_length_c 15.868725
_cell_angle_alpha 90.000000
_cell_angle_beta 74.817498
_cell_angle_gamma 90.000000
_cell_volume 2673.574789
_symmetry_space_group_name_H-M "C 2/C"
_symmetry_group_IT_number 15
_symmetry_cell_setting 'monoclinic'
loop_
_space_group_symop_operation_xyz
x,y,z
-x,y,1/2-z
-x,-y,-z
x,-y,1/2+z
1/2+x,1/2+y,z
1/2-x,1/2+y,1/2-z
1/2-x,1/2-y,-z
1/2+x,1/2-y,1/2+z
loop_
_atom_site_type_symbol
_atom_site_label
_atom_site_fract_x
_atom_site_fract_y
_atom_site_fract_z
Si Si1 0.761599 0.349206 0.758441
Si Si2 0.698240 0.383400 0.575025
Si Si3 0.912830 0.685496 0.970849
Si Si4 0.078568 0.704830 0.801180
Si Si5 0.091278 0.940757 0.167913
Si Si6 0.067687 0.778475 0.358616
Si Si7 0.742976 0.569950 0.791342
O O1 0.728297 0.365662 0.667077
O O2 0.667879 0.280476 0.815088
O O3 0.873741 0.290193 0.724070
O O4 0.758723 0.454642 0.804210
O O5 0.811351 0.387295 0.501534
O O6 0.634823 0.287822 0.556592
O O7 0.627001 0.481758 0.590010
O O8 0.009791 0.657076 0.889952
O O9 0.952334 0.712291 0.055871
O O10 0.143928 0.623925 0.734520
O O11 0.000000 0.755251 0.750000
O O12 0.191879 0.921875 0.207769
O O13 0.000000 0.985991 0.250000
O O14 0.035132 0.841699 0.146742
O O15 0.158143 0.863358 0.360930
#
# Coordination Sequence:
#
# PCOD9268471 Si02
#       7
#     8   8   8   8   8   8   8
#     4   9  18  36  56  77 107 144 181 219 264 327
#     4   9  18  31  51  79 107 139 175 218 266 319
#     4  10  20  32  50  83 116 138 173 228 280 306
#     4  11  21  35  57  81 107 145 182 222 271 326
#     4   9  18  34  57  77 102 146 188 213 260 322
#     4   9  19  34  54  84 109 139 179 231 265 312
#     4   9  20  36  56  81 104 139 189 218 261 331
#
# _framework density 20.945740000000001
#
# number of rings (size 3 to 8) (size 9 to 14) (size 15 to 20)
#    0.000    2.571    1.429    0.000    8.000    0.571 
#    0.000   10.714    0.000    0.000    0.000    0.000 
#    0.000    0.000    0.000    0.000    0.000    0.000 
#
# Total GULP energy -156139.871929 kJ/mol
# GULP energy per Si atom -5576.423997 kJ/mol
# Density = 2.089807 g / cm^3
# Si number density = 20.945740 Si / 1000 Ang^3
#
#
#
# Elastic Constant Matrix: (Units=GPa)
#
#
# Indices 1 2 3 4 5 6 
#
# 1 62.4021 20.5214 11.4872 0.0000 -9.6919 0.0000
# 2 20.5214 82.1219 -5.0539 0.0000 -5.4514 0.0000
# 3 11.4872 -5.0539 50.2589 0.0000 -13.8524 0.0000
# 4 0.0000 0.0000 0.0000 19.4309 0.0000 -3.8767
# 5 -9.6919 -5.4514 -13.8524 0.0000 16.5724 0.0000
# 6 0.0000 0.0000 0.0000 -3.8767 0.0000 24.5073
#
#
#
# Elastic Compliance Matrix: (Units=1/GPa)
#
#
# Indices 1 2 3 4 5 6 
#
# 1 0.019157 -0.004467 -0.002787 0.000000 0.007405 0.000000
# 2 -0.004467 0.013872 0.003838 0.000000 0.005158 0.000000
# 3 -0.002787 0.003838 0.027051 0.000000 0.022243 0.000000
# 4 0.000000 0.000000 0.000000 0.053142 0.000000 0.008406
# 5 0.007405 0.005158 0.022243 0.000000 0.084961 0.000000
# 6 0.000000 0.000000 0.000000 0.008406 0.000000 0.042134
#
#
# Mechanical properties :
#
#
# Convention : Reuss Voigt Hill
#
# Bulk Modulus (GPa) = 18.78039 27.63246 23.20642
# Shear Modulus (GPa) = 18.87517 23.29066 21.08291
#
# Velocity S-wave (km/s) = 3.00517 3.33821 3.17606
# Velocity P-wave (km/s) = 4.58552 5.29899 4.95511
#
# Compressibility (1/GPa) = 0.05324704
#
# Stress axis : x y z
#
# Youngs Moduli (GPa) = 52.19961 72.08807 36.96771
#
# Poissons Ratio (x) = 0.32203 0.10303
# Poissons Ratio (y) = 0.23318 -0.14187
# Poissons Ratio (z) = 0.14548 -0.27665
#
# Static dielectric constant tensor:
#      x y z
#    x 1.789020 0.000000 0.001410 
#    y 0.000000 1.782340 0.000000 
#    z 0.001410 0.000000 1.776940 
# 
# From -- ./inp_files/197742.got.cif
#   From: 2010.05.17/outbox.cif.g08.bks.cpg/sg15_99_cif.got.tgz:197742.got - 2010.06.03 18:47:42.
