data_PCOD9268607
_publ_section_title
;
Structure prediction by ZEFSAII (Michael W. Deem and Ramdas Pophale) SiO2 
 PCOD9268607
Probable space group: C 2/C
;
_chemical_formula_sum "Si O2"
_cell_formula_units_Z 44
_cell_length_a 25.127770
_cell_length_b 22.033263
_cell_length_c 11.156371
_cell_angle_alpha 90.000000
_cell_angle_beta 155.565822
_cell_angle_gamma 90.000000
_cell_volume 2554.972438
_symmetry_space_group_name_H-M "C 2/C"
_symmetry_group_IT_number 15
_symmetry_cell_setting 'monoclinic'
loop_
_space_group_symop_operation_xyz
x,y,z
-x,y,1/2-z
-x,-y,-z
x,-y,1/2+z
1/2+x,1/2+y,z
1/2-x,1/2+y,1/2-z
1/2-x,1/2-y,-z
1/2+x,1/2-y,1/2+z
loop_
_atom_site_type_symbol
_atom_site_label
_atom_site_fract_x
_atom_site_fract_y
_atom_site_fract_z
Si Si1 0.731278 0.875042 0.549618
Si Si2 0.496085 0.317128 0.385959
Si Si3 0.736692 0.115864 0.347056
Si Si4 0.000000 0.598404 0.250000
Si Si5 0.135502 0.514812 0.711463
Si Si6 0.031201 0.319213 0.587779
O O1 0.721501 0.878643 0.672943
O O2 0.718059 0.942038 0.466822
O O3 0.865842 0.843470 0.793233
O O4 0.609786 0.838424 0.248350
O O5 0.500000 0.308881 0.250000
O O6 0.467040 0.251934 0.383079
O O7 0.380290 0.363366 0.174574
O O8 0.635806 0.159729 0.206103
O O9 0.703005 0.047808 0.317404
O O10 0.101290 0.554240 0.523321
O O11 0.054089 0.641883 0.256375
O O12 0.000000 0.500000 0.500000
#
# Coordination Sequence:
#
# PCOD9268607 Si02
#       6
#     8   8   8   4   8   8
#     4  10  22  37  60  85 112 151 187 232 283 327
#     4  10  22  39  56  84 121 148 182 230 287 340
#     4  11  22  36  60  87 111 150 188 234 281 328
#     4  10  20  32  58  84 108 142 196 228 282 306
#     4  11  20  35  60  83 112 143 192 239 267 338
#     4  11  20  37  61  83 111 151 190 232 268 343
#
# _framework density 17.221321
#
# number of rings (size 3 to 8) (size 9 to 14) (size 15 to 20)
#    0.000    1.455    4.545    2.727    0.000    0.727 
#    0.000    0.000    0.000    0.000    0.000    0.000 
#    0.000    0.000    0.000    0.000    0.000    0.000 
#
# Total GULP energy -122828.681346 kJ/mol
# GULP energy per Si atom -5583.121879 kJ/mol
# Density = 1.718212 g / cm^3
# Si number density = 17.221321 Si / 1000 Ang^3
#
#
#
# Elastic Constant Matrix: (Units=GPa)
#
#
# Indices 1 2 3 4 5 6 
#
# 1 92.8694 73.1171 63.2967 0.0000 4.9948 0.0000
# 2 73.1171 134.9272 40.7627 0.0000 13.8724 0.0000
# 3 63.2967 40.7627 91.5886 0.0000 12.6174 0.0000
# 4 0.0000 0.0000 0.0000 5.8153 0.0000 -13.5325
# 5 4.9948 13.8724 12.6174 0.0000 17.2293 0.0000
# 6 0.0000 0.0000 0.0000 -13.5325 0.0000 15.4814
#
#
#
# Elastic Compliance Matrix: (Units=1/GPa)
#
#
# Indices 1 2 3 4 5 6 
#
# 1 0.034927 -0.014586 -0.019875 0.000000 0.016173 0.000000
# 2 -0.014586 0.014989 0.004993 0.000000 -0.011497 0.000000
# 3 -0.019875 0.004993 0.024682 0.000000 -0.016333 0.000000
# 4 0.000000 0.000000 0.000000 -0.166287 0.000000 -0.145354
# 5 0.016173 -0.011497 -0.016333 0.000000 0.074570 0.000000
# 6 0.000000 0.000000 0.000000 -0.145354 0.000000 -0.062462
#
#
# Mechanical properties :
#
#
# Convention : Reuss Voigt Hill
#
# Bulk Modulus (GPa) = 63.84448 74.85980 69.35214
# Shear Modulus (GPa) = -324.12527 17.18578 -153.46974
#
# Velocity S-wave (km/s) = -13.73391 3.16244 -9.45038
# Velocity P-wave (km/s) = 14.64036 7.54310 8.87248
#
# Compressibility (1/GPa) = 0.01566306
#
# Stress axis : x y z
#
# Youngs Moduli (GPa) = 28.63093 66.71575 40.51583
#
# Poissons Ratio (x) = 0.97309 0.80524
# Poissons Ratio (y) = 0.41760 -0.20229
# Poissons Ratio (z) = 0.56903 -0.33310
#
# Static dielectric constant tensor:
#      x y z
#    x 1.579000 0.000000 -0.009110 
#    y 0.000000 1.570970 0.000000 
#    z -0.009110 0.000000 1.566410 
# 
# From -- ./inp_files/78186.got.cif
#   From: 2010.05.17/outbox.cif.g08.bks.cpg/sg15_40_cif.got.tgz:78186.got - 2010.06.03 18:47:42.
