data_PCOD9268688
_publ_section_title
;
Structure prediction by ZEFSAII (Michael W. Deem and Ramdas Pophale) SiO2 
 PCOD9268688
Probable space group: C 2/C
;
_chemical_formula_sum "Si O2"
_cell_formula_units_Z 64
_cell_length_a 23.358983
_cell_length_b 16.281101
_cell_length_c 27.967150
_cell_angle_alpha 90.000000
_cell_angle_beta 19.775434
_cell_angle_gamma 90.000000
_cell_volume 3598.588364
_symmetry_space_group_name_H-M "C 2/C"
_symmetry_group_IT_number 15
_symmetry_cell_setting 'monoclinic'
loop_
_space_group_symop_operation_xyz
x,y,z
-x,y,1/2-z
-x,-y,-z
x,-y,1/2+z
1/2+x,1/2+y,z
1/2-x,1/2+y,1/2-z
1/2-x,1/2-y,-z
1/2+x,1/2-y,1/2+z
loop_
_atom_site_type_symbol
_atom_site_label
_atom_site_fract_x
_atom_site_fract_y
_atom_site_fract_z
Si Si1 0.017343 0.179036 0.463450
Si Si2 0.688701 0.901459 0.703597
Si Si3 0.843173 0.081801 0.782982
Si Si4 0.809268 0.160581 0.008847
Si Si5 0.696440 0.853806 0.490969
Si Si6 0.755116 0.559150 0.783816
Si Si7 0.979567 0.373479 0.028231
Si Si8 0.350257 0.438160 0.713079
O O1 0.176869 0.148901 0.369971
O O2 0.008015 0.276426 0.473417
O O3 0.046044 0.139051 0.388420
O O4 0.851235 0.137176 0.616245
O O5 0.730174 0.885280 0.615956
O O6 0.500133 0.872020 0.863132
O O7 0.705601 0.996501 0.704715
O O8 0.669824 0.105585 0.891773
O O9 0.990549 0.143156 0.650283
O O10 0.894408 0.990325 0.725474
O O11 0.807869 0.094237 0.866488
O O12 0.771647 0.257244 0.043628
O O13 0.738606 0.131710 0.013267
O O14 0.919913 0.584821 0.624529
O O15 0.642067 0.506100 0.835314
O O16 0.156304 0.409316 0.871160
#
# Coordination Sequence:
#
# PCOD9268688 Si02
#       8
#     8   8   8   8   8   8   8   8
#     4  11  20  32  51  75 102 132 166 198 239 296
#     4  11  20  34  51  69 100 138 165 195 246 289
#     4  11  20  34  51  69 100 138 165 195 246 289
#     4  11  22  34  49  72 100 131 171 209 235 274
#     4  11  22  34  49  72 100 131 171 209 235 274
#     4  10  20  33  48  72 101 131 165 202 239 290
#     4  11  20  32  51  75 102 132 166 198 239 296
#     4  10  20  33  48  72 101 131 165 202 239 290
#
# _framework density 17.784752999999998
#
# number of rings (size 3 to 8) (size 9 to 14) (size 15 to 20)
#    0.000    1.250    0.000   11.250    0.000    2.000 
#    0.000    0.000    0.000    0.000    0.000    0.000 
#    0.000   70.000    0.000    0.000    0.000    0.000 
#
# Total GULP energy -178817.221193 kJ/mol
# GULP energy per Si atom -5588.038162 kJ/mol
# Density = 1.774427 g / cm^3
# Si number density = 17.784753 Si / 1000 Ang^3
#
#
#
# Elastic Constant Matrix: (Units=GPa)
#
#
# Indices 1 2 3 4 5 6 
#
# 1 67.9975 35.9400 17.2199 0.0195 23.6764 -0.0062
# 2 35.9400 91.6610 8.1392 -0.0465 17.8908 -0.0129
# 3 17.2199 8.1392 66.7804 -0.0414 23.1718 0.0231
# 4 0.0195 -0.0465 -0.0414 27.5654 0.0066 0.5554
# 5 23.6764 17.8908 23.1718 0.0066 24.7457 -0.0033
# 6 -0.0062 -0.0129 0.0231 0.5554 -0.0033 20.7035
#
#
#
# Elastic Compliance Matrix: (Units=1/GPa)
#
#
# Indices 1 2 3 4 5 6 
#
# 1 0.024597 -0.005705 0.001611 -0.000020 -0.020919 -0.000001
# 2 -0.005705 0.014296 0.002105 0.000033 -0.006849 0.000003
# 3 0.001611 0.002105 0.022761 0.000043 -0.024377 -0.000029
# 4 -0.000020 0.000033 0.000043 0.036297 -0.000055 -0.000974
# 5 -0.020919 -0.006849 -0.024377 -0.000055 0.088204 0.000032
# 6 -0.000001 0.000003 -0.000029 -0.000974 0.000032 0.048327
#
#
# Mechanical properties :
#
#
# Convention : Reuss Voigt Hill
#
# Bulk Modulus (GPa) = 17.33765 38.78189 28.05977
# Shear Modulus (GPa) = 19.40350 25.61225 22.50788
#
# Velocity S-wave (km/s) = 3.30664 3.79901 3.56135
# Velocity P-wave (km/s) = 4.93440 6.41069 5.72037
#
# Compressibility (1/GPa) = 0.05767795
#
# Stress axis : x y z
#
# Youngs Moduli (GPa) = 40.65471 69.94729 43.93523
#
# Poissons Ratio (x) = 0.39902 -0.07078
# Poissons Ratio (y) = 0.23192 -0.09249
# Poissons Ratio (z) = -0.06550 -0.14725
#
# Static dielectric constant tensor:
#      x y z
#    x 1.615980 -0.000010 0.014770 
#    y -0.000010 1.602970 0.000020 
#    z 0.014770 0.000020 1.627660 
# 
# From -- ./inp_files/253244.got.cif
#   From: 2010.05.17/outbox.cif.g08.bks.cpg/sg15_127_cif.got.tgz:253244.got - 2010.06.03 18:47:42.
