data_PCOD9268776
_publ_section_title
;
Structure prediction by ZEFSAII (Michael W. Deem and Ramdas Pophale) SiO2 
 PCOD9268776
Probable space group: C 2/C
;
_chemical_formula_sum "Si O2"
_cell_formula_units_Z 56
_cell_length_a 17.203645
_cell_length_b 10.817463
_cell_length_c 15.956164
_cell_angle_alpha 90.000000
_cell_angle_beta 130.684399
_cell_angle_gamma 90.000000
_cell_volume 2251.760697
_symmetry_space_group_name_H-M "C 2/C"
_symmetry_group_IT_number 15
_symmetry_cell_setting 'monoclinic'
loop_
_space_group_symop_operation_xyz
x,y,z
-x,y,1/2-z
-x,-y,-z
x,-y,1/2+z
1/2+x,1/2+y,z
1/2-x,1/2+y,1/2-z
1/2-x,1/2-y,-z
1/2+x,1/2-y,1/2+z
loop_
_atom_site_type_symbol
_atom_site_label
_atom_site_fract_x
_atom_site_fract_y
_atom_site_fract_z
Si Si1 0.020847 0.636028 0.473489
Si Si2 0.396320 0.245991 0.121299
Si Si3 0.649884 0.525158 0.424411
Si Si4 0.223279 0.156127 0.323720
Si Si5 0.331591 0.856096 0.734513
Si Si6 0.938701 0.731626 0.566514
Si Si7 0.363414 0.901090 0.165438
O O1 0.103941 0.652247 0.458177
O O2 0.000000 0.500000 0.500000
O O3 0.923904 0.695186 0.355959
O O4 0.027523 0.718909 0.560900
O O5 0.500000 0.229508 0.250000
O O6 0.388139 0.387274 0.087213
O O7 0.312657 0.215913 0.134838
O O8 0.673779 0.545986 0.342769
O O9 0.573755 0.632642 0.403361
O O10 0.755213 0.558537 0.546054
O O11 0.241923 0.129576 0.239288
O O12 0.332506 0.191711 0.444556
O O13 0.156528 0.275706 0.298457
O O14 0.378406 0.986339 0.738100
O O15 0.938537 0.632866 0.641843
#
# Coordination Sequence:
#
# PCOD9268776 Si02
#       7
#     8   8   8   8   8   8   8
#     4  10  20  37  54  71 104 150 183 210 259 320
#     4  10  22  36  52  79 111 144 175 217 267 315
#     4   9  18  35  55  77 105 138 175 217 269 322
#     4   8  17  32  53  76 105 140 166 213 275 316
#     4  10  20  33  52  78 108 135 170 225 270 308
#     4   8  16  34  56  71 102 143 176 208 264 320
#     4   9  17  33  54  80 101 134 177 219 268 314
#
# _framework density 24.869427000000002
#
# number of rings (size 3 to 8) (size 9 to 14) (size 15 to 20)
#    0.000    2.857    0.000    2.571    2.000    1.143 
#    2.571    2.857    0.000    0.000    0.000    0.000 
#    0.000    0.000    0.000    0.000    0.000    0.000 
#
# Total GULP energy -156314.891561 kJ/mol
# GULP energy per Si atom -5582.674699 kJ/mol
# Density = 2.481282 g / cm^3
# Si number density = 24.869427 Si / 1000 Ang^3
#
#
#
# Elastic Constant Matrix: (Units=GPa)
#
#
# Indices 1 2 3 4 5 6 
#
# 1 109.6048 51.5239 69.0231 0.0000 -58.6417 0.0000
# 2 51.5239 140.5079 29.5780 0.0000 -39.7460 0.0000
# 3 69.0231 29.5780 97.7626 0.0000 -40.7439 0.0000
# 4 0.0000 0.0000 0.0000 24.7909 0.0000 1.6434
# 5 -58.6417 -39.7460 -40.7439 0.0000 59.6007 0.0000
# 6 0.0000 0.0000 0.0000 1.6434 0.0000 33.1340
#
#
#
# Elastic Compliance Matrix: (Units=1/GPa)
#
#
# Indices 1 2 3 4 5 6 
#
# 1 0.025783 -0.002585 -0.010582 0.000000 0.016410 0.000000
# 2 -0.002585 0.009037 0.000759 0.000000 0.004002 0.000000
# 3 -0.010582 0.000759 0.018658 0.000000 0.002849 0.000000
# 4 0.000000 0.000000 0.000000 0.040470 0.000000 -0.002007
# 5 0.016410 0.004002 0.002849 0.000000 0.037541 0.000000
# 6 0.000000 0.000000 0.000000 -0.002007 0.000000 0.030280
#
#
# Mechanical properties :
#
#
# Convention : Reuss Voigt Hill
#
# Bulk Modulus (GPa) = 34.89041 72.01393 53.45217
# Shear Modulus (GPa) = 25.49208 36.68846 31.09027
#
# Velocity S-wave (km/s) = 3.20509 3.84506 3.53957
# Velocity P-wave (km/s) = 5.26847 6.98085 6.18421
#
# Compressibility (1/GPa) = 0.02866117
#
# Stress axis : x y z
#
# Youngs Moduli (GPa) = 38.78581 110.65290 53.59648
#
# Poissons Ratio (x) = 0.28602 0.56717
# Poissons Ratio (y) = 0.10026 -0.04066
# Poissons Ratio (z) = 0.41044 -0.08395
#
# Static dielectric constant tensor:
#      x y z
#    x 2.091280 0.000000 0.057710 
#    y 0.000000 1.922140 0.000000 
#    z 0.057710 0.000000 2.089050 
# 
# From -- ./inp_files/161428.got.cif
#   From: 2010.05.17/outbox.cif.g08.bks.cpg/sg15_81_cif.got.tgz:161428.got - 2010.06.03 18:47:42.
