data_PCOD9268667
_publ_section_title
;
Structure prediction by ZEFSAII (Michael W. Deem and Ramdas Pophale) SiO2 
 PCOD9268667
Probable space group: C 2/C
;
_chemical_formula_sum "Si O2"
_cell_formula_units_Z 60
_cell_length_a 25.606581
_cell_length_b 8.372468
_cell_length_c 19.737989
_cell_angle_alpha 90.000000
_cell_angle_beta 139.934948
_cell_angle_gamma 90.000000
_cell_volume 2723.719942
_symmetry_space_group_name_H-M "C 2/C"
_symmetry_group_IT_number 15
_symmetry_cell_setting 'monoclinic'
loop_
_space_group_symop_operation_xyz
x,y,z
-x,y,1/2-z
-x,-y,-z
x,-y,1/2+z
1/2+x,1/2+y,z
1/2-x,1/2+y,1/2-z
1/2-x,1/2-y,-z
1/2+x,1/2-y,1/2+z
loop_
_atom_site_type_symbol
_atom_site_label
_atom_site_fract_x
_atom_site_fract_y
_atom_site_fract_z
Si Si1 0.102837 0.631046 0.222355
Si Si2 0.000000 0.306133 0.750000
Si Si3 0.008376 0.191878 0.993294
Si Si4 0.821757 0.397443 0.997691
Si Si5 0.009431 0.766936 0.871943
Si Si6 0.332761 0.179755 0.665100
Si Si7 0.903542 0.893254 0.046948
Si Si8 0.757096 0.737688 0.927343
O O1 0.045050 0.608153 0.231783
O O2 0.059522 0.706617 0.114654
O O3 0.148719 0.462768 0.263845
O O4 0.168903 0.762338 0.308501
O O5 0.935517 0.200647 0.644589
O O6 0.077753 0.193326 0.005479
O O7 0.013686 0.265042 0.072742
O O8 0.000000 0.000000 0.000000
O O9 0.745577 0.289303 0.896124
O O10 0.805175 0.577235 0.957739
O O11 0.913510 0.343736 0.071021
O O12 0.815853 0.389978 0.073479
O O13 0.922053 0.764897 0.747806
O O14 0.049120 0.941624 0.905366
O O15 0.807573 0.893918 0.956245
O O16 0.750000 0.750000 0.000000
#
# Coordination Sequence:
#
# PCOD9268667 Si02
#       8
#     8   4   8   8   8   8   8   8
#     4  11  23  42  67  96 136 178 229 280 351 414
#     4  10  20  32  66  96 122 168 224 272 334 406
#     4   9  23  46  68  99 131 176 240 277 323 427
#     4  11  26  42  63 107 141 168 234 288 347 424
#     4  11  25  44  69  96 140 181 221 285 350 412
#     4  11  25  41  69 100 140 178 220 292 357 411
#     4  10  22  40  68  96 129 174 227 275 345 414
#     4  12  23  42  67  98 138 175 223 294 347 409
#
# _framework density 22.028697000000001
#
# number of rings (size 3 to 8) (size 9 to 14) (size 15 to 20)
#    0.000    1.333    2.667    1.200   14.933    0.533 
#    2.400    0.000    0.000    0.000    0.000    0.000 
#    0.000    0.000    0.000    0.000    0.000    0.000 
#
# Total GULP energy -167245.664345 kJ/mol
# GULP energy per Si atom -5574.855478 kJ/mol
# Density = 2.197856 g / cm^3
# Si number density = 22.028697 Si / 1000 Ang^3
#
#
#
# Elastic Constant Matrix: (Units=GPa)
#
#
# Indices 1 2 3 4 5 6 
#
# 1 66.9014 19.9939 37.1889 0.0000 5.2137 0.0000
# 2 19.9939 82.2559 50.5976 0.0000 10.5060 0.0000
# 3 37.1889 50.5976 113.2137 0.0000 14.8078 0.0000
# 4 0.0000 0.0000 0.0000 44.0974 0.0000 10.2353
# 5 5.2137 10.5060 14.8078 0.0000 38.4451 0.0000
# 6 0.0000 0.0000 0.0000 10.2353 0.0000 31.3953
#
#
#
# Elastic Compliance Matrix: (Units=1/GPa)
#
#
# Indices 1 2 3 4 5 6 
#
# 1 0.018351 -0.001034 -0.005557 0.000000 -0.000066 0.000000
# 2 -0.001034 0.016942 -0.006997 0.000000 -0.001794 0.000000
# 3 -0.005557 -0.006997 0.014150 0.000000 -0.002784 0.000000
# 4 0.000000 0.000000 0.000000 0.024534 0.000000 -0.007998
# 5 -0.000066 -0.001794 -0.002784 0.000000 0.027583 0.000000
# 6 0.000000 0.000000 0.000000 -0.007998 0.000000 0.034460
#
#
# Mechanical properties :
#
#
# Convention : Reuss Voigt Hill
#
# Bulk Modulus (GPa) = 44.91264 53.10354 49.00809
# Shear Modulus (GPa) = 29.30542 33.09359 31.19950
#
# Velocity S-wave (km/s) = 3.65132 3.88015 3.76747
# Velocity P-wave (km/s) = 6.18132 6.65078 6.42035
#
# Compressibility (1/GPa) = 0.02226545
#
# Stress axis : x y z
#
# Youngs Moduli (GPa) = 54.49416 59.02510 70.67215
#
# Poissons Ratio (x) = 0.06101 0.39275
# Poissons Ratio (y) = 0.05633 0.49453
# Poissons Ratio (z) = 0.30284 0.41303
#
# Static dielectric constant tensor:
#      x y z
#    x 1.816500 0.000000 0.048230 
#    y 0.000000 1.918350 0.000000 
#    z 0.048230 0.000000 1.824150 
# 
# From -- ./inp_files/255203.got.cif
#   From: 2010.05.17/outbox.cif.g08.bks.cpg/sg15_128_cif.got.tgz:255203.got - 2010.06.03 18:47:42.
