data_PCOD9268590
_publ_section_title
;
Structure prediction by ZEFSAII (Michael W. Deem and Ramdas Pophale) SiO2 
 PCOD9268590
Probable space group: C 2/C
;
_chemical_formula_sum "Si O2"
_cell_formula_units_Z 52
_cell_length_a 15.826675
_cell_length_b 13.707335
_cell_length_c 17.079336
_cell_angle_alpha 90.000000
_cell_angle_beta 43.266798
_cell_angle_gamma 90.000000
_cell_volume 2539.543048
_symmetry_space_group_name_H-M "C 2/C"
_symmetry_group_IT_number 15
_symmetry_cell_setting 'monoclinic'
loop_
_space_group_symop_operation_xyz
x,y,z
-x,y,1/2-z
-x,-y,-z
x,-y,1/2+z
1/2+x,1/2+y,z
1/2-x,1/2+y,1/2-z
1/2-x,1/2-y,-z
1/2+x,1/2-y,1/2+z
loop_
_atom_site_type_symbol
_atom_site_label
_atom_site_fract_x
_atom_site_fract_y
_atom_site_fract_z
Si Si1 0.545568 0.116244 0.591028
Si Si2 0.896783 0.432072 0.756433
Si Si3 0.000000 0.971597 0.750000
Si Si4 0.106454 0.198498 0.279890
Si Si5 0.118785 0.293198 0.880180
Si Si6 0.208873 0.030368 0.995498
Si Si7 0.475150 0.388508 0.998811
O O1 0.490026 0.214247 0.667468
O O2 0.554005 0.143480 0.493203
O O3 0.679275 0.082515 0.533094
O O4 0.451464 0.029883 0.677859
O O5 0.879459 0.353644 0.700334
O O6 0.776013 0.459373 0.888345
O O7 0.000000 0.401327 0.750000
O O8 0.920128 0.897267 0.751897
O O9 0.104543 0.018021 0.622825
O O10 0.245921 0.228520 0.177388
O O11 0.089725 0.161959 0.379856
O O12 0.061245 0.185699 0.908966
O O13 0.131478 0.107502 0.995953
O O14 0.500000 0.500000 0.000000
#
# Coordination Sequence:
#
# PCOD9268590 Si02
#       7
#     8   8   4   8   8   8   8
#     4  10  21  36  60  95 123 160 205 270 325 379
#     4  10  22  38  62  88 124 170 220 259 306 375
#     4  10  20  32  56  94 134 160 202 248 332 378
#     4  10  21  31  58  92 123 157 199 253 322 384
#     4  11  21  38  62  88 126 166 209 262 319 386
#     4  10  20  38  62  91 129 162 207 263 323 381
#     4  10  22  37  58  86 123 163 206 258 312 371
#
# _framework density 20.476123999999999
#
# number of rings (size 3 to 8) (size 9 to 14) (size 15 to 20)
#    0.000    1.846    1.538    2.308    5.385    1.846 
#    0.000    0.000    6.769    7.385    0.000    0.000 
#    0.000    0.000    0.000    0.000    0.000    0.000 
#
# Total GULP energy -144903.900002 kJ/mol
# GULP energy per Si atom -5573.226923 kJ/mol
# Density = 2.042952 g / cm^3
# Si number density = 20.476124 Si / 1000 Ang^3
#
#
#
# Elastic Constant Matrix: (Units=GPa)
#
#
# Indices 1 2 3 4 5 6 
#
# 1 56.9020 30.4254 37.9908 0.0000 11.7250 0.0000
# 2 30.4254 97.3508 52.9181 0.0000 9.9503 0.0000
# 3 37.9908 52.9181 159.6090 0.0000 9.6915 0.0000
# 4 0.0000 0.0000 0.0000 27.4136 0.0000 4.1023
# 5 11.7250 9.9503 9.6915 0.0000 25.6792 0.0000
# 6 0.0000 0.0000 0.0000 4.1023 0.0000 4.0863
#
#
#
# Elastic Compliance Matrix: (Units=1/GPa)
#
#
# Indices 1 2 3 4 5 6 
#
# 1 0.024200 -0.004747 -0.003712 0.000000 -0.007809 0.000000
# 2 -0.004747 0.013752 -0.003314 0.000000 -0.001911 0.000000
# 3 -0.003712 -0.003314 0.008256 0.000000 -0.000137 0.000000
# 4 0.000000 0.000000 0.000000 0.042927 0.000000 -0.043094
# 5 -0.007809 -0.001911 -0.000137 0.000000 0.043300 0.000000
# 6 0.000000 0.000000 0.000000 -0.043094 0.000000 0.287980
#
#
# Mechanical properties :
#
#
# Convention : Reuss Voigt Hill
#
# Bulk Modulus (GPa) = 44.12638 61.83672 52.98155
# Shear Modulus (GPa) = 11.07383 24.27100 17.67242
#
# Velocity S-wave (km/s) = 2.32807 3.44660 2.94100
# Velocity P-wave (km/s) = 5.36875 6.78997 6.12075
#
# Compressibility (1/GPa) = 0.02266218
#
# Stress axis : x y z
#
# Youngs Moduli (GPa) = 41.32244 72.71502 121.12719
#
# Poissons Ratio (x) = 0.34520 0.44963
# Poissons Ratio (y) = 0.19617 0.40136
# Poissons Ratio (z) = 0.15339 0.24095
#
# Static dielectric constant tensor:
#      x y z
#    x 1.772780 0.000000 0.012030 
#    y 0.000000 1.712220 0.000000 
#    z 0.012030 0.000000 1.816520 
# 
# From -- ./inp_files/205651.got.cif
#   From: 2010.05.17/outbox.cif.g08.bks.cpg/sg15_103_cif.got.tgz:205651.got - 2010.06.03 18:47:42.
