data_PCOD9268043
_publ_section_title
;
Structure prediction by ZEFSAII (Michael W. Deem and Ramdas Pophale) SiO2 
 PCOD9268043
Probable space group: C 2/C
;
_chemical_formula_sum "Si O2"
_cell_formula_units_Z 48
_cell_length_a 10.694145
_cell_length_b 12.491714
_cell_length_c 22.015199
_cell_angle_alpha 90.000000
_cell_angle_beta 53.281549
_cell_angle_gamma 90.000000
_cell_volume 2357.432655
_symmetry_space_group_name_H-M "C 2/C"
_symmetry_group_IT_number 15
_symmetry_cell_setting 'monoclinic'
loop_
_space_group_symop_operation_xyz
x,y,z
-x,y,1/2-z
-x,-y,-z
x,-y,1/2+z
1/2+x,1/2+y,z
1/2-x,1/2+y,1/2-z
1/2-x,1/2-y,-z
1/2+x,1/2-y,1/2+z
loop_
_atom_site_type_symbol
_atom_site_label
_atom_site_fract_x
_atom_site_fract_y
_atom_site_fract_z
Si Si1 0.832586 0.826794 0.024122
Si Si2 0.594286 0.547529 0.379131
Si Si3 0.914324 0.356949 0.838845
Si Si4 0.628916 0.713367 0.265235
Si Si5 0.554590 0.292262 0.385208
Si Si6 0.019141 0.581132 0.671136
O O1 0.938185 0.769946 0.044853
O O2 0.689689 0.880879 0.101612
O O3 0.750000 0.750000 0.000000
O O4 0.941256 0.911403 0.958520
O O5 0.745880 0.592730 0.371244
O O6 0.611436 0.609353 0.310783
O O7 0.423817 0.579301 0.625791
O O8 0.004476 0.459511 0.842153
O O9 0.000000 0.327832 0.750000
O O10 0.916656 0.259402 0.885428
O O11 0.500000 0.708029 0.250000
O O12 0.794631 0.735284 0.187706
O O13 0.591782 0.821001 0.315280
O O14 0.000000 0.573310 0.750000
#
# Coordination Sequence:
#
# PCOD9268043 Si02
#       6
#     8   8   8   8   8   8
#     4  12  23  42  66  94 130 175 219 270 333 388
#     4  12  24  42  66  95 139 165 214 284 324 393
#     4  11  23  42  68  98 128 171 221 270 332 397
#     4  11  20  40  67  92 123 172 220 265 325 385
#     4  12  24  41  70  96 129 176 217 267 338 399
#     4  10  19  41  68  90 124 175 218 257 332 396
#
# _framework density 20.361132000000001
#
# number of rings (size 3 to 8) (size 9 to 14) (size 15 to 20)
#    0.000    0.667    8.333    1.500    0.000    1.333 
#    0.000    2.500    0.000    0.000    0.000    0.000 
#    0.000    0.000    0.000    0.000    0.000    0.000 
#
# Total GULP energy -133877.827177 kJ/mol
# GULP energy per Si atom -5578.242799 kJ/mol
# Density = 2.031479 g / cm^3
# Si number density = 20.361132 Si / 1000 Ang^3
#
#
#
# Elastic Constant Matrix: (Units=GPa)
#
#
# Indices 1 2 3 4 5 6 
#
# 1 78.3405 66.1514 20.6752 0.0000 12.0009 0.0000
# 2 66.1514 143.7753 35.4278 0.0000 24.2266 0.0000
# 3 20.6752 35.4278 94.0813 0.0000 -3.1853 0.0000
# 4 0.0000 0.0000 0.0000 -7.7634 0.0000 13.0848
# 5 12.0009 24.2266 -3.1853 0.0000 33.7411 0.0000
# 6 0.0000 0.0000 0.0000 13.0848 0.0000 29.5294
#
#
#
# Elastic Compliance Matrix: (Units=1/GPa)
#
#
# Indices 1 2 3 4 5 6 
#
# 1 0.021000 -0.009208 -0.001180 0.000000 -0.000969 0.000000
# 2 -0.009208 0.013029 -0.003099 0.000000 -0.006373 0.000000
# 3 -0.001180 -0.003099 0.012184 0.000000 0.003795 0.000000
# 4 0.000000 0.000000 0.000000 -0.073739 0.000000 0.032674
# 5 -0.000969 -0.006373 0.003795 0.000000 0.034916 0.000000
# 6 0.000000 0.000000 0.000000 0.032674 0.000000 0.019386
#
#
# Mechanical properties :
#
#
# Convention : Reuss Voigt Hill
#
# Bulk Modulus (GPa) = 51.97710 62.30065 57.13888
# Shear Modulus (GPa) = 83.10673 24.03095 53.56884
#
# Velocity S-wave (km/s) = 6.39570 3.43918 5.13483
# Velocity P-wave (km/s) = 8.95114 6.81432 7.95481
#
# Compressibility (1/GPa) = 0.01923924
#
# Stress axis : x y z
#
# Youngs Moduli (GPa) = 47.61877 76.75025 82.07628
#
# Poissons Ratio (x) = 0.70672 0.09688
# Poissons Ratio (y) = 0.43848 0.25432
# Poissons Ratio (z) = 0.05621 0.23782
#
# Static dielectric constant tensor:
#      x y z
#    x 1.820640 0.000000 -0.018740 
#    y 0.000000 1.778140 0.000000 
#    z -0.018740 0.000000 1.730290 
# 
# From -- ./inp_files/239224.got.cif
#   From: 2010.05.17/outbox.cif.g08.bks.cpg/sg15_120_cif.got.tgz:239224.got - 2010.06.03 18:47:42.
