data_PCOD9268809
_publ_section_title
;
Structure prediction by ZEFSAII (Michael W. Deem and Ramdas Pophale) SiO2 
 PCOD9268809
Probable space group: C 2/C
;
_chemical_formula_sum "Si O2"
_cell_formula_units_Z 64
_cell_length_a 19.478198
_cell_length_b 23.461450
_cell_length_c 8.776858
_cell_angle_alpha 90.000000
_cell_angle_beta 90.000000
_cell_angle_gamma 90.000000
_cell_volume 4010.907975
_symmetry_space_group_name_H-M "C 2/C"
_symmetry_group_IT_number 15
_symmetry_cell_setting 'monoclinic'
loop_
_space_group_symop_operation_xyz
x,y,z
-x,y,1/2-z
-x,-y,-z
x,-y,1/2+z
1/2+x,1/2+y,z
1/2-x,1/2+y,1/2-z
1/2-x,1/2-y,-z
1/2+x,1/2-y,1/2+z
loop_
_atom_site_type_symbol
_atom_site_label
_atom_site_fract_x
_atom_site_fract_y
_atom_site_fract_z
Si Si1 0.363233 0.437170 0.568317
Si Si2 0.500000 0.379844 0.432629
Si Si3 0.644284 0.230602 0.568441
Si Si4 0.136767 0.062830 0.068317
Si Si5 0.000000 0.255749 0.568199
Si Si6 0.855716 0.730602 0.568441
Si Si7 0.221912 0.839279 0.068757
Si Si8 0.721912 0.339279 0.431243
O O1 0.432632 0.408908 0.502178
O O2 0.355844 0.500000 0.500000
O O3 0.367367 0.439602 0.750000
O O4 0.301682 0.396060 0.515390
O O5 0.500000 0.386971 0.250000
O O6 0.567369 0.408908 0.502178
O O7 0.500000 0.312299 0.466020
O O8 0.569229 0.219134 0.503078
O O9 0.641350 0.240048 0.750000
O O10 0.673918 0.287541 0.489318
O O11 0.700405 0.181390 0.539071
O O12 0.198318 0.103940 0.015390
O O13 0.000000 0.262319 0.750000
O O14 0.069229 0.280866 0.496922
O O15 0.826082 0.787541 0.489318
O O16 0.799595 0.681390 0.539071
O O17 0.212239 0.845800 0.250000
#
# Coordination Sequence:
#
# PCOD9268809 Si02
#       8
#     8   8   8   8   8   8   8   8
#     4  12  24  37  54  74 101 139 178 217 256 304
#     4  11  22  36  51  73 105 140 177 217 252 297
#     4  10  20  33  53  76 103 135 170 211 258 308
#     4  12  24  37  54  74 101 139 178 217 256 304
#     4  11  21  32  52  77 107 140 172 212 255 306
#     4  10  20  33  53  76 103 135 170 211 258 308
#     4  10  20  35  52  75 103 133 171 215 257 303
#     4  10  20  35  52  75 103 133 171 215 257 303
#
# _framework density 15.956486
#
# number of rings (size 3 to 8) (size 9 to 14) (size 15 to 20)
#    0.000    1.250    2.500    4.875    0.000    4.000 
#    0.000    0.000    0.000    0.000    0.000    0.875 
#    0.000    0.000    0.000    0.000    0.000    0.000 
#
# Total GULP energy -178834.420574 kJ/mol
# GULP energy per Si atom -5588.575643 kJ/mol
# Density = 1.592017 g / cm^3
# Si number density = 15.956486 Si / 1000 Ang^3
#
#
#
# Elastic Constant Matrix: (Units=GPa)
#
#
# Indices 1 2 3 4 5 6 
#
# 1 127.5242 40.7756 56.4242 0.0000 -0.0001 0.0000
# 2 40.7756 69.0186 48.9137 0.0000 0.0000 0.0000
# 3 56.4242 48.9137 100.0050 0.0000 0.0000 0.0000
# 4 0.0000 0.0000 0.0000 25.7473 0.0000 0.0000
# 5 -0.0001 0.0000 0.0000 0.0000 28.0505 0.0000
# 6 0.0000 0.0000 0.0000 0.0000 0.0000 16.0681
#
#
#
# Elastic Compliance Matrix: (Units=1/GPa)
#
#
# Indices 1 2 3 4 5 6 
#
# 1 0.010889 -0.003182 -0.004587 0.000000 0.000000 0.000000
# 2 -0.003182 0.023106 -0.009506 0.000000 0.000000 0.000000
# 3 -0.004587 -0.009506 0.017237 0.000000 0.000000 0.000000
# 4 0.000000 0.000000 0.000000 0.038839 0.000000 0.000000
# 5 0.000000 0.000000 0.000000 0.000000 0.035650 0.000000
# 6 0.000000 0.000000 0.000000 0.000000 0.000000 0.062235
#
#
# Mechanical properties :
#
#
# Convention : Reuss Voigt Hill
#
# Bulk Modulus (GPa) = 59.94764 65.41941 62.68353
# Shear Modulus (GPa) = 21.92345 24.00214 22.96279
#
# Velocity S-wave (km/s) = 3.71071 3.88264 3.79765
# Velocity P-wave (km/s) = 7.48399 7.82224 7.65499
#
# Compressibility (1/GPa) = 0.01668122
#
# Stress axis : x y z
#
# Youngs Moduli (GPa) = 91.83794 43.27949 58.01425
#
# Poissons Ratio (x) = 0.13772 0.26612
# Poissons Ratio (y) = 0.29223 0.55148
# Poissons Ratio (z) = 0.42128 0.41141
#
# Static dielectric constant tensor:
#      x y z
#    x 1.537790 0.000000 0.000000 
#    y 0.000000 1.508320 0.000000 
#    z 0.000000 0.000000 1.530720 
# 
# From -- ./inp_files/51234.got.cif
#   From: 2010.05.17/outbox.cif.g08.bks.cpg/sg15_26_cif.got.tgz:51234.got - 2010.06.03 18:47:42.
