data_PCOD9268131
_publ_section_title
;
Structure prediction by ZEFSAII (Michael W. Deem and Ramdas Pophale) SiO2 
 PCOD9268131
Probable space group: C 2/C
;
_chemical_formula_sum "Si O2"
_cell_formula_units_Z 44
_cell_length_a 10.818970
_cell_length_b 11.501566
_cell_length_c 13.635502
_cell_angle_alpha 90.000000
_cell_angle_beta 118.818568
_cell_angle_gamma 90.000000
_cell_volume 1486.595255
_symmetry_space_group_name_H-M "C 2/C"
_symmetry_group_IT_number 15
_symmetry_cell_setting 'monoclinic'
loop_
_space_group_symop_operation_xyz
x,y,z
-x,y,1/2-z
-x,-y,-z
x,-y,1/2+z
1/2+x,1/2+y,z
1/2-x,1/2+y,1/2-z
1/2-x,1/2-y,-z
1/2+x,1/2-y,1/2+z
loop_
_atom_site_type_symbol
_atom_site_label
_atom_site_fract_x
_atom_site_fract_y
_atom_site_fract_z
Si Si1 0.791697 0.938997 0.195007
Si Si2 0.315624 0.809272 0.626672
Si Si3 0.500000 0.158714 0.750000
Si Si4 0.941606 0.131144 0.359848
Si Si5 0.303600 0.647976 0.916997
Si Si6 0.075220 0.378085 0.615236
O O1 0.825255 0.831407 0.137887
O O2 0.836089 0.890803 0.319495
O O3 0.877542 0.057662 0.245574
O O4 0.633729 0.991654 0.120857
O O5 0.157866 0.858969 0.581808
O O6 0.410855 0.853454 0.573835
O O7 0.372776 0.852208 0.753757
O O8 0.561205 0.240704 0.688168
O O9 0.639494 0.108278 0.855217
O O10 0.095450 0.099635 0.460095
O O11 0.348001 0.785388 0.927904
#
# Coordination Sequence:
#
# PCOD9268131 Si02
#       6
#     8   8   4   8   8   8
#     4  10  19  42  67  98 130 182 221 274 357 414
#     4   9  19  39  65  94 136 176 220 286 348 411
#     4  12  22  44  62  82 138 176 214 290 336 398
#     4  11  23  40  65  97 130 178 233 279 344 422
#     4  11  23  40  65  97 130 178 233 279 344 422
#     4   9  19  39  65  94 136 176 220 286 348 411
#
# _framework density 29.597833999999999
#
# number of rings (size 3 to 8) (size 9 to 14) (size 15 to 20)
#    0.000    1.818    5.455    1.091    0.000    6.545 
#    0.000    0.909    0.000    3.273    0.000    0.000 
#    0.000    0.000    0.000    0.000    0.000    0.000 
#
# Total GULP energy -122888.569292 kJ/mol
# GULP energy per Si atom -5585.844059 kJ/mol
# Density = 2.953047 g / cm^3
# Si number density = 29.597834 Si / 1000 Ang^3
#
#
#
# Elastic Constant Matrix: (Units=GPa)
#
#
# Indices 1 2 3 4 5 6 
#
# 1 143.5155 53.1694 62.5117 0.0000 39.3974 0.0000
# 2 53.1694 164.8362 26.4316 0.0000 0.9785 0.0000
# 3 62.5117 26.4316 192.4514 0.0000 14.5039 0.0000
# 4 0.0000 0.0000 0.0000 15.9257 0.0000 -8.5660
# 5 39.3974 0.9785 14.5039 0.0000 47.1789 0.0000
# 6 0.0000 0.0000 0.0000 -8.5660 0.0000 21.8934
#
#
#
# Elastic Compliance Matrix: (Units=1/GPa)
#
#
# Indices 1 2 3 4 5 6 
#
# 1 0.011856 -0.003335 -0.002715 0.000000 -0.008997 0.000000
# 2 -0.003335 0.007142 -0.000099 0.000000 0.002668 0.000000
# 3 -0.002715 -0.000099 0.006061 0.000000 0.000406 0.000000
# 4 0.000000 0.000000 0.000000 0.079528 0.000000 0.031116
# 5 -0.008997 0.002668 0.000406 0.000000 0.028529 0.000000
# 6 0.000000 0.000000 0.000000 0.031116 0.000000 0.057850
#
#
# Mechanical properties :
#
#
# Convention : Reuss Voigt Hill
#
# Bulk Modulus (GPa) = 78.36128 87.22539 82.79334
# Shear Modulus (GPa) = 24.09433 40.91230 32.50331
#
# Velocity S-wave (km/s) = 2.85626 3.72193 3.31745
# Velocity P-wave (km/s) = 6.11641 6.92853 6.53510
#
# Compressibility (1/GPa) = 0.01276140
#
# Stress axis : x y z
#
# Youngs Moduli (GPa) = 84.34639 140.00723 164.99175
#
# Poissons Ratio (x) = 0.46699 0.44793
# Poissons Ratio (y) = 0.28134 0.01626
# Poissons Ratio (z) = 0.22899 0.01380
#
# Static dielectric constant tensor:
#      x y z
#    x 2.598620 0.000000 0.223650 
#    y 0.000000 2.455980 0.000000 
#    z 0.223650 0.000000 2.278690 
# 
# From -- ./inp_files/237297.got.cif
#   From: 2010.05.17/outbox.cif.g08.bks.cpg/sg15_119_cif.got.tgz:237297.got - 2010.06.03 18:47:42.
