data_PCOD9268428
_publ_section_title
;
Structure prediction by ZEFSAII (Michael W. Deem and Ramdas Pophale) SiO2 
 PCOD9268428
Probable space group: C 2/C
;
_chemical_formula_sum "Si O2"
_cell_formula_units_Z 40
_cell_length_a 8.473587
_cell_length_b 10.560945
_cell_length_c 15.766000
_cell_angle_alpha 90.000000
_cell_angle_beta 91.030061
_cell_angle_gamma 90.000000
_cell_volume 1410.656936
_symmetry_space_group_name_H-M "C 2/C"
_symmetry_group_IT_number 15
_symmetry_cell_setting 'monoclinic'
loop_
_space_group_symop_operation_xyz
x,y,z
-x,y,1/2-z
-x,-y,-z
x,-y,1/2+z
1/2+x,1/2+y,z
1/2-x,1/2+y,1/2-z
1/2-x,1/2-y,-z
1/2+x,1/2-y,1/2+z
loop_
_atom_site_type_symbol
_atom_site_label
_atom_site_fract_x
_atom_site_fract_y
_atom_site_fract_z
Si Si1 0.985006 0.342073 0.095949
Si Si2 0.759817 0.943254 0.294186
Si Si3 0.750000 0.250000 0.500000
Si Si4 0.500000 0.152178 0.250000
Si Si5 0.420373 0.452780 0.117462
Si Si6 0.352178 0.122503 0.412017
O O1 0.867149 0.341988 0.173068
O O2 0.137309 0.257939 0.083991
O O3 0.056266 0.486690 0.095410
O O4 0.890913 0.333949 0.006502
O O5 0.652594 0.066645 0.275417
O O6 0.845201 0.909295 0.207487
O O7 0.893928 0.968234 0.365220
O O8 0.636603 0.361909 0.457870
O O9 0.436721 0.205773 0.339521
O O10 0.329473 0.586297 0.101223
#
# Coordination Sequence:
#
# PCOD9268428 Si02
#       6
#     8   8   4   4   8   8
#     4   9  17  30  49  73  99 133 172 215 261 316
#     4   9  17  31  52  73  98 136 182 220 267 331
#     4  10  20  32  48  72 104 136 176 216 262 320
#     4   8  14  28  50  72  98 132 170 218 268 320
#     4   9  18  32  51  76 101 136 181 224 268 328
#     4   8  15  29  49  72  99 130 168 212 265 315
#
# _framework density 28.355582999999999
#
# number of rings (size 3 to 8) (size 9 to 14) (size 15 to 20)
#    0.000    3.200    0.000    1.200    0.000    1.600 
#    0.000    2.000    0.000    2.400    0.000   22.400 
#    0.000    0.000    0.000    0.000    0.000    0.000 
#
# Total GULP energy -111441.776410 kJ/mol
# GULP energy per Si atom -5572.088820 kJ/mol
# Density = 2.829104 g / cm^3
# Si number density = 28.355583 Si / 1000 Ang^3
#
#
#
# Elastic Constant Matrix: (Units=GPa)
#
#
# Indices 1 2 3 4 5 6 
#
# 1 168.3683 23.0683 24.8541 0.0000 4.6159 0.0000
# 2 23.0683 80.7897 27.7098 0.0000 9.2835 0.0000
# 3 24.8541 27.7098 112.6676 0.0000 1.8355 0.0000
# 4 0.0000 0.0000 0.0000 39.2301 0.0000 -9.2493
# 5 4.6159 9.2835 1.8355 0.0000 65.9719 0.0000
# 6 0.0000 0.0000 0.0000 -9.2493 0.0000 34.7649
#
#
#
# Elastic Compliance Matrix: (Units=1/GPa)
#
#
# Indices 1 2 3 4 5 6 
#
# 1 0.006292 -0.001417 -0.001036 0.000000 -0.000212 0.000000
# 2 -0.001417 0.014057 -0.003115 0.000000 -0.001792 0.000000
# 3 -0.001036 -0.003115 0.009867 0.000000 0.000236 0.000000
# 4 0.000000 0.000000 0.000000 0.027197 0.000000 0.007236
# 5 -0.000212 -0.001792 0.000236 0.000000 0.015418 0.000000
# 6 0.000000 0.000000 0.000000 0.007236 0.000000 0.030690
#
#
# Mechanical properties :
#
#
# Convention : Reuss Voigt Hill
#
# Bulk Modulus (GPa) = 52.41417 57.01002 54.71210
# Shear Modulus (GPa) = 41.31650 47.07295 44.19473
#
# Velocity S-wave (km/s) = 3.82132 4.07885 3.95218
# Velocity P-wave (km/s) = 6.16398 6.50628 6.33744
#
# Compressibility (1/GPa) = 0.01907881
#
# Stress axis : x y z
#
# Youngs Moduli (GPa) = 158.92550 71.13950 101.35208
#
# Poissons Ratio (x) = 0.10080 0.10501
# Poissons Ratio (y) = 0.22518 0.31576
# Poissons Ratio (z) = 0.16467 0.22163
#
# Static dielectric constant tensor:
#      x y z
#    x 2.226860 0.000000 0.038100 
#    y 0.000000 2.520420 0.000000 
#    z 0.038100 0.000000 2.173490 
# 
# From -- ./inp_files/133927.got.cif
#   From: 2010.05.17/outbox.cif.g08.bks.cpg/sg15_67_cif.got.tgz:133927.got - 2010.06.03 18:47:42.
