data_PCOD9268614
_publ_section_title
;
Structure prediction by ZEFSAII (Michael W. Deem and Ramdas Pophale) SiO2 
 PCOD9268614
Probable space group: C 2/C
;
_chemical_formula_sum "Si O2"
_cell_formula_units_Z 48
_cell_length_a 21.168994
_cell_length_b 10.334360
_cell_length_c 14.075940
_cell_angle_alpha 90.000000
_cell_angle_beta 141.810132
_cell_angle_gamma 90.000000
_cell_volume 1903.877396
_symmetry_space_group_name_H-M "C 2/C"
_symmetry_group_IT_number 15
_symmetry_cell_setting 'monoclinic'
loop_
_space_group_symop_operation_xyz
x,y,z
-x,y,1/2-z
-x,-y,-z
x,-y,1/2+z
1/2+x,1/2+y,z
1/2-x,1/2+y,1/2-z
1/2-x,1/2-y,-z
1/2+x,1/2-y,1/2+z
loop_
_atom_site_type_symbol
_atom_site_label
_atom_site_fract_x
_atom_site_fract_y
_atom_site_fract_z
Si Si1 0.141010 0.159436 0.468918
Si Si2 0.287709 0.538617 0.227186
Si Si3 0.585789 0.853485 0.556902
Si Si4 0.876826 0.794251 0.222438
Si Si5 0.628460 0.201574 0.767628
Si Si6 0.105916 0.884190 0.451197
O O1 0.103797 0.214446 0.525231
O O2 0.262277 0.135767 0.614440
O O3 0.112195 0.270384 0.359401
O O4 0.096886 0.022559 0.389903
O O5 0.165409 0.554033 0.096490
O O6 0.317140 0.406900 0.208960
O O7 0.342552 0.654532 0.234524
O O8 0.330645 0.574939 0.381839
O O9 0.619472 0.831283 0.705464
O O10 0.464670 0.869071 0.395337
O O11 0.848336 0.790958 0.076427
O O12 0.997454 0.832128 0.358126
#
# Coordination Sequence:
#
# PCOD9268614 Si02
#       6
#     8   8   8   8   8   8
#     4  10  20  32  58  86 116 149 183 251 289 342
#     4  11  21  36  59  87 117 152 191 244 295 342
#     4  11  22  36  58  86 121 154 193 241 292 351
#     4  11  22  36  61  89 116 152 198 245 284 343
#     4  10  20  36  53  88 121 143 192 236 301 346
#     4  11  21  36  62  87 116 149 198 241 290 343
#
# _framework density 25.211706
#
# number of rings (size 3 to 8) (size 9 to 14) (size 15 to 20)
#    0.000    1.333    5.000    2.000    2.333    0.667 
#    0.000    0.833    0.000    0.000    0.000    0.000 
#    0.000    0.000    0.000    0.000    0.000    0.000 
#
# Total GULP energy -134062.336832 kJ/mol
# GULP energy per Si atom -5585.930701 kJ/mol
# Density = 2.515432 g / cm^3
# Si number density = 25.211706 Si / 1000 Ang^3
#
#
#
# Elastic Constant Matrix: (Units=GPa)
#
#
# Indices 1 2 3 4 5 6 
#
# 1 120.4627 34.5693 53.7969 0.0000 7.5522 0.0000
# 2 34.5693 42.6387 6.7892 0.0000 5.8196 0.0000
# 3 53.7969 6.7892 120.3869 0.0000 5.3049 0.0000
# 4 0.0000 0.0000 0.0000 16.4509 0.0000 -5.4492
# 5 7.5522 5.8196 5.3049 0.0000 61.1379 0.0000
# 6 0.0000 0.0000 0.0000 -5.4492 0.0000 5.3939
#
#
#
# Elastic Compliance Matrix: (Units=1/GPa)
#
#
# Indices 1 2 3 4 5 6 
#
# 1 0.013723 -0.010210 -0.005546 0.000000 -0.000242 0.000000
# 2 -0.010210 0.031545 0.002871 0.000000 -0.001991 0.000000
# 3 -0.005546 0.002871 0.010646 0.000000 -0.000512 0.000000
# 4 0.000000 0.000000 0.000000 0.091359 0.000000 0.092295
# 5 -0.000242 -0.001991 -0.000512 0.000000 0.016620 0.000000
# 6 0.000000 0.000000 0.000000 0.092295 0.000000 0.278636
#
#
# Mechanical properties :
#
#
# Convention : Reuss Voigt Hill
#
# Bulk Modulus (GPa) = 33.17369 52.64436 42.90903
# Shear Modulus (GPa) = 10.45268 29.15208 19.80238
#
# Velocity S-wave (km/s) = 2.03837 3.40412 2.80562
# Velocity P-wave (km/s) = 4.32742 6.03133 5.24898
#
# Compressibility (1/GPa) = 0.03014437
#
# Stress axis : x y z
#
# Youngs Moduli (GPa) = 72.86906 31.70062 93.93630
#
# Poissons Ratio (x) = 0.32366 0.52097
# Poissons Ratio (y) = 0.74399 -0.26972
# Poissons Ratio (z) = 0.40413 -0.09102
#
# Static dielectric constant tensor:
#      x y z
#    x 2.069660 0.000000 -0.057540 
#    y 0.000000 1.945130 0.000000 
#    z -0.057540 0.000000 2.113970 
# 
# From -- ./inp_files/167919.got.cif
#   From: 2010.05.17/outbox.cif.g08.bks.cpg/sg15_84_cif.got.tgz:167919.got - 2010.06.03 18:47:42.
