data_PCOD9268347
_publ_section_title
;
Structure prediction by ZEFSAII (Michael W. Deem and Ramdas Pophale) SiO2 
 PCOD9268347
Probable space group: C 2/C
;
_chemical_formula_sum "Si O2"
_cell_formula_units_Z 52
_cell_length_a 6.224891
_cell_length_b 32.733419
_cell_length_c 14.664932
_cell_angle_alpha 90.000000
_cell_angle_beta 56.384918
_cell_angle_gamma 90.000000
_cell_volume 2488.462705
_symmetry_space_group_name_H-M "C 2/C"
_symmetry_group_IT_number 15
_symmetry_cell_setting 'monoclinic'
loop_
_space_group_symop_operation_xyz
x,y,z
-x,y,1/2-z
-x,-y,-z
x,-y,1/2+z
1/2+x,1/2+y,z
1/2-x,1/2+y,1/2-z
1/2-x,1/2-y,-z
1/2+x,1/2-y,1/2+z
loop_
_atom_site_type_symbol
_atom_site_label
_atom_site_fract_x
_atom_site_fract_y
_atom_site_fract_z
Si Si1 0.624280 0.330324 0.136420
Si Si2 0.439969 0.383803 0.018182
Si Si3 0.719157 0.466989 0.972679
Si Si4 0.783159 0.686845 0.024427
Si Si5 0.277270 0.984928 0.170511
Si Si6 0.553077 0.258411 0.417469
Si Si7 0.000000 0.419122 0.250000
O O1 0.500000 0.354049 0.250000
O O2 0.601809 0.355745 0.049317
O O3 0.440969 0.290158 0.167000
O O4 0.922163 0.319579 0.077453
O O5 0.605089 0.424430 0.964070
O O6 0.357479 0.356729 0.950457
O O7 0.181039 0.394849 0.136879
O O8 0.771509 0.466744 0.069402
O O9 0.500000 0.500000 0.000000
O O10 0.988551 0.483780 0.871192
O O11 0.647228 0.715293 0.981307
O O12 0.803122 0.714866 0.110579
O O13 0.318616 0.948454 0.232161
O O14 0.000000 0.004963 0.250000
O O15 0.250000 0.250000 0.500000
#
# Coordination Sequence:
#
# PCOD9268347 Si02
#       7
#     8   8   8   8   8   8   4
#     4  10  20  31  50  85 125 149 179 226 292 357
#     4  11  22  31  53  83 120 153 192 244 301 363
#     4  11  23  38  56  83 120 156 214 244 306 374
#     4   9  18  32  52  75 118 147 184 229 282 343
#     4  11  22  38  58  78 118 159 204 258 306 366
#     4   8  16  33  50  73 112 148 188 216 271 352
#     4  12  22  36  56  84 124 160 184 248 328 348
#
# _framework density 20.896433999999999
#
# number of rings (size 3 to 8) (size 9 to 14) (size 15 to 20)
#    0.000    1.846    3.077    0.923    4.308    1.846 
#    0.000    0.000    0.000    0.000    0.000    0.000 
#  546.923    0.000    0.000    0.000    0.000    0.000 
#
# Total GULP energy -144965.091648 kJ/mol
# GULP energy per Si atom -5575.580448 kJ/mol
# Density = 2.084887 g / cm^3
# Si number density = 20.896434 Si / 1000 Ang^3
#
#
#
# Elastic Constant Matrix: (Units=GPa)
#
#
# Indices 1 2 3 4 5 6 
#
# 1 122.8573 59.9771 13.2114 0.0000 -18.9875 0.0000
# 2 59.9771 136.7701 11.5857 0.0000 -6.6194 0.0000
# 3 13.2114 11.5857 16.7811 0.0000 -13.5716 0.0000
# 4 0.0000 0.0000 0.0000 17.5675 0.0000 -8.8877
# 5 -18.9875 -6.6194 -13.5716 0.0000 41.7298 0.0000
# 6 0.0000 0.0000 0.0000 -8.8877 0.0000 44.3060
#
#
#
# Elastic Compliance Matrix: (Units=1/GPa)
#
#
# Indices 1 2 3 4 5 6 
#
# 1 0.011173 -0.004486 -0.002936 0.000000 0.003418 0.000000
# 2 -0.004486 0.009581 -0.004756 0.000000 -0.002068 0.000000
# 3 -0.002936 -0.004756 0.086156 0.000000 0.025930 0.000000
# 4 0.000000 0.000000 0.000000 0.063352 0.000000 0.012708
# 5 0.003418 -0.002068 0.025930 0.000000 0.033624 0.000000
# 6 0.000000 0.000000 0.000000 0.012708 0.000000 0.025120
#
#
# Mechanical properties :
#
#
# Convention : Reuss Voigt Hill
#
# Bulk Modulus (GPa) = 12.11293 49.55077 30.83185
# Shear Modulus (GPa) = 17.80122 33.49629 25.64876
#
# Velocity S-wave (km/s) = 2.92186 4.00805 3.50726
# Velocity P-wave (km/s) = 4.14636 6.72185 5.58460
#
# Compressibility (1/GPa) = 0.08255643
#
# Stress axis : x y z
#
# Youngs Moduli (GPa) = 89.49964 104.36890 11.60685
#
# Poissons Ratio (x) = 0.46816 0.03407
# Poissons Ratio (y) = 0.40147 0.05520
# Poissons Ratio (z) = 0.26273 0.49637
#
# Static dielectric constant tensor:
#      x y z
#    x 1.822690 0.000000 0.069350 
#    y 0.000000 1.817960 0.000000 
#    z 0.069350 0.000000 1.800530 
# 
# From -- ./inp_files/186450.got.cif
#   From: 2010.05.17/outbox.cif.g08.bks.cpg/sg15_94_cif.got.tgz:186450.got - 2010.06.03 18:47:42.
