data_PCOD9268949
_publ_section_title
;
Structure prediction by ZEFSAII (Michael W. Deem and Ramdas Pophale) SiO2 
 PCOD9268949
Probable space group: C 2/C
;
_chemical_formula_sum "Si O2"
_cell_formula_units_Z 56
_cell_length_a 29.655504
_cell_length_b 10.905754
_cell_length_c 9.547015
_cell_angle_alpha 90.000000
_cell_angle_beta 70.614043
_cell_angle_gamma 90.000000
_cell_volume 2912.596386
_symmetry_space_group_name_H-M "C 2/C"
_symmetry_group_IT_number 15
_symmetry_cell_setting 'monoclinic'
loop_
_space_group_symop_operation_xyz
x,y,z
-x,y,1/2-z
-x,-y,-z
x,-y,1/2+z
1/2+x,1/2+y,z
1/2-x,1/2+y,1/2-z
1/2-x,1/2-y,-z
1/2+x,1/2-y,1/2+z
loop_
_atom_site_type_symbol
_atom_site_label
_atom_site_fract_x
_atom_site_fract_y
_atom_site_fract_z
Si Si1 0.213895 0.359288 0.055203
Si Si2 0.387885 0.873210 0.422157
Si Si3 0.738566 0.493524 0.241055
Si Si4 0.552611 0.850636 0.890704
Si Si5 0.547051 0.853204 0.385798
Si Si6 0.203299 0.834987 0.030174
Si Si7 0.389181 0.831262 0.926971
O O1 0.159536 0.319119 0.095355
O O2 0.226749 0.418063 0.190885
O O3 0.250000 0.250000 0.000000
O O4 0.226918 0.443913 0.908891
O O5 0.399749 0.832714 0.566149
O O6 0.435309 0.834187 0.289272
O O7 0.380872 0.021281 0.421167
O O8 0.703684 0.415787 0.173781
O O9 0.711684 0.583054 0.380219
O O10 0.566603 0.805717 0.723588
O O11 0.545986 0.998237 0.896557
O O12 0.503425 0.803468 0.008026
O O13 0.589828 0.809794 0.441320
O O14 0.157004 0.749098 0.060080
O O15 0.250000 0.750000 0.000000
#
# Coordination Sequence:
#
# PCOD9268949 Si02
#       7
#     8   8   8   8   8   8   8
#     4  11  24  36  57  79 114 148 188 225 278 332
#     4  10  21  30  52  80 115 149 181 217 275 341
#     4  10  24  40  54  80 120 146 188 244 272 316
#     4   9  18  32  50  79 114 142 179 228 278 336
#     4   9  18  32  50  79 114 142 179 228 278 336
#     4  11  23  39  60  81 117 151 197 230 283 336
#     4  10  20  33  57  80 107 152 182 220 277 341
#
# _framework density 19.226831000000001
#
# number of rings (size 3 to 8) (size 9 to 14) (size 15 to 20)
#    0.000    2.000    0.000    3.429   14.000    3.429 
#    0.000    0.000    0.000    0.000    0.000    4.000 
#    0.000    0.000    0.000    0.000    0.000    0.000 
#
# Total GULP energy -156059.124257 kJ/mol
# GULP energy per Si atom -5573.540152 kJ/mol
# Density = 1.918307 g / cm^3
# Si number density = 19.226831 Si / 1000 Ang^3
#
#
#
# Elastic Constant Matrix: (Units=GPa)
#
#
# Indices 1 2 3 4 5 6 
#
# 1 58.4611 7.2425 23.8026 0.0000 -14.8169 0.0000
# 2 7.2425 25.7347 22.7795 0.0000 -1.7258 0.0000
# 3 23.8026 22.7795 90.4396 0.0000 20.1182 0.0000
# 4 0.0000 0.0000 0.0000 16.7899 0.0000 0.6280
# 5 -14.8169 -1.7258 20.1182 0.0000 25.5622 0.0000
# 6 0.0000 0.0000 0.0000 0.6280 0.0000 21.1271
#
#
#
# Elastic Compliance Matrix: (Units=1/GPa)
#
#
# Indices 1 2 3 4 5 6 
#
# 1 0.031768 0.009333 -0.018121 0.000000 0.033306 0.000000
# 2 0.009333 0.058894 -0.023491 0.000000 0.027874 0.000000
# 3 -0.018121 -0.023491 0.029618 0.000000 -0.035399 0.000000
# 4 0.000000 0.000000 0.000000 0.059626 0.000000 -0.001772
# 5 0.033306 0.027874 -0.035399 0.000000 0.088168 0.000000
# 6 0.000000 0.000000 0.000000 -0.001772 0.000000 0.047385
#
#
# Mechanical properties :
#
#
# Convention : Reuss Voigt Hill
#
# Bulk Modulus (GPa) = 17.94594 31.36494 24.65544
# Shear Modulus (GPa) = 12.54419 20.74989 16.64704
#
# Velocity S-wave (km/s) = 2.55704 3.28870 2.94568
# Velocity P-wave (km/s) = 4.25112 5.54701 4.94173
#
# Compressibility (1/GPa) = 0.05572292
#
# Stress axis : x y z
#
# Youngs Moduli (GPa) = 31.47777 16.97961 33.76376
#
# Poissons Ratio (x) = -0.15847 0.61182
# Poissons Ratio (y) = -0.29378 0.79314
# Poissons Ratio (z) = 0.57040 0.39886
#
# Static dielectric constant tensor:
#      x y z
#    x 1.676320 0.000000 -0.013450 
#    y 0.000000 1.695380 0.000000 
#    z -0.013450 0.000000 1.674650 
# 
# From -- ./inp_files/65536.got.cif
#   From: 2010.05.17/outbox.cif.g08.bks.cpg/sg15_33_cif.got.tgz:65536.got - 2010.06.03 18:47:42.
