data_PCOD9268920
_publ_section_title
;
Structure prediction by ZEFSAII (Michael W. Deem and Ramdas Pophale) SiO2 
 PCOD9268920
Probable space group: C 2/C
;
_chemical_formula_sum "Si O2"
_cell_formula_units_Z 52
_cell_length_a 6.879249
_cell_length_b 12.144668
_cell_length_c 30.999830
_cell_angle_alpha 90.000000
_cell_angle_beta 123.626778
_cell_angle_gamma 90.000000
_cell_volume 2156.527507
_symmetry_space_group_name_H-M "C 2/C"
_symmetry_group_IT_number 15
_symmetry_cell_setting 'monoclinic'
loop_
_space_group_symop_operation_xyz
x,y,z
-x,y,1/2-z
-x,-y,-z
x,-y,1/2+z
1/2+x,1/2+y,z
1/2-x,1/2+y,1/2-z
1/2-x,1/2-y,-z
1/2+x,1/2-y,1/2+z
loop_
_atom_site_type_symbol
_atom_site_label
_atom_site_fract_x
_atom_site_fract_y
_atom_site_fract_z
Si Si1 0.478541 0.539620 0.889671
Si Si2 0.035522 0.325868 0.123039
Si Si3 0.494190 0.096176 0.794108
Si Si4 0.269435 0.377996 0.637978
Si Si5 0.260562 0.672323 0.414091
Si Si6 0.500000 0.696773 0.250000
Si Si7 0.450799 0.618777 0.974223
O O1 0.270407 0.599833 0.838824
O O2 0.662671 0.486686 0.880104
O O3 0.357016 0.433482 0.898779
O O4 0.558990 0.615088 0.939423
O O5 0.100152 0.412618 0.168643
O O6 0.911132 0.221663 0.132127
O O7 0.824409 0.366960 0.066985
O O8 0.235964 0.273535 0.118755
O O9 0.500000 0.025210 0.750000
O O10 0.369469 0.209289 0.762451
O O11 0.353911 0.372287 0.698103
O O12 0.996299 0.356096 0.601773
O O13 0.432296 0.695114 0.475549
O O14 0.500000 0.500000 0.000000
#
# Coordination Sequence:
#
# PCOD9268920 Si02
#       7
#     8   8   8   8   8   4   8
#     4   9  19  35  55  78 112 149 186 240 297 342
#     4   9  18  36  56  77 112 149 187 240 291 344
#     4   8  16  34  58  74 106 151 189 237 298 348
#     4  10  20  35  55  81 112 146 193 243 286 353
#     4  10  20  33  56  83 110 149 195 235 287 360
#     4   8  18  36  54  72 114 142 182 244 284 342
#     4   9  18  35  55  80 115 150 187 240 292 346
#
# _framework density 24.112838
#
# number of rings (size 3 to 8) (size 9 to 14) (size 15 to 20)
#    0.462    2.462    0.000    0.462    0.000    2.462 
#    0.000   20.000    3.385    0.000    0.000    0.000 
#    0.000    0.000    0.000    0.000    0.000    0.000 
#
# Total GULP energy -144815.813558 kJ/mol
# GULP energy per Si atom -5569.838983 kJ/mol
# Density = 2.405796 g / cm^3
# Si number density = 24.112838 Si / 1000 Ang^3
#
#
#
# Elastic Constant Matrix: (Units=GPa)
#
#
# Indices 1 2 3 4 5 6 
#
# 1 101.1806 20.9696 28.7515 0.0000 -27.0679 0.0000
# 2 20.9696 80.7957 22.8898 0.0000 -1.8171 0.0000
# 3 28.7515 22.8898 159.1862 0.0000 -21.9878 0.0000
# 4 0.0000 0.0000 0.0000 21.9799 0.0000 -0.0961
# 5 -27.0679 -1.8171 -21.9878 0.0000 17.0228 0.0000
# 6 0.0000 0.0000 0.0000 -0.0961 0.0000 38.3728
#
#
#
# Elastic Compliance Matrix: (Units=1/GPa)
#
#
# Indices 1 2 3 4 5 6 
#
# 1 0.018814 -0.004633 0.001621 0.000000 0.031515 0.000000
# 2 -0.004633 0.014065 -0.002429 0.000000 -0.009004 0.000000
# 3 0.001621 -0.002429 0.008105 0.000000 0.012787 0.000000
# 4 0.000000 0.000000 0.000000 0.045497 0.000000 0.000114
# 5 0.031515 -0.009004 0.012787 0.000000 0.124413 0.000000
# 6 0.000000 0.000000 0.000000 0.000114 0.000000 0.026060
#
#
# Mechanical properties :
#
#
# Convention : Reuss Voigt Hill
#
# Bulk Modulus (GPa) = 33.22168 54.04269 43.63218
# Shear Modulus (GPa) = 19.38962 33.37855 26.38408
#
# Velocity S-wave (km/s) = 2.83878 3.72461 3.31145
# Velocity P-wave (km/s) = 4.95504 6.39984 5.72321
#
# Compressibility (1/GPa) = 0.03010083
#
# Stress axis : x y z
#
# Youngs Moduli (GPa) = 53.15218 71.09748 123.38535
#
# Poissons Ratio (x) = 0.32943 -0.20004
# Poissons Ratio (y) = 0.24628 0.29974
# Poissons Ratio (z) = -0.08617 0.17272
#
# Static dielectric constant tensor:
#      x y z
#    x 1.964960 0.000000 -0.096340 
#    y 0.000000 2.096250 0.000000 
#    z -0.096340 0.000000 1.963880 
# 
# From -- ./inp_files/305458.got.cif
#   From: 2010.05.17/outbox.cif.g08.bks.cpg/sg15_153_cif.got.tgz:305458.got - 2010.06.03 18:47:42.
