data_PCOD9268028
_publ_section_title
;
Structure prediction by ZEFSAII (Michael W. Deem and Ramdas Pophale) SiO2 
 PCOD9268028
Probable space group: C 2/C
;
_chemical_formula_sum "Si O2"
_cell_formula_units_Z 40
_cell_length_a 11.078347
_cell_length_b 17.653426
_cell_length_c 9.493177
_cell_angle_alpha 90.000000
_cell_angle_beta 94.176331
_cell_angle_gamma 90.000000
_cell_volume 1851.658124
_symmetry_space_group_name_H-M "C 2/C"
_symmetry_group_IT_number 15
_symmetry_cell_setting 'monoclinic'
loop_
_space_group_symop_operation_xyz
x,y,z
-x,y,1/2-z
-x,-y,-z
x,-y,1/2+z
1/2+x,1/2+y,z
1/2-x,1/2+y,1/2-z
1/2-x,1/2-y,-z
1/2+x,1/2-y,1/2+z
loop_
_atom_site_type_symbol
_atom_site_label
_atom_site_fract_x
_atom_site_fract_y
_atom_site_fract_z
Si Si1 0.406854 0.659639 0.847337
Si Si2 0.365072 0.929423 0.739596
Si Si3 0.329616 0.922102 0.060781
Si Si4 0.750025 0.777518 0.841398
Si Si5 0.114150 0.742266 0.913248
O O1 0.500000 0.620026 0.750000
O O2 0.299213 0.604636 0.887412
O O3 0.352296 0.727421 0.746642
O O4 0.457929 0.700137 0.993038
O O5 0.500000 0.896171 0.750000
O O6 0.279504 0.865980 0.666759
O O7 0.371737 0.006391 0.652565
O O8 0.323728 0.942398 0.896200
O O9 0.413743 0.846741 0.077812
O O10 0.864515 0.762667 0.747676
O O11 0.750000 0.750000 0.000000
O O12 0.250000 0.750000 0.000000
#
# Coordination Sequence:
#
# PCOD9268028 Si02
#       5
#     8   8   8   8   8
#     4  10  19  41  67  80 113 175 208 246 315 355
#     4  12  23  39  62  91 128 166 198 249 318 372
#     4  10  22  38  58  90 126 157 203 256 301 371
#     4  10  20  36  63  89 119 156 206 263 300 358
#     4   8  16  37  57  78 116 159 197 248 301 344
#
# _framework density 21.602259
#
# number of rings (size 3 to 8) (size 9 to 14) (size 15 to 20)
#    0.000    2.400    6.000    1.200    5.600    0.000 
#    0.000    2.000    0.000    0.000    0.000    0.000 
#    0.000    0.000    0.000    0.000    0.000    0.000 
#
# Total GULP energy -111612.009207 kJ/mol
# GULP energy per Si atom -5580.600460 kJ/mol
# Density = 2.155309 g / cm^3
# Si number density = 21.602259 Si / 1000 Ang^3
#
#
#
# Elastic Constant Matrix: (Units=GPa)
#
#
# Indices 1 2 3 4 5 6 
#
# 1 50.1531 -3.4659 26.8558 0.0000 -28.8923 0.0000
# 2 -3.4659 89.1948 45.6122 0.0000 3.9289 0.0000
# 3 26.8558 45.6122 193.4059 0.0000 -29.4380 0.0000
# 4 0.0000 0.0000 0.0000 22.2387 0.0000 -9.9758
# 5 -28.8923 3.9289 -29.4380 0.0000 32.0627 0.0000
# 6 0.0000 0.0000 0.0000 -9.9758 0.0000 14.0006
#
#
#
# Elastic Compliance Matrix: (Units=1/GPa)
#
#
# Indices 1 2 3 4 5 6 
#
# 1 0.041465 0.000013 -0.000086 0.000000 0.037284 0.000000
# 2 0.000013 0.013486 -0.003989 0.000000 -0.005304 0.000000
# 3 -0.000086 -0.003989 0.007191 0.000000 0.007014 0.000000
# 4 0.000000 0.000000 0.000000 0.066091 0.000000 0.047092
# 5 0.037284 -0.005304 0.007014 0.000000 0.071876 0.000000
# 6 0.000000 0.000000 0.000000 0.047092 0.000000 0.104980
#
#
# Mechanical properties :
#
#
# Convention : Reuss Voigt Hill
#
# Bulk Modulus (GPa) = 18.51297 52.30645 35.40971
# Shear Modulus (GPa) = 15.09575 31.24384 23.16980
#
# Velocity S-wave (km/s) = 2.64636 3.80718 3.27855
# Velocity P-wave (km/s) = 4.23393 6.60244 5.54609
#
# Compressibility (1/GPa) = 0.05401619
#
# Stress axis : x y z
#
# Youngs Moduli (GPa) = 24.11696 74.15277 139.06676
#
# Poissons Ratio (x) = -0.00094 0.01192
# Poissons Ratio (y) = -0.00031 0.55480
# Poissons Ratio (z) = 0.00207 0.29583
#
# Static dielectric constant tensor:
#      x y z
#    x 1.951300 0.000000 0.005990 
#    y 0.000000 1.751860 0.000000 
#    z 0.005990 0.000000 1.809900 
# 
# From -- ./inp_files/38715.got.cif
#   From: 2010.05.17/outbox.cif.g08.bks.cpg/sg15_20_cif.got.tgz:38715.got - 2010.06.03 18:47:42.
