data_PCOD9268709
_publ_section_title
;
Structure prediction by ZEFSAII (Michael W. Deem and Ramdas Pophale) SiO2 
 PCOD9268709
Probable space group: C 2/C
;
_chemical_formula_sum "Si O2"
_cell_formula_units_Z 48
_cell_length_a 7.109852
_cell_length_b 20.686567
_cell_length_c 15.274891
_cell_angle_alpha 90.000000
_cell_angle_beta 72.415406
_cell_angle_gamma 90.000000
_cell_volume 2141.627389
_symmetry_space_group_name_H-M "C 2/C"
_symmetry_group_IT_number 15
_symmetry_cell_setting 'monoclinic'
loop_
_space_group_symop_operation_xyz
x,y,z
-x,y,1/2-z
-x,-y,-z
x,-y,1/2+z
1/2+x,1/2+y,z
1/2-x,1/2+y,1/2-z
1/2-x,1/2-y,-z
1/2+x,1/2-y,1/2+z
loop_
_atom_site_type_symbol
_atom_site_label
_atom_site_fract_x
_atom_site_fract_y
_atom_site_fract_z
Si Si1 0.025044 0.810047 0.461026
Si Si2 0.489217 0.070636 0.040415
Si Si3 0.104530 0.687796 0.917552
Si Si4 0.213863 0.756723 0.268723
Si Si5 0.221593 0.394854 0.760726
Si Si6 0.918913 0.936587 0.563156
O O1 0.999252 0.751299 0.530868
O O2 0.818914 0.814524 0.435544
O O3 0.046405 0.876236 0.510681
O O4 0.183376 0.788592 0.367112
O O5 0.317257 0.078303 0.136253
O O6 0.698969 0.077888 0.058965
O O7 0.490099 0.124878 0.965484
O O8 0.500000 0.000000 0.000000
O O9 0.147909 0.699491 0.810606
O O10 0.274428 0.681304 0.260746
O O11 0.000000 0.755730 0.250000
O O12 0.373128 0.432070 0.674445
O O13 0.000000 0.397567 0.750000
O O14 0.000000 0.000000 0.500000
#
# Coordination Sequence:
#
# PCOD9268709 Si02
#       6
#     8   8   8   8   8   8
#     4   9  15  25  44  70  94 118 158 207 243 274
#     4  10  20  33  50  74 103 133 164 201 247 298
#     4   9  15  25  44  70  94 118 158 207 243 274
#     4   9  14  23  44  73  97 118 157 212 252 278
#     4   9  16  29  49  71  97 132 167 198 244 302
#     4  10  20  33  50  74 103 133 164 201 247 298
#
# _framework density 22.412860999999999
#
# number of rings (size 3 to 8) (size 9 to 14) (size 15 to 20)
#    0.000    2.667    3.333    0.000    0.000    1.333 
#    0.000    2.500    0.000    1.000    0.000    0.000 
#    0.000    0.000    0.000    0.000    0.000    0.000 
#
# Total GULP energy -134035.785468 kJ/mol
# GULP energy per Si atom -5584.824394 kJ/mol
# Density = 2.236185 g / cm^3
# Si number density = 22.412861 Si / 1000 Ang^3
#
#
#
# Elastic Constant Matrix: (Units=GPa)
#
#
# Indices 1 2 3 4 5 6 
#
# 1 87.5505 -1.7363 26.7747 0.0000 -23.1568 0.0000
# 2 -1.7363 176.0067 116.2322 0.0000 -10.5921 0.0000
# 3 26.7747 116.2322 258.7763 0.0000 -19.2845 0.0000
# 4 0.0000 0.0000 0.0000 35.6619 0.0000 -4.8493
# 5 -23.1568 -10.5921 -19.2845 0.0000 25.5862 0.0000
# 6 0.0000 0.0000 0.0000 -4.8493 0.0000 12.5767
#
#
#
# Elastic Compliance Matrix: (Units=1/GPa)
#
#
# Indices 1 2 3 4 5 6 
#
# 1 0.015551 0.001944 -0.001455 0.000000 0.013782 0.000000
# 2 0.001944 0.008331 -0.003766 0.000000 0.002369 0.000000
# 3 -0.001455 -0.003766 0.005819 0.000000 0.001510 0.000000
# 4 0.000000 0.000000 0.000000 0.029593 0.000000 0.011410
# 5 0.013782 0.002369 0.001510 0.000000 0.053676 0.000000
# 6 0.000000 0.000000 0.000000 0.011410 0.000000 0.083911
#
#
# Mechanical properties :
#
#
# Convention : Reuss Voigt Hill
#
# Bulk Modulus (GPa) = 43.20525 89.43053 66.31789
# Shear Modulus (GPa) = 23.67973 40.16917 31.92445
#
# Velocity S-wave (km/s) = 3.25395 4.23808 3.77819
# Velocity P-wave (km/s) = 5.78242 7.99603 6.97757
#
# Compressibility (1/GPa) = 0.02314534
#
# Stress axis : x y z
#
# Youngs Moduli (GPa) = 64.30506 120.03978 171.84836
#
# Poissons Ratio (x) = -0.23332 0.25003
# Poissons Ratio (y) = -0.12499 0.64724
# Poissons Ratio (z) = 0.09356 0.45211
#
# Static dielectric constant tensor:
#      x y z
#    x 1.772080 0.000000 0.083110 
#    y 0.000000 1.762580 0.000000 
#    z 0.083110 0.000000 1.872070 
# 
# From -- ./inp_files/143746.got.cif
#   From: 2010.05.17/outbox.cif.g08.bks.cpg/sg15_72_cif.got.tgz:143746.got - 2010.06.03 18:47:42.
