data_PCOD9268650
_publ_section_title
;
Structure prediction by ZEFSAII (Michael W. Deem and Ramdas Pophale) SiO2 
 PCOD9268650
Probable space group: C 2/C
;
_chemical_formula_sum "Si O2"
_cell_formula_units_Z 48
_cell_length_a 21.579624
_cell_length_b 17.152238
_cell_length_c 11.223238
_cell_angle_alpha 90.000000
_cell_angle_beta 33.757281
_cell_angle_gamma 90.000000
_cell_volume 2308.364537
_symmetry_space_group_name_H-M "C 2/C"
_symmetry_group_IT_number 15
_symmetry_cell_setting 'monoclinic'
loop_
_space_group_symop_operation_xyz
x,y,z
-x,y,1/2-z
-x,-y,-z
x,-y,1/2+z
1/2+x,1/2+y,z
1/2-x,1/2+y,1/2-z
1/2-x,1/2-y,-z
1/2+x,1/2-y,1/2+z
loop_
_atom_site_type_symbol
_atom_site_label
_atom_site_fract_x
_atom_site_fract_y
_atom_site_fract_z
Si Si1 0.070702 0.787055 0.251676
Si Si2 0.774271 0.157000 0.602767
Si Si3 0.321242 0.003392 0.817093
Si Si4 0.783273 0.640690 0.526893
Si Si5 0.967715 0.589799 0.932041
Si Si6 0.432187 0.750528 0.190663
O O1 0.184503 0.832511 0.096345
O O2 0.000000 0.810764 0.250000
O O3 0.993175 0.797403 0.490527
O O4 0.110782 0.696801 0.168752
O O5 0.754760 0.154491 0.776040
O O6 0.671798 0.205200 0.707072
O O7 0.882069 0.200673 0.378505
O O8 0.771651 0.067511 0.560786
O O9 0.350990 0.942788 0.664383
O O10 0.432309 0.056433 0.647522
O O11 0.307294 0.948851 0.954696
O O12 0.000000 0.562158 0.750000
O O13 0.979737 0.682464 0.915003
#
# Coordination Sequence:
#
# PCOD9268650 Si02
#       6
#     8   8   8   8   8   8
#     4  11  23  41  65  91 127 166 212 271 312 382
#     4  10  22  39  63  91 132 165 208 265 319 384
#     4  10  21  39  56  94 125 168 209 264 326 378
#     4  11  23  40  67  94 124 174 215 258 327 389
#     4  10  20  32  61  90 125 160 205 272 323 375
#     4  10  21  39  60  93 127 164 208 264 320 370
#
# _framework density 20.793942999999999
#
# number of rings (size 3 to 8) (size 9 to 14) (size 15 to 20)
#    0.000    1.667    3.333    1.000    2.333    0.667 
#    6.000    0.833    0.000    0.000    0.000    0.000 
#    0.000    0.000    0.000    0.000    0.000    0.000 
#
# Total GULP energy -133873.433335 kJ/mol
# GULP energy per Si atom -5578.059722 kJ/mol
# Density = 2.074662 g / cm^3
# Si number density = 20.793943 Si / 1000 Ang^3
#
#
#
# Elastic Constant Matrix: (Units=GPa)
#
#
# Indices 1 2 3 4 5 6 
#
# 1 62.0372 21.3212 20.1384 0.0000 9.7022 0.0000
# 2 21.3212 91.0315 39.5387 0.0000 4.8930 0.0000
# 3 20.1384 39.5387 107.9916 0.0000 27.3074 0.0000
# 4 0.0000 0.0000 0.0000 -1.7989 0.0000 -0.0137
# 5 9.7022 4.8930 27.3074 0.0000 34.2202 0.0000
# 6 0.0000 0.0000 0.0000 -0.0137 0.0000 19.5852
#
#
#
# Elastic Compliance Matrix: (Units=1/GPa)
#
#
# Indices 1 2 3 4 5 6 
#
# 1 0.018314 -0.003588 -0.001151 0.000000 -0.003761 0.000000
# 2 -0.003588 0.013930 -0.005243 0.000000 0.003209 0.000000
# 3 -0.001151 -0.005243 0.013934 0.000000 -0.010043 0.000000
# 4 0.000000 0.000000 0.000000 -0.555902 0.000000 -0.000388
# 5 -0.003761 0.003209 -0.010043 0.000000 0.037844 0.000000
# 6 0.000000 0.000000 0.000000 -0.000388 0.000000 0.051059
#
#
# Mechanical properties :
#
#
# Convention : Reuss Voigt Hill
#
# Bulk Modulus (GPa) = 38.14441 47.00633 42.57537
# Shear Modulus (GPa) = -12.75117 22.40542 4.82713
#
# Velocity S-wave (km/s) = -2.47901 3.28609 1.52527
# Velocity P-wave (km/s) = 3.19216 6.08709 4.86017
#
# Compressibility (1/GPa) = 0.02621616
#
# Stress axis : x y z
#
# Youngs Moduli (GPa) = 54.60276 71.78707 71.76912
#
# Poissons Ratio (x) = 0.25754 0.08258
# Poissons Ratio (y) = 0.19589 0.37626
# Poissons Ratio (z) = 0.06283 0.37635
#
# Static dielectric constant tensor:
#      x y z
#    x 1.777160 0.000000 0.010180 
#    y 0.000000 1.783090 0.000000 
#    z 0.010180 0.000000 1.739200 
# 
# From -- ./inp_files/119382.got.cif
#   From: 2010.05.17/outbox.cif.g08.bks.cpg/sg15_60_cif.got.tgz:119382.got - 2010.06.03 18:47:42.
