data_PCOD9268785
_publ_section_title
;
Structure prediction by ZEFSAII (Michael W. Deem and Ramdas Pophale) SiO2 
 PCOD9268785
Probable space group: C 2/C
;
_chemical_formula_sum "Si O2"
_cell_formula_units_Z 56
_cell_length_a 25.645308
_cell_length_b 9.568365
_cell_length_c 18.955730
_cell_angle_alpha 90.000000
_cell_angle_beta 33.469502
_cell_angle_gamma 90.000000
_cell_volume 2565.229356
_symmetry_space_group_name_H-M "C 2/C"
_symmetry_group_IT_number 15
_symmetry_cell_setting 'monoclinic'
loop_
_space_group_symop_operation_xyz
x,y,z
-x,y,1/2-z
-x,-y,-z
x,-y,1/2+z
1/2+x,1/2+y,z
1/2-x,1/2+y,1/2-z
1/2-x,1/2-y,-z
1/2+x,1/2-y,1/2+z
loop_
_atom_site_type_symbol
_atom_site_label
_atom_site_fract_x
_atom_site_fract_y
_atom_site_fract_z
Si Si1 0.917192 0.369349 0.732854
Si Si2 0.598270 0.261446 0.972117
Si Si3 0.262677 0.706207 0.587223
Si Si4 0.331435 0.567112 0.221366
Si Si5 0.680545 0.988090 0.288701
Si Si6 0.238680 0.177837 0.617227
Si Si7 0.347380 0.933243 0.414996
O O1 0.883361 0.432191 0.695831
O O2 0.829475 0.270440 0.853524
O O3 0.927792 0.496292 0.775856
O O4 0.008375 0.275189 0.619972
O O5 0.592109 0.385985 0.922456
O O6 0.619880 0.125136 0.899945
O O7 0.689119 0.273936 0.920549
O O8 0.181955 0.820245 0.700968
O O9 0.260500 0.599743 0.655084
O O10 0.352286 0.799226 0.461434
O O11 0.227240 0.617963 0.560368
O O12 0.232883 0.579372 0.288397
O O13 0.330038 0.411233 0.252942
O O14 0.301857 0.058026 0.511105
#
# Coordination Sequence:
#
# PCOD9268785 Si02
#       7
#     8   8   8   8   8   8   8
#     4  11  20  32  53  79 108 141 178 221 267 322
#     4  10  20  33  52  80 107 136 175 229 273 317
#     4   8  16  31  55  78 101 142 178 220 265 319
#     4   9  17  33  54  79 108 136 175 218 276 326
#     4   9  17  32  54  81 105 134 177 220 276 322
#     4  10  20  34  53  76 104 145 183 222 267 325
#     4   9  18  33  51  77 103 143 186 215 262 320
#
# _framework density 21.830407000000001
#
# number of rings (size 3 to 8) (size 9 to 14) (size 15 to 20)
#    0.000    2.571    1.429    0.857    0.000    1.143 
#    0.000    0.000    0.000    0.000   14.857    0.000 
#    0.000    0.000    0.000    0.000    0.000    0.000 
#
# Total GULP energy -155978.253083 kJ/mol
# GULP energy per Si atom -5570.651896 kJ/mol
# Density = 2.178072 g / cm^3
# Si number density = 21.830407 Si / 1000 Ang^3
#
#
#
# Elastic Constant Matrix: (Units=GPa)
#
#
# Indices 1 2 3 4 5 6 
#
# 1 47.5246 17.5233 11.3561 0.0000 6.2508 0.0000
# 2 17.5233 49.2920 5.9929 -0.0005 -1.3279 -0.0001
# 3 11.3561 5.9929 62.8186 -0.0002 7.8378 -0.0001
# 4 0.0000 -0.0005 -0.0002 40.3360 0.0000 20.4422
# 5 6.2508 -1.3279 7.8378 0.0000 21.5538 0.0000
# 6 0.0000 -0.0001 -0.0001 20.4422 0.0000 40.0933
#
#
#
# Elastic Compliance Matrix: (Units=1/GPa)
#
#
# Indices 1 2 3 4 5 6 
#
# 1 0.026022 -0.009080 -0.002961 0.000000 -0.007029 0.000000
# 2 -0.009080 0.023782 -0.001193 0.000000 0.004532 0.000000
# 3 -0.002961 -0.001193 0.017253 0.000000 -0.005489 0.000000
# 4 0.000000 0.000000 0.000000 0.033430 0.000000 -0.017045
# 5 -0.007029 0.004532 -0.005489 0.000000 0.050709 0.000000
# 6 0.000000 0.000000 0.000000 -0.017045 0.000000 0.033632
#
#
# Mechanical properties :
#
#
# Convention : Reuss Voigt Hill
#
# Bulk Modulus (GPa) = 24.63704 25.48661 25.06183
# Shear Modulus (GPa) = 22.23944 28.71416 25.47680
#
# Velocity S-wave (km/s) = 3.19523 3.63068 3.41989
# Velocity P-wave (km/s) = 4.99227 5.41073 5.20571
#
# Compressibility (1/GPa) = 0.04058929
#
# Stress axis : x y z
#
# Youngs Moduli (GPa) = 38.42931 42.04795 57.96189
#
# Poissons Ratio (x) = 0.38180 0.17161
# Poissons Ratio (y) = 0.34894 0.06914
# Poissons Ratio (z) = 0.11378 0.05016
#
# Static dielectric constant tensor:
#      x y z
#    x 1.767380 0.000000 0.037460 
#    y 0.000000 1.826350 0.000000 
#    z 0.037460 0.000000 1.871240 
# 
# From -- ./inp_files/257389.got.cif
#   From: 2010.05.17/outbox.cif.g08.bks.cpg/sg15_129_cif.got.tgz:257389.got - 2010.06.03 18:47:42.
