data_PCOD9268805
_publ_section_title
;
Structure prediction by ZEFSAII (Michael W. Deem and Ramdas Pophale) SiO2 
 PCOD9268805
Probable space group: C 2/C
;
_chemical_formula_sum "Si O2"
_cell_formula_units_Z 56
_cell_length_a 13.622366
_cell_length_b 20.858536
_cell_length_c 24.868443
_cell_angle_alpha 90.000000
_cell_angle_beta 158.495445
_cell_angle_gamma 90.000000
_cell_volume 2590.287892
_symmetry_space_group_name_H-M "C 2/C"
_symmetry_group_IT_number 15
_symmetry_cell_setting 'monoclinic'
loop_
_space_group_symop_operation_xyz
x,y,z
-x,y,1/2-z
-x,-y,-z
x,-y,1/2+z
1/2+x,1/2+y,z
1/2-x,1/2+y,1/2-z
1/2-x,1/2-y,-z
1/2+x,1/2-y,1/2+z
loop_
_atom_site_type_symbol
_atom_site_label
_atom_site_fract_x
_atom_site_fract_y
_atom_site_fract_z
Si Si1 0.552845 0.349364 0.533058
Si Si2 0.769537 0.983219 0.241665
Si Si3 0.147623 0.389011 0.503110
Si Si4 0.816663 0.713568 0.392971
Si Si5 0.793517 0.131155 0.267158
Si Si6 0.500000 0.928881 0.250000
Si Si7 0.500000 0.514295 0.250000
Si Si8 0.313603 0.529883 0.453095
O O1 0.482232 0.279016 0.476510
O O2 0.689359 0.349462 0.661600
O O3 0.258940 0.384118 0.383378
O O4 0.722696 0.396483 0.581200
O O5 0.873060 0.976186 0.233477
O O6 0.017821 0.975768 0.407629
O O7 0.570709 0.923794 0.143767
O O8 0.681735 0.058194 0.203186
O O9 0.065508 0.330478 0.499074
O O10 0.394258 0.370696 0.590939
O O11 0.274655 0.440518 0.609069
O O12 0.500000 0.722460 0.250000
O O13 0.826276 0.677505 0.340104
O O14 0.557761 0.983428 0.325049
O O15 0.500000 0.500000 0.500000
#
# Coordination Sequence:
#
# PCOD9268805 Si02
#       8
#     8   8   8   8   8   4   4   8
#     4  11  22  35  57  84 115 148 183 223 284 342
#     4  11  20  35  56  81 115 146 188 240 277 320
#     4  10  20  33  56  82 117 146 184 229 276 332
#     4  10  20  36  51  80 119 153 182 217 276 349
#     4  10  21  35  52  86 115 147 188 225 282 332
#     4  10  20  37  56  81 112 146 180 240 276 324
#     4  10  20  33  52  85 110 146 186 226 278 328
#     4  10  22  35  54  85 109 141 192 229 282 331
#
# _framework density 21.619219000000001
#
# number of rings (size 3 to 8) (size 9 to 14) (size 15 to 20)
#    0.000    1.714    7.143    0.429    4.000    3.429 
#    0.000    0.000    0.000    0.857    0.000    3.000 
#    0.000    0.000    0.000    0.000    0.000    0.000 
#
# Total GULP energy -156221.288739 kJ/mol
# GULP energy per Si atom -5579.331741 kJ/mol
# Density = 2.157001 g / cm^3
# Si number density = 21.619219 Si / 1000 Ang^3
#
#
#
# Elastic Constant Matrix: (Units=GPa)
#
#
# Indices 1 2 3 4 5 6 
#
# 1 41.7125 22.1628 10.6948 -0.0721 -21.9967 -0.0075
# 2 22.1628 146.9979 35.7348 0.0448 -5.7855 -0.0040
# 3 10.6948 35.7348 89.9647 -0.5528 -10.8003 -0.1777
# 4 -0.0721 0.0448 -0.5528 237.8124 -0.0703 71.7583
# 5 -21.9967 -5.7855 -10.8003 -0.0703 28.7148 -0.0251
# 6 -0.0075 -0.0040 -0.1777 71.7583 -0.0251 35.9460
#
#
#
# Elastic Compliance Matrix: (Units=1/GPa)
#
#
# Indices 1 2 3 4 5 6 
#
# 1 0.044109 -0.005578 0.000936 0.000039 0.033018 -0.000041
# 2 -0.005578 0.008240 -0.003062 -0.000015 -0.003765 0.000012
# 3 0.000936 -0.003062 0.012811 0.000030 0.004919 0.000006
# 4 0.000039 -0.000015 0.000030 0.010575 0.000045 -0.021111
# 5 0.033018 -0.003765 0.004919 0.000045 0.061210 -0.000017
# 6 -0.000041 0.000012 0.000006 -0.021111 -0.000017 0.069963
#
#
# Mechanical properties :
#
#
# Convention : Reuss Voigt Hill
#
# Bulk Modulus (GPa) = 20.09970 46.20666 33.15318
# Shear Modulus (GPa) = 20.92923 74.50013 47.71468
#
# Velocity S-wave (km/s) = 3.11478 5.87664 4.70302
# Velocity P-wave (km/s) = 4.71732 8.21377 6.69773
#
# Compressibility (1/GPa) = 0.04975200
#
# Stress axis : x y z
#
# Youngs Moduli (GPa) = 22.67102 121.35853 78.05721
#
# Poissons Ratio (x) = 0.67699 -0.07307
# Poissons Ratio (y) = 0.12647 0.23900
# Poissons Ratio (z) = -0.02122 0.37159
#
# Static dielectric constant tensor:
#      x y z
#    x 1.931130 0.000010 0.025990 
#    y 0.000010 1.798750 -0.000040 
#    z 0.025990 -0.000040 1.772660 
# 
# From -- ./inp_files/299489.got.cif
#   From: 2010.05.17/outbox.cif.g08.bks.cpg/sg15_150_cif.got.tgz:299489.got - 2010.06.03 18:47:42.
