data_PCOD9268352
_publ_section_title
;
Structure prediction by ZEFSAII (Michael W. Deem and Ramdas Pophale) SiO2 
 PCOD9268352
Probable space group: C 2/C
;
_chemical_formula_sum "Si O2"
_cell_formula_units_Z 56
_cell_length_a 27.932303
_cell_length_b 7.122135
_cell_length_c 10.404493
_cell_angle_alpha 90.000000
_cell_angle_beta 71.605146
_cell_angle_gamma 90.000000
_cell_volume 1964.085138
_symmetry_space_group_name_H-M "C 2/C"
_symmetry_group_IT_number 15
_symmetry_cell_setting 'monoclinic'
loop_
_space_group_symop_operation_xyz
x,y,z
-x,y,1/2-z
-x,-y,-z
x,-y,1/2+z
1/2+x,1/2+y,z
1/2-x,1/2+y,1/2-z
1/2-x,1/2-y,-z
1/2+x,1/2-y,1/2+z
loop_
_atom_site_type_symbol
_atom_site_label
_atom_site_fract_x
_atom_site_fract_y
_atom_site_fract_z
Si Si1 0.742018 0.727760 0.300819
Si Si2 0.641814 0.205611 0.331281
Si Si3 0.004095 0.276194 0.524909
Si Si4 0.931945 0.249251 0.379016
Si Si5 0.275252 0.949545 0.490887
Si Si6 0.142134 0.701324 0.746719
Si Si7 0.927167 0.301801 0.824061
O O1 0.799313 0.743785 0.198225
O O2 0.749293 0.575380 0.404360
O O3 0.689386 0.693618 0.270601
O O4 0.768173 0.428182 0.122830
O O5 0.607399 0.289634 0.471633
O O6 0.625423 0.255131 0.198261
O O7 0.629196 0.979923 0.344593
O O8 0.984387 0.193259 0.405696
O O9 0.965048 0.247841 0.675759
O O10 0.000000 0.500000 0.500000
O O11 0.056380 0.221411 0.551228
O O12 0.904140 0.181484 0.272117
O O13 0.934875 0.472937 0.339442
O O14 0.250000 0.750000 0.500000
O O15 0.331589 0.903608 0.398261
#
# Coordination Sequence:
#
# PCOD9268352 Si02
#       7
#     8   8   8   8   8   8   8
#     4  10  22  38  54  81 110 152 194 235 291 349
#     4   9  18  31  47  72 108 149 196 241 292 351
#     4   8  13  23  41  66 102 146 190 236 295 355
#     4   9  16  26  43  71 104 148 190 236 295 350
#     4  10  23  39  58  77 109 152 194 243 288 336
#     4  10  20  31  51  75 106 148 191 236 291 346
#     4   8  14  25  42  67 102 148 190 241 294 353
#
# _framework density 28.512004000000001
#
# number of rings (size 3 to 8) (size 9 to 14) (size 15 to 20)
#    0.000    2.857    0.000    0.857    6.000    1.143 
#    0.000    0.000    0.000    0.000    0.000    0.000 
#    0.000    1.143    5.143   55.000    0.000  183.571 
#
# Total GULP energy -156381.263883 kJ/mol
# GULP energy per Si atom -5585.045139 kJ/mol
# Density = 2.844711 g / cm^3
# Si number density = 28.512004 Si / 1000 Ang^3
#
#
#
# Elastic Constant Matrix: (Units=GPa)
#
#
# Indices 1 2 3 4 5 6 
#
# 1 237.9567 15.8774 66.3999 0.0000 74.4159 0.0000
# 2 15.8774 98.0854 3.1190 0.0000 -3.6545 0.0000
# 3 66.3999 3.1190 95.6906 0.0000 28.4025 0.0000
# 4 0.0000 0.0000 0.0000 15.7783 0.0000 -1.8014
# 5 74.4159 -3.6545 28.4025 0.0000 77.9629 0.0000
# 6 0.0000 0.0000 0.0000 -1.8014 0.0000 25.4248
#
#
#
# Elastic Compliance Matrix: (Units=1/GPa)
#
#
# Indices 1 2 3 4 5 6 
#
# 1 0.006860 -0.001216 -0.003095 0.000000 -0.005478 0.000000
# 2 -0.001216 0.010453 0.000015 0.000000 0.001645 0.000000
# 3 -0.003095 0.000015 0.013141 0.000000 -0.001833 0.000000
# 4 0.000000 0.000000 0.000000 0.063895 0.000000 0.004527
# 5 -0.005478 0.001645 -0.001833 0.000000 0.018800 0.000000
# 6 0.000000 0.000000 0.000000 0.004527 0.000000 0.039652
#
#
# Mechanical properties :
#
#
# Convention : Reuss Voigt Hill
#
# Bulk Modulus (GPa) = 45.74122 66.94723 56.34423
# Shear Modulus (GPa) = 29.64166 46.92229 38.28198
#
# Velocity S-wave (km/s) = 3.22781 4.06113 3.66821
# Velocity P-wave (km/s) = 5.47442 6.74698 6.14374
#
# Compressibility (1/GPa) = 0.02186212
#
# Stress axis : x y z
#
# Youngs Moduli (GPa) = 145.76874 95.66732 76.09558
#
# Poissons Ratio (x) = 0.11635 0.23550
# Poissons Ratio (y) = 0.17728 -0.00113
# Poissons Ratio (z) = 0.45113 -0.00142
#
# Static dielectric constant tensor:
#      x y z
#    x 2.312700 0.000000 0.020930 
#    y 0.000000 2.247930 0.000000 
#    z 0.020930 0.000000 2.428920 
# 
# From -- ./inp_files/122240.got.cif
#   From: 2010.05.17/outbox.cif.g08.bks.cpg/sg15_62_cif.got.tgz:122240.got - 2010.06.03 18:47:42.
