data_PCOD9268955
_publ_section_title
;
Structure prediction by ZEFSAII (Michael W. Deem and Ramdas Pophale) SiO2 
 PCOD9268955
Probable space group: C 2/C
;
_chemical_formula_sum "Si O2"
_cell_formula_units_Z 52
_cell_length_a 26.357228
_cell_length_b 13.718706
_cell_length_c 8.980033
_cell_angle_alpha 90.000000
_cell_angle_beta 41.647585
_cell_angle_gamma 90.000000
_cell_volume 2157.826606
_symmetry_space_group_name_H-M "C 2/C"
_symmetry_group_IT_number 15
_symmetry_cell_setting 'monoclinic'
loop_
_space_group_symop_operation_xyz
x,y,z
-x,y,1/2-z
-x,-y,-z
x,-y,1/2+z
1/2+x,1/2+y,z
1/2-x,1/2+y,1/2-z
1/2-x,1/2-y,-z
1/2+x,1/2-y,1/2+z
loop_
_atom_site_type_symbol
_atom_site_label
_atom_site_fract_x
_atom_site_fract_y
_atom_site_fract_z
Si Si1 0.929121 0.142295 0.497690
Si Si2 0.500000 0.833544 0.250000
Si Si3 0.780224 0.178882 0.643425
Si Si4 0.892041 0.364335 0.931545
Si Si5 0.419512 0.630771 0.853618
Si Si6 0.600486 0.044601 0.761381
Si Si7 0.233136 0.883320 0.660215
O O1 0.850369 0.141685 0.583427
O O2 0.921264 0.101698 0.678236
O O3 0.000000 0.099956 0.250000
O O4 0.952509 0.256990 0.455148
O O5 0.443018 0.893361 0.269896
O O6 0.699959 0.132904 0.863346
O O7 0.794517 0.159107 0.437826
O O8 0.766795 0.294670 0.685254
O O9 0.916268 0.413458 0.036901
O O10 0.911547 0.249694 0.885287
O O11 0.918727 0.432889 0.737125
O O12 0.500000 0.608072 0.750000
O O13 0.344347 0.583182 0.091609
O O14 0.692138 0.054116 0.538523
#
# Coordination Sequence:
#
# PCOD9268955 Si02
#       7
#     8   4   8   8   8   8   8
#     4  10  20  33  57  83 109 139 184 233 272 325
#     4  10  22  34  56  78 114 148 180 224 274 330
#     4   9  17  36  54  80 103 147 184 229 274 319
#     4  10  25  35  57  78 117 147 189 223 271 335
#     4  11  22  36  55  87 111 147 184 230 276 328
#     4  11  22  39  53  82 112 157 179 227 275 324
#     4   9  18  35  57  72 113 144 186 226 275 325
#
# _framework density 24.098323000000001
#
# number of rings (size 3 to 8) (size 9 to 14) (size 15 to 20)
#    0.462    1.538    1.538    2.769    3.231    4.308 
#    0.000    0.000    0.000    0.923    0.000    6.462 
#    0.000    0.000    0.000    0.000    0.000    0.000 
#
# Total GULP energy -145419.508357 kJ/mol
# GULP energy per Si atom -5593.058014 kJ/mol
# Density = 2.404347 g / cm^3
# Si number density = 24.098323 Si / 1000 Ang^3
#
#
#
# Elastic Constant Matrix: (Units=GPa)
#
#
# Indices 1 2 3 4 5 6 
#
# 1 167.5321 1.5994 62.8656 0.0000 -31.2852 0.0000
# 2 1.5994 90.0293 1.7826 0.0000 2.7533 0.0000
# 3 62.8656 1.7826 124.5369 0.0000 -17.2977 0.0000
# 4 0.0000 0.0000 0.0000 487.5210 0.0000 347.5950
# 5 -31.2852 2.7533 -17.2977 0.0000 41.9454 0.0000
# 6 0.0000 0.0000 0.0000 347.5950 0.0000 262.9077
#
#
#
# Elastic Compliance Matrix: (Units=1/GPa)
#
#
# Indices 1 2 3 4 5 6 
#
# 1 0.008139 -0.000219 -0.003458 0.000000 0.004659 0.000000
# 2 -0.000219 0.011145 -0.000184 0.000000 -0.000970 0.000000
# 3 -0.003458 -0.000184 0.009994 0.000000 0.001554 0.000000
# 4 0.000000 0.000000 0.000000 0.035766 0.000000 -0.047287
# 5 0.004659 -0.000970 0.001554 0.000000 0.028020 0.000000
# 6 0.000000 0.000000 0.000000 -0.047287 0.000000 0.066323
#
#
# Mechanical properties :
#
#
# Convention : Reuss Voigt Hill
#
# Bulk Modulus (GPa) = 46.39117 57.17705 51.78411
# Shear Modulus (GPa) = 28.68741 179.53154 104.10947
#
# Velocity S-wave (km/s) = 3.45401 8.64068 6.57995
# Velocity P-wave (km/s) = 5.93291 11.10525 8.90298
#
# Compressibility (1/GPa) = 0.02155583
#
# Stress axis : x y z
#
# Youngs Moduli (GPa) = 122.86966 89.72874 100.06083
#
# Poissons Ratio (x) = 0.01961 0.34603
# Poissons Ratio (y) = 0.02686 0.01841
# Poissons Ratio (z) = 0.42491 0.01651
#
# Static dielectric constant tensor:
#      x y z
#    x 1.842310 0.000000 -0.007980 
#    y 0.000000 1.978400 0.000000 
#    z -0.007980 0.000000 1.910880 
# 
# From -- ./inp_files/66989.got.cif
#   From: 2010.05.17/outbox.cif.g08.bks.cpg/sg15_34_cif.got.tgz:66989.got - 2010.06.03 18:47:42.
