data_PCOD9268105
_publ_section_title
;
Structure prediction by ZEFSAII (Michael W. Deem and Ramdas Pophale) SiO2 
 PCOD9268105
Probable space group: C 2/C
;
_chemical_formula_sum "Si O2"
_cell_formula_units_Z 36
_cell_length_a 6.905910
_cell_length_b 8.296522
_cell_length_c 25.154551
_cell_angle_alpha 90.000000
_cell_angle_beta 101.117063
_cell_angle_gamma 90.000000
_cell_volume 1414.186577
_symmetry_space_group_name_H-M "C 2/C"
_symmetry_group_IT_number 15
_symmetry_cell_setting 'monoclinic'
loop_
_space_group_symop_operation_xyz
x,y,z
-x,y,1/2-z
-x,-y,-z
x,-y,1/2+z
1/2+x,1/2+y,z
1/2-x,1/2+y,1/2-z
1/2-x,1/2-y,-z
1/2+x,1/2-y,1/2+z
loop_
_atom_site_type_symbol
_atom_site_label
_atom_site_fract_x
_atom_site_fract_y
_atom_site_fract_z
Si Si1 0.587058 0.896033 0.699146
Si Si2 0.579688 0.450508 0.562311
Si Si3 0.118086 0.089061 0.846985
Si Si4 0.000000 0.871276 0.750000
Si Si5 0.412079 0.130738 0.536159
O O1 0.500000 0.955154 0.750000
O O2 0.438509 0.773428 0.663695
O O3 0.671369 0.034612 0.665438
O O4 0.788227 0.796248 0.725811
O O5 0.500000 0.500000 0.500000
O O6 0.433196 0.521504 0.598164
O O7 0.576325 0.257084 0.564417
O O8 0.791486 0.535923 0.574800
O O9 0.974295 0.987456 0.799640
O O10 0.250000 0.250000 0.500000
O O11 0.500000 0.000000 0.500000
#
# Coordination Sequence:
#
# PCOD9268105 Si02
#       5
#     8   8   8   4   8
#     4  10  19  42  64  99 132 180 230 291 347 415
#     4  10  21  39  67 102 140 179 229 278 344 413
#     4  10  20  41  68  98 136 182 227 287 348 414
#     4   8  22  38  64  92 134 170 234 278 350 398
#     4  10  21  40  66  93 134 178 221 274 326 398
#
# _framework density 25.456330999999999
#
# number of rings (size 3 to 8) (size 9 to 14) (size 15 to 20)
#    1.333    0.889    1.111    2.000    0.000    0.000 
#    8.000   13.333    0.000    0.000    0.000    0.000 
#    0.000    0.000    0.000    0.000    0.000    0.000 
#
# Total GULP energy -100581.668732 kJ/mol
# GULP energy per Si atom -5587.870485 kJ/mol
# Density = 2.539839 g / cm^3
# Si number density = 25.456331 Si / 1000 Ang^3
#
#
#
# Elastic Constant Matrix: (Units=GPa)
#
#
# Indices 1 2 3 4 5 6 
#
# 1 132.4615 83.0881 49.0852 0.0000 -20.4649 0.0000
# 2 83.0881 177.5530 60.8003 0.0000 -27.7137 0.0000
# 3 49.0852 60.8003 174.0378 0.0000 -38.3136 0.0000
# 4 0.0000 0.0000 0.0000 18.6448 0.0000 18.4638
# 5 -20.4649 -27.7137 -38.3136 0.0000 58.2657 0.0000
# 6 0.0000 0.0000 0.0000 18.4638 0.0000 38.8164
#
#
#
# Elastic Compliance Matrix: (Units=1/GPa)
#
#
# Indices 1 2 3 4 5 6 
#
# 1 0.011046 -0.004584 -0.001333 0.000000 0.000823 0.000000
# 2 -0.004584 0.008473 -0.001326 0.000000 0.001548 0.000000
# 3 -0.001333 -0.001326 0.007417 0.000000 0.003778 0.000000
# 4 0.000000 0.000000 0.000000 0.101398 0.000000 -0.048232
# 5 0.000823 0.001548 0.003778 0.000000 0.020672 0.000000
# 6 0.000000 0.000000 0.000000 -0.048232 0.000000 0.048705
#
#
# Mechanical properties :
#
#
# Convention : Reuss Voigt Hill
#
# Bulk Modulus (GPa) = 80.32654 96.66662 88.49658
# Shear Modulus (GPa) = 23.11099 42.55064 32.83081
#
# Velocity S-wave (km/s) = 3.01635 4.09285 3.59512
# Velocity P-wave (km/s) = 6.61471 7.77118 7.21615
#
# Compressibility (1/GPa) = 0.01244919
#
# Stress axis : x y z
#
# Youngs Moduli (GPa) = 90.53164 118.01926 134.82792
#
# Poissons Ratio (x) = 0.54103 0.17968
# Poissons Ratio (y) = 0.41502 0.17884
# Poissons Ratio (z) = 0.12065 0.15655
#
# Static dielectric constant tensor:
#      x y z
#    x 2.017400 0.000000 0.055380 
#    y 0.000000 2.016120 0.000000 
#    z 0.055380 0.000000 1.959320 
# 
# From -- ./inp_files/286901.got.cif
#   From: 2010.05.17/outbox.cif.g08.bks.cpg/sg15_144_cif.got.tgz:286901.got - 2010.06.03 18:47:42.
