data_PCOD9268687
_publ_section_title
;
Structure prediction by ZEFSAII (Michael W. Deem and Ramdas Pophale) SiO2 
 PCOD9268687
Probable space group: C 2/C
;
_chemical_formula_sum "Si O2"
_cell_formula_units_Z 48
_cell_length_a 14.483356
_cell_length_b 25.949274
_cell_length_c 14.993751
_cell_angle_alpha 90.000000
_cell_angle_beta 151.450609
_cell_angle_gamma 90.000000
_cell_volume 2693.124449
_symmetry_space_group_name_H-M "C 2/C"
_symmetry_group_IT_number 15
_symmetry_cell_setting 'monoclinic'
loop_
_space_group_symop_operation_xyz
x,y,z
-x,y,1/2-z
-x,-y,-z
x,-y,1/2+z
1/2+x,1/2+y,z
1/2-x,1/2+y,1/2-z
1/2-x,1/2-y,-z
1/2+x,1/2-y,1/2+z
loop_
_atom_site_type_symbol
_atom_site_label
_atom_site_fract_x
_atom_site_fract_y
_atom_site_fract_z
Si Si1 0.355854 0.018580 0.503866
Si Si2 0.559378 0.876680 0.118249
Si Si3 0.727791 0.496063 0.587898
Si Si4 0.366825 0.554669 0.818361
Si Si5 0.800874 0.184623 0.960009
Si Si6 0.738033 0.301962 0.862244
O O1 0.426506 0.074401 0.531392
O O2 0.242365 0.018834 0.501067
O O3 0.554468 0.987737 0.693199
O O4 0.235214 0.989770 0.326574
O O5 0.727251 0.896168 0.194220
O O6 0.676517 0.857411 0.303993
O O7 0.416694 0.830946 0.968766
O O8 0.640821 0.536832 0.584792
O O9 0.587814 0.446724 0.474348
O O10 0.752420 0.185025 0.023799
O O11 0.032083 0.179398 0.150772
O O12 0.746953 0.240024 0.871155
#
# Coordination Sequence:
#
# PCOD9268687 Si02
#       6
#     8   8   8   8   8   8
#     4  10  21  35  53  75 107 146 181 225 263 315
#     4  11  21  31  54  73 104 143 183 214 258 321
#     4   9  19  34  52  71 105 141 173 225 265 306
#     4  10  21  35  51  76 109 139 182 231 261 310
#     4  10  20  33  48  71 102 141 177 223 256 304
#     4  10  20  33  49  70 104 138 180 221 258 303
#
# _framework density 17.823163999999998
#
# number of rings (size 3 to 8) (size 9 to 14) (size 15 to 20)
#    0.000    2.000    1.667    3.000    9.333    5.333 
#    3.000    0.000    0.000    0.000    0.000    0.000 
#    0.000    5.333    0.000    1.000    0.000    0.000 
#
# Total GULP energy -133841.129381 kJ/mol
# GULP energy per Si atom -5576.713724 kJ/mol
# Density = 1.778260 g / cm^3
# Si number density = 17.823164 Si / 1000 Ang^3
#
#
#
# Elastic Constant Matrix: (Units=GPa)
#
#
# Indices 1 2 3 4 5 6 
#
# 1 37.1413 8.4544 4.0061 0.0000 6.5232 0.0000
# 2 8.4544 45.3968 22.9506 0.0000 2.8668 0.0000
# 3 4.0061 22.9506 62.7809 -0.0001 6.6237 -0.0001
# 4 0.0000 0.0000 -0.0001 19.9270 -0.0001 6.4269
# 5 6.5232 2.8668 6.6237 -0.0001 25.8504 0.0000
# 6 0.0000 0.0000 -0.0001 6.4269 0.0000 20.4367
#
#
#
# Elastic Compliance Matrix: (Units=1/GPa)
#
#
# Indices 1 2 3 4 5 6 
#
# 1 0.029303 -0.005450 0.000862 0.000000 -0.007011 0.000000
# 2 -0.005450 0.028042 -0.009990 0.000000 0.000825 0.000000
# 3 0.000862 -0.009990 0.019972 0.000000 -0.004227 0.000000
# 4 0.000000 0.000000 0.000000 0.055848 0.000000 -0.017563
# 5 -0.007011 0.000825 -0.004227 0.000000 0.041445 0.000000
# 6 0.000000 0.000000 0.000000 -0.017563 0.000000 0.054455
#
#
# Mechanical properties :
#
#
# Convention : Reuss Voigt Hill
#
# Bulk Modulus (GPa) = 20.76437 24.01568 22.39002
# Shear Modulus (GPa) = 18.22998 20.57003 19.40000
#
# Velocity S-wave (km/s) = 3.20163 3.40092 3.30278
# Velocity P-wave (km/s) = 5.03416 5.37823 5.20904
#
# Compressibility (1/GPa) = 0.04815942
#
# Stress axis : x y z
#
# Youngs Moduli (GPa) = 34.12594 35.66131 50.07133
#
# Poissons Ratio (x) = 0.19437 -0.04318
# Poissons Ratio (y) = 0.18600 0.50023
# Poissons Ratio (z) = -0.02943 0.35627
#
# Static dielectric constant tensor:
#      x y z
#    x 1.635880 0.000000 0.044660 
#    y 0.000000 1.632940 0.000000 
#    z 0.044660 0.000000 1.650530 
# 
# From -- ./inp_files/156827.got.cif
#   From: 2010.05.17/outbox.cif.g08.bks.cpg/sg15_79_cif.got.tgz:156827.got - 2010.06.03 18:47:42.
