data_PCOD9268222
_publ_section_title
;
Structure prediction by ZEFSAII (Michael W. Deem and Ramdas Pophale) SiO2 
 PCOD9268222
Probable space group: C 2/C
;
_chemical_formula_sum "Si O2"
_cell_formula_units_Z 44
_cell_length_a 19.603859
_cell_length_b 9.749744
_cell_length_c 10.847747
_cell_angle_alpha 90.000000
_cell_angle_beta 44.512235
_cell_angle_gamma 90.000000
_cell_volume 1453.551699
_symmetry_space_group_name_H-M "C 2/C"
_symmetry_group_IT_number 15
_symmetry_cell_setting 'monoclinic'
loop_
_space_group_symop_operation_xyz
x,y,z
-x,y,1/2-z
-x,-y,-z
x,-y,1/2+z
1/2+x,1/2+y,z
1/2-x,1/2+y,1/2-z
1/2-x,1/2-y,-z
1/2+x,1/2-y,1/2+z
loop_
_atom_site_type_symbol
_atom_site_label
_atom_site_fract_x
_atom_site_fract_y
_atom_site_fract_z
Si Si1 0.000000 0.168467 0.750000
Si Si2 0.170794 0.704548 0.981039
Si Si3 0.834410 0.424656 0.753632
Si Si4 0.424217 0.247419 0.928406
Si Si5 0.831769 0.738121 0.826474
Si Si6 0.631113 0.541568 0.797249
O O1 0.065409 0.255792 0.569598
O O2 0.928551 0.084480 0.749737
O O3 0.229670 0.848573 0.890521
O O4 0.165625 0.586922 0.735004
O O5 0.148603 0.882044 0.763406
O O6 0.131654 0.642405 0.161879
O O7 0.896847 0.375567 0.557272
O O8 0.759736 0.103203 0.842534
O O9 0.302344 0.252378 0.014379
O O10 0.415883 0.387732 0.021664
O O11 0.448766 0.232966 0.743046
#
# Coordination Sequence:
#
# PCOD9268222 Si02
#       6
#     4   8   8   8   8   8
#     4  12  18  42  90 126 162 240 284 358 436 512
#     4  10  19  46  82 128 164 225 299 343 438 512
#     4  10  21  52  79 114 177 222 282 361 424 514
#     4  11  28  55  77 124 176 221 305 351 419 536
#     4  12  26  51  83 128 171 230 279 359 455 508
#     4  11  25  51  83 128 175 222 292 359 430 527
#
# _framework density 30.270679000000001
#
# number of rings (size 3 to 8) (size 9 to 14) (size 15 to 20)
#    0.000    1.091    7.273    0.000    1.273    2.909 
#    8.182    2.727    0.000    0.000    0.000    0.000 
#    0.000    0.000    0.000    0.000    0.000    0.000 
#
# Total GULP energy -122939.876631 kJ/mol
# GULP energy per Si atom -5588.176210 kJ/mol
# Density = 3.020178 g / cm^3
# Si number density = 30.270679 Si / 1000 Ang^3
#
#
#
# Elastic Constant Matrix: (Units=GPa)
#
#
# Indices 1 2 3 4 5 6 
#
# 1 242.7862 108.1197 116.6023 0.0000 -32.4067 0.0000
# 2 108.1197 342.4425 151.7798 0.0000 -28.9581 0.0000
# 3 116.6023 151.7798 257.6119 0.0000 -24.9867 0.0000
# 4 0.0000 0.0000 0.0000 41.0835 0.0000 -12.9774
# 5 -32.4067 -28.9581 -24.9867 0.0000 95.7832 0.0000
# 6 0.0000 0.0000 0.0000 -12.9774 0.0000 -1.3243
#
#
#
# Elastic Compliance Matrix: (Units=1/GPa)
#
#
# Indices 1 2 3 4 5 6 
#
# 1 0.005555 -0.000802 -0.001932 0.000000 0.001133 0.000000
# 2 -0.000802 0.004102 -0.002011 0.000000 0.000444 0.000000
# 3 -0.001932 -0.002011 0.005970 0.000000 0.000296 0.000000
# 4 0.000000 0.000000 0.000000 0.005943 0.000000 -0.058242
# 5 0.001133 0.000444 0.000296 0.000000 0.011035 0.000000
# 6 0.000000 0.000000 0.000000 -0.058242 0.000000 -0.184382
#
#
# Mechanical properties :
#
#
# Convention : Reuss Voigt Hill
#
# Bulk Modulus (GPa) = 162.93259 177.31602 170.12430
# Shear Modulus (GPa) = -35.65287 58.19775 11.27244
#
# Velocity S-wave (km/s) = -3.43564 4.38948 1.93183
# Velocity P-wave (km/s) = 6.18093 9.18662 7.82937
#
# Compressibility (1/GPa) = 0.00613751
#
# Stress axis : x y z
#
# Youngs Moduli (GPa) = 180.01643 243.77065 167.50902
#
# Poissons Ratio (x) = 0.19544 0.32365
# Poissons Ratio (y) = 0.14432 0.33685
# Poissons Ratio (z) = 0.34781 0.49021
#
# Static dielectric constant tensor:
#      x y z
#    x 3.143700 0.000000 0.105040 
#    y 0.000000 2.526930 0.000000 
#    z 0.105040 0.000000 2.647990 
# 
# From -- ./inp_files/60313.got.cif
#   From: 2010.05.17/outbox.cif.g08.bks.cpg/sg15_31_cif.got.tgz:60313.got - 2010.06.03 18:47:42.
