data_PCOD9268215
_publ_section_title
;
Structure prediction by ZEFSAII (Michael W. Deem and Ramdas Pophale) SiO2 
 PCOD9268215
Probable space group: C 2/C
;
_chemical_formula_sum "Si O2"
_cell_formula_units_Z 60
_cell_length_a 17.973925
_cell_length_b 19.521238
_cell_length_c 8.122888
_cell_angle_alpha 90.000000
_cell_angle_beta 107.687422
_cell_angle_gamma 90.000000
_cell_volume 2715.374703
_symmetry_space_group_name_H-M "C 2/C"
_symmetry_group_IT_number 15
_symmetry_cell_setting 'monoclinic'
loop_
_space_group_symop_operation_xyz
x,y,z
-x,y,1/2-z
-x,-y,-z
x,-y,1/2+z
1/2+x,1/2+y,z
1/2-x,1/2+y,1/2-z
1/2-x,1/2-y,-z
1/2+x,1/2-y,1/2+z
loop_
_atom_site_type_symbol
_atom_site_label
_atom_site_fract_x
_atom_site_fract_y
_atom_site_fract_z
Si Si1 0.249459 0.894057 0.351889
Si Si2 0.770623 0.473395 0.701371
Si Si3 0.743170 0.659599 0.354641
Si Si4 0.579825 0.715451 0.341990
Si Si5 0.628363 0.855336 0.293910
Si Si6 0.000000 0.679100 0.250000
Si Si7 0.356920 0.260526 0.251272
Si Si8 0.561340 0.061128 0.049604
O O1 0.252480 0.938722 0.517021
O O2 0.337741 0.873172 0.360565
O O3 0.191230 0.829572 0.325430
O O4 0.234827 0.951661 0.201274
O O5 0.739341 0.419860 0.812685
O O6 0.863439 0.467814 0.801596
O O7 0.656381 0.683958 0.315029
O O8 0.793521 0.669542 0.554194
O O9 0.792817 0.701676 0.251628
O O10 0.500000 0.677264 0.250000
O O11 0.574811 0.789690 0.253448
O O12 0.597504 0.724168 0.547021
O O13 0.590668 0.911582 0.390392
O O14 0.076270 0.728320 0.320548
O O15 0.025167 0.626775 0.120155
O O16 0.500000 0.000000 0.000000
#
# Coordination Sequence:
#
# PCOD9268215 Si02
#       8
#     8   8   8   8   8   4   8   8
#     4  12  25  44  71 102 137 192 250 292 357 434
#     4  11  26  43  69 105 137 190 243 295 359 448
#     4  10  19  45  68  98 135 184 236 292 361 440
#     4  11  21  37  67 104 131 175 232 296 360 424
#     4  10  20  43  67  95 141 190 226 269 360 442
#     4  12  24  44  74 110 148 186 258 290 372 428
#     4  11  23  44  73  97 147 194 240 312 352 435
#     4  11  26  45  68 103 157 189 218 297 369 450
#
# _framework density 22.096397
#
# number of rings (size 3 to 8) (size 9 to 14) (size 15 to 20)
#    0.000    1.067    6.667    2.400    3.733    3.733 
#    0.000    0.667    1.467    1.600    0.000    0.000 
#    0.000    0.000    0.000    0.000    0.000    0.000 
#
# Total GULP energy -167708.432165 kJ/mol
# GULP energy per Si atom -5590.281072 kJ/mol
# Density = 2.204610 g / cm^3
# Si number density = 22.096397 Si / 1000 Ang^3
#
#
#
# Elastic Constant Matrix: (Units=GPa)
#
#
# Indices 1 2 3 4 5 6 
#
# 1 156.8401 63.0079 19.3287 0.0000 12.4872 0.0000
# 2 63.0079 141.0287 18.6223 0.0000 8.3315 0.0000
# 3 19.3287 18.6223 45.8172 0.0000 -2.4903 0.0000
# 4 0.0000 0.0000 0.0000 26.2104 0.0000 2.0107
# 5 12.4872 8.3315 -2.4903 0.0000 22.3116 0.0000
# 6 0.0000 0.0000 0.0000 2.0107 0.0000 42.0403
#
#
#
# Elastic Compliance Matrix: (Units=1/GPa)
#
#
# Indices 1 2 3 4 5 6 
#
# 1 0.008227 -0.003141 -0.002395 0.000000 -0.003699 0.000000
# 2 -0.003141 0.008920 -0.002400 0.000000 -0.001841 0.000000
# 3 -0.002395 -0.002400 0.024080 0.000000 0.004925 0.000000
# 4 0.000000 0.000000 0.000000 0.038293 0.000000 -0.001832
# 5 -0.003699 -0.001841 0.004925 0.000000 0.048127 0.000000
# 6 0.000000 0.000000 0.000000 -0.001832 0.000000 0.023874
#
#
# Mechanical properties :
#
#
# Convention : Reuss Voigt Hill
#
# Bulk Modulus (GPa) = 39.44222 60.62265 50.03243
# Shear Modulus (GPa) = 28.43392 34.29425 31.36409
#
# Velocity S-wave (km/s) = 3.59111 3.94385 3.77161
# Velocity P-wave (km/s) = 5.92314 6.94505 6.45435
#
# Compressibility (1/GPa) = 0.02535354
#
# Stress axis : x y z
#
# Youngs Moduli (GPa) = 121.54394 112.11032 41.52877
#
# Poissons Ratio (x) = 0.35214 0.09947
# Poissons Ratio (y) = 0.38177 0.09969
# Poissons Ratio (z) = 0.29113 0.26911
#
# Static dielectric constant tensor:
#      x y z
#    x 1.829650 0.000000 -0.032330 
#    y 0.000000 1.844770 0.000000 
#    z -0.032330 0.000000 1.920240 
# 
# From -- ./inp_files/50299.got.cif
#   From: 2010.05.17/outbox.cif.g08.bks.cpg/sg15_26_cif.got.tgz:50299.got - 2010.06.03 18:47:42.
