data_PCOD9268503
_publ_section_title
;
Structure prediction by ZEFSAII (Michael W. Deem and Ramdas Pophale) SiO2 
 PCOD9268503
Probable space group: C 2/C
;
_chemical_formula_sum "Si O2"
_cell_formula_units_Z 64
_cell_length_a 10.379229
_cell_length_b 29.168293
_cell_length_c 15.916512
_cell_angle_alpha 90.000000
_cell_angle_beta 37.641019
_cell_angle_gamma 90.000000
_cell_volume 2942.799134
_symmetry_space_group_name_H-M "C 2/C"
_symmetry_group_IT_number 15
_symmetry_cell_setting 'monoclinic'
loop_
_space_group_symop_operation_xyz
x,y,z
-x,y,1/2-z
-x,-y,-z
x,-y,1/2+z
1/2+x,1/2+y,z
1/2-x,1/2+y,1/2-z
1/2-x,1/2-y,-z
1/2+x,1/2-y,1/2+z
loop_
_atom_site_type_symbol
_atom_site_label
_atom_site_fract_x
_atom_site_fract_y
_atom_site_fract_z
Si Si1 0.556187 0.644931 0.009349
Si Si2 0.211128 0.540029 0.312696
Si Si3 0.115478 0.636315 0.324147
Si Si4 0.585610 0.544479 0.002379
Si Si5 0.962094 0.725301 0.365399
Si Si6 0.179665 0.720442 0.726933
Si Si7 0.415381 0.850558 0.463428
Si Si8 0.021186 0.450146 0.094900
O O1 0.565228 0.593455 0.967237
O O2 0.660594 0.683491 0.897446
O O3 0.708095 0.646040 0.012862
O O4 0.319252 0.650689 0.164667
O O5 0.080856 0.581661 0.336147
O O6 0.154649 0.543071 0.439637
O O7 0.154645 0.488796 0.314772
O O8 0.445243 0.550000 0.159841
O O9 0.144205 0.646247 0.408537
O O10 0.934336 0.670602 0.389086
O O11 0.824105 0.540070 0.908315
O O12 0.500000 0.500000 0.000000
O O13 0.750000 0.750000 0.500000
O O14 0.000000 0.737312 0.250000
O O15 0.165712 0.741363 0.314731
O O16 0.000000 0.734316 0.750000
O O17 0.047697 0.693909 0.867575
O O18 0.543352 0.897033 0.373893
#
# Coordination Sequence:
#
# PCOD9268503 Si02
#       8
#     8   8   8   8   8   8   8   8
#     4   9  19  36  58  88 120 152 193 258 307 352
#     4   9  19  36  56  80 110 153 201 238 286 355
#     4  10  20  39  59  84 114 161 204 243 299 378
#     4  10  20  32  52  84 117 153 190 237 299 354
#     4  12  26  45  65  91 130 168 200 258 329 380
#     4  10  22  41  65  93 120 157 210 259 306 372
#     4   9  18  34  63  89 117 148 200 257 307 348
#     4   9  18  35  56  80 114 153 193 245 292 347
#
# _framework density 21.748000999999999
#
# number of rings (size 3 to 8) (size 9 to 14) (size 15 to 20)
#    0.000    2.250    0.000    2.250    1.750    4.500 
#    6.750    3.125    0.000    0.000    0.000    0.000 
#    0.000    0.000    0.000    0.000    0.000    0.000 
#
# Total GULP energy -178624.759915 kJ/mol
# GULP energy per Si atom -5582.023747 kJ/mol
# Density = 2.169850 g / cm^3
# Si number density = 21.748001 Si / 1000 Ang^3
#
#
#
# Elastic Constant Matrix: (Units=GPa)
#
#
# Indices 1 2 3 4 5 6 
#
# 1 48.1752 32.5170 7.3813 0.0000 0.6084 0.0000
# 2 32.5170 88.8075 6.6305 0.0000 -13.2794 0.0000
# 3 7.3813 6.6305 52.5391 0.0000 10.0171 0.0000
# 4 0.0000 0.0000 0.0000 29.9191 0.0000 -6.0304
# 5 0.6084 -13.2794 10.0171 0.0000 22.9482 0.0000
# 6 0.0000 0.0000 0.0000 -6.0304 0.0000 25.1467
#
#
#
# Elastic Compliance Matrix: (Units=1/GPa)
#
#
# Indices 1 2 3 4 5 6 
#
# 1 0.028779 -0.011462 -0.001294 0.000000 -0.006831 0.000000
# 2 -0.011462 0.017399 -0.002796 0.000000 0.011593 0.000000
# 3 -0.001294 -0.002796 0.021674 0.000000 -0.011044 0.000000
# 4 0.000000 0.000000 0.000000 0.035121 0.000000 0.008422
# 5 -0.006831 0.011593 -0.011044 0.000000 0.055287 0.000000
# 6 0.000000 0.000000 0.000000 0.008422 0.000000 0.041786
#
#
# Mechanical properties :
#
#
# Convention : Reuss Voigt Hill
#
# Bulk Modulus (GPa) = 27.21265 31.39771 29.30518
# Shear Modulus (GPa) = 20.54231 25.13566 22.83899
#
# Velocity S-wave (km/s) = 3.07671 3.40335 3.24414
# Velocity P-wave (km/s) = 5.01611 5.46920 5.24755
#
# Compressibility (1/GPa) = 0.03674762
#
# Stress axis : x y z
#
# Youngs Moduli (GPa) = 34.74776 57.47323 46.13862
#
# Poissons Ratio (x) = 0.65877 0.05971
# Poissons Ratio (y) = 0.39829 0.12899
# Poissons Ratio (z) = 0.04497 0.16068
#
# Static dielectric constant tensor:
#      x y z
#    x 1.781040 0.000000 0.011880 
#    y 0.000000 1.866340 0.000000 
#    z 0.011880 0.000000 1.765320 
# 
# From -- ./inp_files/201452.got.cif
#   From: 2010.05.17/outbox.cif.g08.bks.cpg/sg15_101_cif.got.tgz:201452.got - 2010.06.03 18:47:42.
