data_PCOD9268518
_publ_section_title
;
Structure prediction by ZEFSAII (Michael W. Deem and Ramdas Pophale) SiO2 
 PCOD9268518
Probable space group: C 2/C
;
_chemical_formula_sum "Si O2"
_cell_formula_units_Z 64
_cell_length_a 27.006681
_cell_length_b 20.197858
_cell_length_c 11.440987
_cell_angle_alpha 90.000000
_cell_angle_beta 151.499931
_cell_angle_gamma 90.000000
_cell_volume 2977.857326
_symmetry_space_group_name_H-M "C 2/C"
_symmetry_group_IT_number 15
_symmetry_cell_setting 'monoclinic'
loop_
_space_group_symop_operation_xyz
x,y,z
-x,y,1/2-z
-x,-y,-z
x,-y,1/2+z
1/2+x,1/2+y,z
1/2-x,1/2+y,1/2-z
1/2-x,1/2-y,-z
1/2+x,1/2-y,1/2+z
loop_
_atom_site_type_symbol
_atom_site_label
_atom_site_fract_x
_atom_site_fract_y
_atom_site_fract_z
Si Si1 0.296305 0.647480 0.941783
Si Si2 0.689655 0.611143 0.788667
Si Si3 0.512165 0.907263 0.095752
Si Si4 0.207289 0.620904 0.256775
Si Si5 0.094369 0.724937 0.863533
Si Si6 0.418642 0.104878 0.998500
Si Si7 0.305640 0.006541 0.417104
Si Si8 0.020603 0.953947 0.657456
O O1 0.282358 0.650656 0.771018
O O2 0.181708 0.643024 0.756658
O O3 0.354817 0.714021 0.096280
O O4 0.367330 0.582614 0.112459
O O5 0.566740 0.602822 0.536100
O O6 0.733585 0.637390 0.001459
O O7 0.738267 0.537679 0.865829
O O8 0.542820 0.830652 0.175941
O O9 0.509559 0.922491 0.954866
O O10 0.605690 0.950129 0.338873
O O11 0.402773 0.911793 0.932059
O O12 0.176701 0.683732 0.114256
O O13 0.259389 0.561337 0.291026
O O14 0.000000 0.749364 0.750000
O O15 0.500000 0.142222 0.250000
O O16 0.363388 0.045505 0.953055
O O17 0.000000 0.979883 0.750000
O O18 0.000000 0.000000 0.500000
#
# Coordination Sequence:
#
# PCOD9268518 Si02
#       8
#     8   8   8   8   8   8   8   8
#     4  10  22  40  58  83 110 160 197 242 307 355
#     4  10  21  33  56  84 117 148 191 250 298 354
#     4  10  20  34  54  83 113 154 190 240 289 354
#     4  10  20  33  55  88 113 149 199 244 295 351
#     4   9  19  38  60  78 112 151 202 245 291 361
#     4  11  22  35  56  84 116 148 183 238 296 359
#     4  10  20  32  53  83 119 152 183 234 299 359
#     4  10  23  40  61  89 121 158 204 252 304 371
#
# _framework density 21.491962999999998
#
# number of rings (size 3 to 8) (size 9 to 14) (size 15 to 20)
#    0.000    2.000    0.000    5.250    7.000    2.500 
#    0.000    1.250    0.000    0.750    0.000    0.000 
#    0.000    0.000    0.000    0.000    0.000    0.000 
#
# Total GULP energy -178542.104195 kJ/mol
# GULP energy per Si atom -5579.440756 kJ/mol
# Density = 2.144305 g / cm^3
# Si number density = 21.491963 Si / 1000 Ang^3
#
#
#
# Elastic Constant Matrix: (Units=GPa)
#
#
# Indices 1 2 3 4 5 6 
#
# 1 56.4327 6.8317 12.8676 0.0000 0.7228 0.0000
# 2 6.8317 65.0323 8.5735 0.0000 12.0068 0.0000
# 3 12.8676 8.5735 76.9352 0.0000 -3.5532 0.0000
# 4 0.0000 0.0000 0.0000 13.7448 0.0000 3.4053
# 5 0.7228 12.0068 -3.5532 0.0000 39.6591 0.0000
# 6 0.0000 0.0000 0.0000 3.4053 0.0000 18.2510
#
#
#
# Elastic Compliance Matrix: (Units=1/GPa)
#
#
# Indices 1 2 3 4 5 6 
#
# 1 0.018579 -0.001539 -0.002942 0.000000 -0.000136 0.000000
# 2 -0.001539 0.016744 -0.001849 0.000000 -0.005207 0.000000
# 3 -0.002942 -0.001849 0.013781 0.000000 0.001848 0.000000
# 4 0.000000 0.000000 0.000000 0.076281 0.000000 -0.014233
# 5 -0.000136 -0.005207 0.001848 0.000000 0.026959 0.000000
# 6 0.000000 0.000000 0.000000 -0.014233 0.000000 0.057447
#
#
# Mechanical properties :
#
#
# Convention : Reuss Voigt Hill
#
# Bulk Modulus (GPa) = 27.43906 28.32733 27.88320
# Shear Modulus (GPa) = 21.31291 25.67281 23.49286
#
# Velocity S-wave (km/s) = 3.15249 3.45995 3.30979
# Velocity P-wave (km/s) = 5.10351 5.40099 5.25435
#
# Compressibility (1/GPa) = 0.03644439
#
# Stress axis : x y z
#
# Youngs Moduli (GPa) = 53.82391 59.72403 72.56130
#
# Poissons Ratio (x) = 0.09190 0.21349
# Poissons Ratio (y) = 0.08282 0.13417
# Poissons Ratio (z) = 0.15836 0.11043
#
# Static dielectric constant tensor:
#      x y z
#    x 1.826600 0.000000 -0.033880 
#    y 0.000000 1.796710 0.000000 
#    z -0.033880 0.000000 1.851550 
# 
# From -- ./inp_files/127303.got.cif
#   From: 2010.05.17/outbox.cif.g08.bks.cpg/sg15_64_cif.got.tgz:127303.got - 2010.06.03 18:47:42.
