data_PCOD9268057
_publ_section_title
;
Structure prediction by ZEFSAII (Michael W. Deem and Ramdas Pophale) SiO2 
 PCOD9268057
Probable space group: C 2/C
;
_chemical_formula_sum "Si O2"
_cell_formula_units_Z 48
_cell_length_a 13.408722
_cell_length_b 26.409304
_cell_length_c 5.394783
_cell_angle_alpha 90.000000
_cell_angle_beta 73.177375
_cell_angle_gamma 90.000000
_cell_volume 1828.619779
_symmetry_space_group_name_H-M "C 2/C"
_symmetry_group_IT_number 15
_symmetry_cell_setting 'monoclinic'
loop_
_space_group_symop_operation_xyz
x,y,z
-x,y,1/2-z
-x,-y,-z
x,-y,1/2+z
1/2+x,1/2+y,z
1/2-x,1/2+y,1/2-z
1/2-x,1/2-y,-z
1/2+x,1/2-y,1/2+z
loop_
_atom_site_type_symbol
_atom_site_label
_atom_site_fract_x
_atom_site_fract_y
_atom_site_fract_z
Si Si1 0.500000 0.125164 0.750000
Si Si2 0.596766 0.623935 0.027443
Si Si3 0.500000 0.719232 0.250000
Si Si4 0.301463 0.126698 0.214002
Si Si5 0.121403 0.468704 0.624010
Si Si6 0.403461 0.792818 0.972092
Si Si7 0.616207 0.479261 0.354011
O O1 0.605277 0.107823 0.537685
O O2 0.449270 0.158166 0.571066
O O3 0.500000 0.600996 0.250000
O O4 0.553434 0.680333 0.014613
O O5 0.697596 0.629468 0.127191
O O6 0.613681 0.581025 0.811531
O O7 0.594394 0.752425 0.302065
O O8 0.307136 0.080665 0.401474
O O9 0.321268 0.181104 0.341281
O O10 0.133115 0.491977 0.342312
O O11 0.000000 0.452866 0.750000
O O12 0.500000 0.771412 0.750000
O O13 0.500000 0.500000 0.500000
O O14 0.665377 0.508891 0.087947
#
# Coordination Sequence:
#
# PCOD9268057 Si02
#       7
#     4   8   4   8   8   8   8
#     4   9  20  40  66  94 126 168 226 280 343 420
#     4  10  23  44  63 102 142 175 232 292 337 416
#     4   9  20  44  64  96 140 166 230 290 355 410
#     4  11  23  40  69  98 132 184 229 279 356 421
#     4  10  23  40  66 103 145 181 233 301 352 419
#     4   9  19  40  68  92 126 176 222 285 347 431
#     4  10  19  41  69  94 136 194 238 277 339 415
#
# _framework density 26.249303999999999
#
# number of rings (size 3 to 8) (size 9 to 14) (size 15 to 20)
#    0.500    1.667    1.667    1.500    5.833    2.000 
#   10.500    7.500    0.000    3.000    0.000    0.000 
#    0.000    0.000    0.000    0.000    0.000    0.000 
#
# Total GULP energy -133729.563244 kJ/mol
# GULP energy per Si atom -5572.065135 kJ/mol
# Density = 2.618956 g / cm^3
# Si number density = 26.249304 Si / 1000 Ang^3
#
#
#
# Elastic Constant Matrix: (Units=GPa)
#
#
# Indices 1 2 3 4 5 6 
#
# 1 148.3930 34.5016 29.8537 0.0000 9.0607 0.0000
# 2 34.5016 155.2185 32.0621 0.0000 12.9606 0.0000
# 3 29.8537 32.0621 111.2327 0.0000 -8.1034 0.0000
# 4 0.0000 0.0000 0.0000 18.6497 0.0000 19.2100
# 5 9.0607 12.9606 -8.1034 0.0000 47.3847 0.0000
# 6 0.0000 0.0000 0.0000 19.2100 0.0000 32.4585
#
#
#
# Elastic Compliance Matrix: (Units=1/GPa)
#
#
# Indices 1 2 3 4 5 6 
#
# 1 0.007453 -0.001175 -0.001764 0.000000 -0.001405 0.000000
# 2 -0.001175 0.007279 -0.001935 0.000000 -0.002097 0.000000
# 3 -0.001764 -0.001935 0.010212 0.000000 0.002613 0.000000
# 4 0.000000 0.000000 0.000000 0.137351 0.000000 -0.081289
# 5 -0.001405 -0.002097 0.002613 0.000000 0.022393 0.000000
# 6 0.000000 0.000000 0.000000 -0.081289 0.000000 0.078918
#
#
# Mechanical properties :
#
#
# Convention : Reuss Voigt Hill
#
# Bulk Modulus (GPa) = 65.81307 67.51989 66.66648
# Shear Modulus (GPa) = 17.95857 40.92704 29.44281
#
# Velocity S-wave (km/s) = 2.61847 3.95291 3.35275
# Velocity P-wave (km/s) = 5.85394 6.82733 6.35928
#
# Compressibility (1/GPa) = 0.01519455
#
# Stress axis : x y z
#
# Youngs Moduli (GPa) = 134.17948 137.38954 97.92559
#
# Poissons Ratio (x) = 0.16141 0.17274
# Poissons Ratio (y) = 0.15764 0.18953
# Poissons Ratio (z) = 0.23669 0.26591
#
# Static dielectric constant tensor:
#      x y z
#    x 1.976220 0.000000 0.148190 
#    y 0.000000 2.104040 0.000000 
#    z 0.148190 0.000000 3.801900 
# 
# From -- ./inp_files/8783.got.cif
#   From: 2010.05.17/outbox.cif.g08.bks.cpg/sg15_5_cif.got.tgz:8783.got - 2010.06.03 18:47:42.
