data_PCOD9268138
_publ_section_title
;
Structure prediction by ZEFSAII (Michael W. Deem and Ramdas Pophale) SiO2 
 PCOD9268138
Probable space group: C 2/C
;
_chemical_formula_sum "Si O2"
_cell_formula_units_Z 44
_cell_length_a 22.749807
_cell_length_b 15.227852
_cell_length_c 9.367644
_cell_angle_alpha 90.000000
_cell_angle_beta 140.380750
_cell_angle_gamma 90.000000
_cell_volume 2069.433445
_symmetry_space_group_name_H-M "C 2/C"
_symmetry_group_IT_number 15
_symmetry_cell_setting 'monoclinic'
loop_
_space_group_symop_operation_xyz
x,y,z
-x,y,1/2-z
-x,-y,-z
x,-y,1/2+z
1/2+x,1/2+y,z
1/2-x,1/2+y,1/2-z
1/2-x,1/2-y,-z
1/2+x,1/2-y,1/2+z
loop_
_atom_site_type_symbol
_atom_site_label
_atom_site_fract_x
_atom_site_fract_y
_atom_site_fract_z
Si Si1 0.917321 0.440635 0.208598
Si Si2 0.835092 0.259040 0.055265
Si Si3 0.653681 0.724752 0.746187
Si Si4 0.026273 0.877912 0.559246
Si Si5 0.500000 0.517118 0.750000
Si Si6 0.541646 0.125116 0.182940
O O1 0.848111 0.362444 0.049723
O O2 0.891542 0.542803 0.155932
O O3 0.000000 0.431511 0.250000
O O4 0.956997 0.418054 0.439121
O O5 0.920255 0.209777 0.292432
O O6 0.750000 0.250000 0.000000
O O7 0.826949 0.216075 0.885076
O O8 0.583645 0.644972 0.655394
O O9 0.591492 0.808004 0.673749
O O10 0.750000 0.750000 0.000000
O O11 0.044013 0.950236 0.716289
O O12 0.055297 0.918189 0.460853
O O13 0.500000 0.164851 0.250000
#
# Coordination Sequence:
#
# PCOD9268138 Si02
#       6
#     8   8   8   8   4   8
#     4  10  19  42  68  92 126 171 215 266 329 390
#     4  12  25  44  68  96 135 183 221 273 340 398
#     4  12  26  43  66 101 136 176 223 278 336 400
#     4  11  23  49  71  95 139 173 234 281 336 405
#     4  10  24  44  78  96 122 192 226 280 342 388
#     4  10  22  38  69  96 127 168 213 267 331 391
#
# _framework density 21.261856999999999
#
# number of rings (size 3 to 8) (size 9 to 14) (size 15 to 20)
#    0.000    1.091    5.455    0.000    6.364    0.000 
#    6.545    0.000    0.000    0.000    0.000    0.000 
#    0.000    0.000    0.000    0.000    0.000    0.000 
#
# Total GULP energy -122586.435930 kJ/mol
# GULP energy per Si atom -5572.110724 kJ/mol
# Density = 2.121346 g / cm^3
# Si number density = 21.261857 Si / 1000 Ang^3
#
#
#
# Elastic Constant Matrix: (Units=GPa)
#
#
# Indices 1 2 3 4 5 6 
#
# 1 111.4248 27.1116 37.0247 0.0000 -21.4688 0.0000
# 2 27.1116 88.0299 10.8847 0.0000 1.7292 0.0000
# 3 37.0247 10.8847 92.5628 0.0000 -9.1365 0.0000
# 4 0.0000 0.0000 0.0000 22.2059 0.0000 -16.0477
# 5 -21.4688 1.7292 -9.1365 0.0000 37.6773 0.0000
# 6 0.0000 0.0000 0.0000 -16.0477 0.0000 12.5833
#
#
#
# Elastic Compliance Matrix: (Units=1/GPa)
#
#
# Indices 1 2 3 4 5 6 
#
# 1 0.012305 -0.003429 -0.003905 0.000000 0.006222 0.000000
# 2 -0.003429 0.012512 -0.000358 0.000000 -0.002615 0.000000
# 3 -0.003905 -0.000358 0.012488 0.000000 0.000820 0.000000
# 4 0.000000 0.000000 0.000000 0.574687 0.000000 0.732906
# 5 0.006222 -0.002615 0.000820 0.000000 0.030405 0.000000
# 6 0.000000 0.000000 0.000000 0.732906 0.000000 1.014156
#
#
# Mechanical properties :
#
#
# Convention : Reuss Voigt Hill
#
# Bulk Modulus (GPa) = 45.61630 49.11772 47.36701
# Shear Modulus (GPa) = 2.97753 28.95974 15.96864
#
# Velocity S-wave (km/s) = 1.18467 3.69460 2.74350
# Velocity P-wave (km/s) = 4.83450 6.43052 5.68876
#
# Compressibility (1/GPa) = 0.02192199
#
# Stress axis : x y z
#
# Youngs Moduli (GPa) = 81.26523 79.92641 80.07480
#
# Poissons Ratio (x) = 0.27409 0.31267
# Poissons Ratio (y) = 0.27868 0.02864
# Poissons Ratio (z) = 0.31731 0.02859
#
# Static dielectric constant tensor:
#      x y z
#    x 1.755510 0.000000 -0.005880 
#    y 0.000000 1.876860 0.000000 
#    z -0.005880 0.000000 1.857080 
# 
# From -- ./inp_files/56288.got.cif
#   From: 2010.05.17/outbox.cif.g08.bks.cpg/sg15_29_cif.got.tgz:56288.got - 2010.06.03 18:47:42.
