data_PCOD9268720
_publ_section_title
;
Structure prediction by ZEFSAII (Michael W. Deem and Ramdas Pophale) SiO2 
 PCOD9268720
Probable space group: C 2/C
;
_chemical_formula_sum "Si O2"
_cell_formula_units_Z 48
_cell_length_a 15.565777
_cell_length_b 18.768086
_cell_length_c 8.103017
_cell_angle_alpha 90.000000
_cell_angle_beta 85.636459
_cell_angle_gamma 90.000000
_cell_volume 2360.352421
_symmetry_space_group_name_H-M "C 2/C"
_symmetry_group_IT_number 15
_symmetry_cell_setting 'monoclinic'
loop_
_space_group_symop_operation_xyz
x,y,z
-x,y,1/2-z
-x,-y,-z
x,-y,1/2+z
1/2+x,1/2+y,z
1/2-x,1/2+y,1/2-z
1/2-x,1/2-y,-z
1/2+x,1/2-y,1/2+z
loop_
_atom_site_type_symbol
_atom_site_label
_atom_site_fract_x
_atom_site_fract_y
_atom_site_fract_z
Si Si1 0.112876 0.682339 0.040776
Si Si2 0.236491 0.330945 0.789969
Si Si3 0.000000 0.434076 0.750000
Si Si4 0.155354 0.192130 0.936975
Si Si5 0.842090 0.526791 0.073101
Si Si6 0.000000 0.204271 0.750000
Si Si7 0.312689 0.108211 0.746177
O O1 0.208985 0.685729 0.107603
O O2 0.060331 0.616872 0.130162
O O3 0.059262 0.749034 0.116242
O O4 0.124333 0.665742 0.846938
O O5 0.171648 0.276371 0.897572
O O6 0.211494 0.412394 0.824353
O O7 0.326379 0.318742 0.871124
O O8 0.936299 0.475973 0.639962
O O9 0.230634 0.149330 0.830128
O O10 0.067185 0.168007 0.864974
O O11 0.797559 0.450676 0.104972
O O12 0.847634 0.559672 0.890356
#
# Coordination Sequence:
#
# PCOD9268720 Si02
#       7
#     8   8   4   8   8   4   8
#     4   9  18  32  52  77 107 141 171 207 260 320
#     4   8  16  33  53  74 106 141 174 210 260 320
#     4   9  18  34  50  72 110 139 164 208 260 315
#     4   9  18  34  57  79 104 141 180 219 264 311
#     4  10  20  33  50  77 111 144 173 212 262 318
#     4   9  18  34  56  80 108 137 176 230 270 301
#     4  11  22  34  53  79 107 144 180 211 261 325
#
# _framework density 20.335947000000001
#
# number of rings (size 3 to 8) (size 9 to 14) (size 15 to 20)
#    0.000    2.667    0.000    3.000    0.000    6.000 
#    0.000    0.000    0.000   15.000    0.000    0.000 
#    0.000    0.000    0.000    0.000    0.000    0.000 
#
# Total GULP energy -133623.641716 kJ/mol
# GULP energy per Si atom -5567.651738 kJ/mol
# Density = 2.028966 g / cm^3
# Si number density = 20.335947 Si / 1000 Ang^3
#
#
#
# Elastic Constant Matrix: (Units=GPa)
#
#
# Indices 1 2 3 4 5 6 
#
# 1 88.0147 19.1465 42.3934 0.0000 20.3428 0.0000
# 2 19.1465 60.9372 15.2665 0.0000 -3.0849 0.0000
# 3 42.3934 15.2665 82.9709 0.0000 -1.7043 0.0000
# 4 0.0000 0.0000 0.0000 31.6247 0.0000 -2.9755
# 5 20.3428 -3.0849 -1.7043 0.0000 25.4030 0.0000
# 6 0.0000 0.0000 0.0000 -2.9755 0.0000 15.2710
#
#
#
# Elastic Compliance Matrix: (Units=1/GPa)
#
#
# Indices 1 2 3 4 5 6 
#
# 1 0.022033 -0.005206 -0.010690 0.000000 -0.018994 0.000000
# 2 -0.005206 0.018524 -0.000617 0.000000 0.006377 0.000000
# 3 -0.010690 -0.000617 0.017827 0.000000 0.009682 0.000000
# 4 0.000000 0.000000 0.000000 0.032211 0.000000 0.006276
# 5 -0.018994 0.006377 0.009682 0.000000 0.056000 0.000000
# 6 0.000000 0.000000 0.000000 0.006276 0.000000 0.066707
#
#
# Mechanical properties :
#
#
# Convention : Reuss Voigt Hill
#
# Bulk Modulus (GPa) = 39.43710 42.83729 41.13719
# Shear Modulus (GPa) = 19.62473 24.80084 22.21278
#
# Velocity S-wave (km/s) = 3.10986 3.49600 3.30857
# Velocity P-wave (km/s) = 5.68593 6.11609 5.90493
#
# Compressibility (1/GPa) = 0.02535684
#
# Stress axis : x y z
#
# Youngs Moduli (GPa) = 45.38590 53.98510 56.09528
#
# Poissons Ratio (x) = 0.28106 0.59966
# Poissons Ratio (y) = 0.23629 0.03462
# Poissons Ratio (z) = 0.48517 0.03332
#
# Static dielectric constant tensor:
#      x y z
#    x 1.743860 0.000000 0.028780 
#    y 0.000000 1.745340 0.000000 
#    z 0.028780 0.000000 1.835020 
# 
# From -- ./inp_files/40306.got.cif
#   From: 2010.05.17/outbox.cif.g08.bks.cpg/sg15_21_cif.got.tgz:40306.got - 2010.06.03 18:47:42.
