data_PCOD9268914
_publ_section_title
;
Structure prediction by ZEFSAII (Michael W. Deem and Ramdas Pophale) SiO2 
 PCOD9268914
Probable space group: C 2/C
;
_chemical_formula_sum "Si O2"
_cell_formula_units_Z 64
_cell_length_a 13.686619
_cell_length_b 26.733414
_cell_length_c 18.623072
_cell_angle_alpha 90.000000
_cell_angle_beta 149.709205
_cell_angle_gamma 90.000000
_cell_volume 3436.904384
_symmetry_space_group_name_H-M "C 2/C"
_symmetry_group_IT_number 15
_symmetry_cell_setting 'monoclinic'
loop_
_space_group_symop_operation_xyz
x,y,z
-x,y,1/2-z
-x,-y,-z
x,-y,1/2+z
1/2+x,1/2+y,z
1/2-x,1/2+y,1/2-z
1/2-x,1/2-y,-z
1/2+x,1/2-y,1/2+z
loop_
_atom_site_type_symbol
_atom_site_label
_atom_site_fract_x
_atom_site_fract_y
_atom_site_fract_z
Si Si1 0.654259 0.703425 0.281844
Si Si2 0.812434 0.391858 0.822964
Si Si3 0.414058 0.784890 0.068013
Si Si4 0.957418 0.983759 0.891060
Si Si5 0.124291 0.487172 0.397960
Si Si6 0.397828 0.406998 0.291680
Si Si7 0.991312 0.391101 0.394101
Si Si8 0.206769 0.593814 0.514278
O O1 0.500000 0.694485 0.250000
O O2 0.669109 0.655096 0.241429
O O3 0.600775 0.753797 0.207093
O O4 0.860154 0.711855 0.450566
O O5 0.698626 0.440293 0.721531
O O6 0.899648 0.399067 0.959600
O O7 0.997411 0.380729 0.889529
O O8 0.421874 0.843274 0.092852
O O9 0.250000 0.750000 0.000000
O O10 0.896845 0.034441 0.811862
O O11 0.164580 0.967565 0.990802
O O12 0.000000 0.000000 0.000000
O O13 0.158817 0.535763 0.468268
O O14 0.000000 0.502980 0.250000
O O15 0.014871 0.442457 0.367193
O O16 0.236688 0.380741 0.238346
O O17 0.623613 0.390829 0.433988
O O18 0.309739 0.401981 0.156472
#
# Coordination Sequence:
#
# PCOD9268914 Si02
#       8
#     8   8   8   8   8   8   8   8
#     4   9  19  35  54  78 106 138 176 219 277 322
#     4  10  20  33  56  73 105 139 184 215 262 328
#     4   9  19  34  52  76 108 133 172 223 273 322
#     4  11  22  33  47  75 110 142 175 219 260 319
#     4  11  22  32  49  73 110 141 177 214 266 315
#     4   9  18  34  52  73 102 133 184 214 262 312
#     4  10  20  34  54  78 102 143 182 221 265 321
#     4   9  18  34  52  74  99 142 175 220 256 310
#
# _framework density 18.621409
#
# number of rings (size 3 to 8) (size 9 to 14) (size 15 to 20)
#    0.000    2.250    0.000    3.000    5.250    4.500 
#    2.250    0.000    0.000    0.750    0.000    0.000 
#    0.000    0.000    0.000    0.000    0.000    0.000 
#
# Total GULP energy -178151.067260 kJ/mol
# GULP energy per Si atom -5567.220852 kJ/mol
# Density = 1.857903 g / cm^3
# Si number density = 18.621409 Si / 1000 Ang^3
#
#
#
# Elastic Constant Matrix: (Units=GPa)
#
#
# Indices 1 2 3 4 5 6 
#
# 1 73.1648 19.1360 9.3224 -0.0002 21.3853 -0.0001
# 2 19.1360 49.7057 8.6377 -0.0004 -0.3608 -0.0002
# 3 9.3224 8.6377 37.3784 -0.0011 15.5274 -0.0006
# 4 -0.0002 -0.0004 -0.0011 22.2483 -0.0003 0.9255
# 5 21.3853 -0.3608 15.5274 -0.0003 21.6530 -0.0003
# 6 -0.0001 -0.0002 -0.0006 0.9255 -0.0003 18.2464
#
#
#
# Elastic Compliance Matrix: (Units=1/GPa)
#
#
# Indices 1 2 3 4 5 6 
#
# 1 0.024548 -0.011322 0.009463 0.000000 -0.031219 0.000000
# 2 -0.011322 0.026642 -0.011626 0.000000 0.019963 0.000000
# 3 0.009463 -0.011626 0.044214 0.000001 -0.041245 0.000001
# 4 0.000000 0.000000 0.000001 0.045042 0.000000 -0.002285
# 5 -0.031219 0.019963 -0.041245 0.000000 0.106926 0.000000
# 6 0.000000 0.000000 0.000001 -0.002285 0.000000 0.054921
#
#
# Mechanical properties :
#
#
# Convention : Reuss Voigt Hill
#
# Bulk Modulus (GPa) = 14.61249 26.04902 20.33076
# Shear Modulus (GPa) = 14.20150 20.63971 17.42061
#
# Velocity S-wave (km/s) = 2.76460 3.33286 3.06194
# Velocity P-wave (km/s) = 4.24910 5.36933 4.84172
#
# Compressibility (1/GPa) = 0.06843459
#
# Stress axis : x y z
#
# Youngs Moduli (GPa) = 40.73599 37.53414 22.61742
#
# Poissons Ratio (x) = 0.42495 -0.21402
# Poissons Ratio (y) = 0.46121 0.26295
# Poissons Ratio (z) = -0.38547 0.43636
#
# Static dielectric constant tensor:
#      x y z
#    x 1.713250 0.000000 0.035100 
#    y 0.000000 1.629840 0.000000 
#    z 0.035100 0.000000 1.695980 
# 
# From -- ./inp_files/207349.got.cif
#   From: 2010.05.17/outbox.cif.g08.bks.cpg/sg15_104_cif.got.tgz:207349.got - 2010.06.03 18:47:42.
