data_PCOD9268729
_publ_section_title
;
Structure prediction by ZEFSAII (Michael W. Deem and Ramdas Pophale) SiO2 
 PCOD9268729
Probable space group: C 2/C
;
_chemical_formula_sum "Si O2"
_cell_formula_units_Z 52
_cell_length_a 19.331295
_cell_length_b 31.979899
_cell_length_c 8.917240
_cell_angle_alpha 90.000000
_cell_angle_beta 32.097686
_cell_angle_gamma 90.000000
_cell_volume 2929.280217
_symmetry_space_group_name_H-M "C 2/C"
_symmetry_group_IT_number 15
_symmetry_cell_setting 'monoclinic'
loop_
_space_group_symop_operation_xyz
x,y,z
-x,y,1/2-z
-x,-y,-z
x,-y,1/2+z
1/2+x,1/2+y,z
1/2-x,1/2+y,1/2-z
1/2-x,1/2-y,-z
1/2+x,1/2-y,1/2+z
loop_
_atom_site_type_symbol
_atom_site_label
_atom_site_fract_x
_atom_site_fract_y
_atom_site_fract_z
Si Si1 0.159789 0.957545 0.279198
Si Si2 0.743561 0.283191 0.646430
Si Si3 0.000000 0.258831 0.750000
Si Si4 0.334035 0.790171 0.797573
Si Si5 0.156978 0.956935 0.630585
Si Si6 0.157743 0.128796 0.631195
Si Si7 0.857698 0.870423 0.698431
O O1 0.195055 0.957329 0.387941
O O2 0.202740 0.915011 0.119401
O O3 0.001216 0.957534 0.565000
O O4 0.204209 0.000695 0.122261
O O5 0.750000 0.250000 0.500000
O O6 0.848978 0.285746 0.589088
O O7 0.723423 0.329134 0.615657
O O8 0.613172 0.271029 0.978790
O O9 0.954731 0.286226 0.689992
O O10 0.250000 0.750000 0.000000
O O11 0.252681 0.832124 0.981935
O O12 0.194546 0.912871 0.633697
O O13 0.147502 0.123873 0.471065
O O14 0.009989 0.136748 0.960395
#
# Coordination Sequence:
#
# PCOD9268729 Si02
#       7
#     8   8   4   8   8   8   8
#     4   9  16  25  37  59  88 121 156 187 227 278
#     4  10  20  33  51  73  97 127 164 202 245 292
#     4  10  20  36  50  68 100 130 162 206 248 288
#     4   9  18  32  49  68  93 126 161 197 241 289
#     4   9  16  24  37  58  88 122 153 188 229 280
#     4   9  16  28  46  64  90 126 157 190 235 287
#     4   9  16  28  44  65  93 123 155 193 237 283
#
# _framework density 17.751802999999999
#
# number of rings (size 3 to 8) (size 9 to 14) (size 15 to 20)
#    0.000    2.769    0.000    3.692    0.000    6.769 
#    0.000    3.077    0.000    0.000    0.000    0.000 
#    0.000   19.692    0.000    0.154    0.000    0.000 
#
# Total GULP energy -144763.172632 kJ/mol
# GULP energy per Si atom -5567.814332 kJ/mol
# Density = 1.771140 g / cm^3
# Si number density = 17.751803 Si / 1000 Ang^3
#
#
#
# Elastic Constant Matrix: (Units=GPa)
#
#
# Indices 1 2 3 4 5 6 
#
# 1 89.8014 66.8184 10.1595 0.0000 8.0657 0.0000
# 2 66.8184 178.7989 26.5159 0.0000 24.4889 0.0000
# 3 10.1595 26.5159 25.7071 0.0000 8.8216 0.0000
# 4 0.0000 0.0000 0.0000 27.4065 0.0000 7.4740
# 5 8.0657 24.4889 8.8216 0.0000 15.7334 0.0000
# 6 0.0000 0.0000 0.0000 7.4740 0.0000 32.3393
#
#
#
# Elastic Compliance Matrix: (Units=1/GPa)
#
#
# Indices 1 2 3 4 5 6 
#
# 1 0.015454 -0.005910 -0.000556 0.000000 0.001589 0.000000
# 2 -0.005910 0.009790 -0.004424 0.000000 -0.009728 0.000000
# 3 -0.000556 -0.004424 0.051043 0.000000 -0.021448 0.000000
# 4 0.000000 0.000000 0.000000 0.038942 0.000000 -0.009000
# 5 0.001589 -0.009728 -0.021448 0.000000 0.089911 0.000000
# 6 0.000000 0.000000 0.000000 -0.009000 0.000000 0.033002
#
#
# Mechanical properties :
#
#
# Convention : Reuss Voigt Hill
#
# Bulk Modulus (GPa) = 18.34684 55.69943 37.02313
# Shear Modulus (GPa) = 17.97967 27.81675 22.89821
#
# Velocity S-wave (km/s) = 3.18596 3.96281 3.59543
# Velocity P-wave (km/s) = 4.88789 7.23763 6.17555
#
# Compressibility (1/GPa) = 0.05450530
#
# Stress axis : x y z
#
# Youngs Moduli (GPa) = 64.71017 102.14525 19.59123
#
# Poissons Ratio (x) = 0.60370 0.01090
# Poissons Ratio (y) = 0.38245 0.08667
# Poissons Ratio (z) = 0.03600 0.45191
#
# Static dielectric constant tensor:
#      x y z
#    x 1.654550 0.000000 -0.015390 
#    y 0.000000 1.606950 0.000000 
#    z -0.015390 0.000000 1.609140 
# 
# From -- ./inp_files/59303.got.cif
#   From: 2010.05.17/outbox.cif.g08.bks.cpg/sg15_30_cif.got.tgz:59303.got - 2010.06.03 18:47:42.
