data_PCOD9268018
_publ_section_title
;
Structure prediction by ZEFSAII (Michael W. Deem and Ramdas Pophale) SiO2 
 PCOD9268018
Probable space group: C 2/C
;
_chemical_formula_sum "Si O2"
_cell_formula_units_Z 56
_cell_length_a 21.577867
_cell_length_b 9.054104
_cell_length_c 17.604187
_cell_angle_alpha 90.000000
_cell_angle_beta 53.020796
_cell_angle_gamma 90.000000
_cell_volume 2747.497582
_symmetry_space_group_name_H-M "C 2/C"
_symmetry_group_IT_number 15
_symmetry_cell_setting 'monoclinic'
loop_
_space_group_symop_operation_xyz
x,y,z
-x,y,1/2-z
-x,-y,-z
x,-y,1/2+z
1/2+x,1/2+y,z
1/2-x,1/2+y,1/2-z
1/2-x,1/2-y,-z
1/2+x,1/2-y,1/2+z
loop_
_atom_site_type_symbol
_atom_site_label
_atom_site_fract_x
_atom_site_fract_y
_atom_site_fract_z
Si Si1 0.721334 0.474033 0.189760
Si Si2 0.661287 0.195673 0.313078
Si Si3 0.105533 0.620875 0.613110
Si Si4 0.192025 0.159906 0.935744
Si Si5 0.965902 0.525384 0.608617
Si Si6 0.755840 0.423383 0.989766
Si Si7 0.633638 0.253896 0.744857
O O1 0.708073 0.305414 0.223877
O O2 0.786026 0.561190 0.191852
O O3 0.740766 0.479979 0.086469
O O4 0.644423 0.574655 0.255193
O O5 0.641067 0.302332 0.399552
O O6 0.586356 0.117526 0.333335
O O7 0.159934 0.730391 0.523620
O O8 0.158848 0.480913 0.594929
O O9 0.087553 0.711524 0.702508
O O10 0.035439 0.561850 0.614468
O O11 0.278861 0.198574 0.841002
O O12 0.199215 0.001296 0.970330
O O13 0.907093 0.663691 0.658495
O O14 0.000000 0.500000 0.500000
O O15 0.750000 0.250000 0.000000
#
# Coordination Sequence:
#
# PCOD9268018 Si02
#       7
#     8   8   8   8   8   8   8
#     4  11  22  40  64  98 131 165 228 278 320 391
#     4  11  23  38  63  97 134 171 212 270 334 393
#     4  11  20  42  67  91 127 175 218 269 327 398
#     4  10  19  41  66  92 124 167 226 268 323 388
#     4  12  24  41  64  93 135 176 213 256 339 408
#     4  11  22  37  67  96 126 163 225 280 320 370
#     4  10  21  40  66  91 123 176 224 268 318 390
#
# _framework density 20.382183999999999
#
# number of rings (size 3 to 8) (size 9 to 14) (size 15 to 20)
#    0.000    1.143    5.714    3.000    6.000    0.000 
#    0.000    2.143    0.000    0.000    0.000    0.000 
#    0.000    0.000    0.000    0.000    0.000    0.000 
#
# Total GULP energy -156146.624361 kJ/mol
# GULP energy per Si atom -5576.665156 kJ/mol
# Density = 2.033579 g / cm^3
# Si number density = 20.382184 Si / 1000 Ang^3
#
#
#
# Elastic Constant Matrix: (Units=GPa)
#
#
# Indices 1 2 3 4 5 6 
#
# 1 92.0639 41.3961 8.4845 0.0000 -6.2794 0.0000
# 2 41.3961 111.4090 10.1818 0.0001 -15.6132 -0.0001
# 3 8.4845 10.1818 74.2778 0.0000 -1.8482 0.0000
# 4 0.0000 0.0001 0.0000 38.2277 0.0000 5.8656
# 5 -6.2794 -15.6132 -1.8482 0.0000 18.5734 0.0000
# 6 0.0000 -0.0001 0.0000 5.8656 0.0000 37.6779
#
#
#
# Elastic Compliance Matrix: (Units=1/GPa)
#
#
# Indices 1 2 3 4 5 6 
#
# 1 0.013094 -0.004738 -0.000837 0.000000 0.000360 0.000000
# 2 -0.004738 0.011994 -0.000894 0.000000 0.008392 0.000000
# 3 -0.000837 -0.000894 0.013689 0.000000 0.000328 0.000000
# 4 0.000000 0.000000 0.000000 0.026799 0.000000 -0.004172
# 5 0.000360 0.008392 0.000328 0.000000 0.061049 0.000000
# 6 0.000000 0.000000 0.000000 -0.004172 0.000000 0.027190
#
#
# Mechanical properties :
#
#
# Convention : Reuss Voigt Hill
#
# Bulk Modulus (GPa) = 38.70186 44.20840 41.45513
# Shear Modulus (GPa) = 28.51128 33.40834 30.95981
#
# Velocity S-wave (km/s) = 3.74416 4.05297 3.90162
# Velocity P-wave (km/s) = 6.14173 6.60597 6.37808
#
# Compressibility (1/GPa) = 0.02583855
#
# Stress axis : x y z
#
# Youngs Moduli (GPa) = 76.36863 83.37261 73.04963
#
# Poissons Ratio (x) = 0.39506 0.06116
# Poissons Ratio (y) = 0.36187 0.06531
# Poissons Ratio (z) = 0.06394 0.07454
#
# Static dielectric constant tensor:
#      x y z
#    x 1.795900 0.000000 0.013680 
#    y 0.000000 1.745540 0.000000 
#    z 0.013680 0.000000 1.781630 
# 
# From -- ./inp_files/218503.got.cif
#   From: 2010.05.17/outbox.cif.g08.bks.cpg/sg15_110_cif.got.tgz:218503.got - 2010.06.03 18:47:42.
