data_PCOD9268991
_publ_section_title
;
Structure prediction by ZEFSAII (Michael W. Deem and Ramdas Pophale) SiO2 
 PCOD9268991
Probable space group: C 2/C
;
_chemical_formula_sum "Si O2"
_cell_formula_units_Z 56
_cell_length_a 15.274819
_cell_length_b 12.991863
_cell_length_c 15.325053
_cell_angle_alpha 90.000000
_cell_angle_beta 44.623369
_cell_angle_gamma 90.000000
_cell_volume 2136.293062
_symmetry_space_group_name_H-M "C 2/C"
_symmetry_group_IT_number 15
_symmetry_cell_setting 'monoclinic'
loop_
_space_group_symop_operation_xyz
x,y,z
-x,y,1/2-z
-x,-y,-z
x,-y,1/2+z
1/2+x,1/2+y,z
1/2-x,1/2+y,1/2-z
1/2-x,1/2-y,-z
1/2+x,1/2-y,1/2+z
loop_
_atom_site_type_symbol
_atom_site_label
_atom_site_fract_x
_atom_site_fract_y
_atom_site_fract_z
Si Si1 0.034626 0.401248 0.410646
Si Si2 0.723889 0.100475 0.462655
Si Si3 0.113156 0.343216 0.545284
Si Si4 0.359733 0.473726 0.122175
Si Si5 0.868106 0.600069 0.266085
Si Si6 0.680814 0.188559 0.667379
Si Si7 0.859600 0.101792 0.820823
O O1 0.096052 0.395869 0.461580
O O2 0.071848 0.497431 0.322159
O O3 0.089573 0.309117 0.314004
O O4 0.887577 0.398828 0.527515
O O5 0.648485 0.122385 0.604949
O O6 0.804282 0.198209 0.380304
O O7 0.807421 0.999895 0.407824
O O8 0.126732 0.393355 0.632359
O O9 0.258414 0.310602 0.419899
O O10 0.964527 0.310516 0.662854
O O11 0.273901 0.574944 0.162339
O O12 0.303986 0.374600 0.110284
O O13 0.354954 0.436507 0.225103
O O14 0.500000 0.500000 0.000000
O O15 0.000000 0.123573 0.750000
#
# Coordination Sequence:
#
# PCOD9268991 Si02
#       7
#     8   8   8   8   8   8   8
#     4  11  20  37  60  86 125 162 206 251 315 376
#     4  11  23  38  59  90 127 172 204 258 322 395
#     4  11  20  35  58  92 120 158 205 259 315 378
#     4  11  22  38  57  89 127 166 210 267 315 374
#     4  10  20  33  58  89 125 149 198 263 313 364
#     4  10  23  39  57  88 133 168 208 255 326 386
#     4  12  22  36  61  94 125 161 213 266 326 385
#
# _framework density 26.213633000000002
#
# number of rings (size 3 to 8) (size 9 to 14) (size 15 to 20)
#    0.000    1.143    4.286    5.143    4.000    3.429 
#    0.000    0.000    0.000    0.000    7.429   11.000 
#    0.000    0.000    0.000    0.000    0.000    0.000 
#
# Total GULP energy -155966.347838 kJ/mol
# GULP energy per Si atom -5570.226709 kJ/mol
# Density = 2.615397 g / cm^3
# Si number density = 26.213633 Si / 1000 Ang^3
#
#
#
# Elastic Constant Matrix: (Units=GPa)
#
#
# Indices 1 2 3 4 5 6 
#
# 1 157.7855 11.7278 57.7530 0.0000 -7.7353 0.0000
# 2 11.7278 70.9180 6.6859 0.0000 7.4415 0.0000
# 3 57.7530 6.6859 164.6352 0.0000 0.2918 0.0000
# 4 0.0000 0.0000 0.0000 17.4202 0.0000 14.0326
# 5 -7.7353 7.4415 0.2918 0.0000 77.1328 0.0000
# 6 0.0000 0.0000 0.0000 14.0326 0.0000 14.0289
#
#
#
# Elastic Compliance Matrix: (Units=1/GPa)
#
#
# Indices 1 2 3 4 5 6 
#
# 1 0.007393 -0.001072 -0.002551 0.000000 0.000854 0.000000
# 2 -0.001072 0.014455 -0.000208 0.000000 -0.001501 0.000000
# 3 -0.002551 -0.000208 0.006978 0.000000 -0.000262 0.000000
# 4 0.000000 0.000000 0.000000 0.295529 0.000000 -0.295608
# 5 0.000854 -0.001501 -0.000262 0.000000 0.013196 0.000000
# 6 0.000000 0.000000 0.000000 -0.295608 0.000000 0.366968
#
#
# Mechanical properties :
#
#
# Convention : Reuss Voigt Hill
#
# Bulk Modulus (GPa) = 47.25197 60.63024 53.94111
# Shear Modulus (GPa) = 6.95182 42.86117 24.90649
#
# Velocity S-wave (km/s) = 1.63026 4.04799 3.08577
# Velocity P-wave (km/s) = 4.64850 6.71027 5.77219
#
# Compressibility (1/GPa) = 0.02116314
#
# Stress axis : x y z
#
# Youngs Moduli (GPa) = 135.26016 69.17927 143.30748
#
# Poissons Ratio (x) = 0.07414 0.36564
# Poissons Ratio (y) = 0.14496 0.02987
# Poissons Ratio (z) = 0.34511 0.01442
#
# Static dielectric constant tensor:
#      x y z
#    x 2.152340 0.000000 -0.044730 
#    y 0.000000 2.198920 0.000000 
#    z -0.044730 0.000000 2.108100 
# 
# From -- ./inp_files/155152.got.cif
#   From: 2010.05.17/outbox.cif.g08.bks.cpg/sg15_78_cif.got.tgz:155152.got - 2010.06.03 18:47:42.
