data_PCOD9268009
_publ_section_title
;
Structure prediction by ZEFSAII (Michael W. Deem and Ramdas Pophale) SiO2 
 PCOD9268009
Probable space group: C 2/C
;
_chemical_formula_sum "Si O2"
_cell_formula_units_Z 64
_cell_length_a 15.106392
_cell_length_b 14.221325
_cell_length_c 18.734543
_cell_angle_alpha 90.000000
_cell_angle_beta 45.769248
_cell_angle_gamma 90.000000
_cell_volume 2883.912795
_symmetry_space_group_name_H-M "C 2/C"
_symmetry_group_IT_number 15
_symmetry_cell_setting 'monoclinic'
loop_
_space_group_symop_operation_xyz
x,y,z
-x,y,1/2-z
-x,-y,-z
x,-y,1/2+z
1/2+x,1/2+y,z
1/2-x,1/2+y,1/2-z
1/2-x,1/2-y,-z
1/2+x,1/2-y,1/2+z
loop_
_atom_site_type_symbol
_atom_site_label
_atom_site_fract_x
_atom_site_fract_y
_atom_site_fract_z
Si Si1 0.532689 0.851417 0.349677
Si Si2 0.081251 0.153504 0.337140
Si Si3 0.349649 0.135221 0.154678
Si Si4 0.126698 0.512321 0.217357
Si Si5 0.959793 0.024164 0.847882
Si Si6 0.889174 0.673961 0.531050
Si Si7 0.358544 0.625135 0.037304
Si Si8 0.687561 0.028933 0.473149
O O1 0.501812 0.741927 0.355983
O O2 0.596870 0.850234 0.392475
O O3 0.409105 0.914979 0.423376
O O4 0.617853 0.902164 0.243066
O O5 0.221931 0.186022 0.243687
O O6 0.068548 0.129647 0.428190
O O7 0.058138 0.056487 0.310362
O O8 0.369989 0.064808 0.208557
O O9 0.471818 0.195729 0.074049
O O10 0.333560 0.075481 0.091987
O O11 0.246589 0.551054 0.109089
O O12 0.000000 0.539383 0.250000
O O13 0.000000 0.068773 0.750000
O O14 0.830108 0.968994 0.913202
O O15 0.939946 0.094524 0.924480
O O16 0.811072 0.767146 0.559022
O O17 0.845180 0.581052 0.515740
#
# Coordination Sequence:
#
# PCOD9268009 Si02
#       8
#     8   8   8   8   8   8   8   8
#     4  10  20  40  69  96 126 172 219 269 323 394
#     4  10  23  44  65  99 132 171 219 269 339 386
#     4  10  19  41  66  88 130 174 213 270 314 397
#     4  11  21  40  64  96 131 169 217 269 328 380
#     4  12  25  45  64  94 135 177 219 268 331 393
#     4  10  20  42  68  96 126 174 222 259 333 388
#     4  10  25  44  65  97 138 169 216 279 325 387
#     4  11  20  40  71  93 128 173 219 266 321 389
#
# _framework density 22.192070999999999
#
# number of rings (size 3 to 8) (size 9 to 14) (size 15 to 20)
#    0.000    1.500    3.750    1.875    0.000    1.500 
#   18.000    0.000    0.000    0.000    0.000    0.000 
#    0.000    0.000    0.000    0.000    0.000    0.000 
#
# Total GULP energy -178730.634373 kJ/mol
# GULP energy per Si atom -5585.332324 kJ/mol
# Density = 2.214156 g / cm^3
# Si number density = 22.192071 Si / 1000 Ang^3
#
#
#
# Elastic Constant Matrix: (Units=GPa)
#
#
# Indices 1 2 3 4 5 6 
#
# 1 35.2751 7.8100 12.2604 0.0000 -1.9839 0.0000
# 2 7.8100 87.0934 35.9661 0.0000 4.6313 0.0000
# 3 12.2604 35.9661 120.6504 0.0000 10.7881 0.0000
# 4 0.0000 0.0000 0.0000 8.7011 0.0000 -15.3033
# 5 -1.9839 4.6313 10.7881 0.0000 23.2926 0.0000
# 6 0.0000 0.0000 0.0000 -15.3033 0.0000 6.3327
#
#
#
# Elastic Compliance Matrix: (Units=1/GPa)
#
#
# Indices 1 2 3 4 5 6 
#
# 1 0.029980 -0.001710 -0.002916 0.000000 0.004244 0.000000
# 2 -0.001710 0.013207 -0.003667 0.000000 -0.001073 0.000000
# 3 -0.002916 -0.003667 0.010051 0.000000 -0.004175 0.000000
# 4 0.000000 0.000000 0.000000 -0.035360 0.000000 -0.085451
# 5 0.004244 -0.001073 -0.004175 0.000000 0.045440 0.000000
# 6 0.000000 0.000000 0.000000 -0.085451 0.000000 -0.048585
#
#
# Mechanical properties :
#
#
# Convention : Reuss Voigt Hill
#
# Bulk Modulus (GPa) = 27.28452 39.45468 33.36960
# Shear Modulus (GPa) = 114.84794 20.13075 67.48935
#
# Velocity S-wave (km/s) = 7.20168 3.01510 5.52064
# Velocity P-wave (km/s) = 9.02627 5.47160 7.46365
#
# Compressibility (1/GPa) = 0.03665081
#
# Stress axis : x y z
#
# Youngs Moduli (GPa) = 33.35612 75.71892 99.49005
#
# Poissons Ratio (x) = 0.12946 0.29014
# Poissons Ratio (y) = 0.05703 0.36486
# Poissons Ratio (z) = 0.09728 0.27768
#
# Static dielectric constant tensor:
#      x y z
#    x 1.825230 0.000000 0.000460 
#    y 0.000000 1.833400 0.000000 
#    z 0.000460 0.000000 1.864110 
# 
# From -- ./inp_files/205682.got.cif
#   From: 2010.05.17/outbox.cif.g08.bks.cpg/sg15_103_cif.got.tgz:205682.got - 2010.06.03 18:47:42.
