data_PCOD9268982
_publ_section_title
;
Structure prediction by ZEFSAII (Michael W. Deem and Ramdas Pophale) SiO2 
 PCOD9268982
Probable space group: C 2/C
;
_chemical_formula_sum "Si O2"
_cell_formula_units_Z 56
_cell_length_a 21.286442
_cell_length_b 18.090002
_cell_length_c 11.108925
_cell_angle_alpha 90.000000
_cell_angle_beta 46.291293
_cell_angle_gamma 90.000000
_cell_volume 3092.211626
_symmetry_space_group_name_H-M "C 2/C"
_symmetry_group_IT_number 15
_symmetry_cell_setting 'monoclinic'
loop_
_space_group_symop_operation_xyz
x,y,z
-x,y,1/2-z
-x,-y,-z
x,-y,1/2+z
1/2+x,1/2+y,z
1/2-x,1/2+y,1/2-z
1/2-x,1/2-y,-z
1/2+x,1/2-y,1/2+z
loop_
_atom_site_type_symbol
_atom_site_label
_atom_site_fract_x
_atom_site_fract_y
_atom_site_fract_z
Si Si1 0.000000 0.258280 0.750000
Si Si2 0.111059 0.623165 0.762904
Si Si3 0.366945 0.789921 0.739723
Si Si4 0.824697 0.527165 0.600658
Si Si5 0.638581 0.257572 0.886381
Si Si6 0.705898 0.859731 0.886162
Si Si7 0.239866 0.842119 0.101005
Si Si8 0.500000 0.976680 0.250000
O O1 0.054403 0.306754 0.774366
O O2 0.066847 0.214934 0.576219
O O3 0.155228 0.569331 0.802210
O O4 0.095886 0.702471 0.845316
O O5 0.172411 0.637583 0.566867
O O6 0.029700 0.577352 0.818911
O O7 0.362624 0.816740 0.609412
O O8 0.350595 0.701414 0.770193
O O9 0.282637 0.827211 0.914759
O O10 0.793278 0.443900 0.659877
O O11 0.753618 0.574129 0.620883
O O12 0.915664 0.521976 0.405240
O O13 0.702052 0.318444 0.747237
O O14 0.699921 0.203640 0.884790
#
# Coordination Sequence:
#
# PCOD9268982 Si02
#       8
#     4   8   8   8   8   8   8   4
#     4  10  20  33  58  84  97 138 174 240 268 291
#     4  10  21  35  50  79 113 149 171 208 260 327
#     4   9  18  33  54  78 105 133 184 219 262 313
#     4  10  21  34  53  78 113 142 179 211 265 315
#     4   9  19  36  55  78 107 137 184 219 262 316
#     4  10  21  34  54  79 108 147 176 215 260 322
#     4   8  17  34  53  77 103 141 175 219 258 314
#     4  10  22  33  48  86 115 148 168 210 262 321
#
# _framework density 18.110014
#
# number of rings (size 3 to 8) (size 9 to 14) (size 15 to 20)
#    0.000    2.571    0.000    1.714    8.000    5.143 
#    0.000    0.000    0.000    0.857    0.000    1.000 
#    0.000    0.000    0.000    0.000    0.000    0.000 
#
# Total GULP energy -155965.227249 kJ/mol
# GULP energy per Si atom -5570.186687 kJ/mol
# Density = 1.806880 g / cm^3
# Si number density = 18.110014 Si / 1000 Ang^3
#
#
#
# Elastic Constant Matrix: (Units=GPa)
#
#
# Indices 1 2 3 4 5 6 
#
# 1 82.6529 34.2408 19.4716 0.0000 13.1121 0.0000
# 2 34.2408 86.8137 43.8793 0.0000 4.1885 0.0000
# 3 19.4716 43.8793 85.8688 0.0000 16.0721 0.0000
# 4 0.0000 0.0000 0.0000 19.0254 0.0000 5.4628
# 5 13.1121 4.1885 16.0721 0.0000 22.2739 0.0000
# 6 0.0000 0.0000 0.0000 5.4628 0.0000 24.6156
#
#
#
# Elastic Compliance Matrix: (Units=1/GPa)
#
#
# Indices 1 2 3 4 5 6 
#
# 1 0.015942 -0.006590 0.001476 0.000000 -0.009211 0.000000
# 2 -0.006590 0.018459 -0.009266 0.000000 0.007094 0.000000
# 3 0.001476 -0.009266 0.018363 0.000000 -0.012376 0.000000
# 4 0.000000 0.000000 0.000000 0.056139 0.000000 -0.012459
# 5 -0.009211 0.007094 -0.012376 0.000000 0.057914 0.000000
# 6 0.000000 0.000000 0.000000 -0.012459 0.000000 0.043390
#
#
# Mechanical properties :
#
#
# Convention : Reuss Voigt Hill
#
# Bulk Modulus (GPa) = 41.65876 50.05765 45.85820
# Shear Modulus (GPa) = 20.24562 23.69922 21.97242
#
# Velocity S-wave (km/s) = 3.34716 3.62142 3.48699
# Velocity P-wave (km/s) = 6.16369 6.72213 6.44896
#
# Compressibility (1/GPa) = 0.02400456
#
# Stress axis : x y z
#
# Youngs Moduli (GPa) = 62.72702 54.17321 54.45869
#
# Poissons Ratio (x) = 0.35698 -0.08040
# Poissons Ratio (y) = 0.41335 0.50463
# Poissons Ratio (z) = -0.09260 0.50199
#
# Static dielectric constant tensor:
#      x y z
#    x 1.686590 0.000000 -0.018160 
#    y 0.000000 1.642240 0.000000 
#    z -0.018160 0.000000 1.661190 
# 
# From -- ./inp_files/173480.got.cif
#   From: 2010.05.17/outbox.cif.g08.bks.cpg/sg15_87_cif.got.tgz:173480.got - 2010.06.03 18:47:42.
