data_PCOD9268171
_publ_section_title
;
Structure prediction by ZEFSAII (Michael W. Deem and Ramdas Pophale) SiO2 
 PCOD9268171
Probable space group: C 2/C
;
_chemical_formula_sum "Si O2"
_cell_formula_units_Z 44
_cell_length_a 16.149745
_cell_length_b 9.297950
_cell_length_c 15.379353
_cell_angle_alpha 90.000000
_cell_angle_beta 96.961587
_cell_angle_gamma 90.000000
_cell_volume 2292.330868
_symmetry_space_group_name_H-M "C 2/C"
_symmetry_group_IT_number 15
_symmetry_cell_setting 'monoclinic'
loop_
_space_group_symop_operation_xyz
x,y,z
-x,y,1/2-z
-x,-y,-z
x,-y,1/2+z
1/2+x,1/2+y,z
1/2-x,1/2+y,1/2-z
1/2-x,1/2-y,-z
1/2+x,1/2-y,1/2+z
loop_
_atom_site_type_symbol
_atom_site_label
_atom_site_fract_x
_atom_site_fract_y
_atom_site_fract_z
Si Si1 0.440752 0.474892 0.656849
Si Si2 0.654188 0.780867 0.455783
Si Si3 0.550130 0.281019 0.108917
Si Si4 0.000000 0.579301 0.250000
Si Si5 0.173674 0.509126 0.805621
Si Si6 0.188478 0.184068 0.771974
O O1 0.500000 0.445618 0.750000
O O2 0.391157 0.339589 0.610964
O O3 0.500875 0.567190 0.599716
O O4 0.366754 0.583938 0.673672
O O5 0.750000 0.750000 0.500000
O O6 0.588038 0.786325 0.526755
O O7 0.665140 0.922729 0.399347
O O8 0.631264 0.301005 0.179219
O O9 0.494010 0.177537 0.162875
O O10 0.917640 0.489428 0.247158
O O11 0.203696 0.343722 0.809817
O O12 0.230697 0.603446 0.750653
#
# Coordination Sequence:
#
# PCOD9268171 Si02
#       6
#     8   8   8   4   8   8
#     4  10  21  42  68  95 124 178 222 256 317 394
#     4  12  25  38  63  99 137 167 216 274 323 372
#     4  10  19  43  65  88 130 173 209 267 323 380
#     4  10  22  42  68  94 126 170 218 266 328 382
#     4  11  22  41  64  96 124 170 217 262 326 380
#     4  10  20  40  70  87 127 173 220 258 318 396
#
# _framework density 19.194437000000001
#
# number of rings (size 3 to 8) (size 9 to 14) (size 15 to 20)
#    0.000    1.455    6.364    1.636    3.818    0.727 
#    0.000    0.909    0.000    0.000    0.000    0.000 
#    0.000    0.000    0.000    0.000    0.000    0.000 
#
# Total GULP energy -122536.343552 kJ/mol
# GULP energy per Si atom -5569.833798 kJ/mol
# Density = 1.915075 g / cm^3
# Si number density = 19.194437 Si / 1000 Ang^3
#
#
#
# Elastic Constant Matrix: (Units=GPa)
#
#
# Indices 1 2 3 4 5 6 
#
# 1 118.0151 56.7273 33.5357 0.0000 -18.2701 0.0000
# 2 56.7273 115.4200 56.6144 0.0000 -10.2893 0.0000
# 3 33.5357 56.6144 77.3675 0.0000 -24.9313 0.0000
# 4 0.0000 0.0000 0.0000 20.2417 0.0000 -3.9742
# 5 -18.2701 -10.2893 -24.9313 0.0000 33.9089 0.0000
# 6 0.0000 0.0000 0.0000 -3.9742 0.0000 43.5236
#
#
#
# Elastic Compliance Matrix: (Units=1/GPa)
#
#
# Indices 1 2 3 4 5 6 
#
# 1 0.011805 -0.005690 0.000707 0.000000 0.005154 0.000000
# 2 -0.005690 0.016719 -0.011953 0.000000 -0.006781 0.000000
# 3 0.000707 -0.011953 0.026629 0.000000 0.016332 0.000000
# 4 0.000000 0.000000 0.000000 0.050305 0.000000 0.004593
# 5 0.005154 -0.006781 0.016332 0.000000 0.042219 0.000000
# 6 0.000000 0.000000 0.000000 0.004593 0.000000 0.023395
#
#
# Mechanical properties :
#
#
# Convention : Reuss Voigt Hill
#
# Bulk Modulus (GPa) = 46.98827 67.17305 57.08066
# Shear Modulus (GPa) = 23.58082 30.46319 27.02200
#
# Velocity S-wave (km/s) = 3.50883 3.98814 3.75614
# Velocity P-wave (km/s) = 6.39915 7.50194 6.97239
#
# Compressibility (1/GPa) = 0.02128191
#
# Stress axis : x y z
#
# Youngs Moduli (GPa) = 84.70772 59.81243 37.55353
#
# Poissons Ratio (x) = 0.34030 -0.02656
# Poissons Ratio (y) = 0.48195 0.44888
# Poissons Ratio (z) = -0.05990 0.71494
#
# Static dielectric constant tensor:
#      x y z
#    x 1.757980 0.000000 -0.123430 
#    y 0.000000 1.719270 0.000000 
#    z -0.123430 0.000000 1.875150 
# 
# From -- ./inp_files/159417.got.cif
#   From: 2010.05.17/outbox.cif.g08.bks.cpg/sg15_80_cif.got.tgz:159417.got - 2010.06.03 18:47:42.
