data_PCOD9268104
_publ_section_title
;
Structure prediction by ZEFSAII (Michael W. Deem and Ramdas Pophale) SiO2 
 PCOD9268104
Probable space group: C 2/C
;
_chemical_formula_sum "Si O2"
_cell_formula_units_Z 64
_cell_length_a 10.606088
_cell_length_b 8.714494
_cell_length_c 29.381017
_cell_angle_alpha 90.000000
_cell_angle_beta 71.164417
_cell_angle_gamma 90.000000
_cell_volume 2570.167419
_symmetry_space_group_name_H-M "C 2/C"
_symmetry_group_IT_number 15
_symmetry_cell_setting 'monoclinic'
loop_
_space_group_symop_operation_xyz
x,y,z
-x,y,1/2-z
-x,-y,-z
x,-y,1/2+z
1/2+x,1/2+y,z
1/2-x,1/2+y,1/2-z
1/2-x,1/2-y,-z
1/2+x,1/2-y,1/2+z
loop_
_atom_site_type_symbol
_atom_site_label
_atom_site_fract_x
_atom_site_fract_y
_atom_site_fract_z
Si Si1 0.423330 0.525400 0.097622
Si Si2 0.116983 0.758256 0.629564
Si Si3 0.714034 0.340221 0.714711
Si Si4 0.701982 0.002960 0.990641
Si Si5 0.748843 0.502950 0.794803
Si Si6 0.127808 0.797022 0.464046
Si Si7 0.474518 0.082843 0.330678
Si Si8 0.696034 0.222296 0.074380
O O1 0.526801 0.637904 0.108404
O O2 0.339558 0.462484 0.150483
O O3 0.469561 0.392632 0.057343
O O4 0.322323 0.630848 0.080511
O O5 0.152999 0.848798 0.671675
O O6 0.247990 0.725704 0.584671
O O7 0.049978 0.593204 0.649255
O O8 0.663150 0.431899 0.764286
O O9 0.870763 0.384610 0.694923
O O10 0.695907 0.162862 0.729358
O O11 0.599195 0.870356 0.987415
O O12 0.754123 0.107979 0.943444
O O13 0.818814 0.902551 0.001205
O O14 0.658484 0.123832 0.034129
O O15 0.873191 0.404228 0.799509
O O16 0.418510 0.199909 0.375056
#
# Coordination Sequence:
#
# PCOD9268104 Si02
#       8
#     8   8   8   8   8   8   8   8
#     4  10  21  42  66  93 140 175 220 279 335 403
#     4  11  23  43  69  96 132 189 220 272 345 400
#     4  11  24  44  70  97 134 178 225 279 338 404
#     4   9  18  35  72  98 136 171 227 283 331 400
#     4  10  23  46  65 103 133 170 229 281 334 398
#     4  10  19  42  64  96 142 174 221 280 337 405
#     4  10  21  44  72  96 139 176 221 283 342 398
#     4   9  18  40  69 102 134 175 228 279 333 407
#
# _framework density 24.901102000000002
#
# number of rings (size 3 to 8) (size 9 to 14) (size 15 to 20)
#    0.000    2.000    5.000    0.375    1.750    2.500 
#    6.750    6.250    5.500    0.000    0.000    0.000 
#    0.000    0.000    0.000    0.000    0.000    0.000 
#
# Total GULP energy -179119.650378 kJ/mol
# GULP energy per Si atom -5597.489074 kJ/mol
# Density = 2.484443 g / cm^3
# Si number density = 24.901102 Si / 1000 Ang^3
#
#
#
# Elastic Constant Matrix: (Units=GPa)
#
#
# Indices 1 2 3 4 5 6 
#
# 1 81.8215 17.2725 30.4614 0.0000 16.9065 0.0000
# 2 17.2725 100.3516 54.9347 0.0000 18.3396 0.0000
# 3 30.4614 54.9347 136.3333 0.0000 30.8509 0.0000
# 4 0.0000 0.0000 0.0000 44.9702 0.0000 6.2234
# 5 16.9065 18.3396 30.8509 0.0000 35.7577 0.0000
# 6 0.0000 0.0000 0.0000 6.2234 0.0000 38.7939
#
#
#
# Elastic Compliance Matrix: (Units=1/GPa)
#
#
# Indices 1 2 3 4 5 6 
#
# 1 0.014002 -0.000535 -0.001835 0.000000 -0.004762 0.000000
# 2 -0.000535 0.013007 -0.004559 0.000000 -0.002484 0.000000
# 3 -0.001835 -0.004559 0.011005 0.000000 -0.006289 0.000000
# 4 0.000000 0.000000 0.000000 0.022742 0.000000 -0.003648
# 5 -0.004762 -0.002484 -0.006289 0.000000 0.036918 0.000000
# 6 0.000000 0.000000 0.000000 -0.003648 0.000000 0.026362
#
#
# Mechanical properties :
#
#
# Convention : Reuss Voigt Hill
#
# Bulk Modulus (GPa) = 41.39918 58.20483 49.80201
# Shear Modulus (GPa) = 34.25893 38.29356 36.27624
#
# Velocity S-wave (km/s) = 3.71320 3.92577 3.82096
# Velocity P-wave (km/s) = 5.91991 6.63129 6.28567
#
# Compressibility (1/GPa) = 0.02415507
#
# Stress axis : x y z
#
# Youngs Moduli (GPa) = 71.41862 76.88180 90.86515
#
# Poissons Ratio (x) = 0.04113 0.16676
# Poissons Ratio (y) = 0.03821 0.41429
# Poissons Ratio (z) = 0.13107 0.35053
#
# Static dielectric constant tensor:
#      x y z
#    x 2.025310 0.000000 -0.025590 
#    y 0.000000 1.970060 0.000000 
#    z -0.025590 0.000000 1.980140 
# 
# From -- ./inp_files/310305.got.cif
#   From: 2010.05.17/outbox.cif.g08.bks.cpg/sg15_156_cif.got.tgz:310305.got - 2010.06.03 18:47:42.
