data_PCOD9268929
_publ_section_title
;
Structure prediction by ZEFSAII (Michael W. Deem and Ramdas Pophale) SiO2 
 PCOD9268929
Probable space group: C 2/C
;
_chemical_formula_sum "Si O2"
_cell_formula_units_Z 56
_cell_length_a 18.847680
_cell_length_b 17.047057
_cell_length_c 11.630309
_cell_angle_alpha 90.000000
_cell_angle_beta 53.630137
_cell_angle_gamma 90.000000
_cell_volume 3008.884179
_symmetry_space_group_name_H-M "C 2/C"
_symmetry_group_IT_number 15
_symmetry_cell_setting 'monoclinic'
loop_
_space_group_symop_operation_xyz
x,y,z
-x,y,1/2-z
-x,-y,-z
x,-y,1/2+z
1/2+x,1/2+y,z
1/2-x,1/2+y,1/2-z
1/2-x,1/2-y,-z
1/2+x,1/2-y,1/2+z
loop_
_atom_site_type_symbol
_atom_site_label
_atom_site_fract_x
_atom_site_fract_y
_atom_site_fract_z
Si Si1 0.461010 0.756015 0.036747
Si Si2 0.814800 0.800462 0.362553
Si Si3 0.019774 0.074650 0.557830
Si Si4 0.811394 0.139261 0.422483
Si Si5 0.351289 0.541532 0.879779
Si Si6 0.759615 0.266890 0.299746
Si Si7 0.000000 0.226363 0.250000
Si Si8 0.000000 0.264062 0.750000
O O1 0.356998 0.772693 0.151909
O O2 0.501039 0.771869 0.126065
O O3 0.478094 0.661722 0.998937
O O4 0.492037 0.798439 0.888162
O O5 0.750000 0.750000 0.500000
O O6 0.785900 0.890673 0.402725
O O7 0.809803 0.773372 0.236062
O O8 0.910795 0.785920 0.324124
O O9 0.937579 0.062911 0.722385
O O10 0.114242 0.058060 0.524995
O O11 0.000000 0.000000 0.500000
O O12 0.761904 0.185469 0.367972
O O13 0.762862 0.166011 0.585777
O O14 0.911058 0.174221 0.331503
O O15 0.819515 0.046740 0.397763
#
# Coordination Sequence:
#
# PCOD9268929 Si02
#       8
#     8   8   8   8   8   8   4   4
#     4  11  19  36  54  84 123 164 199 243 299 376
#     4  12  22  38  57  87 122 157 200 254 304 373
#     4  11  19  30  51  84 124 149 187 233 301 393
#     4  10  21  38  56  85 123 162 201 249 306 385
#     4  11  21  33  52  86 118 158 194 241 308 374
#     4  10  22  38  55  81 125 160 207 248 295 362
#     4  10  20  33  56  84 121 164 196 238 315 374
#     4  12  20  37  60  84 123 158 202 246 319 376
#
# _framework density 18.611550999999999
#
# number of rings (size 3 to 8) (size 9 to 14) (size 15 to 20)
#    0.000    1.143    4.286    4.286    2.000    0.000 
#    0.000    0.000    0.000    0.000    0.000   13.000 
#    0.000    0.000    0.000    0.000    0.000    0.000 
#
# Total GULP energy -155926.237899 kJ/mol
# GULP energy per Si atom -5568.794211 kJ/mol
# Density = 1.856919 g / cm^3
# Si number density = 18.611551 Si / 1000 Ang^3
#
#
#
# Elastic Constant Matrix: (Units=GPa)
#
#
# Indices 1 2 3 4 5 6 
#
# 1 91.1037 35.6771 21.1450 0.0000 24.7423 0.0000
# 2 35.6771 78.5887 32.7624 0.0000 -5.9811 0.0000
# 3 21.1450 32.7624 110.8045 0.0000 12.5218 0.0000
# 4 0.0000 0.0000 0.0000 16.2228 0.0000 -1.1080
# 5 24.7423 -5.9811 12.5218 0.0000 40.1744 0.0000
# 6 0.0000 0.0000 0.0000 -1.1080 0.0000 10.8997
#
#
#
# Elastic Compliance Matrix: (Units=1/GPa)
#
#
# Indices 1 2 3 4 5 6 
#
# 1 0.017940 -0.009447 0.000806 0.000000 -0.012706 0.000000
# 2 -0.009447 0.020016 -0.005296 0.000000 0.010449 0.000000
# 3 0.000806 -0.005296 0.010969 0.000000 -0.004704 0.000000
# 4 0.000000 0.000000 0.000000 0.062073 0.000000 0.006310
# 5 -0.012706 0.010449 -0.004704 0.000000 0.035739 0.000000
# 6 0.000000 0.000000 0.000000 0.006310 0.000000 0.092387
#
#
# Mechanical properties :
#
#
# Convention : Reuss Voigt Hill
#
# Bulk Modulus (GPa) = 47.50732 51.07399 49.29065
# Shear Modulus (GPa) = 18.24714 26.18687 22.21700
#
# Velocity S-wave (km/s) = 3.13456 3.75510 3.45878
# Velocity P-wave (km/s) = 6.21947 6.80461 6.51861
#
# Compressibility (1/GPa) = 0.02104939
#
# Stress axis : x y z
#
# Youngs Moduli (GPa) = 55.74158 49.95889 91.16837
#
# Poissons Ratio (x) = 0.47197 -0.07346
# Poissons Ratio (y) = 0.52660 0.48287
# Poissons Ratio (z) = -0.04491 0.26460
#
# Static dielectric constant tensor:
#      x y z
#    x 1.713650 0.000000 0.065140 
#    y 0.000000 1.640090 0.000000 
#    z 0.065140 0.000000 1.712210 
# 
# From -- ./inp_files/106369.got.cif
#   From: 2010.05.17/outbox.cif.g08.bks.cpg/sg15_54_cif.got.tgz:106369.got - 2010.06.03 18:47:42.
