data_PCOD9268628
_publ_section_title
;
Structure prediction by ZEFSAII (Michael W. Deem and Ramdas Pophale) SiO2 
 PCOD9268628
Probable space group: C 2/C
;
_chemical_formula_sum "Si O2"
_cell_formula_units_Z 48
_cell_length_a 15.730785
_cell_length_b 35.125338
_cell_length_c 5.114700
_cell_angle_alpha 90.000000
_cell_angle_beta 56.922204
_cell_angle_gamma 90.000000
_cell_volume 2368.094127
_symmetry_space_group_name_H-M "C 2/C"
_symmetry_group_IT_number 15
_symmetry_cell_setting 'monoclinic'
loop_
_space_group_symop_operation_xyz
x,y,z
-x,y,1/2-z
-x,-y,-z
x,-y,1/2+z
1/2+x,1/2+y,z
1/2-x,1/2+y,1/2-z
1/2-x,1/2-y,-z
1/2+x,1/2-y,1/2+z
loop_
_atom_site_type_symbol
_atom_site_label
_atom_site_fract_x
_atom_site_fract_y
_atom_site_fract_z
Si Si1 0.641326 0.151753 0.639725
Si Si2 0.432356 0.067188 0.625408
Si Si3 0.234001 0.685064 0.954220
Si Si4 0.109817 0.758439 0.194171
Si Si5 0.000000 0.711442 0.750000
Si Si6 0.000000 0.027631 0.250000
Si Si7 0.281569 0.474498 0.031819
O O1 0.599088 0.109609 0.731297
O O2 0.678144 0.164037 0.288969
O O3 0.550377 0.181286 0.863122
O O4 0.727379 0.158984 0.711220
O O5 0.500000 0.050133 0.750000
O O6 0.325050 0.046698 0.754176
O O7 0.500000 0.068114 0.250000
O O8 0.183222 0.725839 0.957089
O O9 0.341497 0.700334 0.873384
O O10 0.087645 0.739663 0.512611
O O11 0.000000 0.758825 0.250000
O O12 0.888646 0.047213 0.414746
O O13 0.000000 0.000000 0.500000
O O14 0.282939 0.509565 0.234317
#
# Coordination Sequence:
#
# PCOD9268628 Si02
#       7
#     8   8   8   8   4   4   8
#     4  11  22  39  54  81 111 157 197 236 282 363
#     4  12  25  38  62  91 123 166 201 238 304 369
#     4  10  23  35  56  79 110 142 191 247 292 345
#     4  10  20  33  55  82 106 140 187 245 309 345
#     4  10  20  32  60  77 112 146 198 248 286 354
#     4   8  16  34  62  87 112 154 198 236 280 334
#     4  10  21  39  63  95 127 158 201 251 293 344
#
# _framework density 20.269463999999999
#
# number of rings (size 3 to 8) (size 9 to 14) (size 15 to 20)
#    0.000    1.667    2.500    2.000    4.667    4.000 
#    0.000    0.000    3.667    0.000    0.000    0.000 
#    0.000    0.000    0.000    0.000    0.000    0.000 
#
# Total GULP energy -133636.848142 kJ/mol
# GULP energy per Si atom -5568.202006 kJ/mol
# Density = 2.022333 g / cm^3
# Si number density = 20.269464 Si / 1000 Ang^3
#
#
#
# Elastic Constant Matrix: (Units=GPa)
#
#
# Indices 1 2 3 4 5 6 
#
# 1 134.1857 30.8261 26.9736 0.0000 -15.7161 0.0000
# 2 30.8261 23.0576 10.4678 0.0000 -14.0290 0.0000
# 3 26.9736 10.4678 41.7522 0.0000 -1.1077 0.0000
# 4 0.0000 0.0000 0.0000 17.3370 0.0000 -4.9898
# 5 -15.7161 -14.0290 -1.1077 0.0000 45.0882 0.0000
# 6 0.0000 0.0000 0.0000 -4.9898 0.0000 26.1624
#
#
#
# Elastic Compliance Matrix: (Units=1/GPa)
#
#
# Indices 1 2 3 4 5 6 
#
# 1 0.011315 -0.013579 -0.003915 0.000000 -0.000377 0.000000
# 2 -0.013579 0.077886 -0.010244 0.000000 0.019249 0.000000
# 3 -0.003915 -0.010244 0.028947 0.000000 -0.003841 0.000000
# 4 0.000000 0.000000 0.000000 0.061030 0.000000 0.011640
# 5 -0.000377 0.019249 -0.003841 0.000000 0.027942 0.000000
# 6 0.000000 0.000000 0.000000 0.011640 0.000000 0.040443
#
#
# Mechanical properties :
#
#
# Convention : Reuss Voigt Hill
#
# Bulk Modulus (GPa) = 15.95633 37.28117 26.61875
# Shear Modulus (GPa) = 15.43551 26.43271 20.93411
#
# Velocity S-wave (km/s) = 2.76255 3.61510 3.21719
# Velocity P-wave (km/s) = 4.25027 5.98815 5.19244
#
# Compressibility (1/GPa) = 0.06267104
#
# Stress axis : x y z
#
# Youngs Moduli (GPa) = 88.38106 12.83934 34.54636
#
# Poissons Ratio (x) = 0.17434 0.13526
# Poissons Ratio (y) = 1.20011 0.35389
# Poissons Ratio (z) = 0.34604 0.13152
#
# Static dielectric constant tensor:
#      x y z
#    x 1.836500 0.000000 -0.023840 
#    y 0.000000 1.692920 0.000000 
#    z -0.023840 0.000000 1.813160 
# 
# From -- ./inp_files/8954.got.cif
#   From: 2010.05.17/outbox.cif.g08.bks.cpg/sg15_5_cif.got.tgz:8954.got - 2010.06.03 18:47:42.
