data_PCOD9268902
_publ_section_title
;
Structure prediction by ZEFSAII (Michael W. Deem and Ramdas Pophale) SiO2 
 PCOD9268902
Probable space group: C 2/C
;
_chemical_formula_sum "Si O2"
_cell_formula_units_Z 52
_cell_length_a 15.317144
_cell_length_b 20.424526
_cell_length_c 20.593096
_cell_angle_alpha 90.000000
_cell_angle_beta 152.761277
_cell_angle_gamma 90.000000
_cell_volume 2948.704973
_symmetry_space_group_name_H-M "C 2/C"
_symmetry_group_IT_number 15
_symmetry_cell_setting 'monoclinic'
loop_
_space_group_symop_operation_xyz
x,y,z
-x,y,1/2-z
-x,-y,-z
x,-y,1/2+z
1/2+x,1/2+y,z
1/2-x,1/2+y,1/2-z
1/2-x,1/2-y,-z
1/2+x,1/2-y,1/2+z
loop_
_atom_site_type_symbol
_atom_site_label
_atom_site_fract_x
_atom_site_fract_y
_atom_site_fract_z
Si Si1 0.175235 0.298606 0.627913
Si Si2 0.812932 0.045105 0.367397
Si Si3 0.500000 0.021118 0.750000
Si Si4 0.000000 0.258449 0.250000
Si Si5 0.068905 0.817380 0.579870
Si Si6 0.673232 0.049106 0.126175
Si Si7 0.746950 0.634559 0.527547
Si Si8 0.000000 0.922215 0.750000
O O1 0.336551 0.278209 0.682119
O O2 0.273362 0.296107 0.763301
O O3 0.117589 0.374274 0.579064
O O4 0.010414 0.245241 0.510168
O O5 0.858364 0.120933 0.413062
O O6 0.750938 0.042826 0.250839
O O7 0.640591 0.019584 0.297466
O O8 0.000000 0.000000 0.500000
O O9 0.367332 0.069562 0.620355
O O10 0.105152 0.305260 0.372690
O O11 0.896211 0.848668 0.508361
O O12 0.847243 0.037696 0.191233
O O13 0.500000 0.000000 0.000000
O O14 0.619420 0.620361 0.380855
#
# Coordination Sequence:
#
# PCOD9268902 Si02
#       8
#     8   8   4   4   8   8   8   4
#     4  10  21  34  52  78 117 149 182 232 279 335
#     4  11  21  39  59  83 112 149 196 236 273 337
#     4  11  20  38  61  81 111 154 188 240 283 322
#     4   9  21  32  52  84 115 153 182 210 284 364
#     4  10  21  36  53  83 115 148 187 229 278 341
#     4  11  24  37  56  84 116 151 191 231 285 340
#     4  10  20  33  55  85 116 150 181 218 284 353
#     4  12  19  36  57  85 122 153 174 234 281 334
#
# _framework density 17.634861000000001
#
# number of rings (size 3 to 8) (size 9 to 14) (size 15 to 20)
#    0.000    1.538    4.615    1.385    2.154    2.462 
#    0.000    0.000    0.000    4.615    0.000    0.000 
#    0.000    0.000    0.000    0.000    0.000    0.000 
#
# Total GULP energy -145162.181513 kJ/mol
# GULP energy per Si atom -5583.160827 kJ/mol
# Density = 1.759472 g / cm^3
# Si number density = 17.634861 Si / 1000 Ang^3
#
#
#
# Elastic Constant Matrix: (Units=GPa)
#
#
# Indices 1 2 3 4 5 6 
#
# 1 82.1005 57.4244 36.3663 0.0043 13.9284 0.0010
# 2 57.4244 153.7657 84.5120 -0.0279 2.5237 0.0183
# 3 36.3663 84.5120 114.6729 -0.0374 1.4774 0.0230
# 4 0.0043 -0.0279 -0.0374 43.6061 -0.0089 8.4047
# 5 13.9284 2.5237 1.4774 -0.0089 17.1492 0.0133
# 6 0.0010 0.0183 0.0230 8.4047 0.0133 5.2223
#
#
#
# Elastic Compliance Matrix: (Units=1/GPa)
#
#
# Indices 1 2 3 4 5 6 
#
# 1 0.019814 -0.006397 -0.001376 -0.000033 -0.015033 0.000116
# 2 -0.006397 0.013011 -0.007611 0.000011 0.003937 -0.000038
# 3 -0.001376 -0.007611 0.014753 0.000023 0.000966 -0.000078
# 4 -0.000033 0.000011 0.000023 0.033245 0.000082 -0.053505
# 5 -0.015033 0.003937 0.000966 0.000082 0.069860 -0.000325
# 6 0.000116 -0.000038 -0.000078 -0.053505 -0.000325 0.277598
#
#
# Mechanical properties :
#
#
# Convention : Reuss Voigt Hill
#
# Bulk Modulus (GPa) = 59.48256 78.57160 69.02708
# Shear Modulus (GPa) = 10.76076 24.67794 17.71935
#
# Velocity S-wave (km/s) = 2.47290 3.74489 3.17328
# Velocity P-wave (km/s) = 6.47742 7.95930 7.25629
#
# Compressibility (1/GPa) = 0.01681165
#
# Stress axis : x y z
#
# Youngs Moduli (GPa) = 50.46887 76.85968 67.78166
#
# Poissons Ratio (x) = 0.49167 0.09324
# Poissons Ratio (y) = 0.32285 0.51587
# Poissons Ratio (z) = 0.06943 0.58496
#
# Static dielectric constant tensor:
#      x y z
#    x 1.592830 0.000000 -0.009880 
#    y 0.000000 1.638780 0.000000 
#    z -0.009880 0.000000 1.653760 
# 
# From -- ./inp_files/40808.got.cif
#   From: 2010.05.17/outbox.cif.g08.bks.cpg/sg15_21_cif.got.tgz:40808.got - 2010.06.03 18:47:42.
