data_PCOD9268011
_publ_section_title
;
Structure prediction by ZEFSAII (Michael W. Deem and Ramdas Pophale) SiO2 
 PCOD9268011
Probable space group: C 2/C
;
_chemical_formula_sum "Si O2"
_cell_formula_units_Z 56
_cell_length_a 23.915077
_cell_length_b 9.371102
_cell_length_c 18.254148
_cell_angle_alpha 90.000000
_cell_angle_beta 38.815997
_cell_angle_gamma 90.000000
_cell_volume 2564.293999
_symmetry_space_group_name_H-M "C 2/C"
_symmetry_group_IT_number 15
_symmetry_cell_setting 'monoclinic'
loop_
_space_group_symop_operation_xyz
x,y,z
-x,y,1/2-z
-x,-y,-z
x,-y,1/2+z
1/2+x,1/2+y,z
1/2-x,1/2+y,1/2-z
1/2-x,1/2-y,-z
1/2+x,1/2-y,1/2+z
loop_
_atom_site_type_symbol
_atom_site_label
_atom_site_fract_x
_atom_site_fract_y
_atom_site_fract_z
Si Si1 0.658572 0.477840 0.055553
Si Si2 0.105526 0.998461 0.270824
Si Si3 0.003009 0.480229 0.083700
Si Si4 0.949506 0.792312 0.446127
Si Si5 0.037872 0.766326 0.636830
Si Si6 0.287718 0.320939 0.726761
Si Si7 0.299951 0.025808 0.793141
O O1 0.652082 0.448977 0.147993
O O2 0.593284 0.369797 0.079968
O O3 0.618017 0.634132 0.080899
O O4 0.750253 0.480550 0.918025
O O5 0.179934 0.062757 0.247361
O O6 0.036587 0.126189 0.320158
O O7 0.041488 0.876189 0.369644
O O8 0.901845 0.444745 0.207460
O O9 0.031574 0.628757 0.088504
O O10 0.061865 0.350616 0.052582
O O11 0.000000 0.500000 0.000000
O O12 0.876201 0.799382 0.585556
O O13 0.000000 0.697592 0.750000
O O14 0.264653 0.171086 0.789571
O O15 0.214854 0.395762 0.748989
#
# Coordination Sequence:
#
# PCOD9268011 Si02
#       7
#     8   8   8   8   8   8   8
#     4   9  22  41  66  87 121 161 208 247 305 371
#     4  10  19  41  66  89 115 163 207 247 298 372
#     4  12  23  39  60  91 125 156 202 256 305 361
#     4  10  21  38  65  89 121 159 204 250 301 367
#     4   9  19  38  62  90 115 154 204 249 300 359
#     4  11  23  40  62  90 124 159 207 253 305 357
#     4  11  25  40  60  93 125 160 203 255 310 361
#
# _framework density 21.838367999999999
#
# number of rings (size 3 to 8) (size 9 to 14) (size 15 to 20)
#    0.000    1.714    2.857    1.714    4.000    2.857 
#    0.000    0.714    3.143    0.000    0.000    0.000 
#    0.000    0.000    0.000    0.000    0.000    0.000 
#
# Total GULP energy -156478.794346 kJ/mol
# GULP energy per Si atom -5588.528370 kJ/mol
# Density = 2.178866 g / cm^3
# Si number density = 21.838368 Si / 1000 Ang^3
#
#
#
# Elastic Constant Matrix: (Units=GPa)
#
#
# Indices 1 2 3 4 5 6 
#
# 1 20.7294 -6.9354 -1.1511 0.0017 3.9507 -0.0009
# 2 -6.9354 77.1737 8.8254 0.0023 6.9190 -0.0015
# 3 -1.1511 8.8254 44.6540 0.0011 9.3965 -0.0010
# 4 0.0017 0.0023 0.0011 19.0559 -0.0002 -3.2874
# 5 3.9507 6.9190 9.3965 -0.0002 22.1197 0.0000
# 6 -0.0009 -0.0015 -0.0010 -3.2874 0.0000 13.6946
#
#
#
# Elastic Compliance Matrix: (Units=1/GPa)
#
#
# Indices 1 2 3 4 5 6 
#
# 1 0.052591 0.005504 0.002863 -0.000005 -0.012331 0.000003
# 2 0.005504 0.014061 -0.001652 -0.000002 -0.004679 0.000001
# 3 0.002863 -0.001652 0.025031 -0.000001 -0.010628 0.000002
# 4 -0.000005 -0.000002 -0.000001 0.054744 0.000002 0.013142
# 5 -0.012331 -0.004679 -0.010628 0.000002 0.053389 -0.000002
# 6 0.000003 0.000001 0.000002 0.013142 -0.000002 0.076176
#
#
# Mechanical properties :
#
#
# Convention : Reuss Voigt Hill
#
# Bulk Modulus (GPa) = 9.51363 16.00389 12.75876
# Shear Modulus (GPa) = 16.80099 20.42858 18.61478
#
# Velocity S-wave (km/s) = 2.77670 3.06182 2.92274
# Velocity P-wave (km/s) = 3.82699 4.45465 4.15270
#
# Compressibility (1/GPa) = 0.10511235
#
# Stress axis : x y z
#
# Youngs Moduli (GPa) = 19.01461 71.11894 39.95018
#
# Poissons Ratio (x) = -0.39146 -0.11436
# Poissons Ratio (y) = -0.10466 0.06601
# Poissons Ratio (z) = -0.05443 0.11752
#
# Static dielectric constant tensor:
#      x y z
#    x 1.765480 0.000000 0.006330 
#    y 0.000000 1.804830 0.000000 
#    z 0.006330 0.000000 1.828590 
# 
# From -- ./inp_files/218496.got.cif
#   From: 2010.05.17/outbox.cif.g08.bks.cpg/sg15_110_cif.got.tgz:218496.got - 2010.06.03 18:47:42.
