data_PCOD9268433
_publ_section_title
;
Structure prediction by ZEFSAII (Michael W. Deem and Ramdas Pophale) SiO2 
 PCOD9268433
Probable space group: C 2/C
;
_chemical_formula_sum "Si O2"
_cell_formula_units_Z 36
_cell_length_a 23.624848
_cell_length_b 5.917809
_cell_length_c 11.730909
_cell_angle_alpha 90.000000
_cell_angle_beta 74.057380
_cell_angle_gamma 90.000000
_cell_volume 1576.985678
_symmetry_space_group_name_H-M "C 2/C"
_symmetry_group_IT_number 15
_symmetry_cell_setting 'monoclinic'
loop_
_space_group_symop_operation_xyz
x,y,z
-x,y,1/2-z
-x,-y,-z
x,-y,1/2+z
1/2+x,1/2+y,z
1/2-x,1/2+y,1/2-z
1/2-x,1/2-y,-z
1/2+x,1/2-y,1/2+z
loop_
_atom_site_type_symbol
_atom_site_label
_atom_site_fract_x
_atom_site_fract_y
_atom_site_fract_z
Si Si1 0.776438 0.556212 0.903510
Si Si2 0.000000 0.044570 0.750000
Si Si3 0.551900 0.104751 0.043836
Si Si4 0.389260 0.718418 0.332949
Si Si5 0.665235 0.667930 0.471336
O O1 0.832008 0.664360 0.808014
O O2 0.719433 0.447982 0.873453
O O3 0.750000 0.750000 0.000000
O O4 0.804803 0.360237 0.966347
O O5 0.022761 0.202451 0.636841
O O6 0.055966 0.898882 0.759734
O O7 0.579157 0.910532 0.108913
O O8 0.608093 0.214217 0.949284
O O9 0.500000 0.000000 0.000000
O O10 0.361553 0.526235 0.431214
#
# Coordination Sequence:
#
# PCOD9268433 Si02
#       5
#     8   4   8   8   8
#     4   8  13  25  45  71 105 125 170 227 265 319
#     4  10  20  32  48  74 112 146 188 220 288 342
#     4  10  20  33  50  76 117 143 183 228 277 339
#     4   9  17  30  48  72 110 131 178 226 274 335
#     4   8  15  26  45  73 105 131 177 217 272 324
#
# _framework density 22.828365000000002
#
# number of rings (size 3 to 8) (size 9 to 14) (size 15 to 20)
#    0.000    3.111    0.000    0.667    0.000    3.556 
#    0.000    0.000    0.000    0.000    0.000    0.000 
# 1980.000    0.000    0.000    0.000    0.000    0.000 
#
# Total GULP energy -100307.104500 kJ/mol
# GULP energy per Si atom -5572.616917 kJ/mol
# Density = 2.277641 g / cm^3
# Si number density = 22.828365 Si / 1000 Ang^3
#
#
#
# Elastic Constant Matrix: (Units=GPa)
#
#
# Indices 1 2 3 4 5 6 
#
# 1 226.0270 85.9020 62.9781 0.0000 -45.8816 0.0000
# 2 85.9020 127.3392 39.3410 0.0000 -26.8517 0.0000
# 3 62.9781 39.3410 61.6439 0.0000 -28.1328 0.0000
# 4 0.0000 0.0000 0.0000 22.9729 0.0000 -32.3056
# 5 -45.8816 -26.8517 -28.1328 0.0000 35.1890 0.0000
# 6 0.0000 0.0000 0.0000 -32.3056 0.0000 79.0660
#
#
#
# Elastic Compliance Matrix: (Units=1/GPa)
#
#
# Indices 1 2 3 4 5 6 
#
# 1 0.007506 -0.002958 -0.003691 0.000000 0.004579 0.000000
# 2 -0.002958 0.011298 -0.003171 0.000000 0.002230 0.000000
# 3 -0.003691 -0.003171 0.029468 0.000000 0.016326 0.000000
# 4 0.000000 0.000000 0.000000 0.102322 0.000000 0.041808
# 5 0.004579 0.002230 0.016326 0.000000 0.049142 0.000000
# 6 0.000000 0.000000 0.000000 0.041808 0.000000 0.029730
#
#
# Mechanical properties :
#
#
# Convention : Reuss Voigt Hill
#
# Bulk Modulus (GPa) = 34.92580 87.93913 61.43247
# Shear Modulus (GPa) = 19.33101 42.56484 30.94792
#
# Velocity S-wave (km/s) = 2.91314 4.32274 3.68595
# Velocity P-wave (km/s) = 5.16214 7.96996 6.71446
#
# Compressibility (1/GPa) = 0.02863213
#
# Stress axis : x y z
#
# Youngs Moduli (GPa) = 133.21936 88.50997 33.93470
#
# Poissons Ratio (x) = 0.26179 0.12527
# Poissons Ratio (y) = 0.39402 0.10762
# Poissons Ratio (z) = 0.49177 0.28069
#
# Static dielectric constant tensor:
#      x y z
#    x 1.908630 0.000000 0.010100 
#    y 0.000000 1.850320 0.000000 
#    z 0.010100 0.000000 1.937570 
# 
# From -- ./inp_files/115609.got.cif
#   From: 2010.05.17/outbox.cif.g08.bks.cpg/sg15_58_cif.got.tgz:115609.got - 2010.06.03 18:47:42.
