data_PCOD9268523
_publ_section_title
;
Structure prediction by ZEFSAII (Michael W. Deem and Ramdas Pophale) SiO2 
 PCOD9268523
Probable space group: C 2/C
;
_chemical_formula_sum "Si O2"
_cell_formula_units_Z 48
_cell_length_a 15.586736
_cell_length_b 11.726110
_cell_length_c 13.766198
_cell_angle_alpha 90.000000
_cell_angle_beta 116.741114
_cell_angle_gamma 90.000000
_cell_volume 2246.975394
_symmetry_space_group_name_H-M "C 2/C"
_symmetry_group_IT_number 15
_symmetry_cell_setting 'monoclinic'
loop_
_space_group_symop_operation_xyz
x,y,z
-x,y,1/2-z
-x,-y,-z
x,-y,1/2+z
1/2+x,1/2+y,z
1/2-x,1/2+y,1/2-z
1/2-x,1/2-y,-z
1/2+x,1/2-y,1/2+z
loop_
_atom_site_type_symbol
_atom_site_label
_atom_site_fract_x
_atom_site_fract_y
_atom_site_fract_z
Si Si1 0.015743 0.543513 0.899475
Si Si2 0.114970 0.257012 0.206229
Si Si3 0.283926 0.923391 0.091858
Si Si4 0.162077 0.601312 0.243964
Si Si5 0.767297 0.799371 0.116403
Si Si6 0.198604 0.068593 0.354890
O O1 0.982817 0.673348 0.860234
O O2 0.936213 0.467692 0.804514
O O3 0.124508 0.530579 0.922577
O O4 0.000000 0.500000 0.000000
O O5 0.178536 0.323386 0.319982
O O6 0.173467 0.275530 0.135782
O O7 0.114822 0.129875 0.249802
O O8 0.261732 0.026793 0.153843
O O9 0.206593 0.892351 0.971182
O O10 0.153322 0.722552 0.289311
O O11 0.207119 0.606021 0.159819
O O12 0.796420 0.931458 0.136546
O O13 0.750000 0.750000 0.000000
#
# Coordination Sequence:
#
# PCOD9268523 Si02
#       6
#     8   8   8   8   8   8
#     4  11  20  37  61  85 115 151 200 239 285 338
#     4  10  22  35  54  90 116 148 198 241 291 347
#     4  11  19  36  59  82 112 154 193 247 285 341
#     4  10  20  32  53  86 112 148 195 238 290 335
#     4  11  20  34  56  81 121 149 188 242 298 342
#     4  11  20  36  55  86 120 149 191 241 294 348
#
# _framework density 21.36205
#
# number of rings (size 3 to 8) (size 9 to 14) (size 15 to 20)
#    0.000    1.333    6.667    2.500    0.000    0.000 
#    0.000    0.000    0.000    5.000    0.000    0.000 
#    0.000    0.000    0.000    0.000    0.000    0.000 
#
# Total GULP energy -133865.451191 kJ/mol
# GULP energy per Si atom -5577.727133 kJ/mol
# Density = 2.131343 g / cm^3
# Si number density = 21.362050 Si / 1000 Ang^3
#
#
#
# Elastic Constant Matrix: (Units=GPa)
#
#
# Indices 1 2 3 4 5 6 
#
# 1 30.4522 -4.5764 0.7863 0.0000 -6.9967 0.0000
# 2 -4.5764 126.4259 40.5813 0.0000 3.2226 0.0000
# 3 0.7863 40.5813 130.0931 0.0000 -24.8481 0.0000
# 4 0.0000 0.0000 0.0000 34.2493 0.0000 -8.8361
# 5 -6.9967 3.2226 -24.8481 0.0000 30.8522 0.0000
# 6 0.0000 0.0000 0.0000 -8.8361 0.0000 16.0992
#
#
#
# Elastic Compliance Matrix: (Units=1/GPa)
#
#
# Indices 1 2 3 4 5 6 
#
# 1 0.034944 0.000622 0.001295 0.000000 0.008903 0.000000
# 2 0.000622 0.009172 -0.003570 0.000000 -0.003692 0.000000
# 3 0.001295 -0.003570 0.010542 0.000000 0.009157 0.000000
# 4 0.000000 0.000000 0.000000 0.034014 0.000000 0.018669
# 5 0.008903 -0.003692 0.009157 0.000000 0.042192 0.000000
# 6 0.000000 0.000000 0.000000 0.018669 0.000000 0.072361
#
#
# Mechanical properties :
#
#
# Convention : Reuss Voigt Hill
#
# Bulk Modulus (GPa) = 19.47336 40.06152 29.76744
# Shear Modulus (GPa) = 22.35648 32.91881 27.63765
#
# Velocity S-wave (km/s) = 3.23855 3.92981 3.60081
# Velocity P-wave (km/s) = 4.80832 6.27579 5.59042
#
# Compressibility (1/GPa) = 0.05135221
#
# Stress axis : x y z
#
# Youngs Moduli (GPa) = 28.61728 109.02220 94.86164
#
# Poissons Ratio (x) = -0.06784 -0.12286
# Poissons Ratio (y) = -0.01781 0.33868
# Poissons Ratio (z) = -0.03706 0.38924
#
# Static dielectric constant tensor:
#      x y z
#    x 1.793530 0.000000 0.030570 
#    y 0.000000 1.873000 0.000000 
#    z 0.030570 0.000000 1.889560 
# 
# From -- ./inp_files/104279.got.cif
#   From: 2010.05.17/outbox.cif.g08.bks.cpg/sg15_53_cif.got.tgz:104279.got - 2010.06.03 18:47:42.
