data_PCOD9268447
_publ_section_title
;
Structure prediction by ZEFSAII (Michael W. Deem and Ramdas Pophale) SiO2 
 PCOD9268447
Probable space group: C 2/C
;
_chemical_formula_sum "Si O2"
_cell_formula_units_Z 52
_cell_length_a 19.337631
_cell_length_b 26.589885
_cell_length_c 5.563194
_cell_angle_alpha 90.000000
_cell_angle_beta 129.744608
_cell_angle_gamma 90.000000
_cell_volume 2199.454216
_symmetry_space_group_name_H-M "C 2/C"
_symmetry_group_IT_number 15
_symmetry_cell_setting 'monoclinic'
loop_
_space_group_symop_operation_xyz
x,y,z
-x,y,1/2-z
-x,-y,-z
x,-y,1/2+z
1/2+x,1/2+y,z
1/2-x,1/2+y,1/2-z
1/2-x,1/2-y,-z
1/2+x,1/2-y,1/2+z
loop_
_atom_site_type_symbol
_atom_site_label
_atom_site_fract_x
_atom_site_fract_y
_atom_site_fract_z
Si Si1 0.677678 0.331369 0.178293
Si Si2 0.354519 0.113758 0.573322
Si Si3 0.355173 0.621756 0.397925
Si Si4 0.600780 0.767439 0.368609
Si Si5 0.118318 0.625123 0.357318
Si Si6 0.399457 0.516960 0.707470
Si Si7 0.000000 0.287389 0.750000
O O1 0.627937 0.356219 0.832627
O O2 0.671112 0.271686 0.124775
O O3 0.637412 0.342615 0.351597
O O4 0.779517 0.352882 0.405436
O O5 0.366684 0.174892 0.575070
O O6 0.396814 0.099272 0.920309
O O7 0.249103 0.104659 0.347169
O O8 0.392109 0.093616 0.406861
O O9 0.402872 0.571729 0.596898
O O10 0.500000 0.758800 0.250000
O O11 0.578067 0.755641 0.040609
O O12 0.052320 0.673025 0.197199
O O13 0.357611 0.484621 0.388441
O O14 0.500000 0.500000 0.000000
#
# Coordination Sequence:
#
# PCOD9268447 Si02
#       7
#     8   8   8   8   8   8   4
#     4  10  23  36  55  76 114 153 192 241 271 329
#     4   9  19  33  55  72 105 143 185 236 269 331
#     4  10  21  40  57  81 105 144 191 230 283 339
#     4  11  22  36  49  76 111 156 200 233 288 309
#     4   9  18  33  49  71  95 142 181 239 282 308
#     4  10  21  40  63  85 111 145 173 228 292 344
#     4  10  20  32  50  68 104 140 198 244 268 330
#
# _framework density 23.642230000000001
#
# number of rings (size 3 to 8) (size 9 to 14) (size 15 to 20)
#    0.000    2.154    1.538    0.923    2.154    8.000 
#    8.308    0.000    0.000    0.000    0.000    0.000 
#    0.000    1.231    0.000    1.538    0.000    0.000 
#
# Total GULP energy -144760.533964 kJ/mol
# GULP energy per Si atom -5567.712845 kJ/mol
# Density = 2.358842 g / cm^3
# Si number density = 23.642230 Si / 1000 Ang^3
#
#
#
# Elastic Constant Matrix: (Units=GPa)
#
#
# Indices 1 2 3 4 5 6 
#
# 1 62.9968 7.4427 45.3838 0.0000 -29.6462 0.0000
# 2 7.4427 25.3969 21.9766 0.0000 8.0394 0.0000
# 3 45.3838 21.9766 158.7804 0.0000 -43.8836 0.0000
# 4 0.0000 0.0000 0.0000 31.3390 0.0000 3.2135
# 5 -29.6462 8.0394 -43.8836 0.0000 57.1157 0.0000
# 6 0.0000 0.0000 0.0000 3.2135 0.0000 16.2471
#
#
#
# Elastic Compliance Matrix: (Units=1/GPa)
#
#
# Indices 1 2 3 4 5 6 
#
# 1 0.024303 -0.008848 -0.002401 0.000000 0.012015 0.000000
# 2 -0.008848 0.059002 -0.011683 0.000000 -0.021874 0.000000
# 3 -0.002401 -0.011683 0.011060 0.000000 0.008896 0.000000
# 4 0.000000 0.000000 0.000000 0.032570 0.000000 -0.006442
# 5 0.012015 -0.021874 0.008896 0.000000 0.033659 0.000000
# 6 0.000000 0.000000 0.000000 -0.006442 0.000000 0.062823
#
#
# Mechanical properties :
#
#
# Convention : Reuss Voigt Hill
#
# Bulk Modulus (GPa) = 20.61812 44.08672 32.35242
# Shear Modulus (GPa) = 17.51636 32.43177 24.97406
#
# Velocity S-wave (km/s) = 2.72489 3.70776 3.25365
# Velocity P-wave (km/s) = 4.31739 6.08424 5.27531
#
# Compressibility (1/GPa) = 0.04850102
#
# Stress axis : x y z
#
# Youngs Moduli (GPa) = 41.14646 16.94871 90.41668
#
# Poissons Ratio (x) = 0.14996 0.21710
# Poissons Ratio (y) = 0.36407 1.05632
# Poissons Ratio (z) = 0.09880 0.19801
#
# Static dielectric constant tensor:
#      x y z
#    x 2.098380 0.000000 -0.133490 
#    y 0.000000 1.880910 0.000000 
#    z -0.133490 0.000000 2.064880 
# 
# From -- ./inp_files/11818.got.cif
#   From: 2010.05.17/outbox.cif.g08.bks.cpg/sg15_6_cif.got.tgz:11818.got - 2010.06.03 18:47:42.
