data_PCOD9268856
_publ_section_title
;
Structure prediction by ZEFSAII (Michael W. Deem and Ramdas Pophale) SiO2 
 PCOD9268856
Probable space group: C 2/C
;
_chemical_formula_sum "Si O2"
_cell_formula_units_Z 48
_cell_length_a 15.057430
_cell_length_b 28.289209
_cell_length_c 11.408463
_cell_angle_alpha 90.000000
_cell_angle_beta 151.075560
_cell_angle_gamma 90.000000
_cell_volume 2350.364257
_symmetry_space_group_name_H-M "C 2/C"
_symmetry_group_IT_number 15
_symmetry_cell_setting 'monoclinic'
loop_
_space_group_symop_operation_xyz
x,y,z
-x,y,1/2-z
-x,-y,-z
x,-y,1/2+z
1/2+x,1/2+y,z
1/2-x,1/2+y,1/2-z
1/2-x,1/2-y,-z
1/2+x,1/2-y,1/2+z
loop_
_atom_site_type_symbol
_atom_site_label
_atom_site_fract_x
_atom_site_fract_y
_atom_site_fract_z
Si Si1 0.995550 0.369769 0.476241
Si Si2 0.500000 0.063308 0.750000
Si Si3 0.136578 0.896237 0.504320
Si Si4 0.500000 0.627746 0.250000
Si Si5 0.792850 0.998226 0.966174
Si Si6 0.329994 0.573299 0.835250
Si Si7 0.685025 0.197343 0.895014
O O1 0.020294 0.403371 0.388418
O O2 0.859184 0.398694 0.404902
O O3 0.880782 0.322529 0.307915
O O4 0.201778 0.363148 0.760927
O O5 0.333952 0.028650 0.593810
O O6 0.243362 0.942469 0.578458
O O7 0.000000 0.874727 0.250000
O O8 0.991907 0.918184 0.430795
O O9 0.591058 0.596790 0.454678
O O10 0.656282 0.661960 0.380637
O O11 0.000000 0.002011 0.250000
O O12 0.782171 0.020456 0.822729
O O13 0.500000 0.190928 0.750000
O O14 0.750000 0.250000 0.000000
#
# Coordination Sequence:
#
# PCOD9268856 Si02
#       7
#     8   4   8   4   8   8   8
#     4  10  22  37  58  84 119 160 191 247 308 363
#     4  10  20  35  58  84 116 156 200 258 317 344
#     4  11  24  37  53  79 118 166 214 243 279 343
#     4  10  20  35  60  90 122 154 180 236 321 364
#     4  10  20  33  54  80 112 159 207 262 288 337
#     4  10  20  35  57  82 113 157 203 250 303 344
#     4  11  20  34  58  94 127 141 174 235 312 387
#
# _framework density 20.422364999999999
#
# number of rings (size 3 to 8) (size 9 to 14) (size 15 to 20)
#    0.000    1.667    2.500    2.500    2.333    7.333 
#    0.000    0.000    0.000    0.000    0.000    4.667 
#    0.000    0.167    0.000    0.000    0.000    0.000 
#
# Total GULP energy -133835.278294 kJ/mol
# GULP energy per Si atom -5576.469929 kJ/mol
# Density = 2.037588 g / cm^3
# Si number density = 20.422365 Si / 1000 Ang^3
#
#
#
# Elastic Constant Matrix: (Units=GPa)
#
#
# Indices 1 2 3 4 5 6 
#
# 1 47.4708 9.0835 21.0413 0.0000 19.4109 0.0000
# 2 9.0835 64.4813 26.2611 0.0000 4.6832 0.0000
# 3 21.0413 26.2611 119.0297 0.0000 17.5460 0.0000
# 4 0.0000 0.0000 0.0000 10.1486 0.0000 -6.1041
# 5 19.4109 4.6832 17.5460 0.0000 30.2353 0.0000
# 6 0.0000 0.0000 0.0000 -6.1041 0.0000 -3.1756
#
#
#
# Elastic Compliance Matrix: (Units=1/GPa)
#
#
# Indices 1 2 3 4 5 6 
#
# 1 0.029531 -0.001995 -0.002221 0.000000 -0.017361 0.000000
# 2 -0.001995 0.017181 -0.003537 0.000000 0.000672 0.000000
# 3 -0.002221 -0.003537 0.010152 0.000000 -0.003917 0.000000
# 4 0.000000 0.000000 0.000000 0.045700 0.000000 -0.087844
# 5 -0.017361 0.000672 -0.003917 0.000000 0.046389 0.000000
# 6 0.000000 0.000000 0.000000 -0.087844 0.000000 -0.146049
#
#
# Mechanical properties :
#
#
# Convention : Reuss Voigt Hill
#
# Bulk Modulus (GPa) = 24.17911 38.19486 31.18699
# Shear Modulus (GPa) = 155.30473 19.08140 87.19306
#
# Velocity S-wave (km/s) = 8.72992 3.06001 6.54122
# Velocity P-wave (km/s) = 10.65272 5.58820 8.50613
#
# Compressibility (1/GPa) = 0.04135801
#
# Stress axis : x y z
#
# Youngs Moduli (GPa) = 33.86324 58.20360 98.50552
#
# Poissons Ratio (x) = 0.11609 0.21879
# Poissons Ratio (y) = 0.06754 0.34842
# Poissons Ratio (z) = 0.07521 0.20587
#
# Static dielectric constant tensor:
#      x y z
#    x 1.790800 0.000000 -0.012770 
#    y 0.000000 1.820780 0.000000 
#    z -0.012770 0.000000 1.775500 
# 
# From -- ./inp_files/101417.got.cif
#   From: 2010.05.17/outbox.cif.g08.bks.cpg/sg15_51_cif.got.tgz:101417.got - 2010.06.03 18:47:42.
