data_PCOD9268432
_publ_section_title
;
Structure prediction by ZEFSAII (Michael W. Deem and Ramdas Pophale) SiO2 
 PCOD9268432
Probable space group: C 2/C
;
_chemical_formula_sum "Si O2"
_cell_formula_units_Z 52
_cell_length_a 16.308274
_cell_length_b 36.391223
_cell_length_c 5.278387
_cell_angle_alpha 90.000000
_cell_angle_beta 119.262551
_cell_angle_gamma 90.000000
_cell_volume 2732.851515
_symmetry_space_group_name_H-M "C 2/C"
_symmetry_group_IT_number 15
_symmetry_cell_setting 'monoclinic'
loop_
_space_group_symop_operation_xyz
x,y,z
-x,y,1/2-z
-x,-y,-z
x,-y,1/2+z
1/2+x,1/2+y,z
1/2-x,1/2+y,1/2-z
1/2-x,1/2-y,-z
1/2+x,1/2-y,1/2+z
loop_
_atom_site_type_symbol
_atom_site_label
_atom_site_fract_x
_atom_site_fract_y
_atom_site_fract_z
Si Si1 0.886107 0.220211 0.581404
Si Si2 0.612668 0.676717 0.415594
Si Si3 0.772005 0.372312 0.302635
Si Si4 0.361884 0.900358 0.915162
Si Si5 0.105256 0.698032 0.526640
Si Si6 0.105719 0.515395 0.122984
Si Si7 0.000000 0.341675 0.250000
O O1 0.856941 0.192830 0.311205
O O2 0.856821 0.261622 0.470218
O O3 0.000000 0.221102 0.750000
O O4 0.862983 0.205836 0.825393
O O5 0.500000 0.671984 0.250000
O O6 0.668060 0.639693 0.565015
O O7 0.785301 0.395139 0.578345
O O8 0.824239 0.333760 0.444564
O O9 0.823218 0.390622 0.136874
O O10 0.396503 0.941959 0.949053
O O11 0.446726 0.871338 0.991585
O O12 0.080519 0.686030 0.775912
O O13 0.000000 0.695399 0.250000
O O14 0.151610 0.507102 0.462980
O O15 0.000000 0.500000 0.000000
#
# Coordination Sequence:
#
# PCOD9268432 Si02
#       7
#     8   8   8   8   8   8   4
#     4   9  20  32  54  72  99 135 184 237 291 345
#     4  10  21  39  54  76  99 138 182 246 299 324
#     4  11  23  36  55  77 110 142 188 231 271 330
#     4  11  22  36  54  83 112 150 185 213 256 315
#     4  10  20  32  48  73 104 144 184 226 281 337
#     4  10  20  34  54  80 114 153 185 204 237 302
#     4  10  20  32  50  70 114 148 184 224 262 324
#
# _framework density 19.027743000000001
#
# number of rings (size 3 to 8) (size 9 to 14) (size 15 to 20)
#    0.000    1.846    1.538    2.769    5.385    4.923 
#    0.000    0.000    0.000    0.000    0.000    0.000 
#    0.000   12.308    0.000    0.000    0.000    0.000 
#
# Total GULP energy -144929.355413 kJ/mol
# GULP energy per Si atom -5574.205977 kJ/mol
# Density = 1.898444 g / cm^3
# Si number density = 19.027743 Si / 1000 Ang^3
#
#
#
# Elastic Constant Matrix: (Units=GPa)
#
#
# Indices 1 2 3 4 5 6 
#
# 1 32.4862 21.9109 25.5532 0.0000 7.2114 0.0000
# 2 21.9109 99.4537 39.2720 0.0000 4.6072 0.0000
# 3 25.5532 39.2720 103.3705 0.0000 -12.7239 0.0000
# 4 0.0000 0.0000 0.0000 20.8951 0.0000 -4.3527
# 5 7.2114 4.6072 -12.7239 0.0000 24.3633 0.0000
# 6 0.0000 0.0000 0.0000 -4.3527 0.0000 16.6583
#
#
#
# Elastic Compliance Matrix: (Units=1/GPa)
#
#
# Indices 1 2 3 4 5 6 
#
# 1 0.048338 -0.004745 -0.012608 0.000000 -0.019995 0.000000
# 2 -0.004745 0.012869 -0.004107 0.000000 -0.003174 0.000000
# 3 -0.012608 -0.004107 0.015930 0.000000 0.012828 0.000000
# 4 0.000000 0.000000 0.000000 0.050613 0.000000 0.013225
# 5 -0.019995 -0.003174 0.012828 0.000000 0.054264 0.000000
# 6 0.000000 0.000000 0.000000 0.013225 0.000000 0.063486
#
#
# Mechanical properties :
#
#
# Convention : Reuss Voigt Hill
#
# Bulk Modulus (GPa) = 29.22420 45.42028 37.32224
# Shear Modulus (GPa) = 16.67643 22.28830 19.48237
#
# Velocity S-wave (km/s) = 2.96366 3.42622 3.20330
# Velocity P-wave (km/s) = 5.20607 6.29082 5.77397
#
# Compressibility (1/GPa) = 0.03421821
#
# Stress axis : x y z
#
# Youngs Moduli (GPa) = 20.68754 77.70596 62.77493
#
# Poissons Ratio (x) = 0.36869 0.79146
# Poissons Ratio (y) = 0.09816 0.25781
# Poissons Ratio (z) = 0.26083 0.31914
#
# Static dielectric constant tensor:
#      x y z
#    x 1.722880 0.000000 -0.062820 
#    y 0.000000 1.645790 0.000000 
#    z -0.062820 0.000000 1.772450 
# 
# From -- ./inp_files/12080.got.cif
#   From: 2010.05.17/outbox.cif.g08.bks.cpg/sg15_7_cif.got.tgz:12080.got - 2010.06.03 18:47:42.
