data_PCOD9268264
_publ_section_title
;
Structure prediction by ZEFSAII (Michael W. Deem and Ramdas Pophale) SiO2 
 PCOD9268264
Probable space group: C 2/C
;
_chemical_formula_sum "Si O2"
_cell_formula_units_Z 56
_cell_length_a 14.430929
_cell_length_b 16.568190
_cell_length_c 17.933445
_cell_angle_alpha 90.000000
_cell_angle_beta 148.250117
_cell_angle_gamma 90.000000
_cell_volume 2256.285143
_symmetry_space_group_name_H-M "C 2/C"
_symmetry_group_IT_number 15
_symmetry_cell_setting 'monoclinic'
loop_
_space_group_symop_operation_xyz
x,y,z
-x,y,1/2-z
-x,-y,-z
x,-y,1/2+z
1/2+x,1/2+y,z
1/2-x,1/2+y,1/2-z
1/2-x,1/2-y,-z
1/2+x,1/2-y,1/2+z
loop_
_atom_site_type_symbol
_atom_site_label
_atom_site_fract_x
_atom_site_fract_y
_atom_site_fract_z
Si Si1 0.995321 0.890395 0.163103
Si Si2 0.313131 0.714267 0.117631
Si Si3 0.204206 0.674492 0.190725
Si Si4 0.404593 0.083109 0.911341
Si Si5 0.808756 0.644047 0.157971
Si Si6 0.433865 0.577326 0.100266
Si Si7 0.850052 0.545055 0.708950
O O1 0.000000 0.856264 0.250000
O O2 0.197918 0.901771 0.278855
O O3 0.931884 0.983722 0.120155
O O4 0.855072 0.848501 0.011394
O O5 0.500000 0.754449 0.250000
O O6 0.221338 0.733176 0.131782
O O7 0.342930 0.622383 0.108362
O O8 0.250000 0.750000 0.000000
O O9 0.213635 0.698037 0.283055
O O10 0.373864 0.616123 0.286967
O O11 0.012611 0.640138 0.040647
O O12 0.420832 0.085413 0.832743
O O13 0.500000 0.000000 0.000000
O O14 0.808675 0.551300 0.190993
O O15 0.000000 0.654969 0.250000
O O16 0.321165 0.583320 0.947099
O O17 0.000000 0.547188 0.750000
#
# Coordination Sequence:
#
# PCOD9268264 Si02
#       7
#     8   8   8   8   8   8   8
#     4  11  21  32  52  79 119 160 199 236 285 364
#     4  10  23  40  61  83 112 154 210 263 309 350
#     4  11  20  35  54  77 114 154 191 249 301 354
#     4  12  21  30  49  79 115 153 202 232 286 360
#     4  10  20  33  50  76 114 154 193 225 288 362
#     4  10  20  34  53  76 109 155 198 245 305 351
#     4  10  20  30  47  74 110 152 193 236 279 356
#
# _framework density 24.819557
#
# number of rings (size 3 to 8) (size 9 to 14) (size 15 to 20)
#    0.000    1.429    2.857    3.857    4.000    4.000 
#    0.000    0.000    0.000    0.000    0.000    4.000 
#    0.000    2.286    0.000    1.714    0.000    0.000 
#
# Total GULP energy -156248.980564 kJ/mol
# GULP energy per Si atom -5580.320734 kJ/mol
# Density = 2.476307 g / cm^3
# Si number density = 24.819557 Si / 1000 Ang^3
#
#
#
# Elastic Constant Matrix: (Units=GPa)
#
#
# Indices 1 2 3 4 5 6 
#
# 1 167.2269 5.2367 72.4028 0.0034 -28.6369 0.0006
# 2 5.2367 40.2083 13.4913 0.0110 -5.4563 0.0000
# 3 72.4028 13.4913 227.2643 0.0081 -25.3281 0.0009
# 4 0.0034 0.0110 0.0081 61.9632 0.0032 41.5349
# 5 -28.6369 -5.4563 -25.3281 0.0032 54.9229 -0.0001
# 6 0.0006 0.0000 0.0009 41.5349 -0.0001 68.2377
#
#
#
# Elastic Compliance Matrix: (Units=1/GPa)
#
#
# Indices 1 2 3 4 5 6 
#
# 1 0.007351 0.000117 -0.002025 0.000000 0.002911 0.000000
# 2 0.000117 0.025572 -0.001334 -0.000008 0.001986 0.000005
# 3 -0.002025 -0.001334 0.005262 -0.000001 0.001239 0.000000
# 4 0.000000 -0.000008 -0.000001 0.027261 -0.000003 -0.016593
# 5 0.002911 0.001986 0.001239 -0.000003 0.020494 0.000002
# 6 0.000000 0.000005 0.000000 -0.016593 0.000002 0.024755
#
#
# Mechanical properties :
#
#
# Convention : Reuss Voigt Hill
#
# Bulk Modulus (GPa) = 31.54288 68.55123 50.04705
# Shear Modulus (GPa) = 39.13996 59.92934 49.53465
#
# Velocity S-wave (km/s) = 3.97543 4.91919 4.47227
# Velocity P-wave (km/s) = 5.81451 7.74238 6.84664
#
# Compressibility (1/GPa) = 0.03170288
#
# Stress axis : x y z
#
# Youngs Moduli (GPa) = 136.03100 39.10470 190.02821
#
# Poissons Ratio (x) = -0.00457 0.38471
# Poissons Ratio (y) = -0.01590 0.25349
# Poissons Ratio (z) = 0.27540 0.05216
#
# Static dielectric constant tensor:
#      x y z
#    x 1.950640 0.000000 0.006600 
#    y 0.000000 1.450960 -0.000060 
#    z 0.006600 -0.000060 1.838270 
# 
# From -- ./inp_files/206983.got.cif
#   From: 2010.05.17/outbox.cif.g08.bks.cpg/sg15_104_cif.got.tgz:206983.got - 2010.06.03 18:47:42.
