data_PCOD9268240
_publ_section_title
;
Structure prediction by ZEFSAII (Michael W. Deem and Ramdas Pophale) SiO2 
 PCOD9268240
Probable space group: C 2/C
;
_chemical_formula_sum "Si O2"
_cell_formula_units_Z 48
_cell_length_a 20.988657
_cell_length_b 9.483506
_cell_length_c 9.195569
_cell_angle_alpha 90.000000
_cell_angle_beta 100.402923
_cell_angle_gamma 90.000000
_cell_volume 1800.255048
_symmetry_space_group_name_H-M "C 2/C"
_symmetry_group_IT_number 15
_symmetry_cell_setting 'monoclinic'
loop_
_space_group_symop_operation_xyz
x,y,z
-x,y,1/2-z
-x,-y,-z
x,-y,1/2+z
1/2+x,1/2+y,z
1/2-x,1/2+y,1/2-z
1/2-x,1/2-y,-z
1/2+x,1/2-y,1/2+z
loop_
_atom_site_type_symbol
_atom_site_label
_atom_site_fract_x
_atom_site_fract_y
_atom_site_fract_z
Si Si1 0.942518 0.237030 0.333826
Si Si2 0.176190 0.969515 0.964978
Si Si3 0.937804 0.348966 0.656287
Si Si4 0.403125 0.428727 0.322229
Si Si5 0.196166 0.761537 0.659585
Si Si6 0.201461 0.554896 0.402524
O O1 0.949275 0.311077 0.493032
O O2 0.865489 0.266085 0.262807
O O3 0.000000 0.275963 0.250000
O O4 0.948368 0.065611 0.353326
O O5 0.167615 0.126441 0.030492
O O6 0.247559 0.927372 0.054229
O O7 0.121791 0.884047 0.029220
O O8 0.158325 0.004092 0.793018
O O9 0.928286 0.203212 0.743066
O O10 0.874100 0.442855 0.651166
O O11 0.000000 0.419677 0.750000
O O12 0.208801 0.624684 0.567168
O O13 0.265676 0.839350 0.704500
#
# Coordination Sequence:
#
# PCOD9268240 Si02
#       6
#     8   8   8   8   8   8
#     4  10  20  29  41  68 104 131 152 186 234 290
#     4   9  17  27  51  66  94 124 163 198 231 277
#     4  11  21  31  48  72  97 135 160 192 233 288
#     4  11  17  30  43  74  96 131 156 188 236 286
#     4   7  12  28  46  59  79 126 165 187 220 258
#     4   8  13  32  47  63  85 129 175 192 219 276
#
# _framework density 26.662886
#
# number of rings (size 3 to 8) (size 9 to 14) (size 15 to 20)
#    1.000    1.667    5.000    0.500    2.333    1.333 
#    0.000    0.000    0.000    8.000    0.000    1.167 
#    0.000    1.333    0.000    0.000    0.000    0.000 
#
# Total GULP energy -133672.578865 kJ/mol
# GULP energy per Si atom -5569.690786 kJ/mol
# Density = 2.660220 g / cm^3
# Si number density = 26.662886 Si / 1000 Ang^3
#
#
#
# Elastic Constant Matrix: (Units=GPa)
#
#
# Indices 1 2 3 4 5 6 
#
# 1 210.6810 14.2297 57.1344 0.0000 -21.1455 0.0000
# 2 14.2297 82.9858 26.8054 0.0000 -14.2730 0.0000
# 3 57.1344 26.8054 97.2977 0.0000 -29.3480 0.0000
# 4 0.0000 0.0000 0.0000 -6.5936 0.0000 -0.3034
# 5 -21.1455 -14.2730 -29.3480 0.0000 57.2787 0.0000
# 6 0.0000 0.0000 0.0000 -0.3034 0.0000 4.9761
#
#
#
# Elastic Compliance Matrix: (Units=1/GPa)
#
#
# Indices 1 2 3 4 5 6 
#
# 1 0.005657 0.000152 -0.003220 0.000000 0.000476 0.000000
# 2 0.000152 0.013371 -0.003254 0.000000 0.001721 0.000000
# 3 -0.003220 -0.003254 0.014740 0.000000 0.005553 0.000000
# 4 0.000000 0.000000 0.000000 -0.151239 0.000000 -0.009221
# 5 0.000476 0.001721 0.005553 0.000000 0.020908 0.000000
# 6 0.000000 0.000000 0.000000 -0.009221 0.000000 0.200397
#
#
# Mechanical properties :
#
#
# Convention : Reuss Voigt Hill
#
# Bulk Modulus (GPa) = 47.33901 65.25596 56.29748
# Shear Modulus (GPa) = 40.47879 30.65191 35.56535
#
# Velocity S-wave (km/s) = 3.90060 3.39427 3.65621
# Velocity P-wave (km/s) = 6.17085 6.31577 6.24373
#
# Compressibility (1/GPa) = 0.02112423
#
# Stress axis : x y z
#
# Youngs Moduli (GPa) = 176.76083 74.78743 67.84230
#
# Poissons Ratio (x) = -0.01137 0.21847
# Poissons Ratio (y) = -0.02688 0.22076
# Poissons Ratio (z) = 0.56922 0.24336
#
# Static dielectric constant tensor:
#      x y z
#    x 2.230110 0.000000 0.012420 
#    y 0.000000 2.180080 0.000000 
#    z 0.012420 0.000000 2.148340 
# 
# From -- ./inp_files/55861.got.cif
#   From: 2010.05.17/outbox.cif.g08.bks.cpg/sg15_28_cif.got.tgz:55861.got - 2010.06.03 18:47:42.
