data_PCOD9268545
_publ_section_title
;
Structure prediction by ZEFSAII (Michael W. Deem and Ramdas Pophale) SiO2 
 PCOD9268545
Probable space group: C 2/C
;
_chemical_formula_sum "Si O2"
_cell_formula_units_Z 44
_cell_length_a 13.985050
_cell_length_b 14.976286
_cell_length_c 14.553698
_cell_angle_alpha 90.000000
_cell_angle_beta 42.043614
_cell_angle_gamma 90.000000
_cell_volume 2041.358480
_symmetry_space_group_name_H-M "C 2/C"
_symmetry_group_IT_number 15
_symmetry_cell_setting 'monoclinic'
loop_
_space_group_symop_operation_xyz
x,y,z
-x,y,1/2-z
-x,-y,-z
x,-y,1/2+z
1/2+x,1/2+y,z
1/2-x,1/2+y,1/2-z
1/2-x,1/2-y,-z
1/2+x,1/2-y,1/2+z
loop_
_atom_site_type_symbol
_atom_site_label
_atom_site_fract_x
_atom_site_fract_y
_atom_site_fract_z
Si Si1 0.109788 0.674230 0.872733
Si Si2 0.749864 0.351939 0.033494
Si Si3 0.733364 0.518511 0.817257
Si Si4 0.500000 0.839760 0.750000
Si Si5 0.160857 0.320302 0.811410
Si Si6 0.032742 0.008220 0.628732
O O1 0.195682 0.645263 0.903003
O O2 0.144853 0.593383 0.779539
O O3 0.194603 0.763202 0.781037
O O4 0.947746 0.685530 0.024853
O O5 0.607759 0.400577 0.107595
O O6 0.750000 0.250000 0.000000
O O7 0.876519 0.396738 0.884288
O O8 0.798007 0.421104 0.746629
O O9 0.608268 0.526620 0.829459
O O10 0.647320 0.530667 0.974354
O O11 0.570738 0.787359 0.785488
O O12 0.000000 0.960121 0.750000
#
# Coordination Sequence:
#
# PCOD9268545 Si02
#       6
#     8   8   8   4   8   8
#     4  11  24  37  67  92 138 165 213 267 336 393
#     4  11  20  33  56  93 129 159 198 257 334 394
#     4  11  24  41  61  93 136 171 218 264 326 396
#     4  10  20  32  54  84 134 156 198 254 324 386
#     4  11  24  39  60 101 128 175 210 270 327 400
#     4  11  23  38  61  92 126 171 217 263 323 386
#
# _framework density 21.554275000000001
#
# number of rings (size 3 to 8) (size 9 to 14) (size 15 to 20)
#    0.000    1.091    5.455    0.545   11.455    0.000 
#    0.000    0.000    0.000    1.091    2.364    0.000 
#    0.000    0.000    0.000    0.000    0.000    0.000 
#
# Total GULP energy -122612.997695 kJ/mol
# GULP energy per Si atom -5573.318077 kJ/mol
# Density = 2.150522 g / cm^3
# Si number density = 21.554275 Si / 1000 Ang^3
#
#
#
# Elastic Constant Matrix: (Units=GPa)
#
#
# Indices 1 2 3 4 5 6 
#
# 1 37.3407 -14.1217 13.7166 0.0000 -2.0195 0.0000
# 2 -14.1217 66.2462 48.8520 0.0000 -8.8099 0.0000
# 3 13.7166 48.8520 219.3188 0.0000 -0.0516 0.0000
# 4 0.0000 0.0000 0.0000 28.6599 0.0000 -5.9639
# 5 -2.0195 -8.8099 -0.0516 0.0000 33.7549 0.0000
# 6 0.0000 0.0000 0.0000 -5.9639 0.0000 20.7034
#
#
#
# Elastic Compliance Matrix: (Units=1/GPa)
#
#
# Indices 1 2 3 4 5 6 
#
# 1 0.032833 0.010952 -0.004492 0.000000 0.004816 0.000000
# 2 0.010952 0.022496 -0.005694 0.000000 0.006518 0.000000
# 3 -0.004492 -0.005694 0.006108 0.000000 -0.001746 0.000000
# 4 0.000000 0.000000 0.000000 0.037117 0.000000 0.010692
# 5 0.004816 0.006518 -0.001746 0.000000 0.031612 0.000000
# 6 0.000000 0.000000 0.000000 0.010692 0.000000 0.051381
#
#
# Mechanical properties :
#
#
# Convention : Reuss Voigt Hill
#
# Bulk Modulus (GPa) = 15.88097 46.64436 31.26267
# Shear Modulus (GPa) = 24.87504 34.92089 29.89796
#
# Velocity S-wave (km/s) = 3.40084 4.02946 3.72842
# Velocity P-wave (km/s) = 4.77544 6.58302 5.75069
#
# Compressibility (1/GPa) = 0.06296844
#
# Stress axis : x y z
#
# Youngs Moduli (GPa) = 30.45746 44.45302 163.70823
#
# Poissons Ratio (x) = -0.48684 0.73533
# Poissons Ratio (y) = -0.33356 0.93218
# Poissons Ratio (z) = 0.13681 0.25312
#
# Static dielectric constant tensor:
#      x y z
#    x 1.810370 0.000000 -0.006900 
#    y 0.000000 1.828470 0.000000 
#    z -0.006900 0.000000 1.937230 
# 
# From -- ./inp_files/154716.got.cif
#   From: 2010.05.17/outbox.cif.g08.bks.cpg/sg15_78_cif.got.tgz:154716.got - 2010.06.03 18:47:42.
