data_PCOD9268332
_publ_section_title
;
Structure prediction by ZEFSAII (Michael W. Deem and Ramdas Pophale) SiO2 
 PCOD9268332
Probable space group: C 2/C
;
_chemical_formula_sum "Si O2"
_cell_formula_units_Z 48
_cell_length_a 20.936790
_cell_length_b 19.311979
_cell_length_c 8.965195
_cell_angle_alpha 90.000000
_cell_angle_beta 29.315505
_cell_angle_gamma 90.000000
_cell_volume 1774.820239
_symmetry_space_group_name_H-M "C 2/C"
_symmetry_group_IT_number 15
_symmetry_cell_setting 'monoclinic'
loop_
_space_group_symop_operation_xyz
x,y,z
-x,y,1/2-z
-x,-y,-z
x,-y,1/2+z
1/2+x,1/2+y,z
1/2-x,1/2+y,1/2-z
1/2-x,1/2-y,-z
1/2+x,1/2-y,1/2+z
loop_
_atom_site_type_symbol
_atom_site_label
_atom_site_fract_x
_atom_site_fract_y
_atom_site_fract_z
Si Si1 0.273480 0.471402 0.544702
Si Si2 0.752384 0.233702 0.823405
Si Si3 0.853428 0.585837 0.484913
Si Si4 0.144484 0.912602 0.825215
Si Si5 0.601327 0.266912 0.871202
Si Si6 0.915466 0.659952 0.806220
O O1 0.171282 0.434160 0.639579
O O2 0.358554 0.425854 0.489154
O O3 0.362799 0.517523 0.253360
O O4 0.200697 0.524080 0.803283
O O5 0.627585 0.264608 0.993017
O O6 0.866630 0.278303 0.516489
O O7 0.750000 0.250000 0.000000
O O8 0.739799 0.153226 0.809835
O O9 0.000000 0.597806 0.250000
O O10 0.069475 0.846698 0.906049
O O11 0.295953 0.886941 0.498968
O O12 0.750000 0.250000 0.500000
O O13 0.527238 0.202200 0.950106
O O14 0.000000 0.616392 0.750000
#
# Coordination Sequence:
#
# PCOD9268332 Si02
#       6
#     8   8   8   8   8   8
#     4  10  20  31  48  74 104 139 166 188 242 316
#     4  10  20  33  51  76 101 132 176 220 254 288
#     4  11  21  33  49  75 109 136 162 200 247 305
#     4   9  18  32  48  72 102 132 166 202 241 300
#     4   8  16  32  50  68  96 133 171 209 253 302
#     4  10  20  35  54  73 101 140 174 209 256 305
#
# _framework density 27.044993000000002
#
# number of rings (size 3 to 8) (size 9 to 14) (size 15 to 20)
#    0.000    2.667    0.000    5.500    0.000    8.000 
#    0.000    0.000    0.000    0.000    0.000   18.667 
#    0.000    1.333    0.000    0.000    0.000    0.000 
#
# Total GULP energy -134036.726267 kJ/mol
# GULP energy per Si atom -5584.863594 kJ/mol
# Density = 2.698344 g / cm^3
# Si number density = 27.044993 Si / 1000 Ang^3
#
#
#
# Elastic Constant Matrix: (Units=GPa)
#
#
# Indices 1 2 3 4 5 6 
#
# 1 158.3798 30.3215 43.1632 -0.0001 23.7017 0.0001
# 2 30.3215 128.3581 21.3881 0.0000 14.3127 0.0000
# 3 43.1632 21.3881 69.2015 -0.0001 10.8490 0.0001
# 4 -0.0001 0.0000 -0.0001 46.9710 0.0001 17.7873
# 5 23.7017 14.3127 10.8490 0.0001 52.1992 -0.0001
# 6 0.0001 0.0000 0.0001 17.7873 -0.0001 38.9342
#
#
#
# Elastic Compliance Matrix: (Units=1/GPa)
#
#
# Indices 1 2 3 4 5 6 
#
# 1 0.008045 -0.000897 -0.004349 0.000000 -0.002503 0.000000
# 2 -0.000897 0.008477 -0.001819 0.000000 -0.001539 0.000000
# 3 -0.004349 -0.001819 0.017921 0.000000 -0.001251 0.000000
# 4 0.000000 0.000000 0.000000 0.025743 0.000000 -0.011761
# 5 -0.002503 -0.001539 -0.001251 0.000000 0.020976 0.000000
# 6 0.000000 0.000000 0.000000 -0.011761 0.000000 0.031057
#
#
# Mechanical properties :
#
#
# Convention : Reuss Voigt Hill
#
# Bulk Modulus (GPa) = 49.22571 60.63166 54.92868
# Shear Modulus (GPa) = 37.55946 45.02530 41.29238
#
# Velocity S-wave (km/s) = 3.73067 4.08466 3.91167
# Velocity P-wave (km/s) = 6.06615 6.68681 6.38402
#
# Compressibility (1/GPa) = 0.02031459
#
# Stress axis : x y z
#
# Youngs Moduli (GPa) = 124.29523 117.96157 55.79928
#
# Poissons Ratio (x) = 0.10579 0.24264
# Poissons Ratio (y) = 0.11147 0.10152
# Poissons Ratio (z) = 0.54050 0.21463
#
# Static dielectric constant tensor:
#      x y z
#    x 2.281980 0.000000 -0.068530 
#    y 0.000000 2.118720 0.000000 
#    z -0.068530 0.000000 2.407730 
# 
# From -- ./inp_files/57699.got.cif
#   From: 2010.05.17/outbox.cif.g08.bks.cpg/sg15_29_cif.got.tgz:57699.got - 2010.06.03 18:47:42.
