data_PCOD9268158
_publ_section_title
;
Structure prediction by ZEFSAII (Michael W. Deem and Ramdas Pophale) SiO2 
 PCOD9268158
Probable space group: C 2/C
;
_chemical_formula_sum "Si O2"
_cell_formula_units_Z 48
_cell_length_a 15.723305
_cell_length_b 25.114945
_cell_length_c 9.321732
_cell_angle_alpha 90.000000
_cell_angle_beta 36.002190
_cell_angle_gamma 90.000000
_cell_volume 2163.785546
_symmetry_space_group_name_H-M "C 2/C"
_symmetry_group_IT_number 15
_symmetry_cell_setting 'monoclinic'
loop_
_space_group_symop_operation_xyz
x,y,z
-x,y,1/2-z
-x,-y,-z
x,-y,1/2+z
1/2+x,1/2+y,z
1/2-x,1/2+y,1/2-z
1/2-x,1/2-y,-z
1/2+x,1/2-y,1/2+z
loop_
_atom_site_type_symbol
_atom_site_label
_atom_site_fract_x
_atom_site_fract_y
_atom_site_fract_z
Si Si1 0.992352 0.705498 0.069208
Si Si2 0.191846 0.805554 0.234070
Si Si3 0.770335 0.390725 0.906182
Si Si4 0.500000 0.174463 0.750000
Si Si5 0.277215 0.597755 0.358967
Si Si6 0.500000 0.342843 0.750000
Si Si7 0.111732 0.495651 0.214822
O O1 0.888239 0.755991 0.230880
O O2 0.906226 0.649545 0.198363
O O3 0.027553 0.708723 0.852962
O O4 0.138244 0.704045 0.962117
O O5 0.118624 0.813934 0.489108
O O6 0.178196 0.856277 0.145725
O O7 0.704871 0.407446 0.839348
O O8 0.825643 0.445799 0.897033
O O9 0.641030 0.137555 0.550443
O O10 0.413067 0.624036 0.249522
O O11 0.237751 0.547197 0.514852
O O12 0.000000 0.476976 0.250000
O O13 0.000000 0.500000 0.500000
#
# Coordination Sequence:
#
# PCOD9268158 Si02
#       7
#     8   8   8   4   8   4   8
#     4  11  24  44  73 107 143 188 245 300 366 425
#     4  12  27  46  73 105 146 195 244 302 361 433
#     4  11  26  46  74 106 148 184 242 302 362 425
#     4  10  19  42  74 102 146 178 245 300 350 428
#     4  11  24  47  71 111 143 191 235 298 359 434
#     4  12  29  46  74 104 154 192 237 296 374 426
#     4  12  22  42  81 113 139 185 245 293 350 429
#
# _framework density 22.183344000000002
#
# number of rings (size 3 to 8) (size 9 to 14) (size 15 to 20)
#    0.000    0.667    4.167    3.500    7.000    2.000 
#    0.000    3.333    0.000    0.000    0.000    0.000 
#    0.000    0.000    0.000    0.000    0.000    0.000 
#
# Total GULP energy -133873.719884 kJ/mol
# GULP energy per Si atom -5578.071662 kJ/mol
# Density = 2.213285 g / cm^3
# Si number density = 22.183344 Si / 1000 Ang^3
#
#
#
# Elastic Constant Matrix: (Units=GPa)
#
#
# Indices 1 2 3 4 5 6 
#
# 1 87.5891 17.9304 32.4087 0.0001 -5.0452 -0.0001
# 2 17.9304 110.2763 35.8471 0.0000 -10.7592 0.0000
# 3 32.4087 35.8471 97.0782 0.0001 16.3292 -0.0001
# 4 0.0001 0.0000 0.0001 20.6475 -0.0001 2.6882
# 5 -5.0452 -10.7592 16.3292 -0.0001 46.1291 0.0001
# 6 -0.0001 0.0000 -0.0001 2.6882 0.0001 30.7670
#
#
#
# Elastic Compliance Matrix: (Units=1/GPa)
#
#
# Indices 1 2 3 4 5 6 
#
# 1 0.013479 -0.000283 -0.004925 0.000000 0.003152 0.000000
# 2 -0.000283 0.011051 -0.004694 0.000000 0.004208 0.000000
# 3 -0.004925 -0.004694 0.014837 0.000000 -0.006886 0.000000
# 4 0.000000 0.000000 0.000000 0.048989 0.000000 -0.004280
# 5 0.003152 0.004208 -0.006886 0.000000 0.025442 0.000000
# 6 0.000000 0.000000 0.000000 -0.004280 0.000000 0.032876
#
#
# Mechanical properties :
#
#
# Convention : Reuss Voigt Hill
#
# Bulk Modulus (GPa) = 51.12074 51.92397 51.52236
# Shear Modulus (GPa) = 28.90191 33.42587 31.16389
#
# Velocity S-wave (km/s) = 3.61344 3.88596 3.75218
# Velocity P-wave (km/s) = 6.36427 6.60241 6.48443
#
# Compressibility (1/GPa) = 0.01956153
#
# Stress axis : x y z
#
# Youngs Moduli (GPa) = 74.19013 90.49342 67.40022
#
# Poissons Ratio (x) = 0.02561 0.33198
# Poissons Ratio (y) = 0.02100 0.31637
# Poissons Ratio (z) = 0.36542 0.42476
#
# Static dielectric constant tensor:
#      x y z
#    x 1.844400 0.000000 0.041490 
#    y 0.000000 1.860140 0.000000 
#    z 0.041490 0.000000 1.902000 
# 
# From -- ./inp_files/43877.got.cif
#   From: 2010.05.17/outbox.cif.g08.bks.cpg/sg15_22_cif.got.tgz:43877.got - 2010.06.03 18:47:42.
