data_PCOD9268366
_publ_section_title
;
Structure prediction by ZEFSAII (Michael W. Deem and Ramdas Pophale) SiO2 
 PCOD9268366
Probable space group: C 2/C
;
_chemical_formula_sum "Si O2"
_cell_formula_units_Z 28
_cell_length_a 12.284041
_cell_length_b 28.354205
_cell_length_c 14.022388
_cell_angle_alpha 90.000000
_cell_angle_beta 158.888661
_cell_angle_gamma 90.000000
_cell_volume 1759.146613
_symmetry_space_group_name_H-M "C 2/C"
_symmetry_group_IT_number 15
_symmetry_cell_setting 'monoclinic'
loop_
_space_group_symop_operation_xyz
x,y,z
-x,y,1/2-z
-x,-y,-z
x,-y,1/2+z
1/2+x,1/2+y,z
1/2-x,1/2+y,1/2-z
1/2-x,1/2-y,-z
1/2+x,1/2-y,1/2+z
loop_
_atom_site_type_symbol
_atom_site_label
_atom_site_fract_x
_atom_site_fract_y
_atom_site_fract_z
Si Si1 0.362503 0.425557 0.406887
Si Si2 0.000000 0.783238 0.750000
Si Si3 0.767175 0.124360 0.140246
Si Si4 0.841488 0.980846 0.018439
O O1 0.627382 0.395796 0.672896
O O2 0.458985 0.446227 0.383905
O O3 0.312558 0.470556 0.435018
O O4 0.064075 0.393683 0.156218
O O5 0.171757 0.819750 0.819383
O O6 0.750000 0.750000 0.500000
O O7 0.000000 0.104950 0.250000
O O8 0.000000 0.987761 0.250000
O O9 0.500000 0.962496 0.750000
#
# Coordination Sequence:
#
# PCOD9268366 Si02
#       4
#     8   4   8   8
#     4  11  20  34  49  73  99 141 184 199 258 293
#     4  10  20  34  52  80 108 130 156 210 266 318
#     4  10  20  31  54  72 103 137 159 208 245 333
#     4  11  22  33  49  70 105 138 180 228 233 283
#
# _framework density 15.91681
#
# number of rings (size 3 to 8) (size 9 to 14) (size 15 to 20)
#    0.857    0.571    0.000    8.571    0.000    4.571 
#    0.000    0.000    0.000    0.000    0.000    0.000 
#    0.000   80.000    0.000    0.000    0.000    0.000 
#
# Total GULP energy -78062.303355 kJ/mol
# GULP energy per Si atom -5575.878811 kJ/mol
# Density = 1.588058 g / cm^3
# Si number density = 15.916810 Si / 1000 Ang^3
#
#
#
# Elastic Constant Matrix: (Units=GPa)
#
#
# Indices 1 2 3 4 5 6 
#
# 1 85.1764 28.6936 28.4096 0.0004 -8.3321 0.0008
# 2 28.6936 89.9539 28.1165 -0.0016 -4.0434 0.0009
# 3 28.4096 28.1165 97.0803 -0.0276 -14.3882 0.0201
# 4 0.0004 -0.0016 -0.0276 29.6842 -0.0051 8.0433
# 5 -8.3321 -4.0434 -14.3882 -0.0051 25.9673 0.0069
# 6 0.0008 0.0009 0.0201 8.0433 0.0069 7.4447
#
#
#
# Elastic Compliance Matrix: (Units=1/GPa)
#
#
# Indices 1 2 3 4 5 6 
#
# 1 0.014081 -0.003526 -0.002736 -0.000005 0.002453 0.000009
# 2 -0.003526 0.013106 -0.002864 -0.000006 -0.000678 0.000013
# 3 -0.002736 -0.002864 0.012785 0.000033 0.005760 -0.000075
# 4 -0.000005 -0.000006 0.000033 0.047633 0.000039 -0.051463
# 5 0.002453 -0.000678 0.005760 0.000039 0.042383 -0.000097
# 6 0.000009 0.000013 -0.000075 -0.051463 -0.000097 0.189926
#
#
# Mechanical properties :
#
#
# Convention : Reuss Voigt Hill
#
# Bulk Modulus (GPa) = 46.04249 49.18335 47.61292
# Shear Modulus (GPa) = 14.47574 25.08530 19.78052
#
# Velocity S-wave (km/s) = 3.01900 3.97423 3.52908
# Velocity P-wave (km/s) = 6.41422 7.21295 6.82528
#
# Compressibility (1/GPa) = 0.02171907
#
# Stress axis : x y z
#
# Youngs Moduli (GPa) = 71.01960 76.29841 78.21862
#
# Poissons Ratio (x) = 0.26903 0.21399
# Poissons Ratio (y) = 0.25042 0.22406
# Poissons Ratio (z) = 0.19429 0.21856
#
# Static dielectric constant tensor:
#      x y z
#    x 1.544980 0.000000 -0.011550 
#    y 0.000000 1.538600 0.000000 
#    z -0.011550 0.000000 1.538960 
# 
# From -- ./inp_files/148465.got.cif
#   From: 2010.05.17/outbox.cif.g08.bks.cpg/sg15_75_cif.got.tgz:148465.got - 2010.06.03 18:47:42.
