data_PCOD9268996
_publ_section_title
;
Structure prediction by ZEFSAII (Michael W. Deem and Ramdas Pophale) SiO2 
 PCOD9268996
Probable space group: C 2/C
;
_chemical_formula_sum "Si O2"
_cell_formula_units_Z 48
_cell_length_a 8.106562
_cell_length_b 18.522634
_cell_length_c 15.712509
_cell_angle_alpha 90.000000
_cell_angle_beta 58.390356
_cell_angle_gamma 90.000000
_cell_volume 2009.279690
_symmetry_space_group_name_H-M "C 2/C"
_symmetry_group_IT_number 15
_symmetry_cell_setting 'monoclinic'
loop_
_space_group_symop_operation_xyz
x,y,z
-x,y,1/2-z
-x,-y,-z
x,-y,1/2+z
1/2+x,1/2+y,z
1/2-x,1/2+y,1/2-z
1/2-x,1/2-y,-z
1/2+x,1/2-y,1/2+z
loop_
_atom_site_type_symbol
_atom_site_label
_atom_site_fract_x
_atom_site_fract_y
_atom_site_fract_z
Si Si1 0.302417 0.494809 0.965678
Si Si2 0.191053 0.837647 0.500172
Si Si3 0.944410 0.428989 0.629206
Si Si4 0.804528 0.273372 0.637676
Si Si5 0.394304 0.157065 0.693900
Si Si6 0.651151 0.478043 0.273878
O O1 0.168736 0.464308 0.922585
O O2 0.496390 0.536783 0.888260
O O3 0.368004 0.419475 0.987594
O O4 0.159697 0.541957 0.060924
O O5 0.103988 0.788672 0.448280
O O6 0.160798 0.807890 0.604112
O O7 0.427741 0.836468 0.419765
O O8 0.925683 0.342613 0.633793
O O9 0.823605 0.465699 0.738020
O O10 0.707984 0.229298 0.741707
O O11 0.500000 0.126573 0.750000
O O12 0.239926 0.095902 0.712334
O O13 0.500000 0.514779 0.250000
#
# Coordination Sequence:
#
# PCOD9268996 Si02
#       6
#     8   8   8   8   8   8
#     4   9  17  30  54  80 105 143 190 233 290 342
#     4   9  17  33  55  80 115 147 185 249 295 327
#     4   9  17  32  52  80 110 139 187 245 280 331
#     4   9  19  30  54  83 107 149 192 237 285 343
#     4  10  20  36  55  81 115 151 188 243 297 344
#     4  10  20  33  59  83 108 150 196 237 287 357
#
# _framework density 23.889157999999998
#
# number of rings (size 3 to 8) (size 9 to 14) (size 15 to 20)
#    0.000    2.667    1.667    0.000    2.333   11.333 
#    0.000    4.167    0.000    1.000    0.000    0.000 
#    0.000    0.000    0.000    0.000    0.000    0.000 
#
# Total GULP energy -133630.107954 kJ/mol
# GULP energy per Si atom -5567.921165 kJ/mol
# Density = 2.383478 g / cm^3
# Si number density = 23.889158 Si / 1000 Ang^3
#
#
#
# Elastic Constant Matrix: (Units=GPa)
#
#
# Indices 1 2 3 4 5 6 
#
# 1 29.1437 -2.8397 7.5102 0.0000 2.1375 0.0000
# 2 -2.8397 111.8835 32.0116 0.0000 -15.7061 0.0000
# 3 7.5102 32.0116 94.4253 0.0000 -21.0389 0.0000
# 4 0.0000 0.0000 0.0000 39.4479 0.0000 3.8135
# 5 2.1375 -15.7061 -21.0389 0.0000 27.4463 0.0000
# 6 0.0000 0.0000 0.0000 3.8135 0.0000 6.1367
#
#
#
# Elastic Compliance Matrix: (Units=1/GPa)
#
#
# Indices 1 2 3 4 5 6 
#
# 1 0.036038 0.001456 -0.004582 0.000000 -0.005486 0.000000
# 2 0.001456 0.010284 -0.002793 0.000000 0.003630 0.000000
# 3 -0.004582 -0.002793 0.014020 0.000000 0.009505 0.000000
# 4 0.000000 0.000000 0.000000 0.026970 0.000000 -0.016760
# 5 -0.005486 0.003630 0.009505 0.000000 0.046226 0.000000
# 6 0.000000 0.000000 0.000000 -0.016760 0.000000 0.173370
#
#
# Mechanical properties :
#
#
# Convention : Reuss Voigt Hill
#
# Bulk Modulus (GPa) = 20.61796 34.31298 27.46547
# Shear Modulus (GPa) = 14.92925 27.85752 21.39338
#
# Velocity S-wave (km/s) = 2.50259 3.41855 2.99578
# Velocity P-wave (km/s) = 4.12311 5.47508 4.84647
#
# Compressibility (1/GPa) = 0.04850139
#
# Stress axis : x y z
#
# Youngs Moduli (GPa) = 27.74874 97.24210 71.32865
#
# Poissons Ratio (x) = -0.14154 0.32684
# Poissons Ratio (y) = -0.04039 0.19924
# Poissons Ratio (z) = 0.12715 0.27162
#
# Static dielectric constant tensor:
#      x y z
#    x 1.953910 0.000000 0.064710 
#    y 0.000000 1.924750 0.000000 
#    z 0.064710 0.000000 2.091360 
# 
# From -- ./inp_files/270168.got.cif
#   From: 2010.05.17/outbox.cif.g08.bks.cpg/sg15_136_cif.got.tgz:270168.got - 2010.06.03 18:47:42.
