data_PCOD9268429
_publ_section_title
;
Structure prediction by ZEFSAII (Michael W. Deem and Ramdas Pophale) SiO2 
 PCOD9268429
Probable space group: C 2/C
;
_chemical_formula_sum "Si O2"
_cell_formula_units_Z 60
_cell_length_a 15.184568
_cell_length_b 23.669718
_cell_length_c 21.130924
_cell_angle_alpha 90.000000
_cell_angle_beta 150.657520
_cell_angle_gamma 90.000000
_cell_volume 3721.651403
_symmetry_space_group_name_H-M "C 2/C"
_symmetry_group_IT_number 15
_symmetry_cell_setting 'monoclinic'
loop_
_space_group_symop_operation_xyz
x,y,z
-x,y,1/2-z
-x,-y,-z
x,-y,1/2+z
1/2+x,1/2+y,z
1/2-x,1/2+y,1/2-z
1/2-x,1/2-y,-z
1/2+x,1/2-y,1/2+z
loop_
_atom_site_type_symbol
_atom_site_label
_atom_site_fract_x
_atom_site_fract_y
_atom_site_fract_z
Si Si1 0.674738 0.086242 0.716747
Si Si2 0.554829 0.179429 0.859733
Si Si3 0.635429 0.543509 0.551520
Si Si4 0.364665 0.577574 0.276376
Si Si5 0.000000 0.522487 0.250000
Si Si6 0.489818 0.960497 0.881106
Si Si7 0.328444 0.541791 0.684062
Si Si8 0.527023 0.693095 0.341772
O O1 0.536460 0.135143 0.649186
O O2 0.815578 0.087233 0.862880
O O3 0.780540 0.078966 0.716579
O O4 0.567725 0.026645 0.654259
O O5 0.500000 0.169183 0.750000
O O6 0.492020 0.242413 0.840819
O O7 0.771094 0.178453 0.006703
O O8 0.500000 0.500000 0.500000
O O9 0.532305 0.565779 0.426827
O O10 0.820791 0.514834 0.645888
O O11 0.180329 0.572585 0.199113
O O12 0.356278 0.524099 0.222957
O O13 0.395601 0.641236 0.274395
O O14 0.024257 0.555794 0.330277
O O15 0.657120 0.954506 0.031492
O O16 0.500000 0.559169 0.750000
O O17 0.500000 0.697870 0.250000
#
# Coordination Sequence:
#
# PCOD9268429 Si02
#       8
#     8   8   8   8   4   8   8   8
#     4  10  21  33  53  73 108 143 175 225 263 323
#     4  10  22  40  53  82 110 144 189 220 273 324
#     4  11  19  33  49  77 106 140 184 214 266 330
#     4  11  20  34  52  77 109 143 177 223 269 323
#     4  10  20  32  48  72 104 144 168 222 256 324
#     4  10  22  32  50  79 107 140 182 213 276 327
#     4  11  22  33  50  80 109 141 178 218 271 330
#     4  10  23  35  57  80 109 143 185 226 264 327
#
# _framework density 16.121876
#
# number of rings (size 3 to 8) (size 9 to 14) (size 15 to 20)
#    0.000    1.600    4.000    3.600   13.067    0.000 
#    0.000    0.000    0.000    0.000    1.733    0.933 
#    0.000    0.000    0.000    0.000    0.000    0.000 
#
# Total GULP energy -167032.358472 kJ/mol
# GULP energy per Si atom -5567.745282 kJ/mol
# Density = 1.608518 g / cm^3
# Si number density = 16.121876 Si / 1000 Ang^3
#
#
#
# Elastic Constant Matrix: (Units=GPa)
#
#
# Indices 1 2 3 4 5 6 
#
# 1 90.3588 39.1112 23.7813 0.0014 11.2128 -0.0016
# 2 39.1112 95.6319 9.1237 0.0042 12.9863 0.0005
# 3 23.7813 9.1237 98.7098 0.0065 -1.8777 0.0011
# 4 0.0014 0.0042 0.0065 16.9529 0.0011 11.0320
# 5 11.2128 12.9863 -1.8777 0.0011 25.9062 -0.0014
# 6 -0.0016 0.0005 0.0011 11.0320 -0.0014 18.7352
#
#
#
# Elastic Compliance Matrix: (Units=1/GPa)
#
#
# Indices 1 2 3 4 5 6 
#
# 1 0.014604 -0.005136 -0.003119 0.000001 -0.003973 0.000001
# 2 -0.005136 0.013157 -0.000062 -0.000003 -0.004377 0.000001
# 3 -0.003119 -0.000062 0.010929 -0.000006 0.002173 0.000003
# 4 0.000001 -0.000003 -0.000006 0.095631 -0.000007 -0.056311
# 5 -0.003973 -0.004377 0.002173 -0.000007 0.042672 0.000007
# 6 0.000001 0.000001 0.000003 -0.056311 0.000007 0.086533
#
#
# Mechanical properties :
#
#
# Convention : Reuss Voigt Hill
#
# Bulk Modulus (GPa) = 45.33788 47.63697 46.48742
# Shear Modulus (GPa) = 17.39051 26.49782 21.94417
#
# Velocity S-wave (km/s) = 3.28791 4.05852 3.69337
# Velocity P-wave (km/s) = 6.52662 7.18153 6.86189
#
# Compressibility (1/GPa) = 0.02205661
#
# Stress axis : x y z
#
# Youngs Moduli (GPa) = 68.47534 76.00262 91.49724
#
# Poissons Ratio (x) = 0.39032 0.28540
# Poissons Ratio (y) = 0.35166 0.00569
# Poissons Ratio (z) = 0.21359 0.00472
#
# Static dielectric constant tensor:
#      x y z
#    x 1.577450 0.000000 -0.028270 
#    y 0.000000 1.598300 0.000000 
#    z -0.028270 0.000000 1.565260 
# 
# From -- ./inp_files/245589.got.cif
#   From: 2010.05.17/outbox.cif.g08.bks.cpg/sg15_123_cif.got.tgz:245589.got - 2010.06.03 18:47:42.
