data_PCOD9268895
_publ_section_title
;
Structure prediction by ZEFSAII (Michael W. Deem and Ramdas Pophale) SiO2 
 PCOD9268895
Probable space group: C 2/C
;
_chemical_formula_sum "Si O2"
_cell_formula_units_Z 44
_cell_length_a 12.063920
_cell_length_b 22.160688
_cell_length_c 18.613384
_cell_angle_alpha 90.000000
_cell_angle_beta 150.926278
_cell_angle_gamma 90.000000
_cell_volume 2418.103214
_symmetry_space_group_name_H-M "C 2/C"
_symmetry_group_IT_number 15
_symmetry_cell_setting 'monoclinic'
loop_
_space_group_symop_operation_xyz
x,y,z
-x,y,1/2-z
-x,-y,-z
x,-y,1/2+z
1/2+x,1/2+y,z
1/2-x,1/2+y,1/2-z
1/2-x,1/2-y,-z
1/2+x,1/2-y,1/2+z
loop_
_atom_site_type_symbol
_atom_site_label
_atom_site_fract_x
_atom_site_fract_y
_atom_site_fract_z
Si Si1 0.500000 0.547731 0.250000
Si Si2 0.755860 0.922700 0.863436
Si Si3 0.999497 0.570990 0.519750
Si Si4 0.747529 0.667530 0.926423
Si Si5 0.875303 0.977802 0.320105
Si Si6 0.266647 0.700845 0.415319
O O1 0.736033 0.584633 0.387067
O O2 0.488073 0.504311 0.312285
O O3 0.500000 0.922561 0.750000
O O4 0.831932 0.852815 0.898258
O O5 0.766819 0.965203 0.800451
O O6 0.931106 0.950632 0.019855
O O7 0.000000 0.500000 0.500000
O O8 0.097212 0.612662 0.512049
O O9 0.181462 0.570589 0.688183
O O10 0.500000 0.659025 0.750000
O O11 0.861545 0.731396 0.966547
O O12 0.711990 0.674743 0.991702
O O13 0.000000 0.711344 0.250000
#
# Coordination Sequence:
#
# PCOD9268895 Si02
#       6
#     4   8   8   8   8   8
#     4  10  22  34  50  82 108 154 188 222 280 334
#     4  10  20  33  55  82 114 143 185 235 294 333
#     4  10  22  32  56  78 114 147 184 236 271 336
#     4  10  20  36  55  87 111 143 189 235 296 331
#     4  10  21  34  52  82 112 154 182 236 277 342
#     4   9  20  32  56  83 112 145 176 244 288 336
#
# _framework density 18.196079999999998
#
# number of rings (size 3 to 8) (size 9 to 14) (size 15 to 20)
#    0.000    2.182    0.000    2.182   20.364    0.000 
#    0.000    0.000    0.000    1.091    9.455    0.000 
#    0.000    0.000    0.000    0.000    0.000    0.000 
#
# Total GULP energy -122609.479288 kJ/mol
# GULP energy per Si atom -5573.158149 kJ/mol
# Density = 1.815467 g / cm^3
# Si number density = 18.196080 Si / 1000 Ang^3
#
#
#
# Elastic Constant Matrix: (Units=GPa)
#
#
# Indices 1 2 3 4 5 6 
#
# 1 54.4574 30.9768 20.9448 0.0080 7.8116 0.0091
# 2 30.9768 115.0910 3.7428 0.0006 9.3312 0.0038
# 3 20.9448 3.7428 104.0064 0.0100 5.5101 0.0094
# 4 0.0080 0.0006 0.0100 20.7398 0.0044 1.1264
# 5 7.8116 9.3312 5.5101 0.0044 26.4493 0.0064
# 6 0.0091 0.0038 0.0094 1.1264 0.0064 39.8781
#
#
#
# Elastic Compliance Matrix: (Units=1/GPa)
#
#
# Indices 1 2 3 4 5 6 
#
# 1 0.024058 -0.006002 -0.004413 -0.000006 -0.004068 -0.000003
# 2 -0.006002 0.010444 0.000945 0.000002 -0.002109 0.000000
# 3 -0.004413 0.000945 0.010534 -0.000003 -0.001224 -0.000001
# 4 -0.000006 0.000002 -0.000003 0.048291 -0.000006 -0.001364
# 5 -0.004068 -0.002109 -0.001224 -0.000006 0.040009 -0.000005
# 6 -0.000003 0.000000 -0.000001 -0.001364 -0.000005 0.025115
#
#
# Mechanical properties :
#
#
# Convention : Reuss Voigt Hill
#
# Bulk Modulus (GPa) = 38.32053 42.76484 40.54269
# Shear Modulus (GPa) = 26.86858 31.93945 29.40401
#
# Velocity S-wave (km/s) = 3.84684 4.19417 4.02425
# Velocity P-wave (km/s) = 6.39034 6.85624 6.62738
#
# Compressibility (1/GPa) = 0.02609567
#
# Stress axis : x y z
#
# Youngs Moduli (GPa) = 41.56628 95.74470 94.92700
#
# Poissons Ratio (x) = 0.57464 0.41894
# Poissons Ratio (y) = 0.24947 -0.08966
# Poissons Ratio (z) = 0.18344 -0.09043
#
# Static dielectric constant tensor:
#      x y z
#    x 1.626410 0.000000 -0.021810 
#    y 0.000000 1.698810 0.000000 
#    z -0.021810 0.000000 1.706850 
# 
# From -- ./inp_files/200838.got.cif
#   From: 2010.05.17/outbox.cif.g08.bks.cpg/sg15_101_cif.got.tgz:200838.got - 2010.06.03 18:47:42.
