data_PCOD9268686
_publ_section_title
;
Structure prediction by ZEFSAII (Michael W. Deem and Ramdas Pophale) SiO2 
 PCOD9268686
Probable space group: C 2/C
;
_chemical_formula_sum "Si O2"
_cell_formula_units_Z 32
_cell_length_a 16.854878
_cell_length_b 23.637871
_cell_length_c 15.950125
_cell_angle_alpha 90.000000
_cell_angle_beta 162.507039
_cell_angle_gamma 90.000000
_cell_volume 1910.163802
_symmetry_space_group_name_H-M "C 2/C"
_symmetry_group_IT_number 15
_symmetry_cell_setting 'monoclinic'
loop_
_space_group_symop_operation_xyz
x,y,z
-x,y,1/2-z
-x,-y,-z
x,-y,1/2+z
1/2+x,1/2+y,z
1/2-x,1/2+y,1/2-z
1/2-x,1/2-y,-z
1/2+x,1/2-y,1/2+z
loop_
_atom_site_type_symbol
_atom_site_label
_atom_site_fract_x
_atom_site_fract_y
_atom_site_fract_z
Si Si1 0.029708 0.712258 0.683409
Si Si2 0.395571 0.440767 0.356628
Si Si3 0.378199 0.102261 0.429971
Si Si4 0.256859 0.509842 0.064282
O O1 0.000000 0.692033 0.750000
O O2 0.822978 0.763860 0.466369
O O3 0.954722 0.662431 0.545292
O O4 0.500000 0.500000 0.500000
O O5 0.626072 0.397437 0.614134
O O6 0.340452 0.455860 0.204716
O O7 0.126178 0.423568 0.130444
O O8 0.309966 0.060518 0.438682
O O9 0.500000 0.526140 0.250000
O O10 0.000000 0.498346 0.750000
#
# Coordination Sequence:
#
# PCOD9268686 Si02
#       4
#     8   8   8   8
#     4  10  21  34  49  72 100 129 167 208 236 273
#     4  10  20  33  48  71 100 131 166 202 238 290
#     4  11  20  34  51  69 101 139 166 194 245 290
#     4  11  20  31  49  73 101 131 165 198 238 294
#
# _framework density 16.752490000000002
#
# number of rings (size 3 to 8) (size 9 to 14) (size 15 to 20)
#    0.000    1.500    0.000    9.750    0.000    3.000 
#    0.000    0.000    0.000    0.000    0.000    0.000 
#    0.000   70.000    0.000    0.000    0.000    0.000 
#
# Total GULP energy -89331.083928 kJ/mol
# GULP energy per Si atom -5583.192746 kJ/mol
# Density = 1.671436 g / cm^3
# Si number density = 16.752490 Si / 1000 Ang^3
#
#
#
# Elastic Constant Matrix: (Units=GPa)
#
#
# Indices 1 2 3 4 5 6 
#
# 1 47.2872 8.4058 29.4920 -0.0051 4.0311 0.0031
# 2 8.4058 24.7639 -5.9889 0.0006 -6.5517 0.0001
# 3 29.4920 -5.9889 108.8310 0.0054 -2.6317 -0.0003
# 4 -0.0051 0.0006 0.0054 5.7651 -0.0015 5.7742
# 5 4.0311 -6.5517 -2.6317 -0.0015 44.1925 0.0021
# 6 0.0031 0.0001 -0.0003 5.7742 0.0021 -0.7763
#
#
#
# Elastic Compliance Matrix: (Units=1/GPa)
#
#
# Indices 1 2 3 4 5 6 
#
# 1 0.029541 -0.013559 -0.008878 -0.000009 -0.005233 0.000043
# 2 -0.013559 0.048925 0.006581 0.000001 0.008882 -0.000021
# 3 -0.008878 0.006581 0.012017 0.000002 0.002501 -0.000021
# 4 -0.000009 0.000001 0.000002 0.020528 -0.000006 0.152689
# 5 -0.005233 0.008882 0.002501 -0.000006 0.024571 0.000004
# 6 0.000043 -0.000021 -0.000021 0.152689 0.000004 -0.152450
#
#
# Mechanical properties :
#
#
# Convention : Reuss Voigt Hill
#
# Bulk Modulus (GPa) = 17.01480 27.18888 22.10184
# Shear Modulus (GPa) = 145.20402 19.76781 82.48592
#
# Velocity S-wave (km/s) = 9.32010 3.43883 7.02459
# Velocity P-wave (km/s) = 11.22487 5.65972 8.88904
#
# Compressibility (1/GPa) = 0.05877236
#
# Stress axis : x y z
#
# Youngs Moduli (GPa) = 33.85161 20.43933 83.21530
#
# Poissons Ratio (x) = 0.27713 0.73878
# Poissons Ratio (y) = 0.45899 -0.54767
# Poissons Ratio (z) = 0.30053 -0.13452
#
# Static dielectric constant tensor:
#      x y z
#    x 1.568800 0.000000 -0.014270 
#    y 0.000000 1.553900 0.000000 
#    z -0.014270 0.000000 1.594870 
# 
# From -- ./inp_files/6739.got.cif
#   From: 2010.05.17/outbox.cif.g08.bks.cpg/sg15_4_cif.got.tgz:6739.got - 2010.06.03 18:47:42.
