data_PCOD9268384
_publ_section_title
;
Structure prediction by ZEFSAII (Michael W. Deem and Ramdas Pophale) SiO2 
 PCOD9268384
Probable space group: C 2/C
;
_chemical_formula_sum "Si O2"
_cell_formula_units_Z 40
_cell_length_a 14.229372
_cell_length_b 11.253192
_cell_length_c 18.783452
_cell_angle_alpha 90.000000
_cell_angle_beta 28.706780
_cell_angle_gamma 90.000000
_cell_volume 1444.688225
_symmetry_space_group_name_H-M "C 2/C"
_symmetry_group_IT_number 15
_symmetry_cell_setting 'monoclinic'
loop_
_space_group_symop_operation_xyz
x,y,z
-x,y,1/2-z
-x,-y,-z
x,-y,1/2+z
1/2+x,1/2+y,z
1/2-x,1/2+y,1/2-z
1/2-x,1/2-y,-z
1/2+x,1/2-y,1/2+z
loop_
_atom_site_type_symbol
_atom_site_label
_atom_site_fract_x
_atom_site_fract_y
_atom_site_fract_z
Si Si1 0.786979 0.843632 0.382770
Si Si2 0.884049 0.041133 0.201659
Si Si3 0.104932 0.729873 0.401920
Si Si4 0.300524 0.004993 0.419346
Si Si5 0.001441 0.706048 0.634962
O O1 0.612582 0.754163 0.482052
O O2 0.000000 0.789931 0.250000
O O3 0.811507 0.940485 0.303376
O O4 0.737949 0.914854 0.486288
O O5 0.692641 0.113235 0.301520
O O6 0.970805 0.160103 0.183864
O O7 0.083381 0.005177 0.028366
O O8 0.078599 0.705545 0.503233
O O9 0.270113 0.830764 0.283543
O O10 0.500000 0.044838 0.250000
O O11 0.370344 0.875167 0.400948
#
# Coordination Sequence:
#
# PCOD9268384 Si02
#       5
#     8   8   8   8   8
#     4  10  21  40  60  76 111 155 188 221 272 338
#     4   9  20  33  57  82 112 147 178 222 281 333
#     4  10  21  37  56  86 108 149 188 221 283 325
#     4  11  20  33  54  88 114 142 179 230 281 323
#     4  10  20  31  56  82 118 137 177 232 270 337
#
# _framework density 27.687636999999999
#
# number of rings (size 3 to 8) (size 9 to 14) (size 15 to 20)
#    1.200    0.800    2.000    2.400    0.000    2.400 
#    0.000    6.000    0.000    0.000    0.000    0.000 
#    0.000    0.000    0.000    0.000    0.000    0.000 
#
# Total GULP energy -111707.790012 kJ/mol
# GULP energy per Si atom -5585.389501 kJ/mol
# Density = 2.762462 g / cm^3
# Si number density = 27.687637 Si / 1000 Ang^3
#
#
#
# Elastic Constant Matrix: (Units=GPa)
#
#
# Indices 1 2 3 4 5 6 
#
# 1 67.9857 0.3923 48.8245 -0.0003 -22.4529 0.0008
# 2 0.3923 102.2294 6.2463 -0.0085 0.7750 0.0017
# 3 48.8245 6.2463 258.5218 -0.0075 -27.9855 0.0022
# 4 -0.0003 -0.0085 -0.0075 21.8837 0.0020 2.5236
# 5 -22.4529 0.7750 -27.9855 0.0020 56.6241 -0.0004
# 6 0.0008 0.0017 0.0022 2.5236 -0.0004 11.2775
#
#
#
# Elastic Compliance Matrix: (Units=1/GPa)
#
#
# Indices 1 2 3 4 5 6 
#
# 1 0.018774 0.000059 -0.002896 -0.000001 0.006012 0.000000
# 2 0.000059 0.009800 -0.000275 0.000004 -0.000246 -0.000002
# 3 -0.002896 -0.000275 0.004541 0.000001 0.001100 -0.000001
# 4 -0.000001 0.000004 0.000001 0.046906 -0.000002 -0.010496
# 5 0.006012 -0.000246 0.001100 -0.000002 0.020591 0.000001
# 6 0.000000 -0.000002 -0.000001 -0.010496 0.000001 0.091021
#
#
# Mechanical properties :
#
#
# Convention : Reuss Voigt Hill
#
# Bulk Modulus (GPa) = 37.18565 59.96257 48.57411
# Shear Modulus (GPa) = 24.17553 42.84200 33.50876
#
# Velocity S-wave (km/s) = 2.95812 3.93788 3.48263
# Velocity P-wave (km/s) = 5.01267 6.50997 5.80976
#
# Compressibility (1/GPa) = 0.02689210
#
# Stress axis : x y z
#
# Youngs Moduli (GPa) = 53.26454 102.03725 220.22536
#
# Poissons Ratio (x) = -0.00605 0.63784
# Poissons Ratio (y) = -0.00316 0.06049
# Poissons Ratio (z) = 0.15427 0.02803
#
# Static dielectric constant tensor:
#      x y z
#    x 2.204450 0.000000 -0.112010 
#    y 0.000000 2.289900 0.000000 
#    z -0.112010 0.000000 2.306410 
# 
# From -- ./inp_files/301020.got.cif
#   From: 2010.05.17/outbox.cif.g08.bks.cpg/sg15_151_cif.got.tgz:301020.got - 2010.06.03 18:47:42.
