data_PCOD9268362
_publ_section_title
;
Structure prediction by ZEFSAII (Michael W. Deem and Ramdas Pophale) SiO2 
 PCOD9268362
Probable space group: C 2/C
;
_chemical_formula_sum "Si O2"
_cell_formula_units_Z 48
_cell_length_a 15.573507
_cell_length_b 18.699488
_cell_length_c 10.211698
_cell_angle_alpha 90.000000
_cell_angle_beta 113.969501
_cell_angle_gamma 90.000000
_cell_volume 2717.359614
_symmetry_space_group_name_H-M "C 2/C"
_symmetry_group_IT_number 15
_symmetry_cell_setting 'monoclinic'
loop_
_space_group_symop_operation_xyz
x,y,z
-x,y,1/2-z
-x,-y,-z
x,-y,1/2+z
1/2+x,1/2+y,z
1/2-x,1/2+y,1/2-z
1/2-x,1/2-y,-z
1/2+x,1/2-y,1/2+z
loop_
_atom_site_type_symbol
_atom_site_label
_atom_site_fract_x
_atom_site_fract_y
_atom_site_fract_z
Si Si1 0.290315 0.447710 0.431395
Si Si2 0.916576 0.556331 0.616101
Si Si3 0.152961 0.646852 0.174935
Si Si4 0.836217 0.783963 0.471576
Si Si5 0.000000 0.420988 0.750000
Si Si6 0.655708 0.566596 0.235107
Si Si7 0.500000 0.662774 0.250000
O O1 0.177432 0.456665 0.356846
O O2 0.311970 0.364778 0.416543
O O3 0.341081 0.501502 0.364251
O O4 0.320557 0.459320 0.601787
O O5 0.886046 0.602865 0.474792
O O6 0.000000 0.593048 0.750000
O O7 0.959557 0.477355 0.617569
O O8 0.259775 0.619900 0.254494
O O9 0.085557 0.625029 0.250595
O O10 0.147681 0.729899 0.136739
O O11 0.750000 0.750000 0.500000
O O12 0.926039 0.791158 0.621870
O O13 0.560160 0.611341 0.191082
#
# Coordination Sequence:
#
# PCOD9268362 Si02
#       7
#     8   8   8   8   4   8   4
#     4  10  20  37  59  86 116 154 192 252 279 344
#     4   9  18  30  55  83 107 144 195 236 283 338
#     4  11  20  36  54  83 119 150 185 242 292 354
#     4  11  21  37  58  85 118 150 197 241 290 344
#     4  10  20  31  53  82 116 146 184 234 298 337
#     4  10  20  38  60  84 116 150 201 239 288 340
#     4  10  22  37  63  86 110 158 198 244 286 345
#
# _framework density 17.664206
#
# number of rings (size 3 to 8) (size 9 to 14) (size 15 to 20)
#    0.500    1.333    6.667    0.500    1.167    2.667 
#    0.000    2.500    0.000    2.000    0.000    0.000 
#    0.000    0.000    0.000    0.000    0.000    0.000 
#
# Total GULP energy -133735.745412 kJ/mol
# GULP energy per Si atom -5572.322725 kJ/mol
# Density = 1.762400 g / cm^3
# Si number density = 17.664206 Si / 1000 Ang^3
#
#
#
# Elastic Constant Matrix: (Units=GPa)
#
#
# Indices 1 2 3 4 5 6 
#
# 1 109.1063 37.9557 27.4338 0.0000 8.1272 0.0000
# 2 37.9557 100.7254 29.2627 0.0000 -6.9883 0.0000
# 3 27.4338 29.2627 33.8224 0.0000 3.2368 0.0000
# 4 0.0000 0.0000 0.0000 26.6460 0.0000 -3.9202
# 5 8.1272 -6.9883 3.2368 0.0000 31.4750 0.0000
# 6 0.0000 0.0000 0.0000 -3.9202 0.0000 30.1582
#
#
#
# Elastic Compliance Matrix: (Units=1/GPa)
#
#
# Indices 1 2 3 4 5 6 
#
# 1 0.012141 -0.002677 -0.007246 0.000000 -0.002984 0.000000
# 2 -0.002677 0.014415 -0.010779 0.000000 0.005000 0.000000
# 3 -0.007246 -0.010779 0.045265 0.000000 -0.005177 0.000000
# 4 0.000000 0.000000 0.000000 0.038261 0.000000 0.004973
# 5 -0.002984 0.005000 -0.005177 0.000000 0.034184 0.000000
# 6 0.000000 0.000000 0.000000 0.004973 0.000000 0.033805
#
#
# Mechanical properties :
#
#
# Convention : Reuss Voigt Hill
#
# Bulk Modulus (GPa) = 32.87639 48.10651 40.49145
# Shear Modulus (GPa) = 21.77567 27.58930 24.68248
#
# Velocity S-wave (km/s) = 3.51487 3.95635 3.74212
# Velocity P-wave (km/s) = 5.92661 6.93997 6.45321
#
# Compressibility (1/GPa) = 0.03041697
#
# Stress axis : x y z
#
# Youngs Moduli (GPa) = 82.36671 69.37147 22.09214
#
# Poissons Ratio (x) = 0.18570 0.16008
# Poissons Ratio (y) = 0.22048 0.23813
# Poissons Ratio (z) = 0.59683 0.74776
#
# Static dielectric constant tensor:
#      x y z
#    x 1.624140 0.000000 0.007220 
#    y 0.000000 1.604000 0.000000 
#    z 0.007220 0.000000 1.614020 
# 
# From -- ./inp_files/97901.got.cif
#   From: 2010.05.17/outbox.cif.g08.bks.cpg/sg15_49_cif.got.tgz:97901.got - 2010.06.03 18:47:42.
