data_PCOD9268733
_publ_section_title
;
Structure prediction by ZEFSAII (Michael W. Deem and Ramdas Pophale) SiO2 
 PCOD9268733
Probable space group: C 2/C
;
_chemical_formula_sum "Si O2"
_cell_formula_units_Z 48
_cell_length_a 5.057617
_cell_length_b 23.734258
_cell_length_c 23.310630
_cell_angle_alpha 90.000000
_cell_angle_beta 73.157250
_cell_angle_gamma 90.000000
_cell_volume 2678.147840
_symmetry_space_group_name_H-M "C 2/C"
_symmetry_group_IT_number 15
_symmetry_cell_setting 'monoclinic'
loop_
_space_group_symop_operation_xyz
x,y,z
-x,y,1/2-z
-x,-y,-z
x,-y,1/2+z
1/2+x,1/2+y,z
1/2-x,1/2+y,1/2-z
1/2-x,1/2-y,-z
1/2+x,1/2-y,1/2+z
loop_
_atom_site_type_symbol
_atom_site_label
_atom_site_fract_x
_atom_site_fract_y
_atom_site_fract_z
Si Si1 0.931641 0.409316 0.820212
Si Si2 0.808058 0.062564 0.954291
Si Si3 0.390823 0.747946 0.581059
Si Si4 0.060636 0.313466 0.455505
Si Si5 0.647382 0.999521 0.081372
Si Si6 0.430323 0.333426 0.820238
O O1 0.844662 0.462743 0.862649
O O2 0.699555 0.360354 0.832886
O O3 0.000000 0.423733 0.750000
O O4 0.204606 0.383025 0.831032
O O5 0.683471 0.124521 0.955106
O O6 0.650259 0.024303 0.917373
O O7 0.133486 0.051446 0.928189
O O8 0.733380 0.038958 0.022168
O O9 0.684765 0.724586 0.583175
O O10 0.465651 0.789296 0.523279
O O11 0.210126 0.782363 0.637535
O O12 0.203656 0.697119 0.567938
O O13 0.500000 0.318122 0.750000
#
# Coordination Sequence:
#
# PCOD9268733 Si02
#       6
#     8   8   8   8   8   8
#     4  10  20  34  54  78 103 132 167 211 259 305
#     4  10  20  33  51  75 102 133 167 206 252 301
#     4  10  20  33  52  75 101 133 166 207 254 300
#     4  10  20  33  51  75 102 133 167 206 252 301
#     4  10  20  33  52  75 101 133 166 207 254 300
#     4  10  20  34  54  78 103 132 167 211 259 305
#
# _framework density 17.922834999999999
#
# number of rings (size 3 to 8) (size 9 to 14) (size 15 to 20)
#    0.000    2.000    0.000    4.000    0.000    5.333 
#    0.000    0.000    0.000    6.000    0.000    0.000 
#    0.000    0.000    0.000    0.000    0.000    0.000 
#
# Total GULP energy -133913.026504 kJ/mol
# GULP energy per Si atom -5579.709438 kJ/mol
# Density = 1.788204 g / cm^3
# Si number density = 17.922835 Si / 1000 Ang^3
#
#
#
# Elastic Constant Matrix: (Units=GPa)
#
#
# Indices 1 2 3 4 5 6 
#
# 1 64.5876 0.2472 23.4019 0.0000 -11.0806 0.0000
# 2 0.2472 80.4599 42.5268 0.0000 -2.7669 0.0000
# 3 23.4019 42.5268 48.8379 0.0000 -12.2791 0.0000
# 4 0.0000 0.0000 0.0000 19.2568 0.0000 -8.9410
# 5 -11.0806 -2.7669 -12.2791 0.0000 17.6766 0.0000
# 6 0.0000 0.0000 0.0000 -8.9410 0.0000 22.9899
#
#
#
# Elastic Compliance Matrix: (Units=1/GPa)
#
#
# Indices 1 2 3 4 5 6 
#
# 1 0.022797 0.010085 -0.019041 0.000000 0.002642 0.000000
# 2 0.010085 0.030022 -0.034172 0.000000 -0.012717 0.000000
# 3 -0.019041 -0.034172 0.066651 0.000000 0.029014 0.000000
# 4 0.000000 0.000000 0.000000 0.063373 0.000000 0.024647
# 5 0.002642 -0.012717 0.029014 0.000000 0.076393 0.000000
# 6 0.000000 0.000000 0.000000 0.024647 0.000000 0.053083
#
#
# Mechanical properties :
#
#
# Convention : Reuss Voigt Hill
#
# Bulk Modulus (GPa) = 30.10856 36.24858 33.17857
# Shear Modulus (GPa) = 12.20571 20.49861 16.35216
#
# Velocity S-wave (km/s) = 2.61246 3.38555 3.02381
# Velocity P-wave (km/s) = 5.09268 5.96249 5.54467
#
# Compressibility (1/GPa) = 0.03321314
#
# Stress axis : x y z
#
# Youngs Moduli (GPa) = 43.86633 33.30936 15.00361
#
# Poissons Ratio (x) = -0.33592 0.28568
# Poissons Ratio (y) = -0.44238 0.51270
# Poissons Ratio (z) = 0.83526 1.13824
#
# Static dielectric constant tensor:
#      x y z
#    x 1.613540 0.000000 -0.006970 
#    y 0.000000 1.599720 0.000000 
#    z -0.006970 0.000000 1.593540 
# 
# From -- ./inp_files/260725.got.cif
#   From: 2010.05.17/outbox.cif.g08.bks.cpg/sg15_131_cif.got.tgz:260725.got - 2010.06.03 18:47:42.
