data_PCOD9268660
_publ_section_title
;
Structure prediction by ZEFSAII (Michael W. Deem and Ramdas Pophale) SiO2 
 PCOD9268660
Probable space group: C 2/C
;
_chemical_formula_sum "Si O2"
_cell_formula_units_Z 40
_cell_length_a 7.381850
_cell_length_b 20.006953
_cell_length_c 14.227616
_cell_angle_alpha 90.000000
_cell_angle_beta 47.248631
_cell_angle_gamma 90.000000
_cell_volume 1542.963141
_symmetry_space_group_name_H-M "C 2/C"
_symmetry_group_IT_number 15
_symmetry_cell_setting 'monoclinic'
loop_
_space_group_symop_operation_xyz
x,y,z
-x,y,1/2-z
-x,-y,-z
x,-y,1/2+z
1/2+x,1/2+y,z
1/2-x,1/2+y,1/2-z
1/2-x,1/2-y,-z
1/2+x,1/2-y,1/2+z
loop_
_atom_site_type_symbol
_atom_site_label
_atom_site_fract_x
_atom_site_fract_y
_atom_site_fract_z
Si Si1 0.286687 0.639835 0.618059
Si Si2 0.538769 0.258903 0.934129
Si Si3 0.801809 0.015299 0.740473
Si Si4 0.726735 0.372809 0.743168
Si Si5 0.519711 0.113828 0.534543
O O1 0.473271 0.702058 0.553955
O O2 0.366607 0.574982 0.647218
O O3 0.261911 0.620781 0.516183
O O4 0.000000 0.654946 0.750000
O O5 0.711804 0.307934 0.813369
O O6 0.631526 0.183008 0.897912
O O7 0.250000 0.250000 0.000000
O O8 0.591073 0.048334 0.879259
O O9 0.000000 0.001062 0.750000
O O10 0.764181 0.943784 0.706166
O O11 0.500000 0.362151 0.750000
O O12 0.938610 0.384649 0.590654
#
# Coordination Sequence:
#
# PCOD9268660 Si02
#       5
#     8   8   8   8   8
#     4   9  19  35  60  89 114 147 200 248 291 337
#     4  10  20  32  62  96 113 144 199 265 295 330
#     4  10  23  39  56  83 126 165 189 231 299 366
#     4  11  20  35  58  91 121 151 193 244 307 346
#     4  10  21  37  65  88 116 149 202 252 294 338
#
# _framework density 25.924144999999999
#
# number of rings (size 3 to 8) (size 9 to 14) (size 15 to 20)
#    0.000    2.000    4.000    0.600    8.400    0.800 
#    0.000    1.000    0.000    0.000    0.000    0.000 
#    0.000    0.000    0.000    0.000    0.000    0.000 
#
# Total GULP energy -111407.691531 kJ/mol
# GULP energy per Si atom -5570.384577 kJ/mol
# Density = 2.586514 g / cm^3
# Si number density = 25.924145 Si / 1000 Ang^3
#
#
#
# Elastic Constant Matrix: (Units=GPa)
#
#
# Indices 1 2 3 4 5 6 
#
# 1 36.3025 -4.6586 -11.3565 0.0000 3.9652 0.0000
# 2 -4.6586 188.3826 58.1030 0.0000 2.5482 0.0000
# 3 -11.3565 58.1030 102.5860 -0.0001 15.7388 0.0000
# 4 0.0000 0.0000 -0.0001 -100.8573 0.0000 93.5675
# 5 3.9652 2.5482 15.7388 0.0000 22.6732 0.0000
# 6 0.0000 0.0000 0.0000 93.5675 0.0000 -29.4716
#
#
#
# Elastic Compliance Matrix: (Units=1/GPa)
#
#
# Indices 1 2 3 4 5 6 
#
# 1 0.029981 -0.000697 0.005043 0.000000 -0.008666 0.000000
# 2 -0.000697 0.006532 -0.004122 0.000000 0.002249 0.000000
# 3 0.005043 -0.004122 0.014219 0.000000 -0.010289 0.000000
# 4 0.000000 0.000000 0.000000 0.005097 0.000000 0.016181
# 5 -0.008666 0.002249 -0.010289 0.000000 0.052510 0.000000
# 6 0.000000 0.000000 0.000000 0.016181 0.000000 0.017442
#
#
# Mechanical properties :
#
#
# Convention : Reuss Voigt Hill
#
# Bulk Modulus (GPa) = 19.53838 45.71635 32.62737
# Shear Modulus (GPa) = 35.11424 -2.51895 16.29764
#
# Velocity S-wave (km/s) = 3.68434 -0.98680 2.51004
# Velocity P-wave (km/s) = 5.06481 4.04655 4.58404
#
# Compressibility (1/GPa) = 0.05118130
#
# Stress axis : x y z
#
# Youngs Moduli (GPa) = 33.35443 153.09308 70.32713
#
# Poissons Ratio (x) = 0.10668 -0.35467
# Poissons Ratio (y) = 0.02324 0.28987
# Poissons Ratio (z) = -0.16821 0.63101
#
# Static dielectric constant tensor:
#      x y z
#    x 2.372050 0.000000 -0.278380 
#    y 0.000000 2.199300 0.000000 
#    z -0.278380 0.000000 2.417770 
# 
# From -- ./inp_files/135764.got.cif
#   From: 2010.05.17/outbox.cif.g08.bks.cpg/sg15_68_cif.got.tgz:135764.got - 2010.06.03 18:47:42.
