data_PCOD9268275
_publ_section_title
;
Structure prediction by ZEFSAII (Michael W. Deem and Ramdas Pophale) SiO2 
 PCOD9268275
Probable space group: C 2/C
;
_chemical_formula_sum "Si O2"
_cell_formula_units_Z 40
_cell_length_a 16.311383
_cell_length_b 22.748194
_cell_length_c 5.000071
_cell_angle_alpha 90.000000
_cell_angle_beta 85.129330
_cell_angle_gamma 90.000000
_cell_volume 1848.599183
_symmetry_space_group_name_H-M "C 2/C"
_symmetry_group_IT_number 15
_symmetry_cell_setting 'monoclinic'
loop_
_space_group_symop_operation_xyz
x,y,z
-x,y,1/2-z
-x,-y,-z
x,-y,1/2+z
1/2+x,1/2+y,z
1/2-x,1/2+y,1/2-z
1/2-x,1/2-y,-z
1/2+x,1/2-y,1/2+z
loop_
_atom_site_type_symbol
_atom_site_label
_atom_site_fract_x
_atom_site_fract_y
_atom_site_fract_z
Si Si1 0.120711 0.850094 0.374749
Si Si2 0.900923 0.224124 0.137675
Si Si3 0.592818 0.475578 0.622616
Si Si4 0.583158 0.841478 0.631873
Si Si5 0.810800 0.327675 0.362252
O O1 0.075578 0.805511 0.590041
O O2 0.217664 0.847320 0.407608
O O3 0.091780 0.914404 0.466890
O O4 0.108033 0.826539 0.079741
O O5 0.817471 0.261097 0.239999
O O6 0.946844 0.279734 0.995225
O O7 0.500000 0.488802 0.750000
O O8 0.633667 0.521404 0.404201
O O9 0.500000 0.872837 0.750000
O O10 0.638924 0.865530 0.373909
O O11 0.641091 0.829825 0.870954
#
# Coordination Sequence:
#
# PCOD9268275 Si02
#       5
#     8   8   8   8   8
#     4  12  20  33  56  77 100 137 182 214 274 317
#     4  10  20  30  50  75 109 138 170 215 251 317
#     4  10  23  42  57  74 104 138 177 234 279 304
#     4  10  20  32  46  68 113 147 169 201 245 300
#     4  10  20  32  49  75 109 140 175 213 256 310
#
# _framework density 21.638007000000002
#
# number of rings (size 3 to 8) (size 9 to 14) (size 15 to 20)
#    1.200    0.400    2.000    4.200    0.000    1.600 
#    0.000    0.000    0.000    0.000    0.000    0.000 
#    0.000   16.000    0.000    0.000    0.000    0.000 
#
# Total GULP energy -111413.627369 kJ/mol
# GULP energy per Si atom -5570.681368 kJ/mol
# Density = 2.158876 g / cm^3
# Si number density = 21.638007 Si / 1000 Ang^3
#
#
#
# Elastic Constant Matrix: (Units=GPa)
#
#
# Indices 1 2 3 4 5 6 
#
# 1 79.6604 -0.7405 31.1102 0.0000 -1.5781 0.0000
# 2 -0.7405 41.0870 12.2098 0.0000 -1.3834 0.0000
# 3 31.1102 12.2098 155.3994 0.0000 15.3912 0.0000
# 4 0.0000 0.0000 0.0000 21.1682 0.0000 -10.8828
# 5 -1.5781 -1.3834 15.3912 0.0000 39.8290 0.0000
# 6 0.0000 0.0000 0.0000 -10.8828 0.0000 13.1318
#
#
#
# Elastic Compliance Matrix: (Units=1/GPa)
#
#
# Indices 1 2 3 4 5 6 
#
# 1 0.013782 0.001207 -0.003028 0.000000 0.001758 0.000000
# 2 0.001207 0.025136 -0.002400 0.000000 0.001848 0.000000
# 3 -0.003028 -0.002400 0.007538 0.000000 -0.003116 0.000000
# 4 0.000000 0.000000 0.000000 0.082310 0.000000 0.068213
# 5 0.001758 0.001848 -0.003116 0.000000 0.026445 0.000000
# 6 0.000000 0.000000 0.000000 0.068213 0.000000 0.132681
#
#
# Mechanical properties :
#
#
# Convention : Reuss Voigt Hill
#
# Bulk Modulus (GPa) = 26.30514 40.14509 33.22512
# Shear Modulus (GPa) = 16.18099 30.39698 23.28899
#
# Velocity S-wave (km/s) = 2.73757 3.75213 3.28426
# Velocity P-wave (km/s) = 4.70911 6.11266 5.45620
#
# Compressibility (1/GPa) = 0.03801538
#
# Stress axis : x y z
#
# Youngs Moduli (GPa) = 72.55888 39.78406 132.65350
#
# Poissons Ratio (x) = -0.04804 0.40168
# Poissons Ratio (y) = -0.08761 0.31833
# Poissons Ratio (z) = 0.21971 0.09547
#
# Static dielectric constant tensor:
#      x y z
#    x 1.941070 0.000000 0.022490 
#    y 0.000000 1.805640 0.000000 
#    z 0.022490 0.000000 1.914960 
# 
# From -- ./inp_files/10134.got.cif
#   From: 2010.05.17/outbox.cif.g08.bks.cpg/sg15_6_cif.got.tgz:10134.got - 2010.06.03 18:47:42.
