data_PCOD9268578
_publ_section_title
;
Structure prediction by ZEFSAII (Michael W. Deem and Ramdas Pophale) SiO2 
 PCOD9268578
Probable space group: C 2/C
;
_chemical_formula_sum "Si O2"
_cell_formula_units_Z 56
_cell_length_a 7.860915
_cell_length_b 19.582483
_cell_length_c 15.283067
_cell_angle_alpha 90.000000
_cell_angle_beta 64.143970
_cell_angle_gamma 90.000000
_cell_volume 2117.103628
_symmetry_space_group_name_H-M "C 2/C"
_symmetry_group_IT_number 15
_symmetry_cell_setting 'monoclinic'
loop_
_space_group_symop_operation_xyz
x,y,z
-x,y,1/2-z
-x,-y,-z
x,-y,1/2+z
1/2+x,1/2+y,z
1/2-x,1/2+y,1/2-z
1/2-x,1/2-y,-z
1/2+x,1/2-y,1/2+z
loop_
_atom_site_type_symbol
_atom_site_label
_atom_site_fract_x
_atom_site_fract_y
_atom_site_fract_z
Si Si1 0.027107 0.175146 0.952144
Si Si2 0.806990 0.960529 0.131427
Si Si3 0.214990 0.233104 0.186405
Si Si4 0.900188 0.396970 0.633909
Si Si5 0.089678 0.548534 0.866322
Si Si6 0.802332 0.110449 0.132466
Si Si7 0.815873 0.820518 0.335618
O O1 0.040273 0.096959 0.917831
O O2 0.235182 0.203989 0.888793
O O3 0.890250 0.209672 0.910649
O O4 0.940239 0.168974 0.066953
O O5 0.633704 0.951821 0.102416
O O6 0.699010 0.953994 0.248424
O O7 0.893738 0.035631 0.108273
O O8 0.325031 0.172541 0.110510
O O9 0.273992 0.264171 0.269580
O O10 0.000000 0.215649 0.250000
O O11 0.865583 0.472806 0.604483
O O12 0.784092 0.387280 0.751498
O O13 0.119087 0.391147 0.610697
O O14 0.160767 0.620764 0.888009
O O15 0.000000 0.855812 0.250000
#
# Coordination Sequence:
#
# PCOD9268578 Si02
#       7
#     8   8   8   8   8   8   8
#     4  11  21  34  61  93 118 147 195 247 289 347
#     4   9  16  32  58  85 117 148 188 228 287 348
#     4  11  23  40  59  83 117 157 197 246 298 348
#     4   9  21  39  61  80 116 159 201 232 290 356
#     4   9  16  34  58  84 113 157 188 230 289 352
#     4   9  20  37  61  88 115 155 194 237 293 355
#     4  10  20  32  56  88 116 145 193 243 289 344
#
# _framework density 26.451232999999998
#
# number of rings (size 3 to 8) (size 9 to 14) (size 15 to 20)
#    0.000    2.286    2.857    3.000    6.000    1.143 
#    0.000    3.571    3.143    0.000    0.000    0.000 
#    0.000    0.000    0.000    0.000    0.000    0.000 
#
# Total GULP energy -156326.746357 kJ/mol
# GULP energy per Si atom -5583.098084 kJ/mol
# Density = 2.639103 g / cm^3
# Si number density = 26.451233 Si / 1000 Ang^3
#
#
#
# Elastic Constant Matrix: (Units=GPa)
#
#
# Indices 1 2 3 4 5 6 
#
# 1 61.3694 13.9292 -2.7949 0.0000 0.7274 0.0000
# 2 13.9292 95.6467 6.5593 0.0000 -0.5035 0.0000
# 3 -2.7949 6.5593 95.5596 0.0000 9.1608 0.0000
# 4 0.0000 0.0000 0.0000 35.9533 0.0000 -17.3707
# 5 0.7274 -0.5035 9.1608 0.0000 13.5677 0.0000
# 6 0.0000 0.0000 0.0000 -17.3707 0.0000 32.6901
#
#
#
# Elastic Compliance Matrix: (Units=1/GPa)
#
#
# Indices 1 2 3 4 5 6 
#
# 1 0.016924 -0.002529 0.000817 0.000000 -0.001553 0.000000
# 2 -0.002529 0.010894 -0.000934 0.000000 0.001170 0.000000
# 3 0.000817 -0.000934 0.011291 0.000000 -0.007702 0.000000
# 4 0.000000 0.000000 0.000000 0.037421 0.000000 0.019885
# 5 -0.001553 0.001170 -0.007702 0.000000 0.079032 0.000000
# 6 0.000000 0.000000 0.000000 0.019885 0.000000 0.041156
#
#
# Mechanical properties :
#
#
# Convention : Reuss Voigt Hill
#
# Bulk Modulus (GPa) = 29.56977 31.99586 30.78281
# Shear Modulus (GPa) = 23.44314 32.10103 27.77209
#
# Velocity S-wave (km/s) = 2.98027 3.48745 3.24379
# Velocity P-wave (km/s) = 4.80062 5.32342 5.06876
#
# Compressibility (1/GPa) = 0.03381832
#
# Stress axis : x y z
#
# Youngs Moduli (GPa) = 59.08626 91.79656 88.56569
#
# Poissons Ratio (x) = 0.23215 -0.07240
# Poissons Ratio (y) = 0.14943 0.08271
# Poissons Ratio (z) = -0.04830 0.08573
#
# Static dielectric constant tensor:
#      x y z
#    x 2.069720 0.000000 0.085940 
#    y 0.000000 2.160060 0.000000 
#    z 0.085940 0.000000 2.117080 
# 
# From -- ./inp_files/192037.got.cif
#   From: 2010.05.17/outbox.cif.g08.bks.cpg/sg15_97_cif.got.tgz:192037.got - 2010.06.03 18:47:42.
