data_PCOD9268303
_publ_section_title
;
Structure prediction by ZEFSAII (Michael W. Deem and Ramdas Pophale) SiO2 
 PCOD9268303
Probable space group: C 2/C
;
_chemical_formula_sum "Si O2"
_cell_formula_units_Z 44
_cell_length_a 14.073623
_cell_length_b 17.102528
_cell_length_c 24.964835
_cell_angle_alpha 90.000000
_cell_angle_beta 160.764631
_cell_angle_gamma 90.000000
_cell_volume 1979.629175
_symmetry_space_group_name_H-M "C 2/C"
_symmetry_group_IT_number 15
_symmetry_cell_setting 'monoclinic'
loop_
_space_group_symop_operation_xyz
x,y,z
-x,y,1/2-z
-x,-y,-z
x,-y,1/2+z
1/2+x,1/2+y,z
1/2-x,1/2+y,1/2-z
1/2-x,1/2-y,-z
1/2+x,1/2-y,1/2+z
loop_
_atom_site_type_symbol
_atom_site_label
_atom_site_fract_x
_atom_site_fract_y
_atom_site_fract_z
Si Si1 0.770712 0.367818 0.749449
Si Si2 0.794929 0.173838 0.061256
Si Si3 0.000000 0.505667 0.250000
Si Si4 0.663658 0.360972 0.506720
Si Si5 0.360410 0.950174 0.288674
Si Si6 0.653990 0.293543 0.064312
O O1 0.633080 0.339807 0.731675
O O2 0.831138 0.459729 0.788064
O O3 0.527618 0.348707 0.574178
O O4 0.065205 0.331203 0.883076
O O5 0.637221 0.096330 0.956560
O O6 0.750000 0.250000 0.000000
O O7 0.658699 0.205656 0.043101
O O8 0.784283 0.564892 0.105220
O O9 0.864789 0.455493 0.225898
O O10 0.409859 0.398502 0.336828
O O11 0.511709 0.303878 0.468046
O O12 0.000000 0.310007 0.250000
#
# Coordination Sequence:
#
# PCOD9268303 Si02
#       6
#     8   8   4   8   8   8
#     4  10  20  38  57  91 121 148 199 246 294 351
#     4  10  23  39  55  85 128 162 193 232 301 367
#     4  10  20  30  58  92 124 146 190 236 300 362
#     4  11  19  32  56  89 119 150 191 239 294 358
#     4  11  21  34  59  88 121 161 188 240 299 359
#     4  11  22  38  58  83 121 165 194 235 295 361
#
# _framework density 22.226383999999999
#
# number of rings (size 3 to 8) (size 9 to 14) (size 15 to 20)
#    0.000    1.455    3.636    4.909    6.364    0.000 
#    0.000   10.000    0.000    1.091    0.000    0.000 
#    0.000    4.364    0.000    0.000    0.000    0.000 
#
# Total GULP energy -122705.601820 kJ/mol
# GULP energy per Si atom -5577.527355 kJ/mol
# Density = 2.217580 g / cm^3
# Si number density = 22.226384 Si / 1000 Ang^3
#
#
#
# Elastic Constant Matrix: (Units=GPa)
#
#
# Indices 1 2 3 4 5 6 
#
# 1 83.2856 48.2718 46.8210 -0.0085 38.9849 0.0021
# 2 48.2718 94.7102 25.3818 0.0712 14.5940 -0.0946
# 3 46.8210 25.3818 108.7045 0.2152 35.8187 -0.1764
# 4 -0.0085 0.0712 0.2152 53.4914 -0.0057 -1.5035
# 5 38.9849 14.5940 35.8187 -0.0057 42.8346 -0.0387
# 6 0.0021 -0.0946 -0.1764 -1.5035 -0.0387 50.2707
#
#
#
# Elastic Compliance Matrix: (Units=1/GPa)
#
#
# Indices 1 2 3 4 5 6 
#
# 1 0.030223 -0.011259 -0.003574 0.000031 -0.020682 -0.000050
# 2 -0.011259 0.015619 -0.000580 -0.000019 0.005411 0.000031
# 3 -0.003574 -0.000580 0.013441 -0.000054 -0.007789 0.000039
# 4 0.000031 -0.000019 -0.000054 0.018711 0.000026 0.000559
# 5 -0.020682 0.005411 -0.007789 0.000026 0.046838 0.000021
# 6 -0.000050 0.000031 0.000039 0.000559 0.000021 0.019909
#
#
# Mechanical properties :
#
#
# Convention : Reuss Voigt Hill
#
# Bulk Modulus (GPa) = 35.14248 58.62772 46.88510
# Shear Modulus (GPa) = 27.01933 40.40105 33.71019
#
# Velocity S-wave (km/s) = 3.49039 4.26808 3.89868
# Velocity P-wave (km/s) = 5.66474 7.12204 6.43478
#
# Compressibility (1/GPa) = 0.02845559
#
# Stress axis : x y z
#
# Youngs Moduli (GPa) = 33.08758 64.02503 74.40097
#
# Poissons Ratio (x) = 0.72088 0.26590
# Poissons Ratio (y) = 0.37254 0.04317
# Poissons Ratio (z) = 0.11825 0.03715
#
# Static dielectric constant tensor:
#      x y z
#    x 1.928750 -0.000020 0.011910 
#    y -0.000020 1.867070 -0.000060 
#    z 0.011910 -0.000060 1.937270 
# 
# From -- ./inp_files/296863.got.cif
#   From: 2010.05.17/outbox.cif.g08.bks.cpg/sg15_149_cif.got.tgz:296863.got - 2010.06.03 18:47:42.
