data_PCOD9268541
_publ_section_title
;
Structure prediction by ZEFSAII (Michael W. Deem and Ramdas Pophale) SiO2 
 PCOD9268541
Probable space group: C 2/C
;
_chemical_formula_sum "Si O2"
_cell_formula_units_Z 60
_cell_length_a 26.224652
_cell_length_b 5.645550
_cell_length_c 17.814951
_cell_angle_alpha 90.000000
_cell_angle_beta 95.426304
_cell_angle_gamma 90.000000
_cell_volume 2625.729763
_symmetry_space_group_name_H-M "C 2/C"
_symmetry_group_IT_number 15
_symmetry_cell_setting 'monoclinic'
loop_
_space_group_symop_operation_xyz
x,y,z
-x,y,1/2-z
-x,-y,-z
x,-y,1/2+z
1/2+x,1/2+y,z
1/2-x,1/2+y,1/2-z
1/2-x,1/2-y,-z
1/2+x,1/2-y,1/2+z
loop_
_atom_site_type_symbol
_atom_site_label
_atom_site_fract_x
_atom_site_fract_y
_atom_site_fract_z
Si Si1 0.421641 0.811674 0.516777
Si Si2 0.062686 0.693726 0.853792
Si Si3 0.388099 0.809272 0.911464
Si Si4 0.500000 0.093227 0.250000
Si Si5 0.683092 0.891368 0.739249
Si Si6 0.151254 0.925062 0.950422
Si Si7 0.012894 0.929387 0.106825
Si Si8 0.703778 0.607048 0.317135
O O1 0.368663 0.670055 0.518035
O O2 0.473401 0.665407 0.538144
O O3 0.423372 0.989060 0.586901
O O4 0.421789 0.968708 0.442810
O O5 0.107779 0.876617 0.879168
O O6 0.049313 0.571795 0.773682
O O7 0.010480 0.822917 0.870786
O O8 0.357644 0.867127 0.832955
O O9 0.428134 0.593631 0.907695
O O10 0.352851 0.747784 0.978750
O O11 0.508129 0.257976 0.179040
O O12 0.680197 0.645542 0.786042
O O13 0.738934 0.892355 0.707750
O O14 0.679676 0.141442 0.784191
O O15 0.201435 0.903234 0.907421
#
# Coordination Sequence:
#
# PCOD9268541 Si02
#       8
#     8   8   8   4   8   8   8   8
#     4   9  21  39  57  88 126 174 217 274 341 399
#     4   9  20  36  55  85 123 174 222 271 333 402
#     4  11  24  38  66  98 131 175 230 283 337 415
#     4  10  20  32  54  82 122 170 218 278 328 394
#     4  10  25  46  72 104 135 179 230 284 356 416
#     4  10  23  39  66  93 132 176 225 274 348 411
#     4  10  21  37  56  88 132 172 226 279 337 398
#     4  10  24  48  72  99 141 179 222 290 355 421
#
# _framework density 22.850788000000001
#
# number of rings (size 3 to 8) (size 9 to 14) (size 15 to 20)
#    0.000    2.133    0.000    0.800    7.467   10.667 
#    0.000    0.667    0.000    0.000    0.000    0.000 
#    0.000    0.000    0.000    0.000    0.000    0.000 
#
# Total GULP energy -167437.354767 kJ/mol
# GULP energy per Si atom -5581.245159 kJ/mol
# Density = 2.279878 g / cm^3
# Si number density = 22.850788 Si / 1000 Ang^3
#
#
#
# Elastic Constant Matrix: (Units=GPa)
#
#
# Indices 1 2 3 4 5 6 
#
# 1 23.2897 14.2000 24.2925 0.0000 -7.7834 0.0000
# 2 14.2000 102.9612 18.6483 0.0000 -6.1579 0.0000
# 3 24.2925 18.6483 67.4863 0.0000 -9.1211 0.0000
# 4 0.0000 0.0000 0.0000 26.7167 0.0000 -5.6249
# 5 -7.7834 -6.1579 -9.1211 0.0000 44.3851 0.0000
# 6 0.0000 0.0000 0.0000 -5.6249 0.0000 17.8889
#
#
#
# Elastic Compliance Matrix: (Units=1/GPa)
#
#
# Indices 1 2 3 4 5 6 
#
# 1 0.073758 -0.005377 -0.024086 0.000000 0.007239 0.000000
# 2 -0.005377 0.010648 -0.000961 0.000000 0.000337 0.000000
# 3 -0.024086 -0.000961 0.023826 0.000000 0.000539 0.000000
# 4 0.000000 0.000000 0.000000 0.040083 0.000000 0.012604
# 5 0.007239 0.000337 0.000539 0.000000 0.023957 0.000000
# 6 0.000000 0.000000 0.000000 0.012604 0.000000 0.059863
#
#
# Mechanical properties :
#
#
# Convention : Reuss Voigt Hill
#
# Bulk Modulus (GPa) = 21.10417 34.22431 27.66424
# Shear Modulus (GPa) = 16.19278 26.90459 21.54868
#
# Velocity S-wave (km/s) = 2.66490 3.43505 3.07419
# Velocity P-wave (km/s) = 4.32719 5.54460 4.97329
#
# Compressibility (1/GPa) = 0.04738401
#
# Stress axis : x y z
#
# Youngs Moduli (GPa) = 13.55785 93.91220 41.97037
#
# Poissons Ratio (x) = 0.50497 1.01089
# Poissons Ratio (y) = 0.07290 0.04035
# Poissons Ratio (z) = 0.32655 0.09028
#
# Static dielectric constant tensor:
#      x y z
#    x 1.921100 0.000000 -0.049170 
#    y 0.000000 1.909260 0.000000 
#    z -0.049170 0.000000 1.840940 
# 
# From -- ./inp_files/221264.got.cif
#   From: 2010.05.17/outbox.cif.g08.bks.cpg/sg15_111_cif.got.tgz:221264.got - 2010.06.03 18:47:42.
