data_PCOD9268414
_publ_section_title
;
Structure prediction by ZEFSAII (Michael W. Deem and Ramdas Pophale) SiO2 
 PCOD9268414
Probable space group: C 2/C
;
_chemical_formula_sum "Si O2"
_cell_formula_units_Z 56
_cell_length_a 22.047907
_cell_length_b 24.557698
_cell_length_c 16.662798
_cell_angle_alpha 90.000000
_cell_angle_beta 20.633768
_cell_angle_gamma 90.000000
_cell_volume 3179.292992
_symmetry_space_group_name_H-M "C 2/C"
_symmetry_group_IT_number 15
_symmetry_cell_setting 'monoclinic'
loop_
_space_group_symop_operation_xyz
x,y,z
-x,y,1/2-z
-x,-y,-z
x,-y,1/2+z
1/2+x,1/2+y,z
1/2-x,1/2+y,1/2-z
1/2-x,1/2-y,-z
1/2+x,1/2-y,1/2+z
loop_
_atom_site_type_symbol
_atom_site_label
_atom_site_fract_x
_atom_site_fract_y
_atom_site_fract_z
Si Si1 0.850155 0.605647 0.091520
Si Si2 0.788938 0.618478 0.925108
Si Si3 0.809658 0.008955 0.948783
Si Si4 0.367354 0.292490 0.986280
Si Si5 0.991852 0.553023 0.066965
Si Si6 0.302944 0.510697 0.769369
Si Si7 0.352740 0.315258 0.745717
O O1 0.927525 0.599270 0.085025
O O2 0.788515 0.547115 0.135520
O O3 0.695433 0.648034 0.270800
O O4 0.008000 0.622904 0.839260
O O5 0.733198 0.555680 0.992914
O O6 0.708358 0.650743 0.950383
O O7 0.721820 0.649641 0.086651
O O8 0.803997 0.023314 0.862128
O O9 0.000000 0.018104 0.750000
O O10 0.658628 0.040519 0.182775
O O11 0.500000 0.276590 0.750000
O O12 0.456322 0.302531 0.961183
O O13 0.236709 0.242977 0.150818
O O14 0.000000 0.500000 0.000000
O O15 0.181614 0.554049 0.872371
O O16 0.500000 0.500000 0.500000
#
# Coordination Sequence:
#
# PCOD9268414 Si02
#       7
#     8   8   8   8   8   8   8
#     4  11  21  33  51  69 101 138 182 218 266 306
#     4  11  20  31  49  73 102 144 185 218 259 318
#     4  12  21  34  54  75 103 143 185 216 269 320
#     4  10  20  32  46  73 105 136 189 222 260 314
#     4  10  21  36  48  73 102 133 183 226 260 305
#     4  11  23  36  52  74 102 137 183 228 269 320
#     4  11  20  33  49  73 101 146 183 220 264 314
#
# _framework density 17.613979
#
# number of rings (size 3 to 8) (size 9 to 14) (size 15 to 20)
#    0.000    1.143    4.286    7.286    0.000    0.000 
#    0.000    0.000    0.000    0.000    0.000    0.000 
#    0.000    0.000    0.000   97.714    2.857    0.000 
#
# Total GULP energy -156174.658677 kJ/mol
# GULP energy per Si atom -5577.666381 kJ/mol
# Density = 1.757389 g / cm^3
# Si number density = 17.613979 Si / 1000 Ang^3
#
#
#
# Elastic Constant Matrix: (Units=GPa)
#
#
# Indices 1 2 3 4 5 6 
#
# 1 135.9589 22.6746 33.9326 -0.0045 -22.1095 -0.0074
# 2 22.6746 29.9308 -10.2180 -0.0118 -6.5340 0.0019
# 3 33.9326 -10.2180 63.0489 -0.0135 -5.6145 0.0090
# 4 -0.0045 -0.0118 -0.0135 15.6818 0.0075 -11.0873
# 5 -22.1095 -6.5340 -5.6145 0.0075 37.5256 -0.0073
# 6 -0.0074 0.0019 0.0090 -11.0873 -0.0073 27.6264
#
#
#
# Elastic Compliance Matrix: (Units=1/GPa)
#
#
# Indices 1 2 3 4 5 6 
#
# 1 0.011663 -0.010600 -0.007649 -0.000011 0.003882 0.000003
# 2 -0.010600 0.046977 0.013672 0.000050 0.003980 0.000011
# 3 -0.007649 0.013672 0.022301 0.000028 0.001211 0.000001
# 4 -0.000011 0.000050 0.000028 0.089031 -0.000004 0.035731
# 5 0.003882 0.003980 0.001211 -0.000004 0.029810 0.000006
# 6 0.000003 0.000011 0.000001 0.035731 0.000006 0.050537
#
#
# Mechanical properties :
#
#
# Convention : Reuss Voigt Hill
#
# Bulk Modulus (GPa) = 13.92986 35.74634 24.83810
# Shear Modulus (GPa) = 17.64281 28.33671 22.98976
#
# Velocity S-wave (km/s) = 3.16830 4.01529 3.61667
# Velocity P-wave (km/s) = 4.61625 6.46801 5.61893
#
# Compressibility (1/GPa) = 0.07178823
#
# Stress axis : x y z
#
# Youngs Moduli (GPa) = 85.73910 21.28705 44.84074
#
# Poissons Ratio (x) = 0.22564 0.34300
# Poissons Ratio (y) = 0.90881 -0.61308
# Poissons Ratio (z) = 0.65584 -0.29105
#
# Static dielectric constant tensor:
#      x y z
#    x 1.681370 -0.000010 -0.059760 
#    y -0.000010 1.617420 0.000110 
#    z -0.059760 0.000110 1.631130 
# 
# From -- ./inp_files/220457.got.cif
#   From: 2010.05.17/outbox.cif.g08.bks.cpg/sg15_111_cif.got.tgz:220457.got - 2010.06.03 18:47:42.
