data_PCOD9268948
_publ_section_title
;
Structure prediction by ZEFSAII (Michael W. Deem and Ramdas Pophale) SiO2 
 PCOD9268948
Probable space group: C 2/C
;
_chemical_formula_sum "Si O2"
_cell_formula_units_Z 40
_cell_length_a 31.326747
_cell_length_b 5.317115
_cell_length_c 17.903119
_cell_angle_alpha 90.000000
_cell_angle_beta 131.135729
_cell_angle_gamma 90.000000
_cell_volume 2245.967373
_symmetry_space_group_name_H-M "C 2/C"
_symmetry_group_IT_number 15
_symmetry_cell_setting 'monoclinic'
loop_
_space_group_symop_operation_xyz
x,y,z
-x,y,1/2-z
-x,-y,-z
x,-y,1/2+z
1/2+x,1/2+y,z
1/2-x,1/2+y,1/2-z
1/2-x,1/2-y,-z
1/2+x,1/2-y,1/2+z
loop_
_atom_site_type_symbol
_atom_site_label
_atom_site_fract_x
_atom_site_fract_y
_atom_site_fract_z
Si Si1 0.848384 0.641140 0.478652
Si Si2 0.625572 0.420855 0.853019
Si Si3 0.716733 0.135465 0.234401
Si Si4 0.433204 0.927650 0.683703
Si Si5 0.733029 0.610839 0.904746
O O1 0.839661 0.664682 0.380661
O O2 0.900228 0.470092 0.566843
O O3 0.789297 0.524500 0.439990
O O4 0.856165 0.889849 0.538312
O O5 0.587353 0.175718 0.795520
O O6 0.681493 0.428398 0.867273
O O7 0.591205 0.677465 0.807180
O O8 0.757728 0.357374 0.248847
O O9 0.712321 0.200998 0.316191
O O10 0.500000 0.918325 0.750000
O O11 0.750000 0.750000 0.000000
#
# Coordination Sequence:
#
# PCOD9268948 Si02
#       5
#     8   8   8   8   8
#     4   9  21  34  55  81 112 142 176 212 277 318
#     4  10  20  33  57  79 105 139 179 225 271 305
#     4  10  22  33  51  79 116 145 169 208 272 337
#     4  10  21  35  56  78 104 142 191 223 259 311
#     4  11  18  35  55  86 114 136 175 223 274 329
#
# _framework density 17.809698999999998
#
# number of rings (size 3 to 8) (size 9 to 14) (size 15 to 20)
#    1.200    0.800    2.000    2.400    2.800    4.800 
#    0.000    0.000    0.000    2.400    0.000    0.000 
#    0.000    0.000    0.000    0.000    0.000    0.000 
#
# Total GULP energy -111354.951751 kJ/mol
# GULP energy per Si atom -5567.747588 kJ/mol
# Density = 1.776916 g / cm^3
# Si number density = 17.809699 Si / 1000 Ang^3
#
#
#
# Elastic Constant Matrix: (Units=GPa)
#
#
# Indices 1 2 3 4 5 6 
#
# 1 61.3969 24.2539 51.3475 0.0000 15.6508 -0.0001
# 2 24.2539 90.9049 25.1093 0.0001 10.3563 -0.0002
# 3 51.3475 25.1093 82.9350 0.0001 7.1902 0.0000
# 4 0.0000 0.0001 0.0001 13.0756 0.0000 -0.1175
# 5 15.6508 10.3563 7.1902 0.0000 39.8100 0.0000
# 6 -0.0001 -0.0002 0.0000 -0.1175 0.0000 22.2273
#
#
#
# Elastic Compliance Matrix: (Units=1/GPa)
#
#
# Indices 1 2 3 4 5 6 
#
# 1 0.038598 -0.003013 -0.022083 0.000000 -0.010402 0.000000
# 2 -0.003013 0.012491 -0.001765 0.000000 -0.001746 0.000000
# 3 -0.022083 -0.001765 0.025877 0.000000 0.004467 0.000000
# 4 0.000000 0.000000 0.000000 0.076482 0.000000 0.000404
# 5 -0.010402 -0.001746 0.004467 0.000000 0.028856 0.000000
# 6 0.000000 0.000000 0.000000 0.000404 0.000000 0.044992
#
#
# Mechanical properties :
#
#
# Convention : Reuss Voigt Hill
#
# Bulk Modulus (GPa) = 43.02273 48.51758 45.77016
# Shear Modulus (GPa) = 17.31513 23.99100 20.65307
#
# Velocity S-wave (km/s) = 3.12144 3.67423 3.40906
# Velocity P-wave (km/s) = 6.09923 6.73063 6.42269
#
# Compressibility (1/GPa) = 0.02324353
#
# Stress axis : x y z
#
# Youngs Moduli (GPa) = 25.90823 80.05865 38.64470
#
# Poissons Ratio (x) = 0.24125 0.85339
# Poissons Ratio (y) = 0.07807 0.06819
# Poissons Ratio (z) = 0.57213 0.14127
#
# Static dielectric constant tensor:
#      x y z
#    x 1.596580 0.000000 -0.028420 
#    y 0.000000 1.651920 0.000000 
#    z -0.028420 0.000000 1.645970 
# 
# From -- ./inp_files/223459.got.cif
#   From: 2010.05.17/outbox.cif.g08.bks.cpg/sg15_112_cif.got.tgz:223459.got - 2010.06.03 18:47:42.
