data_PCOD9268113
_publ_section_title
;
Structure prediction by ZEFSAII (Michael W. Deem and Ramdas Pophale) SiO2 
 PCOD9268113
Probable space group: C 2/C
;
_chemical_formula_sum "Si O2"
_cell_formula_units_Z 40
_cell_length_a 14.529059
_cell_length_b 7.582902
_cell_length_c 27.219634
_cell_angle_alpha 90.000000
_cell_angle_beta 34.586217
_cell_angle_gamma 90.000000
_cell_volume 1702.286193
_symmetry_space_group_name_H-M "C 2/C"
_symmetry_group_IT_number 15
_symmetry_cell_setting 'monoclinic'
loop_
_space_group_symop_operation_xyz
x,y,z
-x,y,1/2-z
-x,-y,-z
x,-y,1/2+z
1/2+x,1/2+y,z
1/2-x,1/2+y,1/2-z
1/2-x,1/2-y,-z
1/2+x,1/2-y,1/2+z
loop_
_atom_site_type_symbol
_atom_site_label
_atom_site_fract_x
_atom_site_fract_y
_atom_site_fract_z
Si Si1 0.874007 0.610470 0.585579
Si Si2 0.266126 0.652008 0.044176
Si Si3 0.087539 0.015008 0.761618
Si Si4 0.069533 0.945672 0.877128
Si Si5 0.057403 0.558323 0.279037
O O1 0.768805 0.718085 0.590555
O O2 0.773504 0.482394 0.665600
O O3 0.941756 0.759660 0.591122
O O4 0.000000 0.500000 0.500000
O O5 0.106665 0.527569 0.117777
O O6 0.250000 0.750000 0.000000
O O7 0.442311 0.563684 0.962756
O O8 0.079335 0.227809 0.772398
O O9 0.000000 0.963402 0.750000
O O10 0.026154 0.932728 0.838682
O O11 0.259099 0.009806 0.793319
O O12 0.000000 0.507706 0.250000
#
# Coordination Sequence:
#
# PCOD9268113 Si02
#       5
#     8   8   8   8   8
#     4  11  25  41  67 101 140 177 229 302 360 414
#     4  12  22  42  73 100 137 191 239 286 356 428
#     4  10  19  42  65  94 134 186 229 283 360 417
#     4  11  23  40  75 103 135 188 244 286 356 431
#     4  10  20  40  67  97 138 183 234 287 352 419
#
# _framework density 23.497813000000001
#
# number of rings (size 3 to 8) (size 9 to 14) (size 15 to 20)
#    0.000    1.200    8.000    0.600    2.800    0.000 
#    0.000    4.000    4.400    0.000    0.000    0.000 
#    0.000    0.000    0.000    0.000    0.000    0.000 
#
# Total GULP energy -111656.760265 kJ/mol
# GULP energy per Si atom -5582.838013 kJ/mol
# Density = 2.344433 g / cm^3
# Si number density = 23.497813 Si / 1000 Ang^3
#
#
#
# Elastic Constant Matrix: (Units=GPa)
#
#
# Indices 1 2 3 4 5 6 
#
# 1 80.8775 22.1830 28.7590 0.0014 8.6464 -0.0050
# 2 22.1830 37.9921 29.1932 0.0017 -0.2250 -0.0067
# 3 28.7590 29.1932 184.3106 0.0011 -12.0050 0.0004
# 4 0.0014 0.0017 0.0011 34.5510 0.0009 1.0832
# 5 8.6464 -0.2250 -12.0050 0.0009 59.3770 -0.0001
# 6 -0.0050 -0.0067 0.0004 1.0832 -0.0001 15.9719
#
#
#
# Elastic Compliance Matrix: (Units=1/GPa)
#
#
# Indices 1 2 3 4 5 6 
#
# 1 0.015269 -0.007940 -0.001289 0.000000 -0.002514 0.000001
# 2 -0.007940 0.034141 -0.004139 -0.000002 0.000449 0.000012
# 3 -0.001289 -0.004139 0.006378 0.000000 0.001461 -0.000002
# 4 0.000000 -0.000002 0.000000 0.029004 0.000000 -0.001967
# 5 -0.002514 0.000449 0.001461 0.000000 0.017505 0.000000
# 6 0.000001 0.000012 -0.000002 -0.001967 0.000000 0.062743
#
#
# Mechanical properties :
#
#
# Convention : Reuss Voigt Hill
#
# Bulk Modulus (GPa) = 34.42212 51.49451 42.95831
# Shear Modulus (GPa) = 24.81878 36.84965 30.83422
#
# Velocity S-wave (km/s) = 3.25347 3.96437 3.62638
# Velocity P-wave (km/s) = 5.36604 6.55112 5.98797
#
# Compressibility (1/GPa) = 0.02905109
#
# Stress axis : x y z
#
# Youngs Moduli (GPa) = 65.49131 29.29046 156.80039
#
# Poissons Ratio (x) = 0.23257 0.20206
# Poissons Ratio (y) = 0.52001 0.64906
# Poissons Ratio (z) = 0.08440 0.12125
#
# Static dielectric constant tensor:
#      x y z
#    x 1.966730 0.000000 -0.075030 
#    y 0.000000 1.931270 0.000000 
#    z -0.075030 0.000000 2.000220 
# 
# From -- ./inp_files/294679.got.cif
#   From: 2010.05.17/outbox.cif.g08.bks.cpg/sg15_148_cif.got.tgz:294679.got - 2010.06.03 18:47:42.
