data_PCOD9268061
_publ_section_title
;
Structure prediction by ZEFSAII (Michael W. Deem and Ramdas Pophale) SiO2 
 PCOD9268061
Probable space group: C 2/C
;
_chemical_formula_sum "Si O2"
_cell_formula_units_Z 40
_cell_length_a 11.623536
_cell_length_b 8.888791
_cell_length_c 17.563492
_cell_angle_alpha 90.000000
_cell_angle_beta 92.248214
_cell_angle_gamma 90.000000
_cell_volume 1813.248824
_symmetry_space_group_name_H-M "C 2/C"
_symmetry_group_IT_number 15
_symmetry_cell_setting 'monoclinic'
loop_
_space_group_symop_operation_xyz
x,y,z
-x,y,1/2-z
-x,-y,-z
x,-y,1/2+z
1/2+x,1/2+y,z
1/2-x,1/2+y,1/2-z
1/2-x,1/2-y,-z
1/2+x,1/2-y,1/2+z
loop_
_atom_site_type_symbol
_atom_site_label
_atom_site_fract_x
_atom_site_fract_y
_atom_site_fract_z
Si Si1 0.863763 0.007715 0.003940
Si Si2 0.917773 0.325290 0.065190
Si Si3 0.653009 0.951267 0.074238
Si Si4 0.743361 0.460053 0.163607
Si Si5 0.869815 0.335872 0.778290
O O1 0.815272 0.000490 0.917776
O O2 0.854688 0.172115 0.042313
O O3 0.783922 0.905261 0.056724
O O4 0.000000 0.000000 0.000000
O O5 0.864432 0.383694 0.142228
O O6 0.056125 0.322208 0.073808
O O7 0.884873 0.442202 0.997507
O O8 0.641633 0.053588 0.148956
O O9 0.777624 0.600513 0.215558
O O10 0.665425 0.333556 0.200982
O O11 0.000000 0.340251 0.750000
#
# Coordination Sequence:
#
# PCOD9268061 Si02
#       5
#     8   8   8   8   8
#     4  11  23  40  67  97 130 165 226 281 326 382
#     4  10  19  41  70  86 120 172 222 260 323 385
#     4  10  20  39  67  89 119 171 217 262 321 397
#     4  11  24  43  66  97 130 177 220 273 334 402
#     4  12  24  43  66  98 140 177 217 270 346 403
#
# _framework density 22.059851999999999
#
# number of rings (size 3 to 8) (size 9 to 14) (size 15 to 20)
#    0.000    1.200    6.000    1.200    0.000    4.000 
#    0.000    0.000    0.000    0.000    0.000    0.000 
#    0.000    0.000    0.000    0.000    0.000    0.000 
#
# Total GULP energy -111686.406257 kJ/mol
# GULP energy per Si atom -5584.320313 kJ/mol
# Density = 2.200964 g / cm^3
# Si number density = 22.059852 Si / 1000 Ang^3
#
#
#
# Elastic Constant Matrix: (Units=GPa)
#
#
# Indices 1 2 3 4 5 6 
#
# 1 187.6092 13.4445 49.8801 0.0000 -21.6470 0.0000
# 2 13.4445 27.0512 9.6165 0.0000 -2.7077 0.0000
# 3 49.8801 9.6165 78.3401 0.0000 -21.7251 0.0000
# 4 0.0000 0.0000 0.0000 16.7261 0.0000 -1.8391
# 5 -21.6470 -2.7077 -21.7251 0.0000 28.4878 0.0000
# 6 0.0000 0.0000 0.0000 -1.8391 0.0000 30.1766
#
#
#
# Elastic Compliance Matrix: (Units=1/GPa)
#
#
# Indices 1 2 3 4 5 6 
#
# 1 0.006620 -0.001870 -0.003348 0.000000 0.002299 0.000000
# 2 -0.001870 0.039182 -0.003780 0.000000 -0.000579 0.000000
# 3 -0.003348 -0.003780 0.018459 0.000000 0.011174 0.000000
# 4 0.000000 0.000000 0.000000 0.060190 0.000000 0.003668
# 5 0.002299 -0.000579 0.011174 0.000000 0.045316 0.000000
# 6 0.000000 0.000000 0.000000 0.003668 0.000000 0.033362
#
#
# Mechanical properties :
#
#
# Convention : Reuss Voigt Hill
#
# Bulk Modulus (GPa) = 21.61402 48.76473 35.18937
# Shear Modulus (GPa) = 21.13763 29.74874 25.44318
#
# Velocity S-wave (km/s) = 3.09883 3.67624 3.39982
# Velocity P-wave (km/s) = 4.75635 6.33824 5.60340
#
# Compressibility (1/GPa) = 0.04626627
#
# Stress axis : x y z
#
# Youngs Moduli (GPa) = 151.06756 25.52201 54.17400
#
# Poissons Ratio (x) = 0.04772 0.18135
# Poissons Ratio (y) = 0.28246 0.20477
# Poissons Ratio (z) = 0.50571 0.09647
#
# Static dielectric constant tensor:
#      x y z
#    x 1.922690 0.000000 -0.029600 
#    y 0.000000 1.825760 0.000000 
#    z -0.029600 0.000000 1.773620 
# 
# From -- ./inp_files/195184.got.cif
#   From: 2010.05.17/outbox.cif.g08.bks.cpg/sg15_98_cif.got.tgz:195184.got - 2010.06.03 18:47:42.
