data_PCOD9268573
_publ_section_title
;
Structure prediction by ZEFSAII (Michael W. Deem and Ramdas Pophale) SiO2 
 PCOD9268573
Probable space group: C 2/C
;
_chemical_formula_sum "Si O2"
_cell_formula_units_Z 52
_cell_length_a 25.165977
_cell_length_b 19.745648
_cell_length_c 9.516798
_cell_angle_alpha 90.000000
_cell_angle_beta 145.451833
_cell_angle_gamma 90.000000
_cell_volume 2681.852013
_symmetry_space_group_name_H-M "C 2/C"
_symmetry_group_IT_number 15
_symmetry_cell_setting 'monoclinic'
loop_
_space_group_symop_operation_xyz
x,y,z
-x,y,1/2-z
-x,-y,-z
x,-y,1/2+z
1/2+x,1/2+y,z
1/2-x,1/2+y,1/2-z
1/2-x,1/2-y,-z
1/2+x,1/2-y,1/2+z
loop_
_atom_site_type_symbol
_atom_site_label
_atom_site_fract_x
_atom_site_fract_y
_atom_site_fract_z
Si Si1 0.000000 0.698583 0.750000
Si Si2 0.118470 0.406018 0.363446
Si Si3 0.249021 0.130684 0.747819
Si Si4 0.896726 0.525580 0.970946
Si Si5 0.903954 0.749876 0.087785
Si Si6 0.347960 0.285732 0.258813
Si Si7 0.207420 0.823387 0.868134
O O1 0.962552 0.650285 0.794066
O O2 0.911041 0.742688 0.505447
O O3 0.117314 0.448806 0.505402
O O4 0.214249 0.365847 0.544354
O O5 0.105781 0.454860 0.199794
O O6 0.183432 0.144069 0.738188
O O7 0.189539 0.139663 0.475924
O O8 0.314126 0.065933 0.870349
O O9 0.323998 0.192615 0.913095
O O10 0.000000 0.544942 0.250000
O O11 0.906644 0.785041 0.244357
O O12 0.000000 0.716514 0.250000
O O13 0.878350 0.806451 0.917848
O O14 0.250000 0.250000 0.000000
O O15 0.250000 0.750000 0.000000
#
# Coordination Sequence:
#
# PCOD9268573 Si02
#       7
#     4   8   8   8   8   8   8
#     4  12  24  36  60  86 130 156 208 258 316 358
#     4  11  24  37  58  86 121 162 198 250 298 380
#     4   9  20  36  55  77 119 154 197 242 301 368
#     4  11  23  37  56  86 117 160 199 237 298 370
#     4  10  20  32  56  84 110 150 197 249 307 354
#     4  10  23  36  55  86 118 162 201 255 305 361
#     4   9  19  37  56  80 117 152 197 248 309 353
#
# _framework density 19.389586000000001
#
# number of rings (size 3 to 8) (size 9 to 14) (size 15 to 20)
#    0.000    1.846    0.769    3.692   12.923    1.231 
#    0.000    0.000    0.000    0.000    2.000    3.231 
#    0.000    0.000    0.000    0.000    0.000    0.000 
#
# Total GULP energy -144912.280264 kJ/mol
# GULP energy per Si atom -5573.549241 kJ/mol
# Density = 1.934545 g / cm^3
# Si number density = 19.389586 Si / 1000 Ang^3
#
#
#
# Elastic Constant Matrix: (Units=GPa)
#
#
# Indices 1 2 3 4 5 6 
#
# 1 73.6573 6.9391 18.8499 0.0000 -2.2841 0.0000
# 2 6.9391 42.5651 23.3394 0.0000 4.2575 0.0000
# 3 18.8499 23.3394 58.2872 0.0000 -7.1301 0.0000
# 4 0.0000 0.0000 0.0000 11.4665 0.0000 11.8334
# 5 -2.2841 4.2575 -7.1301 0.0000 15.1797 0.0000
# 6 0.0000 0.0000 0.0000 11.8334 0.0000 35.2292
#
#
#
# Elastic Compliance Matrix: (Units=1/GPa)
#
#
# Indices 1 2 3 4 5 6 
#
# 1 0.014804 0.000309 -0.004933 0.000000 -0.000176 0.000000
# 2 0.000309 0.033695 -0.015641 0.000000 -0.016751 0.000000
# 3 -0.004933 -0.015641 0.027013 0.000000 0.016333 0.000000
# 4 0.000000 0.000000 0.000000 0.133482 0.000000 -0.044836
# 5 -0.000176 -0.016751 0.016333 0.000000 0.078221 0.000000
# 6 0.000000 0.000000 0.000000 -0.044836 0.000000 0.043446
#
#
# Mechanical properties :
#
#
# Convention : Reuss Voigt Hill
#
# Bulk Modulus (GPa) = 28.58635 30.30737 29.44686
# Shear Modulus (GPa) = 13.05989 20.73382 16.89686
#
# Velocity S-wave (km/s) = 2.59810 3.27361 2.95522
# Velocity P-wave (km/s) = 4.87600 5.47296 5.18308
#
# Compressibility (1/GPa) = 0.03498174
#
# Stress axis : x y z
#
# Youngs Moduli (GPa) = 67.54835 29.67801 37.01966
#
# Poissons Ratio (x) = -0.00917 0.18261
# Poissons Ratio (y) = -0.02087 0.57903
# Poissons Ratio (z) = 0.33321 0.46420
#
# Static dielectric constant tensor:
#      x y z
#    x 1.777190 0.000000 0.051090 
#    y 0.000000 1.704330 0.000000 
#    z 0.051090 0.000000 1.843590 
# 
# From -- ./inp_files/63464.got.cif
#   From: 2010.05.17/outbox.cif.g08.bks.cpg/sg15_32_cif.got.tgz:63464.got - 2010.06.03 18:47:42.
