data_PCOD9268743
_publ_section_title
;
Structure prediction by ZEFSAII (Michael W. Deem and Ramdas Pophale) SiO2 
 PCOD9268743
Probable space group: C 2/C
;
_chemical_formula_sum "Si O2"
_cell_formula_units_Z 60
_cell_length_a 24.803102
_cell_length_b 17.372275
_cell_length_c 9.230418
_cell_angle_alpha 90.000000
_cell_angle_beta 55.773485
_cell_angle_gamma 90.000000
_cell_volume 3288.480190
_symmetry_space_group_name_H-M "C 2/C"
_symmetry_group_IT_number 15
_symmetry_cell_setting 'monoclinic'
loop_
_space_group_symop_operation_xyz
x,y,z
-x,y,1/2-z
-x,-y,-z
x,-y,1/2+z
1/2+x,1/2+y,z
1/2-x,1/2+y,1/2-z
1/2-x,1/2-y,-z
1/2+x,1/2-y,1/2+z
loop_
_atom_site_type_symbol
_atom_site_label
_atom_site_fract_x
_atom_site_fract_y
_atom_site_fract_z
Si Si1 0.922573 0.437263 0.992002
Si Si2 0.229508 0.590051 0.740091
Si Si3 0.790527 0.747401 0.586728
Si Si4 0.136136 0.102498 0.466359
Si Si5 0.000000 0.183073 0.750000
Si Si6 0.078303 0.313364 0.750402
Si Si7 0.306337 0.495579 0.871219
Si Si8 0.030490 0.391936 0.064935
O O1 0.847535 0.428267 0.152151
O O2 0.971448 0.406125 0.041240
O O3 0.933459 0.388832 0.829682
O O4 0.939753 0.525851 0.939367
O O5 0.235850 0.681190 0.766322
O O6 0.259548 0.544176 0.833323
O O7 0.265514 0.559758 0.541490
O O8 0.750000 0.750000 0.500000
O O9 0.808874 0.829924 0.625590
O O10 0.860044 0.720241 0.421966
O O11 0.145966 0.051545 0.307722
O O12 0.062704 0.135341 0.600137
O O13 0.155055 0.052893 0.579853
O O14 0.974803 0.245333 0.669780
O O15 0.085069 0.342705 0.902070
O O16 0.000000 0.352963 0.250000
#
# Coordination Sequence:
#
# PCOD9268743 Si02
#       8
#     8   8   8   8   4   8   8   8
#     4  10  20  33  51  77 112 160 190 228 278 340
#     4  10  22  36  59  85 123 153 195 235 290 344
#     4  10  20  38  61  86 112 161 192 231 294 356
#     4  10  22  40  66  86 115 148 195 244 301 348
#     4  10  20  40  64  78 110 156 192 234 298 352
#     4  10  20  37  56  77 114 153 195 231 284 350
#     4  10  22  40  59  91 117 146 195 252 286 346
#     4  11  21  31  49  80 115 150 197 236 269 330
#
# _framework density 18.245509999999999
#
# number of rings (size 3 to 8) (size 9 to 14) (size 15 to 20)
#    0.000    1.867    2.667    1.600    5.600    1.067 
#    0.000    1.333    0.000    0.000    0.000    0.000 
#    0.000    0.000    0.000    0.000    0.000    0.000 
#
# Total GULP energy -167143.834817 kJ/mol
# GULP energy per Si atom -5571.461161 kJ/mol
# Density = 1.820398 g / cm^3
# Si number density = 18.245510 Si / 1000 Ang^3
#
#
#
# Elastic Constant Matrix: (Units=GPa)
#
#
# Indices 1 2 3 4 5 6 
#
# 1 53.8450 28.1845 20.5316 0.0000 -5.1205 0.0000
# 2 28.1845 104.1776 44.9904 0.0000 1.7849 0.0000
# 3 20.5316 44.9904 95.9696 0.0000 8.8601 0.0000
# 4 0.0000 0.0000 0.0000 22.0558 0.0000 -10.5920
# 5 -5.1205 1.7849 8.8601 0.0000 22.6187 0.0000
# 6 0.0000 0.0000 0.0000 -10.5920 0.0000 14.5254
#
#
#
# Elastic Compliance Matrix: (Units=1/GPa)
#
#
# Indices 1 2 3 4 5 6 
#
# 1 0.023057 -0.004954 -0.003246 0.000000 0.006882 0.000000
# 2 -0.004954 0.013138 -0.005084 0.000000 -0.000167 0.000000
# 3 -0.003246 -0.005084 0.014036 0.000000 -0.005832 0.000000
# 4 0.000000 0.000000 0.000000 0.069774 0.000000 0.050880
# 5 0.006882 -0.000167 -0.005832 0.000000 0.048067 0.000000
# 6 0.000000 0.000000 0.000000 0.050880 0.000000 0.105947
#
#
# Mechanical properties :
#
#
# Convention : Reuss Voigt Hill
#
# Bulk Modulus (GPa) = 42.25870 49.04501 45.65185
# Shear Modulus (GPa) = 16.20892 22.52572 19.36732
#
# Velocity S-wave (km/s) = 2.98380 3.51748 3.26158
# Velocity P-wave (km/s) = 5.92302 6.59059 6.26570
#
# Compressibility (1/GPa) = 0.02366377
#
# Stress axis : x y z
#
# Youngs Moduli (GPa) = 43.37064 76.11765 71.24595
#
# Poissons Ratio (x) = 0.37710 0.23124
# Poissons Ratio (y) = 0.21486 0.36218
# Poissons Ratio (z) = 0.14077 0.38695
#
# Static dielectric constant tensor:
#      x y z
#    x 1.637630 0.000000 -0.001960 
#    y 0.000000 1.666580 0.000000 
#    z -0.001960 0.000000 1.607700 
# 
# From -- ./inp_files/66867.got.cif
#   From: 2010.05.17/outbox.cif.g08.bks.cpg/sg15_34_cif.got.tgz:66867.got - 2010.06.03 18:47:42.
