data_PCOD9268984
_publ_section_title
;
Structure prediction by ZEFSAII (Michael W. Deem and Ramdas Pophale) SiO2 
 PCOD9268984
Probable space group: C 2/C
;
_chemical_formula_sum "Si O2"
_cell_formula_units_Z 40
_cell_length_a 14.042767
_cell_length_b 13.271774
_cell_length_c 11.563542
_cell_angle_alpha 90.000000
_cell_angle_beta 43.888147
_cell_angle_gamma 90.000000
_cell_volume 1494.046626
_symmetry_space_group_name_H-M "C 2/C"
_symmetry_group_IT_number 15
_symmetry_cell_setting 'monoclinic'
loop_
_space_group_symop_operation_xyz
x,y,z
-x,y,1/2-z
-x,-y,-z
x,-y,1/2+z
1/2+x,1/2+y,z
1/2-x,1/2+y,1/2-z
1/2-x,1/2-y,-z
1/2+x,1/2-y,1/2+z
loop_
_atom_site_type_symbol
_atom_site_label
_atom_site_fract_x
_atom_site_fract_y
_atom_site_fract_z
Si Si1 0.297329 0.865537 0.754007
Si Si2 0.202187 0.417425 0.492522
Si Si3 0.498780 0.703108 0.996730
Si Si4 0.273302 0.892875 0.282398
Si Si5 0.000000 0.418974 0.250000
Si Si6 0.500000 0.592757 0.750000
O O1 0.316558 0.850091 0.876365
O O2 0.423598 0.810833 0.581035
O O3 0.289781 0.986416 0.757024
O O4 0.153874 0.824608 0.827746
O O5 0.202107 0.358757 0.372012
O O6 0.089293 0.504382 0.593516
O O7 0.355310 0.463682 0.368644
O O8 0.619129 0.636453 0.950684
O O9 0.492248 0.660455 0.871061
O O10 0.388302 0.860072 0.273115
#
# Coordination Sequence:
#
# PCOD9268984 Si02
#       6
#     8   8   8   8   4   4
#     4  10  22  38  63  95 124 156 200 251 308 370
#     4   9  19  35  56  86 120 157 197 246 301 352
#     4  10  21  37  60  90 123 157 197 250 308 361
#     4  10  21  38  60  86 126 168 204 245 300 364
#     4  10  20  33  58  87 116 156 208 249 290 353
#     4   8  18  33  52  81 120 152 188 237 302 363
#
# _framework density 26.772928
#
# number of rings (size 3 to 8) (size 9 to 14) (size 15 to 20)
#    0.000    2.400    0.000    1.200    0.000   20.000 
#    0.000    0.000    0.000   18.000    0.000    0.000 
#    0.000    0.000    0.000    0.000    0.000    0.000 
#
# Total GULP energy -111888.933972 kJ/mol
# GULP energy per Si atom -5594.446699 kJ/mol
# Density = 2.671199 g / cm^3
# Si number density = 26.772928 Si / 1000 Ang^3
#
#
#
# Elastic Constant Matrix: (Units=GPa)
#
#
# Indices 1 2 3 4 5 6 
#
# 1 161.9877 27.4544 37.1825 0.0000 -52.1793 0.0000
# 2 27.4544 89.6092 -6.8202 0.0000 -10.8484 0.0000
# 3 37.1825 -6.8202 102.4710 0.0000 -51.3049 0.0000
# 4 0.0000 0.0000 0.0000 16.9866 0.0000 -3.8133
# 5 -52.1793 -10.8484 -51.3049 0.0000 62.0842 0.0000
# 6 0.0000 0.0000 0.0000 -3.8133 0.0000 44.1515
#
#
#
# Elastic Compliance Matrix: (Units=1/GPa)
#
#
# Indices 1 2 3 4 5 6 
#
# 1 0.008758 -0.001758 0.000404 0.000000 0.007387 0.000000
# 2 -0.001758 0.012320 0.003063 0.000000 0.003206 0.000000
# 3 0.000404 0.003063 0.017491 0.000000 0.015329 0.000000
# 4 0.000000 0.000000 0.000000 0.060034 0.000000 0.005185
# 5 0.007387 0.003206 0.015329 0.000000 0.035543 0.000000
# 6 0.000000 0.000000 0.000000 0.005185 0.000000 0.023097
#
#
# Mechanical properties :
#
#
# Convention : Reuss Voigt Hill
#
# Bulk Modulus (GPa) = 23.81743 52.18901 38.00322
# Shear Modulus (GPa) = 29.79361 44.39454 37.09408
#
# Velocity S-wave (km/s) = 3.33952 4.07650 3.72628
# Velocity P-wave (km/s) = 4.87702 6.45699 5.72180
#
# Compressibility (1/GPa) = 0.04198606
#
# Stress axis : x y z
#
# Youngs Moduli (GPa) = 114.17820 81.17147 57.17228
#
# Poissons Ratio (x) = 0.14272 -0.02307
# Poissons Ratio (y) = 0.20076 -0.17514
# Poissons Ratio (z) = -0.04608 -0.24865
#
# Static dielectric constant tensor:
#      x y z
#    x 2.170450 0.000000 0.002610 
#    y 0.000000 2.224560 0.000000 
#    z 0.002610 0.000000 2.149380 
# 
# From -- ./inp_files/153762.got.cif
#   From: 2010.05.17/outbox.cif.g08.bks.cpg/sg15_77_cif.got.tgz:153762.got - 2010.06.03 18:47:42.
