data_PCOD9268060
_publ_section_title
;
Structure prediction by ZEFSAII (Michael W. Deem and Ramdas Pophale) SiO2 
 PCOD9268060
Probable space group: C 2/C
;
_chemical_formula_sum "Si O2"
_cell_formula_units_Z 48
_cell_length_a 11.462317
_cell_length_b 10.733405
_cell_length_c 22.238039
_cell_angle_alpha 90.000000
_cell_angle_beta 123.899347
_cell_angle_gamma 90.000000
_cell_volume 2270.880420
_symmetry_space_group_name_H-M "C 2/C"
_symmetry_group_IT_number 15
_symmetry_cell_setting 'monoclinic'
loop_
_space_group_symop_operation_xyz
x,y,z
-x,y,1/2-z
-x,-y,-z
x,-y,1/2+z
1/2+x,1/2+y,z
1/2-x,1/2+y,1/2-z
1/2-x,1/2-y,-z
1/2+x,1/2-y,1/2+z
loop_
_atom_site_type_symbol
_atom_site_label
_atom_site_fract_x
_atom_site_fract_y
_atom_site_fract_z
Si Si1 0.861660 0.250788 0.966559
Si Si2 0.812023 0.198643 0.581144
Si Si3 0.918697 0.390700 0.392500
Si Si4 0.911794 0.677368 0.355827
Si Si5 0.103075 0.083810 0.417247
Si Si6 0.599276 0.286039 0.719451
O O1 0.918055 0.235413 0.916473
O O2 0.707380 0.311492 0.917961
O O3 0.883174 0.124460 0.009660
O O4 0.944132 0.353053 0.030213
O O5 0.750000 0.250000 0.500000
O O6 0.701357 0.181233 0.603817
O O7 0.945454 0.284938 0.637110
O O8 0.853352 0.055678 0.581325
O O9 0.909366 0.538445 0.382920
O O10 0.921432 0.337934 0.325908
O O11 0.763098 0.698113 0.281360
O O12 0.955481 0.108044 0.342349
O O13 0.500000 0.289340 0.750000
#
# Coordination Sequence:
#
# PCOD9268060 Si02
#       6
#     8   8   8   8   8   8
#     4  10  19  41  69  98 124 179 222 278 336 403
#     4  12  24  42  69 105 133 177 226 284 352 408
#     4  11  24  45  65  96 144 168 224 289 335 407
#     4  12  24  42  70  96 134 183 224 275 353 406
#     4  10  22  40  70  94 135 174 230 276 341 413
#     4  11  24  45  65  94 128 186 225 274 347 412
#
# _framework density 21.137174999999999
#
# number of rings (size 3 to 8) (size 9 to 14) (size 15 to 20)
#    0.000    1.000    5.000    1.500    2.333    1.333 
#    3.000    0.000    0.000    0.000    0.000    0.000 
#    0.000    0.000    0.000    0.000    0.000    0.000 
#
# Total GULP energy -133933.283517 kJ/mol
# GULP energy per Si atom -5580.553480 kJ/mol
# Density = 2.108907 g / cm^3
# Si number density = 21.137175 Si / 1000 Ang^3
#
#
#
# Elastic Constant Matrix: (Units=GPa)
#
#
# Indices 1 2 3 4 5 6 
#
# 1 85.6997 25.9111 21.9669 0.0000 21.5987 0.0000
# 2 25.9111 42.6210 21.0796 0.0000 3.0906 0.0000
# 3 21.9669 21.0796 94.5084 0.0000 35.6767 0.0000
# 4 0.0000 0.0000 0.0000 6.4869 0.0000 2.2593
# 5 21.5987 3.0906 35.6767 0.0000 34.3886 0.0000
# 6 0.0000 0.0000 0.0000 2.2593 0.0000 30.1667
#
#
#
# Elastic Compliance Matrix: (Units=1/GPa)
#
#
# Indices 1 2 3 4 5 6 
#
# 1 0.017752 -0.011633 0.003752 0.000000 -0.013997 0.000000
# 2 -0.011633 0.034807 -0.010909 0.000000 0.015496 0.000000
# 3 0.003752 -0.010909 0.020813 0.000000 -0.022969 0.000000
# 4 0.000000 0.000000 0.000000 0.158286 0.000000 -0.011855
# 5 -0.013997 0.015496 -0.022969 0.000000 0.060307 0.000000
# 6 0.000000 0.000000 0.000000 -0.011855 0.000000 0.034037
#
#
# Mechanical properties :
#
#
# Convention : Reuss Voigt Hill
#
# Bulk Modulus (GPa) = 27.93968 40.08270 34.01119
# Shear Modulus (GPa) = 13.31520 24.46653 18.89087
#
# Velocity S-wave (km/s) = 2.51259 3.40591 2.99277
# Velocity P-wave (km/s) = 4.65451 5.87123 5.29791
#
# Compressibility (1/GPa) = 0.03579140
#
# Stress axis : x y z
#
# Youngs Moduli (GPa) = 56.33310 28.73022 48.04736
#
# Poissons Ratio (x) = 0.33421 -0.18029
# Poissons Ratio (y) = 0.65531 0.52416
# Poissons Ratio (z) = -0.21138 0.31343
#
# Static dielectric constant tensor:
#      x y z
#    x 1.887450 0.000000 0.017530 
#    y 0.000000 1.737270 0.000000 
#    z 0.017530 0.000000 1.762830 
# 
# From -- ./inp_files/196114.got.cif
#   From: 2010.05.17/outbox.cif.g08.bks.cpg/sg15_99_cif.got.tgz:196114.got - 2010.06.03 18:47:42.
