data_PCOD9268365
_publ_section_title
;
Structure prediction by ZEFSAII (Michael W. Deem and Ramdas Pophale) SiO2 
 PCOD9268365
Probable space group: C 2/C
;
_chemical_formula_sum "Si O2"
_cell_formula_units_Z 56
_cell_length_a 7.684142
_cell_length_b 31.724198
_cell_length_c 10.756561
_cell_angle_alpha 90.000000
_cell_angle_beta 112.751362
_cell_angle_gamma 90.000000
_cell_volume 2418.136009
_symmetry_space_group_name_H-M "C 2/C"
_symmetry_group_IT_number 15
_symmetry_cell_setting 'monoclinic'
loop_
_space_group_symop_operation_xyz
x,y,z
-x,y,1/2-z
-x,-y,-z
x,-y,1/2+z
1/2+x,1/2+y,z
1/2-x,1/2+y,1/2-z
1/2-x,1/2-y,-z
1/2+x,1/2-y,1/2+z
loop_
_atom_site_type_symbol
_atom_site_label
_atom_site_fract_x
_atom_site_fract_y
_atom_site_fract_z
Si Si1 0.868681 0.434576 0.607118
Si Si2 0.696545 0.609419 0.650051
Si Si3 0.949551 0.974639 0.108078
Si Si4 0.070418 0.726717 0.013832
Si Si5 0.316362 0.717639 0.295604
Si Si6 0.915487 0.871474 0.865223
Si Si7 0.024896 0.370257 0.066062
O O1 0.769774 0.462780 0.473962
O O2 0.696754 0.413367 0.634135
O O3 0.961971 0.395640 0.558569
O O4 0.000000 0.454150 0.750000
O O5 0.583105 0.566907 0.648248
O O6 0.560668 0.635369 0.519679
O O7 0.779116 0.629128 0.800423
O O8 0.876945 0.604263 0.610406
O O9 0.000000 0.997669 0.250000
O O10 0.000000 0.000000 0.000000
O O11 0.130780 0.730580 0.172017
O O12 0.250000 0.750000 0.000000
O O13 0.886042 0.750833 0.919031
O O14 0.047654 0.677562 0.970810
O O15 0.500000 0.716170 0.250000
O O16 0.289667 0.670146 0.332273
O O17 0.000000 0.875077 0.750000
#
# Coordination Sequence:
#
# PCOD9268365 Si02
#       7
#     8   8   8   8   8   8   8
#     4  11  23  42  70  99 133 173 228 281 341 411
#     4  10  22  38  68  92 131 175 221 272 333 417
#     4  11  25  49  70 103 141 180 219 282 358 435
#     4  10  20  31  53  87 129 173 223 279 330 386
#     4   9  18  30  48  80 120 159 224 267 328 383
#     4  10  20  37  61  88 131 175 229 279 344 404
#     4  11  22  38  65  98 133 172 236 280 330 400
#
# _framework density 23.158332999999999
#
# number of rings (size 3 to 8) (size 9 to 14) (size 15 to 20)
#    0.000    1.714    1.429    4.286    8.000    3.429 
#    2.571    2.143    0.000    0.000    0.000    0.000 
#    0.000    0.000    0.000    0.000    0.000    0.000 
#
# Total GULP energy -156302.661125 kJ/mol
# GULP energy per Si atom -5582.237897 kJ/mol
# Density = 2.310562 g / cm^3
# Si number density = 23.158333 Si / 1000 Ang^3
#
#
#
# Elastic Constant Matrix: (Units=GPa)
#
#
# Indices 1 2 3 4 5 6 
#
# 1 39.3296 13.3270 27.3240 0.0000 -7.7683 0.0000
# 2 13.3270 40.1454 26.0132 0.0000 -0.2454 0.0000
# 3 27.3240 26.0132 201.5984 0.0000 26.5857 0.0000
# 4 0.0000 0.0000 0.0000 11.6698 0.0000 -4.0725
# 5 -7.7683 -0.2454 26.5857 0.0000 41.6252 0.0000
# 6 0.0000 0.0000 0.0000 -4.0725 0.0000 16.8714
#
#
#
# Elastic Compliance Matrix: (Units=1/GPa)
#
#
# Indices 1 2 3 4 5 6 
#
# 1 0.033163 -0.007923 -0.004676 0.000000 0.009129 0.000000
# 2 -0.007923 0.029340 -0.002773 0.000000 0.000466 0.000000
# 3 -0.004676 -0.002773 0.006627 0.000000 -0.005122 0.000000
# 4 0.000000 0.000000 0.000000 0.093573 0.000000 0.022587
# 5 0.009129 0.000466 -0.005122 0.000000 0.029002 0.000000
# 6 0.000000 0.000000 0.000000 0.022587 0.000000 0.064724
#
#
# Mechanical properties :
#
#
# Convention : Reuss Voigt Hill
#
# Bulk Modulus (GPa) = 26.05219 46.04462 36.04841
# Shear Modulus (GPa) = 16.66836 28.32725 22.49781
#
# Velocity S-wave (km/s) = 2.68574 3.50122 3.12024
# Velocity P-wave (km/s) = 4.57073 6.02249 5.34612
#
# Compressibility (1/GPa) = 0.03838448
#
# Stress axis : x y z
#
# Youngs Moduli (GPa) = 30.15417 34.08365 150.88660
#
# Poissons Ratio (x) = 0.27005 0.70560
# Poissons Ratio (y) = 0.23891 0.41846
# Poissons Ratio (z) = 0.14101 0.09453
#
# Static dielectric constant tensor:
#      x y z
#    x 1.920410 0.000000 0.036490 
#    y 0.000000 1.858310 0.000000 
#    z 0.036490 0.000000 1.899940 
# 
# From -- ./inp_files/82708.got.cif
#   From: 2010.05.17/outbox.cif.g08.bks.cpg/sg15_42_cif.got.tgz:82708.got - 2010.06.03 18:47:42.
