data_PCOD9268287
_publ_section_title
;
Structure prediction by ZEFSAII (Michael W. Deem and Ramdas Pophale) SiO2 
 PCOD9268287
Probable space group: C 2/C
;
_chemical_formula_sum "Si O2"
_cell_formula_units_Z 48
_cell_length_a 16.086364
_cell_length_b 25.441695
_cell_length_c 10.940474
_cell_angle_alpha 90.000000
_cell_angle_beta 146.289020
_cell_angle_gamma 90.000000
_cell_volume 2485.055361
_symmetry_space_group_name_H-M "C 2/C"
_symmetry_group_IT_number 15
_symmetry_cell_setting 'monoclinic'
loop_
_space_group_symop_operation_xyz
x,y,z
-x,y,1/2-z
-x,-y,-z
x,-y,1/2+z
1/2+x,1/2+y,z
1/2-x,1/2+y,1/2-z
1/2-x,1/2-y,-z
1/2+x,1/2-y,1/2+z
loop_
_atom_site_type_symbol
_atom_site_label
_atom_site_fract_x
_atom_site_fract_y
_atom_site_fract_z
Si Si1 0.280954 0.864484 0.132240
Si Si2 0.983184 0.722560 0.580972
Si Si3 0.420002 0.021894 0.781851
Si Si4 0.375755 0.515027 0.685469
Si Si5 0.663045 0.322360 0.726549
Si Si6 0.531349 0.413954 0.996351
O O1 0.393630 0.819337 0.314418
O O2 0.381833 0.916523 0.243619
O O3 0.138852 0.880452 0.039897
O O4 0.218382 0.843530 0.926744
O O5 0.813566 0.702305 0.351261
O O6 0.000000 0.726715 0.750000
O O7 0.037973 0.777529 0.592663
O O8 0.500000 0.013287 0.750000
O O9 0.264250 0.992829 0.571597
O O10 0.500000 0.000000 0.000000
O O11 0.500000 0.538386 0.750000
O O12 0.361846 0.552648 0.783961
O O13 0.434186 0.458169 0.805859
O O14 0.581385 0.373967 0.573842
#
# Coordination Sequence:
#
# PCOD9268287 Si02
#       6
#     8   8   8   8   8   8
#     4  11  20  35  53  85 117 165 194 253 309 361
#     4  10  20  30  52  85 124 160 197 243 316 369
#     4  12  25  40  59  88 126 162 207 260 311 366
#     4  11  23  39  59  86 115 167 208 252 299 372
#     4  11  19  34  54  86 124 159 195 250 307 371
#     4  11  21  36  60  82 121 159 212 242 306 368
#
# _framework density 19.315466000000001
#
# number of rings (size 3 to 8) (size 9 to 14) (size 15 to 20)
#    0.000    1.000    3.333    7.000    2.333    0.000 
#    0.000    0.000    0.000    0.000    0.000   11.667 
#    0.000    0.000    0.000    0.000    0.000    0.000 
#
# Total GULP energy -133948.330489 kJ/mol
# GULP energy per Si atom -5581.180437 kJ/mol
# Density = 1.927150 g / cm^3
# Si number density = 19.315466 Si / 1000 Ang^3
#
#
#
# Elastic Constant Matrix: (Units=GPa)
#
#
# Indices 1 2 3 4 5 6 
#
# 1 41.6222 32.4153 30.0625 0.0000 8.8822 0.0000
# 2 32.4153 112.0217 50.6685 0.0000 3.4644 0.0000
# 3 30.0625 50.6685 96.0780 0.0000 -8.7280 0.0000
# 4 0.0000 0.0000 0.0000 41.1234 0.0000 23.8973
# 5 8.8822 3.4644 -8.7280 0.0000 19.0741 0.0000
# 6 0.0000 0.0000 0.0000 23.8973 0.0000 42.2862
#
#
#
# Elastic Compliance Matrix: (Units=1/GPa)
#
#
# Indices 1 2 3 4 5 6 
#
# 1 0.043032 -0.006021 -0.012531 0.000000 -0.024680 0.000000
# 2 -0.006021 0.013076 -0.005189 0.000000 -0.001946 0.000000
# 3 -0.012531 -0.005189 0.018448 0.000000 0.015220 0.000000
# 4 0.000000 0.000000 0.000000 0.036208 0.000000 -0.020462
# 5 -0.024680 -0.001946 0.015220 0.000000 0.071237 0.000000
# 6 0.000000 0.000000 0.000000 -0.020462 0.000000 0.035212
#
#
# Mechanical properties :
#
#
# Convention : Reuss Voigt Hill
#
# Bulk Modulus (GPa) = 36.93489 52.89049 44.91269
# Shear Modulus (GPa) = 18.26677 29.60179 23.93428
#
# Velocity S-wave (km/s) = 3.07857 3.91902 3.52394
# Velocity P-wave (km/s) = 5.63917 6.92244 6.31349
#
# Compressibility (1/GPa) = 0.02707467
#
# Stress axis : x y z
#
# Youngs Moduli (GPa) = 23.23835 76.47502 54.20555
#
# Poissons Ratio (x) = 0.46044 0.67928
# Poissons Ratio (y) = 0.13991 0.28126
# Poissons Ratio (z) = 0.29121 0.39682
#
# Static dielectric constant tensor:
#      x y z
#    x 1.661720 0.000000 0.007990 
#    y 0.000000 1.691440 0.000000 
#    z 0.007990 0.000000 1.732950 
# 
# From -- ./inp_files/108128.got.cif
#   From: 2010.05.17/outbox.cif.g08.bks.cpg/sg15_55_cif.got.tgz:108128.got - 2010.06.03 18:47:42.
