data_PCOD9268872
_publ_section_title
;
Structure prediction by ZEFSAII (Michael W. Deem and Ramdas Pophale) SiO2 
 PCOD9268872
Probable space group: C 2/C
;
_chemical_formula_sum "Si O2"
_cell_formula_units_Z 52
_cell_length_a 22.537123
_cell_length_b 13.730496
_cell_length_c 16.909135
_cell_angle_alpha 90.000000
_cell_angle_beta 156.343521
_cell_angle_gamma 90.000000
_cell_volume 2099.536607
_symmetry_space_group_name_H-M "C 2/C"
_symmetry_group_IT_number 15
_symmetry_cell_setting 'monoclinic'
loop_
_space_group_symop_operation_xyz
x,y,z
-x,y,1/2-z
-x,-y,-z
x,-y,1/2+z
1/2+x,1/2+y,z
1/2-x,1/2+y,1/2-z
1/2-x,1/2-y,-z
1/2+x,1/2-y,1/2+z
loop_
_atom_site_type_symbol
_atom_site_label
_atom_site_fract_x
_atom_site_fract_y
_atom_site_fract_z
Si Si1 0.880295 0.849446 0.714380
Si Si2 0.668131 0.126954 0.819353
Si Si3 0.821699 0.848256 0.348625
Si Si4 0.422005 0.708550 0.818634
Si Si5 0.184908 0.569886 0.297489
Si Si6 0.755934 0.138849 0.225158
Si Si7 0.000000 0.119589 0.750000
O O1 0.818424 0.879900 0.554733
O O2 0.890305 0.731185 0.722648
O O3 0.764400 0.878420 0.642267
O O4 0.032078 0.893604 0.933217
O O5 0.695735 0.137578 0.759317
O O6 0.600654 0.018606 0.738185
O O7 0.812925 0.855527 0.243011
O O8 0.846119 0.731585 0.384377
O O9 0.382802 0.823024 0.772064
O O10 0.431152 0.678892 0.739105
O O11 0.581591 0.677850 0.049777
O O12 0.204531 0.559542 0.225682
O O13 0.353978 0.570004 0.535374
#
# Coordination Sequence:
#
# PCOD9268872 Si02
#       7
#     8   8   8   8   8   8   4
#     4   9  18  34  55  75 113 145 178 222 283 326
#     4  10  20  33  54  84 109 143 186 226 273 326
#     4   9  17  33  56  76 101 148 178 214 275 325
#     4   9  18  36  56  75 111 146 179 220 276 328
#     4  10  20  34  55  83 111 137 189 230 265 327
#     4   8  17  35  54  78 105 145 183 215 275 333
#     4  10  20  34  56  80 108 150 180 220 282 328
#
# _framework density 24.767368999999999
#
# number of rings (size 3 to 8) (size 9 to 14) (size 15 to 20)
#    0.000    2.769    0.000    0.923    2.154    0.000 
#    2.769   14.615   10.154    0.000    0.000    0.000 
#    0.000    0.000    0.000    0.000    0.000    0.000 
#
# Total GULP energy -144740.605308 kJ/mol
# GULP energy per Si atom -5566.946358 kJ/mol
# Density = 2.471100 g / cm^3
# Si number density = 24.767369 Si / 1000 Ang^3
#
#
#
# Elastic Constant Matrix: (Units=GPa)
#
#
# Indices 1 2 3 4 5 6 
#
# 1 108.3925 30.7248 8.8980 0.0000 -35.0137 0.0000
# 2 30.7248 101.8471 12.2350 0.0000 -18.7617 0.0000
# 3 8.8980 12.2350 64.9420 0.0000 -6.5767 0.0000
# 4 0.0000 0.0000 0.0000 -0.0186 0.0000 -4.4665
# 5 -35.0137 -18.7617 -6.5767 0.0000 23.4690 0.0000
# 6 0.0000 0.0000 0.0000 -4.4665 0.0000 27.2666
#
#
#
# Elastic Compliance Matrix: (Units=1/GPa)
#
#
# Indices 1 2 3 4 5 6 
#
# 1 0.017842 -0.000588 0.000323 0.000000 0.026239 0.000000
# 2 -0.000588 0.011637 -0.001295 0.000000 0.008063 0.000000
# 3 0.000323 -0.001295 0.015996 0.000000 0.003929 0.000000
# 4 0.000000 0.000000 0.000000 -1.332858 0.000000 -0.218336
# 5 0.026239 0.008063 0.003929 0.000000 0.089303 0.000000
# 6 0.000000 0.000000 0.000000 -0.218336 0.000000 0.000909
#
#
# Mechanical properties :
#
#
# Convention : Reuss Voigt Hill
#
# Bulk Modulus (GPa) = 23.60969 42.09966 32.85467
# Shear Modulus (GPa) = -4.23753 25.03166 10.39706
#
# Velocity S-wave (km/s) = -1.30944 3.18255 2.05110
# Velocity P-wave (km/s) = 2.69575 5.52628 4.34781
#
# Compressibility (1/GPa) = 0.04235549
#
# Stress axis : x y z
#
# Youngs Moduli (GPa) = 56.04856 85.93374 62.51554
#
# Poissons Ratio (x) = 0.05050 -0.02022
# Poissons Ratio (y) = 0.03294 0.08098
# Poissons Ratio (z) = -0.01812 0.11131
#
# Static dielectric constant tensor:
#      x y z
#    x 2.063410 0.000000 0.049120 
#    y 0.000000 2.017250 0.000000 
#    z 0.049120 0.000000 2.021950 
# 
# From -- ./inp_files/219526.got.cif
#   From: 2010.05.17/outbox.cif.g08.bks.cpg/sg15_110_cif.got.tgz:219526.got - 2010.06.03 18:47:42.
