data_PCOD9268455
_publ_section_title
;
Structure prediction by ZEFSAII (Michael W. Deem and Ramdas Pophale) SiO2 
 PCOD9268455
Probable space group: C 2/C
;
_chemical_formula_sum "Si O2"
_cell_formula_units_Z 64
_cell_length_a 21.852175
_cell_length_b 28.702019
_cell_length_c 17.885683
_cell_angle_alpha 90.000000
_cell_angle_beta 161.076638
_cell_angle_gamma 90.000000
_cell_volume 3638.009393
_symmetry_space_group_name_H-M "C 2/C"
_symmetry_group_IT_number 15
_symmetry_cell_setting 'monoclinic'
loop_
_space_group_symop_operation_xyz
x,y,z
-x,y,1/2-z
-x,-y,-z
x,-y,1/2+z
1/2+x,1/2+y,z
1/2-x,1/2+y,1/2-z
1/2-x,1/2-y,-z
1/2+x,1/2-y,1/2+z
loop_
_atom_site_type_symbol
_atom_site_label
_atom_site_fract_x
_atom_site_fract_y
_atom_site_fract_z
Si Si1 0.037669 0.046593 0.493357
Si Si2 0.287408 0.298165 0.133033
Si Si3 0.711729 0.457415 0.460868
Si Si4 0.068985 0.105352 0.666942
Si Si5 0.864081 0.695329 0.202522
Si Si6 0.417573 0.956706 0.360555
Si Si7 0.142896 0.453857 0.468344
Si Si8 0.658621 0.903831 0.748054
O O1 0.123396 0.083132 0.651241
O O2 0.192692 0.039439 0.607981
O O3 0.000000 0.000000 0.500000
O O4 0.842127 0.063344 0.231099
O O5 0.415155 0.339249 0.312447
O O6 0.341851 0.245460 0.215725
O O7 0.279594 0.302946 0.033823
O O8 0.075867 0.306901 0.916242
O O9 0.500000 0.466336 0.250000
O O10 0.689878 0.416037 0.374674
O O11 0.793802 0.500928 0.508525
O O12 0.838690 0.437677 0.675862
O O13 0.857507 0.087897 0.437235
O O14 0.835269 0.649017 0.216294
O O15 0.512250 0.960556 0.389760
O O16 0.498289 0.913617 0.502032
O O17 0.500000 0.000000 0.500000
O O18 0.000000 0.425352 0.250000
#
# Coordination Sequence:
#
# PCOD9268455 Si02
#       8
#     8   8   8   8   8   8   8   8
#     4  12  23  39  57  78 112 147 189 239 286 332
#     4  10  20  32  50  75 111 151 189 232 275 322
#     4  10  22  34  53  80 109 151 197 230 273 340
#     4  11  19  36  54  79 111 150 193 234 276 332
#     4  10  20  33  49  76 110 150 192 230 273 330
#     4  12  23  39  57  79 110 148 188 239 286 333
#     4  12  26  39  57  80 108 145 193 238 288 338
#     4  11  21  36  57  80 110 150 193 231 279 336
#
# _framework density 17.592037999999999
#
# number of rings (size 3 to 8) (size 9 to 14) (size 15 to 20)
#    0.000    1.000    5.000    2.250    3.500    2.000 
#    0.000    0.000    0.000    0.000    0.000    0.000 
#    0.000    1.000    0.500    0.000    0.000    0.000 
#
# Total GULP energy -178601.825692 kJ/mol
# GULP energy per Si atom -5581.307053 kJ/mol
# Density = 1.755200 g / cm^3
# Si number density = 17.592038 Si / 1000 Ang^3
#
#
#
# Elastic Constant Matrix: (Units=GPa)
#
#
# Indices 1 2 3 4 5 6 
#
# 1 94.9708 22.9934 33.8770 0.0000 8.7239 0.0000
# 2 22.9934 80.1656 -1.7276 0.0000 -7.4779 0.0000
# 3 33.8770 -1.7276 73.2794 0.0001 5.8390 0.0001
# 4 0.0000 0.0000 0.0001 22.8905 0.0000 -0.3982
# 5 8.7239 -7.4779 5.8390 0.0000 34.1004 0.0000
# 6 0.0000 0.0000 0.0001 -0.3982 0.0000 23.0912
#
#
#
# Elastic Compliance Matrix: (Units=1/GPa)
#
#
# Indices 1 2 3 4 5 6 
#
# 1 0.014244 -0.004554 -0.006410 0.000000 -0.003545 0.000000
# 2 -0.004554 0.014191 0.002128 0.000000 0.003913 0.000000
# 3 -0.006410 0.002128 0.016720 0.000000 -0.000756 0.000000
# 4 0.000000 0.000000 0.000000 0.043699 0.000000 0.000754
# 5 -0.003545 0.003913 -0.000756 0.000000 0.031220 0.000000
# 6 0.000000 0.000000 0.000000 0.000754 0.000000 0.043320
#
#
# Mechanical properties :
#
#
# Convention : Reuss Voigt Hill
#
# Bulk Modulus (GPa) = 36.38539 39.85571 38.12055
# Shear Modulus (GPa) = 26.28422 28.90130 27.59276
#
# Velocity S-wave (km/s) = 3.86955 4.05762 3.96470
# Velocity P-wave (km/s) = 6.37905 6.68260 6.53259
#
# Compressibility (1/GPa) = 0.02748356
#
# Stress axis : x y z
#
# Youngs Moduli (GPa) = 70.20283 70.46534 59.80786
#
# Poissons Ratio (x) = 0.32093 0.38337
# Poissons Ratio (y) = 0.31974 -0.12729
# Poissons Ratio (z) = 0.45000 -0.14997
#
# Static dielectric constant tensor:
#      x y z
#    x 1.626450 0.000000 -0.025550 
#    y 0.000000 1.612350 0.000000 
#    z -0.025550 0.000000 1.681200 
# 
# From -- ./inp_files/217127.got.cif
#   From: 2010.05.17/outbox.cif.g08.bks.cpg/sg15_109_cif.got.tgz:217127.got - 2010.06.03 18:47:42.
