data_PCOD9268051
_publ_section_title
;
Structure prediction by ZEFSAII (Michael W. Deem and Ramdas Pophale) SiO2 
 PCOD9268051
Probable space group: C 2/C
;
_chemical_formula_sum "Si O2"
_cell_formula_units_Z 44
_cell_length_a 29.686160
_cell_length_b 8.384182
_cell_length_c 14.280664
_cell_angle_alpha 90.000000
_cell_angle_beta 146.320199
_cell_angle_gamma 90.000000
_cell_volume 1971.081994
_symmetry_space_group_name_H-M "C 2/C"
_symmetry_group_IT_number 15
_symmetry_cell_setting 'monoclinic'
loop_
_space_group_symop_operation_xyz
x,y,z
-x,y,1/2-z
-x,-y,-z
x,-y,1/2+z
1/2+x,1/2+y,z
1/2-x,1/2+y,1/2-z
1/2-x,1/2-y,-z
1/2+x,1/2-y,1/2+z
loop_
_atom_site_type_symbol
_atom_site_label
_atom_site_fract_x
_atom_site_fract_y
_atom_site_fract_z
Si Si1 0.060100 0.335054 0.515806
Si Si2 0.500000 0.669764 0.750000
Si Si3 0.619013 0.103001 0.760600
Si Si4 0.643057 0.543590 0.580195
Si Si5 0.614112 0.056343 0.440249
Si Si6 0.726329 0.766698 0.286918
O O1 0.093472 0.451660 0.653111
O O2 0.113249 0.176586 0.601245
O O3 0.069771 0.433524 0.435021
O O4 0.965226 0.302467 0.369206
O O5 0.436958 0.555970 0.587696
O O6 0.442427 0.801479 0.700995
O O7 0.684341 0.195429 0.812514
O O8 0.647599 0.039820 0.910067
O O9 0.707935 0.416012 0.729895
O O10 0.686664 0.647356 0.573929
O O11 0.674851 0.147089 0.614567
#
# Coordination Sequence:
#
# PCOD9268051 Si02
#       6
#     8   4   8   8   8   8
#     4  10  21  37  67  93 131 170 218 266 325 384
#     4  10  22  38  70  98 128 176 226 260 326 394
#     4  10  20  38  69  97 127 172 222 268 326 391
#     4  11  24  45  66  97 135 179 215 274 328 394
#     4  10  19  41  68  94 129 176 213 272 326 392
#     4  10  23  43  64  93 137 172 218 272 334 379
#
# _framework density 22.322762999999998
#
# number of rings (size 3 to 8) (size 9 to 14) (size 15 to 20)
#    0.000    1.818    1.818    2.182    5.091    0.727 
#    0.000   11.818    0.000    0.000    0.000    0.000 
#    0.000    0.000    0.000    0.000    0.000    0.000 
#
# Total GULP energy -122774.024950 kJ/mol
# GULP energy per Si atom -5580.637498 kJ/mol
# Density = 2.227196 g / cm^3
# Si number density = 22.322763 Si / 1000 Ang^3
#
#
#
# Elastic Constant Matrix: (Units=GPa)
#
#
# Indices 1 2 3 4 5 6 
#
# 1 138.9607 60.7901 26.2776 0.0000 -5.5501 0.0000
# 2 60.7901 116.8882 35.7685 0.0000 10.7235 0.0000
# 3 26.2776 35.7685 86.4572 0.0000 -5.7248 0.0000
# 4 0.0000 0.0000 0.0000 30.1151 0.0000 10.6545
# 5 -5.5501 10.7235 -5.7248 0.0000 32.2991 0.0000
# 6 0.0000 0.0000 0.0000 10.6545 0.0000 37.5471
#
#
#
# Elastic Compliance Matrix: (Units=1/GPa)
#
#
# Indices 1 2 3 4 5 6 
#
# 1 0.009698 -0.005162 -0.000595 0.000000 0.003275 0.000000
# 2 -0.005162 0.013087 -0.004241 0.000000 -0.005984 0.000000
# 3 -0.000595 -0.004241 0.013750 0.000000 0.003743 0.000000
# 4 0.000000 0.000000 0.000000 0.036912 0.000000 -0.010474
# 5 0.003275 -0.005984 0.003743 0.000000 0.034173 0.000000
# 6 0.000000 0.000000 0.000000 -0.010474 0.000000 0.029605
#
#
# Mechanical properties :
#
#
# Convention : Reuss Voigt Hill
#
# Bulk Modulus (GPa) = 60.46908 65.33096 62.90002
# Shear Modulus (GPa) = 30.72507 34.62357 32.67432
#
# Velocity S-wave (km/s) = 3.71401 3.94260 3.83001
# Velocity P-wave (km/s) = 6.74827 7.07499 6.91356
#
# Compressibility (1/GPa) = 0.01653738
#
# Stress axis : x y z
#
# Youngs Moduli (GPa) = 103.11720 76.41451 72.72782
#
# Poissons Ratio (x) = 0.39444 0.04329
# Poissons Ratio (y) = 0.53227 0.30847
# Poissons Ratio (z) = 0.06137 0.32411
#
# Static dielectric constant tensor:
#      x y z
#    x 1.804930 0.000000 0.056140 
#    y 0.000000 1.812490 0.000000 
#    z 0.056140 0.000000 1.913960 
# 
# From -- ./inp_files/180610.got.cif
#   From: 2010.05.17/outbox.cif.g08.bks.cpg/sg15_91_cif.got.tgz:180610.got - 2010.06.03 18:47:42.
