data_PCOD9268694
_publ_section_title
;
Structure prediction by ZEFSAII (Michael W. Deem and Ramdas Pophale) SiO2 
 PCOD9268694
Probable space group: C 2/C
;
_chemical_formula_sum "Si O2"
_cell_formula_units_Z 64
_cell_length_a 19.525700
_cell_length_b 9.895224
_cell_length_c 13.674028
_cell_angle_alpha 90.000000
_cell_angle_beta 116.883272
_cell_angle_gamma 90.000000
_cell_volume 2356.455680
_symmetry_space_group_name_H-M "C 2/C"
_symmetry_group_IT_number 15
_symmetry_cell_setting 'monoclinic'
loop_
_space_group_symop_operation_xyz
x,y,z
-x,y,1/2-z
-x,-y,-z
x,-y,1/2+z
1/2+x,1/2+y,z
1/2-x,1/2+y,1/2-z
1/2-x,1/2-y,-z
1/2+x,1/2-y,1/2+z
loop_
_atom_site_type_symbol
_atom_site_label
_atom_site_fract_x
_atom_site_fract_y
_atom_site_fract_z
Si Si1 0.659930 0.867981 0.297150
Si Si2 0.650072 0.046134 0.486905
Si Si3 0.375286 0.654694 0.501084
Si Si4 0.216394 0.701181 0.081838
Si Si5 0.085343 0.873600 0.965538
Si Si6 0.048527 0.164329 0.661438
Si Si7 0.084734 0.887755 0.701667
Si Si8 0.026969 0.467797 0.656779
O O1 0.743532 0.809218 0.319767
O O2 0.624179 0.719250 0.298549
O O3 0.662994 0.977279 0.387185
O O4 0.595895 0.927409 0.182213
O O5 0.667112 0.206145 0.500894
O O6 0.556800 0.034750 0.449940
O O7 0.709449 0.958574 0.592125
O O8 0.356779 0.498650 0.514814
O O9 0.456359 0.668657 0.612982
O O10 0.384865 0.649477 0.388284
O O11 0.127694 0.734227 0.007843
O O12 0.250000 0.750000 0.000000
O O13 0.055029 0.891281 0.056257
O O14 0.006698 0.869415 0.857212
O O15 0.067558 0.320684 0.682936
O O16 0.095323 0.043238 0.741018
O O17 0.000000 0.498710 0.750000
#
# Coordination Sequence:
#
# PCOD9268694 Si02
#       8
#     8   8   8   8   8   8   8   8
#     4  10  20  33  48  75 113 143 179 227 266 312
#     4   9  18  35  55  76 107 144 177 216 268 325
#     4   8  16  33  58  82 104 136 182 225 270 329
#     4  10  21  36  49  71 108 146 180 218 262 320
#     4   9  17  34  58  78 103 143 182 220 268 325
#     4   8  16  32  55  83 109 134 176 226 274 326
#     4   9  17  33  57  83 105 133 179 232 273 317
#     4   9  17  32  53  80 110 141 177 224 272 320
#
# _framework density 27.159434000000001
#
# number of rings (size 3 to 8) (size 9 to 14) (size 15 to 20)
#    0.000    3.000    0.000    2.250    0.000    2.000 
#    0.000   24.375    0.000    0.000    0.000    1.750 
#    0.000    0.000    0.000    0.000    0.000    0.000 
#
# Total GULP energy -178186.605246 kJ/mol
# GULP energy per Si atom -5568.331414 kJ/mol
# Density = 2.709762 g / cm^3
# Si number density = 27.159434 Si / 1000 Ang^3
#
#
#
# Elastic Constant Matrix: (Units=GPa)
#
#
# Indices 1 2 3 4 5 6 
#
# 1 36.2096 20.6476 18.9299 0.0000 -2.9507 0.0000
# 2 20.6476 201.6390 28.3290 0.0000 17.9781 0.0000
# 3 18.9299 28.3290 94.1563 0.0000 -5.2098 0.0000
# 4 0.0000 0.0000 0.0000 37.7176 0.0000 11.0391
# 5 -2.9507 17.9781 -5.2098 0.0000 32.5753 0.0000
# 6 0.0000 0.0000 0.0000 11.0391 0.0000 40.3807
#
#
#
# Elastic Compliance Matrix: (Units=1/GPa)
#
#
# Indices 1 2 3 4 5 6 
#
# 1 0.032403 -0.002879 -0.005446 0.000000 0.003653 0.000000
# 2 -0.002879 0.005772 -0.001361 0.000000 -0.003664 0.000000
# 3 -0.005446 -0.001361 0.012248 0.000000 0.002216 0.000000
# 4 0.000000 0.000000 0.000000 0.028819 0.000000 -0.007878
# 5 0.003653 -0.003664 0.002216 0.000000 0.033405 0.000000
# 6 0.000000 0.000000 0.000000 -0.007878 0.000000 0.026918
#
#
# Mechanical properties :
#
#
# Convention : Reuss Voigt Hill
#
# Bulk Modulus (GPa) = 32.20433 51.97977 42.09205
# Shear Modulus (GPa) = 29.53563 39.74127 34.63845
#
# Velocity S-wave (km/s) = 3.30129 3.82941 3.57511
# Velocity P-wave (km/s) = 5.13951 6.22357 5.70734
#
# Compressibility (1/GPa) = 0.03105173
#
# Stress axis : x y z
#
# Youngs Moduli (GPa) = 30.86097 173.25177 81.64833
#
# Poissons Ratio (x) = 0.49872 0.44469
# Poissons Ratio (y) = 0.08884 0.11109
# Poissons Ratio (z) = 0.16808 0.23573
#
# Static dielectric constant tensor:
#      x y z
#    x 2.257220 0.000000 -0.045050 
#    y 0.000000 2.181760 0.000000 
#    z -0.045050 0.000000 2.293710 
# 
# From -- ./inp_files/255067.got.cif
#   From: 2010.05.17/outbox.cif.g08.bks.cpg/sg15_128_cif.got.tgz:255067.got - 2010.06.03 18:47:42.
