data_PCOD9268901
_publ_section_title
;
Structure prediction by ZEFSAII (Michael W. Deem and Ramdas Pophale) SiO2 
 PCOD9268901
Probable space group: C 2/C
;
_chemical_formula_sum "Si O2"
_cell_formula_units_Z 52
_cell_length_a 19.057771
_cell_length_b 27.613018
_cell_length_c 5.346474
_cell_angle_alpha 90.000000
_cell_angle_beta 66.530129
_cell_angle_gamma 90.000000
_cell_volume 2580.776847
_symmetry_space_group_name_H-M "C 2/C"
_symmetry_group_IT_number 15
_symmetry_cell_setting 'monoclinic'
loop_
_space_group_symop_operation_xyz
x,y,z
-x,y,1/2-z
-x,-y,-z
x,-y,1/2+z
1/2+x,1/2+y,z
1/2-x,1/2+y,1/2-z
1/2-x,1/2-y,-z
1/2+x,1/2-y,1/2+z
loop_
_atom_site_type_symbol
_atom_site_label
_atom_site_fract_x
_atom_site_fract_y
_atom_site_fract_z
Si Si1 0.283851 0.328717 0.354927
Si Si2 0.684096 0.758104 0.299500
Si Si3 0.916762 0.468263 0.396676
Si Si4 0.359970 0.402003 0.553925
Si Si5 0.583618 0.312597 0.737130
Si Si6 0.248385 0.467581 0.978652
Si Si7 0.500000 0.531460 0.750000
O O1 0.301581 0.284150 0.517761
O O2 0.201234 0.312102 0.369497
O O3 0.293614 0.380179 0.471801
O O4 0.350280 0.325586 0.055037
O O5 0.603673 0.741444 0.302470
O O6 0.750000 0.750000 0.000000
O O7 0.915887 0.489908 0.680086
O O8 0.835425 0.443597 0.449311
O O9 0.000000 0.443436 0.250000
O O10 0.406074 0.354444 0.573189
O O11 0.316882 0.430143 0.836539
O O12 0.422816 0.436929 0.348422
O O13 0.500000 0.315258 0.750000
O O14 0.253892 0.506407 0.740165
O O15 0.500000 0.500000 0.500000
#
# Coordination Sequence:
#
# PCOD9268901 Si02
#       7
#     8   8   8   8   8   8   4
#     4   9  18  33  56  79 111 140 191 239 296 354
#     4   8  16  33  53  82 108 137 173 237 291 354
#     4   8  14  27  48  73  97 122 163 226 287 339
#     4  11  23  35  54  77 110 163 207 254 296 352
#     4  10  20  33  55  84 116 145 196 240 294 363
#     4  10  21  35  52  76 111 146 199 248 293 345
#     4  12  28  42  56  76 122 180 222 272 316 352
#
# _framework density 20.148969999999998
#
# number of rings (size 3 to 8) (size 9 to 14) (size 15 to 20)
#    0.000    2.462    0.000    1.846    5.385    1.846 
#    0.000    0.000    0.000    0.000    0.000   49.538 
#    0.000    0.000    0.000    0.000    0.000    1.231 
#
# Total GULP energy -144764.128592 kJ/mol
# GULP energy per Si atom -5567.851100 kJ/mol
# Density = 2.010311 g / cm^3
# Si number density = 20.148970 Si / 1000 Ang^3
#
#
#
# Elastic Constant Matrix: (Units=GPa)
#
#
# Indices 1 2 3 4 5 6 
#
# 1 87.1988 44.8949 1.6078 0.0000 -12.0589 0.0000
# 2 44.8949 74.6494 30.7510 0.0000 -3.5829 0.0000
# 3 1.6078 30.7510 73.6103 0.0000 7.5325 0.0000
# 4 0.0000 0.0000 0.0000 16.2173 0.0000 -4.8455
# 5 -12.0589 -3.5829 7.5325 0.0000 34.5992 0.0000
# 6 0.0000 0.0000 0.0000 -4.8455 0.0000 29.9053
#
#
#
# Elastic Compliance Matrix: (Units=1/GPa)
#
#
# Indices 1 2 3 4 5 6 
#
# 1 0.018566 -0.012832 0.004530 0.000000 0.004156 0.000000
# 2 -0.012832 0.025408 -0.010377 0.000000 0.000418 0.000000
# 3 0.004530 -0.010377 0.018174 0.000000 -0.003452 0.000000
# 4 0.000000 0.000000 0.000000 0.064800 0.000000 0.010499
# 5 0.004156 0.000418 -0.003452 0.000000 0.031146 0.000000
# 6 0.000000 0.000000 0.000000 0.010499 0.000000 0.035140
#
#
# Mechanical properties :
#
#
# Convention : Reuss Voigt Hill
#
# Bulk Modulus (GPa) = 40.33866 43.32955 41.83410
# Shear Modulus (GPa) = 20.93311 26.69135 23.81223
#
# Velocity S-wave (km/s) = 3.22672 3.64359 3.44147
# Velocity P-wave (km/s) = 5.82632 6.26517 6.04972
#
# Compressibility (1/GPa) = 0.02479011
#
# Stress axis : x y z
#
# Youngs Moduli (GPa) = 53.86156 39.35741 55.02268
#
# Poissons Ratio (x) = 0.50505 -0.24925
# Poissons Ratio (y) = 0.69118 0.57096
# Poissons Ratio (z) = -0.24399 0.40840
#
# Static dielectric constant tensor:
#      x y z
#    x 1.636070 0.000000 0.597260 
#    y 0.000000 1.750100 0.000000 
#    z 0.597260 0.000000 0.288750 
# 
# From -- ./inp_files/13848.got.cif
#   From: 2010.05.17/outbox.cif.g08.bks.cpg/sg15_7_cif.got.tgz:13848.got - 2010.06.03 18:47:42.
