data_PCOD9268269
_publ_section_title
;
Structure prediction by ZEFSAII (Michael W. Deem and Ramdas Pophale) SiO2 
 PCOD9268269
Probable space group: C 2/C
;
_chemical_formula_sum "Si O2"
_cell_formula_units_Z 60
_cell_length_a 5.777820
_cell_length_b 24.972852
_cell_length_c 21.766518
_cell_angle_alpha 90.000000
_cell_angle_beta 73.409323
_cell_angle_gamma 90.000000
_cell_volume 3009.912639
_symmetry_space_group_name_H-M "C 2/C"
_symmetry_group_IT_number 15
_symmetry_cell_setting 'monoclinic'
loop_
_space_group_symop_operation_xyz
x,y,z
-x,y,1/2-z
-x,-y,-z
x,-y,1/2+z
1/2+x,1/2+y,z
1/2-x,1/2+y,1/2-z
1/2-x,1/2-y,-z
1/2+x,1/2-y,1/2+z
loop_
_atom_site_type_symbol
_atom_site_label
_atom_site_fract_x
_atom_site_fract_y
_atom_site_fract_z
Si Si1 0.851816 0.492601 0.174123
Si Si2 0.756784 0.695077 0.575443
Si Si3 0.348785 0.468278 0.677460
Si Si4 0.970594 0.311922 0.932091
Si Si5 0.425544 0.736154 0.366702
Si Si6 0.697061 0.851539 0.681902
Si Si7 0.500000 0.207293 0.750000
Si Si8 0.713255 0.624162 0.689019
O O1 0.752278 0.510598 0.249025
O O2 0.622059 0.509646 0.148811
O O3 0.872656 0.428487 0.167571
O O4 0.123793 0.516391 0.149273
O O5 0.835732 0.671773 0.504080
O O6 0.606923 0.749566 0.574756
O O7 0.994490 0.717922 0.592412
O O8 0.641148 0.651981 0.630248
O O9 0.359164 0.404029 0.677585
O O10 0.912900 0.348226 0.878061
O O11 0.256981 0.305468 0.914496
O O12 0.655997 0.703356 0.325532
O O13 0.330676 0.759524 0.309490
O O14 0.500000 0.854065 0.750000
O O15 0.344642 0.170051 0.717754
O O16 0.500000 0.605809 0.750000
#
# Coordination Sequence:
#
# PCOD9268269 Si02
#       8
#     8   8   8   8   8   8   4   8
#     4  10  20  35  57  83 119 147 197 239 301 355
#     4   9  21  37  54  81 113 154 193 232 289 349
#     4  10  20  36  56  87 115 155 187 249 295 355
#     4  10  20  37  55  77 117 153 192 236 282 362
#     4  10  20  33  54  81 113 151 190 235 290 353
#     4  11  22  33  56  85 114 146 195 238 299 343
#     4  10  20  30  48  82 116 136 182 242 294 332
#     4  11  20  33  57  83 109 146 189 242 293 351
#
# _framework density 19.934132999999999
#
# number of rings (size 3 to 8) (size 9 to 14) (size 15 to 20)
#    0.000    1.867    2.667    2.800    1.867    4.800 
#    0.000    0.000    0.000    1.600    0.000    0.000 
#    0.000    0.000    0.000    0.000    0.000    0.000 
#
# Total GULP energy -167106.425614 kJ/mol
# GULP energy per Si atom -5570.214187 kJ/mol
# Density = 1.988876 g / cm^3
# Si number density = 19.934133 Si / 1000 Ang^3
#
#
#
# Elastic Constant Matrix: (Units=GPa)
#
#
# Indices 1 2 3 4 5 6 
#
# 1 69.0445 -1.8473 15.8156 0.0000 -1.4368 0.0000
# 2 -1.8473 57.3019 23.0101 0.0000 7.9133 0.0000
# 3 15.8156 23.0101 92.3114 0.0000 5.8937 0.0000
# 4 0.0000 0.0000 0.0000 -1.6230 0.0000 0.0722
# 5 -1.4368 7.9133 5.8937 0.0000 15.2485 0.0000
# 6 0.0000 0.0000 0.0000 0.0722 0.0000 21.2242
#
#
#
# Elastic Compliance Matrix: (Units=1/GPa)
#
#
# Indices 1 2 3 4 5 6 
#
# 1 0.015273 0.001481 -0.003105 0.000000 0.001871 0.000000
# 2 0.001481 0.020646 -0.004845 0.000000 -0.008703 0.000000
# 3 -0.003105 -0.004845 0.012745 0.000000 -0.002705 0.000000
# 4 0.000000 0.000000 0.000000 -0.616056 0.000000 0.002095
# 5 0.001871 -0.008703 -0.002705 0.000000 0.071318 0.000000
# 6 0.000000 0.000000 0.000000 0.002095 0.000000 0.047109
#
#
# Mechanical properties :
#
#
# Convention : Reuss Voigt Hill
#
# Bulk Modulus (GPa) = 27.98998 32.51273 30.25136
# Shear Modulus (GPa) = -11.78918 19.08190 3.64636
#
# Velocity S-wave (km/s) = -2.43452 3.09730 1.35395
# Velocity P-wave (km/s) = 2.48378 5.39782 4.20153
#
# Compressibility (1/GPa) = 0.03572706
#
# Stress axis : x y z
#
# Youngs Moduli (GPa) = 65.47381 48.43468 78.46095
#
# Poissons Ratio (x) = -0.07173 0.24365
# Poissons Ratio (y) = -0.09697 0.38011
# Poissons Ratio (z) = 0.20332 0.23464
#
# Static dielectric constant tensor:
#      x y z
#    x 1.838280 0.000000 -0.013650 
#    y 0.000000 1.694460 0.000000 
#    z -0.013650 0.000000 1.721970 
# 
# From -- ./inp_files/261656.got.cif
#   From: 2010.05.17/outbox.cif.g08.bks.cpg/sg15_131_cif.got.tgz:261656.got - 2010.06.03 18:47:42.
