data_PCOD9268835
_publ_section_title
;
Structure prediction by ZEFSAII (Michael W. Deem and Ramdas Pophale) SiO2 
 PCOD9268835
Probable space group: C 2/C
;
_chemical_formula_sum "Si O2"
_cell_formula_units_Z 48
_cell_length_a 21.095843
_cell_length_b 6.444367
_cell_length_c 21.099290
_cell_angle_alpha 90.000000
_cell_angle_beta 115.600814
_cell_angle_gamma 90.000000
_cell_volume 2586.830244
_symmetry_space_group_name_H-M "C 2/C"
_symmetry_group_IT_number 15
_symmetry_cell_setting 'monoclinic'
loop_
_space_group_symop_operation_xyz
x,y,z
-x,y,1/2-z
-x,-y,-z
x,-y,1/2+z
1/2+x,1/2+y,z
1/2-x,1/2+y,1/2-z
1/2-x,1/2-y,-z
1/2+x,1/2-y,1/2+z
loop_
_atom_site_type_symbol
_atom_site_label
_atom_site_fract_x
_atom_site_fract_y
_atom_site_fract_z
Si Si1 0.683448 0.520737 0.287804
Si Si2 0.096553 0.641599 0.205719
Si Si3 0.421316 0.183588 0.691673
Si Si4 0.948957 0.194666 0.463653
Si Si5 0.461902 0.982608 0.582469
Si Si6 0.681276 0.200237 0.667448
O O1 0.630732 0.359868 0.232515
O O2 0.637948 0.646642 0.319029
O O3 0.705850 0.677258 0.240979
O O4 0.750687 0.388278 0.338962
O O5 0.094998 0.511349 0.269940
O O6 0.139052 0.500565 0.174334
O O7 0.018216 0.654117 0.145568
O O8 0.500000 0.252583 0.750000
O O9 0.421246 0.107548 0.619353
O O10 0.928633 0.325793 0.517728
O O11 0.875142 0.161696 0.395262
O O12 0.995833 0.346196 0.439927
O O13 0.000000 0.000000 0.500000
#
# Coordination Sequence:
#
# PCOD9268835 Si02
#       6
#     8   8   8   8   8   8
#     4  11  19  33  56  82 111 145 175 238 282 329
#     4   9  18  33  54  79 109 143 178 229 278 319
#     4   9  20  34  52  82 111 141 183 226 280 336
#     4  10  20  35  56  79 107 151 187 232 273 328
#     4   9  19  36  53  78 111 143 187 231 272 328
#     4  10  20  33  53  84 110 138 192 223 277 336
#
# _framework density 18.555527000000001
#
# number of rings (size 3 to 8) (size 9 to 14) (size 15 to 20)
#    0.000    2.333    1.667    2.000    0.000    3.333 
#    0.000    0.833    0.000    2.000    0.000    0.000 
#    0.000    0.000    0.000    0.000    0.000    0.000 
#
# Total GULP energy -133698.771875 kJ/mol
# GULP energy per Si atom -5570.782161 kJ/mol
# Density = 1.851329 g / cm^3
# Si number density = 18.555527 Si / 1000 Ang^3
#
#
#
# Elastic Constant Matrix: (Units=GPa)
#
#
# Indices 1 2 3 4 5 6 
#
# 1 93.8657 36.7405 37.7313 0.0000 -3.4576 0.0000
# 2 36.7405 43.6882 25.3532 0.0000 -0.0800 -0.0001
# 3 37.7313 25.3532 75.6144 0.0000 -5.1010 0.0000
# 4 0.0000 0.0000 0.0000 21.3866 0.0000 7.4103
# 5 -3.4576 -0.0800 -5.1010 0.0000 24.6641 0.0000
# 6 0.0000 -0.0001 0.0000 7.4103 0.0000 30.2426
#
#
#
# Elastic Compliance Matrix: (Units=1/GPa)
#
#
# Indices 1 2 3 4 5 6 
#
# 1 0.017130 -0.011794 -0.004497 0.000000 0.001433 0.000000
# 2 -0.011794 0.036628 -0.006592 0.000000 -0.002898 0.000000
# 3 -0.004497 -0.006592 0.017885 0.000000 0.003047 0.000000
# 4 0.000000 0.000000 0.000000 0.051096 0.000000 -0.012520
# 5 0.001433 -0.002898 0.003047 0.000000 0.041366 0.000000
# 6 0.000000 0.000000 0.000000 -0.012520 0.000000 0.036134
#
#
# Mechanical properties :
#
#
# Convention : Reuss Voigt Hill
#
# Bulk Modulus (GPa) = 38.64268 45.86871 42.25570
# Shear Modulus (GPa) = 19.63641 22.81488 21.22565
#
# Velocity S-wave (km/s) = 3.25661 3.51029 3.38583
# Velocity P-wave (km/s) = 5.91703 6.41895 6.17309
#
# Compressibility (1/GPa) = 0.02587812
#
# Stress axis : x y z
#
# Youngs Moduli (GPa) = 58.37655 27.30183 55.91416
#
# Poissons Ratio (x) = 0.32199 0.25144
# Poissons Ratio (y) = 0.68848 0.36856
# Poissons Ratio (z) = 0.26251 0.17996
#
# Static dielectric constant tensor:
#      x y z
#    x 1.663820 0.000000 0.006810 
#    y 0.000000 1.639230 0.000000 
#    z 0.006810 0.000000 1.661260 
# 
# From -- ./inp_files/254110.got.cif
#   From: 2010.05.17/outbox.cif.g08.bks.cpg/sg15_128_cif.got.tgz:254110.got - 2010.06.03 18:47:42.
