data_PCOD9268381
_publ_section_title
;
Structure prediction by ZEFSAII (Michael W. Deem and Ramdas Pophale) SiO2 
 PCOD9268381
Probable space group: C 2/C
;
_chemical_formula_sum "Si O2"
_cell_formula_units_Z 48
_cell_length_a 10.432408
_cell_length_b 21.376341
_cell_length_c 9.704437
_cell_angle_alpha 90.000000
_cell_angle_beta 95.800576
_cell_angle_gamma 90.000000
_cell_volume 2153.073440
_symmetry_space_group_name_H-M "C 2/C"
_symmetry_group_IT_number 15
_symmetry_cell_setting 'monoclinic'
loop_
_space_group_symop_operation_xyz
x,y,z
-x,y,1/2-z
-x,-y,-z
x,-y,1/2+z
1/2+x,1/2+y,z
1/2-x,1/2+y,1/2-z
1/2-x,1/2-y,-z
1/2+x,1/2-y,1/2+z
loop_
_atom_site_type_symbol
_atom_site_label
_atom_site_fract_x
_atom_site_fract_y
_atom_site_fract_z
Si Si1 0.695386 0.286281 0.331471
Si Si2 0.121078 0.341926 0.330424
Si Si3 0.845526 0.960361 0.748736
Si Si4 0.029069 0.247221 0.538735
Si Si5 0.133159 0.117235 0.496481
Si Si6 0.637799 0.574578 0.941169
O O1 0.835924 0.290295 0.279212
O O2 0.621028 0.244890 0.436844
O O3 0.610924 0.267869 0.186138
O O4 0.670534 0.355881 0.391869
O O5 0.082158 0.305829 0.463851
O O6 0.249898 0.378048 0.383991
O O7 0.000000 0.376666 0.250000
O O8 0.803624 0.907318 0.636582
O O9 0.000000 0.955074 0.750000
O O10 0.816467 0.025257 0.668071
O O11 0.809073 0.945660 0.902109
O O12 0.062031 0.183274 0.460560
O O13 0.018469 0.075391 0.551303
#
# Coordination Sequence:
#
# PCOD9268381 Si02
#       6
#     8   8   8   8   8   8
#     4   9  19  36  58  84 123 151 195 257 303 353
#     4  11  23  37  58  86 118 173 210 240 301 369
#     4  10  20  31  55  96 119 149 193 249 316 372
#     4   9  19  35  59  83 113 161 195 253 314 348
#     4   9  18  35  54  83 128 152 192 256 305 359
#     4  10  21  33  60  96 119 151 194 254 327 358
#
# _framework density 22.293711999999999
#
# number of rings (size 3 to 8) (size 9 to 14) (size 15 to 20)
#    0.000    2.333    0.000    5.000   11.667    4.000 
#    0.000    3.333    0.000    1.000    0.000    0.000 
#    0.000    0.000    0.000    0.000    0.000    0.000 
#
# Total GULP energy -133674.744183 kJ/mol
# GULP energy per Si atom -5569.781008 kJ/mol
# Density = 2.224297 g / cm^3
# Si number density = 22.293712 Si / 1000 Ang^3
#
#
#
# Elastic Constant Matrix: (Units=GPa)
#
#
# Indices 1 2 3 4 5 6 
#
# 1 61.4155 -8.7560 3.7522 0.0000 -7.3274 0.0000
# 2 -8.7560 46.3626 40.9757 0.0000 -8.1497 0.0000
# 3 3.7522 40.9757 146.7453 0.0000 -20.4777 0.0000
# 4 0.0000 0.0000 0.0000 37.0309 0.0000 -6.4200
# 5 -7.3274 -8.1497 -20.4777 0.0000 26.9975 0.0000
# 6 0.0000 0.0000 0.0000 -6.4200 0.0000 1.0969
#
#
#
# Elastic Compliance Matrix: (Units=1/GPa)
#
#
# Indices 1 2 3 4 5 6 
#
# 1 0.017784 0.005380 -0.001182 0.000000 0.005554 0.000000
# 2 0.005380 0.030466 -0.008005 0.000000 0.004585 0.000000
# 3 -0.001182 -0.008005 0.009728 0.000000 0.004641 0.000000
# 4 0.000000 0.000000 0.000000 -1.834097 0.000000-10.734975
# 5 0.005554 0.004585 0.004641 0.000000 0.043453 0.000000
# 6 0.000000 0.000000 0.000000-10.734975 0.000000-61.920166
#
#
# Mechanical properties :
#
#
# Convention : Reuss Voigt Hill
#
# Bulk Modulus (GPa) = 19.85551 36.27414 28.06483
# Shear Modulus (GPa) = -0.07858 27.59516 13.75829
#
# Velocity S-wave (km/s) = -0.18795 3.52205 2.48692
# Velocity P-wave (km/s) = 2.97969 5.73116 4.56753
#
# Compressibility (1/GPa) = 0.05036386
#
# Stress axis : x y z
#
# Youngs Moduli (GPa) = 56.22910 32.82388 102.80078
#
# Poissons Ratio (x) = -0.17658 0.12149
# Poissons Ratio (y) = -0.30249 0.82288
# Poissons Ratio (z) = 0.06645 0.26274
#
# Static dielectric constant tensor:
#      x y z
#    x 1.886870 0.000000 0.037680 
#    y 0.000000 1.896460 0.000000 
#    z 0.037680 0.000000 1.962720 
# 
# From -- ./inp_files/32051.got.cif
#   From: 2010.05.17/outbox.cif.g08.bks.cpg/sg15_17_cif.got.tgz:32051.got - 2010.06.03 18:47:42.
