data_PCOD9268716
_publ_section_title
;
Structure prediction by ZEFSAII (Michael W. Deem and Ramdas Pophale) SiO2 
 PCOD9268716
Probable space group: C 2/C
;
_chemical_formula_sum "Si O2"
_cell_formula_units_Z 64
_cell_length_a 30.432211
_cell_length_b 14.395600
_cell_length_c 8.201742
_cell_angle_alpha 90.000000
_cell_angle_beta 64.425648
_cell_angle_gamma 90.000000
_cell_volume 3241.069674
_symmetry_space_group_name_H-M "C 2/C"
_symmetry_group_IT_number 15
_symmetry_cell_setting 'monoclinic'
loop_
_space_group_symop_operation_xyz
x,y,z
-x,y,1/2-z
-x,-y,-z
x,-y,1/2+z
1/2+x,1/2+y,z
1/2-x,1/2+y,1/2-z
1/2-x,1/2-y,-z
1/2+x,1/2-y,1/2+z
loop_
_atom_site_type_symbol
_atom_site_label
_atom_site_fract_x
_atom_site_fract_y
_atom_site_fract_z
Si Si1 0.639247 0.765347 0.868805
Si Si2 0.832123 0.552826 0.048423
Si Si3 0.720010 0.637153 0.861066
Si Si4 0.138153 0.182625 0.509263
Si Si5 0.053600 0.863315 0.608952
Si Si6 0.447009 0.447195 0.252627
Si Si7 0.782088 0.945610 0.773589
Si Si8 0.333714 0.137580 0.686436
O O1 0.639506 0.875634 0.882787
O O2 0.686369 0.725579 0.888225
O O3 0.643574 0.729783 0.677525
O O4 0.592475 0.717709 0.025970
O O5 0.774649 0.556771 0.186827
O O6 0.847321 0.446295 0.043520
O O7 0.837314 0.592328 0.858573
O O8 0.704153 0.554157 0.764676
O O9 0.776677 0.661342 0.747080
O O10 0.714370 0.593627 0.049676
O O11 0.090491 0.119054 0.593860
O O12 0.183405 0.116876 0.392591
O O13 0.136728 0.268306 0.385951
O O14 0.050155 0.913138 0.437547
O O15 0.000000 0.832074 0.750000
O O16 0.069985 0.945887 0.704274
O O17 0.500000 0.442777 0.250000
#
# Coordination Sequence:
#
# PCOD9268716 Si02
#       8
#     8   8   8   8   8   8   8   8
#     4  11  22  34  52  78 105 136 174 213 256 307
#     4  10  21  36  53  74 103 139 177 216 256 300
#     4  10  20  33  50  75 106 140 176 212 254 303
#     4  11  22  34  52  78 105 136 174 213 256 307
#     4  10  21  36  55  79 106 135 167 206 254 307
#     4  10  21  36  55  79 106 135 167 206 254 307
#     4  10  20  33  50  75 106 140 176 212 254 303
#     4  10  21  36  53  74 103 139 177 216 256 300
#
# _framework density 19.746566999999999
#
# number of rings (size 3 to 8) (size 9 to 14) (size 15 to 20)
#    0.000    1.750    0.000    5.250    0.000   12.000 
#    0.000    0.000    0.000    0.750    0.000    5.250 
#    0.000    0.000    0.000    0.000    0.000    0.000 
#
# Total GULP energy -178961.968986 kJ/mol
# GULP energy per Si atom -5592.561531 kJ/mol
# Density = 1.970162 g / cm^3
# Si number density = 19.746567 Si / 1000 Ang^3
#
#
#
# Elastic Constant Matrix: (Units=GPa)
#
#
# Indices 1 2 3 4 5 6 
#
# 1 16.4945 7.9472 7.7732 0.0000 0.6811 0.0000
# 2 7.9472 70.2114 22.9040 0.0000 -16.3172 0.0000
# 3 7.7732 22.9040 76.9323 0.0000 -13.7177 0.0000
# 4 0.0000 0.0000 0.0000 32.3169 0.0000 4.2296
# 5 0.6811 -16.3172 -13.7177 0.0000 16.6165 0.0000
# 6 0.0000 0.0000 0.0000 4.2296 0.0000 23.0440
#
#
#
# Elastic Compliance Matrix: (Units=1/GPa)
#
#
# Indices 1 2 3 4 5 6 
#
# 1 0.069608 -0.009773 -0.007439 0.000000 -0.018591 0.000000
# 2 -0.009773 0.020300 -0.001677 0.000000 0.018951 0.000000
# 3 -0.007439 -0.001677 0.016428 0.000000 0.012220 0.000000
# 4 0.000000 0.000000 0.000000 0.031705 0.000000 -0.005819
# 5 -0.018591 0.018951 0.012220 0.000000 0.089641 0.000000
# 6 0.000000 0.000000 0.000000 -0.005819 0.000000 0.044463
#
#
# Mechanical properties :
#
#
# Convention : Reuss Voigt Hill
#
# Bulk Modulus (GPa) = 14.58593 26.76522 20.67557
# Shear Modulus (GPa) = 15.02510 22.72972 18.87741
#
# Velocity S-wave (km/s) = 2.76143 3.39643 3.09525
# Velocity P-wave (km/s) = 4.19165 5.38189 4.82362
#
# Compressibility (1/GPa) = 0.06855924
#
# Stress axis : x y z
#
# Youngs Moduli (GPa) = 14.36615 49.26072 60.87048
#
# Poissons Ratio (x) = 0.48142 0.45279
# Poissons Ratio (y) = 0.14040 0.10209
# Poissons Ratio (z) = 0.10686 0.08262
#
# Static dielectric constant tensor:
#      x y z
#    x 1.684480 0.000000 0.036390 
#    y 0.000000 1.689700 0.000000 
#    z 0.036390 0.000000 1.723880 
# 
# From -- ./inp_files/69946.got.cif
#   From: 2010.05.17/outbox.cif.g08.bks.cpg/sg15_35_cif.got.tgz:69946.got - 2010.06.03 18:47:42.
