data_PCOD9268184
_publ_section_title
;
Structure prediction by ZEFSAII (Michael W. Deem and Ramdas Pophale) SiO2 
 PCOD9268184
Probable space group: C 2/C
;
_chemical_formula_sum "Si O2"
_cell_formula_units_Z 52
_cell_length_a 9.581658
_cell_length_b 14.198747
_cell_length_c 26.397983
_cell_angle_alpha 90.000000
_cell_angle_beta 40.903360
_cell_angle_gamma 90.000000
_cell_volume 2351.582636
_symmetry_space_group_name_H-M "C 2/C"
_symmetry_group_IT_number 15
_symmetry_cell_setting 'monoclinic'
loop_
_space_group_symop_operation_xyz
x,y,z
-x,y,1/2-z
-x,-y,-z
x,-y,1/2+z
1/2+x,1/2+y,z
1/2-x,1/2+y,1/2-z
1/2-x,1/2-y,-z
1/2+x,1/2-y,1/2+z
loop_
_atom_site_type_symbol
_atom_site_label
_atom_site_fract_x
_atom_site_fract_y
_atom_site_fract_z
Si Si1 0.675601 0.930187 0.972572
Si Si2 0.985385 0.096550 0.464783
Si Si3 0.000000 0.287538 0.750000
Si Si4 0.569560 0.212125 0.889555
Si Si5 0.011832 0.565929 0.166253
Si Si6 0.347391 0.140037 0.857315
Si Si7 0.724681 0.338387 0.661991
O O1 0.758285 0.873297 0.900831
O O2 0.867739 0.969728 0.955523
O O3 0.534885 0.870401 0.050524
O O4 0.500000 0.000000 0.000000
O O5 0.969194 0.194798 0.440060
O O6 0.234715 0.085600 0.406105
O O7 0.852194 0.107537 0.552793
O O8 0.821437 0.223844 0.824112
O O9 0.907063 0.361232 0.734842
O O10 0.507881 0.198573 0.848653
O O11 0.899626 0.599323 0.145096
O O12 0.018270 0.458198 0.185837
O O13 0.263676 0.221842 0.841719
O O14 0.500000 0.361145 0.750000
#
# Coordination Sequence:
#
# PCOD9268184 Si02
#       7
#     8   8   4   8   8   8   8
#     4  11  22  43  71 101 133 182 236 282 346 422
#     4  10  20  43  68  92 137 187 221 284 350 418
#     4  10  24  46  62  94 134 182 222 276 360 406
#     4  10  19  43  69  90 135 184 223 277 349 421
#     4  11  26  42  66  99 142 178 232 296 345 422
#     4  11  21  42  69  99 134 179 234 282 353 411
#     4  12  25  43  70 104 138 181 231 294 350 419
#
# _framework density 22.112769
#
# number of rings (size 3 to 8) (size 9 to 14) (size 15 to 20)
#    0.000    1.231    3.077    4.154    3.231    0.615 
#   11.077    0.000    0.000    0.000    0.000    0.000 
#    0.000    0.000    0.000    0.000    0.000    0.000 
#
# Total GULP energy -144802.766470 kJ/mol
# GULP energy per Si atom -5569.337172 kJ/mol
# Density = 2.206244 g / cm^3
# Si number density = 22.112769 Si / 1000 Ang^3
#
#
#
# Elastic Constant Matrix: (Units=GPa)
#
#
# Indices 1 2 3 4 5 6 
#
# 1 120.7249 47.7430 35.7644 0.0001 -12.5894 0.0002
# 2 47.7430 85.9835 23.5656 -0.0001 -19.3851 0.0002
# 3 35.7644 23.5656 86.7100 0.0006 -7.1347 0.0005
# 4 0.0001 -0.0001 0.0006 15.4679 0.0003 -3.1650
# 5 -12.5894 -19.3851 -7.1347 0.0003 32.3785 -0.0002
# 6 0.0002 0.0002 0.0005 -3.1650 -0.0002 29.5117
#
#
#
# Elastic Compliance Matrix: (Units=1/GPa)
#
#
# Indices 1 2 3 4 5 6 
#
# 1 0.011397 -0.005328 -0.003209 0.000000 0.000534 0.000000
# 2 -0.005328 0.016776 -0.001737 0.000000 0.007589 0.000000
# 3 -0.003209 -0.001737 0.013383 -0.000001 0.000661 0.000000
# 4 0.000000 0.000000 -0.000001 0.066101 -0.000001 0.007089
# 5 0.000534 0.007589 0.000661 -0.000001 0.035782 0.000000
# 6 0.000000 0.000000 0.000000 0.007089 0.000000 0.034645
#
#
# Mechanical properties :
#
#
# Convention : Reuss Voigt Hill
#
# Bulk Modulus (GPa) = 47.60287 56.39604 51.99945
# Shear Modulus (GPa) = 24.31516 27.89465 26.10491
#
# Velocity S-wave (km/s) = 3.31962 3.55557 3.43962
# Velocity P-wave (km/s) = 6.02222 6.51271 6.27226
#
# Compressibility (1/GPa) = 0.02100714
#
# Stress axis : x y z
#
# Youngs Moduli (GPa) = 87.74455 59.60978 74.72374
#
# Poissons Ratio (x) = 0.31762 0.23976
# Poissons Ratio (y) = 0.46753 0.12980
# Poissons Ratio (z) = 0.28154 0.10355
#
# Static dielectric constant tensor:
#      x y z
#    x 1.942850 0.000000 -0.001850 
#    y 0.000000 1.884870 0.000000 
#    z -0.001850 0.000000 1.824270 
# 
# From -- ./inp_files/308203.got.cif
#   From: 2010.05.17/outbox.cif.g08.bks.cpg/sg15_155_cif.got.tgz:308203.got - 2010.06.03 18:47:42.
