data_PCOD9268647
_publ_section_title
;
Structure prediction by ZEFSAII (Michael W. Deem and Ramdas Pophale) SiO2 
 PCOD9268647
Probable space group: C 2/C
;
_chemical_formula_sum "Si O2"
_cell_formula_units_Z 64
_cell_length_a 10.430339
_cell_length_b 16.645138
_cell_length_c 14.685336
_cell_angle_alpha 90.000000
_cell_angle_beta 91.538558
_cell_angle_gamma 90.000000
_cell_volume 2548.667098
_symmetry_space_group_name_H-M "C 2/C"
_symmetry_group_IT_number 15
_symmetry_cell_setting 'monoclinic'
loop_
_space_group_symop_operation_xyz
x,y,z
-x,y,1/2-z
-x,-y,-z
x,-y,1/2+z
1/2+x,1/2+y,z
1/2-x,1/2+y,1/2-z
1/2-x,1/2-y,-z
1/2+x,1/2-y,1/2+z
loop_
_atom_site_type_symbol
_atom_site_label
_atom_site_fract_x
_atom_site_fract_y
_atom_site_fract_z
Si Si1 0.511847 0.926531 0.431437
Si Si2 0.523832 0.338420 0.388308
Si Si3 0.638320 0.966218 0.800480
Si Si4 0.744170 0.460287 0.363380
Si Si5 0.564479 0.237313 0.563602
Si Si6 0.621841 0.560405 0.497310
Si Si7 0.808804 0.708230 0.173031
Si Si8 0.892031 0.829730 0.682293
O O1 0.381796 0.918013 0.369088
O O2 0.503136 0.841245 0.481153
O O3 0.500000 0.000000 0.500000
O O4 0.619821 0.955785 0.363093
O O5 0.622121 0.403745 0.350396
O O6 0.560357 0.308880 0.490526
O O7 0.391774 0.385119 0.411837
O O8 0.560443 0.258394 0.333375
O O9 0.500000 0.950603 0.750000
O O10 0.673738 0.884877 0.854014
O O11 0.741057 0.981411 0.722766
O O12 0.731739 0.500528 0.463444
O O13 0.707498 0.245472 0.606299
O O14 0.470219 0.253692 0.645838
O O15 0.500000 0.500000 0.500000
O O16 0.626052 0.617372 0.408143
O O17 0.735418 0.698883 0.268198
O O18 0.000000 0.869855 0.750000
#
# Coordination Sequence:
#
# PCOD9268647 Si02
#       8
#     8   8   8   8   8   8   8   8
#     4  11  23  37  59  90 126 154 198 250 309 371
#     4  10  20  32  61  86 114 152 201 249 296 360
#     4  10  23  37  58  84 122 163 199 248 314 374
#     4  10  20  37  57  83 118 161 192 245 310 359
#     4  10  21  35  57  92 118 151 203 254 303 359
#     4   9  18  36  54  81 117 154 195 239 304 359
#     4  11  19  34  61  85 118 158 203 249 306 361
#     4   9  19  32  56  88 115 150 197 253 297 355
#
# _framework density 25.111163999999999
#
# number of rings (size 3 to 8) (size 9 to 14) (size 15 to 20)
#    0.000    2.000    2.500    1.125    3.500    1.500 
#    0.000    0.000    2.750    6.000    0.000    0.000 
#    0.000    0.000    0.000    0.000    0.000    0.000 
#
# Total GULP energy -178200.067500 kJ/mol
# GULP energy per Si atom -5568.752109 kJ/mol
# Density = 2.505401 g / cm^3
# Si number density = 25.111164 Si / 1000 Ang^3
#
#
#
# Elastic Constant Matrix: (Units=GPa)
#
#
# Indices 1 2 3 4 5 6 
#
# 1 56.1126 31.0097 40.8242 0.0000 -30.8586 0.0000
# 2 31.0097 111.5762 26.6968 0.0000 -17.2731 0.0000
# 3 40.8242 26.6968 99.4804 0.0000 -44.4082 0.0000
# 4 0.0000 0.0000 0.0000 37.9924 0.0000 -14.9727
# 5 -30.8586 -17.2731 -44.4082 0.0000 48.9104 0.0000
# 6 0.0000 0.0000 0.0000 -14.9727 0.0000 24.4435
#
#
#
# Elastic Compliance Matrix: (Units=1/GPa)
#
#
# Indices 1 2 3 4 5 6 
#
# 1 0.032433 -0.005559 -0.005986 0.000000 0.013065 0.000000
# 2 -0.005559 0.010622 -0.000774 0.000000 -0.000459 0.000000
# 3 -0.005986 -0.000774 0.018343 0.000000 0.012605 0.000000
# 4 0.000000 0.000000 0.000000 0.034697 0.000000 0.021253
# 5 0.013065 -0.000459 0.012605 0.000000 0.039971 0.000000
# 6 0.000000 0.000000 0.000000 0.021253 0.000000 0.053929
#
#
# Mechanical properties :
#
#
# Convention : Reuss Voigt Hill
#
# Bulk Modulus (GPa) = 27.20345 51.58117 39.39231
# Shear Modulus (GPa) = 22.03745 33.51182 27.77463
#
# Velocity S-wave (km/s) = 2.96564 3.65710 3.32937
# Velocity P-wave (km/s) = 4.75220 6.19824 5.52275
#
# Compressibility (1/GPa) = 0.03676004
#
# Stress axis : x y z
#
# Youngs Moduli (GPa) = 30.83254 94.14728 54.51624
#
# Poissons Ratio (x) = 0.52338 0.32632
# Poissons Ratio (y) = 0.17140 0.04220
# Poissons Ratio (z) = 0.18456 0.07287
#
# Static dielectric constant tensor:
#      x y z
#    x 2.055530 0.000000 0.043510 
#    y 0.000000 2.206520 0.000000 
#    z 0.043510 0.000000 2.057910 
# 
# From -- ./inp_files/199163.got.cif
#   From: 2010.05.17/outbox.cif.g08.bks.cpg/sg15_100_cif.got.tgz:199163.got - 2010.06.03 18:47:42.
