data_PCOD9268507
_publ_section_title
;
Structure prediction by ZEFSAII (Michael W. Deem and Ramdas Pophale) SiO2 
 PCOD9268507
Probable space group: C 2/C
;
_chemical_formula_sum "Si O2"
_cell_formula_units_Z 60
_cell_length_a 16.355168
_cell_length_b 28.410841
_cell_length_c 16.957599
_cell_angle_alpha 90.000000
_cell_angle_beta 26.631669
_cell_angle_gamma 90.000000
_cell_volume 3532.050476
_symmetry_space_group_name_H-M "C 2/C"
_symmetry_group_IT_number 15
_symmetry_cell_setting 'monoclinic'
loop_
_space_group_symop_operation_xyz
x,y,z
-x,y,1/2-z
-x,-y,-z
x,-y,1/2+z
1/2+x,1/2+y,z
1/2-x,1/2+y,1/2-z
1/2-x,1/2-y,-z
1/2+x,1/2-y,1/2+z
loop_
_atom_site_type_symbol
_atom_site_label
_atom_site_fract_x
_atom_site_fract_y
_atom_site_fract_z
Si Si1 0.513519 0.407218 0.934312
Si Si2 0.913063 0.286115 0.241321
Si Si3 0.000000 0.523223 0.250000
Si Si4 0.164527 0.045799 0.062959
Si Si5 0.377346 0.048077 0.190024
Si Si6 0.085499 0.620122 0.588731
Si Si7 0.833424 0.561852 0.689088
Si Si8 0.489946 0.685837 0.355487
O O1 0.415258 0.440030 0.952922
O O2 0.703934 0.424456 0.805293
O O3 0.549624 0.358988 0.855409
O O4 0.358960 0.411120 0.136044
O O5 0.717489 0.306766 0.434062
O O6 0.000000 0.274238 0.250000
O O7 0.048364 0.326585 0.090578
O O8 0.909066 0.234548 0.206884
O O9 0.836403 0.488090 0.414405
O O10 0.924029 0.552184 0.241700
O O11 0.000000 0.021854 0.250000
O O12 0.225752 0.093122 0.057484
O O13 0.327562 0.993262 0.216608
O O14 0.559472 0.062287 0.985581
O O15 0.000000 0.621019 0.750000
O O16 0.967295 0.586974 0.635546
O O17 0.500000 0.679529 0.250000
#
# Coordination Sequence:
#
# PCOD9268507 Si02
#       8
#     8   8   4   8   8   8   8   8
#     4  12  22  37  55  82 112 147 196 238 272 331
#     4  10  20  32  53  74 116 159 190 235 265 319
#     4  12  24  44  52  80 116 140 196 250 282 340
#     4  12  22  32  57  79 106 156 195 225 274 331
#     4  11  25  37  60  78 108 149 191 238 293 335
#     4  11  17  36  54  77 116 159 185 230 268 323
#     4  11  21  38  55  82 111 146 192 234 281 328
#     4  11  22  36  50  82 116 158 201 229 275 326
#
# _framework density 16.987300000000001
#
# number of rings (size 3 to 8) (size 9 to 14) (size 15 to 20)
#    0.000    0.800    6.000    4.000    1.867    4.267 
#    0.000    0.000    0.000    0.000    0.000    0.000 
#    0.000    4.267    0.000    0.000    0.000    0.000 
#
# Total GULP energy -167223.926303 kJ/mol
# GULP energy per Si atom -5574.130877 kJ/mol
# Density = 1.694864 g / cm^3
# Si number density = 16.987300 Si / 1000 Ang^3
#
#
#
# Elastic Constant Matrix: (Units=GPa)
#
#
# Indices 1 2 3 4 5 6 
#
# 1 82.8397 58.1407 33.9645 -0.0048 -11.9691 0.0035
# 2 58.1407 97.7486 37.2376 -0.0079 4.0639 0.0036
# 3 33.9645 37.2376 91.6232 0.0111 -3.3251 -0.0093
# 4 -0.0048 -0.0079 0.0111 17.7215 -0.0053 1.9608
# 5 -11.9691 4.0639 -3.3251 -0.0053 17.6779 0.0019
# 6 0.0035 0.0036 -0.0093 1.9608 0.0019 25.8143
#
#
#
# Elastic Compliance Matrix: (Units=1/GPa)
#
#
# Indices 1 2 3 4 5 6 
#
# 1 0.028062 -0.016519 -0.002881 0.000009 0.022256 -0.000005
# 2 -0.016519 0.022078 -0.003463 0.000003 -0.016911 -0.000001
# 3 -0.002881 -0.003463 0.013440 -0.000011 0.001373 0.000006
# 4 0.000009 0.000003 -0.000011 0.056907 0.000021 -0.004323
# 5 0.022256 -0.016911 0.001373 0.000021 0.075782 -0.000007
# 6 -0.000005 -0.000001 0.000006 -0.004323 -0.000007 0.039067
#
#
# Mechanical properties :
#
#
# Convention : Reuss Voigt Hill
#
# Bulk Modulus (GPa) = 56.01244 58.98857 57.50050
# Shear Modulus (GPa) = 17.42075 21.76732 19.59404
#
# Velocity S-wave (km/s) = 3.20584 3.58353 3.39994
# Velocity P-wave (km/s) = 6.83725 7.20574 7.02391
#
# Compressibility (1/GPa) = 0.01785318
#
# Stress axis : x y z
#
# Youngs Moduli (GPa) = 35.63511 45.29351 74.40640
#
# Poissons Ratio (x) = 0.74820 0.21438
# Poissons Ratio (y) = 0.58866 0.25769
# Poissons Ratio (z) = 0.10267 0.15686
#
# Static dielectric constant tensor:
#      x y z
#    x 1.555810 -0.000010 0.022910 
#    y -0.000010 1.635780 0.000050 
#    z 0.022910 0.000050 1.638960 
# 
# From -- ./inp_files/157535.got.cif
#   From: 2010.05.17/outbox.cif.g08.bks.cpg/sg15_79_cif.got.tgz:157535.got - 2010.06.03 18:47:42.
