data_PCOD9268993
_publ_section_title
;
Structure prediction by ZEFSAII (Michael W. Deem and Ramdas Pophale) SiO2 
 PCOD9268993
Probable space group: C 2/C
;
_chemical_formula_sum "Si O2"
_cell_formula_units_Z 60
_cell_length_a 11.723851
_cell_length_b 10.316557
_cell_length_c 18.516886
_cell_angle_alpha 90.000000
_cell_angle_beta 84.360263
_cell_angle_gamma 90.000000
_cell_volume 2228.772348
_symmetry_space_group_name_H-M "C 2/C"
_symmetry_group_IT_number 15
_symmetry_cell_setting 'monoclinic'
loop_
_space_group_symop_operation_xyz
x,y,z
-x,y,1/2-z
-x,-y,-z
x,-y,1/2+z
1/2+x,1/2+y,z
1/2-x,1/2+y,1/2-z
1/2-x,1/2-y,-z
1/2+x,1/2-y,1/2+z
loop_
_atom_site_type_symbol
_atom_site_label
_atom_site_fract_x
_atom_site_fract_y
_atom_site_fract_z
Si Si1 0.679782 0.639447 0.867139
Si Si2 0.995516 0.274490 0.975887
Si Si3 0.855191 0.874602 0.693673
Si Si4 0.324520 0.419059 0.427245
Si Si5 0.880939 0.838300 0.852700
Si Si6 0.557605 0.050457 0.901845
Si Si7 0.353742 0.270877 0.289101
Si Si8 0.000000 0.471659 0.750000
O O1 0.598796 0.693218 0.934592
O O2 0.682687 0.485730 0.859527
O O3 0.627241 0.677932 0.792021
O O4 0.801940 0.711005 0.862411
O O5 0.002459 0.411747 0.930754
O O6 0.881458 0.182591 0.979547
O O7 0.008010 0.331275 0.055380
O O8 0.831597 0.904722 0.780228
O O9 0.986055 0.841024 0.673525
O O10 0.779113 0.749350 0.686597
O O11 0.363329 0.568137 0.422294
O O12 0.187127 0.435777 0.426506
O O13 0.388405 0.361506 0.351845
O O14 0.547078 0.047117 0.816029
O O15 0.405130 0.127634 0.285659
#
# Coordination Sequence:
#
# PCOD9268993 Si02
#       8
#     8   8   8   8   8   8   8   4
#     4  11  19  37  62  92 132 171 226 279 335 411
#     4  11  22  38  64 101 136 170 227 278 352 414
#     4  10  21  36  54  88 134 173 222 282 334 404
#     4  12  20  39  64  98 134 168 225 284 338 410
#     4  10  20  33  58  93 123 173 226 270 340 402
#     4  11  24  39  63 103 134 176 221 289 343 416
#     4  11  22  36  59  98 127 175 221 275 345 403
#     4  12  22  44  62  94 132 174 234 278 346 416
#
# _framework density 26.920649999999998
#
# number of rings (size 3 to 8) (size 9 to 14) (size 15 to 20)
#    0.000    1.067    6.667    1.200    0.000    0.000 
#    2.400    0.000    0.000    1.600    3.467    0.000 
#    0.000    0.000    0.000    0.000    0.000    0.000 
#
# Total GULP energy -167822.488477 kJ/mol
# GULP energy per Si atom -5594.082949 kJ/mol
# Density = 2.685938 g / cm^3
# Si number density = 26.920650 Si / 1000 Ang^3
#
#
#
# Elastic Constant Matrix: (Units=GPa)
#
#
# Indices 1 2 3 4 5 6 
#
# 1 106.9566 7.8160 17.8023 0.0000 -10.5316 0.0000
# 2 7.8160 99.2013 48.5255 0.0000 2.4555 0.0000
# 3 17.8023 48.5255 121.2635 0.0000 8.1666 0.0000
# 4 0.0000 0.0000 0.0000 51.1126 0.0000 -6.9772
# 5 -10.5316 2.4555 8.1666 0.0000 27.0557 0.0000
# 6 0.0000 0.0000 0.0000 -6.9772 0.0000 37.1770
#
#
#
# Elastic Compliance Matrix: (Units=1/GPa)
#
#
# Indices 1 2 3 4 5 6 
#
# 1 0.010086 -0.000042 -0.001764 0.000000 0.004462 0.000000
# 2 -0.000042 0.012538 -0.005036 0.000000 0.000366 0.000000
# 3 -0.001764 -0.005036 0.010755 0.000000 -0.003476 0.000000
# 4 0.000000 0.000000 0.000000 0.020079 0.000000 0.003768
# 5 0.004462 0.000366 -0.003476 0.000000 0.039714 0.000000
# 6 0.000000 0.000000 0.000000 0.003768 0.000000 0.027606
#
#
# Mechanical properties :
#
#
# Convention : Reuss Voigt Hill
#
# Bulk Modulus (GPa) = 50.77629 52.85656 51.81643
# Shear Modulus (GPa) = 35.45445 39.95424 37.70434
#
# Velocity S-wave (km/s) = 3.63298 3.85664 3.74648
# Velocity P-wave (km/s) = 6.04157 6.28557 6.16478
#
# Compressibility (1/GPa) = 0.01969423
#
# Stress axis : x y z
#
# Youngs Moduli (GPa) = 99.15019 79.75697 92.98205
#
# Poissons Ratio (x) = 0.00335 0.16405
# Poissons Ratio (y) = 0.00417 0.46824
# Poissons Ratio (z) = 0.17494 0.40164
#
# Static dielectric constant tensor:
#      x y z
#    x 2.153030 0.000000 0.064030 
#    y 0.000000 2.201220 0.000000 
#    z 0.064030 0.000000 2.170200 
# 
# From -- ./inp_files/237595.got.cif
#   From: 2010.05.17/outbox.cif.g08.bks.cpg/sg15_119_cif.got.tgz:237595.got - 2010.06.03 18:47:42.
