data_PCOD9268027
_publ_section_title
;
Structure prediction by ZEFSAII (Michael W. Deem and Ramdas Pophale) SiO2 
 PCOD9268027
Probable space group: C 2/C
;
_chemical_formula_sum "Si O2"
_cell_formula_units_Z 40
_cell_length_a 22.441485
_cell_length_b 8.692994
_cell_length_c 9.654697
_cell_angle_alpha 90.000000
_cell_angle_beta 86.000113
_cell_angle_gamma 90.000000
_cell_volume 1878.886171
_symmetry_space_group_name_H-M "C 2/C"
_symmetry_group_IT_number 15
_symmetry_cell_setting 'monoclinic'
loop_
_space_group_symop_operation_xyz
x,y,z
-x,y,1/2-z
-x,-y,-z
x,-y,1/2+z
1/2+x,1/2+y,z
1/2-x,1/2+y,1/2-z
1/2-x,1/2-y,-z
1/2+x,1/2-y,1/2+z
loop_
_atom_site_type_symbol
_atom_site_label
_atom_site_fract_x
_atom_site_fract_y
_atom_site_fract_z
Si Si1 0.516217 0.756610 0.591816
Si Si2 0.300427 0.517600 0.745360
Si Si3 0.322033 0.177165 0.751076
Si Si4 0.139371 0.859022 0.002877
Si Si5 0.552531 0.891426 0.130615
O O1 0.500000 0.710302 0.750000
O O2 0.568194 0.649226 0.524742
O O3 0.460648 0.783077 0.498793
O O4 0.544297 0.929131 0.594997
O O5 0.302188 0.345335 0.807038
O O6 0.233020 0.564194 0.725524
O O7 0.338545 0.497630 0.599142
O O8 0.330984 0.628262 0.852014
O O9 0.336953 0.210941 0.586632
O O10 0.383012 0.131064 0.814290
O O11 0.500000 0.856140 0.250000
#
# Coordination Sequence:
#
# PCOD9268027 Si02
#       5
#     8   8   8   8   8
#     4  10  22  39  70 102 132 176 225 275 336 396
#     4  10  24  42  67  99 134 185 217 273 342 393
#     4  10  23  41  70  97 138 172 224 278 326 407
#     4  10  23  45  64  97 139 171 226 279 327 405
#     4  10  19  41  67 102 132 175 224 279 334 393
#
# _framework density 21.289207000000001
#
# number of rings (size 3 to 8) (size 9 to 14) (size 15 to 20)
#    1.200    0.800    2.000    0.600    2.800    2.400 
#    0.000    5.000    0.000    0.000    0.000    0.000 
#    0.000    0.000    0.000    0.000    0.000    0.000 
#
# Total GULP energy -111608.100757 kJ/mol
# GULP energy per Si atom -5580.405038 kJ/mol
# Density = 2.124075 g / cm^3
# Si number density = 21.289207 Si / 1000 Ang^3
#
#
#
# Elastic Constant Matrix: (Units=GPa)
#
#
# Indices 1 2 3 4 5 6 
#
# 1 142.8138 38.2102 60.2668 0.0000 17.6363 0.0000
# 2 38.2102 27.3038 11.8579 0.0000 3.4857 0.0000
# 3 60.2668 11.8579 113.8408 0.0000 -2.9856 0.0000
# 4 0.0000 0.0000 0.0000 6.3741 0.0000 -6.1285
# 5 17.6363 3.4857 -2.9856 0.0000 40.3977 0.0000
# 6 0.0000 0.0000 0.0000 -6.1285 0.0000 14.3652
#
#
#
# Elastic Compliance Matrix: (Units=1/GPa)
#
#
# Indices 1 2 3 4 5 6 
#
# 1 0.015047 -0.017629 -0.006274 0.000000 -0.005512 0.000000
# 2 -0.017629 0.059548 0.003203 0.000000 0.002795 0.000000
# 3 -0.006274 0.003203 0.011860 0.000000 0.003339 0.000000
# 4 0.000000 0.000000 0.000000 0.265993 0.000000 0.113479
# 5 -0.005512 0.002795 0.003339 0.000000 0.027166 0.000000
# 6 0.000000 0.000000 0.000000 0.113479 0.000000 0.118026
#
#
# Mechanical properties :
#
#
# Convention : Reuss Voigt Hill
#
# Bulk Modulus (GPa) = 22.19512 56.06980 39.13246
# Shear Modulus (GPa) = 9.02433 23.80229 16.41331
#
# Velocity S-wave (km/s) = 2.06110 3.34735 2.77964
# Velocity P-wave (km/s) = 4.01402 6.42915 5.35940
#
# Compressibility (1/GPa) = 0.04505496
#
# Stress axis : x y z
#
# Youngs Moduli (GPa) = 66.45772 16.79317 84.31999
#
# Poissons Ratio (x) = 0.29605 0.52904
# Poissons Ratio (y) = 1.17160 -0.27012
# Poissons Ratio (z) = 0.41696 -0.05380
#
# Static dielectric constant tensor:
#      x y z
#    x 1.730240 0.000000 -0.014800 
#    y 0.000000 1.797140 0.000000 
#    z -0.014800 0.000000 1.794370 
# 
# From -- ./inp_files/54188.got.cif
#   From: 2010.05.17/outbox.cif.g08.bks.cpg/sg15_28_cif.got.tgz:54188.got - 2010.06.03 18:47:42.
