data_PCOD9268210
_publ_section_title
;
Structure prediction by ZEFSAII (Michael W. Deem and Ramdas Pophale) SiO2 
 PCOD9268210
Probable space group: C 2/C
;
_chemical_formula_sum "Si O2"
_cell_formula_units_Z 48
_cell_length_a 24.491385
_cell_length_b 18.661750
_cell_length_c 12.242728
_cell_angle_alpha 90.000000
_cell_angle_beta 156.278567
_cell_angle_gamma 90.000000
_cell_volume 2251.041226
_symmetry_space_group_name_H-M "C 2/C"
_symmetry_group_IT_number 15
_symmetry_cell_setting 'monoclinic'
loop_
_space_group_symop_operation_xyz
x,y,z
-x,y,1/2-z
-x,-y,-z
x,-y,1/2+z
1/2+x,1/2+y,z
1/2-x,1/2+y,1/2-z
1/2-x,1/2-y,-z
1/2+x,1/2-y,1/2+z
loop_
_atom_site_type_symbol
_atom_site_label
_atom_site_fract_x
_atom_site_fract_y
_atom_site_fract_z
Si Si1 0.702904 0.169773 0.909655
Si Si2 0.853495 0.388157 0.964919
Si Si3 0.140185 0.986778 0.073817
Si Si4 0.008950 0.867248 0.632411
Si Si5 0.694642 0.752311 0.775155
Si Si6 0.639147 0.864259 0.063487
O O1 0.609722 0.155871 0.634809
O O2 0.750000 0.250000 0.000000
O O3 0.644029 0.155762 0.918910
O O4 0.840961 0.125697 0.138202
O O5 0.726342 0.441508 0.740444
O O6 0.829828 0.330743 0.823419
O O7 0.000000 0.427007 0.250000
O O8 0.255414 0.930453 0.242527
O O9 0.000000 0.002325 0.750000
O O10 0.079497 0.937228 0.060312
O O11 0.943181 0.793801 0.473206
O O12 0.000000 0.862179 0.750000
O O13 0.790566 0.703480 0.870444
O O14 0.750000 0.750000 0.000000
O O15 0.500000 0.882831 0.750000
#
# Coordination Sequence:
#
# PCOD9268210 Si02
#       6
#     8   8   8   8   8   8
#     4  12  22  42  75 100 137 182 228 285 351 416
#     4  12  27  44  68 106 141 179 239 290 340 415
#     4  10  22  48  70  94 142 183 229 280 345 420
#     4  10  19  44  71  95 136 184 223 274 355 417
#     4  11  24  41  68 101 143 174 223 296 349 405
#     4  11  24  44  69 101 135 179 229 278 351 417
#
# _framework density 21.323467000000001
#
# number of rings (size 3 to 8) (size 9 to 14) (size 15 to 20)
#    0.000    1.000    6.667    2.000    4.667    2.667 
#    6.000    1.667    0.000    0.000    0.000    0.000 
#    0.000    0.000    0.000    0.000    0.000    0.000 
#
# Total GULP energy -133638.749740 kJ/mol
# GULP energy per Si atom -5568.281239 kJ/mol
# Density = 2.127493 g / cm^3
# Si number density = 21.323467 Si / 1000 Ang^3
#
#
#
# Elastic Constant Matrix: (Units=GPa)
#
#
# Indices 1 2 3 4 5 6 
#
# 1 47.0541 -1.3096 23.2733 0.0000 -25.7371 0.0000
# 2 -1.3096 102.7721 45.6581 0.0000 -10.1116 0.0000
# 3 23.2733 45.6581 154.6647 0.0000 -6.3932 0.0000
# 4 0.0000 0.0000 0.0000 32.8694 0.0000 11.1791
# 5 -25.7371 -10.1116 -6.3932 0.0000 40.2510 0.0000
# 6 0.0000 0.0000 0.0000 11.1791 0.0000 13.5517
#
#
#
# Elastic Compliance Matrix: (Units=1/GPa)
#
#
# Indices 1 2 3 4 5 6 
#
# 1 0.038183 0.005786 -0.006427 0.000000 0.024847 0.000000
# 2 0.005786 0.012292 -0.004247 0.000000 0.006113 0.000000
# 3 -0.006427 -0.004247 0.008528 0.000000 -0.003822 0.000000
# 4 0.000000 0.000000 0.000000 0.042288 0.000000 -0.034884
# 5 0.024847 0.006113 -0.003822 0.000000 0.041661 0.000000
# 6 0.000000 0.000000 0.000000 -0.034884 0.000000 0.102568
#
#
# Mechanical properties :
#
#
# Convention : Reuss Voigt Hill
#
# Bulk Modulus (GPa) = 20.31317 48.85938 34.58627
# Shear Modulus (GPa) = 18.40241 33.12569 25.76405
#
# Velocity S-wave (km/s) = 2.94089 3.94570 3.47976
# Velocity P-wave (km/s) = 4.59115 6.61221 5.69210
#
# Compressibility (1/GPa) = 0.04922915
#
# Stress axis : x y z
#
# Youngs Moduli (GPa) = 26.18990 81.35267 117.25590
#
# Poissons Ratio (x) = -0.47074 0.75356
# Poissons Ratio (y) = -0.15154 0.49796
# Poissons Ratio (z) = 0.16831 0.34548
#
# Static dielectric constant tensor:
#      x y z
#    x 1.743070 0.000000 0.022030 
#    y 0.000000 1.806470 0.000000 
#    z 0.022030 0.000000 1.878160 
# 
# From -- ./inp_files/119489.got.cif
#   From: 2010.05.17/outbox.cif.g08.bks.cpg/sg15_60_cif.got.tgz:119489.got - 2010.06.03 18:47:42.
