data_PCOD9268059
_publ_section_title
;
Structure prediction by ZEFSAII (Michael W. Deem and Ramdas Pophale) SiO2 
 PCOD9268059
Probable space group: C 2/C
;
_chemical_formula_sum "Si O2"
_cell_formula_units_Z 44
_cell_length_a 12.266522
_cell_length_b 13.425690
_cell_length_c 13.499446
_cell_angle_alpha 90.000000
_cell_angle_beta 55.174465
_cell_angle_gamma 90.000000
_cell_volume 1824.994231
_symmetry_space_group_name_H-M "C 2/C"
_symmetry_group_IT_number 15
_symmetry_cell_setting 'monoclinic'
loop_
_space_group_symop_operation_xyz
x,y,z
-x,y,1/2-z
-x,-y,-z
x,-y,1/2+z
1/2+x,1/2+y,z
1/2-x,1/2+y,1/2-z
1/2-x,1/2-y,-z
1/2+x,1/2-y,1/2+z
loop_
_atom_site_type_symbol
_atom_site_label
_atom_site_fract_x
_atom_site_fract_y
_atom_site_fract_z
Si Si1 0.321192 0.179122 0.880776
Si Si2 0.203805 0.358327 0.492020
Si Si3 0.000000 0.311212 0.750000
Si Si4 0.010942 0.611334 0.533225
Si Si5 0.845357 0.981322 0.562906
Si Si6 0.726730 0.192882 0.266606
O O1 0.441506 0.129796 0.880325
O O2 0.333744 0.249207 0.777766
O O3 0.230077 0.086442 0.893266
O O4 0.250000 0.250000 0.000000
O O5 0.250000 0.250000 0.500000
O O6 0.080452 0.378401 0.631046
O O7 0.313600 0.436670 0.469141
O O8 0.134626 0.349158 0.422104
O O9 0.114713 0.254749 0.752469
O O10 0.126104 0.655220 0.403995
O O11 0.000000 0.500000 0.500000
O O12 0.791106 0.897468 0.669020
O O13 0.000000 0.000000 0.500000
#
# Coordination Sequence:
#
# PCOD9268059 Si02
#       6
#     8   8   4   8   8   8
#     4  10  22  43  70  98 140 184 231 294 354 417
#     4  10  21  39  69  95 130 182 227 280 354 419
#     4   8  18  38  64  84 130 170 240 266 326 424
#     4  10  19  41  69  96 132 176 239 282 339 420
#     4  11  24  43  67 101 146 182 231 297 361 420
#     4   9  21  42  65  96 133 185 233 283 353 420
#
# _framework density 24.109665
#
# number of rings (size 3 to 8) (size 9 to 14) (size 15 to 20)
#    0.000    2.182    1.818    0.000    7.636    0.000 
#    6.545    5.455    4.000    0.000    0.000    0.000 
#    0.000    0.000    0.000    0.000    0.000    0.000 
#
# Total GULP energy -122623.617717 kJ/mol
# GULP energy per Si atom -5573.800805 kJ/mol
# Density = 2.405479 g / cm^3
# Si number density = 24.109665 Si / 1000 Ang^3
#
#
#
# Elastic Constant Matrix: (Units=GPa)
#
#
# Indices 1 2 3 4 5 6 
#
# 1 256.5111 68.0876 60.1151 0.0000 19.1986 0.0000
# 2 68.0876 104.6114 12.3671 0.0000 14.6589 0.0000
# 3 60.1151 12.3671 83.3908 0.0000 29.0626 0.0000
# 4 0.0000 0.0000 0.0000 38.8185 0.0000 6.3297
# 5 19.1986 14.6589 29.0626 0.0000 48.1244 0.0000
# 6 0.0000 0.0000 0.0000 6.3297 0.0000 59.1966
#
#
#
# Elastic Compliance Matrix: (Units=1/GPa)
#
#
# Indices 1 2 3 4 5 6 
#
# 1 0.005634 -0.003362 -0.003972 0.000000 0.001175 0.000000
# 2 -0.003362 0.012010 0.001836 0.000000 -0.003426 0.000000
# 3 -0.003972 0.001836 0.018018 0.000000 -0.009856 0.000000
# 4 0.000000 0.000000 0.000000 0.026218 0.000000 -0.002803
# 5 0.001175 -0.003426 -0.009856 0.000000 0.027306 0.000000
# 6 0.000000 0.000000 0.000000 -0.002803 0.000000 0.017193
#
#
# Mechanical properties :
#
#
# Convention : Reuss Voigt Hill
#
# Bulk Modulus (GPa) = 40.54118 80.62810 60.58464
# Shear Modulus (GPa) = 39.80996 49.49079 44.65037
#
# Velocity S-wave (km/s) = 4.06791 4.53563 4.30812
# Velocity P-wave (km/s) = 6.23824 7.80667 7.06611
#
# Compressibility (1/GPa) = 0.02466628
#
# Stress axis : x y z
#
# Youngs Moduli (GPa) = 177.49892 83.26144 55.50053
#
# Poissons Ratio (x) = 0.27992 0.22047
# Poissons Ratio (y) = 0.59674 -0.10193
# Poissons Ratio (z) = 0.70510 -0.15291
#
# Static dielectric constant tensor:
#      x y z
#    x 1.896600 0.000000 0.050420 
#    y 0.000000 1.947070 0.000000 
#    z 0.050420 0.000000 1.978030 
# 
# From -- ./inp_files/143377.got.cif
#   From: 2010.05.17/outbox.cif.g08.bks.cpg/sg15_72_cif.got.tgz:143377.got - 2010.06.03 18:47:42.
