data_PCOD9268385
_publ_section_title
;
Structure prediction by ZEFSAII (Michael W. Deem and Ramdas Pophale) SiO2 
 PCOD9268385
Probable space group: C 2/C
;
_chemical_formula_sum "Si O2"
_cell_formula_units_Z 60
_cell_length_a 25.071536
_cell_length_b 8.851999
_cell_length_c 11.838812
_cell_angle_alpha 90.000000
_cell_angle_beta 76.884825
_cell_angle_gamma 90.000000
_cell_volume 2558.891547
_symmetry_space_group_name_H-M "C 2/C"
_symmetry_group_IT_number 15
_symmetry_cell_setting 'monoclinic'
loop_
_space_group_symop_operation_xyz
x,y,z
-x,y,1/2-z
-x,-y,-z
x,-y,1/2+z
1/2+x,1/2+y,z
1/2-x,1/2+y,1/2-z
1/2-x,1/2-y,-z
1/2+x,1/2-y,1/2+z
loop_
_atom_site_type_symbol
_atom_site_label
_atom_site_fract_x
_atom_site_fract_y
_atom_site_fract_z
Si Si1 0.078923 0.006552 0.285882
Si Si2 0.654744 0.717629 0.872348
Si Si3 0.782789 0.174501 0.085710
Si Si4 0.676550 0.574838 0.080667
Si Si5 0.936754 0.587370 0.090983
Si Si6 0.245500 0.555408 0.783712
Si Si7 0.000000 0.230294 0.750000
Si Si8 0.489849 0.791303 0.124900
O O1 0.036142 0.124660 0.359241
O O2 0.106854 0.903720 0.367840
O O3 0.127158 0.086336 0.192754
O O4 0.049829 0.888619 0.214092
O O5 0.626189 0.874210 0.855441
O O6 0.702767 0.665628 0.767531
O O7 0.674514 0.708128 0.991199
O O8 0.798341 0.318047 0.157358
O O9 0.746994 0.051136 0.173188
O O10 0.750000 0.250000 0.000000
O O11 0.827601 0.073486 0.998987
O O12 0.732403 0.550236 0.124746
O O13 0.978439 0.663385 0.160832
O O14 0.948598 0.410867 0.088019
O O15 0.954067 0.672483 0.967658
O O16 0.500000 0.829100 0.250000
#
# Coordination Sequence:
#
# PCOD9268385 Si02
#       8
#     8   8   8   8   8   8   4   8
#     4  10  20  31  56  83 108 151 203 244 289 351
#     4   9  19  34  53  80 113 149 194 246 289 352
#     4   9  18  36  63  86 120 157 189 244 303 357
#     4   9  18  35  57  84 116 147 194 251 291 345
#     4  10  22  36  54  77 121 154 196 248 307 347
#     4   9  18  36  60  87 117 151 197 242 296 364
#     4  10  20  34  54  82 110 154 202 246 288 352
#     4  11  21  36  53  79 113 158 197 253 300 357
#
# _framework density 23.447654
#
# number of rings (size 3 to 8) (size 9 to 14) (size 15 to 20)
#    0.000    2.400    1.333    0.800    1.867    1.067 
#    0.000   10.000    0.000    8.000    0.000    0.000 
#    0.000    0.000    0.000    0.000    0.000    0.000 
#
# Total GULP energy -167193.951964 kJ/mol
# GULP energy per Si atom -5573.131732 kJ/mol
# Density = 2.339429 g / cm^3
# Si number density = 23.447654 Si / 1000 Ang^3
#
#
#
# Elastic Constant Matrix: (Units=GPa)
#
#
# Indices 1 2 3 4 5 6 
#
# 1 13.4588 8.9889 -1.5183 0.0000 -1.6275 0.0000
# 2 8.9889 85.1079 9.0999 0.0000 -6.4846 0.0000
# 3 -1.5183 9.0999 86.9132 0.0000 8.1194 0.0000
# 4 0.0000 0.0000 0.0000 26.3718 0.0000 -9.1846
# 5 -1.6275 -6.4846 8.1194 0.0000 14.8035 0.0000
# 6 0.0000 0.0000 0.0000 -9.1846 0.0000 34.0324
#
#
#
# Elastic Compliance Matrix: (Units=1/GPa)
#
#
# Indices 1 2 3 4 5 6 
#
# 1 0.080629 -0.008404 0.001902 0.000000 0.004140 0.000000
# 2 -0.008404 0.013325 -0.002109 0.000000 0.006070 0.000000
# 3 0.001902 -0.002109 0.012465 0.000000 -0.007552 0.000000
# 4 0.000000 0.000000 0.000000 0.041853 0.000000 0.011295
# 5 0.004140 0.006070 -0.007552 0.000000 0.074807 0.000000
# 6 0.000000 0.000000 0.000000 0.011295 0.000000 0.032432
#
#
# Mechanical properties :
#
#
# Convention : Reuss Voigt Hill
#
# Bulk Modulus (GPa) = 11.21115 24.29122 17.75119
# Shear Modulus (GPa) = 16.53076 26.30216 21.41646
#
# Velocity S-wave (km/s) = 2.65808 3.35287 3.02549
# Velocity P-wave (km/s) = 3.76991 5.03699 4.44879
#
# Compressibility (1/GPa) = 0.08919691
#
# Stress axis : x y z
#
# Youngs Moduli (GPa) = 12.40255 75.04491 80.22307
#
# Poissons Ratio (x) = 0.63066 -0.15255
# Poissons Ratio (y) = 0.10423 0.16919
# Poissons Ratio (z) = -0.02359 0.15827
#
# Static dielectric constant tensor:
#      x y z
#    x 1.908480 0.000000 -0.009460 
#    y 0.000000 1.953730 0.000000 
#    z -0.009460 0.000000 1.899310 
# 
# From -- ./inp_files/125554.got.cif
#   From: 2010.05.17/outbox.cif.g08.bks.cpg/sg15_63_cif.got.tgz:125554.got - 2010.06.03 18:47:42.
