data_PCOD9268236
_publ_section_title
;
Structure prediction by ZEFSAII (Michael W. Deem and Ramdas Pophale) SiO2 
 PCOD9268236
Probable space group: C 2/C
;
_chemical_formula_sum "Si O2"
_cell_formula_units_Z 52
_cell_length_a 11.873006
_cell_length_b 26.723520
_cell_length_c 9.073448
_cell_angle_alpha 90.000000
_cell_angle_beta 85.526290
_cell_angle_gamma 90.000000
_cell_volume 2870.129476
_symmetry_space_group_name_H-M "C 2/C"
_symmetry_group_IT_number 15
_symmetry_cell_setting 'monoclinic'
loop_
_space_group_symop_operation_xyz
x,y,z
-x,y,1/2-z
-x,-y,-z
x,-y,1/2+z
1/2+x,1/2+y,z
1/2-x,1/2+y,1/2-z
1/2-x,1/2-y,-z
1/2+x,1/2-y,1/2+z
loop_
_atom_site_type_symbol
_atom_site_label
_atom_site_fract_x
_atom_site_fract_y
_atom_site_fract_z
Si Si1 0.617553 0.938944 0.045032
Si Si2 0.000000 0.664577 0.250000
Si Si3 0.373622 0.797613 0.217739
Si Si4 0.125076 0.182985 0.287012
Si Si5 0.204526 0.628323 0.030569
Si Si6 0.353798 0.963823 0.128440
Si Si7 0.823619 0.324536 0.537696
O O1 0.483166 0.946398 0.082351
O O2 0.669298 0.953604 0.198186
O O3 0.646970 0.882649 0.998642
O O4 0.654393 0.978692 0.917840
O O5 0.902156 0.633740 0.345633
O O6 0.928103 0.693635 0.131605
O O7 0.500000 0.814069 0.250000
O O8 0.377417 0.740889 0.160212
O O9 0.324969 0.835622 0.104007
O O10 0.311830 0.798494 0.381348
O O11 0.184135 0.148659 0.402216
O O12 0.209715 0.180033 0.140502
O O13 0.000000 0.168844 0.250000
O O14 0.216913 0.572606 0.968888
#
# Coordination Sequence:
#
# PCOD9268236 Si02
#       7
#     8   4   8   8   8   8   8
#     4  10  20  31  53  88 123 144 172 222 290 356
#     4  10  20  28  54  90 108 154 178 220 286 346
#     4  11  19  37  60  86 116 142 193 239 297 340
#     4  10  25  39  56  78 114 158 199 239 272 327
#     4  11  20  36  58  83 118 151 187 230 291 343
#     4  10  20  31  53  88 123 144 172 222 290 356
#     4  11  20  36  58  83 118 151 187 230 291 343
#
# _framework density 18.117647999999999
#
# number of rings (size 3 to 8) (size 9 to 14) (size 15 to 20)
#    0.000    1.538    4.615    0.923    4.308    0.000 
#    0.000    0.769    0.000    0.923    0.000    0.000 
#    0.000    0.000    0.000    0.000    0.000    0.000 
#
# Total GULP energy -145124.422646 kJ/mol
# GULP energy per Si atom -5581.708563 kJ/mol
# Density = 1.807641 g / cm^3
# Si number density = 18.117648 Si / 1000 Ang^3
#
#
#
# Elastic Constant Matrix: (Units=GPa)
#
#
# Indices 1 2 3 4 5 6 
#
# 1 80.8222 20.7296 15.8636 0.0000 8.9044 0.0000
# 2 20.7296 67.3092 9.2388 0.0000 15.5576 0.0000
# 3 15.8636 9.2388 75.9593 0.0000 11.5572 0.0000
# 4 0.0000 0.0000 0.0000 19.4551 0.0000 1.4546
# 5 8.9044 15.5576 11.5572 0.0000 20.8380 0.0000
# 6 0.0000 0.0000 0.0000 1.4546 0.0000 12.3449
#
#
#
# Elastic Compliance Matrix: (Units=1/GPa)
#
#
# Indices 1 2 3 4 5 6 
#
# 1 0.013930 -0.003498 -0.002157 0.000000 -0.002144 0.000000
# 2 -0.003498 0.018836 0.000384 0.000000 -0.012781 0.000000
# 3 -0.002157 0.000384 0.014714 0.000000 -0.007526 0.000000
# 4 0.000000 0.000000 0.000000 0.051857 0.000000 -0.006110
# 5 -0.002144 -0.012781 -0.007526 0.000000 0.062622 0.000000
# 6 0.000000 0.000000 0.000000 -0.006110 0.000000 0.081725
#
#
# Mechanical properties :
#
#
# Convention : Reuss Voigt Hill
#
# Bulk Modulus (GPa) = 27.07372 35.08384 31.07878
# Shear Modulus (GPa) = 18.75903 22.41150 20.58527
#
# Velocity S-wave (km/s) = 3.22126 3.52091 3.37441
# Velocity P-wave (km/s) = 5.36759 5.99463 5.68976
#
# Compressibility (1/GPa) = 0.03693619
#
# Stress axis : x y z
#
# Youngs Moduli (GPa) = 71.78865 53.09087 67.96342
#
# Poissons Ratio (x) = 0.18573 0.14663
# Poissons Ratio (y) = 0.25114 -0.02612
# Poissons Ratio (z) = 0.15488 -0.02040
#
# Static dielectric constant tensor:
#      x y z
#    x 1.609210 0.000000 0.001970 
#    y 0.000000 1.620810 0.000000 
#    z 0.001970 0.000000 1.680320 
# 
# From -- ./inp_files/33510.got.cif
#   From: 2010.05.17/outbox.cif.g08.bks.cpg/sg15_17_cif.got.tgz:33510.got - 2010.06.03 18:47:42.
