data_PCOD9268772
_publ_section_title
;
Structure prediction by ZEFSAII (Michael W. Deem and Ramdas Pophale) SiO2 
 PCOD9268772
Probable space group: C 2/C
;
_chemical_formula_sum "Si O2"
_cell_formula_units_Z 48
_cell_length_a 11.247804
_cell_length_b 12.392796
_cell_length_c 18.217439
_cell_angle_alpha 90.000000
_cell_angle_beta 59.671660
_cell_angle_gamma 90.000000
_cell_volume 2191.838609
_symmetry_space_group_name_H-M "C 2/C"
_symmetry_group_IT_number 15
_symmetry_cell_setting 'monoclinic'
loop_
_space_group_symop_operation_xyz
x,y,z
-x,y,1/2-z
-x,-y,-z
x,-y,1/2+z
1/2+x,1/2+y,z
1/2-x,1/2+y,1/2-z
1/2-x,1/2-y,-z
1/2+x,1/2-y,1/2+z
loop_
_atom_site_type_symbol
_atom_site_label
_atom_site_fract_x
_atom_site_fract_y
_atom_site_fract_z
Si Si1 0.587675 0.775349 0.545200
Si Si2 0.047119 0.728884 0.883352
Si Si3 0.547133 0.013238 0.570067
Si Si4 0.189699 0.101110 0.076182
Si Si5 0.522781 0.410397 0.326593
Si Si6 0.153810 0.113959 0.241822
O O1 0.750000 0.750000 0.500000
O O2 0.565483 0.774200 0.464669
O O3 0.489810 0.687246 0.613924
O O4 0.562669 0.891454 0.590813
O O5 0.159730 0.794045 0.800778
O O6 0.042082 0.603706 0.861466
O O7 0.908674 0.800143 0.914445
O O8 0.693685 0.073495 0.517655
O O9 0.500000 0.000000 0.500000
O O10 0.248081 0.120988 0.140680
O O11 0.101734 0.990953 0.111357
O O12 0.500000 0.372130 0.250000
O O13 0.648232 0.496310 0.281226
O O14 0.000000 0.125302 0.250000
#
# Coordination Sequence:
#
# PCOD9268772 Si02
#       6
#     8   8   8   8   8   8
#     4  11  20  33  51  79 111 142 172 215 270 319
#     4   9  19  33  54  79 102 136 184 221 255 317
#     4  10  20  33  52  77 110 140 169 215 282 321
#     4   9  16  34  59  77 100 139 180 223 263 314
#     4   8  16  32  52  75 102 137 173 216 264 312
#     4   7  15  31  56  77  97 133 180 225 255 301
#
# _framework density 21.899422000000001
#
# number of rings (size 3 to 8) (size 9 to 14) (size 15 to 20)
#    0.000    3.667    1.667    0.500    0.000    2.667 
#    0.000    5.833    0.000    4.000    0.000    0.000 
#    0.000    0.000    0.000    0.000    0.000    0.000 
#
# Total GULP energy -133617.472176 kJ/mol
# GULP energy per Si atom -5567.394674 kJ/mol
# Density = 2.184958 g / cm^3
# Si number density = 21.899422 Si / 1000 Ang^3
#
#
#
# Elastic Constant Matrix: (Units=GPa)
#
#
# Indices 1 2 3 4 5 6 
#
# 1 31.5490 22.9998 6.2473 0.0000 -4.8569 0.0000
# 2 22.9998 182.9254 58.1332 0.0000 17.0455 0.0000
# 3 6.2473 58.1332 72.6817 0.0000 7.6046 0.0000
# 4 0.0000 0.0000 0.0000 9.5809 0.0000 16.6335
# 5 -4.8569 17.0455 7.6046 0.0000 13.5734 0.0000
# 6 0.0000 0.0000 0.0000 16.6335 0.0000 14.3780
#
#
#
# Elastic Compliance Matrix: (Units=1/GPa)
#
#
# Indices 1 2 3 4 5 6 
#
# 1 0.040704 -0.007284 -0.000163 0.000000 0.023803 0.000000
# 2 -0.007284 0.009176 -0.005561 0.000000 -0.011014 0.000000
# 3 -0.000163 -0.005561 0.018585 0.000000 -0.003488 0.000000
# 4 0.000000 0.000000 0.000000 -0.103501 0.000000 0.119736
# 5 0.023803 -0.011014 -0.003488 0.000000 0.097977 0.000000
# 6 0.000000 0.000000 0.000000 0.119736 0.000000 -0.068969
#
#
# Mechanical properties :
#
#
# Convention : Reuss Voigt Hill
#
# Bulk Modulus (GPa) = 23.55765 51.32407 37.44086
# Shear Modulus (GPa) = 146.46256 20.82486 83.64371
#
# Velocity S-wave (km/s) = 8.18687 3.08706 6.18687
# Velocity P-wave (km/s) = 10.00735 6.01613 8.25654
#
# Compressibility (1/GPa) = 0.04244906
#
# Stress axis : x y z
#
# Youngs Moduli (GPa) = 24.56775 108.97843 53.80597
#
# Poissons Ratio (x) = 0.79380 0.00878
# Poissons Ratio (y) = 0.17895 0.29921
# Poissons Ratio (z) = 0.00401 0.60601
#
# Static dielectric constant tensor:
#      x y z
#    x 1.888160 0.000000 -0.074020 
#    y 0.000000 1.839230 0.000000 
#    z -0.074020 0.000000 1.894020 
# 
# From -- ./inp_files/243046.got.cif
#   From: 2010.05.17/outbox.cif.g08.bks.cpg/sg15_122_cif.got.tgz:243046.got - 2010.06.03 18:47:42.
