data_PCOD9268481
_publ_section_title
;
Structure prediction by ZEFSAII (Michael W. Deem and Ramdas Pophale) SiO2 
 PCOD9268481
Probable space group: C 2/C
;
_chemical_formula_sum "Si O2"
_cell_formula_units_Z 56
_cell_length_a 14.622563
_cell_length_b 18.602873
_cell_length_c 15.114777
_cell_angle_alpha 90.000000
_cell_angle_beta 50.203587
_cell_angle_gamma 90.000000
_cell_volume 3158.998630
_symmetry_space_group_name_H-M "C 2/C"
_symmetry_group_IT_number 15
_symmetry_cell_setting 'monoclinic'
loop_
_space_group_symop_operation_xyz
x,y,z
-x,y,1/2-z
-x,-y,-z
x,-y,1/2+z
1/2+x,1/2+y,z
1/2-x,1/2+y,1/2-z
1/2-x,1/2-y,-z
1/2+x,1/2-y,1/2+z
loop_
_atom_site_type_symbol
_atom_site_label
_atom_site_fract_x
_atom_site_fract_y
_atom_site_fract_z
Si Si1 0.973128 0.699388 0.002643
Si Si2 0.740119 0.335401 0.740054
Si Si3 0.972817 0.937746 0.664642
Si Si4 0.493014 0.609043 0.651175
Si Si5 0.605910 0.194133 0.752079
Si Si6 0.356923 0.650734 0.566457
Si Si7 0.679048 0.712856 0.465958
O O1 0.868322 0.656287 0.115326
O O2 0.906635 0.771132 0.006795
O O3 0.073243 0.732273 0.004801
O O4 0.045076 0.663334 0.878531
O O5 0.653678 0.403745 0.785285
O O6 0.666850 0.270279 0.739128
O O7 0.752484 0.307353 0.832873
O O8 0.000000 0.917673 0.750000
O O9 0.071214 0.905359 0.537377
O O10 0.977049 0.023680 0.656283
O O11 0.500000 0.630661 0.750000
O O12 0.392439 0.642018 0.648340
O O13 0.614821 0.639462 0.535191
O O14 0.500000 0.204313 0.750000
O O15 0.715364 0.147933 0.646897
O O16 0.750000 0.750000 0.500000
#
# Coordination Sequence:
#
# PCOD9268481 Si02
#       7
#     8   8   8   8   8   8   8
#     4   9  20  33  50  84 111 143 180 228 293 335
#     4  10  20  34  53  81 114 143 184 235 285 335
#     4  11  21  36  57  85 108 148 192 233 286 334
#     4  10  22  36  58  83 108 148 192 239 283 333
#     4  10  20  32  51  81 109 148 175 223 291 333
#     4  10  20  35  56  78 113 141 186 237 275 345
#     4  10  21  34  57  83 111 147 186 239 292 341
#
# _framework density 17.727136999999999
#
# number of rings (size 3 to 8) (size 9 to 14) (size 15 to 20)
#    0.000    2.000    4.286    0.857   10.000    1.143 
#    0.000    0.000    0.000    2.571    0.000    0.000 
#    0.000    0.000    0.000    0.000    0.000    0.000 
#
# Total GULP energy -156063.716045 kJ/mol
# GULP energy per Si atom -5573.704144 kJ/mol
# Density = 1.768679 g / cm^3
# Si number density = 17.727137 Si / 1000 Ang^3
#
#
#
# Elastic Constant Matrix: (Units=GPa)
#
#
# Indices 1 2 3 4 5 6 
#
# 1 62.1170 -7.4790 30.7971 0.0000 1.0716 0.0000
# 2 -7.4790 24.6064 2.3395 0.0000 -1.1156 0.0000
# 3 30.7971 2.3395 90.8636 0.0000 -15.6882 0.0000
# 4 0.0000 0.0000 0.0000 17.8860 0.0000 1.6513
# 5 1.0716 -1.1156 -15.6882 0.0000 31.0842 0.0000
# 6 0.0000 0.0000 0.0000 1.6513 0.0000 15.6201
#
#
#
# Elastic Compliance Matrix: (Units=1/GPa)
#
#
# Indices 1 2 3 4 5 6 
#
# 1 0.021027 0.006954 -0.008093 0.000000 -0.004560 0.000000
# 2 0.006954 0.043069 -0.003550 0.000000 -0.000486 0.000000
# 3 -0.008093 -0.003550 0.015190 0.000000 0.007818 0.000000
# 4 0.000000 0.000000 0.000000 0.056461 0.000000 -0.005969
# 5 -0.004560 -0.000486 0.007818 0.000000 0.036256 0.000000
# 6 0.000000 0.000000 0.000000 -0.005969 0.000000 0.064651
#
#
# Mechanical properties :
#
#
# Convention : Reuss Voigt Hill
#
# Bulk Modulus (GPa) = 14.30456 25.43359 19.86908
# Shear Modulus (GPa) = 18.56426 23.04668 20.80547
#
# Velocity S-wave (km/s) = 3.23959 3.60957 3.42958
# Velocity P-wave (km/s) = 4.69895 5.63475 5.18799
#
# Compressibility (1/GPa) = 0.06990776
#
# Stress axis : x y z
#
# Youngs Moduli (GPa) = 47.55762 23.21859 65.83356
#
# Poissons Ratio (x) = -0.16146 0.53281
# Poissons Ratio (y) = -0.33071 0.23369
# Poissons Ratio (z) = 0.38490 0.08242
#
# Static dielectric constant tensor:
#      x y z
#    x 1.617260 0.000000 0.022440 
#    y 0.000000 1.589680 0.000000 
#    z 0.022440 0.000000 1.650930 
# 
# From -- ./inp_files/155122.got.cif
#   From: 2010.05.17/outbox.cif.g08.bks.cpg/sg15_78_cif.got.tgz:155122.got - 2010.06.03 18:47:42.
