data_PCOD9268315
_publ_section_title
;
Structure prediction by ZEFSAII (Michael W. Deem and Ramdas Pophale) SiO2 
 PCOD9268315
Probable space group: C 2/C
;
_chemical_formula_sum "Si O2"
_cell_formula_units_Z 44
_cell_length_a 14.418823
_cell_length_b 28.881722
_cell_length_c 5.515810
_cell_angle_alpha 90.000000
_cell_angle_beta 119.082079
_cell_angle_gamma 90.000000
_cell_volume 2007.409640
_symmetry_space_group_name_H-M "C 2/C"
_symmetry_group_IT_number 15
_symmetry_cell_setting 'monoclinic'
loop_
_space_group_symop_operation_xyz
x,y,z
-x,y,1/2-z
-x,-y,-z
x,-y,1/2+z
1/2+x,1/2+y,z
1/2-x,1/2+y,1/2-z
1/2-x,1/2-y,-z
1/2+x,1/2-y,1/2+z
loop_
_atom_site_type_symbol
_atom_site_label
_atom_site_fract_x
_atom_site_fract_y
_atom_site_fract_z
Si Si1 0.324014 0.485204 0.224950
Si Si2 0.678776 0.812454 0.798929
Si Si3 0.894806 0.775683 0.000053
Si Si4 0.324075 0.905205 0.453449
Si Si5 0.887633 0.549572 0.535936
Si Si6 0.500000 0.791155 0.250000
O O1 0.377132 0.499343 0.543585
O O2 0.289083 0.431809 0.177081
O O3 0.211165 0.513977 0.090627
O O4 0.794321 0.808117 0.824861
O O5 0.683725 0.850713 0.012855
O O6 0.580951 0.822782 0.500060
O O7 0.644374 0.762258 0.854305
O O8 0.929394 0.743792 0.820937
O O9 0.000000 0.798429 0.250000
O O10 0.367975 0.917393 0.244087
O O11 0.385018 0.925539 0.769956
O O12 0.000000 0.526902 0.750000
#
# Coordination Sequence:
#
# PCOD9268315 Si02
#       6
#     8   8   8   8   8   4
#     4   8  16  30  43  61  93 134 177 208 249 304
#     4  10  21  35  53  76 107 137 176 223 269 318
#     4   9  20  38  55  75 101 137 177 219 275 323
#     4  10  21  31  46  71  99 135 179 216 256 304
#     4  10  20  31  45  66 101 143 180 212 256 310
#     4  10  20  34  54  76 102 140 172 216 270 330
#
# _framework density 21.918793000000001
#
# number of rings (size 3 to 8) (size 9 to 14) (size 15 to 20)
#    0.000    2.545    0.000    1.091    3.818    9.455 
#    0.000    0.000    0.000    0.000    0.000    0.000 
#    0.000   13.091    0.000    0.000    0.000    0.000 
#
# Total GULP energy -122708.956934 kJ/mol
# GULP energy per Si atom -5577.679861 kJ/mol
# Density = 2.186890 g / cm^3
# Si number density = 21.918793 Si / 1000 Ang^3
#
#
#
# Elastic Constant Matrix: (Units=GPa)
#
#
# Indices 1 2 3 4 5 6 
#
# 1 73.5956 12.8855 51.8285 0.0000 5.4043 0.0000
# 2 12.8855 35.2334 9.1236 0.0000 12.9793 0.0000
# 3 51.8285 9.1236 81.5642 0.0000 -21.1778 0.0000
# 4 0.0000 0.0000 0.0000 20.7426 0.0000 -17.4341
# 5 5.4043 12.9793 -21.1778 0.0000 37.5876 0.0000
# 6 0.0000 0.0000 0.0000 -17.4341 0.0000 9.6710
#
#
#
# Elastic Compliance Matrix: (Units=1/GPa)
#
#
# Indices 1 2 3 4 5 6 
#
# 1 0.033971 0.002444 -0.027348 0.000000 -0.021137 0.000000
# 2 0.002444 0.037390 -0.010752 0.000000 -0.019320 0.000000
# 3 -0.027348 -0.010752 0.038451 0.000000 0.029309 0.000000
# 4 0.000000 0.000000 0.000000 -0.093581 0.000000 -0.168699
# 5 -0.021137 -0.019320 0.029309 0.000000 0.052828 0.000000
# 6 0.000000 0.000000 0.000000 -0.168699 0.000000 -0.200713
#
#
# Mechanical properties :
#
#
# Convention : Reuss Voigt Hill
#
# Bulk Modulus (GPa) = 25.97385 37.56319 31.76852
# Shear Modulus (GPa) = -105.24181 21.37061 -41.93560
#
# Velocity S-wave (km/s) = -6.93676 3.12587 -4.37879
# Velocity P-wave (km/s) = 7.23066 5.49570 3.32263
#
# Compressibility (1/GPa) = 0.03850026
#
# Stress axis : x y z
#
# Youngs Moduli (GPa) = 29.43662 26.74540 26.00739
#
# Poissons Ratio (x) = -0.06537 0.71125
# Poissons Ratio (y) = -0.07195 0.27963
# Poissons Ratio (z) = 0.80503 0.28756
#
# Static dielectric constant tensor:
#      x y z
#    x 1.851140 0.000000 -0.005620 
#    y 0.000000 1.788490 0.000000 
#    z -0.005620 0.000000 1.888770 
# 
# From -- ./inp_files/7975.got.cif
#   From: 2010.05.17/outbox.cif.g08.bks.cpg/sg15_4_cif.got.tgz:7975.got - 2010.06.03 18:47:42.
