data_PCOD9268139
_publ_section_title
;
Structure prediction by ZEFSAII (Michael W. Deem and Ramdas Pophale) SiO2 
 PCOD9268139
Probable space group: C 2/C
;
_chemical_formula_sum "Si O2"
_cell_formula_units_Z 40
_cell_length_a 12.007206
_cell_length_b 21.369780
_cell_length_c 10.462118
_cell_angle_alpha 90.000000
_cell_angle_beta 43.758210
_cell_angle_gamma 90.000000
_cell_volume 1856.637032
_symmetry_space_group_name_H-M "C 2/C"
_symmetry_group_IT_number 15
_symmetry_cell_setting 'monoclinic'
loop_
_space_group_symop_operation_xyz
x,y,z
-x,y,1/2-z
-x,-y,-z
x,-y,1/2+z
1/2+x,1/2+y,z
1/2-x,1/2+y,1/2-z
1/2-x,1/2-y,-z
1/2+x,1/2-y,1/2+z
loop_
_atom_site_type_symbol
_atom_site_label
_atom_site_fract_x
_atom_site_fract_y
_atom_site_fract_z
Si Si1 0.431379 0.584164 0.946185
Si Si2 0.000000 0.881509 0.750000
Si Si3 0.204463 0.047515 0.891946
Si Si4 0.321346 0.802017 0.846109
Si Si5 0.000000 0.392419 0.250000
Si Si6 0.725100 0.200335 0.405809
O O1 0.500000 0.569163 0.750000
O O2 0.598968 0.589830 0.884220
O O3 0.338985 0.524915 0.085994
O O4 0.304987 0.640461 0.045513
O O5 0.896314 0.835246 0.747460
O O6 0.130900 0.927932 0.585069
O O7 0.389107 0.064695 0.751493
O O8 0.500000 0.818642 0.750000
O O9 0.328730 0.779117 0.691207
O O10 0.250000 0.750000 0.000000
O O11 0.901540 0.347717 0.427380
O O12 0.750000 0.250000 0.500000
#
# Coordination Sequence:
#
# PCOD9268139 Si02
#       6
#     8   4   8   8   4   8
#     4  11  24  45  73  99 142 191 225 288 367 435
#     4  10  19  42  68  92 131 170 242 274 348 408
#     4  10  22  43  70 105 134 179 236 293 352 418
#     4  12  30  47  70 105 149 187 238 296 365 434
#     4  10  25  40  74 104 139 170 250 298 344 416
#     4  11  25  44  71  99 135 191 240 291 349 423
#
# _framework density 21.544329000000001
#
# number of rings (size 3 to 8) (size 9 to 14) (size 15 to 20)
#    0.000    1.200    3.000    1.200    9.800    1.600 
#    0.000    2.000    0.000    0.000    0.000    0.000 
#    0.000    0.000    0.000    0.000    0.000    0.000 
#
# Total GULP energy -111526.558133 kJ/mol
# GULP energy per Si atom -5576.327907 kJ/mol
# Density = 2.149529 g / cm^3
# Si number density = 21.544329 Si / 1000 Ang^3
#
#
#
# Elastic Constant Matrix: (Units=GPa)
#
#
# Indices 1 2 3 4 5 6 
#
# 1 164.7163 53.0305 44.7602 0.0000 -19.4866 0.0000
# 2 53.0305 79.2734 18.7336 0.0000 -13.6162 0.0000
# 3 44.7602 18.7336 60.6726 0.0000 -6.4392 0.0000
# 4 0.0000 0.0000 0.0000 24.3389 0.0000 -9.3132
# 5 -19.4866 -13.6162 -6.4392 0.0000 46.2162 0.0000
# 6 0.0000 0.0000 0.0000 -9.3132 0.0000 27.1115
#
#
#
# Elastic Compliance Matrix: (Units=1/GPa)
#
#
# Indices 1 2 3 4 5 6 
#
# 1 0.009165 -0.004607 -0.005149 0.000000 0.001790 0.000000
# 2 -0.004607 0.016496 -0.001406 0.000000 0.002722 0.000000
# 3 -0.005149 -0.001406 0.020747 0.000000 0.000305 0.000000
# 4 0.000000 0.000000 0.000000 0.047304 0.000000 0.016250
# 5 0.001790 0.002722 0.000305 0.000000 0.023236 0.000000
# 6 0.000000 0.000000 0.000000 0.016250 0.000000 0.042467
#
#
# Mechanical properties :
#
#
# Convention : Reuss Voigt Hill
#
# Bulk Modulus (GPa) = 41.52031 59.74563 50.63297
# Shear Modulus (GPa) = 26.34797 32.07586 29.21192
#
# Velocity S-wave (km/s) = 3.50089 3.86272 3.68625
# Velocity P-wave (km/s) = 5.97122 6.90550 6.45528
#
# Compressibility (1/GPa) = 0.02408460
#
# Stress axis : x y z
#
# Youngs Moduli (GPa) = 109.10860 60.62036 48.19964
#
# Poissons Ratio (x) = 0.27927 0.24818
# Poissons Ratio (y) = 0.50265 0.06776
# Poissons Ratio (z) = 0.56181 0.08523
#
# Static dielectric constant tensor:
#      x y z
#    x 1.882710 0.000000 0.017290 
#    y 0.000000 1.819750 0.000000 
#    z 0.017290 0.000000 1.834300 
# 
# From -- ./inp_files/89346.got.cif
#   From: 2010.05.17/outbox.cif.g08.bks.cpg/sg15_45_cif.got.tgz:89346.got - 2010.06.03 18:47:42.
