data_PCOD9268408
_publ_section_title
;
Structure prediction by ZEFSAII (Michael W. Deem and Ramdas Pophale) SiO2 
 PCOD9268408
Probable space group: C 2/C
;
_chemical_formula_sum "Si O2"
_cell_formula_units_Z 48
_cell_length_a 20.177846
_cell_length_b 25.830205
_cell_length_c 5.925410
_cell_angle_alpha 90.000000
_cell_angle_beta 117.778040
_cell_angle_gamma 90.000000
_cell_volume 2732.413216
_symmetry_space_group_name_H-M "C 2/C"
_symmetry_group_IT_number 15
_symmetry_cell_setting 'monoclinic'
loop_
_space_group_symop_operation_xyz
x,y,z
-x,y,1/2-z
-x,-y,-z
x,-y,1/2+z
1/2+x,1/2+y,z
1/2-x,1/2+y,1/2-z
1/2-x,1/2-y,-z
1/2+x,1/2-y,1/2+z
loop_
_atom_site_type_symbol
_atom_site_label
_atom_site_fract_x
_atom_site_fract_y
_atom_site_fract_z
Si Si1 0.906812 0.117504 0.927373
Si Si2 0.500000 0.443357 0.250000
Si Si3 0.000000 0.735371 0.250000
Si Si4 0.849059 0.011942 0.990139
Si Si5 0.102979 0.786526 0.776104
Si Si6 0.700478 0.320946 0.548577
Si Si7 0.642144 0.784816 0.719195
O O1 0.848547 0.133297 0.635552
O O2 0.980281 0.093305 0.929048
O O3 0.869636 0.072396 0.015143
O O4 0.919548 0.169300 0.085876
O O5 0.426881 0.478918 0.104839
O O6 0.039965 0.772298 0.495381
O O7 0.066226 0.703652 0.234210
O O8 0.814184 0.999449 0.183094
O O9 0.175226 0.809239 0.762577
O O10 0.121813 0.733478 0.935608
O O11 0.674229 0.268520 0.378744
O O12 0.789612 0.324807 0.664850
#
# Coordination Sequence:
#
# PCOD9268408 Si02
#       7
#     8   4   4   8   8   8   8
#     4  10  21  33  48  67  93 125 176 211 245 288
#     4  10  22  39  46  68 100 138 172 214 252 291
#     4  10  20  33  46  70  94 122 164 206 258 295
#     4  10  21  38  49  67  97 139 171 212 258 293
#     4  10  20  32  45  71  91 126 164 211 247 297
#     4   9  19  33  47  67  90 125 160 207 247 302
#     4   9  18  34  48  63  95 122 158 200 259 297
#
# _framework density 17.566890000000001
#
# number of rings (size 3 to 8) (size 9 to 14) (size 15 to 20)
#    0.000    2.333    0.000    3.000    4.667    8.667 
#   15.000    0.000    0.000    0.000    0.000    0.000 
#    0.000    0.000    0.000    6.000    0.333    4.333 
#
# Total GULP energy -133844.991462 kJ/mol
# GULP energy per Si atom -5576.874644 kJ/mol
# Density = 1.752691 g / cm^3
# Si number density = 17.566890 Si / 1000 Ang^3
#
#
#
# Elastic Constant Matrix: (Units=GPa)
#
#
# Indices 1 2 3 4 5 6 
#
# 1 98.6073 5.1140 31.7751 0.0000 7.2686 0.0000
# 2 5.1140 27.4607 11.0803 0.0000 4.6593 0.0000
# 3 31.7751 11.0803 76.4477 0.0000 -13.5067 0.0000
# 4 0.0000 0.0000 0.0000 15.1835 0.0000 3.4949
# 5 7.2686 4.6593 -13.5067 0.0000 21.7999 0.0000
# 6 0.0000 0.0000 0.0000 3.4949 0.0000 7.9859
#
#
#
# Elastic Compliance Matrix: (Units=1/GPa)
#
#
# Indices 1 2 3 4 5 6 
#
# 1 0.013121 0.002159 -0.007435 0.000000 -0.009443 0.000000
# 2 0.002159 0.042729 -0.009917 0.000000 -0.015996 0.000000
# 3 -0.007435 -0.009917 0.020685 0.000000 0.017415 0.000000
# 4 0.000000 0.000000 0.000000 0.073238 0.000000 -0.032051
# 5 -0.009443 -0.015996 0.017415 0.000000 0.063229 0.000000
# 6 0.000000 0.000000 0.000000 -0.032051 0.000000 0.139248
#
#
# Mechanical properties :
#
#
# Convention : Reuss Voigt Hill
#
# Bulk Modulus (GPa) = 21.66860 33.16159 27.41510
# Shear Modulus (GPa) = 12.56220 19.29695 15.92957
#
# Velocity S-wave (km/s) = 2.67705 3.31793 3.01457
# Velocity P-wave (km/s) = 4.68157 5.79625 5.26848
#
# Compressibility (1/GPa) = 0.04614972
#
# Stress axis : x y z
#
# Youngs Moduli (GPa) = 76.21274 23.40320 48.34369
#
# Poissons Ratio (x) = -0.05052 0.35943
# Poissons Ratio (y) = -0.16451 0.47940
# Poissons Ratio (z) = 0.56664 0.23208
#
# Static dielectric constant tensor:
#      x y z
#    x 1.652060 0.000000 -0.042360 
#    y 0.000000 1.580150 0.000000 
#    z -0.042360 0.000000 1.715620 
# 
# From -- ./inp_files/11092.got.cif
#   From: 2010.05.17/outbox.cif.g08.bks.cpg/sg15_6_cif.got.tgz:11092.got - 2010.06.03 18:47:42.
