data_PCOD9268295
_publ_section_title
;
Structure prediction by ZEFSAII (Michael W. Deem and Ramdas Pophale) SiO2 
 PCOD9268295
Probable space group: C 2/C
;
_chemical_formula_sum "Si O2"
_cell_formula_units_Z 56
_cell_length_a 20.237660
_cell_length_b 28.347829
_cell_length_c 9.156776
_cell_angle_alpha 90.000000
_cell_angle_beta 32.340680
_cell_angle_gamma 90.000000
_cell_volume 2810.203627
_symmetry_space_group_name_H-M "C 2/C"
_symmetry_group_IT_number 15
_symmetry_cell_setting 'monoclinic'
loop_
_space_group_symop_operation_xyz
x,y,z
-x,y,1/2-z
-x,-y,-z
x,-y,1/2+z
1/2+x,1/2+y,z
1/2-x,1/2+y,1/2-z
1/2-x,1/2-y,-z
1/2+x,1/2-y,1/2+z
loop_
_atom_site_type_symbol
_atom_site_label
_atom_site_fract_x
_atom_site_fract_y
_atom_site_fract_z
Si Si1 0.172894 0.485061 0.167546
Si Si2 0.701907 0.904773 0.552269
Si Si3 0.658503 0.683098 0.690639
Si Si4 0.000000 0.842220 0.750000
Si Si5 0.500000 0.008563 0.750000
Si Si6 0.469635 0.854065 0.134934
Si Si7 0.431095 0.776670 0.734724
Si Si8 0.735660 0.604508 0.905876
O O1 0.208233 0.539550 0.076882
O O2 0.074246 0.481569 0.484886
O O3 0.278137 0.449048 0.013100
O O4 0.104834 0.466358 0.148452
O O5 0.811547 0.870925 0.409817
O O6 0.712514 0.897305 0.357632
O O7 0.572906 0.885461 0.857176
O O8 0.590626 0.720615 0.715595
O O9 0.794243 0.702515 0.474297
O O10 0.578910 0.685516 0.985545
O O11 0.102385 0.871964 0.646086
O O12 0.500000 0.858806 0.250000
O O13 0.335794 0.869831 0.323311
O O14 0.494228 0.799927 0.038626
O O15 0.500000 0.793781 0.750000
#
# Coordination Sequence:
#
# PCOD9268295 Si02
#       8
#     8   8   8   4   4   8   8   8
#     4  11  21  34  56  91 119 169 194 258 308 366
#     4  10  21  39  61  85 128 165 203 254 316 364
#     4   9  21  41  64  86 118 161 205 255 296 371
#     4  10  22  44  62  85 118 170 219 246 284 374
#     4  10  20  30  54  89 124 142 201 252 316 360
#     4  11  23  35  62 102 126 149 202 265 315 367
#     4  10  20  42  67  89 121 161 198 247 329 373
#     4  11  23  40  61  86 126 171 206 251 308 370
#
# _framework density 19.927382000000001
#
# number of rings (size 3 to 8) (size 9 to 14) (size 15 to 20)
#    0.000    1.714    1.429    4.714    5.000    0.000 
#    7.714    4.286    1.571    0.000    0.000    0.000 
#    0.000    0.000    0.000    0.000    0.000    0.000 
#
# Total GULP energy -155995.219576 kJ/mol
# GULP energy per Si atom -5571.257842 kJ/mol
# Density = 1.988203 g / cm^3
# Si number density = 19.927382 Si / 1000 Ang^3
#
#
#
# Elastic Constant Matrix: (Units=GPa)
#
#
# Indices 1 2 3 4 5 6 
#
# 1 98.3760 36.9513 15.5332 0.0000 4.6733 0.0000
# 2 36.9513 101.8461 11.2356 0.0000 -9.9534 0.0000
# 3 15.5332 11.2356 24.0857 -0.0001 -3.1257 0.0000
# 4 0.0000 0.0000 -0.0001 -4.3748 0.0000 13.4953
# 5 4.6733 -9.9534 -3.1257 0.0000 23.9841 0.0000
# 6 0.0000 0.0000 0.0000 13.4953 0.0000 13.1391
#
#
#
# Elastic Compliance Matrix: (Units=1/GPa)
#
#
# Indices 1 2 3 4 5 6 
#
# 1 0.013256 -0.004551 -0.007127 0.000000 -0.005401 0.000000
# 2 -0.004551 0.012253 -0.002040 0.000000 0.005706 0.000000
# 3 -0.007127 -0.002040 0.047948 0.000000 0.006791 0.000000
# 4 0.000000 0.000000 0.000000 -0.054837 0.000000 0.056324
# 5 -0.005401 0.005706 0.006791 0.000000 0.046000 0.000000
# 6 0.000000 0.000000 0.000000 0.056324 0.000000 0.018258
#
#
# Mechanical properties :
#
#
# Convention : Reuss Voigt Hill
#
# Bulk Modulus (GPa) = 21.72964 39.08312 30.40638
# Shear Modulus (GPa) = 39.79162 17.25552 28.52357
#
# Velocity S-wave (km/s) = 4.47344 2.94584 3.78746
# Velocity P-wave (km/s) = 6.13272 5.58802 5.86670
#
# Compressibility (1/GPa) = 0.04602009
#
# Stress axis : x y z
#
# Youngs Moduli (GPa) = 75.43491 81.61497 20.85605
#
# Poissons Ratio (x) = 0.37144 0.14864
# Poissons Ratio (y) = 0.34332 0.04255
# Poissons Ratio (z) = 0.53763 0.16650
#
# Static dielectric constant tensor:
#      x y z
#    x 1.707670 0.000000 0.006860 
#    y 0.000000 1.803130 0.000000 
#    z 0.006860 0.000000 1.674440 
# 
# From -- ./inp_files/59369.got.cif
#   From: 2010.05.17/outbox.cif.g08.bks.cpg/sg15_30_cif.got.tgz:59369.got - 2010.06.03 18:47:42.
