data_PCOD9268319
_publ_section_title
;
Structure prediction by ZEFSAII (Michael W. Deem and Ramdas Pophale) SiO2 
 PCOD9268319
Probable space group: C 2/C
;
_chemical_formula_sum "Si O2"
_cell_formula_units_Z 64
_cell_length_a 13.505912
_cell_length_b 31.343374
_cell_length_c 9.173560
_cell_angle_alpha 90.000000
_cell_angle_beta 89.823844
_cell_angle_gamma 90.000000
_cell_volume 3883.340872
_symmetry_space_group_name_H-M "C 2/C"
_symmetry_group_IT_number 15
_symmetry_cell_setting 'monoclinic'
loop_
_space_group_symop_operation_xyz
x,y,z
-x,y,1/2-z
-x,-y,-z
x,-y,1/2+z
1/2+x,1/2+y,z
1/2-x,1/2+y,1/2-z
1/2-x,1/2-y,-z
1/2+x,1/2-y,1/2+z
loop_
_atom_site_type_symbol
_atom_site_label
_atom_site_fract_x
_atom_site_fract_y
_atom_site_fract_z
Si Si1 0.886601 0.779552 0.577497
Si Si2 0.313966 0.184402 0.032551
Si Si3 0.382670 0.134075 0.782299
Si Si4 0.609128 0.042402 0.823943
Si Si5 0.114786 0.364310 0.706833
Si Si6 0.389619 0.724453 0.429471
Si Si7 0.808838 0.313350 0.041877
Si Si8 0.390531 0.041413 0.323412
O O1 0.880487 0.776533 0.753335
O O2 0.858516 0.732520 0.519720
O O3 0.803282 0.810440 0.512794
O O4 0.999162 0.789788 0.535461
O O5 0.329419 0.171337 0.199643
O O6 0.198931 0.195442 0.008607
O O7 0.359482 0.143461 0.950046
O O8 0.372307 0.227389 0.987830
O O9 0.500000 0.139123 0.750000
O O10 0.347940 0.088051 0.725005
O O11 0.321397 0.172116 0.707057
O O12 0.500000 0.044139 0.750000
O O13 0.657112 0.000527 0.749636
O O14 0.603048 0.038270 0.999879
O O15 0.128912 0.349055 0.542397
O O16 0.154362 0.412606 0.717209
O O17 0.000000 0.363602 0.750000
O O18 0.500000 0.042958 0.250000
#
# Coordination Sequence:
#
# PCOD9268319 Si02
#       8
#     8   8   8   8   8   8   8   8
#     4  10  20  34  55  68 102 132 167 211 260 296
#     4  11  22  33  51  72 100 131 173 211 241 300
#     4  11  21  33  52  71 103 138 169 201 250 297
#     4  10  20  31  47  69  99 137 166 199 249 297
#     4  11  21  31  48  73 102 130 172 209 240 289
#     4  10  20  36  50  74  98 134 166 213 259 293
#     4  11  20  35  49  76  94 137 171 208 246 297
#     4  10  20  31  46  69 102 132 169 203 243 299
#
# _framework density 16.480656
#
# number of rings (size 3 to 8) (size 9 to 14) (size 15 to 20)
#    0.000    1.500    3.750    3.750    7.000    0.000 
#    0.000    1.875    0.000    0.000    0.000    0.000 
#    0.000    6.000    0.000    0.000    0.000    0.000 
#
# Total GULP energy -178285.681271 kJ/mol
# GULP energy per Si atom -5571.427540 kJ/mol
# Density = 1.644314 g / cm^3
# Si number density = 16.480656 Si / 1000 Ang^3
#
#
#
# Elastic Constant Matrix: (Units=GPa)
#
#
# Indices 1 2 3 4 5 6 
#
# 1 83.9359 23.0973 14.3371 0.0000 -0.8469 0.0000
# 2 23.0973 75.8957 10.9610 0.0000 -2.6828 0.0000
# 3 14.3371 10.9610 51.4409 0.0000 -1.4763 0.0000
# 4 0.0000 0.0000 0.0000 25.9941 0.0000 0.0188
# 5 -0.8469 -2.6828 -1.4763 0.0000 23.4511 0.0000
# 6 0.0000 0.0000 0.0000 0.0188 0.0000 10.4952
#
#
#
# Elastic Compliance Matrix: (Units=1/GPa)
#
#
# Indices 1 2 3 4 5 6 
#
# 1 0.013427 -0.003662 -0.002965 0.000000 -0.000121 0.000000
# 2 -0.003662 0.014638 -0.002058 0.000000 0.001413 0.000000
# 3 -0.002965 -0.002058 0.020732 0.000000 0.000963 0.000000
# 4 0.000000 0.000000 0.000000 0.038470 0.000000 -0.000069
# 5 -0.000121 0.001413 0.000963 0.000000 0.042860 0.000000
# 6 0.000000 0.000000 0.000000 -0.000069 0.000000 0.095282
#
#
# Mechanical properties :
#
#
# Convention : Reuss Voigt Hill
#
# Bulk Modulus (GPa) = 31.82049 34.22927 33.02488
# Shear Modulus (GPa) = 19.74294 22.84654 21.29474
#
# Velocity S-wave (km/s) = 3.46489 3.72730 3.59849
# Velocity P-wave (km/s) = 5.94617 6.27201 6.11126
#
# Compressibility (1/GPa) = 0.03142629
#
# Stress axis : x y z
#
# Youngs Moduli (GPa) = 74.47729 68.31706 48.23375
#
# Poissons Ratio (x) = 0.25019 0.14303
# Poissons Ratio (y) = 0.27275 0.09925
# Poissons Ratio (z) = 0.22085 0.14058
#
# Static dielectric constant tensor:
#      x y z
#    x 1.539210 0.000000 0.005660 
#    y 0.000000 1.592290 0.000000 
#    z 0.005660 0.000000 1.563150 
# 
# From -- ./inp_files/44272.got.cif
#   From: 2010.05.17/outbox.cif.g08.bks.cpg/sg15_23_cif.got.tgz:44272.got - 2010.06.03 18:47:42.
