data_PCOD9268990
_publ_section_title
;
Structure prediction by ZEFSAII (Michael W. Deem and Ramdas Pophale) SiO2 
 PCOD9268990
Probable space group: C 2/C
;
_chemical_formula_sum "Si O2"
_cell_formula_units_Z 48
_cell_length_a 8.897783
_cell_length_b 26.748173
_cell_length_c 9.674233
_cell_angle_alpha 90.000000
_cell_angle_beta 97.709230
_cell_angle_gamma 90.000000
_cell_volume 2281.651460
_symmetry_space_group_name_H-M "C 2/C"
_symmetry_group_IT_number 15
_symmetry_cell_setting 'monoclinic'
loop_
_space_group_symop_operation_xyz
x,y,z
-x,y,1/2-z
-x,-y,-z
x,-y,1/2+z
1/2+x,1/2+y,z
1/2-x,1/2+y,1/2-z
1/2-x,1/2-y,-z
1/2+x,1/2-y,1/2+z
loop_
_atom_site_type_symbol
_atom_site_label
_atom_site_fract_x
_atom_site_fract_y
_atom_site_fract_z
Si Si1 0.783864 0.175326 0.980736
Si Si2 0.678863 0.594771 0.927658
Si Si3 0.197719 0.204305 0.834945
Si Si4 0.501468 0.755556 0.027699
Si Si5 0.329786 0.430455 0.394398
Si Si6 0.108044 0.522616 0.397116
O O1 0.827362 0.188145 0.825751
O O2 0.919292 0.205166 0.071561
O O3 0.771335 0.115676 0.981712
O O4 0.630003 0.203257 0.002210
O O5 0.678251 0.654695 0.925814
O O6 0.707065 0.581261 0.770545
O O7 0.511691 0.572228 0.937115
O O8 0.808799 0.572648 0.040707
O O9 0.091481 0.244817 0.895718
O O10 0.368294 0.223917 0.858439
O O11 0.245512 0.482451 0.405678
O O12 0.000000 0.527893 0.250000
O O13 0.000000 0.500000 0.500000
#
# Coordination Sequence:
#
# PCOD9268990 Si02
#       6
#     8   8   8   8   8   8
#     4  10  20  36  61  89 119 163 213 253 306 377
#     4  10  21  41  67  94 125 168 215 259 321 384
#     4  10  20  37  61  88 122 163 210 256 312 371
#     4  10  20  33  58  89 122 153 202 261 302 364
#     4  10  21  40  69  92 123 170 216 261 316 391
#     4  12  25  43  67  99 131 162 212 270 327 384
#
# _framework density 21.037393000000002
#
# number of rings (size 3 to 8) (size 9 to 14) (size 15 to 20)
#    0.000    1.667    3.333    1.500    2.333    0.000 
#    0.000    3.333    3.667    0.000    0.000    0.000 
#    0.000    0.000    0.000    0.000    0.000    0.000 
#
# Total GULP energy -133891.149244 kJ/mol
# GULP energy per Si atom -5578.797885 kJ/mol
# Density = 2.098951 g / cm^3
# Si number density = 21.037393 Si / 1000 Ang^3
#
#
#
# Elastic Constant Matrix: (Units=GPa)
#
#
# Indices 1 2 3 4 5 6 
#
# 1 103.3971 49.0776 31.4429 0.0000 17.1450 0.0000
# 2 49.0776 85.8627 27.6415 0.0000 11.8052 0.0000
# 3 31.4429 27.6415 71.4964 0.0000 23.5743 0.0000
# 4 0.0000 0.0000 0.0000 24.3637 0.0000 1.6129
# 5 17.1450 11.8052 23.5743 0.0000 39.0180 0.0000
# 6 0.0000 0.0000 0.0000 1.6129 0.0000 31.4821
#
#
#
# Elastic Compliance Matrix: (Units=1/GPa)
#
#
# Indices 1 2 3 4 5 6 
#
# 1 0.014188 -0.006879 -0.002761 0.000000 -0.002485 0.000000
# 2 -0.006879 0.016679 -0.003441 0.000000 0.000056 0.000000
# 3 -0.002761 -0.003441 0.019716 0.000000 -0.009658 0.000000
# 4 0.000000 0.000000 0.000000 0.041184 0.000000 -0.002110
# 5 -0.002485 0.000056 -0.009658 0.000000 0.032539 0.000000
# 6 0.000000 0.000000 0.000000 -0.002110 0.000000 0.031872
#
#
# Mechanical properties :
#
#
# Convention : Reuss Voigt Hill
#
# Bulk Modulus (GPa) = 40.94967 53.00892 46.97929
# Shear Modulus (GPa) = 26.24928 29.14571 27.69750
#
# Velocity S-wave (km/s) = 3.53617 3.72617 3.63241
# Velocity P-wave (km/s) = 6.01499 6.61548 6.32237
#
# Compressibility (1/GPa) = 0.02442022
#
# Stress axis : x y z
#
# Youngs Moduli (GPa) = 70.48023 59.95636 50.72110
#
# Poissons Ratio (x) = 0.41246 0.14003
# Poissons Ratio (y) = 0.48486 0.17454
# Poissons Ratio (z) = 0.19458 0.20632
#
# Static dielectric constant tensor:
#      x y z
#    x 1.786100 0.000000 0.023190 
#    y 0.000000 1.789980 0.000000 
#    z 0.023190 0.000000 1.788680 
# 
# From -- ./inp_files/79353.got.cif
#   From: 2010.05.17/outbox.cif.g08.bks.cpg/sg15_40_cif.got.tgz:79353.got - 2010.06.03 18:47:42.
