data_PCOD9268554
_publ_section_title
;
Structure prediction by ZEFSAII (Michael W. Deem and Ramdas Pophale) SiO2 
 PCOD9268554
Probable space group: C 2/C
;
_chemical_formula_sum "Si O2"
_cell_formula_units_Z 56
_cell_length_a 26.219515
_cell_length_b 6.287709
_cell_length_c 23.951302
_cell_angle_alpha 90.000000
_cell_angle_beta 51.941092
_cell_angle_gamma 90.000000
_cell_volume 3109.060215
_symmetry_space_group_name_H-M "C 2/C"
_symmetry_group_IT_number 15
_symmetry_cell_setting 'monoclinic'
loop_
_space_group_symop_operation_xyz
x,y,z
-x,y,1/2-z
-x,-y,-z
x,-y,1/2+z
1/2+x,1/2+y,z
1/2-x,1/2+y,1/2-z
1/2-x,1/2-y,-z
1/2+x,1/2-y,1/2+z
loop_
_atom_site_type_symbol
_atom_site_label
_atom_site_fract_x
_atom_site_fract_y
_atom_site_fract_z
Si Si1 0.967088 0.810033 0.987363
Si Si2 0.915111 0.531877 0.612683
Si Si3 0.331340 0.242467 0.248109
Si Si4 0.832326 0.886277 0.055732
Si Si5 0.214511 0.441494 0.993631
Si Si6 0.187226 0.901365 0.817205
Si Si7 0.209695 0.330567 0.600771
O O1 0.935248 0.631002 0.049753
O O2 0.908396 0.919573 0.993243
O O3 0.022693 0.681065 0.917520
O O4 0.000000 0.000000 0.000000
O O5 0.888666 0.388957 0.680908
O O6 0.857374 0.698988 0.637957
O O7 0.262222 0.162358 0.269721
O O8 0.332988 0.488666 0.227318
O O9 0.327828 0.196313 0.316210
O O10 0.819755 0.656653 0.037075
O O11 0.823727 0.920693 0.127637
O O12 0.777710 0.045244 0.068212
O O13 0.267887 0.603487 0.935941
O O14 0.250000 0.250000 0.000000
O O15 0.176476 0.554592 0.070189
#
# Coordination Sequence:
#
# PCOD9268554 Si02
#       7
#     8   8   8   8   8   8   8
#     4  11  22  36  53  78 118 155 195 232 271 345
#     4  11  22  35  51  79 120 154 186 226 277 348
#     4  11  21  32  53  81 118 150 180 230 286 352
#     4  10  20  32  55  79 111 149 188 230 280 339
#     4   9  19  37  54  83 108 142 193 238 289 330
#     4  11  21  31  50  84 114 153 184 222 290 347
#     4   9  21  34  56  80 114 146 186 244 289 334
#
# _framework density 18.011873000000001
#
# number of rings (size 3 to 8) (size 9 to 14) (size 15 to 20)
#    0.000    1.714    4.286    0.000    6.000    1.143 
#    0.000    0.000    0.000    0.857    0.000    0.000 
#    0.000    0.000    0.000    0.000    0.000    0.000 
#
# Total GULP energy -155871.724724 kJ/mol
# GULP energy per Si atom -5566.847312 kJ/mol
# Density = 1.797088 g / cm^3
# Si number density = 18.011873 Si / 1000 Ang^3
#
#
#
# Elastic Constant Matrix: (Units=GPa)
#
#
# Indices 1 2 3 4 5 6 
#
# 1 15.2781 12.6863 14.0268 -0.0105 -2.6247 0.0191
# 2 12.6863 78.1014 35.4350 -0.0166 5.9571 0.0582
# 3 14.0268 35.4350 105.7648 -0.0221 4.3821 0.0204
# 4 -0.0105 -0.0166 -0.0221 33.8455 0.0033 -2.0772
# 5 -2.6247 5.9571 4.3821 0.0033 31.6671 -0.0093
# 6 0.0191 0.0582 0.0204 -2.0772 -0.0093 30.1173
#
#
#
# Elastic Compliance Matrix: (Units=1/GPa)
#
#
# Indices 1 2 3 4 5 6 
#
# 1 0.083303 -0.010724 -0.007870 0.000013 0.010011 -0.000023
# 2 -0.010724 0.016627 -0.004005 0.000001 -0.003462 -0.000024
# 3 -0.007870 -0.004005 0.011904 0.000004 -0.001546 0.000004
# 4 0.000013 0.000001 0.000004 0.029672 -0.000002 0.002046
# 5 0.010011 -0.003462 -0.001546 -0.000002 0.033274 0.000012
# 6 -0.000023 -0.000024 0.000004 0.002046 0.000012 0.033345
#
#
# Mechanical properties :
#
#
# Convention : Reuss Voigt Hill
#
# Bulk Modulus (GPa) = 15.00671 35.93784 25.47228
# Shear Modulus (GPa) = 18.14657 28.25907 23.20282
#
# Velocity S-wave (km/s) = 3.17752 3.96525 3.59304
# Velocity P-wave (km/s) = 4.67032 6.39999 5.60231
#
# Compressibility (1/GPa) = 0.06663684
#
# Stress axis : x y z
#
# Youngs Moduli (GPa) = 12.00437 60.14309 84.00200
#
# Poissons Ratio (x) = 0.64499 0.66106
# Poissons Ratio (y) = 0.12874 0.33642
# Poissons Ratio (z) = 0.09447 0.24087
#
# Static dielectric constant tensor:
#      x y z
#    x 1.659420 -0.000040 0.013480 
#    y -0.000040 1.676360 0.000000 
#    z 0.013480 0.000000 1.639350 
# 
# From -- ./inp_files/282975.got.cif
#   From: 2010.05.17/outbox.cif.g08.bks.cpg/sg15_142_cif.got.tgz:282975.got - 2010.06.03 18:47:42.
