data_PCOD9268977
_publ_section_title
;
Structure prediction by ZEFSAII (Michael W. Deem and Ramdas Pophale) SiO2 
 PCOD9268977
Probable space group: C 2/C
;
_chemical_formula_sum "Si O2"
_cell_formula_units_Z 64
_cell_length_a 14.692024
_cell_length_b 17.184621
_cell_length_c 14.508774
_cell_angle_alpha 90.000000
_cell_angle_beta 119.056356
_cell_angle_gamma 90.000000
_cell_volume 3202.097139
_symmetry_space_group_name_H-M "C 2/C"
_symmetry_group_IT_number 15
_symmetry_cell_setting 'monoclinic'
loop_
_space_group_symop_operation_xyz
x,y,z
-x,y,1/2-z
-x,-y,-z
x,-y,1/2+z
1/2+x,1/2+y,z
1/2-x,1/2+y,1/2-z
1/2-x,1/2-y,-z
1/2+x,1/2-y,1/2+z
loop_
_atom_site_type_symbol
_atom_site_label
_atom_site_fract_x
_atom_site_fract_y
_atom_site_fract_z
Si Si1 0.706064 0.664474 0.501227
Si Si2 0.730669 0.563519 0.789579
Si Si3 0.384776 0.580135 0.217146
Si Si4 0.618941 0.278783 0.653972
Si Si5 0.452409 0.580444 0.942726
Si Si6 0.114357 0.625181 0.773473
Si Si7 0.964684 0.774265 0.081737
Si Si8 0.665749 0.266143 0.308679
O O1 0.750000 0.750000 0.500000
O O2 0.658217 0.636775 0.382164
O O3 0.609353 0.641656 0.521363
O O4 0.803997 0.624530 0.601598
O O5 0.705721 0.484913 0.829799
O O6 0.638527 0.557029 0.670289
O O7 0.836977 0.573492 0.785098
O O8 0.706820 0.644571 0.829085
O O9 0.500000 0.547420 0.250000
O O10 0.403195 0.635872 0.315178
O O11 0.610600 0.212758 0.728506
O O12 0.555788 0.248095 0.532983
O O13 0.737106 0.283427 0.676219
O O14 0.537450 0.631956 0.931135
O O15 0.500000 0.500000 0.000000
O O16 0.000000 0.602898 0.750000
O O17 0.879648 0.746785 0.113622
O O18 0.074692 0.758840 0.186858
#
# Coordination Sequence:
#
# PCOD9268977 Si02
#       8
#     8   8   8   8   8   8   8   8
#     4  11  23  37  59  92 128 161 200 256 318 368
#     4   9  21  38  56  86 119 158 196 251 299 369
#     4  12  24  36  63  96 124 147 200 258 313 368
#     4  11  21  35  57  90 117 150 202 248 294 367
#     4  10  20  35  57  89 125 155 195 252 318 369
#     4  10  22  41  63  81 121 168 206 245 304 364
#     4  10  20  33  58  82 114 160 195 241 303 353
#     4   9  21  37  55  81 123 158 195 241 302 362
#
# _framework density 19.986902000000001
#
# number of rings (size 3 to 8) (size 9 to 14) (size 15 to 20)
#    0.000    1.750    1.250    3.750    7.000    0.000 
#    0.000    0.625    2.750    0.000    0.000    0.000 
#    0.000    0.000    0.000    0.000    0.000    0.000 
#
# Total GULP energy -178168.505411 kJ/mol
# GULP energy per Si atom -5567.765794 kJ/mol
# Density = 1.994141 g / cm^3
# Si number density = 19.986902 Si / 1000 Ang^3
#
#
#
# Elastic Constant Matrix: (Units=GPa)
#
#
# Indices 1 2 3 4 5 6 
#
# 1 106.0323 20.6730 5.0110 0.0000 7.8559 0.0000
# 2 20.6730 27.0230 -16.3761 0.0000 3.8783 0.0000
# 3 5.0110 -16.3761 77.6677 0.0000 0.3548 0.0000
# 4 0.0000 0.0000 0.0000 13.3756 0.0000 3.9048
# 5 7.8559 3.8783 0.3548 0.0000 19.0052 0.0000
# 6 0.0000 0.0000 0.0000 3.9048 0.0000 20.1566
#
#
#
# Elastic Compliance Matrix: (Units=1/GPa)
#
#
# Indices 1 2 3 4 5 6 
#
# 1 0.011804 -0.010430 -0.002948 0.000000 -0.002696 0.000000
# 2 -0.010430 0.053176 0.011916 0.000000 -0.006763 0.000000
# 3 -0.002948 0.011916 0.015585 0.000000 -0.001504 0.000000
# 4 0.000000 0.000000 0.000000 0.079244 0.000000 -0.015352
# 5 -0.002696 -0.006763 -0.001504 0.000000 0.055139 0.000000
# 6 0.000000 0.000000 0.000000 -0.015352 0.000000 0.052585
#
#
# Mechanical properties :
#
#
# Convention : Reuss Voigt Hill
#
# Bulk Modulus (GPa) = 12.87994 25.48208 19.18101
# Shear Modulus (GPa) = 16.87260 23.93518 20.40389
#
# Velocity S-wave (km/s) = 2.90863 3.46431 3.19856
# Velocity P-wave (km/s) = 4.21170 5.36460 4.82273
#
# Compressibility (1/GPa) = 0.07764014
#
# Stress axis : x y z
#
# Youngs Moduli (GPa) = 84.71973 18.80547 64.16467
#
# Poissons Ratio (x) = 0.19614 0.18918
# Poissons Ratio (y) = 0.88361 -0.76458
# Poissons Ratio (z) = 0.24978 -0.22408
#
# Static dielectric constant tensor:
#      x y z
#    x 1.772920 0.000000 -0.056220 
#    y 0.000000 1.826430 0.000000 
#    z -0.056220 0.000000 1.795660 
# 
# From -- ./inp_files/155207.got.cif
#   From: 2010.05.17/outbox.cif.g08.bks.cpg/sg15_78_cif.got.tgz:155207.got - 2010.06.03 18:47:42.
