data_PCOD9268637
_publ_section_title
;
Structure prediction by ZEFSAII (Michael W. Deem and Ramdas Pophale) SiO2 
 PCOD9268637
Probable space group: C 2/C
;
_chemical_formula_sum "Si O2"
_cell_formula_units_Z 64
_cell_length_a 17.578080
_cell_length_b 22.403759
_cell_length_c 8.234394
_cell_angle_alpha 90.000000
_cell_angle_beta 110.998292
_cell_angle_gamma 90.000000
_cell_volume 3027.475793
_symmetry_space_group_name_H-M "C 2/C"
_symmetry_group_IT_number 15
_symmetry_cell_setting 'monoclinic'
loop_
_space_group_symop_operation_xyz
x,y,z
-x,y,1/2-z
-x,-y,-z
x,-y,1/2+z
1/2+x,1/2+y,z
1/2-x,1/2+y,1/2-z
1/2-x,1/2-y,-z
1/2+x,1/2-y,1/2+z
loop_
_atom_site_type_symbol
_atom_site_label
_atom_site_fract_x
_atom_site_fract_y
_atom_site_fract_z
Si Si1 0.572858 0.409078 0.708049
Si Si2 0.280116 0.668548 0.317779
Si Si3 0.712213 0.611660 0.825684
Si Si4 0.383249 0.527055 0.565311
Si Si5 0.707845 0.983453 0.317946
Si Si6 0.718948 0.788893 0.324373
Si Si7 0.641269 0.875969 0.475416
Si Si8 0.045688 0.445609 0.621672
O O1 0.500000 0.377635 0.750000
O O2 0.646701 0.365127 0.720728
O O3 0.559457 0.442831 0.525151
O O4 0.594217 0.463391 0.845876
O O5 0.271850 0.644806 0.493379
O O6 0.296687 0.739205 0.322761
O O7 0.199016 0.651793 0.157601
O O8 0.776927 0.560629 0.823554
O O9 0.716538 0.661727 0.689732
O O10 0.630777 0.573882 0.798699
O O11 0.293598 0.516237 0.416034
O O12 0.682697 0.936868 0.439539
O O13 0.634638 0.028984 0.237416
O O14 0.750000 0.750000 0.500000
O O15 0.643762 0.828542 0.331265
O O16 0.558183 0.894505 0.497579
O O17 0.000000 0.427351 0.750000
O O18 0.000000 0.500000 0.500000
#
# Coordination Sequence:
#
# PCOD9268637 Si02
#       8
#     8   8   8   8   8   8   8   8
#     4  11  22  34  55  85 120 152 185 230 294 349
#     4  10  20  37  62  81 111 152 197 252 281 337
#     4  10  20  32  60  88 112 142 198 241 289 341
#     4  11  20  36  56  85 121 153 186 235 286 358
#     4  11  20  36  55  83 120 156 190 225 293 359
#     4   9  20  37  60  84 108 145 203 255 287 329
#     4  10  20  37  56  83 108 157 196 235 292 345
#     4  12  24  35  54  83 128 159 190 235 294 359
#
# _framework density 21.139723
#
# number of rings (size 3 to 8) (size 9 to 14) (size 15 to 20)
#    0.000    1.500    3.750    3.000    1.750    0.000 
#    0.000    0.000    5.500    3.000    0.000    0.000 
#    0.000    0.000    0.000    0.000    0.000    0.000 
#
# Total GULP energy -178611.184300 kJ/mol
# GULP energy per Si atom -5581.599509 kJ/mol
# Density = 2.109161 g / cm^3
# Si number density = 21.139723 Si / 1000 Ang^3
#
#
#
# Elastic Constant Matrix: (Units=GPa)
#
#
# Indices 1 2 3 4 5 6 
#
# 1 86.2182 28.4531 33.7781 0.0000 -36.0048 0.0000
# 2 28.4531 104.7772 16.0551 0.0000 -16.8723 0.0000
# 3 33.7781 16.0551 57.6835 0.0000 -26.3516 0.0000
# 4 0.0000 0.0000 0.0000 40.0837 0.0000 -19.3075
# 5 -36.0048 -16.8723 -26.3516 0.0000 41.0479 0.0000
# 6 0.0000 0.0000 0.0000 -19.3075 0.0000 24.9466
#
#
#
# Elastic Compliance Matrix: (Units=1/GPa)
#
#
# Indices 1 2 3 4 5 6 
#
# 1 0.019883 -0.002514 -0.004879 0.000000 0.013275 0.000000
# 2 -0.002514 0.010609 -0.000702 0.000000 0.001705 0.000000
# 3 -0.004879 -0.000702 0.025896 0.000000 0.012057 0.000000
# 4 0.000000 0.000000 0.000000 0.039776 0.000000 0.030785
# 5 0.013275 0.001705 0.012057 0.000000 0.044446 0.000000
# 6 0.000000 0.000000 0.000000 0.030785 0.000000 0.063912
#
#
# Mechanical properties :
#
#
# Convention : Reuss Voigt Hill
#
# Bulk Modulus (GPa) = 24.87661 45.02796 34.95228
# Shear Modulus (GPa) = 21.35728 32.57515 26.96622
#
# Velocity S-wave (km/s) = 3.18196 3.92975 3.57545
# Velocity P-wave (km/s) = 5.02922 6.47587 5.79784
#
# Compressibility (1/GPa) = 0.04019841
#
# Stress axis : x y z
#
# Youngs Moduli (GPa) = 50.29363 94.26080 38.61572
#
# Poissons Ratio (x) = 0.23699 0.18841
# Poissons Ratio (y) = 0.12645 0.02710
# Poissons Ratio (z) = 0.24539 0.06614
#
# Static dielectric constant tensor:
#      x y z
#    x 1.820010 0.000000 -0.025980 
#    y 0.000000 1.793090 0.000000 
#    z -0.025980 0.000000 1.846000 
# 
# From -- ./inp_files/51279.got.cif
#   From: 2010.05.17/outbox.cif.g08.bks.cpg/sg15_26_cif.got.tgz:51279.got - 2010.06.03 18:47:42.
