data_PCOD9268544
_publ_section_title
;
Structure prediction by ZEFSAII (Michael W. Deem and Ramdas Pophale) SiO2 
 PCOD9268544
Probable space group: C 2/C
;
_chemical_formula_sum "Si O2"
_cell_formula_units_Z 60
_cell_length_a 18.100606
_cell_length_b 24.419266
_cell_length_c 8.790192
_cell_angle_alpha 90.000000
_cell_angle_beta 41.589214
_cell_angle_gamma 90.000000
_cell_volume 2579.002692
_symmetry_space_group_name_H-M "C 2/C"
_symmetry_group_IT_number 15
_symmetry_cell_setting 'monoclinic'
loop_
_space_group_symop_operation_xyz
x,y,z
-x,y,1/2-z
-x,-y,-z
x,-y,1/2+z
1/2+x,1/2+y,z
1/2-x,1/2+y,1/2-z
1/2-x,1/2-y,-z
1/2+x,1/2-y,1/2+z
loop_
_atom_site_type_symbol
_atom_site_label
_atom_site_fract_x
_atom_site_fract_y
_atom_site_fract_z
Si Si1 0.661630 0.688357 0.918630
Si Si2 0.434874 0.338684 0.607393
Si Si3 0.364167 0.077165 0.953239
Si Si4 0.278391 0.188101 0.203181
Si Si5 0.622292 0.979715 0.764167
Si Si6 0.797201 0.626796 0.478398
Si Si7 0.000000 0.972129 0.750000
Si Si8 0.073574 0.066785 0.841257
O O1 0.678671 0.753013 0.911589
O O2 0.769197 0.659350 0.676400
O O3 0.625973 0.663478 0.135269
O O4 0.557555 0.683184 0.961201
O O5 0.355225 0.309389 0.610266
O O6 0.460238 0.398718 0.500967
O O7 0.500000 0.080210 0.750000
O O8 0.326620 0.035301 0.880802
O O9 0.318891 0.138368 0.032671
O O10 0.326260 0.045641 0.163840
O O11 0.319234 0.169632 0.308078
O O12 0.623351 0.926958 0.648246
O O13 0.500000 0.000000 0.000000
O O14 0.679159 0.598911 0.621529
O O15 0.080480 0.939670 0.513423
O O16 0.065784 0.010650 0.764429
#
# Coordination Sequence:
#
# PCOD9268544 Si02
#       8
#     8   8   8   8   8   8   4   8
#     4  10  22  40  61  87 123 159 206 264 311 374
#     4  10  22  40  60  85 122 158 195 262 313 365
#     4   9  20  36  59  86 119 160 203 257 305 369
#     4  11  22  38  63  90 117 159 211 252 319 373
#     4   9  19  37  56  82 120 158 203 250 302 358
#     4  10  21  37  60  85 120 163 199 252 308 364
#     4  10  20  32  54  84 120 152 192 230 282 372
#     4  10  20  35  53  85 119 154 193 240 300 359
#
# _framework density 23.264807999999999
#
# number of rings (size 3 to 8) (size 9 to 14) (size 15 to 20)
#    0.000    2.133    0.000    3.200    1.867    6.933 
#    0.000    0.000    5.867    0.000    0.000    0.000 
#    0.000    0.000    0.000    0.000    0.000    0.000 
#
# Total GULP energy -167374.426012 kJ/mol
# GULP energy per Si atom -5579.147534 kJ/mol
# Density = 2.321186 g / cm^3
# Si number density = 23.264808 Si / 1000 Ang^3
#
#
#
# Elastic Constant Matrix: (Units=GPa)
#
#
# Indices 1 2 3 4 5 6 
#
# 1 44.7610 15.8692 8.2614 0.0000 -9.8337 0.0000
# 2 15.8692 115.4347 43.6725 0.0000 -8.6383 0.0000
# 3 8.2614 43.6725 98.6892 0.0000 4.5844 0.0000
# 4 0.0000 0.0000 0.0000 21.0909 0.0000 -12.9586
# 5 -9.8337 -8.6383 4.5844 0.0000 15.4676 0.0000
# 6 0.0000 0.0000 0.0000 -12.9586 0.0000 18.2143
#
#
#
# Elastic Compliance Matrix: (Units=1/GPa)
#
#
# Indices 1 2 3 4 5 6 
#
# 1 0.027074 -0.001548 -0.002373 0.000000 0.017052 0.000000
# 2 -0.001548 0.011369 -0.005223 0.000000 0.006913 0.000000
# 3 -0.002373 -0.005223 0.013028 0.000000 -0.008287 0.000000
# 4 0.000000 0.000000 0.000000 0.084236 0.000000 0.059930
# 5 0.017052 0.006913 -0.008287 0.000000 0.081809 0.000000
# 6 0.000000 0.000000 0.000000 0.059930 0.000000 0.097539
#
#
# Mechanical properties :
#
#
# Convention : Reuss Voigt Hill
#
# Bulk Modulus (GPa) = 30.13655 43.83235 36.98445
# Shear Modulus (GPa) = 14.51783 23.69334 19.10558
#
# Velocity S-wave (km/s) = 2.50076 3.19473 2.86881
# Velocity P-wave (km/s) = 4.61738 5.69999 5.18701
#
# Compressibility (1/GPa) = 0.03318230
#
# Stress axis : x y z
#
# Youngs Moduli (GPa) = 36.93601 87.95930 76.76021
#
# Poissons Ratio (x) = 0.13616 0.18219
# Poissons Ratio (y) = 0.05717 0.40089
# Poissons Ratio (z) = 0.08767 0.45937
#
# Static dielectric constant tensor:
#      x y z
#    x 1.914190 0.000000 0.010530 
#    y 0.000000 1.903070 0.000000 
#    z 0.010530 0.000000 1.944910 
# 
# From -- ./inp_files/58740.got.cif
#   From: 2010.05.17/outbox.cif.g08.bks.cpg/sg15_30_cif.got.tgz:58740.got - 2010.06.03 18:47:42.
