data_PCOD9268306
_publ_section_title
;
Structure prediction by ZEFSAII (Michael W. Deem and Ramdas Pophale) SiO2 
 PCOD9268306
Probable space group: C 2/C
;
_chemical_formula_sum "Si O2"
_cell_formula_units_Z 36
_cell_length_a 7.621663
_cell_length_b 22.524228
_cell_length_c 9.788444
_cell_angle_alpha 90.000000
_cell_angle_beta 52.186094
_cell_angle_gamma 90.000000
_cell_volume 1327.528445
_symmetry_space_group_name_H-M "C 2/C"
_symmetry_group_IT_number 15
_symmetry_cell_setting 'monoclinic'
loop_
_space_group_symop_operation_xyz
x,y,z
-x,y,1/2-z
-x,-y,-z
x,-y,1/2+z
1/2+x,1/2+y,z
1/2-x,1/2+y,1/2-z
1/2-x,1/2-y,-z
1/2+x,1/2-y,1/2+z
loop_
_atom_site_type_symbol
_atom_site_label
_atom_site_fract_x
_atom_site_fract_y
_atom_site_fract_z
Si Si1 0.572180 0.597798 0.512178
Si Si2 0.674539 0.175095 0.783652
Si Si3 0.000000 0.790263 0.750000
Si Si4 0.198984 0.484001 0.045035
Si Si5 0.141705 0.377589 0.883868
O O1 0.419021 0.650345 0.642723
O O2 0.698200 0.547854 0.540950
O O3 0.392409 0.555685 0.521011
O O4 0.750644 0.620500 0.315844
O O5 0.500000 0.149693 0.750000
O O6 0.628007 0.245042 0.788956
O O7 0.589379 0.153233 0.970906
O O8 0.189560 0.834656 0.610409
O O9 0.000000 0.489901 0.250000
O O10 0.139138 0.443980 0.943443
#
# Coordination Sequence:
#
# PCOD9268306 Si02
#       5
#     8   8   4   8   8
#     4  11  22  35  56  78 116 159 187 223 287 339
#     4  10  20  35  50  85 118 140 187 228 274 356
#     4  10  20  30  60  84 122 146 174 236 302 342
#     4  11  21  38  52  80 120 150 192 235 262 350
#     4  12  19  36  54  86 119 153 176 231 299 330
#
# _framework density 27.118064
#
# number of rings (size 3 to 8) (size 9 to 14) (size 15 to 20)
#    0.667    0.444    6.667    0.667    3.111    0.889 
#    4.000    0.000    0.000    0.000    0.000    1.556 
#    0.000    1.778    0.000    0.000    0.000    0.000 
#
# Total GULP energy -100766.625959 kJ/mol
# GULP energy per Si atom -5598.145887 kJ/mol
# Density = 2.705634 g / cm^3
# Si number density = 27.118064 Si / 1000 Ang^3
#
#
#
# Elastic Constant Matrix: (Units=GPa)
#
#
# Indices 1 2 3 4 5 6 
#
# 1 98.3449 40.5351 41.3839 0.0000 -9.8336 0.0000
# 2 40.5351 212.7435 86.5917 0.0000 -8.1182 0.0000
# 3 41.3839 86.5917 260.2168 0.0000 -12.0942 0.0000
# 4 0.0000 0.0000 0.0000 27.5576 0.0000 -9.7807
# 5 -9.8336 -8.1182 -12.0942 0.0000 32.6731 0.0000
# 6 0.0000 0.0000 0.0000 -9.7807 0.0000 44.3256
#
#
#
# Elastic Compliance Matrix: (Units=1/GPa)
#
#
# Indices 1 2 3 4 5 6 
#
# 1 0.011601 -0.001629 -0.001180 0.000000 0.002650 0.000000
# 2 -0.001629 0.005681 -0.001616 0.000000 0.000323 0.000000
# 3 -0.001180 -0.001616 0.004613 0.000000 0.000951 0.000000
# 4 0.000000 0.000000 0.000000 0.039371 0.000000 0.008687
# 5 0.002650 0.000323 0.000951 0.000000 0.031836 0.000000
# 6 0.000000 0.000000 0.000000 0.008687 0.000000 0.024477
#
#
# Mechanical properties :
#
#
# Convention : Reuss Voigt Hill
#
# Bulk Modulus (GPa) = 76.66078 100.92517 88.79297
# Shear Modulus (GPa) = 38.23280 47.76424 42.99852
#
# Velocity S-wave (km/s) = 3.75889 4.20139 3.98628
# Velocity P-wave (km/s) = 6.86802 7.79957 7.34857
#
# Compressibility (1/GPa) = 0.01304448
#
# Stress axis : x y z
#
# Youngs Moduli (GPa) = 86.19803 176.02106 216.79557
#
# Poissons Ratio (x) = 0.28676 0.25576
# Poissons Ratio (y) = 0.14043 0.35043
# Poissons Ratio (z) = 0.10169 0.28452
#
# Static dielectric constant tensor:
#      x y z
#    x 2.282520 0.000000 -0.009780 
#    y 0.000000 2.047910 0.000000 
#    z -0.009780 0.000000 2.117020 
# 
# From -- ./inp_files/147779.got.cif
#   From: 2010.05.17/outbox.cif.g08.bks.cpg/sg15_74_cif.got.tgz:147779.got - 2010.06.03 18:47:42.
