data_PCOD9268212
_publ_section_title
;
Structure prediction by ZEFSAII (Michael W. Deem and Ramdas Pophale) SiO2 
 PCOD9268212
Probable space group: C 2/C
;
_chemical_formula_sum "Si O2"
_cell_formula_units_Z 60
_cell_length_a 13.580583
_cell_length_b 18.472957
_cell_length_c 11.275480
_cell_angle_alpha 90.000000
_cell_angle_beta 69.947847
_cell_angle_gamma 90.000000
_cell_volume 2657.245027
_symmetry_space_group_name_H-M "C 2/C"
_symmetry_group_IT_number 15
_symmetry_cell_setting 'monoclinic'
loop_
_space_group_symop_operation_xyz
x,y,z
-x,y,1/2-z
-x,-y,-z
x,-y,1/2+z
1/2+x,1/2+y,z
1/2-x,1/2+y,1/2-z
1/2-x,1/2-y,-z
1/2+x,1/2-y,1/2+z
loop_
_atom_site_type_symbol
_atom_site_label
_atom_site_fract_x
_atom_site_fract_y
_atom_site_fract_z
Si Si1 0.691856 0.707413 0.316871
Si Si2 0.736699 0.575554 0.941153
Si Si3 0.077672 0.716148 0.385966
Si Si4 0.178527 0.083974 0.519398
Si Si5 0.360871 0.711201 0.417347
Si Si6 0.035992 0.420667 0.022503
Si Si7 0.000000 0.844698 0.250000
Si Si8 0.675965 0.129000 0.840871
O O1 0.806812 0.699912 0.211463
O O2 0.675404 0.644315 0.417551
O O3 0.619961 0.711561 0.229578
O O4 0.686661 0.787312 0.372607
O O5 0.848107 0.579433 0.966980
O O6 0.756668 0.608345 0.802416
O O7 0.687539 0.495711 0.960185
O O8 0.654949 0.628876 0.037798
O O9 0.065733 0.744531 0.525673
O O10 0.029151 0.636057 0.414578
O O11 0.042571 0.785865 0.326777
O O12 0.083805 0.105162 0.647503
O O13 0.280312 0.088331 0.562305
O O14 0.250000 0.750000 0.500000
O O15 0.941578 0.392805 0.143407
O O16 0.000000 0.500000 0.000000
#
# Coordination Sequence:
#
# PCOD9268212 Si02
#       8
#     8   8   8   8   8   8   4   8
#     4  11  22  44  76  99 135 193 240 284 363 430
#     4  12  24  44  71 102 144 189 230 295 358 424
#     4  11  23  43  76 100 147 189 239 290 349 425
#     4  12  28  43  72 103 142 185 238 300 370 418
#     4  10  19  44  72  98 133 190 236 280 343 420
#     4  12  25  41  66 112 147 181 230 292 364 424
#     4  12  26  50  70 106 142 188 250 304 348 430
#     4  12  24  45  67 100 144 184 238 291 352 435
#
# _framework density 22.579777
#
# number of rings (size 3 to 8) (size 9 to 14) (size 15 to 20)
#    0.000    0.533    8.000    1.600    5.600    0.000 
#    0.000    4.667    2.933    0.000    0.000    0.000 
#    0.000    0.000    0.000    0.000    0.000    0.000 
#
# Total GULP energy -167515.995688 kJ/mol
# GULP energy per Si atom -5583.866523 kJ/mol
# Density = 2.252838 g / cm^3
# Si number density = 22.579777 Si / 1000 Ang^3
#
#
#
# Elastic Constant Matrix: (Units=GPa)
#
#
# Indices 1 2 3 4 5 6 
#
# 1 51.9936 20.5907 28.6303 0.0000 -8.3922 0.0000
# 2 20.5907 163.5618 23.3490 0.0000 -11.8802 0.0000
# 3 28.6303 23.3490 69.5000 0.0000 -1.7557 0.0000
# 4 0.0000 0.0000 0.0000 22.2670 0.0000 -5.0101
# 5 -8.3922 -11.8802 -1.7557 0.0000 31.5066 0.0000
# 6 0.0000 0.0000 0.0000 -5.0101 0.0000 26.6317
#
#
#
# Elastic Compliance Matrix: (Units=1/GPa)
#
#
# Indices 1 2 3 4 5 6 
#
# 1 0.026396 -0.001431 -0.010244 0.000000 0.005921 0.000000
# 2 -0.001431 0.006671 -0.001600 0.000000 0.002045 0.000000
# 3 -0.010244 -0.001600 0.019089 0.000000 -0.002268 0.000000
# 4 0.000000 0.000000 0.000000 0.046895 0.000000 0.008822
# 5 0.005921 0.002045 -0.002268 0.000000 0.033961 0.000000
# 6 0.000000 0.000000 0.000000 0.008822 0.000000 0.039209
#
#
# Mechanical properties :
#
#
# Convention : Reuss Voigt Hill
#
# Bulk Modulus (GPa) = 39.05200 47.79947 43.42574
# Shear Modulus (GPa) = 24.11912 30.24675 27.18293
#
# Velocity S-wave (km/s) = 3.27184 3.66396 3.47344
# Velocity P-wave (km/s) = 5.62191 6.25416 5.94645
#
# Compressibility (1/GPa) = 0.02560688
#
# Stress axis : x y z
#
# Youngs Moduli (GPa) = 37.88464 149.90310 52.38740
#
# Poissons Ratio (x) = 0.21445 0.53663
# Poissons Ratio (y) = 0.05420 0.08383
# Poissons Ratio (z) = 0.38807 0.23987
#
# Static dielectric constant tensor:
#      x y z
#    x 1.977490 0.000000 -0.000350 
#    y 0.000000 1.842530 0.000000 
#    z -0.000350 0.000000 1.830350 
# 
# From -- ./inp_files/98728.got.cif
#   From: 2010.05.17/outbox.cif.g08.bks.cpg/sg15_50_cif.got.tgz:98728.got - 2010.06.03 18:47:42.
