data_PCOD9268795
_publ_section_title
;
Structure prediction by ZEFSAII (Michael W. Deem and Ramdas Pophale) SiO2 
 PCOD9268795
Probable space group: C 2/C
;
_chemical_formula_sum "Si O2"
_cell_formula_units_Z 40
_cell_length_a 17.834617
_cell_length_b 5.334543
_cell_length_c 26.787782
_cell_angle_alpha 90.000000
_cell_angle_beta 141.493713
_cell_angle_gamma 90.000000
_cell_volume 1586.745348
_symmetry_space_group_name_H-M "C 2/C"
_symmetry_group_IT_number 15
_symmetry_cell_setting 'monoclinic'
loop_
_space_group_symop_operation_xyz
x,y,z
-x,y,1/2-z
-x,-y,-z
x,-y,1/2+z
1/2+x,1/2+y,z
1/2-x,1/2+y,1/2-z
1/2-x,1/2-y,-z
1/2+x,1/2-y,1/2+z
loop_
_atom_site_type_symbol
_atom_site_label
_atom_site_fract_x
_atom_site_fract_y
_atom_site_fract_z
Si Si1 0.092511 0.818504 0.665823
Si Si2 0.647847 0.820369 0.747392
Si Si3 0.192646 0.681036 0.917013
Si Si4 0.594974 0.094158 0.008393
Si Si5 0.663831 0.324409 0.368823
O O1 0.210916 0.799322 0.692746
O O2 0.114403 0.608303 0.719562
O O3 0.983173 0.711490 0.576494
O O4 0.087103 0.106901 0.680655
O O5 0.632558 0.739192 0.796276
O O6 0.299412 0.693529 0.929993
O O7 0.250000 0.750000 0.000000
O O8 0.133263 0.413281 0.885978
O O9 0.110048 0.912897 0.858549
O O10 0.500000 0.000000 0.000000
O O11 0.691202 0.871749 0.048328
#
# Coordination Sequence:
#
# PCOD9268795 Si02
#       5
#     8   8   8   8   8
#     4  10  20  33  52  81 123 151 185 233 293 347
#     4  10  20  34  52  81 119 157 182 230 296 348
#     4  10  22  38  61  84 114 151 198 243 292 343
#     4  10  22  36  60  92 117 147 196 246 290 344
#     4  10  21  37  61  83 114 154 195 239 286 350
#
# _framework density 25.208834
#
# number of rings (size 3 to 8) (size 9 to 14) (size 15 to 20)
#    1.200    0.800    2.000    1.800    2.800    2.400 
#    0.000    0.000    0.000    7.200    0.000    0.000 
#    0.000    0.000    0.000    0.000    0.000    0.000 
#
# Total GULP energy -111669.566076 kJ/mol
# GULP energy per Si atom -5583.478304 kJ/mol
# Density = 2.515146 g / cm^3
# Si number density = 25.208834 Si / 1000 Ang^3
#
#
#
# Elastic Constant Matrix: (Units=GPa)
#
#
# Indices 1 2 3 4 5 6 
#
# 1 118.2541 5.8927 -2.0998 0.0014 26.4877 -0.0044
# 2 5.8927 173.1968 17.4205 0.0007 -13.3340 -0.0037
# 3 -2.0998 17.4205 61.6524 0.0004 -12.9149 -0.0010
# 4 0.0014 0.0007 0.0004 30.3822 -0.0002 -3.5369
# 5 26.4877 -13.3340 -12.9149 -0.0002 45.2267 0.0005
# 6 -0.0044 -0.0037 -0.0010 -3.5369 0.0005 35.8388
#
#
#
# Elastic Compliance Matrix: (Units=1/GPa)
#
#
# Indices 1 2 3 4 5 6 
#
# 1 0.009872 -0.000738 -0.000757 0.000000 -0.006216 0.000001
# 2 -0.000738 0.006077 -0.001358 0.000000 0.001836 0.000000
# 3 -0.000757 -0.001358 0.017642 0.000000 0.005081 0.000000
# 4 0.000000 0.000000 0.000000 0.033297 0.000000 0.003286
# 5 -0.006216 0.001836 0.005081 0.000000 0.027743 -0.000001
# 6 0.000001 0.000000 0.000000 0.003286 -0.000001 0.028227
#
#
# Mechanical properties :
#
#
# Convention : Reuss Voigt Hill
#
# Bulk Modulus (GPa) = 35.86166 43.94780 39.90473
# Shear Modulus (GPa) = 36.26901 44.41554 40.34227
#
# Velocity S-wave (km/s) = 3.79719 4.20206 4.00474
# Velocity P-wave (km/s) = 5.78633 6.40425 6.10311
#
# Compressibility (1/GPa) = 0.02788494
#
# Stress axis : x y z
#
# Youngs Moduli (GPa) = 101.29743 164.55998 56.68245
#
# Poissons Ratio (x) = 0.12148 0.04292
# Poissons Ratio (y) = 0.07478 0.07695
# Poissons Ratio (z) = 0.07670 0.22340
#
# Static dielectric constant tensor:
#      x y z
#    x 2.078460 0.000000 0.029400 
#    y 0.000000 2.009630 0.000000 
#    z 0.029400 0.000000 1.951040 
# 
# From -- ./inp_files/299843.got.cif
#   From: 2010.05.17/outbox.cif.g08.bks.cpg/sg15_150_cif.got.tgz:299843.got - 2010.06.03 18:47:42.
