data_PCOD9268629
_publ_section_title
;
Structure prediction by ZEFSAII (Michael W. Deem and Ramdas Pophale) SiO2 
 PCOD9268629
Probable space group: C 2/C
;
_chemical_formula_sum "Si O2"
_cell_formula_units_Z 40
_cell_length_a 15.816050
_cell_length_b 12.573101
_cell_length_c 16.966797
_cell_angle_alpha 90.000000
_cell_angle_beta 30.901545
_cell_angle_gamma 90.000000
_cell_volume 1732.747176
_symmetry_space_group_name_H-M "C 2/C"
_symmetry_group_IT_number 15
_symmetry_cell_setting 'monoclinic'
loop_
_space_group_symop_operation_xyz
x,y,z
-x,y,1/2-z
-x,-y,-z
x,-y,1/2+z
1/2+x,1/2+y,z
1/2-x,1/2+y,1/2-z
1/2-x,1/2-y,-z
1/2+x,1/2-y,1/2+z
loop_
_atom_site_type_symbol
_atom_site_label
_atom_site_fract_x
_atom_site_fract_y
_atom_site_fract_z
Si Si1 0.683479 0.132752 0.919028
Si Si2 0.705433 0.321537 0.334733
Si Si3 0.846174 0.946681 0.974477
Si Si4 0.268377 0.400708 0.863372
Si Si5 0.039077 0.832231 0.100608
O O1 0.876884 0.153940 0.782947
O O2 0.670882 0.170228 0.837993
O O3 0.661616 0.006978 0.936480
O O4 0.588814 0.209998 0.053230
O O5 0.736340 0.399482 0.382195
O O6 0.707135 0.203170 0.367937
O O7 0.535211 0.355023 0.428047
O O8 0.779343 0.891497 0.949136
O O9 0.043724 0.923701 0.816120
O O10 0.832915 0.074781 0.983512
#
# Coordination Sequence:
#
# PCOD9268629 Si02
#       5
#     8   8   8   8   8
#     4   9  21  35  59  85 115 149 196 237 286 343
#     4  10  20  32  60  81 114 144 196 236 281 339
#     4  10  20  37  58  80 119 156 191 232 300 348
#     4  10  21  36  56  86 115 153 193 241 288 348
#     4   9  20  36  59  84 114 151 194 238 283 346
#
# _framework density 23.08473
#
# number of rings (size 3 to 8) (size 9 to 14) (size 15 to 20)
#    1.200    1.200    0.000    2.400    2.800    1.600 
#    0.000    2.000    0.000    4.800    0.000    0.000 
#    0.000    0.000    0.000    0.000    0.000    0.000 
#
# Total GULP energy -111559.787088 kJ/mol
# GULP energy per Si atom -5577.989354 kJ/mol
# Density = 2.303219 g / cm^3
# Si number density = 23.084730 Si / 1000 Ang^3
#
#
#
# Elastic Constant Matrix: (Units=GPa)
#
#
# Indices 1 2 3 4 5 6 
#
# 1 82.8637 35.5635 10.1094 0.0000 3.6769 0.0000
# 2 35.5635 134.9421 13.3991 -0.0002 6.2462 0.0001
# 3 10.1094 13.3991 22.4236 -0.0004 4.5441 0.0002
# 4 0.0000 -0.0002 -0.0004 16.4532 0.0001 9.2629
# 5 3.6769 6.2462 4.5441 0.0001 13.7315 0.0000
# 6 0.0000 0.0001 0.0002 9.2629 0.0000 42.6515
#
#
#
# Elastic Compliance Matrix: (Units=1/GPa)
#
#
# Indices 1 2 3 4 5 6 
#
# 1 0.014008 -0.003233 -0.004203 0.000000 -0.000889 0.000000
# 2 -0.003233 0.008685 -0.003330 0.000000 -0.001983 0.000000
# 3 -0.004203 -0.003330 0.051392 0.000001 -0.014367 -0.000001
# 4 0.000000 0.000000 0.000001 0.069245 -0.000001 -0.015038
# 5 -0.000889 -0.001983 -0.014367 -0.000001 0.078720 0.000000
# 6 0.000000 0.000000 -0.000001 -0.015038 0.000000 0.026712
#
#
# Mechanical properties :
#
#
# Convention : Reuss Voigt Hill
#
# Bulk Modulus (GPa) = 19.02877 39.81926 29.42401
# Shear Modulus (GPa) = 17.37245 26.64440 22.00842
#
# Velocity S-wave (km/s) = 2.74624 3.40104 3.09103
# Velocity P-wave (km/s) = 4.27980 5.71921 5.05104
#
# Compressibility (1/GPa) = 0.05255201
#
# Stress axis : x y z
#
# Youngs Moduli (GPa) = 71.38834 115.13912 19.45822
#
# Poissons Ratio (x) = 0.37227 0.08179
# Poissons Ratio (y) = 0.23081 0.06480
# Poissons Ratio (z) = 0.30005 0.38344
#
# Static dielectric constant tensor:
#      x y z
#    x 1.909000 0.000000 -0.051870 
#    y 0.000000 1.849050 0.000000 
#    z -0.051870 0.000000 1.880930 
# 
# From -- ./inp_files/276733.got.cif
#   From: 2010.05.17/outbox.cif.g08.bks.cpg/sg15_139_cif.got.tgz:276733.got - 2010.06.03 18:47:42.
