data_PCOD9268730
_publ_section_title
;
Structure prediction by ZEFSAII (Michael W. Deem and Ramdas Pophale) SiO2 
 PCOD9268730
Probable space group: C 2/C
;
_chemical_formula_sum "Si O2"
_cell_formula_units_Z 48
_cell_length_a 5.067574
_cell_length_b 24.392304
_cell_length_c 25.447668
_cell_angle_alpha 90.000000
_cell_angle_beta 58.551550
_cell_angle_gamma 90.000000
_cell_volume 2683.526606
_symmetry_space_group_name_H-M "C 2/C"
_symmetry_group_IT_number 15
_symmetry_cell_setting 'monoclinic'
loop_
_space_group_symop_operation_xyz
x,y,z
-x,y,1/2-z
-x,-y,-z
x,-y,1/2+z
1/2+x,1/2+y,z
1/2-x,1/2+y,1/2-z
1/2-x,1/2-y,-z
1/2+x,1/2-y,1/2+z
loop_
_atom_site_type_symbol
_atom_site_label
_atom_site_fract_x
_atom_site_fract_y
_atom_site_fract_z
Si Si1 0.355826 0.545594 0.706862
Si Si2 0.785943 0.282399 0.074263
Si Si3 0.552004 0.515381 0.082227
Si Si4 0.958989 0.820771 0.003717
Si Si5 0.357304 0.673958 0.707559
Si Si6 0.672936 0.934134 0.534538
O O1 0.500000 0.539900 0.750000
O O2 0.496312 0.510818 0.644751
O O3 0.368135 0.609918 0.689406
O O4 0.000000 0.530071 0.750000
O O5 0.566601 0.294058 0.047452
O O6 0.572499 0.291740 0.146503
O O7 0.085813 0.322681 0.042075
O O8 0.929936 0.221838 0.052540
O O9 0.253824 0.536462 0.081468
O O10 0.806763 0.563496 0.062455
O O11 0.688867 0.469591 0.028183
O O12 0.145864 0.877132 0.981837
O O13 0.500000 0.676273 0.750000
O O14 0.000000 0.690820 0.750000
#
# Coordination Sequence:
#
# PCOD9268730 Si02
#       6
#     8   8   8   8   8   8
#     4  10  20  33  51  74 101 134 170 210 255 304
#     4  10  20  34  54  78 105 134 168 212 260 310
#     4  10  20  33  51  75 103 135 169 210 257 305
#     4  10  20  34  54  79 104 134 168 211 263 309
#     4  10  20  33  52  76 102 134 168 208 255 303
#     4  10  20  33  52  77 104 134 168 210 259 307
#
# _framework density 17.886911000000001
#
# number of rings (size 3 to 8) (size 9 to 14) (size 15 to 20)
#    0.000    2.000    0.000    4.000    0.000    5.333 
#    0.000    0.000    0.000    6.000    0.000    0.000 
#    0.000    0.000    0.000    0.000    0.000    0.000 
#
# Total GULP energy -133836.253069 kJ/mol
# GULP energy per Si atom -5576.510545 kJ/mol
# Density = 1.784620 g / cm^3
# Si number density = 17.886911 Si / 1000 Ang^3
#
#
#
# Elastic Constant Matrix: (Units=GPa)
#
#
# Indices 1 2 3 4 5 6 
#
# 1 96.7397 7.9546 27.7437 0.0000 -15.9270 0.0000
# 2 7.9546 56.6321 34.0706 0.0000 -7.6326 0.0000
# 3 27.7437 34.0706 95.0975 0.0000 -7.8016 0.0000
# 4 0.0000 0.0000 0.0000 20.9031 0.0000 -1.6372
# 5 -15.9270 -7.6326 -7.8016 0.0000 22.1999 0.0000
# 6 0.0000 0.0000 0.0000 -1.6372 0.0000 41.7636
#
#
#
# Elastic Compliance Matrix: (Units=1/GPa)
#
#
# Indices 1 2 3 4 5 6 
#
# 1 0.012592 0.001467 -0.003518 0.000000 0.008302 0.000000
# 2 0.001467 0.023244 -0.008252 0.000000 0.006144 0.000000
# 3 -0.003518 -0.008252 0.014476 0.000000 -0.000274 0.000000
# 4 0.000000 0.000000 0.000000 0.047987 0.000000 0.001881
# 5 0.008302 0.006144 -0.000274 0.000000 0.053018 0.000000
# 6 0.000000 0.000000 0.000000 0.001881 0.000000 0.024018
#
#
# Mechanical properties :
#
#
# Convention : Reuss Voigt Hill
#
# Bulk Modulus (GPa) = 33.66297 43.11190 38.38743
# Shear Modulus (GPa) = 24.29043 28.88668 26.58855
#
# Velocity S-wave (km/s) = 3.68910 4.02302 3.85967
# Velocity P-wave (km/s) = 6.08331 6.76272 6.43199
#
# Compressibility (1/GPa) = 0.02970623
#
# Stress axis : x y z
#
# Youngs Moduli (GPa) = 79.41449 43.02166 69.08138
#
# Poissons Ratio (x) = -0.06310 0.24303
# Poissons Ratio (y) = -0.11647 0.57003
# Poissons Ratio (z) = 0.27938 0.35499
#
# Static dielectric constant tensor:
#      x y z
#    x 1.593360 0.000000 -0.053020 
#    y 0.000000 1.637970 0.000000 
#    z -0.053020 0.000000 1.464830 
# 
# From -- ./inp_files/261629.got.cif
#   From: 2010.05.17/outbox.cif.g08.bks.cpg/sg15_131_cif.got.tgz:261629.got - 2010.06.03 18:47:42.
