data_PCOD9268967
_publ_section_title
;
Structure prediction by ZEFSAII (Michael W. Deem and Ramdas Pophale) SiO2 
 PCOD9268967
Probable space group: C 2/C
;
_chemical_formula_sum "Si O2"
_cell_formula_units_Z 56
_cell_length_a 5.763407
_cell_length_b 25.618074
_cell_length_c 21.569188
_cell_angle_alpha 90.000000
_cell_angle_beta 56.482593
_cell_angle_gamma 90.000000
_cell_volume 2655.087214
_symmetry_space_group_name_H-M "C 2/C"
_symmetry_group_IT_number 15
_symmetry_cell_setting 'monoclinic'
loop_
_space_group_symop_operation_xyz
x,y,z
-x,y,1/2-z
-x,-y,-z
x,-y,1/2+z
1/2+x,1/2+y,z
1/2-x,1/2+y,1/2-z
1/2-x,1/2-y,-z
1/2+x,1/2-y,1/2+z
loop_
_atom_site_type_symbol
_atom_site_label
_atom_site_fract_x
_atom_site_fract_y
_atom_site_fract_z
Si Si1 0.806875 0.313884 0.674831
Si Si2 0.846724 0.414498 0.830149
Si Si3 0.260403 0.627498 0.429794
Si Si4 0.053360 0.658841 0.838405
Si Si5 0.676099 0.038420 0.035960
Si Si6 0.062553 0.802904 0.332303
Si Si7 0.274232 0.926389 0.442260
O O1 0.500000 0.312479 0.750000
O O2 0.801863 0.320980 0.600582
O O3 0.946720 0.259489 0.672330
O O4 0.972317 0.364026 0.676074
O O5 0.545130 0.393011 0.857679
O O6 0.800581 0.453506 0.893170
O O7 0.000000 0.439876 0.750000
O O8 0.290852 0.620953 0.499306
O O9 0.028064 0.584748 0.450571
O O10 0.250199 0.672546 0.750894
O O11 0.248025 0.676557 0.867962
O O12 0.751973 0.684257 0.865066
O O13 0.975828 0.598647 0.862247
O O14 0.601568 0.977486 0.041555
O O15 0.976142 0.052669 0.963284
#
# Coordination Sequence:
#
# PCOD9268967 Si02
#       7
#     8   8   8   8   8   8   8
#     4  11  20  35  64  84 121 161 203 251 316 363
#     4  10  20  33  57  92 120 151 202 260 305 375
#     4  10  21  36  60  91 118 157 204 258 305 378
#     4  10  22  40  64  91 122 163 215 255 306 378
#     4   9  21  39  60  88 117 162 209 246 324 365
#     4  10  23  41  63  93 123 166 211 255 315 368
#     4  10  21  41  63  84 121 166 205 257 311 374
#
# _framework density 21.091584000000001
#
# number of rings (size 3 to 8) (size 9 to 14) (size 15 to 20)
#    0.000    2.000    2.857    0.429    6.000    0.000 
#    2.571    2.857    0.000    0.000    0.000    0.000 
#    0.000    0.000    0.000    0.000    0.000    0.000 
#
# Total GULP energy -155875.272077 kJ/mol
# GULP energy per Si atom -5566.974003 kJ/mol
# Density = 2.104358 g / cm^3
# Si number density = 21.091584 Si / 1000 Ang^3
#
#
#
# Elastic Constant Matrix: (Units=GPa)
#
#
# Indices 1 2 3 4 5 6 
#
# 1 85.8391 16.9083 4.7879 0.0000 -19.3056 0.0000
# 2 16.9083 98.7972 33.9214 0.0000 -5.3830 0.0000
# 3 4.7879 33.9214 44.3365 0.0000 -5.0740 0.0000
# 4 0.0000 0.0000 0.0000 56.4738 0.0000 6.8344
# 5 -19.3056 -5.3830 -5.0740 0.0000 27.7298 0.0000
# 6 0.0000 0.0000 0.0000 6.8344 0.0000 26.5807
#
#
#
# Elastic Compliance Matrix: (Units=1/GPa)
#
#
# Indices 1 2 3 4 5 6 
#
# 1 0.014222 -0.002386 0.001399 0.000000 0.009694 0.000000
# 2 -0.002386 0.014144 -0.010663 0.000000 -0.000867 0.000000
# 3 0.001399 -0.010663 0.031087 0.000000 0.004593 0.000000
# 4 0.000000 0.000000 0.000000 0.018276 0.000000 -0.004699
# 5 0.009694 -0.000867 0.004593 0.000000 0.043483 0.000000
# 6 0.000000 0.000000 0.000000 -0.004699 0.000000 0.038830
#
#
# Mechanical properties :
#
#
# Convention : Reuss Voigt Hill
#
# Bulk Modulus (GPa) = 27.65982 37.80090 32.73036
# Shear Modulus (GPa) = 25.58945 33.71387 29.65166
#
# Velocity S-wave (km/s) = 3.48696 4.00240 3.75354
# Velocity P-wave (km/s) = 5.41798 6.27058 5.85980
#
# Compressibility (1/GPa) = 0.03615352
#
# Stress axis : x y z
#
# Youngs Moduli (GPa) = 70.31393 70.70171 32.16744
#
# Poissons Ratio (x) = 0.16871 -0.04501
# Poissons Ratio (y) = 0.16778 0.34300
# Poissons Ratio (z) = -0.09839 0.75388
#
# Static dielectric constant tensor:
#      x y z
#    x 1.921970 0.000000 0.060310 
#    y 0.000000 1.742320 0.000000 
#    z 0.060310 0.000000 1.759490 
# 
# From -- ./inp_files/286655.got.cif
#   From: 2010.05.17/outbox.cif.g08.bks.cpg/sg15_144_cif.got.tgz:286655.got - 2010.06.03 18:47:42.
