data_PCOD9268616
_publ_section_title
;
Structure prediction by ZEFSAII (Michael W. Deem and Ramdas Pophale) SiO2 
 PCOD9268616
Probable space group: C 2/C
;
_chemical_formula_sum "Si O2"
_cell_formula_units_Z 56
_cell_length_a 6.094479
_cell_length_b 16.330109
_cell_length_c 24.049622
_cell_angle_alpha 90.000000
_cell_angle_beta 57.370290
_cell_angle_gamma 90.000000
_cell_volume 2015.743143
_symmetry_space_group_name_H-M "C 2/C"
_symmetry_group_IT_number 15
_symmetry_cell_setting 'monoclinic'
loop_
_space_group_symop_operation_xyz
x,y,z
-x,y,1/2-z
-x,-y,-z
x,-y,1/2+z
1/2+x,1/2+y,z
1/2-x,1/2+y,1/2-z
1/2-x,1/2-y,-z
1/2+x,1/2-y,1/2+z
loop_
_atom_site_type_symbol
_atom_site_label
_atom_site_fract_x
_atom_site_fract_y
_atom_site_fract_z
Si Si1 0.218201 0.069472 0.980376
Si Si2 0.815499 0.193348 0.060906
Si Si3 0.500000 0.708106 0.250000
Si Si4 0.049254 0.544605 0.680755
Si Si5 0.165345 0.118568 0.323954
Si Si6 0.418522 0.680774 0.640746
Si Si7 0.610360 0.941734 0.914276
Si Si8 0.500000 0.392184 0.250000
O O1 0.312187 0.061263 0.031574
O O2 0.468767 0.027293 0.916439
O O3 0.085179 0.159701 0.997090
O O4 0.000000 0.000000 0.000000
O O5 0.853902 0.180303 0.121751
O O6 0.596276 0.129181 0.070516
O O7 0.672422 0.281042 0.075652
O O8 0.714666 0.662028 0.258700
O O9 0.324854 0.757307 0.318773
O O10 0.156856 0.454396 0.677333
O O11 0.294231 0.601094 0.627854
O O12 0.000000 0.582017 0.750000
O O13 0.749503 0.552231 0.707059
O O14 0.884572 0.078440 0.349774
O O15 0.491554 0.660144 0.694498
#
# Coordination Sequence:
#
# PCOD9268616 Si02
#       8
#     8   8   4   8   8   8   8   4
#     4   8  16  31  54  86 115 148 180 243 297 350
#     4  10  20  32  58  90 113 147 199 242 296 339
#     4  12  22  39  58  87 122 154 200 252 283 334
#     4  10  24  38  54  76 113 161 198 233 293 347
#     4  11  24  36  56  87 118 157 197 242 290 345
#     4  11  21  38  57  81 112 155 195 242 289 345
#     4   9  17  34  55  82 121 143 190 243 294 342
#     4  10  20  41  58  69 114 158 206 230 283 346
#
# _framework density 27.781316
#
# number of rings (size 3 to 8) (size 9 to 14) (size 15 to 20)
#    0.000    2.000    3.571    0.857    2.000    4.571 
#    0.000    0.000    0.000    0.857    0.000   35.000 
#    0.000    0.000    0.000    0.000    0.000    0.000 
#
# Total GULP energy -156544.963288 kJ/mol
# GULP energy per Si atom -5590.891546 kJ/mol
# Density = 2.771808 g / cm^3
# Si number density = 27.781316 Si / 1000 Ang^3
#
#
#
# Elastic Constant Matrix: (Units=GPa)
#
#
# Indices 1 2 3 4 5 6 
#
# 1 149.9858 52.4610 6.8076 0.0000 5.0764 -0.0001
# 2 52.4610 93.1548 6.9265 0.0000 0.1361 0.0000
# 3 6.8076 6.9265 64.6740 0.0000 -27.5309 0.0000
# 4 0.0000 0.0000 0.0000 41.3655 0.0000 -1.4559
# 5 5.0764 0.1361 -27.5309 0.0000 33.9688 0.0000
# 6 -0.0001 0.0000 0.0000 -1.4559 0.0000 65.8115
#
#
#
# Elastic Compliance Matrix: (Units=1/GPa)
#
#
# Indices 1 2 3 4 5 6 
#
# 1 0.008435 -0.004643 -0.001404 0.000000 -0.002380 0.000000
# 2 -0.004643 0.013426 -0.001033 0.000000 -0.000198 0.000000
# 3 -0.001404 -0.001033 0.024140 0.000000 0.019779 0.000000
# 4 0.000000 0.000000 0.000000 0.024194 0.000000 0.000535
# 5 -0.002380 -0.000198 0.019779 0.000000 0.045826 0.000000
# 6 0.000000 0.000000 0.000000 0.000535 0.000000 0.015207
#
#
# Mechanical properties :
#
#
# Convention : Reuss Voigt Hill
#
# Bulk Modulus (GPa) = 31.40423 48.91165 40.15794
# Shear Modulus (GPa) = 32.05092 44.33714 38.19403
#
# Velocity S-wave (km/s) = 3.40028 3.99925 3.71187
# Velocity P-wave (km/s) = 5.17151 6.24255 5.73210
#
# Compressibility (1/GPa) = 0.03184284
#
# Stress axis : x y z
#
# Youngs Moduli (GPa) = 118.54779 74.47965 41.42455
#
# Poissons Ratio (x) = 0.34578 0.05815
# Poissons Ratio (y) = 0.55037 0.04281
# Poissons Ratio (z) = 0.16641 0.07696
#
# Static dielectric constant tensor:
#      x y z
#    x 1.818160 0.000000 -0.216250 
#    y 0.000000 2.307010 0.000000 
#    z -0.216250 0.000000 2.113100 
# 
# From -- ./inp_files/305767.got.cif
#   From: 2010.05.17/outbox.cif.g08.bks.cpg/sg15_153_cif.got.tgz:305767.got - 2010.06.03 18:47:42.
