data_PCOD9268030
_publ_section_title
;
Structure prediction by ZEFSAII (Michael W. Deem and Ramdas Pophale) SiO2 
 PCOD9268030
Probable space group: C 2/C
;
_chemical_formula_sum "Si O2"
_cell_formula_units_Z 48
_cell_length_a 8.916550
_cell_length_b 16.201734
_cell_length_c 15.832404
_cell_angle_alpha 90.000000
_cell_angle_beta 79.267770
_cell_angle_gamma 90.000000
_cell_volume 2247.198281
_symmetry_space_group_name_H-M "C 2/C"
_symmetry_group_IT_number 15
_symmetry_cell_setting 'monoclinic'
loop_
_space_group_symop_operation_xyz
x,y,z
-x,y,1/2-z
-x,-y,-z
x,-y,1/2+z
1/2+x,1/2+y,z
1/2-x,1/2+y,1/2-z
1/2-x,1/2-y,-z
1/2+x,1/2-y,1/2+z
loop_
_atom_site_type_symbol
_atom_site_label
_atom_site_fract_x
_atom_site_fract_y
_atom_site_fract_z
Si Si1 0.817877 0.190692 0.704773
Si Si2 0.648557 0.167743 0.003011
Si Si3 0.425348 0.873367 0.678639
Si Si4 0.393820 0.402467 0.369437
Si Si5 0.389843 0.241098 0.920372
Si Si6 0.092373 0.911390 0.656941
O O1 0.860966 0.285475 0.720357
O O2 0.821090 0.134085 0.788756
O O3 0.671726 0.200672 0.660138
O O4 0.958757 0.155605 0.634360
O O5 0.767884 0.102126 0.954921
O O6 0.520976 0.186927 0.946753
O O7 0.750000 0.250000 0.000000
O O8 0.555986 0.143377 0.096096
O O9 0.500000 0.919364 0.750000
O O10 0.275015 0.913447 0.654225
O O11 0.452536 0.495618 0.359151
O O12 0.441801 0.335536 0.900880
O O13 0.250000 0.250000 0.000000
O O14 0.000000 0.888735 0.750000
#
# Coordination Sequence:
#
# PCOD9268030 Si02
#       6
#     8   8   8   8   8   8
#     4  10  19  41  67  87 132 174 220 266 318 399
#     4  12  23  41  71  96 129 176 224 267 335 399
#     4  11  22  43  67  93 128 176 225 273 321 405
#     4  11  22  43  66  98 132 175 217 270 343 387
#     4  11  23  43  64  97 129 173 229 273 322 397
#     4  11  25  42  67  96 135 172 218 281 329 398
#
# _framework density 21.359929999999999
#
# number of rings (size 3 to 8) (size 9 to 14) (size 15 to 20)
#    0.000    1.000    8.333    0.000    7.000    0.667 
#    3.000    3.333    0.000    0.000    0.000    0.000 
#    0.000    0.000    0.000    0.000    0.000    0.000 
#
# Total GULP energy -134010.748174 kJ/mol
# GULP energy per Si atom -5583.781174 kJ/mol
# Density = 2.131131 g / cm^3
# Si number density = 21.359930 Si / 1000 Ang^3
#
#
#
# Elastic Constant Matrix: (Units=GPa)
#
#
# Indices 1 2 3 4 5 6 
#
# 1 64.5145 -23.4006 13.6560 0.0000 2.4615 0.0000
# 2 -23.4006 54.2452 -3.0716 0.0000 -0.9866 0.0000
# 3 13.6560 -3.0716 78.0561 0.0000 -14.4621 0.0000
# 4 0.0000 0.0000 0.0000 20.6476 0.0000 -7.4706
# 5 2.4615 -0.9866 -14.4621 0.0000 48.7730 0.0000
# 6 0.0000 0.0000 0.0000 -7.4706 0.0000 16.2219
#
#
#
# Elastic Compliance Matrix: (Units=1/GPa)
#
#
# Indices 1 2 3 4 5 6 
#
# 1 0.019209 0.008062 -0.003378 0.000000 -0.001808 0.000000
# 2 0.008062 0.021878 -0.000575 0.000000 -0.000135 0.000000
# 3 -0.003378 -0.000575 0.014189 0.000000 0.004366 0.000000
# 4 0.000000 0.000000 0.000000 0.058115 0.000000 0.026764
# 5 -0.001808 -0.000135 0.004366 0.000000 0.021886 0.000000
# 6 0.000000 0.000000 0.000000 0.026764 0.000000 0.073971
#
#
# Mechanical properties :
#
#
# Convention : Reuss Voigt Hill
#
# Bulk Modulus (GPa) = 15.74954 19.02038 17.38496
# Shear Modulus (GPa) = 22.50294 31.10396 26.80345
#
# Velocity S-wave (km/s) = 3.24931 3.82014 3.54623
# Velocity P-wave (km/s) = 4.63322 5.32747 4.99243
#
# Compressibility (1/GPa) = 0.06349393
#
# Stress axis : x y z
#
# Youngs Moduli (GPa) = 52.05945 45.70850 70.47876
#
# Poissons Ratio (x) = -0.36851 0.23810
# Poissons Ratio (y) = -0.41972 0.04049
# Poissons Ratio (z) = 0.17587 0.02626
#
# Static dielectric constant tensor:
#      x y z
#    x 1.779110 0.000000 -0.054190 
#    y 0.000000 1.746060 0.000000 
#    z -0.054190 0.000000 1.597540 
# 
# From -- ./inp_files/189748.got.cif
#   From: 2010.05.17/outbox.cif.g08.bks.cpg/sg15_95_cif.got.tgz:189748.got - 2010.06.03 18:47:42.
