data_PCOD9268811
_publ_section_title
;
Structure prediction by ZEFSAII (Michael W. Deem and Ramdas Pophale) SiO2 
 PCOD9268811
Probable space group: C 2/C
;
_chemical_formula_sum "Si O2"
_cell_formula_units_Z 40
_cell_length_a 10.580663
_cell_length_b 18.875744
_cell_length_c 14.931472
_cell_angle_alpha 90.000000
_cell_angle_beta 139.800519
_cell_angle_gamma 90.000000
_cell_volume 1924.787136
_symmetry_space_group_name_H-M "C 2/C"
_symmetry_group_IT_number 15
_symmetry_cell_setting 'monoclinic'
loop_
_space_group_symop_operation_xyz
x,y,z
-x,y,1/2-z
-x,-y,-z
x,-y,1/2+z
1/2+x,1/2+y,z
1/2-x,1/2+y,1/2-z
1/2-x,1/2-y,-z
1/2+x,1/2-y,1/2+z
loop_
_atom_site_type_symbol
_atom_site_label
_atom_site_fract_x
_atom_site_fract_y
_atom_site_fract_z
Si Si1 0.939483 0.418872 0.578154
Si Si2 0.536786 0.219825 0.903287
Si Si3 0.602624 0.069389 0.662974
Si Si4 0.881776 0.725788 0.349790
Si Si5 0.012521 0.122583 0.861390
O O1 0.916656 0.426554 0.456729
O O2 0.728248 0.401107 0.505649
O O3 0.026649 0.493948 0.653831
O O4 0.075276 0.350607 0.668833
O O5 0.518707 0.137206 0.868571
O O6 0.650124 0.260583 0.737697
O O7 0.750000 0.250000 0.000000
O O8 0.512099 0.225282 0.996875
O O9 0.829622 0.083870 0.808691
O O10 0.970782 0.793617 0.347794
O O11 0.000000 0.104560 0.750000
#
# Coordination Sequence:
#
# PCOD9268811 Si02
#       5
#     8   8   8   8   8
#     4   9  16  29  50  74  99 129 168 210 249 295
#     4  10  20  35  54  74 102 136 169 211 252 296
#     4   8  17  30  47  75 100 126 170 212 248 294
#     4  10  20  33  53  78 101 132 174 208 249 308
#     4   9  17  31  51  74 104 133 162 214 262 293
#
# _framework density 20.781518999999999
#
# number of rings (size 3 to 8) (size 9 to 14) (size 15 to 20)
#    0.000    2.800    0.000    2.400    0.000    1.600 
#    0.000    6.000    0.000   20.400    0.000    0.000 
#    0.000    0.000    0.000    0.000    0.000    0.000 
#
# Total GULP energy -111561.421715 kJ/mol
# GULP energy per Si atom -5578.071086 kJ/mol
# Density = 2.073422 g / cm^3
# Si number density = 20.781519 Si / 1000 Ang^3
#
#
#
# Elastic Constant Matrix: (Units=GPa)
#
#
# Indices 1 2 3 4 5 6 
#
# 1 57.1617 59.5840 22.9591 -0.0001 34.6206 0.0000
# 2 59.5840 200.4138 66.0244 0.0003 75.6784 0.0002
# 3 22.9591 66.0244 60.1973 0.0005 18.8862 0.0004
# 4 -0.0001 0.0003 0.0005 24.7690 0.0001 4.0635
# 5 34.6206 75.6784 18.8862 0.0001 43.2139 0.0000
# 6 0.0000 0.0002 0.0004 4.0635 0.0000 19.6855
#
#
#
# Elastic Compliance Matrix: (Units=1/GPa)
#
#
# Indices 1 2 3 4 5 6 
#
# 1 0.036395 0.004657 -0.008439 0.000000 -0.033624 0.000000
# 2 0.004657 0.021881 -0.014582 0.000000 -0.035678 0.000000
# 3 -0.008439 -0.014582 0.029774 0.000000 0.019286 0.000000
# 4 0.000000 0.000000 0.000000 0.041788 0.000000 -0.008626
# 5 -0.033624 -0.035678 0.019286 0.000000 0.104130 0.000000
# 6 0.000000 0.000000 0.000000 -0.008626 0.000000 0.052579
#
#
# Mechanical properties :
#
#
# Convention : Reuss Voigt Hill
#
# Bulk Modulus (GPa) = 19.48533 68.32311 43.90422
# Shear Modulus (GPa) = 14.68930 28.81402 21.75166
#
# Velocity S-wave (km/s) = 2.66154 3.72764 3.23876
# Velocity P-wave (km/s) = 4.34070 7.17463 5.92946
#
# Compressibility (1/GPa) = 0.05132066
#
# Stress axis : x y z
#
# Youngs Moduli (GPa) = 27.47664 45.70087 33.58656
#
# Poissons Ratio (x) = -0.21282 0.28344
# Poissons Ratio (y) = -0.12795 0.48977
# Poissons Ratio (z) = 0.23188 0.66642
#
# Static dielectric constant tensor:
#      x y z
#    x 1.793170 0.000000 -0.049810 
#    y 0.000000 1.719760 0.000000 
#    z -0.049810 0.000000 1.764920 
# 
# From -- ./inp_files/238136.got.cif
#   From: 2010.05.17/outbox.cif.g08.bks.cpg/sg15_120_cif.got.tgz:238136.got - 2010.06.03 18:47:42.
