data_PCOD9268497
_publ_section_title
;
Structure prediction by ZEFSAII (Michael W. Deem and Ramdas Pophale) SiO2 
 PCOD9268497
Probable space group: C 2/C
;
_chemical_formula_sum "Si O2"
_cell_formula_units_Z 56
_cell_length_a 24.462263
_cell_length_b 7.090853
_cell_length_c 21.449660
_cell_angle_alpha 90.000000
_cell_angle_beta 141.513678
_cell_angle_gamma 90.000000
_cell_volume 2315.446338
_symmetry_space_group_name_H-M "C 2/C"
_symmetry_group_IT_number 15
_symmetry_cell_setting 'monoclinic'
loop_
_space_group_symop_operation_xyz
x,y,z
-x,y,1/2-z
-x,-y,-z
x,-y,1/2+z
1/2+x,1/2+y,z
1/2-x,1/2+y,1/2-z
1/2-x,1/2-y,-z
1/2+x,1/2-y,1/2+z
loop_
_atom_site_type_symbol
_atom_site_label
_atom_site_fract_x
_atom_site_fract_y
_atom_site_fract_z
Si Si1 0.634667 0.281794 0.194700
Si Si2 0.576219 0.239126 0.276072
Si Si3 0.487389 0.218814 0.971827
Si Si4 0.995859 0.665313 0.658457
Si Si5 0.317642 0.313125 0.653753
Si Si6 0.693976 0.147899 0.723285
Si Si7 0.185930 0.475666 0.451610
O O1 0.612672 0.334681 0.245968
O O2 0.720146 0.372396 0.240854
O O3 0.658102 0.057763 0.211796
O O4 0.550976 0.324068 0.076178
O O5 0.500000 0.331750 0.250000
O O6 0.533242 0.045608 0.207897
O O7 0.647324 0.168903 0.390035
O O8 0.510505 0.225619 0.919390
O O9 0.383571 0.249127 0.884523
O O10 0.500000 0.000000 0.000000
O O11 0.897382 0.644546 0.596079
O O12 0.075827 0.794551 0.755725
O O13 0.292121 0.266452 0.701533
O O14 0.261697 0.476589 0.570679
O O15 0.283070 0.135250 0.581905
#
# Coordination Sequence:
#
# PCOD9268497 Si02
#       7
#     8   8   8   8   8   8   8
#     4  11  19  35  54  79 108 140 177 229 270 318
#     4   9  16  28  48  75 102 130 178 227 259 297
#     4   9  16  30  49  75 103 140 179 215 256 320
#     4   9  14  25  42  70 101 121 173 218 256 303
#     4   9  15  26  40  70 104 130 159 214 271 311
#     4  10  20  32  52  81 108 139 181 221 272 323
#     4   9  15  23  43  69 104 126 161 221 272 296
#
# _framework density 24.185402
#
# number of rings (size 3 to 8) (size 9 to 14) (size 15 to 20)
#    0.000    2.571    5.714    2.143    0.000    0.000 
#    0.000    0.714    0.000    0.857    0.000    1.000 
#    0.000    0.000    0.000    0.000    0.000    0.000 
#
# Total GULP energy -156306.296451 kJ/mol
# GULP energy per Si atom -5582.367730 kJ/mol
# Density = 2.413036 g / cm^3
# Si number density = 24.185402 Si / 1000 Ang^3
#
#
#
# Elastic Constant Matrix: (Units=GPa)
#
#
# Indices 1 2 3 4 5 6 
#
# 1 171.3846 29.3985 99.7849 0.0000 7.7264 0.0000
# 2 29.3985 59.8642 31.9216 0.0000 3.4161 -0.0001
# 3 99.7849 31.9216 223.8621 0.0000 -16.8507 0.0000
# 4 0.0000 0.0000 0.0000 21.1043 0.0000 -0.8775
# 5 7.7264 3.4161 -16.8507 0.0000 27.1017 0.0000
# 6 0.0000 -0.0001 0.0000 -0.8775 0.0000 29.5294
#
#
#
# Elastic Compliance Matrix: (Units=1/GPa)
#
#
# Indices 1 2 3 4 5 6 
#
# 1 0.008668 -0.001884 -0.003948 0.000000 -0.004688 0.000000
# 2 -0.001884 0.018927 -0.002096 0.000000 -0.003152 0.000000
# 3 -0.003948 -0.002096 0.006956 0.000000 0.005715 0.000000
# 4 0.000000 0.000000 0.000000 0.047442 0.000000 0.001410
# 5 -0.004688 -0.003152 0.005715 0.000000 0.042185 0.000000
# 6 0.000000 0.000000 0.000000 0.001410 0.000000 0.033906
#
#
# Mechanical properties :
#
#
# Convention : Reuss Voigt Hill
#
# Bulk Modulus (GPa) = 53.49155 86.36898 69.93026
# Shear Modulus (GPa) = 27.75107 35.14750 31.44928
#
# Velocity S-wave (km/s) = 3.39105 3.81629 3.60994
# Velocity P-wave (km/s) = 6.12353 7.43017 6.80827
#
# Compressibility (1/GPa) = 0.01869454
#
# Stress axis : x y z
#
# Youngs Moduli (GPa) = 115.36749 52.83329 143.76302
#
# Poissons Ratio (x) = 0.09954 0.56757
# Poissons Ratio (y) = 0.21735 0.30139
# Poissons Ratio (z) = 0.45546 0.11076
#
# Static dielectric constant tensor:
#      x y z
#    x 1.870610 0.000000 0.053900 
#    y 0.000000 2.204720 0.000000 
#    z 0.053900 0.000000 1.908340 
# 
# From -- ./inp_files/255296.got.cif
#   From: 2010.05.17/outbox.cif.g08.bks.cpg/sg15_128_cif.got.tgz:255296.got - 2010.06.03 18:47:42.
