data_PCOD9268243
_publ_section_title
;
Structure prediction by ZEFSAII (Michael W. Deem and Ramdas Pophale) SiO2 
 PCOD9268243
Probable space group: C 2/C
;
_chemical_formula_sum "Si O2"
_cell_formula_units_Z 40
_cell_length_a 20.532451
_cell_length_b 22.242567
_cell_length_c 5.336730
_cell_angle_alpha 90.000000
_cell_angle_beta 64.832531
_cell_angle_gamma 90.000000
_cell_volume 2205.882915
_symmetry_space_group_name_H-M "C 2/C"
_symmetry_group_IT_number 15
_symmetry_cell_setting 'monoclinic'
loop_
_space_group_symop_operation_xyz
x,y,z
-x,y,1/2-z
-x,-y,-z
x,-y,1/2+z
1/2+x,1/2+y,z
1/2-x,1/2+y,1/2-z
1/2-x,1/2-y,-z
1/2+x,1/2-y,1/2+z
loop_
_atom_site_type_symbol
_atom_site_label
_atom_site_fract_x
_atom_site_fract_y
_atom_site_fract_z
Si Si1 0.224255 0.175327 0.823052
Si Si2 0.569305 0.346908 0.462366
Si Si3 0.796415 0.680946 0.204367
Si Si4 0.044893 0.288338 0.917766
Si Si5 0.918759 0.024166 0.687475
O O1 0.142155 0.156957 0.004938
O O2 0.223024 0.248041 0.796130
O O3 0.250086 0.154065 0.507565
O O4 0.275683 0.156094 0.965664
O O5 0.562847 0.282386 0.340448
O O6 0.576733 0.404818 0.275540
O O7 0.500000 0.355793 0.750000
O O8 0.879498 0.679383 0.151578
O O9 0.000000 0.309981 0.750000
O O10 0.000000 0.290300 0.250000
O O11 0.883865 0.009936 0.476297
O O12 0.000000 0.000000 0.500000
#
# Coordination Sequence:
#
# PCOD9268243 Si02
#       5
#     8   8   8   8   8
#     4   9  18  29  45  59  82 117 140 190 222 262
#     4  10  20  31  46  65  86 113 167 196 220 252
#     4   9  17  32  42  61  87 108 144 175 236 269
#     4  10  20  29  47  68  87 114 146 194 221 266
#     4  10  20  32  44  58  83 119 142 199 231 255
#
# _framework density 18.133329
#
# number of rings (size 3 to 8) (size 9 to 14) (size 15 to 20)
#    0.000    2.400    2.000    1.200    2.800   11.200 
#    0.000    0.000    0.000    0.000    0.000    0.000 
#    0.000    0.000    0.000    0.000    0.000   70.000 
#
# Total GULP energy -111413.097947 kJ/mol
# GULP energy per Si atom -5570.654897 kJ/mol
# Density = 1.809206 g / cm^3
# Si number density = 18.133329 Si / 1000 Ang^3
#
#
#
# Elastic Constant Matrix: (Units=GPa)
#
#
# Indices 1 2 3 4 5 6 
#
# 1 138.5548 5.0560 54.4907 0.0000 15.4831 0.0000
# 2 5.0560 17.3017 9.4043 0.0000 -4.0319 0.0000
# 3 54.4907 9.4043 92.4878 0.0000 15.6531 0.0000
# 4 0.0000 0.0000 0.0000 1.9759 0.0000 4.5643
# 5 15.4831 -4.0319 15.6531 0.0000 32.4913 0.0000
# 6 0.0000 0.0000 0.0000 4.5643 0.0000 4.5562
#
#
#
# Elastic Compliance Matrix: (Units=1/GPa)
#
#
# Indices 1 2 3 4 5 6 
#
# 1 0.009514 -0.000433 -0.005210 0.000000 -0.002078 0.000000
# 2 -0.000433 0.065440 -0.008502 0.000000 0.012422 0.000000
# 3 -0.005210 -0.008502 0.015792 0.000000 -0.006180 0.000000
# 4 0.000000 0.000000 0.000000 -0.385141 0.000000 0.385821
# 5 -0.002078 0.012422 -0.006180 0.000000 0.036287 0.000000
# 6 0.000000 0.000000 0.000000 0.385821 0.000000 -0.167024
#
#
# Mechanical properties :
#
#
# Convention : Reuss Voigt Hill
#
# Bulk Modulus (GPa) = 16.01069 42.91627 29.46348
# Shear Modulus (GPa) = -13.29701 19.76424 3.23361
#
# Velocity S-wave (km/s) = -2.71087 3.30501 1.33683
# Velocity P-wave (km/s) = 0.97460 6.18729 4.32046
#
# Compressibility (1/GPa) = 0.06245825
#
# Stress axis : x y z
#
# Youngs Moduli (GPa) = 105.10564 15.28116 63.32246
#
# Poissons Ratio (x) = 0.00661 0.32990
# Poissons Ratio (y) = 0.04547 0.53834
# Poissons Ratio (z) = 0.54759 0.12991
#
# Static dielectric constant tensor:
#      x y z
#    x 1.572340 0.000000 -0.078920 
#    y 0.000000 1.620670 0.000000 
#    z -0.078920 0.000000 1.550140 
# 
# From -- ./inp_files/7268.got.cif
#   From: 2010.05.17/outbox.cif.g08.bks.cpg/sg15_4_cif.got.tgz:7268.got - 2010.06.03 18:47:42.
