data_PCOD9268504
_publ_section_title
;
Structure prediction by ZEFSAII (Michael W. Deem and Ramdas Pophale) SiO2 
 PCOD9268504
Probable space group: C 2/C
;
_chemical_formula_sum "Si O2"
_cell_formula_units_Z 64
_cell_length_a 17.216211
_cell_length_b 20.055439
_cell_length_c 17.481462
_cell_angle_alpha 90.000000
_cell_angle_beta 152.282755
_cell_angle_gamma 90.000000
_cell_volume 2807.383790
_symmetry_space_group_name_H-M "C 2/C"
_symmetry_group_IT_number 15
_symmetry_cell_setting 'monoclinic'
loop_
_space_group_symop_operation_xyz
x,y,z
-x,y,1/2-z
-x,-y,-z
x,-y,1/2+z
1/2+x,1/2+y,z
1/2-x,1/2+y,1/2-z
1/2-x,1/2-y,-z
1/2+x,1/2-y,1/2+z
loop_
_atom_site_type_symbol
_atom_site_label
_atom_site_fract_x
_atom_site_fract_y
_atom_site_fract_z
Si Si1 0.719248 0.056579 0.866732
Si Si2 0.540693 0.361046 0.696096
Si Si3 0.022804 0.801003 0.537353
Si Si4 0.824586 0.304931 0.621966
Si Si5 0.642516 0.940180 0.481159
Si Si6 0.264474 0.700271 0.687129
Si Si7 0.141961 0.066617 0.805373
Si Si8 0.857519 0.083172 0.452318
O O1 0.550889 0.079545 0.676111
O O2 0.673323 0.059646 0.916583
O O3 0.744259 0.981607 0.856779
O O4 0.898125 0.094186 0.028542
O O5 0.500000 0.351557 0.750000
O O6 0.530786 0.295777 0.635040
O O7 0.723986 0.393294 0.860058
O O8 0.092171 0.734223 0.559362
O O9 0.132548 0.867045 0.610595
O O10 0.853372 0.815759 0.344523
O O11 0.750000 0.250000 0.500000
O O12 0.858845 0.260762 0.726806
O O13 0.698340 0.363988 0.530711
O O14 0.000000 0.334288 0.750000
O O15 0.708575 0.014354 0.558511
O O16 0.279029 0.639310 0.640732
O O17 0.000000 0.058437 0.750000
O O18 0.036333 0.055881 0.635593
#
# Coordination Sequence:
#
# PCOD9268504 Si02
#       8
#     8   8   8   8   8   8   8   8
#     4  10  20  35  58  95 124 155 210 251 308 371
#     4  10  21  45  68  88 117 159 207 271 335 378
#     4  10  23  42  61  83 125 163 206 265 322 378
#     4  11  21  32  51  83 123 173 222 246 280 357
#     4  10  20  34  62  95 125 158 206 258 300 373
#     4  10  22  38  56  86 124 170 210 255 313 364
#     4  11  17  31  57  88 129 176 203 240 294 364
#     4  10  20  32  52  84 126 168 196 247 304 359
#
# _framework density 22.797025999999999
#
# number of rings (size 3 to 8) (size 9 to 14) (size 15 to 20)
#    0.000    1.750    2.500    3.750    1.750    2.500 
#    2.250    1.250    0.000    0.000    0.000    0.000 
#    0.000    0.000    0.000    0.000    0.000    0.000 
#
# Total GULP energy -178242.016866 kJ/mol
# GULP energy per Si atom -5570.063027 kJ/mol
# Density = 2.274514 g / cm^3
# Si number density = 22.797026 Si / 1000 Ang^3
#
#
#
# Elastic Constant Matrix: (Units=GPa)
#
#
# Indices 1 2 3 4 5 6 
#
# 1 37.4335 16.3483 37.3159 -0.0009 -10.0576 0.0010
# 2 16.3483 11.5778 18.0365 -0.0015 -0.9651 -0.0010
# 3 37.3159 18.0365 142.4530 0.0020 -3.7441 -0.0055
# 4 -0.0009 -0.0015 0.0020 19.7296 0.0011 -7.9858
# 5 -10.0576 -0.9651 -3.7441 0.0011 29.3353 -0.0018
# 6 0.0010 -0.0010 -0.0055 -7.9858 -0.0018 1.0662
#
#
#
# Elastic Compliance Matrix: (Units=1/GPa)
#
#
# Indices 1 2 3 4 5 6 
#
# 1 0.093722 -0.115778 -0.009178 0.000042 0.027152 0.000116
# 2 -0.115778 0.250715 -0.002250 -0.000062 -0.031733 -0.000192
# 3 -0.009178 -0.002250 0.009657 -0.000010 -0.001988 -0.000021
# 4 0.000042 -0.000062 -0.000010 -0.024948 0.000000 -0.186858
# 5 0.027152 -0.031733 -0.001988 0.000000 0.042100 0.000009
# 6 0.000116 -0.000192 -0.000021 -0.186858 0.000009 -0.461647
#
#
# Mechanical properties :
#
#
# Convention : Reuss Voigt Hill
#
# Bulk Modulus (GPa) = 10.03188 37.20731 23.61960
# Shear Modulus (GPa) = 25.35017 18.01048 21.68032
#
# Velocity S-wave (km/s) = 3.33828 2.81381 3.08720
# Velocity P-wave (km/s) = 4.38963 5.18780 4.80531
#
# Compressibility (1/GPa) = 0.09968217
#
# Stress axis : x y z
#
# Youngs Moduli (GPa) = 10.66985 3.98859 103.55578
#
# Poissons Ratio (x) = 0.46179 0.95043
# Poissons Ratio (y) = 1.23533 0.23297
# Poissons Ratio (z) = 0.09793 0.00897
#
# Static dielectric constant tensor:
#      x y z
#    x 1.935270 0.000000 0.038900 
#    y 0.000000 1.870420 0.000000 
#    z 0.038900 0.000000 1.878630 
# 
# From -- ./inp_files/211989.got.cif
#   From: 2010.05.17/outbox.cif.g08.bks.cpg/sg15_106_cif.got.tgz:211989.got - 2010.06.03 18:47:42.
