data_PCOD9268156
_publ_section_title
;
Structure prediction by ZEFSAII (Michael W. Deem and Ramdas Pophale) SiO2 
 PCOD9268156
Probable space group: C 2/C
;
_chemical_formula_sum "Si O2"
_cell_formula_units_Z 56
_cell_length_a 13.901100
_cell_length_b 11.604388
_cell_length_c 18.512610
_cell_angle_alpha 90.000000
_cell_angle_beta 59.217191
_cell_angle_gamma 90.000000
_cell_volume 2565.603858
_symmetry_space_group_name_H-M "C 2/C"
_symmetry_group_IT_number 15
_symmetry_cell_setting 'monoclinic'
loop_
_space_group_symop_operation_xyz
x,y,z
-x,y,1/2-z
-x,-y,-z
x,-y,1/2+z
1/2+x,1/2+y,z
1/2-x,1/2+y,1/2-z
1/2-x,1/2-y,-z
1/2+x,1/2-y,1/2+z
loop_
_atom_site_type_symbol
_atom_site_label
_atom_site_fract_x
_atom_site_fract_y
_atom_site_fract_z
Si Si1 0.982327 0.831069 0.073766
Si Si2 0.443400 0.431147 0.937525
Si Si3 0.795303 0.579519 0.023407
Si Si4 0.687092 0.810123 0.457042
Si Si5 0.292707 0.378327 0.668063
Si Si6 0.126206 0.573759 0.670221
Si Si7 0.722293 0.223873 0.334634
O O1 0.879910 0.794440 0.161918
O O2 0.925436 0.894991 0.027284
O O3 0.060509 0.931805 0.073505
O O4 0.058747 0.725898 0.020907
O O5 0.335237 0.384847 0.938738
O O6 0.572957 0.398047 0.877515
O O7 0.800824 0.447042 0.047328
O O8 0.828720 0.665315 0.074284
O O9 0.862338 0.585981 0.921647
O O10 0.750000 0.750000 0.500000
O O11 0.720503 0.740795 0.371756
O O12 0.213524 0.471851 0.658951
O O13 0.256013 0.370660 0.764511
O O14 0.177087 0.690181 0.685438
O O15 0.000000 0.554328 0.750000
#
# Coordination Sequence:
#
# PCOD9268156 Si02
#       7
#     8   8   8   8   8   8   8
#     4  10  20  40  67  95 131 176 219 277 340 402
#     4  10  19  42  72  91 130 181 230 275 326 414
#     4  12  25  45  73 103 132 184 237 276 348 409
#     4  11  22  42  72 101 130 176 229 281 334 412
#     4  11  26  45  68 100 139 182 228 282 347 400
#     4  12  27  47  67 100 144 178 226 293 345 403
#     4  12  28  43  69 101 141 180 229 283 348 409
#
# _framework density 21.827220000000001
#
# number of rings (size 3 to 8) (size 9 to 14) (size 15 to 20)
#    0.000    0.857    5.714    1.286    6.000    1.714 
#    0.000    0.000    0.000    0.000    0.000    0.000 
#    0.000    0.000    0.000    0.000    0.000    0.000 
#
# Total GULP energy -156181.759682 kJ/mol
# GULP energy per Si atom -5577.919989 kJ/mol
# Density = 2.177754 g / cm^3
# Si number density = 21.827220 Si / 1000 Ang^3
#
#
#
# Elastic Constant Matrix: (Units=GPa)
#
#
# Indices 1 2 3 4 5 6 
#
# 1 92.9521 16.0355 41.1945 0.0000 -23.1564 0.0000
# 2 16.0355 72.8298 24.4089 0.0000 -3.9110 0.0000
# 3 41.1945 24.4089 115.0566 0.0000 -14.7140 0.0000
# 4 0.0000 0.0000 0.0000 24.3423 0.0000 2.7552
# 5 -23.1564 -3.9110 -14.7140 0.0000 32.2878 0.0000
# 6 0.0000 0.0000 0.0000 2.7552 0.0000 28.7826
#
#
#
# Elastic Compliance Matrix: (Units=1/GPa)
#
#
# Indices 1 2 3 4 5 6 
#
# 1 0.014928 -0.001508 -0.003907 0.000000 0.008743 0.000000
# 2 -0.001508 0.014938 -0.002693 0.000000 -0.000499 0.000000
# 3 -0.003907 -0.002693 0.010896 0.000000 0.001838 0.000000
# 4 0.000000 0.000000 0.000000 0.041531 0.000000 -0.003975
# 5 0.008743 -0.000499 0.001838 0.000000 0.038019 0.000000
# 6 0.000000 0.000000 0.000000 -0.003975 0.000000 0.035124
#
#
# Mechanical properties :
#
#
# Convention : Reuss Voigt Hill
#
# Bulk Modulus (GPa) = 40.73778 49.34626 45.04202
# Shear Modulus (GPa) = 27.80342 30.36250 29.08296
#
# Velocity S-wave (km/s) = 3.57290 3.73371 3.65419
# Velocity P-wave (km/s) = 5.97705 6.42216 6.20360
#
# Compressibility (1/GPa) = 0.02454724
#
# Stress axis : x y z
#
# Youngs Moduli (GPa) = 66.98892 66.94144 91.77298
#
# Poissons Ratio (x) = 0.10094 0.35853
# Poissons Ratio (y) = 0.10102 0.24715
# Poissons Ratio (z) = 0.26171 0.18028
#
# Static dielectric constant tensor:
#      x y z
#    x 1.822840 0.000000 -0.004980 
#    y 0.000000 1.821400 0.000000 
#    z -0.004980 0.000000 1.822640 
# 
# From -- ./inp_files/204346.got.cif
#   From: 2010.05.17/outbox.cif.g08.bks.cpg/sg15_103_cif.got.tgz:204346.got - 2010.06.03 18:47:42.
