data_PCOD9268973
_publ_section_title
;
Structure prediction by ZEFSAII (Michael W. Deem and Ramdas Pophale) SiO2 
 PCOD9268973
Probable space group: C 2/C
;
_chemical_formula_sum "Si O2"
_cell_formula_units_Z 64
_cell_length_a 25.558683
_cell_length_b 21.331685
_cell_length_c 8.037278
_cell_angle_alpha 90.000000
_cell_angle_beta 134.754053
_cell_angle_gamma 90.000000
_cell_volume 3111.815877
_symmetry_space_group_name_H-M "C 2/C"
_symmetry_group_IT_number 15
_symmetry_cell_setting 'monoclinic'
loop_
_space_group_symop_operation_xyz
x,y,z
-x,y,1/2-z
-x,-y,-z
x,-y,1/2+z
1/2+x,1/2+y,z
1/2-x,1/2+y,1/2-z
1/2-x,1/2-y,-z
1/2+x,1/2-y,1/2+z
loop_
_atom_site_type_symbol
_atom_site_label
_atom_site_fract_x
_atom_site_fract_y
_atom_site_fract_z
Si Si1 0.195352 0.673842 0.014191
Si Si2 0.597295 0.619889 0.583318
Si Si3 0.745917 0.543384 0.266041
Si Si4 0.237703 0.410395 0.051250
Si Si5 0.327074 0.787872 0.662249
Si Si6 0.143165 0.238583 0.109244
Si Si7 0.918245 0.971132 0.999224
Si Si8 0.947110 0.855781 0.874232
O O1 0.215500 0.599400 0.042371
O O2 0.157423 0.693519 0.108444
O O3 0.276240 0.705739 0.204975
O O4 0.152853 0.703047 0.760670
O O5 0.683767 0.624016 0.798898
O O6 0.584666 0.544817 0.540850
O O7 0.579220 0.656609 0.372409
O O8 0.535188 0.641436 0.571601
O O9 0.758870 0.469886 0.323902
O O10 0.777077 0.557965 0.156821
O O11 0.656240 0.548426 0.070948
O O12 0.183115 0.354108 0.955670
O O13 0.250000 0.750000 0.500000
O O14 0.373519 0.752030 0.623169
O O15 0.086751 0.190822 0.069119
O O16 0.000000 0.958553 0.250000
O O17 0.916120 0.926211 0.834916
#
# Coordination Sequence:
#
# PCOD9268973 Si02
#       8
#     8   8   8   8   8   8   8   8
#     4   9  19  35  50  75  97 127 176 226 274 311
#     4  10  23  32  48  68 104 138 181 231 257 296
#     4  10  21  32  49  75 101 134 181 221 260 310
#     4  10  22  33  53  74 105 142 173 224 263 311
#     4   9  20  36  50  76 100 130 180 219 268 323
#     4  10  20  33  58  69  94 137 178 228 267 318
#     4  11  20  31  47  64 101 142 183 219 256 293
#     4  11  21  35  46  72  94 137 192 220 262 315
#
# _framework density 20.566770999999999
#
# number of rings (size 3 to 8) (size 9 to 14) (size 15 to 20)
#    0.000    2.000    2.500    1.125   14.000    0.000 
#    0.000    0.000    0.000    0.000    0.000    0.000 
#    0.000    0.000    0.000   10.125    1.250    0.625 
#
# Total GULP energy -178259.142962 kJ/mol
# GULP energy per Si atom -5570.598218 kJ/mol
# Density = 2.051996 g / cm^3
# Si number density = 20.566771 Si / 1000 Ang^3
#
#
#
# Elastic Constant Matrix: (Units=GPa)
#
#
# Indices 1 2 3 4 5 6 
#
# 1 102.0601 51.2863 18.5591 0.0000 -21.7271 0.0000
# 2 51.2863 107.7939 30.1476 0.0000 -2.6980 0.0000
# 3 18.5591 30.1476 25.1640 0.0000 -10.2619 0.0000
# 4 0.0000 0.0000 0.0000 26.5660 0.0000 -2.7944
# 5 -21.7271 -2.6980 -10.2619 0.0000 13.6339 0.0000
# 6 0.0000 0.0000 0.0000 -2.7944 0.0000 19.9270
#
#
#
# Elastic Compliance Matrix: (Units=1/GPa)
#
#
# Indices 1 2 3 4 5 6 
#
# 1 0.027248 -0.019109 0.027361 0.000000 0.060236 0.000000
# 2 -0.019109 0.029548 -0.045221 0.000000 -0.058641 0.000000
# 3 0.027361 -0.045221 0.126783 0.000000 0.130081 0.000000
# 4 0.000000 0.000000 0.000000 0.038206 0.000000 0.005358
# 5 0.060236 -0.058641 0.130081 0.000000 0.255642 0.000000
# 6 0.000000 0.000000 0.000000 0.005358 0.000000 0.050935
#
#
# Mechanical properties :
#
#
# Convention : Reuss Voigt Hill
#
# Bulk Modulus (GPa) = 9.12052 48.33379 28.72715
# Shear Modulus (GPa) = 7.82661 21.02703 14.42682
#
# Velocity S-wave (km/s) = 1.95288 3.20093 2.65139
# Velocity P-wave (km/s) = 3.08694 6.10027 4.83438
#
# Compressibility (1/GPa) = 0.10964292
#
# Stress axis : x y z
#
# Youngs Moduli (GPa) = 36.69943 33.84312 7.88749
#
# Poissons Ratio (x) = 0.64671 -0.21581
# Poissons Ratio (y) = 0.70129 0.35668
# Poissons Ratio (z) = -1.00414 1.53041
#
# Static dielectric constant tensor:
#      x y z
#    x 1.750510 0.000000 -0.062870 
#    y 0.000000 1.999180 0.000000 
#    z -0.062870 0.000000 1.756020 
# 
# From -- ./inp_files/67451.got.cif
#   From: 2010.05.17/outbox.cif.g08.bks.cpg/sg15_34_cif.got.tgz:67451.got - 2010.06.03 18:47:42.
