data_PCOD9268029
_publ_section_title
;
Structure prediction by ZEFSAII (Michael W. Deem and Ramdas Pophale) SiO2 
 PCOD9268029
Probable space group: C 2/C
;
_chemical_formula_sum "Si O2"
_cell_formula_units_Z 64
_cell_length_a 28.330760
_cell_length_b 11.877708
_cell_length_c 16.366750
_cell_angle_alpha 90.000000
_cell_angle_beta 35.051173
_cell_angle_gamma 90.000000
_cell_volume 3162.991684
_symmetry_space_group_name_H-M "C 2/C"
_symmetry_group_IT_number 15
_symmetry_cell_setting 'monoclinic'
loop_
_space_group_symop_operation_xyz
x,y,z
-x,y,1/2-z
-x,-y,-z
x,-y,1/2+z
1/2+x,1/2+y,z
1/2-x,1/2+y,1/2-z
1/2-x,1/2-y,-z
1/2+x,1/2-y,1/2+z
loop_
_atom_site_type_symbol
_atom_site_label
_atom_site_fract_x
_atom_site_fract_y
_atom_site_fract_z
Si Si1 0.700969 0.668761 0.128851
Si Si2 0.068189 0.865723 0.263315
Si Si3 0.977941 0.113210 0.187731
Si Si4 0.300401 0.077238 0.282384
Si Si5 0.151039 0.240543 0.495979
Si Si6 0.369546 0.159604 0.646344
Si Si7 0.537724 0.779256 0.965644
Si Si8 0.256497 0.069134 0.532669
O O1 0.617248 0.636722 0.199601
O O2 0.676188 0.738181 0.243433
O O3 0.753181 0.556783 0.072513
O O4 0.750000 0.750000 0.000000
O O5 0.084235 0.807948 0.153322
O O6 0.039313 0.788172 0.378087
O O7 0.161670 0.897828 0.155423
O O8 0.013605 0.978621 0.336382
O O9 0.000000 0.140122 0.250000
O O10 0.027802 0.189888 0.053229
O O11 0.215638 0.141352 0.381376
O O12 0.378880 0.150859 0.145175
O O13 0.297810 0.067625 0.384824
O O14 0.314477 0.952318 0.228187
O O15 0.115918 0.300601 0.466264
O O16 0.201484 0.336077 0.472978
O O17 0.455282 0.145000 0.574287
#
# Coordination Sequence:
#
# PCOD9268029 Si02
#       8
#     8   8   8   8   8   8   8   8
#     4  10  21  42  65  88 130 170 206 262 316 370
#     4  10  20  41  64  90 124 170 203 258 311 367
#     4  10  24  40  62  96 126 164 213 256 314 374
#     4  11  21  44  66  86 127 169 207 260 312 377
#     4  11  23  40  65  97 121 160 225 260 301 375
#     4  11  26  38  61 101 125 165 209 261 320 370
#     4  11  22  43  64  88 133 167 203 251 325 378
#     4  10  19  41  67  87 119 167 215 255 310 369
#
# _framework density 20.234010000000001
#
# number of rings (size 3 to 8) (size 9 to 14) (size 15 to 20)
#    0.000    1.500    3.750    1.500    3.500    1.000 
#    0.000    0.000    0.000    0.000    0.000    0.000 
#    0.000    0.000    0.000    0.000    0.000    0.000 
#
# Total GULP energy -178763.729834 kJ/mol
# GULP energy per Si atom -5586.366557 kJ/mol
# Density = 2.018796 g / cm^3
# Si number density = 20.234010 Si / 1000 Ang^3
#
#
#
# Elastic Constant Matrix: (Units=GPa)
#
#
# Indices 1 2 3 4 5 6 
#
# 1 76.7905 37.4256 18.9767 0.0000 12.8345 0.0000
# 2 37.4256 112.6404 27.2998 -0.0001 -4.1208 0.0000
# 3 18.9767 27.2998 55.9855 0.0000 -0.0648 0.0000
# 4 0.0000 -0.0001 0.0000 8.9230 0.0000 15.2519
# 5 12.8345 -4.1208 -0.0648 0.0000 22.9269 0.0000
# 6 0.0000 0.0000 0.0000 15.2519 0.0000 16.7719
#
#
#
# Elastic Compliance Matrix: (Units=1/GPa)
#
#
# Indices 1 2 3 4 5 6 
#
# 1 0.018610 -0.005750 -0.003517 0.000000 -0.011461 0.000000
# 2 -0.005750 0.011919 -0.003857 0.000000 0.005350 0.000000
# 3 -0.003517 -0.003857 0.020936 0.000000 0.001335 0.000000
# 4 0.000000 0.000000 0.000000 -0.202156 0.000000 0.183835
# 5 -0.011461 0.005350 0.001335 0.000000 0.050998 0.000000
# 6 0.000000 0.000000 0.000000 0.183835 0.000000 -0.107551
#
#
# Mechanical properties :
#
#
# Convention : Reuss Voigt Hill
#
# Bulk Modulus (GPa) = 39.65650 45.86896 42.76273
# Shear Modulus (GPa) = -28.97016 20.50530 -4.23243
#
# Velocity S-wave (km/s) = -3.78796 3.18686 -1.44785
# Velocity P-wave (km/s) = 0.71412 6.02162 4.28776
#
# Compressibility (1/GPa) = 0.02521655
#
# Stress axis : x y z
#
# Youngs Moduli (GPa) = 53.73555 83.90157 47.76439
#
# Poissons Ratio (x) = 0.48244 0.16800
# Poissons Ratio (y) = 0.30898 0.18421
# Poissons Ratio (z) = 0.18901 0.32358
#
# Static dielectric constant tensor:
#      x y z
#    x 1.703130 0.000000 -0.012290 
#    y 0.000000 1.743040 0.000000 
#    z -0.012290 0.000000 1.711490 
# 
# From -- ./inp_files/225159.got.cif
#   From: 2010.05.17/outbox.cif.g08.bks.cpg/sg15_113_cif.got.tgz:225159.got - 2010.06.03 18:47:42.
