data_PCOD9268189
_publ_section_title
;
Structure prediction by ZEFSAII (Michael W. Deem and Ramdas Pophale) SiO2 
 PCOD9268189
Probable space group: C 2/C
;
_chemical_formula_sum "Si O2"
_cell_formula_units_Z 52
_cell_length_a 23.674608
_cell_length_b 9.063451
_cell_length_c 16.273743
_cell_angle_alpha 90.000000
_cell_angle_beta 40.756385
_cell_angle_gamma 90.000000
_cell_volume 2279.677285
_symmetry_space_group_name_H-M "C 2/C"
_symmetry_group_IT_number 15
_symmetry_cell_setting 'monoclinic'
loop_
_space_group_symop_operation_xyz
x,y,z
-x,y,1/2-z
-x,-y,-z
x,-y,1/2+z
1/2+x,1/2+y,z
1/2-x,1/2+y,1/2-z
1/2-x,1/2-y,-z
1/2+x,1/2-y,1/2+z
loop_
_atom_site_type_symbol
_atom_site_label
_atom_site_fract_x
_atom_site_fract_y
_atom_site_fract_z
Si Si1 0.146873 0.005262 0.610106
Si Si2 0.000000 0.220991 0.250000
Si Si3 0.388425 0.187886 0.435369
Si Si4 0.008615 0.439263 0.104870
Si Si5 0.728389 0.563355 0.696178
Si Si6 0.337967 0.172906 0.162562
Si Si7 0.673413 0.990086 0.657926
O O1 0.109992 0.145123 0.598692
O O2 0.177577 0.052338 0.666886
O O3 0.232956 0.947293 0.468326
O O4 0.074348 0.884156 0.700689
O O5 0.043429 0.327609 0.135782
O O6 0.314277 0.160770 0.584411
O O7 0.358207 0.092909 0.389510
O O8 0.470598 0.104977 0.385388
O O9 0.906084 0.411563 0.221843
O O10 0.066955 0.392187 0.963634
O O11 0.672085 0.651000 0.825554
O O12 0.768110 0.408763 0.682232
O O13 0.317421 0.124073 0.277976
#
# Coordination Sequence:
#
# PCOD9268189 Si02
#       7
#     8   4   8   8   8   8   8
#     4  11  24  43  71  94 125 169 226 265 315 384
#     4  12  28  42  62 102 130 168 212 278 330 370
#     4  10  19  43  70  90 124 172 219 260 304 392
#     4  11  25  42  64  98 137 168 212 266 329 383
#     4  10  22  41  64  99 128 170 212 264 322 384
#     4  11  23  39  67  98 135 166 216 265 327 379
#     4  11  20  42  71  93 123 171 222 258 314 388
#
# _framework density 22.810245999999999
#
# number of rings (size 3 to 8) (size 9 to 14) (size 15 to 20)
#    0.000    1.231    4.615    1.385    4.308    1.846 
#    0.000    0.769    0.000    0.000    0.000    0.000 
#    0.000    0.000    0.000    0.000    0.000    0.000 
#
# Total GULP energy -145161.392220 kJ/mol
# GULP energy per Si atom -5583.130470 kJ/mol
# Density = 2.275833 g / cm^3
# Si number density = 22.810246 Si / 1000 Ang^3
#
#
#
# Elastic Constant Matrix: (Units=GPa)
#
#
# Indices 1 2 3 4 5 6 
#
# 1 52.1684 28.6191 29.3969 0.0001 -11.0170 0.0000
# 2 28.6191 76.6341 28.0282 0.0008 -15.8564 -0.0006
# 3 29.3969 28.0282 104.1521 0.0000 -10.3112 -0.0001
# 4 0.0001 0.0008 0.0000 29.3018 0.0000 -0.3992
# 5 -11.0170 -15.8564 -10.3112 0.0000 33.3414 0.0000
# 6 0.0000 -0.0006 -0.0001 -0.3992 0.0000 24.3255
#
#
#
# Elastic Compliance Matrix: (Units=1/GPa)
#
#
# Indices 1 2 3 4 5 6 
#
# 1 0.026971 -0.007367 -0.005255 0.000000 0.003783 0.000000
# 2 -0.007367 0.017687 -0.002155 0.000000 0.005311 0.000000
# 3 -0.005255 -0.002155 0.011751 0.000000 0.000873 0.000000
# 4 0.000000 0.000000 0.000000 0.034135 0.000000 0.000560
# 5 0.003783 0.005311 0.000873 0.000000 0.034038 0.000000
# 6 0.000000 0.000000 0.000000 0.000560 0.000000 0.041118
#
#
# Mechanical properties :
#
#
# Convention : Reuss Voigt Hill
#
# Bulk Modulus (GPa) = 37.23809 45.00476 41.12143
# Shear Modulus (GPa) = 24.48500 27.18777 25.83638
#
# Velocity S-wave (km/s) = 3.27986 3.45615 3.36916
# Velocity P-wave (km/s) = 5.54111 5.97491 5.76210
#
# Compressibility (1/GPa) = 0.02685422
#
# Stress axis : x y z
#
# Youngs Moduli (GPa) = 37.07741 56.53783 85.10002
#
# Poissons Ratio (x) = 0.41654 0.44723
# Poissons Ratio (y) = 0.27316 0.18335
# Poissons Ratio (z) = 0.19485 0.12181
#
# Static dielectric constant tensor:
#      x y z
#    x 1.909700 0.000000 0.010100 
#    y 0.000000 1.874280 0.000000 
#    z 0.010100 0.000000 1.912400 
# 
# From -- ./inp_files/221846.got.cif
#   From: 2010.05.17/outbox.cif.g08.bks.cpg/sg15_111_cif.got.tgz:221846.got - 2010.06.03 18:47:42.
