data_PCOD9268912
_publ_section_title
;
Structure prediction by ZEFSAII (Michael W. Deem and Ramdas Pophale) SiO2 
 PCOD9268912
Probable space group: C 2/C
;
_chemical_formula_sum "Si O2"
_cell_formula_units_Z 64
_cell_length_a 12.437587
_cell_length_b 14.545092
_cell_length_c 33.418985
_cell_angle_alpha 90.000000
_cell_angle_beta 152.932295
_cell_angle_gamma 90.000000
_cell_volume 2751.049200
_symmetry_space_group_name_H-M "C 2/C"
_symmetry_group_IT_number 15
_symmetry_cell_setting 'monoclinic'
loop_
_space_group_symop_operation_xyz
x,y,z
-x,y,1/2-z
-x,-y,-z
x,-y,1/2+z
1/2+x,1/2+y,z
1/2-x,1/2+y,1/2-z
1/2-x,1/2-y,-z
1/2+x,1/2-y,1/2+z
loop_
_atom_site_type_symbol
_atom_site_label
_atom_site_fract_x
_atom_site_fract_y
_atom_site_fract_z
Si Si1 0.448195 0.502140 0.187834
Si Si2 0.179777 0.004500 0.598317
Si Si3 0.633605 0.793080 0.500048
Si Si4 0.066959 0.786634 0.315528
Si Si5 0.500273 0.903478 0.565675
Si Si6 0.095607 0.796625 0.067391
Si Si7 0.413790 0.475690 0.590558
Si Si8 0.929177 0.369889 0.629100
O O1 0.500000 0.537310 0.250000
O O2 0.500448 0.393548 0.204903
O O3 0.544010 0.533874 0.176389
O O4 0.174678 0.534584 0.097011
O O5 0.229578 0.111067 0.624607
O O6 0.389516 0.941824 0.651685
O O7 0.000000 0.000000 0.500000
O O8 0.064028 0.964482 0.600072
O O9 0.750000 0.750000 0.500000
O O10 0.351874 0.786479 0.409919
O O11 0.715754 0.738410 0.566417
O O12 0.717831 0.896877 0.526319
O O13 0.962036 0.722006 0.315441
O O14 0.000000 0.749088 0.250000
O O15 0.566522 0.796248 0.582986
O O16 0.524622 0.920499 0.621348
O O17 0.234854 0.928861 0.463307
O O18 0.828146 0.832467 0.971196
#
# Coordination Sequence:
#
# PCOD9268912 Si02
#       8
#     8   8   8   8   8   8   8   8
#     4  11  25  42  59  89 126 167 209 258 317 377
#     4  10  20  36  57  91 127 149 193 260 314 362
#     4  11  21  35  62  92 123 162 215 261 311 370
#     4  10  22  41  61  88 128 166 211 256 320 379
#     4  12  21  37  62  91 119 155 206 256 303 368
#     4  10  20  33  55  92 119 148 198 259 304 354
#     4  12  20  37  65  89 124 160 206 264 312 359
#     4  10  21  37  59  88 124 154 200 255 309 366
#
# _framework density 23.263850999999999
#
# number of rings (size 3 to 8) (size 9 to 14) (size 15 to 20)
#    0.000    1.250    5.000    4.500    1.750    0.000 
#    4.500    0.000    0.000    0.750    0.000    0.000 
#    0.000    0.000    0.000    0.000    0.000    0.000 
#
# Total GULP energy -178500.434996 kJ/mol
# GULP energy per Si atom -5578.138594 kJ/mol
# Density = 2.321090 g / cm^3
# Si number density = 23.263851 Si / 1000 Ang^3
#
#
#
# Elastic Constant Matrix: (Units=GPa)
#
#
# Indices 1 2 3 4 5 6 
#
# 1 137.1646 7.7824 28.3191 0.0000 -35.8714 0.0000
# 2 7.7824 84.6356 6.1852 0.0000 0.6442 -0.0001
# 3 28.3191 6.1852 47.9506 0.0003 -29.8978 0.0000
# 4 0.0000 0.0000 0.0003 13.4480 0.0002 -20.7278
# 5 -35.8714 0.6442 -29.8978 0.0002 31.6277 0.0001
# 6 0.0000 -0.0001 0.0000 -20.7278 0.0001 26.9924
#
#
#
# Elastic Compliance Matrix: (Units=1/GPa)
#
#
# Indices 1 2 3 4 5 6 
#
# 1 0.010687 -0.001356 0.003503 0.000001 0.015460 0.000001
# 2 -0.001356 0.012326 -0.004639 -0.000001 -0.006174 -0.000001
# 3 0.003503 -0.004639 0.053388 0.000011 0.054535 0.000008
# 4 0.000001 -0.000001 0.000011 -0.404997 0.000015 -0.311002
# 5 0.015460 -0.006174 0.054535 0.000015 0.100830 0.000011
# 6 0.000001 -0.000001 0.000008 -0.311002 0.000011 -0.201775
#
#
# Mechanical properties :
#
#
# Convention : Reuss Voigt Hill
#
# Bulk Modulus (GPa) = 14.00238 39.36934 26.68586
# Shear Modulus (GPa) = -12.47659 29.57792 8.55067
#
# Velocity S-wave (km/s) = -2.31834 3.56955 1.91924
# Velocity P-wave (km/s) = 1.06503 5.82655 4.05058
#
# Compressibility (1/GPa) = 0.07141642
#
# Stress axis : x y z
#
# Youngs Moduli (GPa) = 93.56745 81.12882 18.73093
#
# Poissons Ratio (x) = 0.11004 -0.06561
# Poissons Ratio (y) = 0.12691 0.08689
# Poissons Ratio (z) = -0.32774 0.37634
#
# Static dielectric constant tensor:
#      x y z
#    x 1.845760 0.000000 -0.042150 
#    y 0.000000 1.904460 0.000000 
#    z -0.042150 0.000000 1.964900 
# 
# From -- ./inp_files/293111.got.cif
#   From: 2010.05.17/outbox.cif.g08.bks.cpg/sg15_147_cif.got.tgz:293111.got - 2010.06.03 18:47:42.
