data_PCOD9268551
_publ_section_title
;
Structure prediction by ZEFSAII (Michael W. Deem and Ramdas Pophale) SiO2 
 PCOD9268551
Probable space group: C 2/C
;
_chemical_formula_sum "Si O2"
_cell_formula_units_Z 60
_cell_length_a 17.014546
_cell_length_b 19.777627
_cell_length_c 17.107983
_cell_angle_alpha 90.000000
_cell_angle_beta 145.308502
_cell_angle_gamma 90.000000
_cell_volume 3276.618178
_symmetry_space_group_name_H-M "C 2/C"
_symmetry_group_IT_number 15
_symmetry_cell_setting 'monoclinic'
loop_
_space_group_symop_operation_xyz
x,y,z
-x,y,1/2-z
-x,-y,-z
x,-y,1/2+z
1/2+x,1/2+y,z
1/2-x,1/2+y,1/2-z
1/2-x,1/2-y,-z
1/2+x,1/2-y,1/2+z
loop_
_atom_site_type_symbol
_atom_site_label
_atom_site_fract_x
_atom_site_fract_y
_atom_site_fract_z
Si Si1 0.961088 0.322227 0.531830
Si Si2 0.911131 0.031973 0.040641
Si Si3 0.148913 0.078633 0.138924
Si Si4 0.000000 0.065998 0.750000
Si Si5 0.734071 0.206623 0.346541
Si Si6 0.583476 0.064146 0.036155
Si Si7 0.797249 0.616920 0.031174
Si Si8 0.356579 0.962832 0.095501
O O1 0.097672 0.287906 0.681069
O O2 0.000145 0.366490 0.487718
O O3 0.832051 0.271434 0.421729
O O4 0.908387 0.374329 0.554261
O O5 0.016495 0.082433 0.085977
O O6 0.666892 0.956995 0.905576
O O7 0.862504 0.983636 0.930190
O O8 0.782689 0.066004 0.979782
O O9 0.172903 0.145440 0.109287
O O10 0.280534 0.068793 0.300506
O O11 0.859485 0.109620 0.629998
O O12 0.693839 0.178605 0.400062
O O13 0.500000 0.000000 0.000000
O O14 0.628153 0.051610 0.983642
O O15 0.491782 0.516591 0.668104
O O16 0.500000 0.940612 0.250000
#
# Coordination Sequence:
#
# PCOD9268551 Si02
#       8
#     8   8   8   4   8   8   8   8
#     4  11  25  39  59  85 118 168 199 245 293 355
#     4  10  20  33  56  87 119 151 190 247 296 354
#     4  10  20  37  56  86 119 151 192 239 305 345
#     4  10  20  32  54  92 116 150 196 236 292 358
#     4  11  23  41  57  84 123 163 202 238 296 360
#     4  11  22  37  61  86 117 155 197 249 297 352
#     4  11  21  35  58  84 125 159 193 239 294 358
#     4  11  20  37  58  90 120 149 195 247 303 353
#
# _framework density 18.311561999999999
#
# number of rings (size 3 to 8) (size 9 to 14) (size 15 to 20)
#    0.000    1.333    4.000    4.000    1.867    0.000 
#    4.800    0.000    0.000    0.800    1.733    0.000 
#    0.000    0.000    0.000    0.000    0.000    0.000 
#
# Total GULP energy -167350.080736 kJ/mol
# GULP energy per Si atom -5578.336025 kJ/mol
# Density = 1.826988 g / cm^3
# Si number density = 18.311562 Si / 1000 Ang^3
#
#
#
# Elastic Constant Matrix: (Units=GPa)
#
#
# Indices 1 2 3 4 5 6 
#
# 1 124.9911 8.5278 9.8411 0.0014 7.4567 0.0007
# 2 8.5278 22.2063 3.3282 0.0023 2.6237 0.0014
# 3 9.8411 3.3282 44.7253 0.0030 2.6738 0.0021
# 4 0.0014 0.0023 0.0030 30.6997 0.0024 17.8692
# 5 7.4567 2.6237 2.6738 0.0024 29.8931 0.0015
# 6 0.0007 0.0014 0.0021 17.8692 0.0015 38.1830
#
#
#
# Elastic Compliance Matrix: (Units=1/GPa)
#
#
# Indices 1 2 3 4 5 6 
#
# 1 0.008415 -0.002798 -0.001541 0.000000 -0.001716 0.000000
# 2 -0.002798 0.046884 -0.002683 -0.000003 -0.003177 0.000000
# 3 -0.001541 -0.002683 0.022983 -0.000002 -0.001436 0.000000
# 4 0.000000 -0.000003 -0.000002 0.044769 -0.000002 -0.020951
# 5 -0.001716 -0.003177 -0.001436 -0.000002 0.034288 0.000000
# 6 0.000000 0.000000 0.000000 -0.020951 0.000000 0.035994
#
#
# Mechanical properties :
#
#
# Convention : Reuss Voigt Hill
#
# Bulk Modulus (GPa) = 15.56698 26.14630 20.85664
# Shear Modulus (GPa) = 21.85405 31.10354 26.47880
#
# Velocity S-wave (km/s) = 3.45839 4.12585 3.80678
# Velocity P-wave (km/s) = 4.94641 6.08329 5.54407
#
# Compressibility (1/GPa) = 0.06423853
#
# Stress axis : x y z
#
# Youngs Moduli (GPa) = 118.83344 21.32910 43.50990
#
# Poissons Ratio (x) = 0.05968 0.06704
# Poissons Ratio (y) = 0.33249 0.11675
# Poissons Ratio (z) = 0.18310 0.05723
#
# Static dielectric constant tensor:
#      x y z
#    x 1.658200 0.000000 0.009790 
#    y 0.000000 1.775290 0.000000 
#    z 0.009790 0.000000 1.658830 
# 
# From -- ./inp_files/156370.got.cif
#   From: 2010.05.17/outbox.cif.g08.bks.cpg/sg15_79_cif.got.tgz:156370.got - 2010.06.03 18:47:42.
