data_PCOD9268219
_publ_section_title
;
Structure prediction by ZEFSAII (Michael W. Deem and Ramdas Pophale) SiO2 
 PCOD9268219
Probable space group: C 2/C
;
_chemical_formula_sum "Si O2"
_cell_formula_units_Z 44
_cell_length_a 9.051721
_cell_length_b 29.600166
_cell_length_c 8.759403
_cell_angle_alpha 90.000000
_cell_angle_beta 113.058470
_cell_angle_gamma 90.000000
_cell_volume 2159.421914
_symmetry_space_group_name_H-M "C 2/C"
_symmetry_group_IT_number 15
_symmetry_cell_setting 'monoclinic'
loop_
_space_group_symop_operation_xyz
x,y,z
-x,y,1/2-z
-x,-y,-z
x,-y,1/2+z
1/2+x,1/2+y,z
1/2-x,1/2+y,1/2-z
1/2-x,1/2-y,-z
1/2+x,1/2-y,1/2+z
loop_
_atom_site_type_symbol
_atom_site_label
_atom_site_fract_x
_atom_site_fract_y
_atom_site_fract_z
Si Si1 0.500000 0.826147 0.250000
Si Si2 0.180116 0.030098 0.286097
Si Si3 0.279298 0.436838 0.040521
Si Si4 0.000000 0.650918 0.250000
Si Si5 0.500000 0.637982 0.750000
Si Si6 0.077530 0.401371 0.518059
Si Si7 0.709259 0.204845 0.576501
O O1 0.591831 0.862778 0.395539
O O2 0.400300 0.793188 0.318262
O O3 0.307377 0.055883 0.446745
O O4 0.000000 0.046152 0.250000
O O5 0.185992 0.977204 0.327001
O O6 0.223571 0.040360 0.127810
O O7 0.417338 0.398276 0.100537
O O8 0.108123 0.416315 0.028998
O O9 0.120027 0.621617 0.196660
O O10 0.103133 0.678517 0.410176
O O11 0.354189 0.673907 0.697934
O O12 0.750000 0.250000 0.500000
#
# Coordination Sequence:
#
# PCOD9268219 Si02
#       7
#     4   8   8   4   4   8   8
#     4  10  24  42  75  98 134 174 226 283 352 430
#     4  12  26  38  64 100 141 188 243 290 328 406
#     4  12  25  43  64  95 145 189 234 288 345 403
#     4  10  19  46  67  90 134 176 222 279 345 418
#     4  12  23  44  72  96 136 186 230 290 355 408
#     4  11  22  43  65  94 136 189 236 280 349 407
#     4  11  24  45  75 102 134 175 228 295 364 429
#
# _framework density 20.375823
#
# number of rings (size 3 to 8) (size 9 to 14) (size 15 to 20)
#    0.000    0.727    6.364    1.636    5.091    0.000 
#    0.000    8.182    2.000    0.000    0.000    0.000 
#    0.000    0.000    0.000    0.000    0.000    0.000 
#
# Total GULP energy -122478.941542 kJ/mol
# GULP energy per Si atom -5567.224616 kJ/mol
# Density = 2.032945 g / cm^3
# Si number density = 20.375823 Si / 1000 Ang^3
#
#
#
# Elastic Constant Matrix: (Units=GPa)
#
#
# Indices 1 2 3 4 5 6 
#
# 1 95.2984 54.6506 50.2557 0.0000 1.4096 0.0000
# 2 54.6506 120.9911 35.2708 0.0000 -16.4812 0.0000
# 3 50.2557 35.2708 81.9302 0.0000 -15.1640 0.0000
# 4 0.0000 0.0000 0.0000 16.0260 0.0000 -1.7767
# 5 1.4096 -16.4812 -15.1640 0.0000 30.1246 0.0000
# 6 0.0000 0.0000 0.0000 -1.7767 0.0000 32.8175
#
#
#
# Elastic Compliance Matrix: (Units=1/GPa)
#
#
# Indices 1 2 3 4 5 6 
#
# 1 0.021307 -0.007698 -0.011821 0.000000 -0.011159 0.000000
# 2 -0.007698 0.012568 0.000718 0.000000 0.007597 0.000000
# 3 -0.011821 0.000718 0.021308 0.000000 0.011672 0.000000
# 4 0.000000 0.000000 0.000000 0.062775 0.000000 0.003398
# 5 -0.011159 0.007597 0.011672 0.000000 0.043749 0.000000
# 6 0.000000 0.000000 0.000000 0.003398 0.000000 0.030655
#
#
# Mechanical properties :
#
#
# Convention : Reuss Voigt Hill
#
# Bulk Modulus (GPa) = 56.88350 64.28601 60.58475
# Shear Modulus (GPa) = 21.20216 26.32980 23.76598
#
# Velocity S-wave (km/s) = 3.22926 3.59863 3.41894
# Velocity P-wave (km/s) = 6.47163 6.99181 6.73674
#
# Compressibility (1/GPa) = 0.01757979
#
# Stress axis : x y z
#
# Youngs Moduli (GPa) = 46.93338 79.56736 46.93165
#
# Poissons Ratio (x) = 0.61253 0.55477
# Poissons Ratio (y) = 0.36130 -0.03368
# Poissons Ratio (z) = 0.55479 -0.05711
#
# Static dielectric constant tensor:
#      x y z
#    x 1.817660 0.000000 0.015950 
#    y 0.000000 1.779150 0.000000 
#    z 0.015950 0.000000 1.757300 
# 
# From -- ./inp_files/25770.got.cif
#   From: 2010.05.17/outbox.cif.g08.bks.cpg/sg15_13_cif.got.tgz:25770.got - 2010.06.03 18:47:42.
