data_PCOD9268382
_publ_section_title
;
Structure prediction by ZEFSAII (Michael W. Deem and Ramdas Pophale) SiO2 
 PCOD9268382
Probable space group: C 2/C
;
_chemical_formula_sum "Si O2"
_cell_formula_units_Z 64
_cell_length_a 27.870639
_cell_length_b 17.372638
_cell_length_c 21.653511
_cell_angle_alpha 90.000000
_cell_angle_beta 20.543029
_cell_angle_gamma 90.000000
_cell_volume 3679.066673
_symmetry_space_group_name_H-M "C 2/C"
_symmetry_group_IT_number 15
_symmetry_cell_setting 'monoclinic'
loop_
_space_group_symop_operation_xyz
x,y,z
-x,y,1/2-z
-x,-y,-z
x,-y,1/2+z
1/2+x,1/2+y,z
1/2-x,1/2+y,1/2-z
1/2-x,1/2-y,-z
1/2+x,1/2-y,1/2+z
loop_
_atom_site_type_symbol
_atom_site_label
_atom_site_fract_x
_atom_site_fract_y
_atom_site_fract_z
Si Si1 0.009319 0.507280 0.663968
Si Si2 0.657481 0.324838 0.680330
Si Si3 0.306141 0.545555 0.267932
Si Si4 0.921348 0.926233 0.903429
Si Si5 0.164141 0.653363 0.652664
Si Si6 0.607888 0.149321 0.177029
Si Si7 0.444115 0.551008 0.973409
Si Si8 0.573467 0.324055 0.229226
O O1 0.163619 0.504424 0.454353
O O2 0.000000 0.513029 0.750000
O O3 0.944411 0.585449 0.716655
O O4 0.928310 0.429396 0.743845
O O5 0.693085 0.372842 0.697845
O O6 0.530025 0.368424 0.802945
O O7 0.784129 0.331838 0.479933
O O8 0.622591 0.235565 0.729762
O O9 0.423187 0.491999 0.157500
O O10 0.342147 0.560492 0.153460
O O11 0.000000 0.962776 0.750000
O O12 0.883010 0.991769 0.997472
O O13 0.794511 0.878393 0.032049
O O14 0.500000 0.148380 0.250000
O O15 0.582713 0.233593 0.236424
O O16 0.768478 0.147398 0.965631
O O17 0.493077 0.625707 0.876626
O O18 0.500000 0.329476 0.250000
#
# Coordination Sequence:
#
# PCOD9268382 Si02
#       8
#     8   8   8   8   8   8   8   8
#     4  11  20  33  58  82 113 144 181 228 277 328
#     4   9  19  34  52  81 109 144 183 224 266 329
#     4  10  21  37  56  81 109 151 190 218 270 343
#     4   9  19  32  53  83 107 136 182 226 272 324
#     4  10  20  31  56  82 112 137 179 233 276 311
#     4   9  20  35  56  89 113 138 185 232 286 334
#     4  10  20  36  59  79 110 147 187 225 272 338
#     4  10  20  35  62  87 112 143 185 243 283 333
#
# _framework density 17.395716
#
# number of rings (size 3 to 8) (size 9 to 14) (size 15 to 20)
#    0.000    2.250    1.250    1.875    7.000    0.500 
#    0.000    1.875   11.000    0.000    0.000    0.000 
#    0.000    0.000    0.000    0.000    0.000    0.000 
#
# Total GULP energy -178365.015735 kJ/mol
# GULP energy per Si atom -5573.906742 kJ/mol
# Density = 1.735612 g / cm^3
# Si number density = 17.395716 Si / 1000 Ang^3
#
#
#
# Elastic Constant Matrix: (Units=GPa)
#
#
# Indices 1 2 3 4 5 6 
#
# 1 62.0326 27.0354 28.1282 -0.0004 17.0943 0.0001
# 2 27.0354 118.8756 35.6145 -0.0016 17.7769 -0.0001
# 3 28.1282 35.6145 79.8528 -0.0012 9.0063 -0.0002
# 4 -0.0004 -0.0016 -0.0012 0.0446 0.0005 -0.0423
# 5 17.0943 17.7769 9.0063 0.0005 25.8245 0.0003
# 6 0.0001 -0.0001 -0.0002 -0.0423 0.0003 15.4228
#
#
#
# Elastic Compliance Matrix: (Units=1/GPa)
#
#
# Indices 1 2 3 4 5 6 
#
# 1 0.022815 -0.001619 -0.005972 0.000122 -0.011905 0.000000
# 2 -0.001619 0.010602 -0.003597 0.000330 -0.004971 0.000001
# 3 -0.005972 -0.003597 0.016141 0.000244 0.000800 0.000001
# 4 0.000122 0.000330 0.000244 22.494743 -0.000807 0.061725
# 5 -0.011905 -0.004971 0.000800 -0.000807 0.049746 -0.000003
# 6 0.000000 0.000001 0.000001 0.061725 -0.000003 0.065008
#
#
# Mechanical properties :
#
#
# Convention : Reuss Voigt Hill
#
# Bulk Modulus (GPa) = 36.79082 49.14635 42.96859
# Shear Modulus (GPa) = 0.22036 19.59058 9.90547
#
# Velocity S-wave (km/s) = 0.35630 3.35949 2.38884
# Velocity P-wave (km/s) = 4.62218 6.58495 5.68885
#
# Compressibility (1/GPa) = 0.02718069
#
# Stress axis : x y z
#
# Youngs Moduli (GPa) = 43.83152 94.32563 61.95528
#
# Poissons Ratio (x) = 0.15274 0.36997
# Poissons Ratio (y) = 0.07098 0.22287
# Poissons Ratio (z) = 0.26174 0.33931
#
# Static dielectric constant tensor:
#      x y z
#    x 1.592650 0.000000 -0.013970 
#    y 0.000000 1.607280 0.000000 
#    z -0.013970 0.000000 1.587570 
# 
# From -- ./inp_files/258068.got.cif
#   From: 2010.05.17/outbox.cif.g08.bks.cpg/sg15_130_cif.got.tgz:258068.got - 2010.06.03 18:47:42.
