data_PCOD9268119
_publ_section_title
;
Structure prediction by ZEFSAII (Michael W. Deem and Ramdas Pophale) SiO2 
 PCOD9268119
Probable space group: C 2/C
;
_chemical_formula_sum "Si O2"
_cell_formula_units_Z 40
_cell_length_a 8.929498
_cell_length_b 20.060201
_cell_length_c 14.054009
_cell_angle_alpha 90.000000
_cell_angle_beta 125.150904
_cell_angle_gamma 90.000000
_cell_volume 2058.372180
_symmetry_space_group_name_H-M "C 2/C"
_symmetry_group_IT_number 15
_symmetry_cell_setting 'monoclinic'
loop_
_space_group_symop_operation_xyz
x,y,z
-x,y,1/2-z
-x,-y,-z
x,-y,1/2+z
1/2+x,1/2+y,z
1/2-x,1/2+y,1/2-z
1/2-x,1/2-y,-z
1/2+x,1/2-y,1/2+z
loop_
_atom_site_type_symbol
_atom_site_label
_atom_site_fract_x
_atom_site_fract_y
_atom_site_fract_z
Si Si1 0.452079 0.152936 0.339065
Si Si2 0.318627 0.334300 0.091819
Si Si3 0.398552 0.999376 0.860512
Si Si4 0.000000 0.955319 0.250000
Si Si5 0.500000 0.885563 0.250000
Si Si6 0.304565 0.283811 0.304285
O O1 0.500000 0.174844 0.250000
O O2 0.630323 0.160943 0.469337
O O3 0.290306 0.203890 0.311864
O O4 0.421046 0.074109 0.326246
O O5 0.412774 0.406358 0.139513
O O6 0.285188 0.305177 0.185719
O O7 0.479661 0.295646 0.096546
O O8 0.178814 0.006751 0.782589
O O9 0.475868 0.062713 0.829135
O O10 0.500000 0.000000 0.000000
O O11 0.672762 0.834367 0.312415
#
# Coordination Sequence:
#
# PCOD9268119 Si02
#       6
#     8   8   8   4   4   8
#     4  12  23  38  68  99 130 168 232 278 322 401
#     4  10  19  42  66  86 126 174 210 270 334 389
#     4  12  24  44  66  98 135 175 225 282 331 402
#     4  10  20  43  67  82 128 176 206 266 336 389
#     4  12  22  43  67  96 130 180 218 262 350 395
#     4  10  22  39  66  93 126 174 220 266 332 403
#
# _framework density 19.432832000000001
#
# number of rings (size 3 to 8) (size 9 to 14) (size 15 to 20)
#    0.000    1.200    9.000    0.600    0.000    0.800 
#    3.600    7.000    0.000    0.000    0.000    0.000 
#    0.000    0.000    0.000    0.000    0.000    0.000 
#
# Total GULP energy -111347.588175 kJ/mol
# GULP energy per Si atom -5567.379409 kJ/mol
# Density = 1.938860 g / cm^3
# Si number density = 19.432832 Si / 1000 Ang^3
#
#
#
# Elastic Constant Matrix: (Units=GPa)
#
#
# Indices 1 2 3 4 5 6 
#
# 1 92.1902 60.7199 38.6824 0.0000 17.2135 0.0000
# 2 60.7199 160.2426 41.4086 0.0000 15.5427 0.0000
# 3 38.6824 41.4086 96.5597 0.0000 14.5793 0.0000
# 4 0.0000 0.0000 0.0000 8.2555 0.0000 8.7298
# 5 17.2135 15.5427 14.5793 0.0000 20.4809 0.0000
# 6 0.0000 0.0000 0.0000 8.7298 0.0000 29.7643
#
#
#
# Elastic Compliance Matrix: (Units=1/GPa)
#
#
# Indices 1 2 3 4 5 6 
#
# 1 0.016966 -0.004723 -0.003540 0.000000 -0.008155 0.000000
# 2 -0.004723 0.008574 -0.001570 0.000000 -0.001419 0.000000
# 3 -0.003540 -0.001570 0.013242 0.000000 -0.005259 0.000000
# 4 0.000000 0.000000 0.000000 0.175591 0.000000 -0.051500
# 5 -0.008155 -0.001419 -0.005259 0.000000 0.060501 0.000000
# 6 0.000000 0.000000 0.000000 -0.051500 0.000000 0.048702
#
#
# Mechanical properties :
#
#
# Convention : Reuss Voigt Hill
#
# Bulk Modulus (GPa) = 52.31534 70.06826 61.19180
# Shear Modulus (GPa) = 14.30148 25.57890 19.94019
#
# Velocity S-wave (km/s) = 2.71577 3.63198 3.20677
# Velocity P-wave (km/s) = 6.06741 7.32962 6.72818
#
# Compressibility (1/GPa) = 0.01911485
#
# Stress axis : x y z
#
# Youngs Moduli (GPa) = 58.94159 116.63629 75.51763
#
# Poissons Ratio (x) = 0.55088 0.26733
# Poissons Ratio (y) = 0.27838 0.11859
# Poissons Ratio (z) = 0.20865 0.18316
#
# Static dielectric constant tensor:
#      x y z
#    x 1.858800 0.000000 -0.012080 
#    y 0.000000 1.826010 0.000000 
#    z -0.012080 0.000000 1.656560 
# 
# From -- ./inp_files/77684.got.cif
#   From: 2010.05.17/outbox.cif.g08.bks.cpg/sg15_39_cif.got.tgz:77684.got - 2010.06.03 18:47:42.
