data_PCOD9268769
_publ_section_title
;
Structure prediction by ZEFSAII (Michael W. Deem and Ramdas Pophale) SiO2 
 PCOD9268769
Probable space group: C 2/C
;
_chemical_formula_sum "Si O2"
_cell_formula_units_Z 48
_cell_length_a 14.436086
_cell_length_b 10.702454
_cell_length_c 17.371580
_cell_angle_alpha 90.000000
_cell_angle_beta 123.711587
_cell_angle_gamma 90.000000
_cell_volume 2232.610394
_symmetry_space_group_name_H-M "C 2/C"
_symmetry_group_IT_number 15
_symmetry_cell_setting 'monoclinic'
loop_
_space_group_symop_operation_xyz
x,y,z
-x,y,1/2-z
-x,-y,-z
x,-y,1/2+z
1/2+x,1/2+y,z
1/2-x,1/2+y,1/2-z
1/2-x,1/2-y,-z
1/2+x,1/2-y,1/2+z
loop_
_atom_site_type_symbol
_atom_site_label
_atom_site_fract_x
_atom_site_fract_y
_atom_site_fract_z
Si Si1 0.000000 0.912319 0.750000
Si Si2 0.645526 0.879248 0.063175
Si Si3 0.574568 0.628575 0.585294
Si Si4 0.500000 0.848568 0.750000
Si Si5 0.373295 0.370094 0.108788
Si Si6 0.409610 0.894371 0.865937
Si Si7 0.574604 0.645092 0.121698
O O1 0.951158 0.839108 0.800287
O O2 0.909168 0.008207 0.673751
O O3 0.741461 0.872405 0.043837
O O4 0.643282 0.757085 0.116007
O O5 0.660155 0.999396 0.124595
O O6 0.527046 0.890050 0.966351
O O7 0.452926 0.627408 0.571554
O O8 0.634632 0.752216 0.644585
O O9 0.542164 0.641914 0.480953
O O10 0.624315 0.493927 0.629695
O O11 0.588957 0.753343 0.828317
O O12 0.440696 0.920566 0.791977
#
# Coordination Sequence:
#
# PCOD9268769 Si02
#       7
#     4   8   8   4   8   8   8
#     4   9  18  33  50  72 106 136 164 212 256 288
#     4  10  20  33  52  77 104 133 165 206 257 305
#     4   8  16  33  54  70  94 133 170 201 243 301
#     4   9  18  33  52  72  98 134 174 210 242 292
#     4   9  18  33  53  75  99 133 174 209 246 296
#     4   9  19  34  52  74 106 134 161 208 260 297
#     4   9  17  30  52  74  95 128 169 204 243 295
#
# _framework density 21.499496000000001
#
# number of rings (size 3 to 8) (size 9 to 14) (size 15 to 20)
#    0.000    3.000    0.000    1.000    0.000    8.000 
#    0.000    0.000    0.000   57.000    0.000    0.000 
#    0.000    0.000    0.000    0.000    0.000    0.000 
#
# Total GULP energy -133856.630596 kJ/mol
# GULP energy per Si atom -5577.359608 kJ/mol
# Density = 2.145056 g / cm^3
# Si number density = 21.499496 Si / 1000 Ang^3
#
#
#
# Elastic Constant Matrix: (Units=GPa)
#
#
# Indices 1 2 3 4 5 6 
#
# 1 56.1004 32.3505 12.8290 0.0000 -8.4855 0.0000
# 2 32.3505 114.0237 7.4716 0.0000 -15.0485 0.0000
# 3 12.8290 7.4716 69.0609 0.0000 -32.8144 0.0000
# 4 0.0000 0.0000 0.0000 18.3265 0.0000 -18.9835
# 5 -8.4855 -15.0485 -32.8144 0.0000 36.3977 0.0000
# 6 0.0000 0.0000 0.0000 -18.9835 0.0000 5.3737
#
#
#
# Elastic Compliance Matrix: (Units=1/GPa)
#
#
# Indices 1 2 3 4 5 6 
#
# 1 0.022114 -0.006134 -0.003848 0.000000 -0.000850 0.000000
# 2 -0.006134 0.011059 0.002512 0.000000 0.005407 0.000000
# 3 -0.003848 0.002512 0.026224 0.000000 0.023784 0.000000
# 4 0.000000 0.000000 0.000000 -0.020519 0.000000 -0.072486
# 5 -0.000850 0.005407 0.023784 0.000000 0.050954 0.000000
# 6 0.000000 0.000000 0.000000 -0.072486 0.000000 -0.069977
#
#
# Mechanical properties :
#
#
# Convention : Reuss Voigt Hill
#
# Bulk Modulus (GPa) = 22.49349 38.27637 30.38493
# Shear Modulus (GPa) = 100.77646 24.45517 62.61582
#
# Velocity S-wave (km/s) = 6.85388 3.37631 5.40255
# Velocity P-wave (km/s) = 8.55098 5.74816 7.28562
#
# Compressibility (1/GPa) = 0.04445731
#
# Stress axis : x y z
#
# Youngs Moduli (GPa) = 45.22053 90.42009 38.13312
#
# Poissons Ratio (x) = 0.55465 0.14674
# Poissons Ratio (y) = 0.27739 -0.09580
# Poissons Ratio (z) = 0.17402 -0.22717
#
# Static dielectric constant tensor:
#      x y z
#    x 1.764860 0.000000 -0.001650 
#    y 0.000000 1.830300 0.000000 
#    z -0.001650 0.000000 1.844530 
# 
# From -- ./inp_files/181735.got.cif
#   From: 2010.05.17/outbox.cif.g08.bks.cpg/sg15_91_cif.got.tgz:181735.got - 2010.06.03 18:47:42.
