data_PCOD9268810
_publ_section_title
;
Structure prediction by ZEFSAII (Michael W. Deem and Ramdas Pophale) SiO2 
 PCOD9268810
Probable space group: C 2/C
;
_chemical_formula_sum "Si O2"
_cell_formula_units_Z 64
_cell_length_a 30.271208
_cell_length_b 13.946423
_cell_length_c 9.561531
_cell_angle_alpha 90.000000
_cell_angle_beta 62.138686
_cell_angle_gamma 90.000000
_cell_volume 3568.718267
_symmetry_space_group_name_H-M "C 2/C"
_symmetry_group_IT_number 15
_symmetry_cell_setting 'monoclinic'
loop_
_space_group_symop_operation_xyz
x,y,z
-x,y,1/2-z
-x,-y,-z
x,-y,1/2+z
1/2+x,1/2+y,z
1/2-x,1/2+y,1/2-z
1/2-x,1/2-y,-z
1/2+x,1/2-y,1/2+z
loop_
_atom_site_type_symbol
_atom_site_label
_atom_site_fract_x
_atom_site_fract_y
_atom_site_fract_z
Si Si1 0.280654 0.448041 0.786920
Si Si2 0.033869 0.380693 0.336621
Si Si3 0.331751 0.052833 0.141203
Si Si4 0.362708 0.215511 0.884121
Si Si5 0.292057 0.775270 0.221462
Si Si6 0.643938 0.111149 0.084816
Si Si7 0.462321 0.897832 0.678339
Si Si8 0.693346 0.607447 0.943775
O O1 0.224265 0.472450 0.823966
O O2 0.289494 0.339466 0.722816
O O3 0.314574 0.527323 0.661778
O O4 0.287581 0.444304 0.943004
O O5 0.082290 0.315450 0.245125
O O6 0.049861 0.491228 0.345955
O O7 0.000000 0.383576 0.250000
O O8 0.994776 0.348665 0.511410
O O9 0.335341 0.065308 0.301967
O O10 0.347849 0.148878 0.037005
O O11 0.364673 0.969548 0.021810
O O12 0.325180 0.197425 0.809072
O O13 0.352781 0.324747 0.945407
O O14 0.237642 0.821067 0.327129
O O15 0.318249 0.815425 0.043672
O O16 0.589694 0.150986 0.205701
O O17 0.500000 0.903562 0.750000
#
# Coordination Sequence:
#
# PCOD9268810 Si02
#       8
#     8   8   8   8   8   8   8   8
#     4  11  22  38  53  80 115 142 188 225 261 325
#     4  10  20  33  53  77 106 139 180 225 268 322
#     4  12  21  33  52  78 113 146 186 221 260 324
#     4  11  20  38  58  77 110 150 182 222 273 332
#     4  11  22  37  55  82 109 151 185 220 270 326
#     4  12  24  32  53  80 110 154 184 218 274 317
#     4  10  21  33  49  77 108 142 179 222 267 320
#     4  11  22  37  57  81 110 150 184 222 275 320
#
# _framework density 17.933610000000002
#
# number of rings (size 3 to 8) (size 9 to 14) (size 15 to 20)
#    0.000    1.000    5.000    3.750    3.500    1.500 
#    0.000    0.000    0.000    0.000    0.000    8.750 
#    0.000    0.000    0.000    0.000    0.000    0.000 
#
# Total GULP energy -178710.853928 kJ/mol
# GULP energy per Si atom -5584.714185 kJ/mol
# Density = 1.789279 g / cm^3
# Si number density = 17.933610 Si / 1000 Ang^3
#
#
#
# Elastic Constant Matrix: (Units=GPa)
#
#
# Indices 1 2 3 4 5 6 
#
# 1 39.8956 8.5673 18.9634 0.0000 -16.4335 0.0000
# 2 8.5673 65.7077 34.3884 0.0000 -6.5159 0.0000
# 3 18.9634 34.3884 122.0055 0.0000 -10.2350 0.0000
# 4 0.0000 0.0000 0.0000 35.3843 0.0000 -6.0487
# 5 -16.4335 -6.5159 -10.2350 0.0000 24.1332 0.0000
# 6 0.0000 0.0000 0.0000 -6.0487 0.0000 20.3754
#
#
#
# Elastic Compliance Matrix: (Units=1/GPa)
#
#
# Indices 1 2 3 4 5 6 
#
# 1 0.036406 -0.000595 -0.003551 0.000000 0.023124 0.000000
# 2 -0.000595 0.018044 -0.004789 0.000000 0.002436 0.000000
# 3 -0.003551 -0.004789 0.010148 0.000000 0.000593 0.000000
# 4 0.000000 0.000000 0.000000 0.029772 0.000000 0.008838
# 5 0.023124 0.002436 0.000593 0.000000 0.058092 0.000000
# 6 0.000000 0.000000 0.000000 0.008838 0.000000 0.051703
#
#
# Mechanical properties :
#
#
# Convention : Reuss Voigt Hill
#
# Bulk Modulus (GPa) = 21.40057 39.04967 30.22512
# Shear Modulus (GPa) = 21.04270 27.02456 24.03363
#
# Velocity S-wave (km/s) = 3.42916 3.88612 3.66477
# Velocity P-wave (km/s) = 5.25718 6.47748 5.89897
#
# Compressibility (1/GPa) = 0.04672773
#
# Stress axis : x y z
#
# Youngs Moduli (GPa) = 27.46780 55.41864 98.54280
#
# Poissons Ratio (x) = 0.03299 0.34993
# Poissons Ratio (y) = 0.01635 0.47194
# Poissons Ratio (z) = 0.09754 0.26541
#
# Static dielectric constant tensor:
#      x y z
#    x 1.611140 0.000000 -0.016190 
#    y 0.000000 1.633800 0.000000 
#    z -0.016190 0.000000 1.641510 
# 
# From -- ./inp_files/69928.got.cif
#   From: 2010.05.17/outbox.cif.g08.bks.cpg/sg15_35_cif.got.tgz:69928.got - 2010.06.03 18:47:42.
