data_PCOD9268160
_publ_section_title
;
Structure prediction by ZEFSAII (Michael W. Deem and Ramdas Pophale) SiO2 
 PCOD9268160
Probable space group: C 2/C
;
_chemical_formula_sum "Si O2"
_cell_formula_units_Z 40
_cell_length_a 9.751477
_cell_length_b 15.545833
_cell_length_c 11.779369
_cell_angle_alpha 90.000000
_cell_angle_beta 102.881326
_cell_angle_gamma 90.000000
_cell_volume 1740.752594
_symmetry_space_group_name_H-M "C 2/C"
_symmetry_group_IT_number 15
_symmetry_cell_setting 'monoclinic'
loop_
_space_group_symop_operation_xyz
x,y,z
-x,y,1/2-z
-x,-y,-z
x,-y,1/2+z
1/2+x,1/2+y,z
1/2-x,1/2+y,1/2-z
1/2-x,1/2-y,-z
1/2+x,1/2-y,1/2+z
loop_
_atom_site_type_symbol
_atom_site_label
_atom_site_fract_x
_atom_site_fract_y
_atom_site_fract_z
Si Si1 0.312631 0.818260 0.166736
Si Si2 0.448098 0.280634 0.892696
Si Si3 0.039140 0.030107 0.379445
Si Si4 0.366337 0.937415 0.983381
Si Si5 0.532845 0.767586 0.626341
O O1 0.389621 0.746956 0.102032
O O2 0.366530 0.787629 0.299407
O O3 0.353635 0.906033 0.112750
O O4 0.147949 0.807314 0.138752
O O5 0.449971 0.379412 0.857716
O O6 0.414610 0.263716 0.017066
O O7 0.210135 0.034630 0.415950
O O8 0.000000 0.986662 0.250000
O O9 0.000000 0.000000 0.500000
O O10 0.406068 0.855710 0.912836
O O11 0.500000 0.000000 0.000000
O O12 0.500000 0.780648 0.750000
#
# Coordination Sequence:
#
# PCOD9268160 Si02
#       5
#     8   8   8   8   8
#     4  10  19  43  76  96 131 193 241 291 368 446
#     4  10  19  42  74  94 131 192 244 284 364 444
#     4  12  25  48  73 106 153 204 244 308 382 458
#     4  11  24  47  72 107 149 189 244 317 385 442
#     4  11  22  40  70 103 137 182 241 304 364 454
#
# _framework density 22.978567999999999
#
# number of rings (size 3 to 8) (size 9 to 14) (size 15 to 20)
#    0.000    1.200    6.000    1.200    0.000    4.800 
#   21.600    0.000    0.000    0.000    0.000    0.000 
#    0.000    0.000    0.000    0.000    0.000    0.000 
#
# Total GULP energy -111436.936694 kJ/mol
# GULP energy per Si atom -5571.846835 kJ/mol
# Density = 2.292627 g / cm^3
# Si number density = 22.978568 Si / 1000 Ang^3
#
#
#
# Elastic Constant Matrix: (Units=GPa)
#
#
# Indices 1 2 3 4 5 6 
#
# 1 105.5102 39.2978 57.1661 0.0000 7.8964 0.0000
# 2 39.2978 55.8958 42.9614 0.0000 -1.5061 0.0000
# 3 57.1661 42.9614 235.1775 0.0000 -3.4267 0.0000
# 4 0.0000 0.0000 0.0000 24.1384 0.0000 -2.3065
# 5 7.8964 -1.5061 -3.4267 0.0000 30.9101 0.0000
# 6 0.0000 0.0000 0.0000 -2.3065 0.0000 20.8509
#
#
#
# Elastic Compliance Matrix: (Units=1/GPa)
#
#
# Indices 1 2 3 4 5 6 
#
# 1 0.013985 -0.008475 -0.001912 0.000000 -0.004198 0.000000
# 2 -0.008475 0.025960 -0.002636 0.000000 0.003138 0.000000
# 3 -0.001912 -0.002636 0.005212 0.000000 0.000938 0.000000
# 4 0.000000 0.000000 0.000000 0.041870 0.000000 0.004632
# 5 -0.004198 0.003138 0.000938 0.000000 0.033681 0.000000
# 6 0.000000 0.000000 0.000000 0.004632 0.000000 0.048472
#
#
# Mechanical properties :
#
#
# Convention : Reuss Voigt Hill
#
# Bulk Modulus (GPa) = 52.33185 75.04823 63.69004
# Shear Modulus (GPa) = 24.80190 32.32378 28.56284
#
# Velocity S-wave (km/s) = 3.28891 3.75466 3.52947
# Velocity P-wave (km/s) = 6.10297 7.17827 6.66235
#
# Compressibility (1/GPa) = 0.01910882
#
# Stress axis : x y z
#
# Youngs Moduli (GPa) = 71.50698 38.52095 191.85742
#
# Poissons Ratio (x) = 0.32648 0.36688
# Poissons Ratio (y) = 0.60604 0.50581
# Poissons Ratio (z) = 0.13674 0.10156
#
# Static dielectric constant tensor:
#      x y z
#    x 1.934040 0.000000 0.045600 
#    y 0.000000 1.908550 0.000000 
#    z 0.045600 0.000000 2.001440 
# 
# From -- ./inp_files/85716.got.cif
#   From: 2010.05.17/outbox.cif.g08.bks.cpg/sg15_43_cif.got.tgz:85716.got - 2010.06.03 18:47:42.
