data_PCOD9268633
_publ_section_title
;
Structure prediction by ZEFSAII (Michael W. Deem and Ramdas Pophale) SiO2 
 PCOD9268633
Probable space group: C 2/C
;
_chemical_formula_sum "Si O2"
_cell_formula_units_Z 44
_cell_length_a 30.949517
_cell_length_b 8.143443
_cell_length_c 9.334991
_cell_angle_alpha 90.000000
_cell_angle_beta 66.097406
_cell_angle_gamma 90.000000
_cell_volume 2150.968124
_symmetry_space_group_name_H-M "C 2/C"
_symmetry_group_IT_number 15
_symmetry_cell_setting 'monoclinic'
loop_
_space_group_symop_operation_xyz
x,y,z
-x,y,1/2-z
-x,-y,-z
x,-y,1/2+z
1/2+x,1/2+y,z
1/2-x,1/2+y,1/2-z
1/2-x,1/2-y,-z
1/2+x,1/2-y,1/2+z
loop_
_atom_site_type_symbol
_atom_site_label
_atom_site_fract_x
_atom_site_fract_y
_atom_site_fract_z
Si Si1 0.305384 0.719673 0.438731
Si Si2 0.892335 0.543919 0.850244
Si Si3 0.096019 0.161813 0.725097
Si Si4 0.345852 0.481431 0.616107
Si Si5 0.500000 0.649654 0.750000
Si Si6 0.047919 0.590265 0.979897
O O1 0.250000 0.750000 0.500000
O O2 0.312795 0.598293 0.564115
O O3 0.321504 0.635255 0.266996
O O4 0.340317 0.876240 0.419605
O O5 0.899032 0.359250 0.779672
O O6 0.923584 0.648845 0.697166
O O7 0.918443 0.524353 0.966959
O O8 0.125235 0.113975 0.544037
O O9 0.043811 0.080211 0.780932
O O10 0.119761 0.092728 0.835181
O O11 0.529651 0.762400 0.601529
O O12 0.000000 0.500000 0.000000
#
# Coordination Sequence:
#
# PCOD9268633 Si02
#       6
#     8   8   8   8   4   8
#     4  11  25  44  67  94 121 169 216 264 329 377
#     4  11  22  37  64  90 122 161 212 266 299 375
#     4  10  21  40  61  90 127 166 206 255 317 373
#     4  10  24  43  61  88 133 162 199 269 325 376
#     4  10  20  32  60  86 126 160 216 244 308 388
#     4  11  18  33  56  96 121 153 206 266 308 362
#
# _framework density 20.455904
#
# number of rings (size 3 to 8) (size 9 to 14) (size 15 to 20)
#    0.000    1.455    3.636    3.273    0.000    5.091 
#    0.000    3.636    0.000    0.000    0.000    0.000 
#    0.000    0.000    0.000    0.000    0.000    0.000 
#
# Total GULP energy -122667.577182 kJ/mol
# GULP energy per Si atom -5575.798963 kJ/mol
# Density = 2.040935 g / cm^3
# Si number density = 20.455904 Si / 1000 Ang^3
#
#
#
# Elastic Constant Matrix: (Units=GPa)
#
#
# Indices 1 2 3 4 5 6 
#
# 1 187.2250 30.6588 58.6085 0.0000 -4.2621 0.0000
# 2 30.6588 40.3643 14.1457 0.0000 3.9723 0.0000
# 3 58.6085 14.1457 86.4959 0.0000 25.9072 0.0000
# 4 0.0000 0.0000 0.0000 13.3338 0.0000 1.4454
# 5 -4.2621 3.9723 25.9072 0.0000 37.5883 0.0000
# 6 0.0000 0.0000 0.0000 1.4454 0.0000 22.8101
#
#
#
# Elastic Compliance Matrix: (Units=1/GPa)
#
#
# Indices 1 2 3 4 5 6 
#
# 1 0.008327 -0.004569 -0.006707 0.000000 0.006049 0.000000
# 2 -0.004569 0.028790 -0.000688 0.000000 -0.003087 0.000000
# 3 -0.006707 -0.000688 0.020697 0.000000 -0.014953 0.000000
# 4 0.000000 0.000000 0.000000 0.075516 0.000000 -0.004785
# 5 0.006049 -0.003087 -0.014953 0.000000 0.037922 0.000000
# 6 0.000000 0.000000 0.000000 -0.004785 0.000000 0.044144
#
#
# Mechanical properties :
#
#
# Convention : Reuss Voigt Hill
#
# Bulk Modulus (GPa) = 29.51104 57.87902 43.69503
# Shear Modulus (GPa) = 19.95077 28.79126 24.37101
#
# Velocity S-wave (km/s) = 3.12638 3.75571 3.45540
# Velocity P-wave (km/s) = 5.24312 6.86754 6.10956
#
# Compressibility (1/GPa) = 0.03388563
#
# Stress axis : x y z
#
# Youngs Moduli (GPa) = 120.09754 34.73449 48.31720
#
# Poissons Ratio (x) = 0.15872 0.32404
# Poissons Ratio (y) = 0.54878 0.03322
# Poissons Ratio (z) = 0.80545 0.02388
#
# Static dielectric constant tensor:
#      x y z
#    x 1.814650 0.000000 0.007880 
#    y 0.000000 2.213050 0.000000 
#    z 0.007880 0.000000 1.699110 
# 
# From -- ./inp_files/68508.got.cif
#   From: 2010.05.17/outbox.cif.g08.bks.cpg/sg15_35_cif.got.tgz:68508.got - 2010.06.03 18:47:42.
