data_PCOD9268962
_publ_section_title
;
Structure prediction by ZEFSAII (Michael W. Deem and Ramdas Pophale) SiO2 
 PCOD9268962
Probable space group: C 2/C
;
_chemical_formula_sum "Si O2"
_cell_formula_units_Z 32
_cell_length_a 11.281241
_cell_length_b 18.685706
_cell_length_c 8.141587
_cell_angle_alpha 90.000000
_cell_angle_beta 48.583781
_cell_angle_gamma 90.000000
_cell_volume 1287.041693
_symmetry_space_group_name_H-M "C 2/C"
_symmetry_group_IT_number 15
_symmetry_cell_setting 'monoclinic'
loop_
_space_group_symop_operation_xyz
x,y,z
-x,y,1/2-z
-x,-y,-z
x,-y,1/2+z
1/2+x,1/2+y,z
1/2-x,1/2+y,1/2-z
1/2-x,1/2-y,-z
1/2+x,1/2-y,1/2+z
loop_
_atom_site_type_symbol
_atom_site_label
_atom_site_fract_x
_atom_site_fract_y
_atom_site_fract_z
Si Si1 0.927109 0.707422 0.133226
Si Si2 0.662097 0.484404 0.013839
Si Si3 0.926269 0.156692 0.002077
Si Si4 0.617758 0.932633 0.399416
O O1 0.000000 0.710416 0.250000
O O2 0.742926 0.694315 0.325643
O O3 0.957545 0.785067 0.024036
O O4 0.020219 0.640180 0.970841
O O5 0.500000 0.501814 0.250000
O O6 0.785978 0.441914 0.018368
O O7 0.614457 0.425343 0.919516
O O8 0.752348 0.552117 0.858440
O O9 0.000000 0.148381 0.750000
O O10 0.500000 0.000000 0.500000
#
# Coordination Sequence:
#
# PCOD9268962 Si02
#       4
#     8   8   8   8
#     4  11  19  34  57  90 120 155 198 255 306 346
#     4  11  24  40  61  92 122 161 206 253 304 362
#     4  10  20  33  57  88 122 151 201 258 300 347
#     4  12  22  40  61  91 127 162 202 248 311 368
#
# _framework density 24.863222
#
# number of rings (size 3 to 8) (size 9 to 14) (size 15 to 20)
#    0.000    1.000    5.000    4.500    3.500    0.000 
#    0.000    0.000    0.000    1.500    0.000    0.000 
#    0.000    0.000    0.000    0.000    0.000    0.000 
#
# Total GULP energy -89395.368409 kJ/mol
# GULP energy per Si atom -5587.210526 kJ/mol
# Density = 2.480663 g / cm^3
# Si number density = 24.863222 Si / 1000 Ang^3
#
#
#
# Elastic Constant Matrix: (Units=GPa)
#
#
# Indices 1 2 3 4 5 6 
#
# 1 53.7832 24.4591 17.0685 0.0000 -19.1466 0.0000
# 2 24.4591 129.0420 54.9911 0.0000 -10.5729 0.0000
# 3 17.0685 54.9911 143.6174 0.0000 -39.6856 0.0000
# 4 0.0000 0.0000 0.0000 35.9820 0.0000 -5.1729
# 5 -19.1466 -10.5729 -39.6856 0.0000 22.1945 0.0000
# 6 0.0000 0.0000 0.0000 -5.1729 0.0000 15.6227
#
#
#
# Elastic Compliance Matrix: (Units=1/GPa)
#
#
# Indices 1 2 3 4 5 6 
#
# 1 0.035918 -0.008080 0.012500 0.000000 0.049487 0.000000
# 2 -0.008080 0.011244 -0.007494 0.000000 -0.015014 0.000000
# 3 0.012500 -0.007494 0.020439 0.000000 0.043760 0.000000
# 4 0.000000 0.000000 0.000000 0.029181 0.000000 0.009662
# 5 0.049487 -0.015014 0.043760 0.000000 0.158841 0.000000
# 6 0.000000 0.000000 0.000000 0.009662 0.000000 0.067208
#
#
# Mechanical properties :
#
#
# Convention : Reuss Voigt Hill
#
# Bulk Modulus (GPa) = 16.27261 57.71997 36.99629
# Shear Modulus (GPa) = 14.30760 30.08811 22.19786
#
# Velocity S-wave (km/s) = 2.40146 3.48249 2.99122
# Velocity P-wave (km/s) = 3.77471 6.27978 5.18093
#
# Compressibility (1/GPa) = 0.06145298
#
# Stress axis : x y z
#
# Youngs Moduli (GPa) = 27.84105 88.93359 48.92649
#
# Poissons Ratio (x) = 0.71860 -0.61158
# Poissons Ratio (y) = 0.22496 0.36665
# Poissons Ratio (z) = -0.34801 0.66646
#
# Static dielectric constant tensor:
#      x y z
#    x 2.081000 0.000000 0.026670 
#    y 0.000000 2.076210 0.000000 
#    z 0.026670 0.000000 1.956550 
# 
# From -- ./inp_files/28866.got.cif
#   From: 2010.05.17/outbox.cif.g08.bks.cpg/sg15_15_cif.got.tgz:28866.got - 2010.06.03 18:47:42.
