data_PCOD9268248
_publ_section_title
;
Structure prediction by ZEFSAII (Michael W. Deem and Ramdas Pophale) SiO2 
 PCOD9268248
Probable space group: C 2/C
;
_chemical_formula_sum "Si O2"
_cell_formula_units_Z 56
_cell_length_a 23.096842
_cell_length_b 23.670200
_cell_length_c 7.653851
_cell_angle_alpha 90.000000
_cell_angle_beta 109.352714
_cell_angle_gamma 90.000000
_cell_volume 3947.978811
_symmetry_space_group_name_H-M "C 2/C"
_symmetry_group_IT_number 15
_symmetry_cell_setting 'monoclinic'
loop_
_space_group_symop_operation_xyz
x,y,z
-x,y,1/2-z
-x,-y,-z
x,-y,1/2+z
1/2+x,1/2+y,z
1/2-x,1/2+y,1/2-z
1/2-x,1/2-y,-z
1/2+x,1/2-y,1/2+z
loop_
_atom_site_type_symbol
_atom_site_label
_atom_site_fract_x
_atom_site_fract_y
_atom_site_fract_z
Si Si1 0.886601 0.640991 0.431132
Si Si2 0.570961 0.728774 0.117539
Si Si3 0.795200 0.334194 0.545198
Si Si4 1.000000 0.565854 0.958978
Si Si5 0.570960 0.728774 0.524385
Si Si6 0.661212 0.297097 0.411214
Si Si7 0.113400 0.640991 0.657933
O O1 0.938466 0.597411 0.418773
O O2 0.915568 0.703951 0.446739
O O3 0.872858 0.631273 0.622856
O O4 0.827329 0.639862 0.248581
O O5 0.579738 0.714002 0.329740
O O6 0.584433 0.796049 0.115606
O O7 0.500000 0.718924 0.999091
O O8 0.618185 0.697735 0.037680
O O9 0.721775 0.335293 0.471774
O O10 0.814762 0.267926 0.564760
O O11 0.827328 0.360138 0.406072
O O12 0.000000 0.573610 0.750000
O O13 0.938465 0.597411 0.958157
O O14 0.000000 0.500000 0.000000
O O15 0.618184 0.697735 0.698694
#
# Coordination Sequence:
#
# PCOD9268248 Si02
#       7
#     8   8   8   8   8   8   8
#     4   9  17  29  41  54  74 102 135 168 209 250
#     4   9  15  25  41  56  76 105 133 163 202 239
#     4   9  18  27  40  53  76 103 132 165 214 242
#     4  10  20  30  42  62  80  98 138 187 221 246
#     4   9  15  25  41  56  76 105 133 163 202 239
#     4   9  17  26  35  60  76  96 137 174 191 243
#     4   9  17  29  41  54  74 102 135 168 209 250
#
# _framework density 14.184474
#
# number of rings (size 3 to 8) (size 9 to 14) (size 15 to 20)
#    0.000    2.857    1.429    0.429    2.000    1.143 
#    0.000    5.714    0.000    0.000    0.000    0.000 
#    0.000    0.000    0.000    0.000    0.000    5.714 
#
# Total GULP energy -155930.211888 kJ/mol
# GULP energy per Si atom -5568.936139 kJ/mol
# Density = 1.415219 g / cm^3
# Si number density = 14.184474 Si / 1000 Ang^3
#
#
#
# Elastic Constant Matrix: (Units=GPa)
#
#
# Indices 1 2 3 4 5 6 
#
# 1 135.8175 32.0257 79.5560 0.0000 13.7031 0.0000
# 2 32.0257 28.9866 24.8489 0.0000 5.3348 0.0000
# 3 79.5560 24.8489 97.7282 0.0000 14.6087 0.0000
# 4 0.0000 0.0000 0.0000 10.9142 0.0000 -0.6063
# 5 13.7031 5.3348 14.6087 0.0000 18.2388 0.0000
# 6 0.0000 0.0000 0.0000 -0.6063 0.0000 10.0987
#
#
#
# Elastic Compliance Matrix: (Units=1/GPa)
#
#
# Indices 1 2 3 4 5 6 
#
# 1 0.015419 -0.007957 -0.010388 0.000000 -0.000936 0.000000
# 2 -0.007957 0.048542 -0.005267 0.000000 -0.004001 0.000000
# 3 -0.010388 -0.005267 0.021165 0.000000 -0.007607 0.000000
# 4 0.000000 0.000000 0.000000 0.091931 0.000000 0.005519
# 5 -0.000936 -0.004001 -0.007607 0.000000 0.062795 0.000000
# 6 0.000000 0.000000 0.000000 0.005519 0.000000 0.099354
#
#
# Mechanical properties :
#
#
# Convention : Reuss Voigt Hill
#
# Bulk Modulus (GPa) = 26.38458 59.48819 42.93638
# Shear Modulus (GPa) = 12.52931 16.25711 14.39321
#
# Velocity S-wave (km/s) = 2.97528 3.38911 3.18892
# Velocity P-wave (km/s) = 5.51765 7.57263 6.62530
#
# Compressibility (1/GPa) = 0.03790093
#
# Stress axis : x y z
#
# Youngs Moduli (GPa) = 64.85619 20.60089 47.24677
#
# Poissons Ratio (x) = 0.16393 0.49082
# Poissons Ratio (y) = 0.51609 0.24883
# Poissons Ratio (z) = 0.67375 0.10849
#
# Static dielectric constant tensor:
#      x y z
#    x 1.472440 0.000000 -0.013870 
#    y 0.000000 1.435020 0.000000 
#    z -0.013870 0.000000 1.491100 
# 
# From -- ./inp_files/57579.got.cif
#   From: 2010.05.17/outbox.cif.g08.bks.cpg/sg15_29_cif.got.tgz:57579.got - 2010.06.03 18:47:42.
