data_PCOD9268832
_publ_section_title
;
Structure prediction by ZEFSAII (Michael W. Deem and Ramdas Pophale) SiO2 
 PCOD9268832
Probable space group: C 2/C
;
_chemical_formula_sum "Si O2"
_cell_formula_units_Z 40
_cell_length_a 18.110268
_cell_length_b 5.268130
_cell_length_c 28.154526
_cell_angle_alpha 90.000000
_cell_angle_beta 141.502686
_cell_angle_gamma 90.000000
_cell_volume 1672.066520
_symmetry_space_group_name_H-M "C 2/C"
_symmetry_group_IT_number 15
_symmetry_cell_setting 'monoclinic'
loop_
_space_group_symop_operation_xyz
x,y,z
-x,y,1/2-z
-x,-y,-z
x,-y,1/2+z
1/2+x,1/2+y,z
1/2-x,1/2+y,1/2-z
1/2-x,1/2-y,-z
1/2+x,1/2-y,1/2+z
loop_
_atom_site_type_symbol
_atom_site_label
_atom_site_fract_x
_atom_site_fract_y
_atom_site_fract_z
Si Si1 0.090284 0.913708 0.702662
Si Si2 0.455484 0.090534 0.280545
Si Si3 0.156521 0.741899 0.911490
Si Si4 0.599314 0.234496 0.600336
Si Si5 0.658313 0.262237 0.076058
O O1 0.113957 0.678324 0.749664
O O2 0.947013 0.944914 0.633770
O O3 0.118050 0.821531 0.663913
O O4 0.125424 0.190323 0.738004
O O5 0.500000 0.148034 0.250000
O O6 0.575665 0.011537 0.369318
O O7 0.227798 0.778294 0.899168
O O8 0.250000 0.750000 0.000000
O O9 0.458297 0.232436 0.516652
O O10 0.652351 0.453252 0.593362
O O11 0.643959 0.953760 0.609104
#
# Coordination Sequence:
#
# PCOD9268832 Si02
#       5
#     8   8   8   8   8
#     4  10  21  37  61  83 115 153 199 235 289 346
#     4  10  22  38  61  88 114 156 197 247 291 351
#     4  10  22  37  61  93 117 147 196 254 287 344
#     4  10  20  34  52  84 119 158 178 232 292 356
#     4  10  20  33  53  82 125 148 185 229 298 342
#
# _framework density 23.922492999999999
#
# number of rings (size 3 to 8) (size 9 to 14) (size 15 to 20)
#    1.200    0.800    2.000    1.800    2.800    2.400 
#    0.000    0.000    0.000    4.800    0.000    0.000 
#    0.000    0.000    0.000    0.000    0.000    0.000 
#
# Total GULP energy -111746.124791 kJ/mol
# GULP energy per Si atom -5587.306240 kJ/mol
# Density = 2.386804 g / cm^3
# Si number density = 23.922493 Si / 1000 Ang^3
#
#
#
# Elastic Constant Matrix: (Units=GPa)
#
#
# Indices 1 2 3 4 5 6 
#
# 1 115.8377 20.3327 19.0308 0.0026 -8.2067 -0.0028
# 2 20.3327 150.7364 21.6424 0.0045 -10.4815 0.0002
# 3 19.0308 21.6424 96.6313 -0.0002 -9.9800 0.0000
# 4 0.0026 0.0045 -0.0002 25.0599 -0.0015 1.1644
# 5 -8.2067 -10.4815 -9.9800 -0.0015 49.2950 0.0019
# 6 -0.0028 0.0002 0.0000 1.1644 0.0019 25.1004
#
#
#
# Elastic Compliance Matrix: (Units=1/GPa)
#
#
# Indices 1 2 3 4 5 6 
#
# 1 0.009114 -0.000946 -0.001478 -0.000001 0.001017 0.000001
# 2 -0.000946 0.007020 -0.001275 -0.000001 0.001077 0.000000
# 3 -0.001478 -0.001275 0.011104 0.000001 0.001731 0.000000
# 4 -0.000001 -0.000001 0.000001 0.039991 0.000001 -0.001855
# 5 0.001017 0.001077 0.001731 0.000001 0.021035 -0.000002
# 6 0.000001 0.000000 0.000000 -0.001855 -0.000002 0.039926
#
#
# Mechanical properties :
#
#
# Convention : Reuss Voigt Hill
#
# Bulk Modulus (GPa) = 50.40452 53.91303 52.15877
# Shear Modulus (GPa) = 35.16184 40.03770 37.59977
#
# Velocity S-wave (km/s) = 3.83799 4.09546 3.96881
# Velocity P-wave (km/s) = 6.38403 6.70441 6.54618
#
# Compressibility (1/GPa) = 0.01983949
#
# Stress axis : x y z
#
# Youngs Moduli (GPa) = 109.72453 142.45726 90.05840
#
# Poissons Ratio (x) = 0.13483 0.13310
# Poissons Ratio (y) = 0.10385 0.11478
# Poissons Ratio (z) = 0.16216 0.18157
#
# Static dielectric constant tensor:
#      x y z
#    x 1.902770 0.000420 0.115920 
#    y 0.000420 6.458510 0.001810 
#    z 0.115920 0.001810 2.146530 
# 
# From -- ./inp_files/297337.got.cif
#   From: 2010.05.17/outbox.cif.g08.bks.cpg/sg15_149_cif.got.tgz:297337.got - 2010.06.03 18:47:42.
