data_PCOD9268652
_publ_section_title
;
Structure prediction by ZEFSAII (Michael W. Deem and Ramdas Pophale) SiO2 
 PCOD9268652
Probable space group: C 2/C
;
_chemical_formula_sum "Si O2"
_cell_formula_units_Z 60
_cell_length_a 13.179150
_cell_length_b 25.142347
_cell_length_c 10.719913
_cell_angle_alpha 90.000000
_cell_angle_beta 129.636509
_cell_angle_gamma 90.000000
_cell_volume 2735.492338
_symmetry_space_group_name_H-M "C 2/C"
_symmetry_group_IT_number 15
_symmetry_cell_setting 'monoclinic'
loop_
_space_group_symop_operation_xyz
x,y,z
-x,y,1/2-z
-x,-y,-z
x,-y,1/2+z
1/2+x,1/2+y,z
1/2-x,1/2+y,1/2-z
1/2-x,1/2-y,-z
1/2+x,1/2-y,1/2+z
loop_
_atom_site_type_symbol
_atom_site_label
_atom_site_fract_x
_atom_site_fract_y
_atom_site_fract_z
Si Si1 0.850021 0.554256 0.178409
Si Si2 0.011049 0.302064 0.978863
Si Si3 0.778439 0.567596 0.645955
Si Si4 0.977929 0.180895 0.927820
Si Si5 0.500000 0.154454 0.750000
Si Si6 0.862821 0.148320 0.080724
Si Si7 0.747043 0.141744 0.248894
Si Si8 0.242684 0.878349 0.376366
O O1 0.822201 0.491877 0.157684
O O2 0.811731 0.582284 0.279240
O O3 0.000000 0.562406 0.250000
O O4 0.758622 0.587040 0.012030
O O5 0.000460 0.310929 0.122340
O O6 0.135413 0.337324 0.035365
O O7 0.024014 0.241097 0.951093
O O8 0.876805 0.322562 0.807626
O O9 0.649008 0.586735 0.470644
O O10 0.758093 0.580055 0.774740
O O11 0.880784 0.612579 0.678658
O O12 0.892085 0.153744 0.752164
O O13 0.868570 0.180135 0.955787
O O14 0.110884 0.150111 0.074807
O O15 0.767622 0.157823 0.121385
O O16 0.000000 0.160520 0.250000
#
# Coordination Sequence:
#
# PCOD9268652 Si02
#       8
#     8   8   8   8   4   8   8   8
#     4  12  25  42  68  90 128 174 216 269 327 370
#     4  11  21  38  68  98 131 168 211 267 331 373
#     4  10  21  39  62  94 125 166 204 271 327 369
#     4  10  23  43  64  95 131 173 206 271 327 370
#     4  10  20  32  62 104 132 150 210 262 332 390
#     4   9  20  40  60  93 135 156 209 263 310 393
#     4  11  23  40  63  95 128 170 219 255 315 396
#     4  10  24  44  61  98 136 161 223 267 305 406
#
# _framework density 21.933896000000001
#
# number of rings (size 3 to 8) (size 9 to 14) (size 15 to 20)
#    0.000    1.600    3.333    0.800    4.667    1.600 
#    2.400    6.000    0.000    0.000    0.000    0.000 
#    0.000    0.000    0.000    0.000    0.000    0.000 
#
# Total GULP energy -167260.884485 kJ/mol
# GULP energy per Si atom -5575.362816 kJ/mol
# Density = 2.188397 g / cm^3
# Si number density = 21.933896 Si / 1000 Ang^3
#
#
#
# Elastic Constant Matrix: (Units=GPa)
#
#
# Indices 1 2 3 4 5 6 
#
# 1 76.4693 22.8764 18.9870 0.0000 6.1499 0.0000
# 2 22.8764 107.6236 19.8163 0.0000 8.8968 0.0000
# 3 18.9870 19.8163 59.1540 0.0000 8.5714 0.0000
# 4 0.0000 0.0000 0.0000 17.9392 0.0000 1.8652
# 5 6.1499 8.8968 8.5714 0.0000 19.9830 0.0000
# 6 0.0000 0.0000 0.0000 1.8652 0.0000 -8.1892
#
#
#
# Elastic Compliance Matrix: (Units=1/GPa)
#
#
# Indices 1 2 3 4 5 6 
#
# 1 0.014846 -0.002312 -0.003708 0.000000 -0.001949 0.000000
# 2 -0.002312 0.010456 -0.002334 0.000000 -0.002942 0.000000
# 3 -0.003708 -0.002334 0.019791 0.000000 -0.006309 0.000000
# 4 0.000000 0.000000 0.000000 0.054454 0.000000 0.012403
# 5 -0.001949 -0.002942 -0.006309 0.000000 0.054659 0.000000
# 6 0.000000 0.000000 0.000000 0.012403 0.000000 -0.119288
#
#
# Mechanical properties :
#
#
# Convention : Reuss Voigt Hill
#
# Bulk Modulus (GPa) = 35.23024 40.73403 37.98214
# Shear Modulus (GPa) = 81.84658 18.05106 49.94882
#
# Velocity S-wave (km/s) = 6.11524 2.87187 4.77722
# Velocity P-wave (km/s) = 8.12148 5.44136 6.91255
#
# Compressibility (1/GPa) = 0.02838470
#
# Stress axis : x y z
#
# Youngs Moduli (GPa) = 67.35697 95.63800 50.52686
#
# Poissons Ratio (x) = 0.22109 0.18738
# Poissons Ratio (y) = 0.15571 0.11795
# Poissons Ratio (z) = 0.24979 0.22325
#
# Static dielectric constant tensor:
#      x y z
#    x 1.955200 0.000000 -0.001470 
#    y 0.000000 1.745260 0.000000 
#    z -0.001470 0.000000 1.924840 
# 
# From -- ./inp_files/100694.got.cif
#   From: 2010.05.17/outbox.cif.g08.bks.cpg/sg15_51_cif.got.tgz:100694.got - 2010.06.03 18:47:42.
