data_PCOD9268394
_publ_section_title
;
Structure prediction by ZEFSAII (Michael W. Deem and Ramdas Pophale) SiO2 
 PCOD9268394
Probable space group: C 2/C
;
_chemical_formula_sum "Si O2"
_cell_formula_units_Z 40
_cell_length_a 26.011946
_cell_length_b 17.460780
_cell_length_c 13.302537
_cell_angle_alpha 90.000000
_cell_angle_beta 163.945980
_cell_angle_gamma 90.000000
_cell_volume 1670.838493
_symmetry_space_group_name_H-M "C 2/C"
_symmetry_group_IT_number 15
_symmetry_cell_setting 'monoclinic'
loop_
_space_group_symop_operation_xyz
x,y,z
-x,y,1/2-z
-x,-y,-z
x,-y,1/2+z
1/2+x,1/2+y,z
1/2-x,1/2+y,1/2-z
1/2-x,1/2-y,-z
1/2+x,1/2-y,1/2+z
loop_
_atom_site_type_symbol
_atom_site_label
_atom_site_fract_x
_atom_site_fract_y
_atom_site_fract_z
Si Si1 0.153330 0.675605 0.728047
Si Si2 0.419183 0.549452 0.938028
Si Si3 0.713201 0.031483 0.739012
Si Si4 0.957181 0.371843 0.052103
Si Si5 0.944813 0.219256 0.954575
O O1 0.107508 0.611071 0.561130
O O2 0.015128 0.747416 0.479812
O O3 0.122836 0.635054 0.780865
O O4 0.362645 0.707552 0.119485
O O5 0.596605 0.550832 0.345316
O O6 0.362901 0.635037 0.798421
O O7 0.500000 0.500000 0.000000
O O8 0.255205 0.517440 0.700350
O O9 0.636344 0.953709 0.641072
O O10 0.000000 0.368443 0.250000
O O11 0.846336 0.292906 0.818463
#
# Coordination Sequence:
#
# PCOD9268394 Si02
#       5
#     8   8   8   8   8
#     4   8  17  32  53  80 112 137 179 242 279 329
#     4  10  22  38  56  79 112 161 196 229 289 345
#     4  10  21  35  56  82 118 144 188 245 286 343
#     4  10  20  31  58  90 111 143 187 244 291 336
#     4   8  18  32  56  84 106 147 193 234 271 357
#
# _framework density 23.940075
#
# number of rings (size 3 to 8) (size 9 to 14) (size 15 to 20)
#    1.200    1.600    0.000    0.600   11.200    0.000 
#    0.000    1.000    0.000    0.000    0.000    0.000 
#    0.000    0.000    0.000    0.000    0.000    0.000 
#
# Total GULP energy -111346.541211 kJ/mol
# GULP energy per Si atom -5567.327061 kJ/mol
# Density = 2.388559 g / cm^3
# Si number density = 23.940075 Si / 1000 Ang^3
#
#
#
# Elastic Constant Matrix: (Units=GPa)
#
#
# Indices 1 2 3 4 5 6 
#
# 1 98.6917 41.7860 7.7140 0.0000 -1.3441 0.0000
# 2 41.7860 195.4667 21.1545 0.0000 12.6767 0.0000
# 3 7.7140 21.1545 45.5127 0.0000 -7.7659 0.0000
# 4 0.0000 0.0000 0.0000 29.6417 0.0000 -5.0580
# 5 -1.3441 12.6767 -7.7659 0.0000 15.2889 0.0000
# 6 0.0000 0.0000 0.0000 -5.0580 0.0000 18.5013
#
#
#
# Elastic Compliance Matrix: (Units=1/GPa)
#
#
# Indices 1 2 3 4 5 6 
#
# 1 0.011285 -0.002589 -0.000190 0.000000 0.003042 0.000000
# 2 -0.002589 0.006595 -0.003940 0.000000 -0.007697 0.000000
# 3 -0.000190 -0.003940 0.026704 0.000000 0.016814 0.000000
# 4 0.000000 0.000000 0.000000 0.035387 0.000000 0.009674
# 5 0.003042 -0.007697 0.016814 0.000000 0.080597 0.000000
# 6 0.000000 0.000000 0.000000 0.009674 0.000000 0.056695
#
#
# Mechanical properties :
#
#
# Convention : Reuss Voigt Hill
#
# Bulk Modulus (GPa) = 32.10675 53.44223 42.77449
# Shear Modulus (GPa) = 20.73962 30.62082 25.68022
#
# Velocity S-wave (km/s) = 2.94651 3.58028 3.27874
# Velocity P-wave (km/s) = 5.00163 6.28196 5.67800
#
# Compressibility (1/GPa) = 0.03114610
#
# Stress axis : x y z
#
# Youngs Moduli (GPa) = 88.61213 151.62868 37.44696
#
# Poissons Ratio (x) = 0.39260 0.00712
# Poissons Ratio (y) = 0.22944 0.14754
# Poissons Ratio (z) = 0.01685 0.59741
#
# Static dielectric constant tensor:
#      x y z
#    x 1.975940 0.000000 0.053540 
#    y 0.000000 1.951650 0.000000 
#    z 0.053540 0.000000 2.003950 
# 
# From -- ./inp_files/182684.got.cif
#   From: 2010.05.17/outbox.cif.g08.bks.cpg/sg15_92_cif.got.tgz:182684.got - 2010.06.03 18:47:42.
