data_PCOD9268974
_publ_section_title
;
Structure prediction by ZEFSAII (Michael W. Deem and Ramdas Pophale) SiO2 
 PCOD9268974
Probable space group: C 2/C
;
_chemical_formula_sum "Si O2"
_cell_formula_units_Z 60
_cell_length_a 11.419256
_cell_length_b 19.202195
_cell_length_c 13.390000
_cell_angle_alpha 90.000000
_cell_angle_beta 79.649723
_cell_angle_gamma 90.000000
_cell_volume 2888.312562
_symmetry_space_group_name_H-M "C 2/C"
_symmetry_group_IT_number 15
_symmetry_cell_setting 'monoclinic'
loop_
_space_group_symop_operation_xyz
x,y,z
-x,y,1/2-z
-x,-y,-z
x,-y,1/2+z
1/2+x,1/2+y,z
1/2-x,1/2+y,1/2-z
1/2-x,1/2-y,-z
1/2+x,1/2-y,1/2+z
loop_
_atom_site_type_symbol
_atom_site_label
_atom_site_fract_x
_atom_site_fract_y
_atom_site_fract_z
Si Si1 0.138862 0.311882 0.082232
Si Si2 0.894543 0.451734 0.906251
Si Si3 0.470443 0.585374 0.607941
Si Si4 0.940980 0.415999 0.125114
Si Si5 0.208774 0.943166 0.518422
Si Si6 0.127925 0.761683 0.379424
Si Si7 0.500000 0.843628 0.750000
Si Si8 0.686928 0.537696 0.692174
O O1 0.217650 0.373770 0.018725
O O2 0.229218 0.274592 0.144606
O O3 0.023596 0.351482 0.139965
O O4 0.104944 0.260211 0.997883
O O5 0.775353 0.495023 0.947538
O O6 0.906306 0.393316 0.821443
O O7 0.990074 0.511861 0.866410
O O8 0.926846 0.416280 0.007047
O O9 0.423256 0.567270 0.505005
O O10 0.433801 0.664837 0.633765
O O11 0.605625 0.574296 0.619374
O O12 0.391707 0.539338 0.696997
O O13 0.810280 0.422370 0.191352
O O14 0.214602 0.964552 0.633483
O O15 0.072886 0.704061 0.315984
#
# Coordination Sequence:
#
# PCOD9268974 Si02
#       8
#     8   8   8   8   8   8   4   8
#     4   9  18  38  59  83 107 155 192 230 287 360
#     4   9  19  29  53  89 117 133 187 242 293 338
#     4  10  21  37  52  84 111 157 201 226 292 352
#     4   9  17  36  54  83 113 147 186 237 300 342
#     4   9  19  35  58  85 111 144 190 243 298 337
#     4  10  21  35  57  78 116 151 196 226 273 357
#     4  12  20  30  56  90 116 150 188 244 282 338
#     4  10  20  33  58  81 116 148 186 253 288 338
#
# _framework density 20.773375999999999
#
# number of rings (size 3 to 8) (size 9 to 14) (size 15 to 20)
#    0.000    2.400    1.333    2.000    1.867    0.000 
#    0.000    0.667    2.933    0.000   24.267    0.000 
#    0.000    0.000    0.000    0.000    0.000    0.000 
#
# Total GULP energy -167454.558344 kJ/mol
# GULP energy per Si atom -5581.818611 kJ/mol
# Density = 2.072609 g / cm^3
# Si number density = 20.773376 Si / 1000 Ang^3
#
#
#
# Elastic Constant Matrix: (Units=GPa)
#
#
# Indices 1 2 3 4 5 6 
#
# 1 103.2900 12.4072 3.8825 0.0000 0.7221 0.0000
# 2 12.4072 58.0703 24.2289 0.0000 3.3821 0.0000
# 3 3.8825 24.2289 50.9300 0.0000 3.3413 0.0000
# 4 0.0000 0.0000 0.0000 -28.2253 0.0000 40.9596
# 5 0.7221 3.3821 3.3413 0.0000 28.2017 0.0000
# 6 0.0000 0.0000 0.0000 40.9596 0.0000 7.0176
#
#
#
# Elastic Compliance Matrix: (Units=1/GPa)
#
#
# Indices 1 2 3 4 5 6 
#
# 1 0.009941 -0.002255 0.000316 0.000000 -0.000022 0.000000
# 2 -0.002255 0.022050 -0.010228 0.000000 -0.001375 0.000000
# 3 0.000316 -0.010228 0.024587 0.000000 -0.001695 0.000000
# 4 0.000000 0.000000 0.000000 -0.003741 0.000000 0.021836
# 5 -0.000022 -0.001375 -0.001695 0.000000 0.035825 0.000000
# 6 0.000000 0.000000 0.000000 0.021836 0.000000 0.015047
#
#
# Mechanical properties :
#
#
# Convention : Reuss Voigt Hill
#
# Bulk Modulus (GPa) = 31.01189 32.59194 31.80192
# Shear Modulus (GPa) = 36.02585 12.85024 24.43804
#
# Velocity S-wave (km/s) = 4.16893 2.48985 3.43361
# Velocity P-wave (km/s) = 6.17530 4.89787 5.57331
#
# Compressibility (1/GPa) = 0.03224569
#
# Stress axis : x y z
#
# Youngs Moduli (GPa) = 100.59791 45.35238 40.67118
#
# Poissons Ratio (x) = 0.10225 -0.01286
# Poissons Ratio (y) = 0.22680 0.41597
# Poissons Ratio (z) = -0.03181 0.46384
#
# Static dielectric constant tensor:
#      x y z
#    x 1.791240 0.000000 0.016110 
#    y 0.000000 1.734580 0.000000 
#    z 0.016110 0.000000 1.802770 
# 
# From -- ./inp_files/146708.got.cif
#   From: 2010.05.17/outbox.cif.g08.bks.cpg/sg15_74_cif.got.tgz:146708.got - 2010.06.03 18:47:42.
