data_PCOD9268479
_publ_section_title
;
Structure prediction by ZEFSAII (Michael W. Deem and Ramdas Pophale) SiO2 
 PCOD9268479
Probable space group: C 2/C
;
_chemical_formula_sum "Si O2"
_cell_formula_units_Z 48
_cell_length_a 16.854196
_cell_length_b 23.934087
_cell_length_c 15.287455
_cell_angle_alpha 90.000000
_cell_angle_beta 154.495496
_cell_angle_gamma 90.000000
_cell_volume 2655.314797
_symmetry_space_group_name_H-M "C 2/C"
_symmetry_group_IT_number 15
_symmetry_cell_setting 'monoclinic'
loop_
_space_group_symop_operation_xyz
x,y,z
-x,y,1/2-z
-x,-y,-z
x,-y,1/2+z
1/2+x,1/2+y,z
1/2-x,1/2+y,1/2-z
1/2-x,1/2-y,-z
1/2+x,1/2-y,1/2+z
loop_
_atom_site_type_symbol
_atom_site_label
_atom_site_fract_x
_atom_site_fract_y
_atom_site_fract_z
Si Si1 0.286993 0.484303 0.015555
Si Si2 0.216000 0.004724 0.191766
Si Si3 0.505614 0.092229 0.952721
Si Si4 0.500000 0.080828 0.750000
Si Si5 0.982139 0.677970 0.078729
Si Si6 0.500000 0.897847 0.750000
Si Si7 0.367111 0.286718 0.186458
O O1 0.500000 0.484980 0.250000
O O2 0.265807 0.475099 0.890560
O O3 0.181143 0.541569 0.930749
O O4 0.165865 0.437797 0.944148
O O5 0.324534 0.049642 0.359310
O O6 0.327932 0.945744 0.303954
O O7 0.000000 0.000000 0.000000
O O8 0.496095 0.108820 0.841271
O O9 0.520518 0.147199 0.027085
O O10 0.072514 0.641237 0.245264
O O11 0.040248 0.741854 0.155420
O O12 0.766717 0.676043 0.889734
O O13 0.500000 0.317683 0.250000
O O14 0.250000 0.250000 0.000000
#
# Coordination Sequence:
#
# PCOD9268479 Si02
#       7
#     8   8   8   4   8   4   8
#     4  10  20  32  51  79 116 147 179 218 262 321
#     4  10  20  34  51  83 111 144 183 223 264 325
#     4  10  21  37  56  77 113 144 190 226 269 326
#     4   9  20  38  56  72 110 154 184 228 267 310
#     4  11  20  37  54  79 111 145 181 226 277 335
#     4  11  20  32  50  84 110 144 180 214 271 322
#     4   9  18  35  54  75 109 139 171 220 279 334
#
# _framework density 18.076953
#
# number of rings (size 3 to 8) (size 9 to 14) (size 15 to 20)
#    0.000    2.000    4.167    1.000    4.667    0.667 
#    6.000    0.000    0.000    1.000    0.000    0.000 
#    0.000    0.000    0.000    0.000    0.000    0.000 
#
# Total GULP energy -133700.745908 kJ/mol
# GULP energy per Si atom -5570.864413 kJ/mol
# Density = 1.803581 g / cm^3
# Si number density = 18.076953 Si / 1000 Ang^3
#
#
#
# Elastic Constant Matrix: (Units=GPa)
#
#
# Indices 1 2 3 4 5 6 
#
# 1 103.3358 28.0207 19.9344 0.0000 -16.1745 0.0000
# 2 28.0207 43.4674 13.3736 0.0000 -3.6474 0.0000
# 3 19.9344 13.3736 86.3242 0.0000 13.8773 0.0000
# 4 0.0000 0.0000 0.0000 5.9885 0.0000 -3.1447
# 5 -16.1745 -3.6474 13.8773 0.0000 40.1363 0.0000
# 6 0.0000 0.0000 0.0000 -3.1447 0.0000 22.0130
#
#
#
# Elastic Compliance Matrix: (Units=1/GPa)
#
#
# Indices 1 2 3 4 5 6 
#
# 1 0.013002 -0.007051 -0.002805 0.000000 0.005569 0.000000
# 2 -0.007051 0.028510 -0.002910 0.000000 0.000755 0.000000
# 3 -0.002805 -0.002910 0.013667 0.000000 -0.006120 0.000000
# 4 0.000000 0.000000 0.000000 0.180530 0.000000 0.025790
# 5 0.005569 0.000755 -0.006120 0.000000 0.029344 0.000000
# 6 0.000000 0.000000 0.000000 0.025790 0.000000 0.049112
#
#
# Mechanical properties :
#
#
# Convention : Reuss Voigt Hill
#
# Bulk Modulus (GPa) = 33.73171 39.53163 36.63167
# Shear Modulus (GPa) = 14.30288 25.08081 19.69184
#
# Velocity S-wave (km/s) = 2.81592 3.72889 3.30409
# Velocity P-wave (km/s) = 5.41046 6.36046 5.90460
#
# Compressibility (1/GPa) = 0.02964570
#
# Stress axis : x y z
#
# Youngs Moduli (GPa) = 76.91107 35.07554 73.17019
#
# Poissons Ratio (x) = 0.24732 0.20527
# Poissons Ratio (y) = 0.54231 0.21292
# Poissons Ratio (z) = 0.21576 0.10207
#
# Static dielectric constant tensor:
#      x y z
#    x 2.056860 0.000000 -0.146420 
#    y 0.000000 1.632990 0.000000 
#    z -0.146420 0.000000 1.749630 
# 
# From -- ./inp_files/156850.got.cif
#   From: 2010.05.17/outbox.cif.g08.bks.cpg/sg15_79_cif.got.tgz:156850.got - 2010.06.03 18:47:42.
