data_PCOD9268277
_publ_section_title
;
Structure prediction by ZEFSAII (Michael W. Deem and Ramdas Pophale) SiO2 
 PCOD9268277
Probable space group: C 2/C
;
_chemical_formula_sum "Si O2"
_cell_formula_units_Z 48
_cell_length_a 17.212805
_cell_length_b 9.897247
_cell_length_c 14.252677
_cell_angle_alpha 90.000000
_cell_angle_beta 131.303255
_cell_angle_gamma 90.000000
_cell_volume 1824.036311
_symmetry_space_group_name_H-M "C 2/C"
_symmetry_group_IT_number 15
_symmetry_cell_setting 'monoclinic'
loop_
_space_group_symop_operation_xyz
x,y,z
-x,y,1/2-z
-x,-y,-z
x,-y,1/2+z
1/2+x,1/2+y,z
1/2-x,1/2+y,1/2-z
1/2-x,1/2-y,-z
1/2+x,1/2-y,1/2+z
loop_
_atom_site_type_symbol
_atom_site_label
_atom_site_fract_x
_atom_site_fract_y
_atom_site_fract_z
Si Si1 0.127357 0.296799 0.525742
Si Si2 0.648352 0.076059 0.313943
Si Si3 0.500000 0.678990 0.750000
Si Si4 0.000000 0.338432 0.250000
Si Si5 0.680595 0.910348 0.047054
Si Si6 0.700778 0.578568 0.241644
Si Si7 0.034494 0.842365 0.475506
O O1 0.073544 0.259990 0.383156
O O2 0.109510 0.459212 0.513247
O O3 0.251271 0.304425 0.650280
O O4 0.067118 0.220441 0.558599
O O5 0.581164 0.211224 0.272707
O O6 0.708851 0.077147 0.460909
O O7 0.721251 0.077558 0.283772
O O8 0.576816 0.942993 0.257575
O O9 0.469366 0.598034 0.632613
O O10 0.616134 0.781195 0.022536
O O11 0.781104 0.941003 0.187366
O O12 0.590164 0.581844 0.105734
#
# Coordination Sequence:
#
# PCOD9268277 Si02
#       7
#     8   8   4   4   8   8   8
#     4   9  18  32  48  77 102 134 177 208 260 302
#     4   9  15  28  48  77 104 121 171 210 263 307
#     4   9  16  26  46  76  95 136 158 213 270 282
#     4   9  16  28  58  70 103 140 160 231 254 286
#     4   8  18  30  49  75 101 133 168 209 263 297
#     4  10  20  30  50  82 103 137 164 214 269 303
#     4  11  18  31  53  77 110 131 167 219 258 310
#
# _framework density 26.315265
#
# number of rings (size 3 to 8) (size 9 to 14) (size 15 to 20)
#    1.000    1.667    1.667    2.500    0.000    2.667 
#    0.000    0.833    0.000    1.000    0.000    0.000 
#    0.000    0.000    0.000    0.000    0.000    0.000 
#
# Total GULP energy -133949.978759 kJ/mol
# GULP energy per Si atom -5581.249115 kJ/mol
# Density = 2.625537 g / cm^3
# Si number density = 26.315265 Si / 1000 Ang^3
#
#
#
# Elastic Constant Matrix: (Units=GPa)
#
#
# Indices 1 2 3 4 5 6 
#
# 1 74.5863 19.1211 42.2730 0.0000 -4.9601 0.0000
# 2 19.1211 39.6627 41.3716 0.0000 -9.5815 0.0000
# 3 42.2730 41.3716 175.5441 0.0000 -16.6663 0.0000
# 4 0.0000 0.0000 0.0000 26.6593 0.0000 5.7643
# 5 -4.9601 -9.5815 -16.6663 0.0000 31.9898 0.0000
# 6 0.0000 0.0000 0.0000 5.7643 0.0000 27.1321
#
#
#
# Elastic Compliance Matrix: (Units=1/GPa)
#
#
# Indices 1 2 3 4 5 6 
#
# 1 0.016239 -0.005054 -0.002761 0.000000 -0.000434 0.000000
# 2 -0.005054 0.036221 -0.006695 0.000000 0.006577 0.000000
# 3 -0.002761 -0.006695 0.008109 0.000000 0.001792 0.000000
# 4 0.000000 0.000000 0.000000 0.039316 0.000000 -0.008353
# 5 -0.000434 0.006577 0.001792 0.000000 0.034096 0.000000
# 6 0.000000 0.000000 0.000000 -0.008353 0.000000 0.038631
#
#
# Mechanical properties :
#
#
# Convention : Reuss Voigt Hill
#
# Bulk Modulus (GPa) = 31.69533 55.03604 43.36569
# Shear Modulus (GPa) = 23.56833 29.62473 26.59653
#
# Velocity S-wave (km/s) = 2.99593 3.35888 3.18258
# Velocity P-wave (km/s) = 4.90286 6.00019 5.47907
#
# Compressibility (1/GPa) = 0.03155039
#
# Stress axis : x y z
#
# Youngs Moduli (GPa) = 61.58144 27.60792 123.31504
#
# Poissons Ratio (x) = 0.13953 0.34042
# Poissons Ratio (y) = 0.31123 0.82560
# Poissons Ratio (z) = 0.17000 0.18484
#
# Static dielectric constant tensor:
#      x y z
#    x 1.970170 0.000000 0.029350 
#    y 0.000000 2.143830 0.000000 
#    z 0.029350 0.000000 2.329800 
# 
# From -- ./inp_files/168320.got.cif
#   From: 2010.05.17/outbox.cif.g08.bks.cpg/sg15_85_cif.got.tgz:168320.got - 2010.06.03 18:47:42.
