data_PCOD9268054
_publ_section_title
;
Structure prediction by ZEFSAII (Michael W. Deem and Ramdas Pophale) SiO2 
 PCOD9268054
Probable space group: C 2/C
;
_chemical_formula_sum "Si O2"
_cell_formula_units_Z 56
_cell_length_a 7.124555
_cell_length_b 25.449614
_cell_length_c 11.197718
_cell_angle_alpha 90.000000
_cell_angle_beta 97.227946
_cell_angle_gamma 90.000000
_cell_volume 2014.204408
_symmetry_space_group_name_H-M "C 2/C"
_symmetry_group_IT_number 15
_symmetry_cell_setting 'monoclinic'
loop_
_space_group_symop_operation_xyz
x,y,z
-x,y,1/2-z
-x,-y,-z
x,-y,1/2+z
1/2+x,1/2+y,z
1/2-x,1/2+y,1/2-z
1/2-x,1/2-y,-z
1/2+x,1/2-y,1/2+z
loop_
_atom_site_type_symbol
_atom_site_label
_atom_site_fract_x
_atom_site_fract_y
_atom_site_fract_z
Si Si1 0.279633 0.674991 0.596231
Si Si2 0.312610 0.887561 0.618461
Si Si3 0.275426 0.010586 0.260947
Si Si4 0.326203 0.694880 0.213227
Si Si5 0.222965 0.604586 0.795373
Si Si6 0.052645 0.249379 0.475161
Si Si7 0.254853 0.093573 0.426596
O O1 0.293658 0.624643 0.512452
O O2 0.297159 0.655295 0.731683
O O3 0.066415 0.696949 0.555424
O O4 0.432968 0.716152 0.563150
O O5 0.226011 0.939301 0.673572
O O6 0.309750 0.834386 0.698782
O O7 0.528755 0.899919 0.602020
O O8 0.500000 0.005098 0.250000
O O9 0.220016 0.033608 0.385906
O O10 0.202615 0.952204 0.238669
O O11 0.459354 0.720727 0.338273
O O12 0.235608 0.730638 0.089165
O O13 0.364515 0.638707 0.146977
O O14 0.000000 0.605866 0.750000
O O15 0.254593 0.606355 0.937030
#
# Coordination Sequence:
#
# PCOD9268054 Si02
#       7
#     8   8   8   8   8   8   8
#     4  11  24  45  71 110 146 194 253 308 378 451
#     4  10  19  41  68  99 136 182 255 298 354 455
#     4   8  19  33  64 107 140 193 252 299 365 454
#     4  11  22  43  70  93 131 183 239 312 367 436
#     4  11  22  37  69 106 156 194 234 321 375 444
#     4  11  26  48  73 106 143 195 253 315 384 455
#     4  10  21  39  66 105 142 191 250 298 380 439
#
# _framework density 27.802541999999999
#
# number of rings (size 3 to 8) (size 9 to 14) (size 15 to 20)
#    0.000    1.714    2.857    2.143    2.000    2.286 
#    0.000    2.143    3.143   13.714    0.000    0.000 
#    0.000    0.000    0.000    0.000    0.000    0.000 
#
# Total GULP energy -156227.004151 kJ/mol
# GULP energy per Si atom -5579.535863 kJ/mol
# Density = 2.773926 g / cm^3
# Si number density = 27.802542 Si / 1000 Ang^3
#
#
#
# Elastic Constant Matrix: (Units=GPa)
#
#
# Indices 1 2 3 4 5 6 
#
# 1 165.1244 53.0840 43.7271 0.0000 9.9784 0.0000
# 2 53.0840 146.2214 81.5900 0.0000 -1.8901 0.0000
# 3 43.7271 81.5900 216.6314 0.0000 -1.8942 0.0000
# 4 0.0000 0.0000 0.0000 27.8008 0.0000 -31.7663
# 5 9.9784 -1.8901 -1.8942 0.0000 33.8214 0.0000
# 6 0.0000 0.0000 0.0000 -31.7663 0.0000 -26.1529
#
#
#
# Elastic Compliance Matrix: (Units=1/GPa)
#
#
# Indices 1 2 3 4 5 6 
#
# 1 0.007078 -0.002267 -0.000595 0.000000 -0.002248 0.000000
# 2 -0.002267 0.009388 -0.003069 0.000000 0.001022 0.000000
# 3 -0.000595 -0.003069 0.005895 0.000000 0.000334 0.000000
# 4 0.000000 0.000000 0.000000 0.015064 0.000000 -0.018297
# 5 -0.002248 0.001022 0.000334 0.000000 0.030306 0.000000
# 6 0.000000 0.000000 0.000000 -0.018297 0.000000 -0.016013
#
#
# Mechanical properties :
#
#
# Convention : Reuss Voigt Hill
#
# Bulk Modulus (GPa) = 95.24296 98.30882 96.77589
# Shear Modulus (GPa) = 74.53892 30.39894 52.46893
#
# Velocity S-wave (km/s) = 5.18347 3.31023 4.34890
# Velocity P-wave (km/s) = 8.37590 7.07436 7.75249
#
# Compressibility (1/GPa) = 0.01049946
#
# Stress axis : x y z
#
# Youngs Moduli (GPa) = 141.28037 106.52239 169.63470
#
# Poissons Ratio (x) = 0.24148 0.10086
# Poissons Ratio (y) = 0.32027 0.52064
# Poissons Ratio (z) = 0.08400 0.32694
#
# Static dielectric constant tensor:
#      x y z
#    x 2.305300 0.000000 0.012790 
#    y 0.000000 2.069740 0.000000 
#    z 0.012790 0.000000 2.291270 
# 
# From -- ./inp_files/90344.got.cif
#   From: 2010.05.17/outbox.cif.g08.bks.cpg/sg15_46_cif.got.tgz:90344.got - 2010.06.03 18:47:42.
