data_PCOD9268140
_publ_section_title
;
Structure prediction by ZEFSAII (Michael W. Deem and Ramdas Pophale) SiO2 
 PCOD9268140
Probable space group: C 2/C
;
_chemical_formula_sum "Si O2"
_cell_formula_units_Z 60
_cell_length_a 11.724645
_cell_length_b 16.803466
_cell_length_c 21.033578
_cell_angle_alpha 90.000000
_cell_angle_beta 38.784098
_cell_angle_gamma 90.000000
_cell_volume 2595.701835
_symmetry_space_group_name_H-M "C 2/C"
_symmetry_group_IT_number 15
_symmetry_cell_setting 'monoclinic'
loop_
_space_group_symop_operation_xyz
x,y,z
-x,y,1/2-z
-x,-y,-z
x,-y,1/2+z
1/2+x,1/2+y,z
1/2-x,1/2+y,1/2-z
1/2-x,1/2-y,-z
1/2+x,1/2-y,1/2+z
loop_
_atom_site_type_symbol
_atom_site_label
_atom_site_fract_x
_atom_site_fract_y
_atom_site_fract_z
Si Si1 0.898221 0.146012 0.480055
Si Si2 0.703922 0.473910 0.670983
Si Si3 0.619730 0.761458 0.458628
Si Si4 0.000000 0.289024 0.750000
Si Si5 0.478234 0.241763 0.831770
Si Si6 0.022131 0.361209 0.870216
Si Si7 0.794575 0.494595 0.484143
Si Si8 0.631030 0.882020 0.343408
O O1 0.707712 0.190826 0.579136
O O2 0.961237 0.184053 0.385851
O O3 0.863952 0.053188 0.482700
O O4 0.038016 0.177725 0.471366
O O5 0.500000 0.446431 0.750000
O O6 0.777848 0.489986 0.567782
O O7 0.708536 0.559341 0.705504
O O8 0.827277 0.410994 0.655747
O O9 0.835905 0.759370 0.353421
O O10 0.541192 0.786980 0.559967
O O11 0.559079 0.830430 0.434800
O O12 0.919599 0.339098 0.726054
O O13 0.500000 0.263423 0.750000
O O14 0.643188 0.184731 0.783941
O O15 0.842465 0.416762 0.943554
O O16 0.975202 0.443480 0.390738
#
# Coordination Sequence:
#
# PCOD9268140 Si02
#       8
#     8   8   8   4   8   8   8   8
#     4   9  21  36  62 100 134 169 224 289 337 410
#     4  11  22  37  72 104 132 175 241 280 340 416
#     4  11  22  44  69  94 139 176 234 284 349 405
#     4  12  30  44  70  98 132 186 236 274 338 438
#     4   9  18  34  59  94 139 176 216 277 352 399
#     4  11  24  49  70  96 142 191 222 292 354 410
#     4  10  19  42  68  92 137 180 217 287 356 396
#     4   9  18  38  61  94 130 177 222 279 331 417
#
# _framework density 23.115137000000001
#
# number of rings (size 3 to 8) (size 9 to 14) (size 15 to 20)
#    0.000    1.867    2.667    2.000    2.800    2.667 
#   10.800    2.000    0.000    0.000    0.000    0.000 
#    0.000    0.000    0.000    0.000    0.000    0.000 
#
# Total GULP energy -167630.397339 kJ/mol
# GULP energy per Si atom -5587.679911 kJ/mol
# Density = 2.306253 g / cm^3
# Si number density = 23.115137 Si / 1000 Ang^3
#
#
#
# Elastic Constant Matrix: (Units=GPa)
#
#
# Indices 1 2 3 4 5 6 
#
# 1 81.9562 50.7757 44.1989 0.0003 5.1680 -0.0003
# 2 50.7757 65.3058 38.6363 -0.0011 3.3335 -0.0004
# 3 44.1989 38.6363 77.0015 -0.0026 16.2284 -0.0015
# 4 0.0003 -0.0011 -0.0026 15.8167 0.0001 -6.0055
# 5 5.1680 3.3335 16.2284 0.0001 39.5359 0.0005
# 6 -0.0003 -0.0004 -0.0015 -6.0055 0.0005 11.3383
#
#
#
# Elastic Compliance Matrix: (Units=1/GPa)
#
#
# Indices 1 2 3 4 5 6 
#
# 1 0.025815 -0.015990 -0.006971 -0.000004 0.000835 -0.000003
# 2 -0.015990 0.031989 -0.007384 0.000001 0.002424 0.000000
# 3 -0.006971 -0.007384 0.022299 0.000005 -0.007619 0.000006
# 4 -0.000004 0.000001 0.000005 0.079140 -0.000002 0.041918
# 5 0.000835 0.002424 -0.007619 -0.000002 0.028107 -0.000003
# 6 -0.000003 0.000000 0.000006 0.041918 -0.000003 0.110399
#
#
# Mechanical properties :
#
#
# Convention : Reuss Voigt Hill
#
# Bulk Modulus (GPa) = 51.50794 54.60947 53.05871
# Shear Modulus (GPa) = 13.70206 19.38169 16.54187
#
# Velocity S-wave (km/s) = 2.43734 2.89880 2.67803
# Velocity P-wave (km/s) = 5.50022 5.90596 5.70670
#
# Compressibility (1/GPa) = 0.01941448
#
# Stress axis : x y z
#
# Youngs Moduli (GPa) = 38.73780 31.26043 44.84605
#
# Poissons Ratio (x) = 0.49984 0.31260
# Poissons Ratio (y) = 0.61941 0.33113
# Poissons Ratio (z) = 0.27002 0.23082
#
# Static dielectric constant tensor:
#      x y z
#    x 1.940930 0.000000 -0.036820 
#    y 0.000000 1.899750 0.000000 
#    z -0.036820 0.000000 1.861280 
# 
# From -- ./inp_files/239963.got.cif
#   From: 2010.05.17/outbox.cif.g08.bks.cpg/sg15_120_cif.got.tgz:239963.got - 2010.06.03 18:47:42.
