data_PCOD9268465
_publ_section_title
;
Structure prediction by ZEFSAII (Michael W. Deem and Ramdas Pophale) SiO2 
 PCOD9268465
Probable space group: C 2/C
;
_chemical_formula_sum "Si O2"
_cell_formula_units_Z 44
_cell_length_a 18.651667
_cell_length_b 16.921443
_cell_length_c 11.153044
_cell_angle_alpha 90.000000
_cell_angle_beta 149.318926
_cell_angle_gamma 90.000000
_cell_volume 1796.135186
_symmetry_space_group_name_H-M "C 2/C"
_symmetry_group_IT_number 15
_symmetry_cell_setting 'monoclinic'
loop_
_space_group_symop_operation_xyz
x,y,z
-x,y,1/2-z
-x,-y,-z
x,-y,1/2+z
1/2+x,1/2+y,z
1/2-x,1/2+y,1/2-z
1/2-x,1/2-y,-z
1/2+x,1/2-y,1/2+z
loop_
_atom_site_type_symbol
_atom_site_label
_atom_site_fract_x
_atom_site_fract_y
_atom_site_fract_z
Si Si1 0.975415 0.730681 0.529282
Si Si2 0.000000 0.852577 0.250000
Si Si3 0.711666 0.676977 0.263169
Si Si4 0.714389 0.005343 0.197929
Si Si5 0.183729 0.126047 0.804509
Si Si6 0.933995 0.582833 0.308859
O O1 0.869725 0.710781 0.485520
O O2 0.873191 0.788308 0.306888
O O3 0.996818 0.647976 0.490428
O O4 0.117975 0.781178 0.729287
O O5 0.122342 0.810759 0.508056
O O6 0.079803 0.900617 0.261350
O O7 0.734739 0.582543 0.300881
O O8 0.813721 0.933000 0.304363
O O9 0.684332 0.032669 0.289883
O O10 0.556521 0.974938 0.944211
O O11 0.342564 0.128849 0.080199
#
# Coordination Sequence:
#
# PCOD9268465 Si02
#       6
#     8   4   8   8   8   8
#     4  10  20  34  58  84 119 145 180 234 296 338
#     4  10  20  32  50  78 124 136 186 224 274 338
#     4  10  21  35  52  87 118 150 183 231 280 353
#     4  10  21  35  54  81 120 151 188 223 284 344
#     4  11  20  34  56  84 114 154 177 231 286 337
#     4  10  20  37  55  87 114 147 192 230 277 354
#
# _framework density 24.497040999999999
#
# number of rings (size 3 to 8) (size 9 to 14) (size 15 to 20)
#    0.000    1.818    3.636    2.182    2.545    2.909 
#    0.000    0.000    0.000    0.000    0.000   67.455 
#    0.000    0.000    0.000    0.000    0.000    0.000 
#
# Total GULP energy -122524.876717 kJ/mol
# GULP energy per Si atom -5569.312578 kJ/mol
# Density = 2.444128 g / cm^3
# Si number density = 24.497041 Si / 1000 Ang^3
#
#
#
# Elastic Constant Matrix: (Units=GPa)
#
#
# Indices 1 2 3 4 5 6 
#
# 1 64.8090 28.8235 23.1249 0.0000 30.1732 0.0000
# 2 28.8235 80.6658 39.9182 0.0000 20.5860 0.0000
# 3 23.1249 39.9182 106.8438 0.0000 33.5084 0.0000
# 4 0.0000 0.0000 0.0000 45.8083 0.0000 8.4242
# 5 30.1732 20.5860 33.5084 0.0000 34.7288 0.0000
# 6 0.0000 0.0000 0.0000 8.4242 0.0000 -22.7080
#
#
#
# Elastic Compliance Matrix: (Units=1/GPa)
#
#
# Indices 1 2 3 4 5 6 
#
# 1 0.028078 -0.005587 0.003760 0.000000 -0.024711 0.000000
# 2 -0.005587 0.016968 -0.005016 0.000000 -0.000364 0.000000
# 3 0.003760 -0.005016 0.015073 0.000000 -0.014837 0.000000
# 4 0.000000 0.000000 0.000000 0.020436 0.000000 0.007581
# 5 -0.024711 -0.000364 -0.014837 0.000000 0.064795 0.000000
# 6 0.000000 0.000000 0.000000 0.007581 0.000000 -0.041225
#
#
# Mechanical properties :
#
#
# Convention : Reuss Voigt Hill
#
# Bulk Modulus (GPa) = 21.53666 48.45021 34.99344
# Shear Modulus (GPa) = 37.51253 22.26263 29.88758
#
# Velocity S-wave (km/s) = 3.91744 3.01788 3.49671
# Velocity P-wave (km/s) = 5.41040 5.65371 5.53339
#
# Compressibility (1/GPa) = 0.04643245
#
# Stress axis : x y z
#
# Youngs Moduli (GPa) = 35.61541 58.93273 66.34479
#
# Poissons Ratio (x) = 0.32928 -0.24947
# Poissons Ratio (y) = 0.19899 0.33280
# Poissons Ratio (z) = -0.13392 0.29562
#
# Static dielectric constant tensor:
#      x y z
#    x 2.078610 0.000000 -0.015120 
#    y 0.000000 1.925940 0.000000 
#    z -0.015120 0.000000 2.003510 
# 
# From -- ./inp_files/112833.got.cif
#   From: 2010.05.17/outbox.cif.g08.bks.cpg/sg15_57_cif.got.tgz:112833.got - 2010.06.03 18:47:42.
