data_PCOD9268322
_publ_section_title
;
Structure prediction by ZEFSAII (Michael W. Deem and Ramdas Pophale) SiO2 
 PCOD9268322
Probable space group: C 2/C
;
_chemical_formula_sum "Si O2"
_cell_formula_units_Z 56
_cell_length_a 18.166938
_cell_length_b 11.032902
_cell_length_c 10.677622
_cell_angle_alpha 90.000000
_cell_angle_beta 95.890579
_cell_angle_gamma 90.000000
_cell_volume 2128.858316
_symmetry_space_group_name_H-M "C 2/C"
_symmetry_group_IT_number 15
_symmetry_cell_setting 'monoclinic'
loop_
_space_group_symop_operation_xyz
x,y,z
-x,y,1/2-z
-x,-y,-z
x,-y,1/2+z
1/2+x,1/2+y,z
1/2-x,1/2+y,1/2-z
1/2-x,1/2-y,-z
1/2+x,1/2-y,1/2+z
loop_
_atom_site_type_symbol
_atom_site_label
_atom_site_fract_x
_atom_site_fract_y
_atom_site_fract_z
Si Si1 0.918931 0.226024 0.403088
Si Si2 0.500000 0.532612 0.250000
Si Si3 0.637297 0.427957 0.929904
Si Si4 0.575924 0.863559 0.861680
Si Si5 0.788787 0.729716 0.743346
Si Si6 0.796549 0.475979 0.053591
Si Si7 0.000000 0.418079 0.250000
Si Si8 0.869809 0.721961 0.378783
O O1 0.956926 0.108802 0.350657
O O2 0.947530 0.265059 0.542208
O O3 0.830646 0.234648 0.376137
O O4 0.943923 0.331743 0.311334
O O5 0.426181 0.495118 0.153629
O O6 0.671780 0.326527 0.842907
O O7 0.711781 0.491840 0.993668
O O8 0.607823 0.340134 0.036713
O O9 0.536309 0.994008 0.857474
O O10 0.574352 0.821852 0.717444
O O11 0.658139 0.903631 0.917593
O O12 0.798750 0.596056 0.686273
O O13 0.702096 0.744364 0.715008
O O14 0.839852 0.385782 0.964013
#
# Coordination Sequence:
#
# PCOD9268322 Si02
#       8
#     8   4   8   8   8   8   4   8
#     4  10  20  31  47  70 103 134 168 202 245 301
#     4   9  18  32  54  74  94 129 176 212 245 294
#     4   8  16  32  54  70  92 129 175 215 239 287
#     4  12  22  29  46  76 109 138 161 199 258 304
#     4   8  15  34  49  66  92 131 172 211 236 284
#     4   9  17  32  49  68  97 131 175 210 238 291
#     4  11  22  32  42  66 110 145 162 190 241 312
#     4   9  19  31  50  69  99 131 172 206 246 293
#
# _framework density 26.305181000000001
#
# number of rings (size 3 to 8) (size 9 to 14) (size 15 to 20)
#    0.000    2.571    1.429    3.000    4.000    0.571 
#    0.000    0.000    0.000    0.000    0.000    9.000 
#    0.000    0.000    0.000    0.000    0.000    6.000 
#
# Total GULP energy -156374.870758 kJ/mol
# GULP energy per Si atom -5584.816813 kJ/mol
# Density = 2.624531 g / cm^3
# Si number density = 26.305181 Si / 1000 Ang^3
#
#
#
# Elastic Constant Matrix: (Units=GPa)
#
#
# Indices 1 2 3 4 5 6 
#
# 1 94.4888 13.0151 27.1531 0.0000 38.0171 0.0000
# 2 13.0151 56.8164 33.6311 0.0000 -5.8214 0.0000
# 3 27.1531 33.6311 84.2983 0.0000 26.6477 0.0000
# 4 0.0000 0.0000 0.0000 31.6020 0.0000 -13.5246
# 5 38.0171 -5.8214 26.6477 0.0000 50.0480 0.0000
# 6 0.0000 0.0000 0.0000 -13.5246 0.0000 29.8221
#
#
#
# Elastic Compliance Matrix: (Units=1/GPa)
#
#
# Indices 1 2 3 4 5 6 
#
# 1 0.016735 -0.006267 0.001633 0.000000 -0.014311 0.000000
# 2 -0.006267 0.029450 -0.014811 0.000000 0.016072 0.000000
# 3 0.001633 -0.014811 0.021862 0.000000 -0.014604 0.000000
# 4 0.000000 0.000000 0.000000 0.039264 0.000000 0.017807
# 5 -0.014311 0.016072 -0.014604 0.000000 0.040497 0.000000
# 6 0.000000 0.000000 0.000000 0.017807 0.000000 0.041608
#
#
# Mechanical properties :
#
#
# Convention : Reuss Voigt Hill
#
# Bulk Modulus (GPa) = 34.29590 42.57802 38.43696
# Shear Modulus (GPa) = 21.00635 33.08135 27.04385
#
# Velocity S-wave (km/s) = 2.82895 3.55011 3.20985
# Velocity P-wave (km/s) = 4.87202 5.74680 5.32740
#
# Compressibility (1/GPa) = 0.02915801
#
# Stress axis : x y z
#
# Youngs Moduli (GPa) = 59.75534 33.95595 45.74172
#
# Poissons Ratio (x) = 0.21279 -0.07472
# Poissons Ratio (y) = 0.37447 0.67749
# Poissons Ratio (z) = -0.09761 0.50293
#
# Static dielectric constant tensor:
#      x y z
#    x 2.156880 0.000000 0.014430 
#    y 0.000000 2.007520 0.000000 
#    z 0.014430 0.000000 2.118040 
# 
# From -- ./inp_files/62438.got.cif
#   From: 2010.05.17/outbox.cif.g08.bks.cpg/sg15_32_cif.got.tgz:62438.got - 2010.06.03 18:47:42.
