data_PCOD9268492
_publ_section_title
;
Structure prediction by ZEFSAII (Michael W. Deem and Ramdas Pophale) SiO2 
 PCOD9268492
Probable space group: C 2/C
;
_chemical_formula_sum "Si O2"
_cell_formula_units_Z 36
_cell_length_a 8.295718
_cell_length_b 11.307405
_cell_length_c 16.056884
_cell_angle_alpha 90.000000
_cell_angle_beta 123.528896
_cell_angle_gamma 90.000000
_cell_volume 1255.566550
_symmetry_space_group_name_H-M "C 2/C"
_symmetry_group_IT_number 15
_symmetry_cell_setting 'monoclinic'
loop_
_space_group_symop_operation_xyz
x,y,z
-x,y,1/2-z
-x,-y,-z
x,-y,1/2+z
1/2+x,1/2+y,z
1/2-x,1/2+y,1/2-z
1/2-x,1/2-y,-z
1/2+x,1/2-y,1/2+z
loop_
_atom_site_type_symbol
_atom_site_label
_atom_site_fract_x
_atom_site_fract_y
_atom_site_fract_z
Si Si1 0.290792 0.905080 0.624876
Si Si2 0.571314 0.481050 0.909079
Si Si3 0.500000 0.197331 0.750000
Si Si4 0.978268 0.714449 0.923105
Si Si5 0.830690 0.388238 0.859444
O O1 0.234482 0.769088 0.626701
O O2 0.516043 0.908200 0.669307
O O3 0.162789 0.988273 0.652012
O O4 0.175648 0.939116 0.506503
O O5 0.590550 0.341374 0.942679
O O6 0.685645 0.487236 0.855167
O O7 0.513373 0.145410 0.846742
O O8 0.687229 0.281845 0.795809
O O9 0.042981 0.647757 0.023544
#
# Coordination Sequence:
#
# PCOD9268492 Si02
#       5
#     8   8   4   8   8
#     4   9  18  32  55  80 101 132 177 215 266 315
#     4   8  17  32  52  79 101 130 168 210 273 311
#     4  10  20  32  52  78 112 134 182 218 262 312
#     4   9  19  35  54  78 103 142 177 219 260 309
#     4  11  19  34  57  77 105 143 177 219 262 310
#
# _framework density 28.672315999999999
#
# number of rings (size 3 to 8) (size 9 to 14) (size 15 to 20)
#    1.333    1.333    0.000    4.000    0.000    0.889 
#    0.000    0.000    0.000   42.667    0.000    0.000 
#    0.000    0.000    0.000    0.000    0.000    0.000 
#
# Total GULP energy -100586.228824 kJ/mol
# GULP energy per Si atom -5588.123824 kJ/mol
# Density = 2.860706 g / cm^3
# Si number density = 28.672316 Si / 1000 Ang^3
#
#
#
# Elastic Constant Matrix: (Units=GPa)
#
#
# Indices 1 2 3 4 5 6 
#
# 1 313.8484 25.5695 72.1700 0.0000 11.5323 0.0000
# 2 25.5695 92.4554 15.4480 0.0000 -1.3917 0.0000
# 3 72.1700 15.4480 132.3916 0.0000 3.1135 0.0000
# 4 0.0000 0.0000 0.0000 20.2428 0.0000 3.1478
# 5 11.5323 -1.3917 3.1135 0.0000 76.4273 0.0000
# 6 0.0000 0.0000 0.0000 3.1478 0.0000 -1.6182
#
#
#
# Elastic Compliance Matrix: (Units=1/GPa)
#
#
# Indices 1 2 3 4 5 6 
#
# 1 0.003705 -0.000710 -0.001925 0.000000 -0.000494 0.000000
# 2 -0.000710 0.011172 -0.000925 0.000000 0.000348 0.000000
# 3 -0.001925 -0.000925 0.008713 0.000000 -0.000081 0.000000
# 4 0.000000 0.000000 0.000000 0.037928 0.000000 0.073777
# 5 -0.000494 0.000348 -0.000081 0.000000 0.013168 0.000000
# 6 0.000000 0.000000 0.000000 0.073777 0.000000 -0.474445
#
#
# Mechanical properties :
#
#
# Convention : Reuss Voigt Hill
#
# Bulk Modulus (GPa) = 60.71819 85.00782 72.86301
# Shear Modulus (GPa) = -12.91492 47.37756 17.23132
#
# Velocity S-wave (km/s) = -2.12464 4.06936 2.45414
# Velocity P-wave (km/s) = 3.89920 7.19666 5.78773
#
# Compressibility (1/GPa) = 0.01646953
#
# Stress axis : x y z
#
# Youngs Moduli (GPa) = 269.90835 89.50774 114.77631
#
# Poissons Ratio (x) = 0.06359 0.22096
# Poissons Ratio (y) = 0.19174 0.10612
# Poissons Ratio (z) = 0.51962 0.08275
#
# Static dielectric constant tensor:
#      x y z
#    x 2.381990 0.000000 0.000750 
#    y 0.000000 2.191660 0.000000 
#    z 0.000750 0.000000 2.214570 
# 
# From -- ./inp_files/132656.got.cif
#   From: 2010.05.17/outbox.cif.g08.bks.cpg/sg15_67_cif.got.tgz:132656.got - 2010.06.03 18:47:42.
