data_PCOD9268308
_publ_section_title
;
Structure prediction by ZEFSAII (Michael W. Deem and Ramdas Pophale) SiO2 
 PCOD9268308
Probable space group: C 2/C
;
_chemical_formula_sum "Si O2"
_cell_formula_units_Z 60
_cell_length_a 19.508687
_cell_length_b 30.302403
_cell_length_c 8.442969
_cell_angle_alpha 90.000000
_cell_angle_beta 142.046566
_cell_angle_gamma 90.000000
_cell_volume 3069.658987
_symmetry_space_group_name_H-M "C 2/C"
_symmetry_group_IT_number 15
_symmetry_cell_setting 'monoclinic'
loop_
_space_group_symop_operation_xyz
x,y,z
-x,y,1/2-z
-x,-y,-z
x,-y,1/2+z
1/2+x,1/2+y,z
1/2-x,1/2+y,1/2-z
1/2-x,1/2-y,-z
1/2+x,1/2-y,1/2+z
loop_
_atom_site_type_symbol
_atom_site_label
_atom_site_fract_x
_atom_site_fract_y
_atom_site_fract_z
Si Si1 0.661059 0.797791 0.008315
Si Si2 0.627293 0.355064 0.437029
Si Si3 0.871458 0.964642 0.573004
Si Si4 0.183085 0.716565 0.201043
Si Si5 0.875673 0.054723 0.449269
Si Si6 0.615951 0.238807 0.757300
Si Si7 0.000000 0.189385 0.250000
Si Si8 0.311578 0.624749 0.807792
O O1 0.774117 0.767255 0.211873
O O2 0.597999 0.779836 0.048116
O O3 0.696390 0.848361 0.099085
O O4 0.622240 0.793598 0.755423
O O5 0.500000 0.344598 0.250000
O O6 0.705658 0.313024 0.598583
O O7 0.671897 0.396268 0.620404
O O8 0.638970 0.372879 0.279417
O O9 0.876819 0.957677 0.769016
O O10 0.811191 0.924138 0.376120
O O11 0.000000 0.963770 0.750000
O O12 0.823872 0.012971 0.445591
O O13 0.117472 0.708806 0.918856
O O14 0.000000 0.059160 0.750000
O O15 0.533971 0.278697 0.663446
O O16 0.750000 0.250000 0.000000
O O17 0.103012 0.155792 0.442420
#
# Coordination Sequence:
#
# PCOD9268308 Si02
#       8
#     8   8   8   8   8   8   4   8
#     4   9  19  34  47  64  94 120 158 199 246 276
#     4  10  21  30  46  68  92 121 171 201 238 286
#     4  11  19  29  46  57  90 119 159 202 237 283
#     4   9  18  33  47  65  91 125 156 201 242 284
#     4  10  20  31  41  62  87 122 157 201 244 272
#     4  10  20  34  50  64  99 123 159 205 246 286
#     4  12  22  32  50  74  92 130 170 202 242 296
#     4  11  21  31  47  69  90 123 169 201 235 294
#
# _framework density 19.546146
#
# number of rings (size 3 to 8) (size 9 to 14) (size 15 to 20)
#    0.000    1.867    3.333    4.000    5.600    0.000 
#    0.000    0.667    0.000    0.000    0.000    0.000 
#    0.000    0.000    0.000    1.200    5.200    0.133 
#
# Total GULP energy -167235.686251 kJ/mol
# GULP energy per Si atom -5574.522875 kJ/mol
# Density = 1.950166 g / cm^3
# Si number density = 19.546146 Si / 1000 Ang^3
#
#
#
# Elastic Constant Matrix: (Units=GPa)
#
#
# Indices 1 2 3 4 5 6 
#
# 1 106.3586 9.9901 31.4367 0.0000 -11.3007 0.0000
# 2 9.9901 82.1816 9.7103 0.0000 12.6235 0.0000
# 3 31.4367 9.7103 36.9560 0.0000 -21.7876 0.0000
# 4 0.0000 0.0000 0.0000 19.3400 0.0000 -4.5224
# 5 -11.3007 12.6235 -21.7876 0.0000 38.6309 0.0000
# 6 0.0000 0.0000 0.0000 -4.5224 0.0000 25.0627
#
#
#
# Elastic Compliance Matrix: (Units=1/GPa)
#
#
# Indices 1 2 3 4 5 6 
#
# 1 0.012918 0.000663 -0.013577 0.000000 -0.004095 0.000000
# 2 0.000663 0.015055 -0.010945 0.000000 -0.010898 0.000000
# 3 -0.013577 -0.010945 0.061800 0.000000 0.034460 0.000000
# 4 0.000000 0.000000 0.000000 0.053984 0.000000 0.009741
# 5 -0.004095 -0.010898 0.034460 0.000000 0.047684 0.000000
# 6 0.000000 0.000000 0.000000 0.009741 0.000000 0.041658
#
#
# Mechanical properties :
#
#
# Convention : Reuss Voigt Hill
#
# Bulk Modulus (GPa) = 23.77843 36.41895 30.09869
# Shear Modulus (GPa) = 16.95862 28.23065 22.59463
#
# Velocity S-wave (km/s) = 2.94873 3.80453 3.40364
# Velocity P-wave (km/s) = 4.87699 6.16214 5.55684
#
# Compressibility (1/GPa) = 0.04205493
#
# Stress axis : x y z
#
# Youngs Moduli (GPa) = 77.41275 66.42387 16.18118
#
# Poissons Ratio (x) = -0.04404 0.21969
# Poissons Ratio (y) = -0.05132 0.17710
# Poissons Ratio (z) = 1.05104 0.72700
#
# Static dielectric constant tensor:
#      x y z
#    x 1.744260 0.000000 -0.044730 
#    y 0.000000 1.720780 0.000000 
#    z -0.044730 0.000000 1.793670 
# 
# From -- ./inp_files/59286.got.cif
#   From: 2010.05.17/outbox.cif.g08.bks.cpg/sg15_30_cif.got.tgz:59286.got - 2010.06.03 18:47:42.
