data_PCOD9268098
_publ_section_title
;
Structure prediction by ZEFSAII (Michael W. Deem and Ramdas Pophale) SiO2 
 PCOD9268098
Probable space group: C 2/C
;
_chemical_formula_sum "Si O2"
_cell_formula_units_Z 40
_cell_length_a 23.660898
_cell_length_b 8.249367
_cell_length_c 8.964012
_cell_angle_alpha 90.000000
_cell_angle_beta 85.969997
_cell_angle_gamma 90.000000
_cell_volume 1745.336234
_symmetry_space_group_name_H-M "C 2/C"
_symmetry_group_IT_number 15
_symmetry_cell_setting 'monoclinic'
loop_
_space_group_symop_operation_xyz
x,y,z
-x,y,1/2-z
-x,-y,-z
x,-y,1/2+z
1/2+x,1/2+y,z
1/2-x,1/2+y,1/2-z
1/2-x,1/2-y,-z
1/2+x,1/2-y,1/2+z
loop_
_atom_site_type_symbol
_atom_site_label
_atom_site_fract_x
_atom_site_fract_y
_atom_site_fract_z
Si Si1 0.426277 0.110696 0.016880
Si Si2 0.500000 0.720283 0.750000
Si Si3 0.695551 0.342657 0.078482
Si Si4 0.309130 0.696276 0.560862
Si Si5 0.575429 0.275014 0.986166
Si Si6 0.000000 0.215567 0.250000
O O1 0.455353 0.177830 0.161193
O O2 0.361795 0.180187 0.023296
O O3 0.435350 0.918476 0.016455
O O4 0.461401 0.184228 0.873163
O O5 0.540269 0.636407 0.623062
O O6 0.695712 0.327968 0.258541
O O7 0.750000 0.250000 0.000000
O O8 0.685196 0.526026 0.025401
O O9 0.640584 0.267467 0.012833
O O10 0.250000 0.750000 0.500000
O O11 0.549724 0.358445 0.844373
#
# Coordination Sequence:
#
# PCOD9268098 Si02
#       6
#     8   4   8   8   8   4
#     4  11  21  40  70 102 140 181 231 278 339 400
#     4  10  19  42  63 102 137 184 229 276 333 406
#     4  12  28  49  73 100 137 180 233 290 352 416
#     4  12  28  49  73 100 137 180 233 290 352 416
#     4  11  21  40  70 102 140 181 231 278 339 400
#     4  10  23  34  71 106 139 182 231 282 325 414
#
# _framework density 22.918220000000002
#
# number of rings (size 3 to 8) (size 9 to 14) (size 15 to 20)
#    0.000    0.800    2.000    7.200    5.600    0.000 
#    0.000    6.000    0.000    0.000    0.000    0.000 
#    0.000    0.000    0.000    0.000    0.000    0.000 
#
# Total GULP energy -111621.104337 kJ/mol
# GULP energy per Si atom -5581.055217 kJ/mol
# Density = 2.286606 g / cm^3
# Si number density = 22.918220 Si / 1000 Ang^3
#
#
#
# Elastic Constant Matrix: (Units=GPa)
#
#
# Indices 1 2 3 4 5 6 
#
# 1 217.2959 16.1263 71.6097 0.0000 24.3589 0.0000
# 2 16.1263 53.6193 26.1682 0.0000 0.2264 0.0000
# 3 71.6097 26.1682 162.6108 0.0000 24.2264 0.0000
# 4 0.0000 0.0000 0.0000 27.3580 0.0000 4.4869
# 5 24.3589 0.2264 24.2264 0.0000 42.0140 0.0000
# 6 0.0000 0.0000 0.0000 4.4869 0.0000 34.9138
#
#
#
# Elastic Compliance Matrix: (Units=1/GPa)
#
#
# Indices 1 2 3 4 5 6 
#
# 1 0.005550 -0.000669 -0.002032 0.000000 -0.002043 0.000000
# 2 -0.000669 0.020465 -0.003326 0.000000 0.002195 0.000000
# 3 -0.002032 -0.003326 0.008097 0.000000 -0.003473 0.000000
# 4 0.000000 0.000000 0.000000 0.037339 0.000000 -0.004799
# 5 -0.002043 0.002195 -0.003473 0.000000 0.026977 0.000000
# 6 0.000000 0.000000 0.000000 -0.004799 0.000000 0.029259
#
#
# Mechanical properties :
#
#
# Convention : Reuss Voigt Hill
#
# Bulk Modulus (GPa) = 45.33373 73.48158 59.40766
# Shear Modulus (GPa) = 33.99184 42.16528 38.07856
#
# Velocity S-wave (km/s) = 3.85539 4.29396 4.08057
# Velocity P-wave (km/s) = 6.29621 7.53102 6.94113
#
# Compressibility (1/GPa) = 0.02205863
#
# Stress axis : x y z
#
# Youngs Moduli (GPa) = 180.16834 48.86388 123.49874
#
# Poissons Ratio (x) = 0.03268 0.25099
# Poissons Ratio (y) = 0.12050 0.41074
# Poissons Ratio (z) = 0.36616 0.16251
#
# Static dielectric constant tensor:
#      x y z
#    x 3.134490 0.000000 0.208830 
#    y 0.000000 1.636140 0.000000 
#    z 0.208830 0.000000 1.898350 
# 
# From -- ./inp_files/59963.got.cif
#   From: 2010.05.17/outbox.cif.g08.bks.cpg/sg15_30_cif.got.tgz:59963.got - 2010.06.03 18:47:42.
