data_PCOD9268413
_publ_section_title
;
Structure prediction by ZEFSAII (Michael W. Deem and Ramdas Pophale) SiO2 
 PCOD9268413
Probable space group: C 2/C
;
_chemical_formula_sum "Si O2"
_cell_formula_units_Z 56
_cell_length_a 13.978828
_cell_length_b 12.733748
_cell_length_c 23.345279
_cell_angle_alpha 90.000000
_cell_angle_beta 35.007457
_cell_angle_gamma 90.000000
_cell_volume 2383.955225
_symmetry_space_group_name_H-M "C 2/C"
_symmetry_group_IT_number 15
_symmetry_cell_setting 'monoclinic'
loop_
_space_group_symop_operation_xyz
x,y,z
-x,y,1/2-z
-x,-y,-z
x,-y,1/2+z
1/2+x,1/2+y,z
1/2-x,1/2+y,1/2-z
1/2-x,1/2-y,-z
1/2+x,1/2-y,1/2+z
loop_
_atom_site_type_symbol
_atom_site_label
_atom_site_fract_x
_atom_site_fract_y
_atom_site_fract_z
Si Si1 0.332628 0.108296 0.545970
Si Si2 0.277927 0.205862 0.840685
Si Si3 0.856506 0.379876 0.524848
Si Si4 0.943878 0.215259 0.143130
Si Si5 0.119527 0.229783 0.737298
Si Si6 0.861845 0.033930 0.520347
Si Si7 0.571805 0.316228 0.055959
O O1 0.516125 0.105442 0.484434
O O2 0.207041 0.137051 0.658516
O O3 0.336929 0.206861 0.501846
O O4 0.297787 0.994760 0.537855
O O5 0.279714 0.299870 0.885544
O O6 0.386531 0.249244 0.734619
O O7 0.092336 0.191200 0.904889
O O8 0.285584 0.097976 0.874350
O O9 0.957552 0.317183 0.427846
O O10 0.770815 0.205629 0.191281
O O11 0.053907 0.114969 0.067678
O O12 0.000000 0.286602 0.750000
O O13 0.009867 0.182069 0.841628
O O14 0.826480 0.920064 0.510526
O O15 0.000000 0.000000 0.500000
#
# Coordination Sequence:
#
# PCOD9268413 Si02
#       7
#     8   8   8   8   8   8   8
#     4   9  17  31  45  68 101 128 159 204 244 300
#     4   8  15  27  44  71  99 124 154 195 255 302
#     4   8  15  28  46  68 101 126 154 202 252 295
#     4   9  17  30  48  74 103 131 163 203 255 301
#     4  10  20  32  46  69 101 141 174 194 236 301
#     4   9  16  29  47  69 104 125 157 207 256 299
#     4   9  18  31  45  73  96 130 163 200 253 292
#
# _framework density 23.490375
#
# number of rings (size 3 to 8) (size 9 to 14) (size 15 to 20)
#    0.000    3.143    0.000    2.571    2.000    0.571 
#   18.000    0.000    0.000    0.000    0.000    4.000 
#    0.000   53.143    0.000   12.143    0.000    0.000 
#
# Total GULP energy -156149.003365 kJ/mol
# GULP energy per Si atom -5576.750120 kJ/mol
# Density = 2.343691 g / cm^3
# Si number density = 23.490375 Si / 1000 Ang^3
#
#
#
# Elastic Constant Matrix: (Units=GPa)
#
#
# Indices 1 2 3 4 5 6 
#
# 1 72.9425 42.3050 34.5754 0.0000 -7.4721 0.0000
# 2 42.3050 199.9061 82.0834 -0.0001 30.7102 0.0000
# 3 34.5754 82.0834 95.0152 -0.0006 27.5220 0.0001
# 4 0.0000 -0.0001 -0.0006 12.3837 0.0001 2.8719
# 5 -7.4721 30.7102 27.5220 0.0001 31.3130 0.0000
# 6 0.0000 0.0000 0.0001 2.8719 0.0000 19.8410
#
#
#
# Elastic Compliance Matrix: (Units=1/GPa)
#
#
# Indices 1 2 3 4 5 6 
#
# 1 0.022316 -0.003100 -0.010553 -0.000001 0.017640 0.000000
# 2 -0.003100 0.008309 -0.004662 0.000000 -0.004790 0.000000
# 3 -0.010553 -0.004662 0.023876 0.000001 -0.018931 0.000000
# 4 -0.000001 0.000000 0.000001 0.083556 -0.000002 -0.012094
# 5 0.017640 -0.004790 -0.018931 -0.000002 0.057482 0.000000
# 6 0.000000 0.000000 0.000000 -0.012094 0.000000 0.052151
#
#
# Mechanical properties :
#
#
# Convention : Reuss Voigt Hill
#
# Bulk Modulus (GPa) = 55.95429 76.19908 66.07668
# Shear Modulus (GPa) = 17.22498 26.63421 21.92959
#
# Velocity S-wave (km/s) = 2.71085 3.37090 3.05873
# Velocity P-wave (km/s) = 5.80259 6.90358 6.37689
#
# Compressibility (1/GPa) = 0.01787173
#
# Stress axis : x y z
#
# Youngs Moduli (GPa) = 44.81064 120.35743 41.88336
#
# Poissons Ratio (x) = 0.37306 0.44198
# Poissons Ratio (y) = 0.13889 0.19527
# Poissons Ratio (z) = 0.47287 0.56114
#
# Static dielectric constant tensor:
#      x y z
#    x 2.011240 0.000000 -0.034630 
#    y 0.000000 1.861130 0.000000 
#    z -0.034630 0.000000 1.810390 
# 
# From -- ./inp_files/274160.got.cif
#   From: 2010.05.17/outbox.cif.g08.bks.cpg/sg15_138_cif.got.tgz:274160.got - 2010.06.03 18:47:42.
