data_PCOD9268063
_publ_section_title
;
Structure prediction by ZEFSAII (Michael W. Deem and Ramdas Pophale) SiO2 
 PCOD9268063
Probable space group: C 2/C
;
_chemical_formula_sum "Si O2"
_cell_formula_units_Z 40
_cell_length_a 13.399279
_cell_length_b 11.689011
_cell_length_c 24.498764
_cell_angle_alpha 90.000000
_cell_angle_beta 32.012000
_cell_angle_gamma 90.000000
_cell_volume 2034.035879
_symmetry_space_group_name_H-M "C 2/C"
_symmetry_group_IT_number 15
_symmetry_cell_setting 'monoclinic'
loop_
_space_group_symop_operation_xyz
x,y,z
-x,y,1/2-z
-x,-y,-z
x,-y,1/2+z
1/2+x,1/2+y,z
1/2-x,1/2+y,1/2-z
1/2-x,1/2-y,-z
1/2+x,1/2-y,1/2+z
loop_
_atom_site_type_symbol
_atom_site_label
_atom_site_fract_x
_atom_site_fract_y
_atom_site_fract_z
Si Si1 0.256125 0.236915 0.717515
Si Si2 0.781810 0.776816 0.834134
Si Si3 0.227072 0.960980 0.149206
Si Si4 0.536859 0.628457 0.464256
Si Si5 0.187243 0.764555 0.090337
O O1 0.266458 0.238745 0.777968
O O2 0.299157 0.116547 0.666529
O O3 0.391132 0.335324 0.629501
O O4 0.036797 0.251331 0.802878
O O5 0.000000 0.768546 0.750000
O O6 0.713736 0.908253 0.873016
O O7 0.648086 0.699565 0.933516
O O8 0.263325 0.885564 0.078511
O O9 0.000000 0.966707 0.250000
O O10 0.500000 0.500000 0.500000
O O11 0.709183 0.672263 0.421039
O O12 0.250000 0.750000 0.000000
#
# Coordination Sequence:
#
# PCOD9268063 Si02
#       5
#     8   8   8   8   8
#     4  10  22  41  66  91 124 167 216 263 320 382
#     4  11  24  41  63  94 129 169 211 264 332 381
#     4   8  19  38  63  90 122 154 210 264 307 382
#     4  11  25  41  61  96 135 164 212 269 323 386
#     4  10  19  41  70  93 118 169 220 264 320 385
#
# _framework density 19.665337000000001
#
# number of rings (size 3 to 8) (size 9 to 14) (size 15 to 20)
#    0.000    2.000    2.000    1.800    2.800    7.200 
#    0.000    0.000    0.000    0.000    0.000    0.000 
#    0.000    0.000    0.000    0.000    0.000    0.000 
#
# Total GULP energy -111507.731245 kJ/mol
# GULP energy per Si atom -5575.386562 kJ/mol
# Density = 1.962058 g / cm^3
# Si number density = 19.665337 Si / 1000 Ang^3
#
#
#
# Elastic Constant Matrix: (Units=GPa)
#
#
# Indices 1 2 3 4 5 6 
#
# 1 76.1108 5.7405 22.3495 0.0000 -7.0835 0.0000
# 2 5.7405 128.8751 41.1497 0.0000 -7.1568 0.0000
# 3 22.3495 41.1497 118.5370 -0.0001 -3.8551 -0.0001
# 4 0.0000 0.0000 -0.0001 30.6199 0.0000 -6.8237
# 5 -7.0835 -7.1568 -3.8551 0.0000 40.0079 0.0000
# 6 0.0000 0.0000 -0.0001 -6.8237 0.0000 4.3165
#
#
#
# Elastic Compliance Matrix: (Units=1/GPa)
#
#
# Indices 1 2 3 4 5 6 
#
# 1 0.014123 0.000366 -0.002715 0.000000 0.002304 0.000000
# 2 0.000366 0.008801 -0.003081 0.000000 0.001342 0.000000
# 3 -0.002715 -0.003081 0.010015 0.000000 -0.000067 0.000000
# 4 0.000000 0.000000 0.000000 0.050422 0.000000 0.079709
# 5 0.002304 0.001342 -0.000067 0.000000 0.025637 0.000000
# 6 0.000000 0.000000 0.000000 0.079709 0.000000 0.357678
#
#
# Mechanical properties :
#
#
# Convention : Reuss Voigt Hill
#
# Bulk Modulus (GPa) = 45.28982 51.33358 48.31170
# Shear Modulus (GPa) = 10.31151 31.94106 21.12629
#
# Velocity S-wave (km/s) = 2.29235 4.03455 3.28119
# Velocity P-wave (km/s) = 5.48514 6.91836 6.24302
#
# Compressibility (1/GPa) = 0.02208001
#
# Stress axis : x y z
#
# Youngs Moduli (GPa) = 70.80745 113.61890 99.84710
#
# Poissons Ratio (x) = -0.04155 0.27106
# Poissons Ratio (y) = -0.02590 0.30759
# Poissons Ratio (z) = 0.19223 0.35002
#
# Static dielectric constant tensor:
#      x y z
#    x 1.670070 0.000000 0.012580 
#    y 0.000000 1.718100 0.000000 
#    z 0.012580 0.000000 1.741770 
# 
# From -- ./inp_files/151221.got.cif
#   From: 2010.05.17/outbox.cif.g08.bks.cpg/sg15_76_cif.got.tgz:151221.got - 2010.06.03 18:47:42.
