data_PCOD9268263
_publ_section_title
;
Structure prediction by ZEFSAII (Michael W. Deem and Ramdas Pophale) SiO2 
 PCOD9268263
Probable space group: C 2/C
;
_chemical_formula_sum "Si O2"
_cell_formula_units_Z 40
_cell_length_a 11.298002
_cell_length_b 26.317477
_cell_length_c 12.151887
_cell_angle_alpha 90.000000
_cell_angle_beta 142.529492
_cell_angle_gamma 90.000000
_cell_volume 2198.088955
_symmetry_space_group_name_H-M "C 2/C"
_symmetry_group_IT_number 15
_symmetry_cell_setting 'monoclinic'
loop_
_space_group_symop_operation_xyz
x,y,z
-x,y,1/2-z
-x,-y,-z
x,-y,1/2+z
1/2+x,1/2+y,z
1/2-x,1/2+y,1/2-z
1/2-x,1/2-y,-z
1/2+x,1/2-y,1/2+z
loop_
_atom_site_type_symbol
_atom_site_label
_atom_site_fract_x
_atom_site_fract_y
_atom_site_fract_z
Si Si1 0.435456 0.315105 0.584955
Si Si2 0.261163 0.529183 0.210694
Si Si3 0.000000 0.283652 0.250000
Si Si4 0.000000 0.949126 0.250000
Si Si5 0.564838 0.938456 0.173908
Si Si6 0.016937 0.898722 0.041150
O O1 0.500000 0.339185 0.750000
O O2 0.501187 0.256415 0.648603
O O3 0.522455 0.345349 0.546807
O O4 0.200834 0.313650 0.404834
O O5 0.340453 0.487631 0.182426
O O6 0.140531 0.496240 0.210015
O O7 0.435628 0.558338 0.398102
O O8 0.116773 0.567027 0.041657
O O9 0.936237 0.913639 0.101184
O O10 0.500000 0.930786 0.250000
O O11 0.749970 0.904490 0.280814
#
# Coordination Sequence:
#
# PCOD9268263 Si02
#       6
#     8   8   4   4   8   8
#     4   9  19  34  56  81 102 127 162 217 275 316
#     4  10  20  34  48  68 104 153 178 210 248 289
#     4   8  18  37  56  82 104 122 156 223 280 322
#     4  10  20  37  48  70 114 146 182 207 252 296
#     4  10  20  30  47  72 100 137 179 218 247 286
#     4  11  22  32  54  77 103 143 177 219 249 313
#
# _framework density 18.197626
#
# number of rings (size 3 to 8) (size 9 to 14) (size 15 to 20)
#    0.600    1.600    0.000    4.800    5.600    0.000 
#    0.000    0.000    0.000    1.200    0.000    0.000 
#    0.000    0.000    0.000    0.000    0.000    0.000 
#
# Total GULP energy -111399.563587 kJ/mol
# GULP energy per Si atom -5569.978179 kJ/mol
# Density = 1.815621 g / cm^3
# Si number density = 18.197626 Si / 1000 Ang^3
#
#
#
# Elastic Constant Matrix: (Units=GPa)
#
#
# Indices 1 2 3 4 5 6 
#
# 1 65.7244 25.0166 25.6182 0.0000 -13.2997 0.0000
# 2 25.0166 57.8363 28.3043 0.0000 -13.1273 0.0000
# 3 25.6182 28.3043 102.2059 0.0000 -2.0327 0.0000
# 4 0.0000 0.0000 0.0000 6.8338 0.0000 -4.7429
# 5 -13.2997 -13.1273 -2.0327 0.0000 25.1377 0.0000
# 6 0.0000 0.0000 0.0000 -4.7429 0.0000 18.2631
#
#
#
# Elastic Compliance Matrix: (Units=1/GPa)
#
#
# Indices 1 2 3 4 5 6 
#
# 1 0.020101 -0.005297 -0.003420 0.000000 0.007592 0.000000
# 2 -0.005297 0.024275 -0.005207 0.000000 0.009453 0.000000
# 3 -0.003420 -0.005207 0.012013 0.000000 -0.003557 0.000000
# 4 0.000000 0.000000 0.000000 0.178506 0.000000 0.046358
# 5 0.007592 0.009453 -0.003557 0.000000 0.048446 0.000000
# 6 0.000000 0.000000 0.000000 0.046358 0.000000 0.066794
#
#
# Mechanical properties :
#
#
# Convention : Reuss Voigt Hill
#
# Bulk Modulus (GPa) = 35.03897 42.62720 38.83308
# Shear Modulus (GPa) = 12.90331 19.83543 16.36937
#
# Velocity S-wave (km/s) = 2.66572 3.30510 3.00248
# Velocity P-wave (km/s) = 5.36388 6.16769 5.77977
#
# Compressibility (1/GPa) = 0.02853965
#
# Stress axis : x y z
#
# Youngs Moduli (GPa) = 49.74917 41.19419 83.24537
#
# Poissons Ratio (x) = 0.21822 0.28472
# Poissons Ratio (y) = 0.26354 0.43344
# Poissons Ratio (z) = 0.17016 0.21449
#
# Static dielectric constant tensor:
#      x y z
#    x 1.629400 0.000000 0.007140 
#    y 0.000000 1.656970 0.000000 
#    z 0.007140 0.000000 1.681700 
# 
# From -- ./inp_files/91907.got.cif
#   From: 2010.05.17/outbox.cif.g08.bks.cpg/sg15_46_cif.got.tgz:91907.got - 2010.06.03 18:47:42.
