data_PCOD9268419
_publ_section_title
;
Structure prediction by ZEFSAII (Michael W. Deem and Ramdas Pophale) SiO2 
 PCOD9268419
Probable space group: C 2/C
;
_chemical_formula_sum "Si O2"
_cell_formula_units_Z 48
_cell_length_a 21.343275
_cell_length_b 12.782232
_cell_length_c 24.534212
_cell_angle_alpha 90.000000
_cell_angle_beta 20.128861
_cell_angle_gamma 90.000000
_cell_volume 2303.381106
_symmetry_space_group_name_H-M "C 2/C"
_symmetry_group_IT_number 15
_symmetry_cell_setting 'monoclinic'
loop_
_space_group_symop_operation_xyz
x,y,z
-x,y,1/2-z
-x,-y,-z
x,-y,1/2+z
1/2+x,1/2+y,z
1/2-x,1/2+y,1/2-z
1/2-x,1/2-y,-z
1/2+x,1/2-y,1/2+z
loop_
_atom_site_type_symbol
_atom_site_label
_atom_site_fract_x
_atom_site_fract_y
_atom_site_fract_z
Si Si1 0.451150 0.045346 0.645518
Si Si2 0.294426 0.568206 0.815124
Si Si3 0.596655 0.285303 0.082669
Si Si4 0.187324 0.906218 0.787966
Si Si5 0.529251 0.209369 0.957238
Si Si6 0.109404 0.402623 0.717641
O O1 0.646819 0.994536 0.470784
O O2 0.299713 0.982421 0.735205
O O3 0.399870 0.016914 0.748881
O O4 0.457304 0.159452 0.614355
O O5 0.442799 0.633150 0.727703
O O6 0.383155 0.481520 0.702513
O O7 0.184160 0.652328 0.867626
O O8 0.490577 0.177579 0.158936
O O9 0.750000 0.250000 0.000000
O O10 0.699280 0.346694 0.951032
O O11 0.340271 0.828984 0.637420
O O12 0.052203 0.832905 0.931972
O O13 0.000000 0.402742 0.750000
#
# Coordination Sequence:
#
# PCOD9268419 Si02
#       6
#     8   8   8   8   8   8
#     4   9  18  33  50  71 104 139 170 210 255 304
#     4   9  18  33  50  71 104 139 168 208 260 310
#     4  10  20  32  47  70  98 131 170 208 250 299
#     4   9  18  31  49  75 104 135 169 207 258 310
#     4   9  18  31  49  75 104 135 171 208 256 313
#     4  10  20  32  47  70  97 131 169 209 250 296
#
# _framework density 20.838932
#
# number of rings (size 3 to 8) (size 9 to 14) (size 15 to 20)
#    0.000    2.667    0.000    4.000    0.000    6.667 
#    0.000    3.333    0.000    0.000    0.000   22.167 
#    0.000    0.000    0.000    0.000    0.000    0.000 
#
# Total GULP energy -133836.685602 kJ/mol
# GULP energy per Si atom -5576.528567 kJ/mol
# Density = 2.079150 g / cm^3
# Si number density = 20.838932 Si / 1000 Ang^3
#
#
#
# Elastic Constant Matrix: (Units=GPa)
#
#
# Indices 1 2 3 4 5 6 
#
# 1 44.0134 13.7285 22.7121 -0.0004 1.9636 0.0004
# 2 13.7285 40.0205 13.1588 0.0001 -13.2982 0.0007
# 3 22.7121 13.1588 36.3954 -0.0114 -6.4175 0.0028
# 4 -0.0004 0.0001 -0.0114 40.0951 0.0015 9.5139
# 5 1.9636 -13.2982 -6.4175 0.0015 22.6557 0.0005
# 6 0.0004 0.0007 0.0028 9.5139 0.0005 30.9663
#
#
#
# Elastic Compliance Matrix: (Units=1/GPa)
#
#
# Indices 1 2 3 4 5 6 
#
# 1 0.038888 -0.011223 -0.023121 -0.000007 -0.016507 0.000004
# 2 -0.011223 0.036950 -0.002484 -0.000002 0.021958 0.000000
# 3 -0.023121 -0.002484 0.045154 0.000014 0.013336 -0.000008
# 4 -0.000007 -0.000002 0.000014 0.026902 0.000002 -0.008265
# 5 -0.016507 0.021958 0.013336 0.000002 0.062236 -0.000003
# 6 0.000004 0.000000 -0.000008 -0.008265 -0.000003 0.034833
#
#
# Mechanical properties :
#
#
# Convention : Reuss Voigt Hill
#
# Bulk Modulus (GPa) = 21.12533 24.40312 22.76423
# Shear Modulus (GPa) = 14.95228 23.46542 19.20885
#
# Velocity S-wave (km/s) = 2.68156 3.35929 3.03937
# Velocity P-wave (km/s) = 4.44377 5.17515 4.82334
#
# Compressibility (1/GPa) = 0.04733653
#
# Stress axis : x y z
#
# Youngs Moduli (GPa) = 25.71456 27.06354 22.14651
#
# Poissons Ratio (x) = 0.30374 0.51204
# Poissons Ratio (y) = 0.28860 0.05501
# Poissons Ratio (z) = 0.59454 0.06722
#
# Static dielectric constant tensor:
#      x y z
#    x 1.788280 0.000000 0.023070 
#    y 0.000000 1.747790 0.000000 
#    z 0.023070 0.000000 1.833420 
# 
# From -- ./inp_files/55218.got.cif
#   From: 2010.05.17/outbox.cif.g08.bks.cpg/sg15_28_cif.got.tgz:55218.got - 2010.06.03 18:47:42.
