data_PCOD9268774
_publ_section_title
;
Structure prediction by ZEFSAII (Michael W. Deem and Ramdas Pophale) SiO2 
 PCOD9268774
Probable space group: C 2/C
;
_chemical_formula_sum "Si O2"
_cell_formula_units_Z 48
_cell_length_a 12.202005
_cell_length_b 21.961935
_cell_length_c 12.121251
_cell_angle_alpha 90.000000
_cell_angle_beta 38.389700
_cell_angle_gamma 90.000000
_cell_volume 2017.184680
_symmetry_space_group_name_H-M "C 2/C"
_symmetry_group_IT_number 15
_symmetry_cell_setting 'monoclinic'
loop_
_space_group_symop_operation_xyz
x,y,z
-x,y,1/2-z
-x,-y,-z
x,-y,1/2+z
1/2+x,1/2+y,z
1/2-x,1/2+y,1/2-z
1/2-x,1/2-y,-z
1/2+x,1/2-y,1/2+z
loop_
_atom_site_type_symbol
_atom_site_label
_atom_site_fract_x
_atom_site_fract_y
_atom_site_fract_z
Si Si1 0.794643 0.131005 0.437033
Si Si2 0.607515 0.339734 0.403761
Si Si3 0.081430 0.049066 0.517579
Si Si4 0.851470 0.493973 0.463486
Si Si5 0.264169 0.789429 0.707679
Si Si6 0.551831 0.896162 0.837175
O O1 0.783740 0.133916 0.577598
O O2 0.744089 0.193421 0.415578
O O3 0.000000 0.119238 0.250000
O O4 0.684548 0.074964 0.473333
O O5 0.552144 0.394194 0.366099
O O6 0.707668 0.280286 0.283850
O O7 0.422531 0.312559 0.596951
O O8 0.168278 0.017324 0.554703
O O9 0.253300 0.075616 0.320852
O O10 0.000000 0.000000 0.500000
O O11 0.000000 0.489524 0.250000
O O12 0.922442 0.550040 0.481186
O O13 0.423560 0.831481 0.625869
O O14 0.500000 0.884684 0.750000
#
# Coordination Sequence:
#
# PCOD9268774 Si02
#       6
#     8   8   8   8   8   8
#     4  10  20  33  52  77 113 140 169 220 270 313
#     4  10  20  35  54  78 107 143 178 214 262 319
#     4   9  15  31  56  75  98 135 181 212 252 310
#     4   9  18  33  54  81 104 139 179 216 262 316
#     4  10  21  36  51  76 107 145 174 215 268 315
#     4   8  18  35  54  78 107 138 174 222 271 310
#
# _framework density 23.795539999999999
#
# number of rings (size 3 to 8) (size 9 to 14) (size 15 to 20)
#    0.000    3.000    1.667    0.500    0.000    2.000 
#    0.000    9.167    0.000    0.000    0.000    0.000 
#    0.000    0.000    0.000    0.000    0.000    0.000 
#
# Total GULP energy -133987.287634 kJ/mol
# GULP energy per Si atom -5582.803651 kJ/mol
# Density = 2.374138 g / cm^3
# Si number density = 23.795540 Si / 1000 Ang^3
#
#
#
# Elastic Constant Matrix: (Units=GPa)
#
#
# Indices 1 2 3 4 5 6 
#
# 1 62.8363 23.5665 23.4167 -0.0003 -24.9534 0.0002
# 2 23.5665 114.4679 31.8602 -0.0003 -15.9070 0.0003
# 3 23.4167 31.8602 57.4307 -0.0005 -14.4469 0.0005
# 4 -0.0003 -0.0003 -0.0005 34.8001 0.0003 -11.4741
# 5 -24.9534 -15.9070 -14.4469 0.0003 21.7573 -0.0003
# 6 0.0002 0.0003 0.0005 -11.4741 -0.0003 29.1601
#
#
#
# Elastic Compliance Matrix: (Units=1/GPa)
#
#
# Indices 1 2 3 4 5 6 
#
# 1 0.030137 -0.000734 -0.003987 0.000000 0.031380 0.000000
# 2 -0.000734 0.010730 -0.004672 0.000000 0.003900 0.000000
# 3 -0.003987 -0.004672 0.023555 0.000000 0.007652 0.000000
# 4 0.000000 0.000000 0.000000 0.033019 0.000000 0.012993
# 5 0.031380 0.003900 0.007652 0.000000 0.089884 0.000000
# 6 0.000000 0.000000 0.000000 0.012993 0.000000 0.039406
#
#
# Mechanical properties :
#
#
# Convention : Reuss Voigt Hill
#
# Bulk Modulus (GPa) = 21.91290 43.60242 32.75766
# Shear Modulus (GPa) = 19.17709 27.53628 23.35668
#
# Velocity S-wave (km/s) = 2.84194 3.40546 3.13638
# Velocity P-wave (km/s) = 4.47187 5.81605 5.18768
#
# Compressibility (1/GPa) = 0.04563522
#
# Stress axis : x y z
#
# Youngs Moduli (GPa) = 33.18170 93.20044 42.45467
#
# Poissons Ratio (x) = 0.06842 0.16927
# Poissons Ratio (y) = 0.02436 0.19834
# Poissons Ratio (z) = 0.13230 0.43542
#
# Static dielectric constant tensor:
#      x y z
#    x 1.986570 0.000000 0.068760 
#    y 0.000000 1.915550 0.000000 
#    z 0.068760 0.000000 1.951440 
# 
# From -- ./inp_files/206691.got.cif
#   From: 2010.05.17/outbox.cif.g08.bks.cpg/sg15_104_cif.got.tgz:206691.got - 2010.06.03 18:47:42.
