data_PCOD9268351
_publ_section_title
;
Structure prediction by ZEFSAII (Michael W. Deem and Ramdas Pophale) SiO2 
 PCOD9268351
Probable space group: C 2/C
;
_chemical_formula_sum "Si O2"
_cell_formula_units_Z 56
_cell_length_a 28.484220
_cell_length_b 14.559386
_cell_length_c 23.815055
_cell_angle_alpha 90.000000
_cell_angle_beta 159.952990
_cell_angle_gamma 90.000000
_cell_volume 3385.543708
_symmetry_space_group_name_H-M "C 2/C"
_symmetry_group_IT_number 15
_symmetry_cell_setting 'monoclinic'
loop_
_space_group_symop_operation_xyz
x,y,z
-x,y,1/2-z
-x,-y,-z
x,-y,1/2+z
1/2+x,1/2+y,z
1/2-x,1/2+y,1/2-z
1/2-x,1/2-y,-z
1/2+x,1/2-y,1/2+z
loop_
_atom_site_type_symbol
_atom_site_label
_atom_site_fract_x
_atom_site_fract_y
_atom_site_fract_z
Si Si1 0.783434 0.229593 0.793427
Si Si2 0.663037 0.438443 0.231400
Si Si3 0.894699 0.327522 0.712007
Si Si4 0.540528 0.850210 0.078064
Si Si5 0.342043 0.422749 0.872618
Si Si6 0.198522 0.336304 0.018794
Si Si7 0.402199 0.042314 0.322057
O O1 0.806842 0.150051 0.774146
O O2 0.692539 0.188681 0.741421
O O3 0.693678 0.315142 0.670003
O O4 0.930730 0.273953 0.972178
O O5 0.691403 0.527094 0.224323
O O6 0.749429 0.420604 0.384712
O O7 0.501337 0.438923 0.063034
O O8 0.830112 0.353381 0.579191
O O9 0.812069 0.243513 0.646637
O O10 0.887254 0.411950 0.745665
O O11 0.053410 0.302740 0.880418
O O12 0.535468 0.941108 0.109846
O O13 0.493885 0.890304 0.964394
O O14 0.241443 0.464026 0.806258
#
# Coordination Sequence:
#
# PCOD9268351 Si02
#       7
#     8   8   8   8   8   8   8
#     4  11  19  33  48  75 105 140 170 210 265 324
#     4  11  21  34  52  77 115 136 177 219 268 323
#     4  10  22  37  53  78 108 144 190 213 262 324
#     4  10  20  31  51  74 104 141 171 212 275 305
#     4  10  22  33  50  80 106 142 174 219 272 320
#     4  10  22  36  55  76 107 149 180 221 262 314
#     4  10  20  34  52  75 106 142 180 219 260 330
#
# _framework density 16.540917
#
# number of rings (size 3 to 8) (size 9 to 14) (size 15 to 20)
#    0.000    1.714    2.857    2.571    8.000    0.000 
#    0.000    0.000    0.000    0.000    0.000    1.000 
#    8.571    0.000    0.000    0.000    0.000    0.000 
#
# Total GULP energy -156218.112839 kJ/mol
# GULP energy per Si atom -5579.218316 kJ/mol
# Density = 1.650327 g / cm^3
# Si number density = 16.540917 Si / 1000 Ang^3
#
#
#
# Elastic Constant Matrix: (Units=GPa)
#
#
# Indices 1 2 3 4 5 6 
#
# 1 65.3549 15.7784 38.2829 0.0000 14.1707 -0.0001
# 2 15.7784 50.5360 18.4650 0.0004 0.6880 0.0003
# 3 38.2829 18.4650 66.6575 0.0000 12.1900 0.0000
# 4 0.0000 0.0004 0.0000 19.8701 0.0002 0.2883
# 5 14.1707 0.6880 12.1900 0.0002 26.2423 0.0000
# 6 -0.0001 0.0003 0.0000 0.2883 0.0000 21.4527
#
#
#
# Elastic Compliance Matrix: (Units=1/GPa)
#
#
# Indices 1 2 3 4 5 6 
#
# 1 0.024730 -0.003276 -0.011878 0.000000 -0.007751 0.000000
# 2 -0.003276 0.022597 -0.005020 0.000000 0.003508 0.000000
# 3 -0.011878 -0.005020 0.024062 0.000000 -0.004631 0.000000
# 4 0.000000 0.000000 0.000000 0.050337 -0.000001 -0.000677
# 5 -0.007751 0.003508 -0.004631 -0.000001 0.044351 0.000000
# 6 0.000000 0.000000 0.000000 -0.000677 0.000000 0.046623
#
#
# Mechanical properties :
#
#
# Convention : Reuss Voigt Hill
#
# Bulk Modulus (GPa) = 32.21542 36.40009 34.30776
# Shear Modulus (GPa) = 18.98288 20.84784 19.91536
#
# Velocity S-wave (km/s) = 3.39135 3.55403 3.47364
# Velocity P-wave (km/s) = 5.90368 6.23662 6.07243
#
# Compressibility (1/GPa) = 0.03104104
#
# Stress axis : x y z
#
# Youngs Moduli (GPa) = 40.43593 44.25352 41.55991
#
# Poissons Ratio (x) = 0.14496 0.49367
# Poissons Ratio (y) = 0.13245 0.20863
# Poissons Ratio (z) = 0.48032 0.22215
#
# Static dielectric constant tensor:
#      x y z
#    x 1.559460 0.000000 0.025860 
#    y 0.000000 1.564260 0.000000 
#    z 0.025860 0.000000 1.592090 
# 
# From -- ./inp_files/284647.got.cif
#   From: 2010.05.17/outbox.cif.g08.bks.cpg/sg15_143_cif.got.tgz:284647.got - 2010.06.03 18:47:42.
