data_PCOD9268406
_publ_section_title
;
Structure prediction by ZEFSAII (Michael W. Deem and Ramdas Pophale) SiO2 
 PCOD9268406
Probable space group: C 2/C
;
_chemical_formula_sum "Si O2"
_cell_formula_units_Z 60
_cell_length_a 17.685506
_cell_length_b 21.812430
_cell_length_c 7.689163
_cell_angle_alpha 90.000000
_cell_angle_beta 104.094715
_cell_angle_gamma 90.000000
_cell_volume 2876.902189
_symmetry_space_group_name_H-M "C 2/C"
_symmetry_group_IT_number 15
_symmetry_cell_setting 'monoclinic'
loop_
_space_group_symop_operation_xyz
x,y,z
-x,y,1/2-z
-x,-y,-z
x,-y,1/2+z
1/2+x,1/2+y,z
1/2-x,1/2+y,1/2-z
1/2-x,1/2-y,-z
1/2+x,1/2-y,1/2+z
loop_
_atom_site_type_symbol
_atom_site_label
_atom_site_fract_x
_atom_site_fract_y
_atom_site_fract_z
Si Si1 0.239304 0.861569 0.993335
Si Si2 0.810741 0.092861 0.380741
Si Si3 0.000000 0.021593 0.750000
Si Si4 0.105023 0.769020 0.927001
Si Si5 0.553496 0.692874 0.046468
Si Si6 0.274167 0.161024 0.877775
Si Si7 0.637654 0.236976 0.305339
Si Si8 0.118663 0.040775 0.569593
O O1 0.188715 0.800065 0.951386
O O2 0.296743 0.854188 0.190692
O O3 0.177729 0.911057 0.030594
O O4 0.250308 0.884481 0.802443
O O5 0.889268 0.134406 0.402242
O O6 0.772455 0.107259 0.546321
O O7 0.835783 0.022803 0.368838
O O8 0.950267 0.977198 0.600318
O O9 0.932258 0.061902 0.795380
O O10 0.112935 0.722195 0.093017
O O11 0.078586 0.759087 0.714341
O O12 0.037755 0.815463 0.963629
O O13 0.574860 0.723368 0.876504
O O14 0.212566 0.217617 0.831969
O O15 0.339135 0.183024 0.050261
#
# Coordination Sequence:
#
# PCOD9268406 Si02
#       8
#     8   8   4   8   8   8   8   8
#     4  10  20  32  44  62  88 122 159 193 223 261
#     4  10  20  32  44  62  88 122 159 193 223 261
#     4  10  22  26  42  58  82 122 156 196 226 256
#     4   9  18  29  45  66  91 117 145 182 230 274
#     4   9  18  29  45  66  91 117 145 182 230 274
#     4   9  19  32  47  62  82 112 161 196 229 263
#     4   9  17  32  46  64  84 113 151 196 230 268
#     4  11  20  32  40  62  88 122 161 194 226 254
#
# _framework density 20.855767
#
# number of rings (size 3 to 8) (size 9 to 14) (size 15 to 20)
#    0.000    2.400    1.333    1.200    3.733    1.067 
#    0.000    5.333    0.000    0.000    0.000    0.000 
#    0.000    0.000    0.000    4.800    0.000    0.533 
#
# Total GULP energy -167172.737020 kJ/mol
# GULP energy per Si atom -5572.424567 kJ/mol
# Density = 2.080830 g / cm^3
# Si number density = 20.855767 Si / 1000 Ang^3
#
#
#
# Elastic Constant Matrix: (Units=GPa)
#
#
# Indices 1 2 3 4 5 6 
#
# 1 20.8898 19.5835 0.3170 0.0000 -2.5516 0.0000
# 2 19.5835 41.3320 9.7143 0.0000 10.0594 0.0000
# 3 0.3170 9.7143 134.7704 0.0000 -2.0292 0.0000
# 4 0.0000 0.0000 0.0000 17.7222 0.0000 -1.4709
# 5 -2.5516 10.0594 -2.0292 0.0000 24.4848 0.0000
# 6 0.0000 0.0000 0.0000 -1.4709 0.0000 12.5782
#
#
#
# Elastic Compliance Matrix: (Units=1/GPa)
#
#
# Indices 1 2 3 4 5 6 
#
# 1 0.111980 -0.063493 0.004888 0.000000 0.038160 0.000000
# 2 -0.063493 0.063494 -0.004926 0.000000 -0.033111 0.000000
# 3 0.004888 -0.004926 0.007811 0.000000 0.003181 0.000000
# 4 0.000000 0.000000 0.000000 0.056979 0.000000 0.006663
# 5 0.038160 -0.033111 0.003181 0.000000 0.058685 0.000000
# 6 0.000000 0.000000 0.000000 0.006663 0.000000 0.080282
#
#
# Mechanical properties :
#
#
# Convention : Reuss Voigt Hill
#
# Bulk Modulus (GPa) = 17.78629 28.46908 23.12768
# Shear Modulus (GPa) = 9.52315 22.11555 15.81935
#
# Velocity S-wave (km/s) = 2.13918 3.25992 2.75710
# Velocity P-wave (km/s) = 3.82730 5.27726 4.60965
#
# Compressibility (1/GPa) = 0.05622309
#
# Stress axis : x y z
#
# Youngs Moduli (GPa) = 8.93014 15.74944 128.01667
#
# Poissons Ratio (x) = 0.99999 -0.62573
# Poissons Ratio (y) = 0.56701 0.63060
# Poissons Ratio (z) = -0.04365 0.07758
#
# Static dielectric constant tensor:
#      x y z
#    x 1.771120 0.000000 -0.012690 
#    y 0.000000 1.752490 0.000000 
#    z -0.012690 0.000000 1.936080 
# 
# From -- ./inp_files/57569.got.cif
#   From: 2010.05.17/outbox.cif.g08.bks.cpg/sg15_29_cif.got.tgz:57569.got - 2010.06.03 18:47:42.
