data_PCOD9268657
_publ_section_title
;
Structure prediction by ZEFSAII (Michael W. Deem and Ramdas Pophale) SiO2 
 PCOD9268657
Probable space group: C 2/C
;
_chemical_formula_sum "Si O2"
_cell_formula_units_Z 52
_cell_length_a 18.743931
_cell_length_b 12.747632
_cell_length_c 13.781613
_cell_angle_alpha 90.000000
_cell_angle_beta 54.327211
_cell_angle_gamma 90.000000
_cell_volume 2675.094211
_symmetry_space_group_name_H-M "C 2/C"
_symmetry_group_IT_number 15
_symmetry_cell_setting 'monoclinic'
loop_
_space_group_symop_operation_xyz
x,y,z
-x,y,1/2-z
-x,-y,-z
x,-y,1/2+z
1/2+x,1/2+y,z
1/2-x,1/2+y,1/2-z
1/2-x,1/2-y,-z
1/2+x,1/2-y,1/2+z
loop_
_atom_site_type_symbol
_atom_site_label
_atom_site_fract_x
_atom_site_fract_y
_atom_site_fract_z
Si Si1 0.000000 0.834083 0.250000
Si Si2 0.328453 0.322616 0.469877
Si Si3 0.496862 0.254643 0.862829
Si Si4 0.796024 0.289895 0.562477
Si Si5 0.050744 0.010442 0.359927
Si Si6 0.236297 0.023026 0.632893
Si Si7 0.829746 0.716275 0.663544
O O1 0.914277 0.774132 0.350291
O O2 0.981384 0.911544 0.176294
O O3 0.250000 0.250000 0.500000
O O4 0.308406 0.432883 0.431890
O O5 0.336127 0.310423 0.578967
O O6 0.500000 0.213865 0.750000
O O7 0.523148 0.377456 0.839052
O O8 0.574219 0.203287 0.865354
O O9 0.398416 0.242047 0.981449
O O10 0.750000 0.250000 0.500000
O O11 0.786817 0.415727 0.573377
O O12 0.740558 0.244248 0.697108
O O13 0.155742 0.001440 0.269712
O O14 0.000000 0.000000 0.500000
O O15 0.295877 0.113660 0.633044
#
# Coordination Sequence:
#
# PCOD9268657 Si02
#       7
#     4   8   8   8   8   8   8
#     4  10  20  32  62  92 124 164 218 270 320 380
#     4   9  21  40  64  92 133 166 214 269 329 387
#     4  12  23  42  61  93 135 169 219 275 326 389
#     4  12  25  42  68  95 134 177 217 277 329 391
#     4  11  20  36  63  95 125 166 220 272 326 379
#     4  10  23  43  65  99 131 175 218 267 335 391
#     4  11  23  43  67  97 134 172 220 273 329 400
#
# _framework density 19.438568
#
# number of rings (size 3 to 8) (size 9 to 14) (size 15 to 20)
#    0.000    1.231    3.846    1.846    2.154    4.308 
#    0.000    0.000    6.769    0.000    0.000    0.000 
#    0.000    0.000    0.000    0.000    0.000    0.000 
#
# Total GULP energy -145105.126093 kJ/mol
# GULP energy per Si atom -5580.966388 kJ/mol
# Density = 1.939433 g / cm^3
# Si number density = 19.438568 Si / 1000 Ang^3
#
#
#
# Elastic Constant Matrix: (Units=GPa)
#
#
# Indices 1 2 3 4 5 6 
#
# 1 142.7784 37.0493 72.1521 0.0000 -13.8162 0.0000
# 2 37.0493 81.2430 27.1863 0.0000 -3.5655 0.0000
# 3 72.1521 27.1863 137.8957 0.0000 -7.7280 0.0000
# 4 0.0000 0.0000 0.0000 29.8613 0.0000 -4.4849
# 5 -13.8162 -3.5655 -7.7280 0.0000 52.3757 0.0000
# 6 0.0000 0.0000 0.0000 -4.4849 0.0000 33.3681
#
#
#
# Elastic Compliance Matrix: (Units=1/GPa)
#
#
# Indices 1 2 3 4 5 6 
#
# 1 0.010358 -0.003066 -0.004713 0.000000 0.001828 0.000000
# 2 -0.003066 0.014100 -0.001177 0.000000 -0.000023 0.000000
# 3 -0.004713 -0.001177 0.009958 0.000000 0.000146 0.000000
# 4 0.000000 0.000000 0.000000 0.034178 0.000000 0.004594
# 5 0.001828 -0.000023 0.000146 0.000000 0.019595 0.000000
# 6 0.000000 0.000000 0.000000 0.004594 0.000000 0.030586
#
#
# Mechanical properties :
#
#
# Convention : Reuss Voigt Hill
#
# Bulk Modulus (GPa) = 60.59004 70.52140 65.55572
# Shear Modulus (GPa) = 35.16479 38.15634 36.66056
#
# Velocity S-wave (km/s) = 4.25787 4.43529 4.34749
# Velocity P-wave (km/s) = 7.44381 7.91119 7.68106
#
# Compressibility (1/GPa) = 0.01650436
#
# Stress axis : x y z
#
# Youngs Moduli (GPa) = 96.54409 70.92280 100.42312
#
# Poissons Ratio (x) = 0.21747 0.47326
# Poissons Ratio (y) = 0.29603 0.11816
# Poissons Ratio (z) = 0.45498 0.08345
#
# Static dielectric constant tensor:
#      x y z
#    x 1.727060 0.000000 0.002970 
#    y 0.000000 1.682080 0.000000 
#    z 0.002970 0.000000 1.713290 
# 
# From -- ./inp_files/167563.got.cif
#   From: 2010.05.17/outbox.cif.g08.bks.cpg/sg15_84_cif.got.tgz:167563.got - 2010.06.03 18:47:42.
