data_PCOD9268560
_publ_section_title
;
Structure prediction by ZEFSAII (Michael W. Deem and Ramdas Pophale) SiO2 
 PCOD9268560
Probable space group: C 2/C
;
_chemical_formula_sum "Si O2"
_cell_formula_units_Z 36
_cell_length_a 11.363789
_cell_length_b 16.597909
_cell_length_c 9.349557
_cell_angle_alpha 90.000000
_cell_angle_beta 112.980057
_cell_angle_gamma 90.000000
_cell_volume 1623.520555
_symmetry_space_group_name_H-M "C 2/C"
_symmetry_group_IT_number 15
_symmetry_cell_setting 'monoclinic'
loop_
_space_group_symop_operation_xyz
x,y,z
-x,y,1/2-z
-x,-y,-z
x,-y,1/2+z
1/2+x,1/2+y,z
1/2-x,1/2+y,1/2-z
1/2-x,1/2-y,-z
1/2+x,1/2-y,1/2+z
loop_
_atom_site_type_symbol
_atom_site_label
_atom_site_fract_x
_atom_site_fract_y
_atom_site_fract_z
Si Si1 0.206733 0.950537 0.290245
Si Si2 0.877974 0.518916 0.112249
Si Si3 0.597972 0.159014 0.926706
Si Si4 0.500000 0.416499 0.750000
Si Si5 0.112813 0.819761 0.055716
O O1 0.283659 0.986306 0.191509
O O2 0.123087 0.874887 0.199938
O O3 0.302951 0.928060 0.462871
O O4 0.120103 0.024092 0.301566
O O5 0.918091 0.435568 0.049781
O O6 0.000000 0.554099 0.250000
O O7 0.500000 0.176336 0.750000
O O8 0.743057 0.171948 0.940399
O O9 0.580225 0.225279 0.041663
O O10 0.482856 0.362037 0.601990
#
# Coordination Sequence:
#
# PCOD9268560 Si02
#       5
#     8   8   8   4   8
#     4  11  21  36  55  88 120 152 189 235 290 340
#     4  10  21  37  61  88 112 149 192 246 285 337
#     4   9  17  34  55  83 108 143 198 240 275 320
#     4  12  20  36  52  90 122 152 188 232 288 352
#     4  10  20  32  55  84 113 149 191 239 278 331
#
# _framework density 22.174035
#
# number of rings (size 3 to 8) (size 9 to 14) (size 15 to 20)
#    0.000    1.778    5.556    1.333    0.000    0.000 
#    0.000    0.000    0.000    1.333   14.444    0.000 
#    0.000    0.000    0.000    0.000    0.000    0.000 
#
# Total GULP energy -100506.221239 kJ/mol
# GULP energy per Si atom -5583.678958 kJ/mol
# Density = 2.212357 g / cm^3
# Si number density = 22.174035 Si / 1000 Ang^3
#
#
#
# Elastic Constant Matrix: (Units=GPa)
#
#
# Indices 1 2 3 4 5 6 
#
# 1 37.4745 -7.8912 3.6655 0.0000 7.1477 0.0000
# 2 -7.8912 71.4999 30.2204 0.0000 2.9714 0.0000
# 3 3.6655 30.2204 142.7548 0.0000 28.6766 0.0000
# 4 0.0000 0.0000 0.0000 22.1797 0.0000 4.4803
# 5 7.1477 2.9714 28.6766 0.0000 34.4178 0.0000
# 6 0.0000 0.0000 0.0000 4.4803 0.0000 13.9503
#
#
#
# Elastic Compliance Matrix: (Units=1/GPa)
#
#
# Indices 1 2 3 4 5 6 
#
# 1 0.028601 0.003521 -0.000271 0.000000 -0.006018 0.000000
# 2 0.003521 0.015873 -0.003637 0.000000 0.000929 0.000000
# 3 -0.000271 -0.003637 0.009257 0.000000 -0.007343 0.000000
# 4 0.000000 0.000000 0.000000 0.048214 0.000000 -0.015484
# 5 -0.006018 0.000929 -0.007343 0.000000 0.036342 0.000000
# 6 0.000000 0.000000 0.000000 -0.015484 0.000000 0.076656
#
#
# Mechanical properties :
#
#
# Convention : Reuss Voigt Hill
#
# Bulk Modulus (GPa) = 18.88332 33.74650 26.31491
# Shear Modulus (GPa) = 21.42525 29.15852 25.29188
#
# Velocity S-wave (km/s) = 3.11180 3.63021 3.38095
# Velocity P-wave (km/s) = 4.63093 5.72915 5.20906
#
# Compressibility (1/GPa) = 0.05295678
#
# Stress axis : x y z
#
# Youngs Moduli (GPa) = 34.96430 62.99846 108.02708
#
# Poissons Ratio (x) = -0.22183 0.02926
# Poissons Ratio (y) = -0.12311 0.39293
# Poissons Ratio (z) = 0.00947 0.22915
#
# Static dielectric constant tensor:
#      x y z
#    x 1.871780 0.000000 -0.003610 
#    y 0.000000 1.835480 0.000000 
#    z -0.003610 0.000000 1.853840 
# 
# From -- ./inp_files/29446.got.cif
#   From: 2010.05.17/outbox.cif.g08.bks.cpg/sg15_15_cif.got.tgz:29446.got - 2010.06.03 18:47:42.
