data_PCOD9268535
_publ_section_title
;
Structure prediction by ZEFSAII (Michael W. Deem and Ramdas Pophale) SiO2 
 PCOD9268535
Probable space group: C 2/C
;
_chemical_formula_sum "Si O2"
_cell_formula_units_Z 64
_cell_length_a 14.994351
_cell_length_b 24.575641
_cell_length_c 9.242263
_cell_angle_alpha 90.000000
_cell_angle_beta 89.124615
_cell_angle_gamma 90.000000
_cell_volume 3405.337491
_symmetry_space_group_name_H-M "C 2/C"
_symmetry_group_IT_number 15
_symmetry_cell_setting 'monoclinic'
loop_
_space_group_symop_operation_xyz
x,y,z
-x,y,1/2-z
-x,-y,-z
x,-y,1/2+z
1/2+x,1/2+y,z
1/2-x,1/2+y,1/2-z
1/2-x,1/2-y,-z
1/2+x,1/2-y,1/2+z
loop_
_atom_site_type_symbol
_atom_site_label
_atom_site_fract_x
_atom_site_fract_y
_atom_site_fract_z
Si Si1 0.987300 0.744878 0.424443
Si Si2 0.334326 0.620065 0.480590
Si Si3 0.662690 0.258886 0.599403
Si Si4 0.071845 0.026749 0.390524
Si Si5 0.816566 0.708949 0.581607
Si Si6 0.961768 0.871793 0.469996
Si Si7 0.284368 0.392326 0.297215
Si Si8 0.184742 0.006173 0.132720
O O1 0.907839 0.708054 0.487832
O O2 0.960307 0.807040 0.466389
O O3 0.000000 0.741898 0.250000
O O4 0.079187 0.736561 0.508662
O O5 0.343523 0.675520 0.391834
O O6 0.434543 0.610438 0.542443
O O7 0.279523 0.626282 0.630682
O O8 0.295940 0.570032 0.388222
O O9 0.750000 0.250000 0.500000
O O10 0.666563 0.233242 0.758168
O O11 0.064263 0.092012 0.390964
O O12 0.094011 0.006414 0.231850
O O13 0.163195 0.012479 0.471143
O O14 0.000000 0.000000 0.500000
O O15 0.750000 0.750000 0.500000
O O16 0.771233 0.650188 0.605862
O O17 0.887182 0.888699 0.353847
O O18 0.257856 0.455940 0.308899
#
# Coordination Sequence:
#
# PCOD9268535 Si02
#       8
#     8   8   8   8   8   8   8   8
#     4  11  23  41  63  90 126 166 212 262 320 380
#     4  11  21  36  57  81 125 157 210 254 308 377
#     4  11  23  40  65  93 125 163 206 257 323 383
#     4  11  20  31  45  71 112 154 206 238 281 352
#     4  12  24  41  61  91 125 168 219 264 309 374
#     4  10  20  32  54  80 118 170 200 242 302 366
#     4  11  21  38  56  81 122 167 204 258 309 356
#     4  11  22  33  52  78 111 161 203 249 300 367
#
# _framework density 18.794025000000001
#
# number of rings (size 3 to 8) (size 9 to 14) (size 15 to 20)
#    0.000    1.000    5.000    3.375    1.750    3.000 
#    0.000    0.000    0.000    0.000    0.000    0.875 
#    0.000    0.000    0.000    0.000    0.000    0.000 
#
# Total GULP energy -178167.360934 kJ/mol
# GULP energy per Si atom -5567.730029 kJ/mol
# Density = 1.875125 g / cm^3
# Si number density = 18.794025 Si / 1000 Ang^3
#
#
#
# Elastic Constant Matrix: (Units=GPa)
#
#
# Indices 1 2 3 4 5 6 
#
# 1 69.7373 28.6948 34.5086 0.0000 -6.6778 0.0000
# 2 28.6948 103.1760 43.7056 0.0000 -14.6103 0.0000
# 3 34.5086 43.7056 106.7216 0.0000 3.8282 0.0000
# 4 0.0000 0.0000 0.0000 26.2774 0.0000 -4.0322
# 5 -6.6778 -14.6103 3.8282 0.0000 30.1008 0.0000
# 6 0.0000 0.0000 0.0000 -4.0322 0.0000 22.4056
#
#
#
# Elastic Compliance Matrix: (Units=1/GPa)
#
#
# Indices 1 2 3 4 5 6 
#
# 1 0.018147 -0.002439 -0.004994 0.000000 0.003477 0.000000
# 2 -0.002439 0.013393 -0.004932 0.000000 0.006587 0.000000
# 3 -0.004994 -0.004932 0.013191 0.000000 -0.005179 0.000000
# 4 0.000000 0.000000 0.000000 0.039136 0.000000 0.007043
# 5 0.003477 0.006587 -0.005179 0.000000 0.037849 0.000000
# 6 0.000000 0.000000 0.000000 0.007043 0.000000 0.045899
#
#
# Mechanical properties :
#
#
# Convention : Reuss Voigt Hill
#
# Bulk Modulus (GPa) = 49.99993 54.82809 52.41401
# Shear Modulus (GPa) = 25.12416 27.27183 26.19799
#
# Velocity S-wave (km/s) = 3.66022 3.81345 3.73762
# Velocity P-wave (km/s) = 6.67269 6.97326 6.82463
#
# Compressibility (1/GPa) = 0.02000003
#
# Stress axis : x y z
#
# Youngs Moduli (GPa) = 55.10481 74.66833 75.81185
#
# Poissons Ratio (x) = 0.18214 0.37858
# Poissons Ratio (y) = 0.13442 0.37392
# Poissons Ratio (z) = 0.27518 0.36828
#
# Static dielectric constant tensor:
#      x y z
#    x 1.678340 0.000000 0.009490 
#    y 0.000000 1.724090 0.000000 
#    z 0.009490 0.000000 1.665110 
# 
# From -- ./inp_files/43528.got.cif
#   From: 2010.05.17/outbox.cif.g08.bks.cpg/sg15_22_cif.got.tgz:43528.got - 2010.06.03 18:47:42.
