data_PCOD9268736
_publ_section_title
;
Structure prediction by ZEFSAII (Michael W. Deem and Ramdas Pophale) SiO2 
 PCOD9268736
Probable space group: C 2/C
;
_chemical_formula_sum "Si O2"
_cell_formula_units_Z 32
_cell_length_a 19.343548
_cell_length_b 7.448199
_cell_length_c 13.898145
_cell_angle_alpha 90.000000
_cell_angle_beta 33.348602
_cell_angle_gamma 90.000000
_cell_volume 1100.765863
_symmetry_space_group_name_H-M "C 2/C"
_symmetry_group_IT_number 15
_symmetry_cell_setting 'monoclinic'
loop_
_space_group_symop_operation_xyz
x,y,z
-x,y,1/2-z
-x,-y,-z
x,-y,1/2+z
1/2+x,1/2+y,z
1/2-x,1/2+y,1/2-z
1/2-x,1/2-y,-z
1/2+x,1/2-y,1/2+z
loop_
_atom_site_type_symbol
_atom_site_label
_atom_site_fract_x
_atom_site_fract_y
_atom_site_fract_z
Si Si1 0.605693 0.962757 0.690295
Si Si2 0.868581 0.936342 0.429031
Si Si3 0.174004 0.912112 0.792704
Si Si4 0.072224 0.709240 0.429639
O O1 0.500000 0.055255 0.750000
O O2 0.746354 0.036349 0.531483
O O3 0.624481 0.766628 0.619090
O O4 0.559032 0.922529 0.853289
O O5 0.852943 0.918570 0.561131
O O6 0.000000 0.023248 0.250000
O O7 0.320313 0.857403 0.620657
O O8 0.141666 0.114515 0.801204
O O9 0.064426 0.783548 0.879748
#
# Coordination Sequence:
#
# PCOD9268736 Si02
#       4
#     8   8   8   8
#     4   9  15  26  46  73  94 118 157 210 243 276
#     4   9  15  26  46  73  94 118 157 210 243 276
#     4  10  20  33  51  76 101 132 164 202 249 293
#     4  10  20  33  51  76 101 132 164 202 249 293
#
# _framework density 29.070665999999999
#
# number of rings (size 3 to 8) (size 9 to 14) (size 15 to 20)
#    0.000    2.500    5.000    0.000    0.000    1.000 
#    0.000    0.000    0.000    1.500    0.000    0.000 
#    0.000    0.000    0.000    0.000    0.000    0.000 
#
# Total GULP energy -89708.786098 kJ/mol
# GULP energy per Si atom -5606.799131 kJ/mol
# Density = 2.900450 g / cm^3
# Si number density = 29.070666 Si / 1000 Ang^3
#
#
#
# Elastic Constant Matrix: (Units=GPa)
#
#
# Indices 1 2 3 4 5 6 
#
# 1 163.6238 27.8600 95.9113 0.0000 -58.4231 0.0000
# 2 27.8600 101.0122 -0.5639 -0.0004 -8.4422 0.0001
# 3 95.9113 -0.5639 208.8158 -0.0002 -62.1289 0.0001
# 4 0.0000 -0.0004 -0.0002 24.2474 0.0001 1.2260
# 5 -58.4231 -8.4422 -62.1289 0.0001 101.0798 0.0000
# 6 0.0000 0.0001 0.0001 1.2260 0.0000 28.7987
#
#
#
# Elastic Compliance Matrix: (Units=1/GPa)
#
#
# Indices 1 2 3 4 5 6 
#
# 1 0.009755 -0.002436 -0.003512 0.000000 0.003276 0.000000
# 2 -0.002436 0.010597 0.001214 0.000000 0.000223 0.000000
# 3 -0.003512 0.001214 0.007137 0.000000 0.002458 0.000000
# 4 0.000000 0.000000 0.000000 0.041331 0.000000 -0.001760
# 5 0.003276 0.000223 0.002458 0.000000 0.013316 0.000000
# 6 0.000000 0.000000 0.000000 -0.001760 0.000000 0.034799
#
#
# Mechanical properties :
#
#
# Convention : Reuss Voigt Hill
#
# Bulk Modulus (GPa) = 55.49576 79.98516 67.74046
# Shear Modulus (GPa) = 37.76144 54.17480 45.96812
#
# Velocity S-wave (km/s) = 3.60801 4.32157 3.98081
# Velocity P-wave (km/s) = 6.04056 7.24397 6.66946
#
# Compressibility (1/GPa) = 0.01801940
#
# Stress axis : x y z
#
# Youngs Moduli (GPa) = 102.51160 94.36474 140.11881
#
# Poissons Ratio (x) = 0.22990 0.49217
# Poissons Ratio (y) = 0.24975 -0.17011
# Poissons Ratio (z) = 0.36007 -0.11456
#
# Static dielectric constant tensor:
#      x y z
#    x 2.262580 0.000000 -0.048610 
#    y 0.000000 2.255410 0.000000 
#    z -0.048610 0.000000 2.249640 
# 
# From -- ./inp_files/109289.got.cif
#   From: 2010.05.17/outbox.cif.g08.bks.cpg/sg15_55_cif.got.tgz:109289.got - 2010.06.03 18:47:42.
