data_PCOD9268012
_publ_section_title
;
Structure prediction by ZEFSAII (Michael W. Deem and Ramdas Pophale) SiO2 
 PCOD9268012
Probable space group: C 2/C
;
_chemical_formula_sum "Si O2"
_cell_formula_units_Z 44
_cell_length_a 18.201569
_cell_length_b 8.479132
_cell_length_c 14.841828
_cell_angle_alpha 90.000000
_cell_angle_beta 121.884537
_cell_angle_gamma 90.000000
_cell_volume 1944.973809
_symmetry_space_group_name_H-M "C 2/C"
_symmetry_group_IT_number 15
_symmetry_cell_setting 'monoclinic'
loop_
_space_group_symop_operation_xyz
x,y,z
-x,y,1/2-z
-x,-y,-z
x,-y,1/2+z
1/2+x,1/2+y,z
1/2-x,1/2+y,1/2-z
1/2-x,1/2-y,-z
1/2+x,1/2-y,1/2+z
loop_
_atom_site_type_symbol
_atom_site_label
_atom_site_fract_x
_atom_site_fract_y
_atom_site_fract_z
Si Si1 0.727694 0.631457 0.066535
Si Si2 0.405571 0.382235 0.501409
Si Si3 0.131768 0.624074 0.874609
Si Si4 0.000000 0.622576 0.250000
Si Si5 0.853544 0.194078 0.767132
Si Si6 0.068782 0.119428 0.214697
O O1 0.632268 0.559046 0.009201
O O2 0.782749 0.473953 0.084594
O O3 0.766560 0.716764 0.180286
O O4 0.750000 0.750000 0.000000
O O5 0.368627 0.260012 0.551833
O O6 0.375347 0.314876 0.386193
O O7 0.508359 0.383126 0.587743
O O8 0.058577 0.493959 0.848293
O O9 0.106041 0.711661 0.765228
O O10 0.932450 0.722278 0.264741
O O11 0.857437 0.011769 0.739011
O O12 0.000000 0.080293 0.250000
#
# Coordination Sequence:
#
# PCOD9268012 Si02
#       6
#     8   8   8   4   8   8
#     4  11  25  42  63  90 130 177 209 256 327 381
#     4  11  23  40  63  99 123 166 217 265 316 372
#     4  10  21  41  66  88 127 171 211 254 322 392
#     4  10  20  40  62  92 126 164 208 254 328 370
#     4  11  24  39  65  95 129 164 216 270 311 378
#     4  10  19  41  66  89 124 168 207 255 324 374
#
# _framework density 22.622411
#
# number of rings (size 3 to 8) (size 9 to 14) (size 15 to 20)
#    0.000    1.455    3.636    3.273    2.545    3.636 
#    0.000    0.000    0.000    0.000    0.000    0.000 
#    0.000    0.000    0.000    0.000    0.000    0.000 
#
# Total GULP energy -122945.112274 kJ/mol
# GULP energy per Si atom -5588.414194 kJ/mol
# Density = 2.257092 g / cm^3
# Si number density = 22.622411 Si / 1000 Ang^3
#
#
#
# Elastic Constant Matrix: (Units=GPa)
#
#
# Indices 1 2 3 4 5 6 
#
# 1 38.3898 27.7962 20.9645 0.0000 1.5056 0.0000
# 2 27.7962 115.9169 43.9344 0.0000 7.1026 0.0000
# 3 20.9645 43.9344 113.5262 0.0000 -16.5284 0.0000
# 4 0.0000 0.0000 0.0000 39.9417 0.0000 1.0082
# 5 1.5056 7.1026 -16.5284 0.0000 24.2854 0.0000
# 6 0.0000 0.0000 0.0000 1.0082 0.0000 8.8554
#
#
#
# Elastic Compliance Matrix: (Units=1/GPa)
#
#
# Indices 1 2 3 4 5 6 
#
# 1 0.032866 -0.006121 -0.004147 0.000000 -0.003070 0.000000
# 2 -0.006121 0.012179 -0.004491 0.000000 -0.006239 0.000000
# 3 -0.004147 -0.004491 0.012811 0.000000 0.010289 0.000000
# 4 0.000000 0.000000 0.000000 0.025109 0.000000 -0.002859
# 5 -0.003070 -0.006239 0.010289 0.000000 0.050195 0.000000
# 6 0.000000 0.000000 0.000000 -0.002859 0.000000 0.113251
#
#
# Mechanical properties :
#
#
# Convention : Reuss Voigt Hill
#
# Bulk Modulus (GPa) = 35.29060 50.35814 42.82437
# Shear Modulus (GPa) = 17.52076 26.29234 21.90655
#
# Velocity S-wave (km/s) = 2.78598 3.41284 3.11522
# Velocity P-wave (km/s) = 5.09731 6.15131 5.64895
#
# Compressibility (1/GPa) = 0.02833616
#
# Stress axis : x y z
#
# Youngs Moduli (GPa) = 30.42677 82.10674 78.06010
#
# Poissons Ratio (x) = 0.50258 0.32374
# Poissons Ratio (y) = 0.18624 0.35060
# Poissons Ratio (z) = 0.12619 0.36877
#
# Static dielectric constant tensor:
#      x y z
#    x 1.915110 0.000000 0.027180 
#    y 0.000000 1.811120 0.000000 
#    z 0.027180 0.000000 1.893270 
# 
# From -- ./inp_files/172091.got.cif
#   From: 2010.05.17/outbox.cif.g08.bks.cpg/sg15_87_cif.got.tgz:172091.got - 2010.06.03 18:47:42.
