data_PCOD9268003
_publ_section_title
;
Structure prediction by ZEFSAII (Michael W. Deem and Ramdas Pophale) SiO2 
 PCOD9268003
Probable space group: C 2/C
;
_chemical_formula_sum "Si O2"
_cell_formula_units_Z 44
_cell_length_a 10.281812
_cell_length_b 9.901958
_cell_length_c 34.620437
_cell_angle_alpha 90.000000
_cell_angle_beta 143.965528
_cell_angle_gamma 90.000000
_cell_volume 2073.487307
_symmetry_space_group_name_H-M "C 2/C"
_symmetry_group_IT_number 15
_symmetry_cell_setting 'monoclinic'
loop_
_space_group_symop_operation_xyz
x,y,z
-x,y,1/2-z
-x,-y,-z
x,-y,1/2+z
1/2+x,1/2+y,z
1/2-x,1/2+y,1/2-z
1/2-x,1/2-y,-z
1/2+x,1/2-y,1/2+z
loop_
_atom_site_type_symbol
_atom_site_label
_atom_site_fract_x
_atom_site_fract_y
_atom_site_fract_z
Si Si1 0.269573 0.257611 0.090546
Si Si2 0.000000 0.561730 0.250000
Si Si3 0.082006 0.750508 0.628863
Si Si4 0.243514 0.986441 0.948373
Si Si5 0.949132 0.467635 0.156445
Si Si6 0.035131 0.099260 0.972698
O O1 0.114070 0.274603 0.090774
O O2 0.378968 0.401547 0.107998
O O3 0.412457 0.123162 0.133468
O O4 0.142455 0.225769 0.019779
O O5 0.209784 0.656802 0.309441
O O6 0.951441 0.476922 0.276982
O O7 0.070837 0.618687 0.652907
O O8 0.862981 0.839975 0.582643
O O9 0.193627 0.028427 0.980274
O O10 0.500000 0.000000 0.000000
O O11 0.708151 0.396658 0.103840
O O12 0.000000 0.000000 0.000000
#
# Coordination Sequence:
#
# PCOD9268003 Si02
#       6
#     8   4   8   8   8   8
#     4  10  23  40  66  97 140 167 218 267 334 399
#     4  10  22  46  64  92 126 178 228 280 320 400
#     4  11  24  45  67  97 130 179 217 283 335 387
#     4  12  24  38  68 106 138 173 221 266 329 410
#     4  10  22  43  71  86 133 175 219 271 339 380
#     4  10  19  41  65  95 135 179 202 265 337 391
#
# _framework density 21.220289000000001
#
# number of rings (size 3 to 8) (size 9 to 14) (size 15 to 20)
#    0.000    1.455    5.455    1.636    5.091    4.364 
#    0.000    0.000    0.000    0.000    0.000    0.000 
#    0.000    0.000    0.000    0.000    0.000    0.000 
#
# Total GULP energy -122772.532451 kJ/mol
# GULP energy per Si atom -5580.569657 kJ/mol
# Density = 2.117199 g / cm^3
# Si number density = 21.220289 Si / 1000 Ang^3
#
#
#
# Elastic Constant Matrix: (Units=GPa)
#
#
# Indices 1 2 3 4 5 6 
#
# 1 132.7673 47.1380 27.4732 0.0000 -20.3875 0.0000
# 2 47.1380 105.3392 7.5485 0.0000 -35.4641 0.0000
# 3 27.4732 7.5485 75.2886 0.0000 -14.9949 0.0000
# 4 0.0000 0.0000 0.0000 20.6307 0.0000 -7.2056
# 5 -20.3875 -35.4641 -14.9949 0.0000 30.3527 0.0000
# 6 0.0000 0.0000 0.0000 -7.2056 0.0000 41.8629
#
#
#
# Elastic Compliance Matrix: (Units=1/GPa)
#
#
# Indices 1 2 3 4 5 6 
#
# 1 0.009625 -0.003989 -0.003053 0.000000 0.000297 0.000000
# 2 -0.003989 0.017669 0.003618 0.000000 0.019752 0.000000
# 3 -0.003053 0.003618 0.016046 0.000000 0.010103 0.000000
# 4 0.000000 0.000000 0.000000 0.051572 0.000000 0.008877
# 5 0.000297 0.019752 0.010103 0.000000 0.061215 0.000000
# 6 0.000000 0.000000 0.000000 0.008877 0.000000 0.025415
#
#
# Mechanical properties :
#
#
# Convention : Reuss Voigt Hill
#
# Bulk Modulus (GPa) = 27.40340 53.07941 40.24140
# Shear Modulus (GPa) = 24.93089 33.98495 29.45792
#
# Velocity S-wave (km/s) = 3.43134 4.00625 3.72989
# Velocity P-wave (km/s) = 5.35169 6.81674 6.12815
#
# Compressibility (1/GPa) = 0.03649183
#
# Stress axis : x y z
#
# Youngs Moduli (GPa) = 103.89081 56.59740 62.32110
#
# Poissons Ratio (x) = 0.22575 0.19029
# Poissons Ratio (y) = 0.41438 -0.22548
# Poissons Ratio (z) = 0.31722 -0.20477
#
# Static dielectric constant tensor:
#      x y z
#    x 1.759040 0.000000 0.023570 
#    y 0.000000 1.860700 0.000000 
#    z 0.023570 0.000000 1.835220 
# 
# From -- ./inp_files/307322.got.cif
#   From: 2010.05.17/outbox.cif.g08.bks.cpg/sg15_154_cif.got.tgz:307322.got - 2010.06.03 18:47:42.
