data_PCOD9268255
_publ_section_title
;
Structure prediction by ZEFSAII (Michael W. Deem and Ramdas Pophale) SiO2 
 PCOD9268255
Probable space group: C 2/C
;
_chemical_formula_sum "Si O2"
_cell_formula_units_Z 44
_cell_length_a 10.285480
_cell_length_b 9.368637
_cell_length_c 15.820987
_cell_angle_alpha 90.000000
_cell_angle_beta 79.725468
_cell_angle_gamma 90.000000
_cell_volume 1500.078352
_symmetry_space_group_name_H-M "C 2/C"
_symmetry_group_IT_number 15
_symmetry_cell_setting 'monoclinic'
loop_
_space_group_symop_operation_xyz
x,y,z
-x,y,1/2-z
-x,-y,-z
x,-y,1/2+z
1/2+x,1/2+y,z
1/2-x,1/2+y,1/2-z
1/2-x,1/2-y,-z
1/2+x,1/2-y,1/2+z
loop_
_atom_site_type_symbol
_atom_site_label
_atom_site_fract_x
_atom_site_fract_y
_atom_site_fract_z
Si Si1 0.000000 0.237899 0.250000
Si Si2 0.360458 0.136842 0.519025
Si Si3 0.747652 0.887968 0.301770
Si Si4 0.634614 0.396508 0.384461
Si Si5 0.962511 0.347091 0.839245
Si Si6 0.577368 0.640558 0.065672
O O1 0.884500 0.308821 0.210307
O O2 0.092694 0.173517 0.163273
O O3 0.250000 0.250000 0.500000
O O4 0.298114 0.046242 0.602703
O O5 0.408491 0.067527 0.425478
O O6 0.479715 0.237217 0.538477
O O7 0.793915 0.960041 0.207813
O O8 0.858592 0.773668 0.319192
O O9 0.586227 0.243524 0.357917
O O10 0.508036 0.496088 0.413521
O O11 0.681917 0.381061 0.476230
O O12 0.000000 0.429708 0.750000
#
# Coordination Sequence:
#
# PCOD9268255 Si02
#       6
#     4   8   8   8   8   8
#     4  10  20  30  44  72 102 128 162 198 252 300
#     4   8  14  27  43  67  97 125 158 196 242 296
#     4   9  17  28  44  68  96 136 158 194 249 301
#     4   9  17  30  48  74  96 125 167 208 253 284
#     4   8  14  25  46  70  93 122 166 208 244 279
#     4   9  18  29  46  74 100 120 162 217 245 285
#
# _framework density 29.331802
#
# number of rings (size 3 to 8) (size 9 to 14) (size 15 to 20)
#    0.000    3.273    0.000    0.000    3.818    0.727 
#    0.000    0.000    0.000    0.000   59.091   21.636 
#    0.000    0.000    0.000    0.000    0.000    0.000 
#
# Total GULP energy -122804.418395 kJ/mol
# GULP energy per Si atom -5582.019018 kJ/mol
# Density = 2.926504 g / cm^3
# Si number density = 29.331802 Si / 1000 Ang^3
#
#
#
# Elastic Constant Matrix: (Units=GPa)
#
#
# Indices 1 2 3 4 5 6 
#
# 1 66.7105 41.2178 36.4294 0.0000 -4.1725 0.0000
# 2 41.2178 66.9860 43.2556 0.0000 3.7823 0.0000
# 3 36.4294 43.2556 466.2011 0.0000 -11.5124 0.0000
# 4 0.0000 0.0000 0.0000 3.0041 0.0000 -20.7317
# 5 -4.1725 3.7823 -11.5124 0.0000 49.6764 0.0000
# 6 0.0000 0.0000 0.0000 -20.7317 0.0000 31.0727
#
#
#
# Elastic Compliance Matrix: (Units=1/GPa)
#
#
# Indices 1 2 3 4 5 6 
#
# 1 0.024785 -0.015133 -0.000455 0.000000 0.003128 0.000000
# 2 -0.015133 0.025241 -0.001245 0.000000 -0.003482 0.000000
# 3 -0.000455 -0.001245 0.002311 0.000000 0.000592 0.000000
# 4 0.000000 0.000000 0.000000 -0.092352 0.000000 -0.061618
# 5 0.003128 -0.003482 0.000592 0.000000 0.020795 0.000000
# 6 0.000000 0.000000 0.000000 -0.061618 0.000000 -0.008929
#
#
# Mechanical properties :
#
#
# Convention : Reuss Voigt Hill
#
# Bulk Modulus (GPa) = 53.56561 93.52256 73.54409
# Shear Modulus (GPa) = 425.85264 48.68363 237.26813
#
# Velocity S-wave (km/s) = 12.06233 4.07843 9.00370
# Velocity P-wave (km/s) = 14.57056 7.35742 11.54195
#
# Compressibility (1/GPa) = 0.01866869
#
# Stress axis : x y z
#
# Youngs Moduli (GPa) = 40.34767 39.61815 432.75979
#
# Poissons Ratio (x) = 0.59954 0.19705
# Poissons Ratio (y) = 0.61058 0.53896
# Poissons Ratio (z) = 0.01837 0.04934
#
# Static dielectric constant tensor:
#      x y z
#    x 2.367050 0.000000 0.005300 
#    y 0.000000 2.335470 0.000000 
#    z 0.005300 0.000000 2.503350 
# 
# From -- ./inp_files/144599.got.cif
#   From: 2010.05.17/outbox.cif.g08.bks.cpg/sg15_73_cif.got.tgz:144599.got - 2010.06.03 18:47:42.
