data_PCOD9268420
_publ_section_title
;
Structure prediction by ZEFSAII (Michael W. Deem and Ramdas Pophale) SiO2 
 PCOD9268420
Probable space group: C 2/C
;
_chemical_formula_sum "Si O2"
_cell_formula_units_Z 40
_cell_length_a 7.070044
_cell_length_b 21.679789
_cell_length_c 12.418698
_cell_angle_alpha 90.000000
_cell_angle_beta 65.463192
_cell_angle_gamma 90.000000
_cell_volume 1731.605220
_symmetry_space_group_name_H-M "C 2/C"
_symmetry_group_IT_number 15
_symmetry_cell_setting 'monoclinic'
loop_
_space_group_symop_operation_xyz
x,y,z
-x,y,1/2-z
-x,-y,-z
x,-y,1/2+z
1/2+x,1/2+y,z
1/2-x,1/2+y,1/2-z
1/2-x,1/2-y,-z
1/2+x,1/2-y,1/2+z
loop_
_atom_site_type_symbol
_atom_site_label
_atom_site_fract_x
_atom_site_fract_y
_atom_site_fract_z
Si Si1 0.284095 0.168884 0.738106
Si Si2 0.504090 0.384909 0.490455
Si Si3 0.710543 0.550809 0.629602
Si Si4 0.203013 0.192094 0.279599
Si Si5 0.234141 0.918375 0.642802
O O1 0.500000 0.170257 0.750000
O O2 0.109208 0.147920 0.864251
O O3 0.308588 0.115521 0.642955
O O4 0.229490 0.238185 0.715624
O O5 0.365042 0.440124 0.475151
O O6 0.865433 0.161225 0.093159
O O7 0.684722 0.405298 0.530007
O O8 0.500000 0.546825 0.750000
O O9 0.827841 0.486881 0.627479
O O10 0.332862 0.140104 0.181764
O O11 0.000000 0.199357 0.250000
O O12 0.000000 0.922621 0.750000
#
# Coordination Sequence:
#
# PCOD9268420 Si02
#       5
#     8   8   8   8   8
#     4  10  20  32  47  70  99 126 155 192 235 284
#     4   9  17  31  52  70  92 123 157 198 237 269
#     4   9  17  30  50  74  95 120 158 198 232 272
#     4   8  17  30  48  72  94 122 161 195 227 277
#     4   8  15  29  51  75  92 118 163 198 223 271
#
# _framework density 23.099951999999998
#
# number of rings (size 3 to 8) (size 9 to 14) (size 15 to 20)
#    0.000    3.600    0.000    0.600    0.000    9.600 
#    0.000    1.000    0.000    3.600    0.000   12.600 
#    0.000    0.000    0.000    0.000    0.000    0.000 
#
# Total GULP energy -111410.181738 kJ/mol
# GULP energy per Si atom -5570.509087 kJ/mol
# Density = 2.304738 g / cm^3
# Si number density = 23.099952 Si / 1000 Ang^3
#
#
#
# Elastic Constant Matrix: (Units=GPa)
#
#
# Indices 1 2 3 4 5 6 
#
# 1 49.4921 15.6580 -10.4144 0.0000 -1.4169 0.0000
# 2 15.6580 238.3861 35.0473 0.0000 17.6877 0.0000
# 3 -10.4144 35.0473 62.0664 0.0000 11.1787 0.0000
# 4 0.0000 0.0000 0.0000 -17.7042 0.0000 -3.9466
# 5 -1.4169 17.6877 11.1787 0.0000 17.9720 0.0000
# 6 0.0000 0.0000 0.0000 -3.9466 0.0000 13.0189
#
#
#
# Elastic Compliance Matrix: (Units=1/GPa)
#
#
# Indices 1 2 3 4 5 6 
#
# 1 0.021933 -0.002210 0.004758 0.000000 0.000945 0.000000
# 2 -0.002210 0.004974 -0.002552 0.000000 -0.003482 0.000000
# 3 0.004758 -0.002552 0.020081 0.000000 -0.009603 0.000000
# 4 0.000000 0.000000 0.000000 -0.052909 0.000000 -0.016039
# 5 0.000945 -0.003482 -0.009603 0.000000 0.065116 0.000000
# 6 0.000000 0.000000 0.000000 -0.016039 0.000000 0.071949
#
#
# Mechanical properties :
#
#
# Convention : Reuss Voigt Hill
#
# Bulk Modulus (GPa) = 21.28629 47.83627 34.56128
# Shear Modulus (GPa) = 34.05694 23.30094 28.67894
#
# Velocity S-wave (km/s) = 3.84387 3.17945 3.52734
# Velocity P-wave (km/s) = 5.37915 5.85080 5.61993
#
# Compressibility (1/GPa) = 0.04697859
#
# Stress axis : x y z
#
# Youngs Moduli (GPa) = 45.59383 201.06085 49.79826
#
# Poissons Ratio (x) = 0.44440 -0.23695
# Poissons Ratio (y) = 0.10077 0.12710
# Poissons Ratio (z) = -0.21694 0.51316
#
# Static dielectric constant tensor:
#      x y z
#    x 1.959840 0.000000 -0.016320 
#    y 0.000000 1.968890 0.000000 
#    z -0.016320 0.000000 1.842780 
# 
# From -- ./inp_files/135122.got.cif
#   From: 2010.05.17/outbox.cif.g08.bks.cpg/sg15_68_cif.got.tgz:135122.got - 2010.06.03 18:47:42.
