data_PCOD9268854
_publ_section_title
;
Structure prediction by ZEFSAII (Michael W. Deem and Ramdas Pophale) SiO2 
 PCOD9268854
Probable space group: C 2/C
;
_chemical_formula_sum "Si O2"
_cell_formula_units_Z 48
_cell_length_a 6.146556
_cell_length_b 14.859624
_cell_length_c 25.515136
_cell_angle_alpha 90.000000
_cell_angle_beta 68.978242
_cell_angle_gamma 90.000000
_cell_volume 2175.333983
_symmetry_space_group_name_H-M "C 2/C"
_symmetry_group_IT_number 15
_symmetry_cell_setting 'monoclinic'
loop_
_space_group_symop_operation_xyz
x,y,z
-x,y,1/2-z
-x,-y,-z
x,-y,1/2+z
1/2+x,1/2+y,z
1/2-x,1/2+y,1/2-z
1/2-x,1/2-y,-z
1/2+x,1/2-y,1/2+z
loop_
_atom_site_type_symbol
_atom_site_label
_atom_site_fract_x
_atom_site_fract_y
_atom_site_fract_z
Si Si1 0.364973 0.446485 0.090724
Si Si2 0.592284 0.703917 0.344769
Si Si3 0.627745 0.879842 0.584980
Si Si4 0.141832 0.968632 0.660699
Si Si5 0.411443 0.894184 0.198953
Si Si6 0.359557 0.255978 0.047721
O O1 0.298981 0.535105 0.062945
O O2 0.551267 0.475948 0.118143
O O3 0.433601 0.357848 0.053389
O O4 0.130850 0.418997 0.142840
O O5 0.769330 0.678782 0.375996
O O6 0.541576 0.612994 0.316193
O O7 0.662011 0.791119 0.305745
O O8 0.351428 0.730402 0.394612
O O9 0.384921 0.922157 0.624714
O O10 0.562636 0.815384 0.542546
O O11 0.208258 0.037653 0.700311
O O12 0.500000 0.905114 0.250000
O O13 0.250000 0.250000 0.000000
#
# Coordination Sequence:
#
# PCOD9268854 Si02
#       6
#     8   8   8   8   8   8
#     4   9  19  36  55  73 106 142 173 223 270 322
#     4   9  19  37  54  76 111 142 178 226 272 325
#     4   9  18  35  55  74 106 142 176 219 272 321
#     4   9  18  36  56  75 106 145 175 218 274 325
#     4  10  20  35  54  82 105 136 181 221 275 326
#     4  10  20  33  54  80 105 140 183 223 271 326
#
# _framework density 22.065577000000001
#
# number of rings (size 3 to 8) (size 9 to 14) (size 15 to 20)
#    0.000    2.667    0.000    1.000    0.000    2.000 
#    9.000    7.500    0.000    0.000    0.000    0.000 
#    0.000    0.000    0.000    0.000    0.000    0.000 
#
# Total GULP energy -134058.288234 kJ/mol
# GULP energy per Si atom -5585.762010 kJ/mol
# Density = 2.201535 g / cm^3
# Si number density = 22.065577 Si / 1000 Ang^3
#
#
#
# Elastic Constant Matrix: (Units=GPa)
#
#
# Indices 1 2 3 4 5 6 
#
# 1 108.8772 75.3155 36.5917 0.0000 36.4493 0.0000
# 2 75.3155 209.4169 90.3235 0.0000 59.4337 0.0000
# 3 36.5917 90.3235 64.3760 0.0000 27.3569 0.0000
# 4 0.0000 0.0000 0.0000 12.8506 0.0000 14.8566
# 5 36.4493 59.4337 27.3569 0.0000 49.7233 0.0000
# 6 0.0000 0.0000 0.0000 14.8566 0.0000 23.1917
#
#
#
# Elastic Compliance Matrix: (Units=1/GPa)
#
#
# Indices 1 2 3 4 5 6 
#
# 1 0.013434 -0.002349 -0.001759 0.000000 -0.006071 0.000000
# 2 -0.002349 0.014484 -0.016134 0.000000 -0.006714 0.000000
# 3 -0.001759 -0.016134 0.039712 0.000000 -0.001275 0.000000
# 4 0.000000 0.000000 0.000000 0.299988 0.000000 -0.192172
# 5 -0.006071 -0.006714 -0.001275 0.000000 0.033288 0.000000
# 6 0.000000 0.000000 0.000000 -0.192172 0.000000 0.166224
#
#
# Mechanical properties :
#
#
# Convention : Reuss Voigt Hill
#
# Bulk Modulus (GPa) = 36.83920 87.45908 62.14914
# Shear Modulus (GPa) = 8.10815 29.18242 18.64528
#
# Velocity S-wave (km/s) = 1.91900 3.64061 2.91003
# Velocity P-wave (km/s) = 4.65206 7.57589 6.28632
#
# Compressibility (1/GPa) = 0.02714500
#
# Stress axis : x y z
#
# Youngs Moduli (GPa) = 74.43989 69.04061 25.18135
#
# Poissons Ratio (x) = 0.16221 0.04430
# Poissons Ratio (y) = 0.17490 0.40627
# Poissons Ratio (z) = 0.13096 1.11387
#
# Static dielectric constant tensor:
#      x y z
#    x 1.779920 0.000000 -0.018230 
#    y 0.000000 1.837480 0.000000 
#    z -0.018230 0.000000 1.776320 
# 
# From -- ./inp_files/285549.got.cif
#   From: 2010.05.17/outbox.cif.g08.bks.cpg/sg15_143_cif.got.tgz:285549.got - 2010.06.03 18:47:42.
