data_PCOD9268515
_publ_section_title
;
Structure prediction by ZEFSAII (Michael W. Deem and Ramdas Pophale) SiO2 
 PCOD9268515
Probable space group: C 2/C
;
_chemical_formula_sum "Si O2"
_cell_formula_units_Z 36
_cell_length_a 5.967060
_cell_length_b 13.017828
_cell_length_c 21.216358
_cell_angle_alpha 90.000000
_cell_angle_beta 67.442560
_cell_angle_gamma 90.000000
_cell_volume 1521.964475
_symmetry_space_group_name_H-M "C 2/C"
_symmetry_group_IT_number 15
_symmetry_cell_setting 'monoclinic'
loop_
_space_group_symop_operation_xyz
x,y,z
-x,y,1/2-z
-x,-y,-z
x,-y,1/2+z
1/2+x,1/2+y,z
1/2-x,1/2+y,1/2-z
1/2-x,1/2-y,-z
1/2+x,1/2-y,1/2+z
loop_
_atom_site_type_symbol
_atom_site_label
_atom_site_fract_x
_atom_site_fract_y
_atom_site_fract_z
Si Si1 0.305791 0.251795 0.896256
Si Si2 0.216510 0.520744 0.777318
Si Si3 0.500000 0.681551 0.250000
Si Si4 0.073783 0.169328 0.486497
Si Si5 0.005258 0.536999 0.071636
O O1 0.438636 0.248712 0.816046
O O2 0.137232 0.159558 0.938740
O O3 0.149292 0.357254 0.909120
O O4 0.480461 0.273479 0.935157
O O5 0.500000 0.566044 0.750000
O O6 0.283679 0.399367 0.758449
O O7 0.000000 0.543948 0.750000
O O8 0.106627 0.530155 0.859991
O O9 0.250000 0.250000 0.500000
O O10 0.217504 0.070598 0.448582
O O11 0.000000 0.500000 0.000000
#
# Coordination Sequence:
#
# PCOD9268515 Si02
#       5
#     8   8   4   8   8
#     4   9  17  33  52  82 103 139 182 239 278 331
#     4   9  18  33  52  77 113 139 184 233 281 325
#     4   8  16  28  54  80 102 132 184 230 280 322
#     4   9  18  32  52  74 110 136 179 231 281 326
#     4  10  20  32  53  83 107 147 187 232 283 344
#
# _framework density 23.653638999999998
#
# number of rings (size 3 to 8) (size 9 to 14) (size 15 to 20)
#    0.667    2.222    0.000    1.333    0.000    0.889 
#    0.000    0.000    0.000    8.000    0.000    0.000 
#    0.000    0.000    0.000    0.000    0.000    0.000 
#
# Total GULP energy -100292.531481 kJ/mol
# GULP energy per Si atom -5571.807305 kJ/mol
# Density = 2.359980 g / cm^3
# Si number density = 23.653639 Si / 1000 Ang^3
#
#
#
# Elastic Constant Matrix: (Units=GPa)
#
#
# Indices 1 2 3 4 5 6 
#
# 1 119.1947 15.5688 52.9921 0.0000 -5.8092 0.0000
# 2 15.5688 65.5555 29.3430 0.0000 -4.3302 0.0000
# 3 52.9921 29.3430 232.1150 0.0000 -13.1849 0.0000
# 4 0.0000 0.0000 0.0000 17.3261 0.0000 -2.4843
# 5 -5.8092 -4.3302 -13.1849 0.0000 27.6030 0.0000
# 6 0.0000 0.0000 0.0000 -2.4843 0.0000 7.9634
#
#
#
# Elastic Compliance Matrix: (Units=1/GPa)
#
#
# Indices 1 2 3 4 5 6 
#
# 1 0.009469 -0.001321 -0.001946 0.000000 0.000856 0.000000
# 2 -0.001321 0.016423 -0.001690 0.000000 0.001491 0.000000
# 3 -0.001946 -0.001690 0.005065 0.000000 0.001745 0.000000
# 4 0.000000 0.000000 0.000000 0.060419 0.000000 0.018848
# 5 0.000856 0.001491 0.001745 0.000000 0.037475 0.000000
# 6 0.000000 0.000000 0.000000 0.018848 0.000000 0.131455
#
#
# Mechanical properties :
#
#
# Convention : Reuss Voigt Hill
#
# Bulk Modulus (GPa) = 47.52173 68.07478 57.79825
# Shear Modulus (GPa) = 18.03522 31.84258 24.93890
#
# Velocity S-wave (km/s) = 2.76428 3.67304 3.25058
# Velocity P-wave (km/s) = 5.50660 6.84329 6.21101
#
# Compressibility (1/GPa) = 0.02104301
#
# Stress axis : x y z
#
# Youngs Moduli (GPa) = 105.60598 60.89070 197.42356
#
# Poissons Ratio (x) = 0.08045 0.38422
# Poissons Ratio (y) = 0.13952 0.33360
# Poissons Ratio (z) = 0.20553 0.10289
#
# Static dielectric constant tensor:
#      x y z
#    x 1.962270 0.000000 -0.101050 
#    y 0.000000 2.139930 0.000000 
#    z -0.101050 0.000000 1.924210 
# 
# From -- ./inp_files/226715.got.cif
#   From: 2010.05.17/outbox.cif.g08.bks.cpg/sg15_114_cif.got.tgz:226715.got - 2010.06.03 18:47:42.
