data_PCOD9268800
_publ_section_title
;
Structure prediction by ZEFSAII (Michael W. Deem and Ramdas Pophale) SiO2 
 PCOD9268800
Probable space group: C 2/C
;
_chemical_formula_sum "Si O2"
_cell_formula_units_Z 56
_cell_length_a 16.260971
_cell_length_b 8.236171
_cell_length_c 22.729841
_cell_angle_alpha 90.000000
_cell_angle_beta 49.829743
_cell_angle_gamma 90.000000
_cell_volume 2326.141031
_symmetry_space_group_name_H-M "C 2/C"
_symmetry_group_IT_number 15
_symmetry_cell_setting 'monoclinic'
loop_
_space_group_symop_operation_xyz
x,y,z
-x,y,1/2-z
-x,-y,-z
x,-y,1/2+z
1/2+x,1/2+y,z
1/2-x,1/2+y,1/2-z
1/2-x,1/2-y,-z
1/2+x,1/2-y,1/2+z
loop_
_atom_site_type_symbol
_atom_site_label
_atom_site_fract_x
_atom_site_fract_y
_atom_site_fract_z
Si Si1 0.234534 0.938842 0.276146
Si Si2 0.824845 0.181223 0.096043
Si Si3 0.906132 0.486678 0.605516
Si Si4 0.881115 0.118409 0.787908
Si Si5 0.792975 0.933850 0.019837
Si Si6 0.872020 0.266600 0.309611
Si Si7 0.625949 0.899728 0.007518
O O1 0.320853 0.031504 0.195508
O O2 0.148207 0.876799 0.268280
O O3 0.311493 0.818294 0.277440
O O4 0.179404 0.053956 0.348870
O O5 0.896835 0.330376 0.083232
O O6 0.707427 0.262999 0.143530
O O7 0.849488 0.081765 0.026253
O O8 0.876887 0.383709 0.561840
O O9 0.027744 0.484732 0.570262
O O10 0.000000 0.171577 0.750000
O O11 0.869593 0.929934 0.813371
O O12 0.699024 0.859293 0.107234
O O13 0.874054 0.785730 0.970581
O O14 0.731593 0.974494 0.988373
O O15 0.000000 0.312168 0.250000
#
# Coordination Sequence:
#
# PCOD9268800 Si02
#       7
#     8   8   8   8   8   8   8
#     4  10  20  37  59  84 115 145 182 237 291 341
#     4  10  22  37  59  85 114 143 183 241 286 330
#     4  10  21  39  57  83 112 147 189 228 281 331
#     4  10  20  33  52  83 116 145 177 224 289 342
#     4  10  21  38  56  82 110 148 194 229 276 333
#     4  10  20  36  59  83 112 149 189 236 289 341
#     4  10  22  38  59  77 111 156 190 226 266 337
#
# _framework density 24.074206
#
# number of rings (size 3 to 8) (size 9 to 14) (size 15 to 20)
#    0.000    2.000    0.000    4.286    0.000    8.000 
#    0.000    2.857    0.000    3.429    0.000    0.000 
#    0.000    0.000    0.000    0.000    0.000    0.000 
#
# Total GULP energy -156476.765564 kJ/mol
# GULP energy per Si atom -5588.455913 kJ/mol
# Density = 2.401941 g / cm^3
# Si number density = 24.074206 Si / 1000 Ang^3
#
#
#
# Elastic Constant Matrix: (Units=GPa)
#
#
# Indices 1 2 3 4 5 6 
#
# 1 133.6982 10.9422 36.9192 0.0000 15.2188 0.0003
# 2 10.9422 56.0577 -6.9537 0.0000 16.5050 0.0006
# 3 36.9192 -6.9537 34.3860 0.0000 -1.8501 0.0000
# 4 0.0000 0.0000 0.0000 6.6613 0.0000 7.5410
# 5 15.2188 16.5050 -1.8501 0.0000 17.2178 0.0000
# 6 0.0003 0.0006 0.0000 7.5410 0.0000 22.3559
#
#
#
# Elastic Compliance Matrix: (Units=1/GPa)
#
#
# Indices 1 2 3 4 5 6 
#
# 1 0.013047 -0.000726 -0.014824 0.000000 -0.012429 0.000000
# 2 -0.000726 0.025388 0.004666 0.000001 -0.023194 -0.000001
# 3 -0.014824 0.004666 0.046676 0.000000 0.013646 0.000000
# 4 0.000000 0.000001 0.000000 0.242860 0.000000 -0.081921
# 5 -0.012429 -0.023194 0.013646 0.000000 0.092766 0.000001
# 6 0.000000 -0.000001 0.000000 -0.081921 0.000001 0.072364
#
#
# Mechanical properties :
#
#
# Convention : Reuss Voigt Hill
#
# Bulk Modulus (GPa) = 15.78725 33.99526 24.89126
# Shear Modulus (GPa) = 9.32864 21.46261 15.39563
#
# Velocity S-wave (km/s) = 1.97063 2.98907 2.53159
# Velocity P-wave (km/s) = 3.42780 5.10533 4.34823
#
# Compressibility (1/GPa) = 0.06334225
#
# Stress axis : x y z
#
# Youngs Moduli (GPa) = 76.64418 39.38832 21.42448
#
# Poissons Ratio (x) = 0.02860 0.31760
# Poissons Ratio (y) = 0.05565 -0.09996
# Poissons Ratio (z) = 1.13618 -0.18378
#
# Static dielectric constant tensor:
#      x y z
#    x 1.935100 0.000000 -0.005470 
#    y 0.000000 1.934510 0.000000 
#    z -0.005470 0.000000 1.949420 
# 
# From -- ./inp_files/273080.got.cif
#   From: 2010.05.17/outbox.cif.g08.bks.cpg/sg15_137_cif.got.tgz:273080.got - 2010.06.03 18:47:42.
