data_PCOD9268739
_publ_section_title
;
Structure prediction by ZEFSAII (Michael W. Deem and Ramdas Pophale) SiO2 
 PCOD9268739
Probable space group: C 2/C
;
_chemical_formula_sum "Si O2"
_cell_formula_units_Z 64
_cell_length_a 14.336933
_cell_length_b 7.891359
_cell_length_c 27.001085
_cell_angle_alpha 90.000000
_cell_angle_beta 106.460866
_cell_angle_gamma 90.000000
_cell_volume 2929.638221
_symmetry_space_group_name_H-M "C 2/C"
_symmetry_group_IT_number 15
_symmetry_cell_setting 'monoclinic'
loop_
_space_group_symop_operation_xyz
x,y,z
-x,y,1/2-z
-x,-y,-z
x,-y,1/2+z
1/2+x,1/2+y,z
1/2-x,1/2+y,1/2-z
1/2-x,1/2-y,-z
1/2+x,1/2-y,1/2+z
loop_
_atom_site_type_symbol
_atom_site_label
_atom_site_fract_x
_atom_site_fract_y
_atom_site_fract_z
Si Si1 0.800491 0.012872 0.984019
Si Si2 0.181869 0.340437 0.049178
Si Si3 0.693584 0.808977 0.199643
Si Si4 0.651555 0.960141 0.776207
Si Si5 0.998770 0.310805 0.678533
Si Si6 0.339979 0.458856 0.151346
Si Si7 0.150788 0.754600 0.921196
Si Si8 0.961289 0.458052 0.396577
O O1 0.752490 0.156300 0.942919
O O2 0.847364 0.855230 0.962595
O O3 0.859299 0.108982 0.035675
O O4 0.713919 0.922027 0.002354
O O5 0.274731 0.356242 0.100375
O O6 0.097545 0.449088 0.061718
O O7 0.745186 0.629368 0.200551
O O8 0.775489 0.940375 0.190909
O O9 0.601542 0.841944 0.150962
O O10 0.665054 0.862455 0.250744
O O11 0.590670 0.841934 0.727927
O O12 0.583293 0.945699 0.813984
O O13 0.942816 0.134160 0.673312
O O14 0.030013 0.360462 0.628224
O O15 0.351139 0.643454 0.130216
O O16 0.065826 0.622641 0.915322
#
# Coordination Sequence:
#
# PCOD9268739 Si02
#       8
#     8   8   8   8   8   8   8   8
#     4   9  19  36  54  72  99 136 170 205 254 302
#     4   9  18  35  55  72  99 137 170 204 250 306
#     4   9  19  34  51  74 100 131 169 204 247 299
#     4   9  18  33  53  75 100 132 169 208 249 299
#     4   9  18  34  53  72 101 138 168 200 252 308
#     4   9  18  34  52  73 103 135 167 203 249 302
#     4  10  20  33  51  77 103 129 167 212 253 296
#     4  10  20  33  51  77 101 127 168 210 250 299
#
# _framework density 21.845700999999998
#
# number of rings (size 3 to 8) (size 9 to 14) (size 15 to 20)
#    0.000    2.750    0.000    0.750    0.000    3.000 
#    0.000    6.250    0.000    0.000    0.000    0.000 
#    0.000    0.000    0.000    0.000    0.000    0.000 
#
# Total GULP energy -178520.428482 kJ/mol
# GULP energy per Si atom -5578.763390 kJ/mol
# Density = 2.179598 g / cm^3
# Si number density = 21.845701 Si / 1000 Ang^3
#
#
#
# Elastic Constant Matrix: (Units=GPa)
#
#
# Indices 1 2 3 4 5 6 
#
# 1 24.4874 -10.8189 18.2016 0.0000 -2.4968 0.0000
# 2 -10.8189 22.1106 15.2557 0.0000 -2.3724 0.0000
# 3 18.2016 15.2557 25.6778 0.0000 -14.2350 0.0000
# 4 0.0000 0.0000 0.0000 28.7754 0.0000 -3.4280
# 5 -2.4968 -2.3724 -14.2350 0.0000 31.4678 0.0000
# 6 0.0000 0.0000 0.0000 -3.4280 0.0000 16.8350
#
#
#
# Elastic Compliance Matrix: (Units=1/GPa)
#
#
# Indices 1 2 3 4 5 6 
#
# 1 -0.025405 -0.052228 0.061047 0.000000 0.021662 0.000000
# 2 -0.052228 -0.020232 0.061262 0.000000 0.022044 0.000000
# 3 0.061047 0.061262 -0.047356 0.000000 -0.011960 0.000000
# 4 0.000000 0.000000 0.000000 0.035616 0.000000 0.007252
# 5 0.021662 0.022044 -0.011960 0.000000 0.029749 0.000000
# 6 0.000000 0.000000 0.000000 0.007252 0.000000 0.060877
#
#
# Mechanical properties :
#
#
# Convention : Reuss Voigt Hill
#
# Bulk Modulus (GPa) = 21.20023 13.06140 17.13082
# Shear Modulus (GPa) = -54.82959 18.72479 -18.05240
#
# Velocity S-wave (km/s) = -5.01528 2.93087 -2.87777
# Velocity P-wave (km/s) = 4.87973 4.17675 1.78418
#
# Compressibility (1/GPa) = 0.04716930
#
# Stress axis : x y z
#
# Youngs Moduli (GPa) = -39.36172 -49.42651 -21.11662
#
# Poissons Ratio (x) = -2.58142 1.28911
# Poissons Ratio (y) = -2.05576 1.29364
# Poissons Ratio (z) = 2.40291 3.02796
#
# Static dielectric constant tensor:
#      x y z
#    x 1.781350 0.000000 -0.012680 
#    y 0.000000 1.797690 0.000000 
#    z -0.012680 0.000000 1.827480 
# 
# From -- ./inp_files/312690.got.cif
#   From: 2010.05.17/outbox.cif.g08.bks.cpg/sg15_157_cif.got.tgz:312690.got - 2010.06.03 18:47:42.
