data_PCOD9268841
_publ_section_title
;
Structure prediction by ZEFSAII (Michael W. Deem and Ramdas Pophale) SiO2 
 PCOD9268841
Probable space group: C 2/C
;
_chemical_formula_sum "Si O2"
_cell_formula_units_Z 48
_cell_length_a 24.667578
_cell_length_b 8.809289
_cell_length_c 11.341531
_cell_angle_alpha 90.000000
_cell_angle_beta 81.078234
_cell_angle_gamma 90.000000
_cell_volume 2434.739417
_symmetry_space_group_name_H-M "C 2/C"
_symmetry_group_IT_number 15
_symmetry_cell_setting 'monoclinic'
loop_
_space_group_symop_operation_xyz
x,y,z
-x,y,1/2-z
-x,-y,-z
x,-y,1/2+z
1/2+x,1/2+y,z
1/2-x,1/2+y,1/2-z
1/2-x,1/2-y,-z
1/2+x,1/2-y,1/2+z
loop_
_atom_site_type_symbol
_atom_site_label
_atom_site_fract_x
_atom_site_fract_y
_atom_site_fract_z
Si Si1 0.697294 0.726918 0.275884
Si Si2 0.379199 0.294676 0.044174
Si Si3 0.529460 0.439320 0.610853
Si Si4 0.701913 0.950584 0.870912
Si Si5 0.625900 0.539351 0.714505
Si Si6 0.791987 0.047471 0.991469
O O1 0.752016 0.666699 0.192836
O O2 0.645232 0.632739 0.241481
O O3 0.701939 0.664003 0.406555
O O4 0.694512 0.907541 0.285601
O O5 0.353938 0.133340 0.081552
O O6 0.392682 0.378265 0.162053
O O7 0.329060 0.399457 0.010349
O O8 0.433226 0.298085 0.945595
O O9 0.500000 0.414779 0.750000
O O10 0.500000 0.500000 0.500000
O O11 0.578401 0.552570 0.633872
O O12 0.730219 0.006561 0.982200
O O13 0.680823 0.608428 0.638785
#
# Coordination Sequence:
#
# PCOD9268841 Si02
#       6
#     8   8   8   8   8   8
#     4  10  20  33  53  84 129 168 204 243 296 363
#     4  10  20  34  55  87 122 153 203 252 303 360
#     4  11  21  38  66  96 114 148 203 268 316 361
#     4  11  20  33  53  84 124 170 205 241 298 360
#     4   9  19  36  56  90 119 156 199 254 302 365
#     4   9  18  32  53  83 124 166 202 244 286 357
#
# _framework density 19.714635000000001
#
# number of rings (size 3 to 8) (size 9 to 14) (size 15 to 20)
#    0.000    2.000    1.667    4.000    0.000    2.667 
#    0.000    0.000    0.000    1.000    4.333    0.000 
#    0.000    0.000    0.000    0.000    0.000    0.000 
#
# Total GULP energy -133611.919365 kJ/mol
# GULP energy per Si atom -5567.163307 kJ/mol
# Density = 1.966976 g / cm^3
# Si number density = 19.714635 Si / 1000 Ang^3
#
#
#
# Elastic Constant Matrix: (Units=GPa)
#
#
# Indices 1 2 3 4 5 6 
#
# 1 92.5849 37.3301 45.7516 0.0000 9.8092 0.0000
# 2 37.3301 76.5957 34.3585 0.0000 -6.2225 0.0000
# 3 45.7516 34.3585 114.6299 0.0000 -0.3272 0.0000
# 4 0.0000 0.0000 0.0000 9.8892 0.0000 -10.4229
# 5 9.8092 -6.2225 -0.3272 0.0000 46.1023 0.0000
# 6 0.0000 0.0000 0.0000 -10.4229 0.0000 9.1687
#
#
#
# Elastic Compliance Matrix: (Units=1/GPa)
#
#
# Indices 1 2 3 4 5 6 
#
# 1 0.015953 -0.006075 -0.004558 0.000000 -0.004247 0.000000
# 2 -0.006075 0.017584 -0.002836 0.000000 0.003646 0.000000
# 3 -0.004558 -0.002836 0.011395 0.000000 0.000668 0.000000
# 4 0.000000 0.000000 0.000000 -0.510307 0.000000 -0.580117
# 5 -0.004247 0.003646 0.000668 0.000000 0.023091 0.000000
# 6 0.000000 0.000000 0.000000 -0.580117 0.000000 -0.550411
#
#
# Mechanical properties :
#
#
# Convention : Reuss Voigt Hill
#
# Bulk Modulus (GPa) = 55.57350 57.63232 56.60291
# Shear Modulus (GPa) = -5.20965 24.12339 9.45687
#
# Velocity S-wave (km/s) = -1.62735 3.50184 2.19255
# Velocity P-wave (km/s) = 4.97183 6.75627 5.93154
#
# Compressibility (1/GPa) = 0.01799419
#
# Stress axis : x y z
#
# Youngs Moduli (GPa) = 62.68476 56.86831 87.75865
#
# Poissons Ratio (x) = 0.34548 0.40004
# Poissons Ratio (y) = 0.38082 0.24884
# Poissons Ratio (z) = 0.28574 0.16125
#
# Static dielectric constant tensor:
#      x y z
#    x 1.730890 0.000000 0.002120 
#    y 0.000000 1.731110 0.000000 
#    z 0.002120 0.000000 1.811660 
# 
# From -- ./inp_files/116287.got.cif
#   From: 2010.05.17/outbox.cif.g08.bks.cpg/sg15_59_cif.got.tgz:116287.got - 2010.06.03 18:47:42.
