data_PCOD9268494
_publ_section_title
;
Structure prediction by ZEFSAII (Michael W. Deem and Ramdas Pophale) SiO2 
 PCOD9268494
Probable space group: C 2/C
;
_chemical_formula_sum "Si O2"
_cell_formula_units_Z 52
_cell_length_a 11.088881
_cell_length_b 14.992230
_cell_length_c 12.528137
_cell_angle_alpha 90.000000
_cell_angle_beta 79.185119
_cell_angle_gamma 90.000000
_cell_volume 2045.772932
_symmetry_space_group_name_H-M "C 2/C"
_symmetry_group_IT_number 15
_symmetry_cell_setting 'monoclinic'
loop_
_space_group_symop_operation_xyz
x,y,z
-x,y,1/2-z
-x,-y,-z
x,-y,1/2+z
1/2+x,1/2+y,z
1/2-x,1/2+y,1/2-z
1/2-x,1/2-y,-z
1/2+x,1/2-y,1/2+z
loop_
_atom_site_type_symbol
_atom_site_label
_atom_site_fract_x
_atom_site_fract_y
_atom_site_fract_z
Si Si1 0.799720 0.583147 0.375356
Si Si2 0.290064 0.256043 0.743231
Si Si3 0.765774 0.939276 0.285174
Si Si4 0.551166 0.762608 0.078233
Si Si5 0.998820 0.452052 0.377267
Si Si6 0.452694 0.400855 0.528708
Si Si7 0.500000 0.540344 0.250000
O O1 0.792128 0.663747 0.290896
O O2 0.753971 0.493962 0.321892
O O3 0.691009 0.609464 0.475259
O O4 0.929372 0.547009 0.395918
O O5 0.219180 0.163507 0.743528
O O6 0.344327 0.266774 0.853990
O O7 0.412994 0.235234 0.652156
O O8 0.643940 0.959964 0.373137
O O9 0.889759 0.980042 0.308853
O O10 0.567776 0.868392 0.054836
O O11 0.534789 0.686221 0.990371
O O12 0.000000 0.428260 0.250000
O O13 0.500000 0.500000 0.500000
O O14 0.457385 0.401288 0.658470
#
# Coordination Sequence:
#
# PCOD9268494 Si02
#       7
#     8   8   8   8   8   8   4
#     4   9  16  27  47  73 104 134 174 221 264 299
#     4   9  14  25  48  74 100 135 177 212 255 312
#     4   9  16  29  47  75 104 133 173 214 262 322
#     4   9  13  26  47  70  95 137 176 209 252 313
#     4   9  14  26  48  72 100 131 180 217 250 316
#     4  10  20  32  52  79 103 134 181 225 264 314
#     4  10  20  34  54  74 108 140 162 222 278 306
#
# _framework density 25.418265000000002
#
# number of rings (size 3 to 8) (size 9 to 14) (size 15 to 20)
#    0.000    2.769    4.615    2.769    0.000    0.000 
#    4.154    0.769    0.000    9.231    0.000    0.000 
#    0.000    0.000    0.000    0.000    0.000    0.000 
#
# Total GULP energy -144943.858049 kJ/mol
# GULP energy per Si atom -5574.763771 kJ/mol
# Density = 2.536041 g / cm^3
# Si number density = 25.418265 Si / 1000 Ang^3
#
#
#
# Elastic Constant Matrix: (Units=GPa)
#
#
# Indices 1 2 3 4 5 6 
#
# 1 140.9495 61.3381 3.8400 0.0000 6.4017 0.0000
# 2 61.3381 168.7858 12.0103 0.0000 11.0581 0.0000
# 3 3.8400 12.0103 44.6001 0.0000 4.2139 0.0000
# 4 0.0000 0.0000 0.0000 21.4335 0.0000 6.2702
# 5 6.4017 11.0581 4.2139 0.0000 10.2803 0.0000
# 6 0.0000 0.0000 0.0000 6.2702 0.0000 38.3683
#
#
#
# Elastic Compliance Matrix: (Units=1/GPa)
#
#
# Indices 1 2 3 4 5 6 
#
# 1 0.008473 -0.002954 0.000275 0.000000 -0.002212 0.000000
# 2 -0.002954 0.007457 -0.001217 0.000000 -0.005683 0.000000
# 3 0.000275 -0.001217 0.023529 0.000000 -0.008507 0.000000
# 4 0.000000 0.000000 0.000000 0.048999 0.000000 -0.008007
# 5 -0.002212 -0.005683 -0.008507 0.000000 0.108251 0.000000
# 6 0.000000 0.000000 0.000000 -0.008007 0.000000 0.027372
#
#
# Mechanical properties :
#
#
# Convention : Reuss Voigt Hill
#
# Bulk Modulus (GPa) = 31.57780 56.52357 44.05069
# Shear Modulus (GPa) = 20.62466 32.49288 26.55877
#
# Velocity S-wave (km/s) = 2.85162 3.57925 3.23595
# Velocity P-wave (km/s) = 4.82623 6.27432 5.59730
#
# Compressibility (1/GPa) = 0.03166781
#
# Stress axis : x y z
#
# Youngs Moduli (GPa) = 118.01970 134.10150 42.50032
#
# Poissons Ratio (x) = 0.39612 -0.01168
# Poissons Ratio (y) = 0.34862 0.05172
# Poissons Ratio (z) = -0.03244 0.16318
#
# Static dielectric constant tensor:
#      x y z
#    x 2.110860 0.000000 0.011240 
#    y 0.000000 2.100520 0.000000 
#    z 0.011240 0.000000 2.141130 
# 
# From -- ./inp_files/197246.got.cif
#   From: 2010.05.17/outbox.cif.g08.bks.cpg/sg15_99_cif.got.tgz:197246.got - 2010.06.03 18:47:42.
