data_PCOD9268358
_publ_section_title
;
Structure prediction by ZEFSAII (Michael W. Deem and Ramdas Pophale) SiO2 
 PCOD9268358
Probable space group: C 2/C
;
_chemical_formula_sum "Si O2"
_cell_formula_units_Z 60
_cell_length_a 16.109070
_cell_length_b 18.903339
_cell_length_c 26.104818
_cell_angle_alpha 90.000000
_cell_angle_beta 156.624057
_cell_angle_gamma 90.000000
_cell_volume 3153.989877
_symmetry_space_group_name_H-M "C 2/C"
_symmetry_group_IT_number 15
_symmetry_cell_setting 'monoclinic'
loop_
_space_group_symop_operation_xyz
x,y,z
-x,y,1/2-z
-x,-y,-z
x,-y,1/2+z
1/2+x,1/2+y,z
1/2-x,1/2+y,1/2-z
1/2-x,1/2-y,-z
1/2+x,1/2-y,1/2+z
loop_
_atom_site_type_symbol
_atom_site_label
_atom_site_fract_x
_atom_site_fract_y
_atom_site_fract_z
Si Si1 0.500000 0.289130 0.750000
Si Si2 0.728408 0.539276 0.894643
Si Si3 0.399181 0.314721 0.137072
Si Si4 0.976231 0.752150 0.034106
Si Si5 0.238905 0.842675 0.243517
Si Si6 0.329612 0.360975 0.754499
Si Si7 0.351396 0.980890 0.351228
Si Si8 0.549281 0.736490 0.460292
O O1 0.438565 0.338126 0.763242
O O2 0.295144 0.245256 0.614003
O O3 0.500000 0.511252 0.750000
O O4 0.701667 0.606582 0.916321
O O5 0.823295 0.554921 0.891739
O O6 0.900693 0.488831 0.016166
O O7 0.500000 0.311439 0.250000
O O8 0.574403 0.314949 0.193285
O O9 0.226287 0.253595 0.044513
O O10 0.127895 0.817915 0.129508
O O11 0.115726 0.684821 0.129958
O O12 0.933836 0.754852 0.949847
O O13 0.459196 0.803294 0.376934
O O14 0.258944 0.925551 0.259772
O O15 0.262294 0.443162 0.716346
O O16 0.468015 0.330557 0.880589
#
# Coordination Sequence:
#
# PCOD9268358 Si02
#       8
#     4   8   8   8   8   8   8   8
#     4  10  22  34  60  80 106 140 186 224 272 316
#     4  10  20  31  52  77 116 137 166 214 285 327
#     4  11  17  34  55  84 110 139 167 227 278 326
#     4  10  20  37  56  80 107 147 181 223 269 325
#     4  11  22  34  57  82 112 139 184 223 273 329
#     4  10  22  35  56  81 110 143 180 225 270 324
#     4  11  21  33  51  83 111 141 176 221 274 328
#     4  10  21  40  54  78 110 143 187 224 267 317
#
# _framework density 19.023523000000001
#
# number of rings (size 3 to 8) (size 9 to 14) (size 15 to 20)
#    0.000    1.600    5.333    0.800    6.533    0.000 
#    0.000    0.667    0.000    0.000    1.733    0.000 
#    0.000    0.000    0.000    0.000    0.000    0.000 
#
# Total GULP energy -167054.106327 kJ/mol
# GULP energy per Si atom -5568.470211 kJ/mol
# Density = 1.898022 g / cm^3
# Si number density = 19.023523 Si / 1000 Ang^3
#
#
#
# Elastic Constant Matrix: (Units=GPa)
#
#
# Indices 1 2 3 4 5 6 
#
# 1 28.2817 1.2041 28.5965 -0.0006 0.4918 -0.0018
# 2 1.2041 69.5590 17.1203 0.0058 -10.5892 -0.0011
# 3 28.5965 17.1203 84.2626 -0.0062 7.6612 0.0041
# 4 -0.0006 0.0058 -0.0062 20.5318 0.0070 -0.5362
# 5 0.4918 -10.5892 7.6612 0.0070 26.0480 -0.0017
# 6 -0.0018 -0.0011 0.0041 -0.5362 -0.0017 12.2686
#
#
#
# Elastic Compliance Matrix: (Units=1/GPa)
#
#
# Indices 1 2 3 4 5 6 
#
# 1 0.055934 0.005213 -0.020692 -0.000008 0.007149 0.000016
# 2 0.005213 0.017080 -0.006023 -0.000009 0.008617 0.000005
# 3 -0.020692 -0.006023 0.020858 0.000010 -0.008193 -0.000011
# 4 -0.000008 -0.000009 0.000010 0.048761 -0.000020 0.002131
# 5 0.007149 0.008617 -0.008193 -0.000020 0.044168 0.000010
# 6 0.000016 0.000005 -0.000011 0.002131 0.000010 0.081602
#
#
# Mechanical properties :
#
#
# Convention : Reuss Voigt Hill
#
# Bulk Modulus (GPa) = 19.65816 30.66057 25.15936
# Shear Modulus (GPa) = 15.22701 20.78184 18.00442
#
# Velocity S-wave (km/s) = 2.83226 3.30878 3.07975
# Velocity P-wave (km/s) = 4.58820 5.54522 5.08926
#
# Compressibility (1/GPa) = 0.05086947
#
# Stress axis : x y z
#
# Youngs Moduli (GPa) = 17.87807 58.54756 47.94209
#
# Poissons Ratio (x) = -0.30520 0.99201
# Poissons Ratio (y) = -0.09320 0.28875
# Poissons Ratio (z) = 0.36993 0.35262
#
# Static dielectric constant tensor:
#      x y z
#    x 1.685170 0.000000 0.029580 
#    y 0.000000 1.731440 -0.000010 
#    z 0.029580 -0.000010 1.734580 
# 
# From -- ./inp_files/316635.got.cif
#   From: 2010.05.17/outbox.cif.g08.bks.cpg/sg15_159_cif.got.tgz:316635.got - 2010.06.03 18:47:42.
