data_PCOD9268728
_publ_section_title
;
Structure prediction by ZEFSAII (Michael W. Deem and Ramdas Pophale) SiO2 
 PCOD9268728
Probable space group: C 2/C
;
_chemical_formula_sum "Si O2"
_cell_formula_units_Z 40
_cell_length_a 21.376700
_cell_length_b 19.844908
_cell_length_c 4.995651
_cell_angle_alpha 90.000000
_cell_angle_beta 82.499807
_cell_angle_gamma 90.000000
_cell_volume 2101.116903
_symmetry_space_group_name_H-M "C 2/C"
_symmetry_group_IT_number 15
_symmetry_cell_setting 'monoclinic'
loop_
_space_group_symop_operation_xyz
x,y,z
-x,y,1/2-z
-x,-y,-z
x,-y,1/2+z
1/2+x,1/2+y,z
1/2-x,1/2+y,1/2-z
1/2-x,1/2-y,-z
1/2+x,1/2-y,1/2+z
loop_
_atom_site_type_symbol
_atom_site_label
_atom_site_fract_x
_atom_site_fract_y
_atom_site_fract_z
Si Si1 0.643452 0.275754 0.545176
Si Si2 0.767732 0.956104 0.629266
Si Si3 0.563855 0.310365 0.091658
Si Si4 0.234917 0.688213 0.211370
Si Si5 0.580994 0.543403 0.406692
O O1 0.611439 0.313863 0.315820
O O2 0.706180 0.312752 0.616287
O O3 0.671488 0.207072 0.405642
O O4 0.596438 0.272294 0.823929
O O5 0.735328 0.885109 0.582303
O O6 0.843659 0.945422 0.593858
O O7 0.751737 0.013681 0.425966
O O8 0.500000 0.280125 0.250000
O O9 0.550504 0.385412 0.992457
O O10 0.250000 0.750000 0.000000
O O11 0.566437 0.516357 0.121280
#
# Coordination Sequence:
#
# PCOD9268728 Si02
#       5
#     8   8   8   8   8
#     4  11  23  37  59  84 106 152 198 230 302 328
#     4  10  22  33  54  84 119 148 185 236 292 336
#     4  12  24  39  54  78 116 150 200 248 276 325
#     4  11  22  38  65  83 118 151 197 240 289 367
#     4  10  20  33  51  72 108 154 198 233 271 324
#
# _framework density 19.037493000000001
#
# number of rings (size 3 to 8) (size 9 to 14) (size 15 to 20)
#    0.000    1.200    4.000    1.800   11.200    0.800 
#    0.000    0.000    0.000    0.000    0.000    0.000 
#    0.000   16.000    0.000    0.000    0.000    0.000 
#
# Total GULP energy -111776.647243 kJ/mol
# GULP energy per Si atom -5588.832362 kJ/mol
# Density = 1.899416 g / cm^3
# Si number density = 19.037493 Si / 1000 Ang^3
#
#
#
# Elastic Constant Matrix: (Units=GPa)
#
#
# Indices 1 2 3 4 5 6 
#
# 1 52.9896 24.0491 31.5913 0.0000 -12.4917 0.0000
# 2 24.0491 77.7274 19.1560 0.0000 -14.3449 0.0000
# 3 31.5913 19.1560 105.5927 0.0000 -11.0369 0.0000
# 4 0.0000 0.0000 0.0000 21.1670 0.0000 -8.9123
# 5 -12.4917 -14.3449 -11.0369 0.0000 43.9463 0.0000
# 6 0.0000 0.0000 0.0000 -8.9123 0.0000 20.4632
#
#
#
# Elastic Compliance Matrix: (Units=1/GPa)
#
#
# Indices 1 2 3 4 5 6 
#
# 1 0.026252 -0.005818 -0.006385 0.000000 0.003959 0.000000
# 2 -0.005818 0.015435 -0.000725 0.000000 0.003203 0.000000
# 3 -0.006385 -0.000725 0.011602 0.000000 0.000862 0.000000
# 4 0.000000 0.000000 0.000000 0.057852 0.000000 0.025196
# 5 0.003959 0.003203 0.000862 0.000000 0.025142 0.000000
# 6 0.000000 0.000000 0.000000 0.025196 0.000000 0.059842
#
#
# Mechanical properties :
#
#
# Convention : Reuss Voigt Hill
#
# Bulk Modulus (GPa) = 36.45098 42.87806 39.66452
# Shear Modulus (GPa) = 21.63322 27.88285 24.75803
#
# Velocity S-wave (km/s) = 3.37463 3.83120 3.61014
# Velocity P-wave (km/s) = 5.86282 6.49173 6.18528
#
# Compressibility (1/GPa) = 0.02743411
#
# Stress axis : x y z
#
# Youngs Moduli (GPa) = 38.09228 64.78653 86.19082
#
# Poissons Ratio (x) = 0.37694 0.55031
# Poissons Ratio (y) = 0.22163 0.06247
# Poissons Ratio (z) = 0.24321 0.04695
#
# Static dielectric constant tensor:
#      x y z
#    x 1.707660 0.000000 -0.023490 
#    y 0.000000 1.664230 0.000000 
#    z -0.023490 0.000000 1.710440 
# 
# From -- ./inp_files/12750.got.cif
#   From: 2010.05.17/outbox.cif.g08.bks.cpg/sg15_7_cif.got.tgz:12750.got - 2010.06.03 18:47:42.
