data_PCOD9268840
_publ_section_title
;
Structure prediction by ZEFSAII (Michael W. Deem and Ramdas Pophale) SiO2 
 PCOD9268840
Probable space group: C 2/C
;
_chemical_formula_sum "Si O2"
_cell_formula_units_Z 40
_cell_length_a 10.955231
_cell_length_b 24.566419
_cell_length_c 13.755156
_cell_angle_alpha 90.000000
_cell_angle_beta 32.773105
_cell_angle_gamma 90.000000
_cell_volume 2003.908279
_symmetry_space_group_name_H-M "C 2/C"
_symmetry_group_IT_number 15
_symmetry_cell_setting 'monoclinic'
loop_
_space_group_symop_operation_xyz
x,y,z
-x,y,1/2-z
-x,-y,-z
x,-y,1/2+z
1/2+x,1/2+y,z
1/2-x,1/2+y,1/2-z
1/2-x,1/2-y,-z
1/2+x,1/2-y,1/2+z
loop_
_atom_site_type_symbol
_atom_site_label
_atom_site_fract_x
_atom_site_fract_y
_atom_site_fract_z
Si Si1 0.837733 0.472649 0.030175
Si Si2 0.008884 0.987796 0.607436
Si Si3 0.088468 0.817851 0.032739
Si Si4 0.792240 0.611445 0.229729
Si Si5 0.640084 0.805595 0.448651
O O1 0.626388 0.464550 0.244535
O O2 0.747904 0.509192 0.001437
O O3 0.000000 0.500000 0.000000
O O4 0.986548 0.423867 0.890500
O O5 0.880163 0.930234 0.707383
O O6 0.000000 0.000000 0.500000
O O7 0.258184 0.815396 0.011009
O O8 0.836721 0.823388 0.243460
O O9 0.166117 0.863860 0.906635
O O10 0.105784 0.759263 0.967922
O O11 0.909263 0.660688 0.092392
#
# Coordination Sequence:
#
# PCOD9268840 Si02
#       5
#     8   8   8   8   8
#     4   9  22  42  60  90 126 167 220 265 313 393
#     4  10  23  38  60  94 124 164 225 265 316 393
#     4  10  20  33  53  86 123 173 222 265 322 399
#     4  11  22  35  61  83 127 177 201 275 333 371
#     4  10  20  33  53  84 128 168 223 264 324 400
#
# _framework density 19.960995
#
# number of rings (size 3 to 8) (size 9 to 14) (size 15 to 20)
#    0.000    2.000    2.000    0.600    8.400    4.000 
#    0.000    0.000    0.000    0.000    0.000   22.400 
#    0.000    0.000    0.000    0.000    0.000    0.000 
#
# Total GULP energy -111425.628967 kJ/mol
# GULP energy per Si atom -5571.281448 kJ/mol
# Density = 1.991556 g / cm^3
# Si number density = 19.960995 Si / 1000 Ang^3
#
#
#
# Elastic Constant Matrix: (Units=GPa)
#
#
# Indices 1 2 3 4 5 6 
#
# 1 101.3200 40.9824 34.8066 -0.0001 2.3759 0.0001
# 2 40.9824 113.6934 55.2544 0.0000 -0.9393 0.0000
# 3 34.8066 55.2544 101.3261 -0.0003 18.0116 0.0002
# 4 -0.0001 0.0000 -0.0003 53.9976 0.0002 -2.1604
# 5 2.3759 -0.9393 18.0116 0.0002 25.3059 -0.0001
# 6 0.0001 0.0000 0.0002 -2.1604 -0.0001 22.8744
#
#
#
# Elastic Compliance Matrix: (Units=1/GPa)
#
#
# Indices 1 2 3 4 5 6 
#
# 1 0.011973 -0.003080 -0.002534 0.000000 0.000565 0.000000
# 2 -0.003080 0.013560 -0.007415 0.000000 0.006070 0.000000
# 3 -0.002534 -0.007415 0.016932 0.000000 -0.012089 0.000000
# 4 0.000000 0.000000 0.000000 0.018590 0.000000 0.001756
# 5 0.000565 0.006070 -0.012089 0.000000 0.048293 0.000000
# 6 0.000000 0.000000 0.000000 0.001756 0.000000 0.043883
#
#
# Mechanical properties :
#
#
# Convention : Reuss Voigt Hill
#
# Bulk Modulus (GPa) = 60.95077 64.26960 62.61019
# Shear Modulus (GPa) = 27.06265 32.78867 29.92566
#
# Velocity S-wave (km/s) = 3.68608 4.05734 3.87616
# Velocity P-wave (km/s) = 6.97979 7.36321 7.17406
#
# Compressibility (1/GPa) = 0.01640668
#
# Stress axis : x y z
#
# Youngs Moduli (GPa) = 83.52433 73.74791 59.05911
#
# Poissons Ratio (x) = 0.22711 0.14964
# Poissons Ratio (y) = 0.25722 0.43795
# Poissons Ratio (z) = 0.21163 0.54688
#
# Static dielectric constant tensor:
#      x y z
#    x 1.828760 0.000000 -0.181580 
#    y 0.000000 1.763920 0.000000 
#    z -0.181580 0.000000 1.976320 
# 
# From -- ./inp_files/147987.got.cif
#   From: 2010.05.17/outbox.cif.g08.bks.cpg/sg15_74_cif.got.tgz:147987.got - 2010.06.03 18:47:42.
