data_PCOD9268525
_publ_section_title
;
Structure prediction by ZEFSAII (Michael W. Deem and Ramdas Pophale) SiO2 
 PCOD9268525
Probable space group: C 2/C
;
_chemical_formula_sum "Si O2"
_cell_formula_units_Z 60
_cell_length_a 29.730053
_cell_length_b 21.172607
_cell_length_c 8.334924
_cell_angle_alpha 90.000000
_cell_angle_beta 39.032398
_cell_angle_gamma 90.000000
_cell_volume 3304.049533
_symmetry_space_group_name_H-M "C 2/C"
_symmetry_group_IT_number 15
_symmetry_cell_setting 'monoclinic'
loop_
_space_group_symop_operation_xyz
x,y,z
-x,y,1/2-z
-x,-y,-z
x,-y,1/2+z
1/2+x,1/2+y,z
1/2-x,1/2+y,1/2-z
1/2-x,1/2-y,-z
1/2+x,1/2-y,1/2+z
loop_
_atom_site_type_symbol
_atom_site_label
_atom_site_fract_x
_atom_site_fract_y
_atom_site_fract_z
Si Si1 0.953575 0.337660 0.041255
Si Si2 0.420847 0.528278 0.676137
Si Si3 0.854669 0.088142 0.182827
Si Si4 0.697219 0.909318 0.030415
Si Si5 0.145081 0.507965 0.414939
Si Si6 0.500000 0.378729 0.750000
Si Si7 0.548030 0.941510 0.922952
Si Si8 0.043523 0.810050 0.959502
O O1 0.874431 0.367905 0.246761
O O2 0.945078 0.264099 0.102137
O O3 0.000000 0.344174 0.750000
O O4 0.003252 0.378120 0.024324
O O5 0.500000 0.500000 0.500000
O O6 0.368389 0.472524 0.761409
O O7 0.435542 0.575325 0.485638
O O8 0.392547 0.565870 0.910756
O O9 0.775794 0.112373 0.355521
O O10 0.890444 0.146137 0.176417
O O11 0.690799 0.938211 0.871791
O O12 0.688484 0.970953 0.163804
O O13 0.114318 0.453179 0.617069
O O14 0.080057 0.543318 0.506653
O O15 0.513695 0.338952 0.874924
O O16 0.500000 0.000000 0.000000
O O17 0.000000 0.813790 0.250000
#
# Coordination Sequence:
#
# PCOD9268525 Si02
#       8
#     8   8   8   8   8   4   8   8
#     4  11  22  38  61  86 114 168 214 248 296 366
#     4  12  20  37  69  94 117 151 201 251 314 369
#     4  12  22  39  60  92 128 158 192 257 318 374
#     4  11  23  35  56  88 126 162 198 246 315 368
#     4  10  20  32  53  87 118 151 195 253 305 355
#     4  12  22  40  68  98 120 148 204 264 306 360
#     4  11  17  32  59  81 113 149 204 262 295 336
#     4  11  24  41  63  89 123 160 211 256 301 363
#
# _framework density 18.159535000000002
#
# number of rings (size 3 to 8) (size 9 to 14) (size 15 to 20)
#    0.000    0.800    8.000    1.200    0.000    1.600 
#    0.000    0.000    0.000    0.800    0.000    0.000 
#    0.000    0.000    0.000    0.000    0.000    0.000 
#
# Total GULP energy -167039.363198 kJ/mol
# GULP energy per Si atom -5567.978773 kJ/mol
# Density = 1.811820 g / cm^3
# Si number density = 18.159535 Si / 1000 Ang^3
#
#
#
# Elastic Constant Matrix: (Units=GPa)
#
#
# Indices 1 2 3 4 5 6 
#
# 1 118.5007 54.6784 35.1079 0.0000 -5.4618 0.0000
# 2 54.6784 113.8374 20.7454 0.0000 -5.1328 0.0000
# 3 35.1079 20.7454 38.0774 0.0000 -1.0591 0.0000
# 4 0.0000 0.0000 0.0000 15.2792 0.0000 9.7334
# 5 -5.4618 -5.1328 -1.0591 0.0000 35.0691 0.0000
# 6 0.0000 0.0000 0.0000 9.7334 0.0000 22.4759
#
#
#
# Elastic Compliance Matrix: (Units=1/GPa)
#
#
# Indices 1 2 3 4 5 6 
#
# 1 0.013594 -0.004663 -0.009962 0.000000 0.001134 0.000000
# 2 -0.004663 0.011409 -0.001892 0.000000 0.000886 0.000000
# 3 -0.009962 -0.001892 0.036458 0.000000 -0.000727 0.000000
# 4 0.000000 0.000000 0.000000 0.090383 0.000000 -0.039141
# 5 0.001134 0.000886 -0.000727 0.000000 0.028800 0.000000
# 6 0.000000 0.000000 0.000000 -0.039141 0.000000 0.061443
#
#
# Mechanical properties :
#
#
# Convention : Reuss Voigt Hill
#
# Bulk Modulus (GPa) = 35.17737 54.60879 44.89308
# Shear Modulus (GPa) = 17.56886 25.22375 21.39630
#
# Velocity S-wave (km/s) = 3.11380 3.73098 3.43627
# Velocity P-wave (km/s) = 5.68691 6.97834 6.36546
#
# Compressibility (1/GPa) = 0.02842736
#
# Stress axis : x y z
#
# Youngs Moduli (GPa) = 73.56219 87.65092 27.42899
#
# Poissons Ratio (x) = 0.40871 0.27324
# Poissons Ratio (y) = 0.34301 0.05189
# Poissons Ratio (z) = 0.73281 0.16583
#
# Static dielectric constant tensor:
#      x y z
#    x 1.663200 0.000000 0.004300 
#    y 0.000000 1.616440 0.000000 
#    z 0.004300 0.000000 1.671840 
# 
# From -- ./inp_files/70768.got.cif
#   From: 2010.05.17/outbox.cif.g08.bks.cpg/sg15_36_cif.got.tgz:70768.got - 2010.06.03 18:47:42.
