data_PCOD9268634
_publ_section_title
;
Structure prediction by ZEFSAII (Michael W. Deem and Ramdas Pophale) SiO2 
 PCOD9268634
Probable space group: C 2/C
;
_chemical_formula_sum "Si O2"
_cell_formula_units_Z 44
_cell_length_a 17.434829
_cell_length_b 18.027609
_cell_length_c 14.063906
_cell_angle_alpha 90.000000
_cell_angle_beta 28.494440
_cell_angle_gamma 90.000000
_cell_volume 2108.856605
_symmetry_space_group_name_H-M "C 2/C"
_symmetry_group_IT_number 15
_symmetry_cell_setting 'monoclinic'
loop_
_space_group_symop_operation_xyz
x,y,z
-x,y,1/2-z
-x,-y,-z
x,-y,1/2+z
1/2+x,1/2+y,z
1/2-x,1/2+y,1/2-z
1/2-x,1/2-y,-z
1/2+x,1/2-y,1/2+z
loop_
_atom_site_type_symbol
_atom_site_label
_atom_site_fract_x
_atom_site_fract_y
_atom_site_fract_z
Si Si1 0.050021 0.497542 0.834802
Si Si2 0.253065 0.730028 0.780148
Si Si3 0.500000 0.214306 0.750000
Si Si4 0.723895 0.076586 0.490912
Si Si5 0.557408 0.828010 0.793299
Si Si6 0.439561 0.328877 0.648751
O O1 0.194322 0.546671 0.630360
O O2 0.099841 0.413985 0.755182
O O3 0.000000 0.500000 0.000000
O O4 0.891449 0.525695 0.949525
O O5 0.309967 0.771484 0.813427
O O6 0.394705 0.675951 0.590870
O O7 0.201636 0.796800 0.765304
O O8 0.092762 0.684132 0.972561
O O9 0.647865 0.158730 0.577108
O O10 0.470938 0.266353 0.693087
O O11 0.890150 0.094976 0.255905
O O12 0.500000 0.811882 0.750000
#
# Coordination Sequence:
#
# PCOD9268634 Si02
#       6
#     8   8   4   8   8   8
#     4  10  21  36  62  85 121 165 207 241 298 384
#     4  10  24  34  66  93 120 159 203 268 304 365
#     4  10  20  32  60  86 132 150 188 254 304 368
#     4  10  21  36  57  93 117 160 202 247 300 370
#     4  11  21  43  61  93 119 163 214 255 309 356
#     4  11  20  38  56  98 125 154 199 253 323 358
#
# _framework density 20.864387000000001
#
# number of rings (size 3 to 8) (size 9 to 14) (size 15 to 20)
#    0.000    1.818    3.636    2.182    7.636    0.000 
#    0.000    0.909    0.000    4.364    0.000    0.000 
#    0.000    0.000    0.000    0.000    0.000    0.000 
#
# Total GULP energy -122651.284692 kJ/mol
# GULP energy per Si atom -5575.058395 kJ/mol
# Density = 2.081690 g / cm^3
# Si number density = 20.864387 Si / 1000 Ang^3
#
#
#
# Elastic Constant Matrix: (Units=GPa)
#
#
# Indices 1 2 3 4 5 6 
#
# 1 85.5343 8.5550 -5.0428 -0.0055 28.1501 0.0019
# 2 8.5550 61.3845 21.1282 -0.0029 2.9562 -0.0002
# 3 -5.0428 21.1282 73.8174 -0.0076 9.1863 0.0027
# 4 -0.0055 -0.0029 -0.0076 -6.3018 0.0051 11.9460
# 5 28.1501 2.9562 9.1863 0.0051 30.9543 -0.0019
# 6 0.0019 -0.0002 0.0027 11.9460 -0.0019 22.7336
#
#
#
# Elastic Compliance Matrix: (Units=1/GPa)
#
#
# Indices 1 2 3 4 5 6 
#
# 1 0.017948 -0.003141 0.004277 -0.000020 -0.017292 0.000007
# 2 -0.003141 0.018622 -0.005896 0.000003 0.002828 0.000000
# 3 0.004277 -0.005896 0.016552 -0.000017 -0.008239 0.000006
# 4 -0.000020 0.000003 -0.000017 -0.079497 0.000038 0.041774
# 5 -0.017292 0.002828 -0.008239 0.000038 0.050206 -0.000013
# 6 0.000007 0.000000 0.000006 0.041774 -0.000013 0.022037
#
#
# Mechanical properties :
#
#
# Convention : Reuss Voigt Hill
#
# Bulk Modulus (GPa) = 22.93485 30.00190 26.46837
# Shear Modulus (GPa) = 71.50765 22.55026 47.02896
#
# Velocity S-wave (km/s) = 5.86063 3.29112 4.75281
# Velocity P-wave (km/s) = 7.53739 5.37147 6.54465
#
# Compressibility (1/GPa) = 0.04360177
#
# Stress axis : x y z
#
# Youngs Moduli (GPa) = 55.71534 53.70040 60.41538
#
# Poissons Ratio (x) = 0.16866 -0.25840
# Poissons Ratio (y) = 0.17499 0.35624
# Poissons Ratio (z) = -0.23829 0.31664
#
# Static dielectric constant tensor:
#      x y z
#    x 1.831220 0.000000 0.036700 
#    y 0.000000 1.721450 0.000000 
#    z 0.036700 0.000000 1.885200 
# 
# From -- ./inp_files/39054.got.cif
#   From: 2010.05.17/outbox.cif.g08.bks.cpg/sg15_20_cif.got.tgz:39054.got - 2010.06.03 18:47:42.
