data_PCOD9268879
_publ_section_title
;
Structure prediction by ZEFSAII (Michael W. Deem and Ramdas Pophale) SiO2 
 PCOD9268879
Probable space group: C 2/C
;
_chemical_formula_sum "Si O2"
_cell_formula_units_Z 48
_cell_length_a 6.044316
_cell_length_b 18.466042
_cell_length_c 24.666273
_cell_angle_alpha 90.000000
_cell_angle_beta 67.535325
_cell_angle_gamma 90.000000
_cell_volume 2544.196629
_symmetry_space_group_name_H-M "C 2/C"
_symmetry_group_IT_number 15
_symmetry_cell_setting 'monoclinic'
loop_
_space_group_symop_operation_xyz
x,y,z
-x,y,1/2-z
-x,-y,-z
x,-y,1/2+z
1/2+x,1/2+y,z
1/2-x,1/2+y,1/2-z
1/2-x,1/2-y,-z
1/2+x,1/2-y,1/2+z
loop_
_atom_site_type_symbol
_atom_site_label
_atom_site_fract_x
_atom_site_fract_y
_atom_site_fract_z
Si Si1 0.975429 0.101320 0.651714
Si Si2 0.341158 0.023006 0.147089
Si Si3 0.056016 0.119187 0.349448
Si Si4 0.281970 0.731808 0.812518
Si Si5 0.149013 0.001422 0.931371
Si Si6 0.000000 0.446888 0.750000
Si Si7 0.000000 0.643744 0.750000
O O1 0.732303 0.101270 0.708757
O O2 0.103371 0.177452 0.653710
O O3 0.910195 0.074383 0.597435
O O4 0.146652 0.038863 0.657851
O O5 0.566129 0.007245 0.087318
O O6 0.441472 0.017583 0.198064
O O7 0.206889 0.099377 0.148949
O O8 0.140141 0.200940 0.351666
O O9 0.081729 0.067120 0.399267
O O10 0.254376 0.094931 0.286869
O O11 0.500000 0.751462 0.750000
O O12 0.090717 0.690877 0.792301
O O13 0.000000 0.000000 0.000000
#
# Coordination Sequence:
#
# PCOD9268879 Si02
#       7
#     8   8   8   8   8   4   4
#     4  10  22  38  57  87 118 157 195 236 293 357
#     4  10  22  35  59  84 116 150 195 245 295 353
#     4  10  21  35  57  87 119 150 191 237 294 350
#     4  10  21  36  56  86 126 159 188 227 295 362
#     4  10  23  42  61  81 110 152 206 257 296 338
#     4  10  20  33  54  86 117 146 182 228 291 350
#     4  10  22  33  58  86 125 154 180 224 285 364
#
# _framework density 18.866467
#
# number of rings (size 3 to 8) (size 9 to 14) (size 15 to 20)
#    0.000    2.000    0.833    1.500    2.333   24.000 
#    0.000    0.833    0.000    5.000    0.000    0.000 
#    0.000    0.000    0.000    0.000    0.000    0.000 
#
# Total GULP energy -133813.172508 kJ/mol
# GULP energy per Si atom -5575.548854 kJ/mol
# Density = 1.882353 g / cm^3
# Si number density = 18.866467 Si / 1000 Ang^3
#
#
#
# Elastic Constant Matrix: (Units=GPa)
#
#
# Indices 1 2 3 4 5 6 
#
# 1 122.4931 49.1922 35.8894 0.0000 -21.9702 0.0000
# 2 49.1922 111.3237 48.7373 0.0000 -6.8183 0.0000
# 3 35.8894 48.7373 112.2106 0.0000 -20.9691 0.0000
# 4 0.0000 0.0000 0.0000 19.1418 0.0000 -1.4618
# 5 -21.9702 -6.8183 -20.9691 0.0000 20.5462 0.0000
# 6 0.0000 0.0000 0.0000 -1.4618 0.0000 33.2100
#
#
#
# Elastic Compliance Matrix: (Units=1/GPa)
#
#
# Indices 1 2 3 4 5 6 
#
# 1 0.012075 -0.004799 0.000417 0.000000 0.011746 0.000000
# 2 -0.004799 0.013038 -0.005287 0.000000 -0.006201 0.000000
# 3 0.000417 -0.005287 0.013382 0.000000 0.012350 0.000000
# 4 0.000000 0.000000 0.000000 0.052418 0.000000 0.002307
# 5 0.011746 -0.006201 0.012350 0.000000 0.071777 0.000000
# 6 0.000000 0.000000 0.000000 0.002307 0.000000 0.030213
#
#
# Mechanical properties :
#
#
# Convention : Reuss Voigt Hill
#
# Bulk Modulus (GPa) = 52.19602 68.18503 60.19053
# Shear Modulus (GPa) = 22.86996 28.72682 25.79839
#
# Velocity S-wave (km/s) = 3.48545 3.90633 3.70188
# Velocity P-wave (km/s) = 6.62751 7.52099 7.08834
#
# Compressibility (1/GPa) = 0.01915855
#
# Stress axis : x y z
#
# Youngs Moduli (GPa) = 82.81244 76.69728 74.72498
#
# Poissons Ratio (x) = 0.36809 -0.03117
# Poissons Ratio (y) = 0.39744 0.39505
# Poissons Ratio (z) = -0.03455 0.40548
#
# Static dielectric constant tensor:
#      x y z
#    x 1.704350 0.000000 0.003840 
#    y 0.000000 1.750820 0.000000 
#    z 0.003840 0.000000 1.614390 
# 
# From -- ./inp_files/227349.got.cif
#   From: 2010.05.17/outbox.cif.g08.bks.cpg/sg15_114_cif.got.tgz:227349.got - 2010.06.03 18:47:42.
