data_PCOD9268690
_publ_section_title
;
Structure prediction by ZEFSAII (Michael W. Deem and Ramdas Pophale) SiO2 
 PCOD9268690
Probable space group: C 2/C
;
_chemical_formula_sum "Si O2"
_cell_formula_units_Z 64
_cell_length_a 24.023972
_cell_length_b 23.213420
_cell_length_c 8.863453
_cell_angle_alpha 90.000000
_cell_angle_beta 130.477446
_cell_angle_gamma 90.000000
_cell_volume 3759.917848
_symmetry_space_group_name_H-M "C 2/C"
_symmetry_group_IT_number 15
_symmetry_cell_setting 'monoclinic'
loop_
_space_group_symop_operation_xyz
x,y,z
-x,y,1/2-z
-x,-y,-z
x,-y,1/2+z
1/2+x,1/2+y,z
1/2-x,1/2+y,1/2-z
1/2-x,1/2-y,-z
1/2+x,1/2-y,1/2+z
loop_
_atom_site_type_symbol
_atom_site_label
_atom_site_fract_x
_atom_site_fract_y
_atom_site_fract_z
Si Si1 0.337187 0.947886 0.402973
Si Si2 0.203825 0.674244 0.292664
Si Si3 0.472744 0.117194 0.027096
Si Si4 0.101363 0.776399 0.057952
Si Si5 0.614377 0.935233 0.663015
Si Si6 0.768541 0.855417 0.224029
Si Si7 0.703161 0.254818 0.765640
Si Si8 0.448830 0.244356 0.863750
O O1 0.392719 0.909611 0.401293
O O2 0.359905 0.943319 0.618385
O O3 0.257979 0.916827 0.258731
O O4 0.353665 0.011932 0.375289
O O5 0.154586 0.731260 0.237227
O O6 0.148161 0.623356 0.155232
O O7 0.248266 0.650931 0.513195
O O8 0.260379 0.694661 0.266536
O O9 0.500000 0.122933 0.250000
O O10 0.527502 0.075646 0.030129
O O11 0.470245 0.179373 0.945496
O O12 0.148357 0.833864 0.111927
O O13 0.082493 0.748787 0.861593
O O14 0.023346 0.781221 0.001433
O O15 0.718069 0.805900 0.210259
O O16 0.618045 0.263089 0.648494
O O17 0.750000 0.250000 0.000000
#
# Coordination Sequence:
#
# PCOD9268690 Si02
#       8
#     8   8   8   8   8   8   8   8
#     4  10  21  35  52  72 100 142 183 223 256 306
#     4  10  20  35  51  72 107 140 171 220 266 308
#     4  10  20  33  48  72 108 145 178 210 254 316
#     4  10  20  33  49  78 109 137 173 217 267 310
#     4  10  21  36  50  74 103 138 184 220 263 305
#     4  10  20  35  52  71 106 142 177 219 264 310
#     4  11  19  31  51  78 103 135 179 214 256 317
#     4  11  20  31  51  80 109 138 173 211 264 317
#
# _framework density 17.021649
#
# number of rings (size 3 to 8) (size 9 to 14) (size 15 to 20)
#    0.000    1.750    5.000    1.875    0.000    3.000 
#    0.000    0.000    0.000    0.000    0.000    0.875 
#    0.000    0.000    0.000    0.000    0.000    0.000 
#
# Total GULP energy -178349.536681 kJ/mol
# GULP energy per Si atom -5573.423021 kJ/mol
# Density = 1.698291 g / cm^3
# Si number density = 17.021649 Si / 1000 Ang^3
#
#
#
# Elastic Constant Matrix: (Units=GPa)
#
#
# Indices 1 2 3 4 5 6 
#
# 1 133.7367 45.8611 19.9128 0.0000 21.8382 0.0000
# 2 45.8611 71.5250 12.9943 0.0000 7.8708 0.0000
# 3 19.9128 12.9943 20.9869 0.0000 8.1832 0.0000
# 4 0.0000 0.0000 0.0000 13.3333 0.0000 -1.1815
# 5 21.8382 7.8708 8.1832 0.0000 28.0635 0.0000
# 6 0.0000 0.0000 0.0000 -1.1815 0.0000 31.0677
#
#
#
# Elastic Compliance Matrix: (Units=1/GPa)
#
#
# Indices 1 2 3 4 5 6 
#
# 1 0.011023 -0.005575 -0.004820 0.000000 -0.005608 0.000000
# 2 -0.005575 0.018651 -0.006669 0.000000 0.001052 0.000000
# 3 -0.004820 -0.006669 0.061107 0.000000 -0.012197 0.000000
# 4 0.000000 0.000000 0.000000 0.075254 0.000000 0.002862
# 5 -0.005608 0.001052 -0.012197 0.000000 0.043260 0.000000
# 6 0.000000 0.000000 0.000000 0.002862 0.000000 0.032297
#
#
# Mechanical properties :
#
#
# Convention : Reuss Voigt Hill
#
# Bulk Modulus (GPa) = 17.65100 42.64279 30.14690
# Shear Modulus (GPa) = 16.97199 24.32491 20.64845
#
# Velocity S-wave (km/s) = 3.16109 3.78439 3.48669
# Velocity P-wave (km/s) = 4.86986 6.64845 5.82741
#
# Compressibility (1/GPa) = 0.05665400
#
# Stress axis : x y z
#
# Youngs Moduli (GPa) = 90.72306 53.61519 16.36469
#
# Poissons Ratio (x) = 0.29889 0.07888
# Poissons Ratio (y) = 0.50576 0.10913
# Poissons Ratio (z) = 0.43728 0.35756
#
# Static dielectric constant tensor:
#      x y z
#    x 1.623500 0.000000 -0.035040 
#    y 0.000000 1.580010 0.000000 
#    z -0.035040 0.000000 1.679830 
# 
# From -- ./inp_files/63417.got.cif
#   From: 2010.05.17/outbox.cif.g08.bks.cpg/sg15_32_cif.got.tgz:63417.got - 2010.06.03 18:47:42.
