data_PCOD9268664
_publ_section_title
;
Structure prediction by ZEFSAII (Michael W. Deem and Ramdas Pophale) SiO2 
 PCOD9268664
Probable space group: C 2/C
;
_chemical_formula_sum "Si O2"
_cell_formula_units_Z 32
_cell_length_a 10.383307
_cell_length_b 12.599388
_cell_length_c 14.017461
_cell_angle_alpha 90.000000
_cell_angle_beta 41.636390
_cell_angle_gamma 90.000000
_cell_volume 1218.385705
_symmetry_space_group_name_H-M "C 2/C"
_symmetry_group_IT_number 15
_symmetry_cell_setting 'monoclinic'
loop_
_space_group_symop_operation_xyz
x,y,z
-x,y,1/2-z
-x,-y,-z
x,-y,1/2+z
1/2+x,1/2+y,z
1/2-x,1/2+y,1/2-z
1/2-x,1/2-y,-z
1/2+x,1/2-y,1/2+z
loop_
_atom_site_type_symbol
_atom_site_label
_atom_site_fract_x
_atom_site_fract_y
_atom_site_fract_z
Si Si1 0.552794 0.690497 0.612071
Si Si2 0.284319 0.010123 0.015199
Si Si3 0.890357 0.854787 0.025377
Si Si4 0.276547 0.960972 0.745905
O O1 0.500000 0.706642 0.750000
O O2 0.750000 0.750000 0.500000
O O3 0.614962 0.566354 0.569704
O O4 0.423434 0.728610 0.593686
O O5 0.243167 0.127522 0.994329
O O6 0.262911 0.013784 0.140762
O O7 0.489270 0.958156 0.871976
O O8 0.783809 0.942842 0.151123
O O9 0.112462 0.874378 0.865682
#
# Coordination Sequence:
#
# PCOD9268664 Si02
#       4
#     8   8   8   8
#     4  12  25  39  58  87 128 163 201 249 315 380
#     4  11  20  38  61  97 117 155 208 262 305 355
#     4  11  20  36  59  88 128 152 205 261 304 356
#     4  10  20  32  64  91 121 150 202 268 308 348
#
# _framework density 26.26426
#
# number of rings (size 3 to 8) (size 9 to 14) (size 15 to 20)
#    0.000    1.000    7.500    1.500    3.500    0.000 
#    0.000    0.000    0.000    6.000    0.000    0.000 
#    0.000    0.000    0.000    0.000    0.000    0.000 
#
# Total GULP energy -89084.810676 kJ/mol
# GULP energy per Si atom -5567.800667 kJ/mol
# Density = 2.620448 g / cm^3
# Si number density = 26.264260 Si / 1000 Ang^3
#
#
#
# Elastic Constant Matrix: (Units=GPa)
#
#
# Indices 1 2 3 4 5 6 
#
# 1 107.8648 -11.5100 60.5041 0.0000 15.4922 0.0000
# 2 -11.5100 34.5111 16.9900 0.0000 -2.8453 0.0000
# 3 60.5041 16.9900 229.8218 -0.0002 7.1979 0.0001
# 4 0.0000 0.0000 -0.0002 15.8506 0.0001 -11.8690
# 5 15.4922 -2.8453 7.1979 0.0001 57.6798 0.0000
# 6 0.0000 0.0000 0.0001 -11.8690 0.0000 21.5134
#
#
#
# Elastic Compliance Matrix: (Units=1/GPa)
#
#
# Indices 1 2 3 4 5 6 
#
# 1 0.012233 0.005619 -0.003556 0.000000 -0.002565 0.000000
# 2 0.005619 0.032832 -0.003925 0.000000 0.000600 0.000000
# 3 -0.003556 -0.003925 0.005575 0.000000 0.000066 0.000000
# 4 0.000000 0.000000 0.000000 0.107499 0.000000 0.059308
# 5 -0.002565 0.000600 0.000066 0.000000 0.018047 0.000000
# 6 0.000000 0.000000 0.000000 0.059308 0.000000 0.079203
#
#
# Mechanical properties :
#
#
# Convention : Reuss Voigt Hill
#
# Bulk Modulus (GPa) = 21.31423 56.01844 38.66633
# Shear Modulus (GPa) = 18.19815 39.42300 28.81057
#
# Velocity S-wave (km/s) = 2.63513 3.87849 3.31562
# Velocity P-wave (km/s) = 4.17031 6.43677 5.42326
#
# Compressibility (1/GPa) = 0.04691701
#
# Stress axis : x y z
#
# Youngs Moduli (GPa) = 81.74414 30.45794 179.35903
#
# Poissons Ratio (x) = -0.17114 0.63774
# Poissons Ratio (y) = -0.45932 0.70403
# Poissons Ratio (z) = 0.29065 0.11956
#
# Static dielectric constant tensor:
#      x y z
#    x 2.167010 0.000000 -0.010010 
#    y 0.000000 2.296490 0.000000 
#    z -0.010010 0.000000 1.916080 
# 
# From -- ./inp_files/143252.got.cif
#   From: 2010.05.17/outbox.cif.g08.bks.cpg/sg15_72_cif.got.tgz:143252.got - 2010.06.03 18:47:42.
