data_PCOD9268919
_publ_section_title
;
Structure prediction by ZEFSAII (Michael W. Deem and Ramdas Pophale) SiO2 
 PCOD9268919
Probable space group: C 2/C
;
_chemical_formula_sum "Si O2"
_cell_formula_units_Z 48
_cell_length_a 14.254275
_cell_length_b 18.310375
_cell_length_c 7.873402
_cell_angle_alpha 90.000000
_cell_angle_beta 75.070961
_cell_angle_gamma 90.000000
_cell_volume 1985.602644
_symmetry_space_group_name_H-M "C 2/C"
_symmetry_group_IT_number 15
_symmetry_cell_setting 'monoclinic'
loop_
_space_group_symop_operation_xyz
x,y,z
-x,y,1/2-z
-x,-y,-z
x,-y,1/2+z
1/2+x,1/2+y,z
1/2-x,1/2+y,1/2-z
1/2-x,1/2-y,-z
1/2+x,1/2-y,1/2+z
loop_
_atom_site_type_symbol
_atom_site_label
_atom_site_fract_x
_atom_site_fract_y
_atom_site_fract_z
Si Si1 0.470966 0.166018 0.569214
Si Si2 0.604567 0.961621 0.607149
Si Si3 0.113934 0.949340 0.145141
Si Si4 0.966087 0.181136 0.963335
Si Si5 0.842056 0.107558 0.518692
Si Si6 0.166764 0.390719 0.894940
O O1 0.500000 0.161421 0.750000
O O2 0.410548 0.096655 0.535568
O O3 0.424027 0.243425 0.549062
O O4 0.574348 0.162312 0.422034
O O5 0.500000 0.967520 0.750000
O O6 0.679881 0.927084 0.704901
O O7 0.633375 0.039998 0.524871
O O8 0.106537 0.887478 0.004437
O O9 0.171313 0.915040 0.277289
O O10 0.000000 0.958938 0.250000
O O11 0.146236 0.028731 0.075667
O O12 0.000000 0.190941 0.750000
O O13 0.060588 0.155766 0.024925
O O14 0.754973 0.144024 0.456198
#
# Coordination Sequence:
#
# PCOD9268919 Si02
#       6
#     8   8   8   8   8   8
#     4  11  22  36  55  76 102 140 182 217 254 309
#     4  10  20  35  55  78 106 139 176 212 254 313
#     4   9  18  34  55  79 108 139 175 211 252 312
#     4   9  19  36  55  75 104 141 177 212 255 310
#     4  10  20  33  56  83 108 136 169 217 265 307
#     4  11  20  34  56  81 109 135 169 218 265 308
#
# _framework density 24.174019999999999
#
# number of rings (size 3 to 8) (size 9 to 14) (size 15 to 20)
#    0.000    2.333    0.000    8.000    0.000    2.667 
#    0.000    0.000    0.000    6.000    0.000    0.000 
#    0.000    0.000    0.000    0.000    0.000    0.000 
#
# Total GULP energy -134264.172679 kJ/mol
# GULP energy per Si atom -5594.340528 kJ/mol
# Density = 2.411900 g / cm^3
# Si number density = 24.174020 Si / 1000 Ang^3
#
#
#
# Elastic Constant Matrix: (Units=GPa)
#
#
# Indices 1 2 3 4 5 6 
#
# 1 88.2800 -6.6233 13.3744 0.0000 20.0802 0.0000
# 2 -6.6233 61.4793 4.8015 0.0000 -14.1767 0.0000
# 3 13.3744 4.8015 60.0636 0.0000 22.5540 0.0000
# 4 0.0000 0.0000 0.0000 28.5383 0.0000 0.0555
# 5 20.0802 -14.1767 22.5540 0.0000 31.2639 0.0000
# 6 0.0000 0.0000 0.0000 0.0555 0.0000 2.6039
#
#
#
# Elastic Compliance Matrix: (Units=1/GPa)
#
#
# Indices 1 2 3 4 5 6 
#
# 1 0.013300 -0.000763 0.000600 0.000000 -0.009321 0.000000
# 2 -0.000763 0.020087 -0.006913 0.000000 0.014585 0.000000
# 3 0.000600 -0.006913 0.025222 0.000000 -0.021715 0.000000
# 4 0.000000 0.000000 0.000000 0.035042 0.000000 -0.000746
# 5 -0.009321 0.014585 -0.021715 0.000000 0.060251 0.000000
# 6 0.000000 0.000000 0.000000 -0.000746 0.000000 0.384059
#
#
# Mechanical properties :
#
#
# Convention : Reuss Voigt Hill
#
# Bulk Modulus (GPa) = 22.49437 25.88089 24.18763
# Shear Modulus (GPa) = 8.81940 25.69925 17.25932
#
# Velocity S-wave (km/s) = 1.91212 3.26405 2.67490
# Velocity P-wave (km/s) = 3.76833 4.99346 4.42352
#
# Compressibility (1/GPa) = 0.04445557
#
# Stress axis : x y z
#
# Youngs Moduli (GPa) = 75.19035 49.78464 39.64773
#
# Poissons Ratio (x) = 0.03800 -0.02377
# Poissons Ratio (y) = 0.05739 0.27407
# Poissons Ratio (z) = -0.04508 0.34414
#
# Static dielectric constant tensor:
#      x y z
#    x 1.985880 0.000000 -0.033530 
#    y 0.000000 1.867030 0.000000 
#    z -0.033530 0.000000 1.993240 
# 
# From -- ./inp_files/39659.got.cif
#   From: 2010.05.17/outbox.cif.g08.bks.cpg/sg15_20_cif.got.tgz:39659.got - 2010.06.03 18:47:42.
