data_PCOD9268450
_publ_section_title
;
Structure prediction by ZEFSAII (Michael W. Deem and Ramdas Pophale) SiO2 
 PCOD9268450
Probable space group: C 2/C
;
_chemical_formula_sum "Si O2"
_cell_formula_units_Z 24
_cell_length_a 15.257459
_cell_length_b 11.750734
_cell_length_c 5.475677
_cell_angle_alpha 90.000000
_cell_angle_beta 75.754565
_cell_angle_gamma 90.000000
_cell_volume 951.526901
_symmetry_space_group_name_H-M "C 2/C"
_symmetry_group_IT_number 15
_symmetry_cell_setting 'monoclinic'
loop_
_space_group_symop_operation_xyz
x,y,z
-x,y,1/2-z
-x,-y,-z
x,-y,1/2+z
1/2+x,1/2+y,z
1/2-x,1/2+y,1/2-z
1/2-x,1/2-y,-z
1/2+x,1/2-y,1/2+z
loop_
_atom_site_type_symbol
_atom_site_label
_atom_site_fract_x
_atom_site_fract_y
_atom_site_fract_z
Si Si1 0.962726 0.630708 0.026112
Si Si2 0.256298 0.848167 0.795670
Si Si3 0.865463 0.965158 0.922663
O O1 0.855433 0.634012 0.123755
O O2 0.000000 0.685645 0.250000
O O3 0.000000 0.683321 0.750000
O O4 0.000000 0.500000 0.000000
O O5 0.177175 0.846815 0.642329
O O6 0.224283 0.959437 0.966230
O O7 0.250000 0.750000 0.000000
O O8 0.910552 0.974760 0.156305
#
# Coordination Sequence:
#
# PCOD9268450 Si02
#       3
#     8   8   8
#     4  10  20  32  50  73 110 143 166 217 280 323
#     4  10  20  34  56  81 110 149 186 223 271 329
#     4   8  18  32  47  74 109 134 176 230 266 306
#
# _framework density 25.222619000000002
#
# number of rings (size 3 to 8) (size 9 to 14) (size 15 to 20)
#    2.000    0.667    0.000    4.000    4.667    1.333 
#    0.000    0.000    0.000    0.000    0.000    7.000 
#    0.000    0.000    0.000    0.000    0.000    0.000 
#
# Total GULP energy -66859.125217 kJ/mol
# GULP energy per Si atom -5571.593768 kJ/mol
# Density = 2.516521 g / cm^3
# Si number density = 25.222619 Si / 1000 Ang^3
#
#
#
# Elastic Constant Matrix: (Units=GPa)
#
#
# Indices 1 2 3 4 5 6 
#
# 1 100.0833 25.5011 87.7232 0.0000 -16.6646 0.0000
# 2 25.5011 68.3389 14.1019 0.0000 -7.7717 0.0000
# 3 87.7232 14.1019 255.8451 0.0000 10.3747 0.0000
# 4 0.0000 0.0000 0.0000 12.7556 0.0000 0.6068
# 5 -16.6646 -7.7717 10.3747 0.0000 66.4167 0.0000
# 6 0.0000 0.0000 0.0000 0.6068 0.0000 13.0555
#
#
#
# Elastic Compliance Matrix: (Units=1/GPa)
#
#
# Indices 1 2 3 4 5 6 
#
# 1 0.016984 -0.004625 -0.005756 0.000000 0.004619 0.000000
# 2 -0.004625 0.016295 0.000661 0.000000 0.000643 0.000000
# 3 -0.005756 0.000661 0.005939 0.000000 -0.002294 0.000000
# 4 0.000000 0.000000 0.000000 0.078571 0.000000 -0.003652
# 5 0.004619 0.000643 -0.002294 0.000000 0.016649 0.000000
# 6 0.000000 0.000000 0.000000 -0.003652 0.000000 0.076766
#
#
# Mechanical properties :
#
#
# Convention : Reuss Voigt Hill
#
# Bulk Modulus (GPa) = 50.55607 75.43554 62.99580
# Shear Modulus (GPa) = 21.07604 38.24161 29.65883
#
# Velocity S-wave (km/s) = 2.89381 3.89802 3.43283
# Velocity P-wave (km/s) = 5.59044 7.08747 6.38299
#
# Compressibility (1/GPa) = 0.01978002
#
# Stress axis : x y z
#
# Youngs Moduli (GPa) = 58.87786 61.36726 168.38507
#
# Poissons Ratio (x) = 0.28381 0.96921
# Poissons Ratio (y) = 0.27229 -0.11138
# Poissons Ratio (z) = 0.33890 -0.04059
#
# Static dielectric constant tensor:
#      x y z
#    x 2.148920 0.000000 0.064300 
#    y 0.000000 2.043290 0.000000 
#    z 0.064300 0.000000 2.119460 
# 
# From -- ./inp_files/6115.got.cif
#   From: 2010.05.17/outbox.cif.g08.bks.cpg/sg15_4_cif.got.tgz:6115.got - 2010.06.03 18:47:42.
