data_PCOD9268868
_publ_section_title
;
Structure prediction by ZEFSAII (Michael W. Deem and Ramdas Pophale) SiO2 
 PCOD9268868
Probable space group: C 2/C
;
_chemical_formula_sum "Si O2"
_cell_formula_units_Z 48
_cell_length_a 16.151948
_cell_length_b 25.737165
_cell_length_c 15.981246
_cell_angle_alpha 90.000000
_cell_angle_beta 161.739027
_cell_angle_gamma 90.000000
_cell_volume 2081.708742
_symmetry_space_group_name_H-M "C 2/C"
_symmetry_group_IT_number 15
_symmetry_cell_setting 'monoclinic'
loop_
_space_group_symop_operation_xyz
x,y,z
-x,y,1/2-z
-x,-y,-z
x,-y,1/2+z
1/2+x,1/2+y,z
1/2-x,1/2+y,1/2-z
1/2-x,1/2-y,-z
1/2+x,1/2-y,1/2+z
loop_
_atom_site_type_symbol
_atom_site_label
_atom_site_fract_x
_atom_site_fract_y
_atom_site_fract_z
Si Si1 0.759599 0.365885 0.727962
Si Si2 0.580866 0.550477 0.521439
Si Si3 0.865325 0.414852 0.536192
Si Si4 0.402726 0.780360 0.398063
Si Si5 0.628210 0.964245 0.460022
Si Si6 0.946502 0.814867 0.291267
O O1 0.503928 0.396197 0.514649
O O2 0.943403 0.334534 0.969441
O O3 0.677867 0.322519 0.580798
O O4 0.935359 0.408198 0.849185
O O5 0.500000 0.500000 0.500000
O O6 0.887033 0.543797 0.793266
O O7 0.398104 0.554067 0.262421
O O8 0.807214 0.474822 0.491881
O O9 0.631118 0.375507 0.295369
O O10 0.000000 0.395142 0.750000
O O11 0.126805 0.762584 0.092986
O O12 0.295006 0.788102 0.391027
O O13 0.500000 0.944272 0.250000
O O14 0.000000 0.793530 0.250000
#
# Coordination Sequence:
#
# PCOD9268868 Si02
#       6
#     8   8   8   8   8   8
#     4  11  23  38  60  85 118 158 207 257 301 355
#     4  12  24  40  63  94 126 163 210 258 303 364
#     4  10  20  33  54  82 118 163 206 248 291 354
#     4  11  24  42  58  81 117 158 208 259 311 362
#     4  11  25  41  61  87 129 169 207 250 306 365
#     4  11  22  36  57  82 117 162 214 255 305 351
#
# _framework density 23.057981000000002
#
# number of rings (size 3 to 8) (size 9 to 14) (size 15 to 20)
#    0.000    1.000    5.000    2.000    4.667    0.667 
#    0.000    0.000    0.000    0.000    0.000    0.000 
#    0.000   13.333    0.000    0.000    0.000    0.000 
#
# Total GULP energy -133962.228946 kJ/mol
# GULP energy per Si atom -5581.759539 kJ/mol
# Density = 2.300550 g / cm^3
# Si number density = 23.057981 Si / 1000 Ang^3
#
#
#
# Elastic Constant Matrix: (Units=GPa)
#
#
# Indices 1 2 3 4 5 6 
#
# 1 40.2692 10.7050 6.3412 -0.0011 -0.6038 -0.0012
# 2 10.7050 53.9861 4.7010 -0.0002 0.9277 -0.0012
# 3 6.3412 4.7010 114.5362 -0.0059 1.8213 -0.0035
# 4 -0.0011 -0.0002 -0.0059 30.1819 -0.0023 7.9814
# 5 -0.6038 0.9277 1.8213 -0.0023 44.1291 -0.0022
# 6 -0.0012 -0.0012 -0.0035 7.9814 -0.0022 12.4815
#
#
#
# Elastic Compliance Matrix: (Units=1/GPa)
#
#
# Indices 1 2 3 4 5 6 
#
# 1 0.026404 -0.005135 -0.001259 0.000000 0.000521 0.000001
# 2 -0.005135 0.019594 -0.000513 -0.000001 -0.000461 0.000002
# 3 -0.001259 -0.000513 0.008828 0.000001 -0.000371 0.000001
# 4 0.000000 -0.000001 0.000001 0.039875 0.000001 -0.025499
# 5 0.000521 -0.000461 -0.000371 0.000001 0.022693 0.000003
# 6 0.000001 0.000002 0.000001 -0.025499 0.000003 0.096423
#
#
# Mechanical properties :
#
#
# Convention : Reuss Voigt Hill
#
# Bulk Modulus (GPa) = 24.38325 28.03176 26.20750
# Shear Modulus (GPa) = 20.72092 29.82813 25.27453
#
# Velocity S-wave (km/s) = 3.00099 3.60059 3.31438
# Velocity P-wave (km/s) = 4.75454 5.42854 5.10268
#
# Compressibility (1/GPa) = 0.04101176
#
# Stress axis : x y z
#
# Youngs Moduli (GPa) = 37.87289 51.03582 113.28206
#
# Poissons Ratio (x) = 0.26207 0.14266
# Poissons Ratio (y) = 0.19448 0.05807
# Poissons Ratio (z) = 0.04770 0.02616
#
# Static dielectric constant tensor:
#      x y z
#    x 1.937780 0.000000 -0.067350 
#    y 0.000000 1.910130 -0.000010 
#    z -0.067350 -0.000010 1.956160 
# 
# From -- ./inp_files/157708.got.cif
#   From: 2010.05.17/outbox.cif.g08.bks.cpg/sg15_79_cif.got.tgz:157708.got - 2010.06.03 18:47:42.
