data_PCOD9268094
_publ_section_title
;
Structure prediction by ZEFSAII (Michael W. Deem and Ramdas Pophale) SiO2 
 PCOD9268094
Probable space group: C 2/C
;
_chemical_formula_sum "Si O2"
_cell_formula_units_Z 56
_cell_length_a 13.164759
_cell_length_b 9.920492
_cell_length_c 22.724927
_cell_angle_alpha 90.000000
_cell_angle_beta 64.789908
_cell_angle_gamma 90.000000
_cell_volume 2685.209613
_symmetry_space_group_name_H-M "C 2/C"
_symmetry_group_IT_number 15
_symmetry_cell_setting 'monoclinic'
loop_
_space_group_symop_operation_xyz
x,y,z
-x,y,1/2-z
-x,-y,-z
x,-y,1/2+z
1/2+x,1/2+y,z
1/2-x,1/2+y,1/2-z
1/2-x,1/2-y,-z
1/2+x,1/2-y,1/2+z
loop_
_atom_site_type_symbol
_atom_site_label
_atom_site_fract_x
_atom_site_fract_y
_atom_site_fract_z
Si Si1 0.158698 0.818051 0.244096
Si Si2 0.692321 0.061806 0.297363
Si Si3 0.546061 0.439368 0.154902
Si Si4 0.603340 0.278420 0.689627
Si Si5 0.750935 0.893816 0.471101
Si Si6 0.835856 0.345624 0.443171
Si Si7 0.939505 0.435728 0.070934
O O1 0.163525 0.658051 0.250174
O O2 0.107789 0.863002 0.194099
O O3 0.075045 0.872395 0.315515
O O4 0.269672 0.908724 0.225074
O O5 0.798044 0.144291 0.299105
O O6 0.594624 0.041546 0.369808
O O7 0.540558 0.595780 0.173346
O O8 0.623313 0.429232 0.079254
O O9 0.500000 0.210107 0.750000
O O10 0.663438 0.187202 0.625950
O O11 0.750000 0.750000 0.500000
O O12 0.676719 0.888237 0.429557
O O13 0.700838 0.005338 0.527506
O O14 0.750000 0.250000 0.500000
O O15 0.967638 0.331832 0.428452
O O16 0.000000 0.500000 0.000000
#
# Coordination Sequence:
#
# PCOD9268094 Si02
#       7
#     8   8   8   8   8   8   8
#     4  10  22  38  66  90 124 166 204 256 314 380
#     4  11  22  41  62  93 127 162 207 257 317 376
#     4  10  19  42  62  86 126 167 203 251 323 373
#     4  11  20  39  64  90 127 168 203 262 322 375
#     4  11  23  43  66  90 125 168 211 261 316 372
#     4  11  23  42  67  92 123 168 216 257 313 382
#     4  10  22  40  64  87 121 163 206 256 311 366
#
# _framework density 20.854982
#
# number of rings (size 3 to 8) (size 9 to 14) (size 15 to 20)
#    0.000    1.429    7.143    0.857    6.000    0.000 
#    2.571    0.714    0.000    0.000    0.000    0.000 
#    0.000    0.000    0.000    0.000    0.000    0.000 
#
# Total GULP energy -156080.340081 kJ/mol
# GULP energy per Si atom -5574.297860 kJ/mol
# Density = 2.080752 g / cm^3
# Si number density = 20.854982 Si / 1000 Ang^3
#
#
#
# Elastic Constant Matrix: (Units=GPa)
#
#
# Indices 1 2 3 4 5 6 
#
# 1 24.2423 1.7408 16.7548 0.0000 -14.2057 0.0000
# 2 1.7408 92.2707 33.5337 0.0000 7.2620 0.0000
# 3 16.7548 33.5337 122.7693 0.0000 -28.1240 0.0000
# 4 0.0000 0.0000 0.0000 35.0729 0.0000 1.4383
# 5 -14.2057 7.2620 -28.1240 0.0000 33.2484 0.0000
# 6 0.0000 0.0000 0.0000 1.4383 0.0000 15.3358
#
#
#
# Elastic Compliance Matrix: (Units=1/GPa)
#
#
# Indices 1 2 3 4 5 6 
#
# 1 0.056085 -0.002208 -0.001800 0.000000 0.022923 0.000000
# 2 -0.002208 0.013459 -0.005290 0.000000 -0.008357 0.000000
# 3 -0.001800 -0.005290 0.012310 0.000000 0.010799 0.000000
# 4 0.000000 0.000000 0.000000 0.028622 0.000000 -0.002684
# 5 0.022923 -0.008357 0.010799 0.000000 0.050830 0.000000
# 6 0.000000 0.000000 0.000000 -0.002684 0.000000 0.065459
#
#
# Mechanical properties :
#
#
# Convention : Reuss Voigt Hill
#
# Bulk Modulus (GPa) = 15.80800 38.14901 26.97850
# Shear Modulus (GPa) = 18.76548 29.21496 23.99022
#
# Velocity S-wave (km/s) = 3.00293 3.74687 3.39534
# Velocity P-wave (km/s) = 4.42944 6.08695 5.32310
#
# Compressibility (1/GPa) = 0.06325912
#
# Stress axis : x y z
#
# Youngs Moduli (GPa) = 17.83002 74.29715 81.23760
#
# Poissons Ratio (x) = 0.16405 0.14622
# Poissons Ratio (y) = 0.03937 0.42971
# Poissons Ratio (z) = 0.03209 0.39300
#
# Static dielectric constant tensor:
#      x y z
#    x 1.841210 0.000000 -0.005660 
#    y 0.000000 1.940340 0.000000 
#    z -0.005660 0.000000 1.793110 
# 
# From -- ./inp_files/273076.got.cif
#   From: 2010.05.17/outbox.cif.g08.bks.cpg/sg15_137_cif.got.tgz:273076.got - 2010.06.03 18:47:42.
