data_PCOD9268235
_publ_section_title
;
Structure prediction by ZEFSAII (Michael W. Deem and Ramdas Pophale) SiO2 
 PCOD9268235
Probable space group: C 2/C
;
_chemical_formula_sum "Si O2"
_cell_formula_units_Z 60
_cell_length_a 27.057732
_cell_length_b 15.385311
_cell_length_c 14.168136
_cell_angle_alpha 90.000000
_cell_angle_beta 154.218909
_cell_angle_gamma 90.000000
_cell_volume 2565.273620
_symmetry_space_group_name_H-M "C 2/C"
_symmetry_group_IT_number 15
_symmetry_cell_setting 'monoclinic'
loop_
_space_group_symop_operation_xyz
x,y,z
-x,y,1/2-z
-x,-y,-z
x,-y,1/2+z
1/2+x,1/2+y,z
1/2-x,1/2+y,1/2-z
1/2-x,1/2-y,-z
1/2+x,1/2-y,1/2+z
loop_
_atom_site_type_symbol
_atom_site_label
_atom_site_fract_x
_atom_site_fract_y
_atom_site_fract_z
Si Si1 0.682479 0.885482 0.399482
Si Si2 0.325154 0.986743 0.944705
Si Si3 0.413844 0.560407 0.912151
Si Si4 0.882731 0.808806 0.211580
Si Si5 0.358222 0.737115 0.316292
Si Si6 0.227788 0.965266 0.586622
Si Si7 0.368647 0.188352 0.032128
Si Si8 0.000000 0.062648 0.250000
O O1 0.625970 0.821408 0.224940
O O2 0.776129 0.826332 0.615741
O O3 0.616484 0.928517 0.374653
O O4 0.727779 0.967815 0.416353
O O5 0.192489 0.998446 0.747688
O O6 0.318040 0.953114 0.825623
O O7 0.366134 0.085489 0.015435
O O8 0.360385 0.644481 0.771671
O O9 0.500000 0.500000 0.000000
O O10 0.479558 0.602870 0.113502
O O11 0.845365 0.718782 0.100162
O O12 0.020779 0.807511 0.455147
O O13 0.821801 0.876028 0.036751
O O14 0.311967 0.768864 0.340201
O O15 0.114407 0.009217 0.432619
O O16 0.500000 0.216385 0.250000
#
# Coordination Sequence:
#
# PCOD9268235 Si02
#       8
#     8   8   8   8   8   8   8   4
#     4  11  21  39  61  91 126 168 205 266 321 388
#     4  11  22  38  63  89 126 168 206 263 327 373
#     4  11  20  34  56  93 123 153 203 259 320 387
#     4  11  21  36  60  88 123 163 207 263 313 375
#     4  10  22  37  62  90 127 160 211 261 323 376
#     4  11  21  34  60  95 126 156 218 259 318 389
#     4  10  23  41  60  88 124 170 223 266 306 380
#     4  10  20  28  52  88 124 158 186 258 316 366
#
# _framework density 23.389317999999999
#
# number of rings (size 3 to 8) (size 9 to 14) (size 15 to 20)
#    0.000    1.333    4.000    2.400    4.667    0.533 
#    0.000    2.667    0.000    0.000    3.467    0.000 
#    0.000    0.000    0.000    0.000    0.000    0.000 
#
# Total GULP energy -167097.491975 kJ/mol
# GULP energy per Si atom -5569.916399 kJ/mol
# Density = 2.333608 g / cm^3
# Si number density = 23.389318 Si / 1000 Ang^3
#
#
#
# Elastic Constant Matrix: (Units=GPa)
#
#
# Indices 1 2 3 4 5 6 
#
# 1 55.5426 9.0112 41.7222 0.0000 -41.1718 0.0000
# 2 9.0112 61.5297 30.0772 0.0000 -16.0323 0.0000
# 3 41.7222 30.0772 78.4105 0.0000 -32.1008 0.0000
# 4 0.0000 0.0000 0.0000 39.3568 0.0000 -6.6558
# 5 -41.1718 -16.0323 -32.1008 0.0000 45.5412 0.0000
# 6 0.0000 0.0000 0.0000 -6.6558 0.0000 37.4762
#
#
#
# Elastic Compliance Matrix: (Units=1/GPa)
#
#
# Indices 1 2 3 4 5 6 
#
# 1 0.074030 0.014574 -0.021761 0.000000 0.056719 0.000000
# 2 0.014574 0.023045 -0.011075 0.000000 0.013482 0.000000
# 3 -0.021761 -0.011075 0.026609 0.000000 -0.004816 0.000000
# 4 0.000000 0.000000 0.000000 0.026195 0.000000 0.004652
# 5 0.056719 0.013482 -0.004816 0.000000 0.074587 0.000000
# 6 0.000000 0.000000 0.000000 0.004652 0.000000 0.027510
#
#
# Mechanical properties :
#
#
# Convention : Reuss Voigt Hill
#
# Bulk Modulus (GPa) = 11.47325 39.67821 25.57573
# Shear Modulus (GPa) = 15.74541 32.11965 23.93253
#
# Velocity S-wave (km/s) = 2.59740 3.70977 3.20226
# Velocity P-wave (km/s) = 3.72979 5.94567 4.96298
#
# Compressibility (1/GPa) = 0.08715930
#
# Stress axis : x y z
#
# Youngs Moduli (GPa) = 13.50802 43.39429 37.58111
#
# Poissons Ratio (x) = -0.63244 0.81782
# Poissons Ratio (y) = -0.19687 0.41621
# Poissons Ratio (z) = 0.29395 0.48059
#
# Static dielectric constant tensor:
#      x y z
#    x 2.164960 0.000000 -0.015090 
#    y 0.000000 1.875190 0.000000 
#    z -0.015090 0.000000 1.968450 
# 
# From -- ./inp_files/182332.got.cif
#   From: 2010.05.17/outbox.cif.g08.bks.cpg/sg15_92_cif.got.tgz:182332.got - 2010.06.03 18:47:42.
