data_PCOD9268416
_publ_section_title
;
Structure prediction by ZEFSAII (Michael W. Deem and Ramdas Pophale) SiO2 
 PCOD9268416
Probable space group: C 2/C
;
_chemical_formula_sum "Si O2"
_cell_formula_units_Z 64
_cell_length_a 17.239311
_cell_length_b 29.343713
_cell_length_c 13.855222
_cell_angle_alpha 90.000000
_cell_angle_beta 28.061337
_cell_angle_gamma 90.000000
_cell_volume 3297.091672
_symmetry_space_group_name_H-M "C 2/C"
_symmetry_group_IT_number 15
_symmetry_cell_setting 'monoclinic'
loop_
_space_group_symop_operation_xyz
x,y,z
-x,y,1/2-z
-x,-y,-z
x,-y,1/2+z
1/2+x,1/2+y,z
1/2-x,1/2+y,1/2-z
1/2-x,1/2-y,-z
1/2+x,1/2-y,1/2+z
loop_
_atom_site_type_symbol
_atom_site_label
_atom_site_fract_x
_atom_site_fract_y
_atom_site_fract_z
Si Si1 0.579384 0.189136 0.058474
Si Si2 0.531140 0.977728 0.819970
Si Si3 0.183277 0.955402 0.503272
Si Si4 0.020799 0.945920 0.492194
Si Si5 0.071986 0.119547 0.562738
Si Si6 0.545564 0.284772 0.313425
Si Si7 0.168639 0.571694 0.470367
Si Si8 0.552540 0.892864 0.912743
O O1 0.500000 0.177981 0.250000
O O2 0.494431 0.234240 0.106568
O O3 0.555821 0.146919 0.013301
O O4 0.765564 0.203090 0.876949
O O5 0.500000 0.955213 0.750000
O O6 0.716655 0.997495 0.618161
O O7 0.492762 0.942722 0.945696
O O8 0.414273 0.022016 0.951073
O O9 0.154749 0.936513 0.427747
O O10 0.292619 0.925328 0.457856
O O11 0.000000 0.962388 0.750000
O O12 0.034490 0.917356 0.379758
O O13 0.847953 0.929758 0.726145
O O14 0.000000 0.000000 0.500000
O O15 0.266145 0.109753 0.337874
O O16 0.000000 0.119692 0.750000
O O17 0.051017 0.170806 0.544089
O O18 0.500000 0.281351 0.250000
O O19 0.072895 0.606554 0.506197
#
# Coordination Sequence:
#
# PCOD9268416 Si02
#       8
#     8   8   8   8   8   8   8   8
#     4  11  20  33  52  73  98 131 165 207 255 309
#     4  10  20  32  47  67  98 137 171 210 254 300
#     4   9  18  34  51  69  96 136 177 213 258 302
#     4  10  20  32  50  73 100 136 175 215 254 299
#     4  10  21  35  50  74 104 135 169 210 251 302
#     4  10  20  35  53  72  99 132 165 204 253 309
#     4   9  20  34  48  68 100 136 172 214 256 301
#     4  11  21  33  49  74 102 133 173 213 255 302
#
# _framework density 19.411045999999999
#
# number of rings (size 3 to 8) (size 9 to 14) (size 15 to 20)
#    0.000    2.000    0.000    6.000    0.000    7.000 
#    0.000    0.000    0.000    0.000    0.000    0.875 
#    0.000    7.000    0.000    2.375    0.000    0.875 
#
# Total GULP energy -178588.538220 kJ/mol
# GULP energy per Si atom -5580.891819 kJ/mol
# Density = 1.936687 g / cm^3
# Si number density = 19.411046 Si / 1000 Ang^3
#
#
#
# Elastic Constant Matrix: (Units=GPa)
#
#
# Indices 1 2 3 4 5 6 
#
# 1 131.8352 45.6518 27.8241 -0.0007 -8.3299 0.0008
# 2 45.6518 71.6856 6.5694 -0.0007 0.4077 0.0005
# 3 27.8241 6.5694 63.1135 0.0008 -8.0320 0.0005
# 4 -0.0007 -0.0007 0.0008 18.2720 0.0000 -4.7592
# 5 -8.3299 0.4077 -8.0320 0.0000 28.9115 -0.0007
# 6 0.0008 0.0005 0.0005 -4.7592 -0.0007 28.8082
#
#
#
# Elastic Compliance Matrix: (Units=1/GPa)
#
#
# Indices 1 2 3 4 5 6 
#
# 1 0.010785 -0.006532 -0.003802 0.000000 0.002143 0.000000
# 2 -0.006532 0.018051 0.000756 0.000000 -0.001927 0.000000
# 3 -0.003802 0.000756 0.017935 -0.000001 0.003877 0.000000
# 4 0.000000 0.000000 -0.000001 0.057189 0.000000 0.009448
# 5 0.002143 -0.001927 0.003877 0.000000 0.036310 0.000001
# 6 0.000000 0.000000 0.000000 0.009448 0.000001 0.036273
#
#
# Mechanical properties :
#
#
# Convention : Reuss Voigt Hill
#
# Bulk Modulus (GPa) = 36.21252 47.41386 41.81319
# Shear Modulus (GPa) = 24.40147 27.63762 26.01955
#
# Velocity S-wave (km/s) = 3.54940 3.77743 3.66519
# Velocity P-wave (km/s) = 5.95766 6.59580 6.28484
#
# Compressibility (1/GPa) = 0.02761476
#
# Stress axis : x y z
#
# Youngs Moduli (GPa) = 92.72178 55.39766 55.75598
#
# Poissons Ratio (x) = 0.36186 0.21198
# Poissons Ratio (y) = 0.60566 -0.04213
# Poissons Ratio (z) = 0.35253 -0.04186
#
# Static dielectric constant tensor:
#      x y z
#    x 1.759820 0.000000 -0.007000 
#    y 0.000000 1.683050 0.000000 
#    z -0.007000 0.000000 1.752760 
# 
# From -- ./inp_files/164211.got.cif
#   From: 2010.05.17/outbox.cif.g08.bks.cpg/sg15_83_cif.got.tgz:164211.got - 2010.06.03 18:47:42.
