data_PCOD9268014
_publ_section_title
;
Structure prediction by ZEFSAII (Michael W. Deem and Ramdas Pophale) SiO2 
 PCOD9268014
Probable space group: C 2/C
;
_chemical_formula_sum "Si O2"
_cell_formula_units_Z 64
_cell_length_a 9.158250
_cell_length_b 16.736111
_cell_length_c 33.244027
_cell_angle_alpha 90.000000
_cell_angle_beta 39.140500
_cell_angle_gamma 90.000000
_cell_volume 3216.357482
_symmetry_space_group_name_H-M "C 2/C"
_symmetry_group_IT_number 15
_symmetry_cell_setting 'monoclinic'
loop_
_space_group_symop_operation_xyz
x,y,z
-x,y,1/2-z
-x,-y,-z
x,-y,1/2+z
1/2+x,1/2+y,z
1/2-x,1/2+y,1/2-z
1/2-x,1/2-y,-z
1/2+x,1/2-y,1/2+z
loop_
_atom_site_type_symbol
_atom_site_label
_atom_site_fract_x
_atom_site_fract_y
_atom_site_fract_z
Si Si1 0.538128 0.889940 0.284142
Si Si2 0.162484 0.565272 0.164796
Si Si3 0.553583 0.761569 0.133666
Si Si4 0.434198 0.750685 0.996914
Si Si5 0.819127 0.883053 0.719569
Si Si6 0.032146 0.955408 0.195785
Si Si7 0.548316 0.849271 0.424248
Si Si8 0.963480 0.083211 0.483799
O O1 0.500000 0.846382 0.250000
O O2 0.455114 0.845057 0.341357
O O3 0.807023 0.911957 0.226478
O O4 0.401381 0.973191 0.314742
O O5 0.247650 0.596290 0.189282
O O6 0.364377 0.577372 0.090368
O O7 0.919263 0.607220 0.204862
O O8 0.413438 0.704930 0.193768
O O9 0.458044 0.780162 0.109223
O O10 0.810852 0.728078 0.074110
O O11 0.250000 0.750000 0.000000
O O12 0.399970 0.807767 0.043588
O O13 0.457947 0.659498 0.006997
O O14 0.001820 0.950114 0.694015
O O15 0.258224 0.913718 0.129689
O O16 0.000000 0.943102 0.250000
O O17 0.297578 0.893474 0.474790
O O18 0.000000 0.000000 0.500000
#
# Coordination Sequence:
#
# PCOD9268014 Si02
#       8
#     8   8   8   8   8   8   8   8
#     4  11  22  41  66  95 129 172 213 269 321 392
#     4  10  19  41  66  91 122 168 219 249 320 384
#     4  11  23  43  65  96 130 171 217 266 330 387
#     4  11  26  45  64  97 134 171 221 278 325 394
#     4  10  22  38  66  94 128 161 208 279 311 377
#     4  11  23  41  67  96 130 169 219 268 327 387
#     4  11  24  45  68  92 133 178 222 266 327 404
#     4  11  24  42  72  93 128 179 219 263 321 403
#
# _framework density 19.898284
#
# number of rings (size 3 to 8) (size 9 to 14) (size 15 to 20)
#    0.000    1.250    3.750    4.500    3.500    5.500 
#    0.000    1.875    0.000    0.000    0.000    0.000 
#    0.000    0.000    0.000    0.000    0.000    0.000 
#
# Total GULP energy -178549.257869 kJ/mol
# GULP energy per Si atom -5579.664308 kJ/mol
# Density = 1.985299 g / cm^3
# Si number density = 19.898284 Si / 1000 Ang^3
#
#
#
# Elastic Constant Matrix: (Units=GPa)
#
#
# Indices 1 2 3 4 5 6 
#
# 1 103.6512 18.4984 24.8590 -0.0032 6.9450 0.0078
# 2 18.4984 53.7684 15.3824 0.0006 1.1432 0.0020
# 3 24.8590 15.3824 107.0883 0.0050 1.8062 0.0068
# 4 -0.0032 0.0006 0.0050 0.2044 -0.0005 18.1973
# 5 6.9450 1.1432 1.8062 -0.0005 23.7642 -0.0059
# 6 0.0078 0.0020 0.0068 18.1973 -0.0059 -2.8771
#
#
#
# Elastic Compliance Matrix: (Units=1/GPa)
#
#
# Indices 1 2 3 4 5 6 
#
# 1 0.010881 -0.003101 -0.002032 -0.000004 -0.002876 0.000003
# 2 -0.003101 0.020291 -0.002196 0.000000 0.000097 -0.000001
# 3 -0.002032 -0.002196 0.010126 -0.000003 -0.000070 -0.000003
# 4 -0.000004 0.000000 -0.000003 0.008673 0.000015 0.054856
# 5 -0.002876 0.000097 -0.000070 0.000015 0.042921 0.000001
# 6 0.000003 -0.000001 -0.000003 0.054856 0.000001 -0.000616
#
#
# Mechanical properties :
#
#
# Convention : Reuss Voigt Hill
#
# Bulk Modulus (GPa) = 37.53732 42.44304 39.99018
# Shear Modulus (GPa) = 43.17168 17.93617 30.55393
#
# Velocity S-wave (km/s) = 4.66297 3.00558 3.92280
# Velocity P-wave (km/s) = 6.92074 5.78109 6.37642
#
# Compressibility (1/GPa) = 0.02664016
#
# Stress axis : x y z
#
# Youngs Moduli (GPa) = 91.90122 49.28176 98.75114
#
# Poissons Ratio (x) = 0.15283 0.20066
# Poissons Ratio (y) = 0.28499 0.21690
# Poissons Ratio (z) = 0.18674 0.10825
#
# Static dielectric constant tensor:
#      x y z
#    x 1.748680 0.000000 -0.017150 
#    y 0.000000 1.709820 0.000000 
#    z -0.017150 0.000000 1.713430 
# 
# From -- ./inp_files/308776.got.cif
#   From: 2010.05.17/outbox.cif.g08.bks.cpg/sg15_155_cif.got.tgz:308776.got - 2010.06.03 18:47:42.
