data_PCOD9268609
_publ_section_title
;
Structure prediction by ZEFSAII (Michael W. Deem and Ramdas Pophale) SiO2 
 PCOD9268609
Probable space group: C 2/C
;
_chemical_formula_sum "Si O2"
_cell_formula_units_Z 44
_cell_length_a 10.325909
_cell_length_b 22.945285
_cell_length_c 11.881132
_cell_angle_alpha 90.000000
_cell_angle_beta 134.503556
_cell_angle_gamma 90.000000
_cell_volume 2007.682970
_symmetry_space_group_name_H-M "C 2/C"
_symmetry_group_IT_number 15
_symmetry_cell_setting 'monoclinic'
loop_
_space_group_symop_operation_xyz
x,y,z
-x,y,1/2-z
-x,-y,-z
x,-y,1/2+z
1/2+x,1/2+y,z
1/2-x,1/2+y,1/2-z
1/2-x,1/2-y,-z
1/2+x,1/2-y,1/2+z
loop_
_atom_site_type_symbol
_atom_site_label
_atom_site_fract_x
_atom_site_fract_y
_atom_site_fract_z
Si Si1 0.181230 0.931221 0.435769
Si Si2 0.433182 0.388266 0.473502
Si Si3 0.388022 0.276817 0.940755
Si Si4 0.889160 0.641331 0.900492
Si Si5 0.500000 0.243872 0.250000
Si Si6 0.354859 0.947901 0.059475
O O1 0.303981 0.877986 0.467118
O O2 0.000000 0.935917 0.250000
O O3 0.097938 0.920655 0.509053
O O4 0.306409 0.987478 0.489996
O O5 0.505375 0.326157 0.559320
O O6 0.270198 0.373539 0.286332
O O7 0.336833 0.425224 0.509852
O O8 0.421899 0.210629 0.921680
O O9 0.174394 0.289180 0.810659
O O10 0.442383 0.280603 0.105849
O O11 0.057647 0.600038 0.970103
O O12 0.500000 0.953122 0.250000
#
# Coordination Sequence:
#
# PCOD9268609 Si02
#       6
#     8   8   8   8   4   8
#     4  10  20  38  61  83 111 154 196 241 286 329
#     4  10  21  38  61  84 120 154 187 237 293 341
#     4  11  20  37  58  90 114 150 194 228 300 336
#     4  10  21  38  61  84 120 154 187 237 293 341
#     4  10  20  32  58  84 120 138 188 244 266 346
#     4  10  22  41  58  83 117 158 194 231 287 346
#
# _framework density 21.915811000000001
#
# number of rings (size 3 to 8) (size 9 to 14) (size 15 to 20)
#    0.000    1.818    1.818    3.273    2.545    0.727 
#    9.818    0.000    0.000    0.000    0.000    0.000 
#    0.000    0.000    0.000    0.000    0.000    0.000 
#
# Total GULP energy -122818.705849 kJ/mol
# GULP energy per Si atom -5582.668448 kJ/mol
# Density = 2.186593 g / cm^3
# Si number density = 21.915811 Si / 1000 Ang^3
#
#
#
# Elastic Constant Matrix: (Units=GPa)
#
#
# Indices 1 2 3 4 5 6 
#
# 1 76.3552 26.0024 -0.2202 0.0000 12.7921 0.0000
# 2 26.0024 120.2274 -5.1346 0.0000 8.8323 0.0000
# 3 -0.2202 -5.1346 18.1686 0.0000 7.4252 0.0000
# 4 0.0000 0.0000 0.0000 19.8593 0.0000 9.5671
# 5 12.7921 8.8323 7.4252 0.0000 18.5309 0.0000
# 6 0.0000 0.0000 0.0000 9.5671 0.0000 32.6152
#
#
#
# Elastic Compliance Matrix: (Units=1/GPa)
#
#
# Indices 1 2 3 4 5 6 
#
# 1 0.015851 -0.002405 0.004204 0.000000 -0.011480 0.000000
# 2 -0.002405 0.009369 0.004502 0.000000 -0.004609 0.000000
# 3 0.004204 0.004502 0.069868 0.000000 -0.033044 0.000000
# 4 0.000000 0.000000 0.000000 0.058641 0.000000 -0.017201
# 5 -0.011480 -0.004609 -0.033044 0.000000 0.077326 0.000000
# 6 0.000000 0.000000 0.000000 -0.017201 0.000000 0.035706
#
#
# Mechanical properties :
#
#
# Convention : Reuss Voigt Hill
#
# Bulk Modulus (GPa) = 9.28594 28.44960 18.86777
# Shear Modulus (GPa) = 17.23808 27.14132 22.18970
#
# Velocity S-wave (km/s) = 2.80761 3.52296 3.18543
# Velocity P-wave (km/s) = 3.84142 5.43671 4.70714
#
# Compressibility (1/GPa) = 0.10768967
#
# Stress axis : x y z
#
# Youngs Moduli (GPa) = 63.08630 106.73906 14.31276
#
# Poissons Ratio (x) = 0.25674 -0.06017
# Poissons Ratio (y) = 0.15174 -0.06444
# Poissons Ratio (z) = -0.26523 -0.48055
#
# Static dielectric constant tensor:
#      x y z
#    x 1.812920 0.000000 -0.008640 
#    y 0.000000 1.818870 0.000000 
#    z -0.008640 0.000000 1.827590 
# 
# From -- ./inp_files/79984.got.cif
#   From: 2010.05.17/outbox.cif.g08.bks.cpg/sg15_40_cif.got.tgz:79984.got - 2010.06.03 18:47:42.
