data_PCOD9268395
_publ_section_title
;
Structure prediction by ZEFSAII (Michael W. Deem and Ramdas Pophale) SiO2 
 PCOD9268395
Probable space group: C 2/C
;
_chemical_formula_sum "Si O2"
_cell_formula_units_Z 48
_cell_length_a 27.681372
_cell_length_b 13.412876
_cell_length_c 16.127553
_cell_angle_alpha 90.000000
_cell_angle_beta 17.011523
_cell_angle_gamma 90.000000
_cell_volume 1751.858085
_symmetry_space_group_name_H-M "C 2/C"
_symmetry_group_IT_number 15
_symmetry_cell_setting 'monoclinic'
loop_
_space_group_symop_operation_xyz
x,y,z
-x,y,1/2-z
-x,-y,-z
x,-y,1/2+z
1/2+x,1/2+y,z
1/2-x,1/2+y,1/2-z
1/2-x,1/2-y,-z
1/2+x,1/2-y,1/2+z
loop_
_atom_site_type_symbol
_atom_site_label
_atom_site_fract_x
_atom_site_fract_y
_atom_site_fract_z
Si Si1 0.278482 0.176634 0.075199
Si Si2 0.069018 0.161823 0.558119
Si Si3 0.717843 0.950748 0.368351
Si Si4 0.794620 0.499905 0.282902
Si Si5 0.432871 0.651544 0.241167
Si Si6 0.261634 0.130946 0.483635
O O1 0.428239 0.239327 0.791195
O O2 0.185962 0.224073 0.306144
O O3 0.304587 0.064571 0.062605
O O4 0.146214 0.168424 0.218548
O O5 0.929876 0.109423 0.729344
O O6 0.000000 0.222227 0.750000
O O7 0.828302 0.077748 0.061912
O O8 0.895277 0.904344 0.049683
O O9 0.697048 0.896222 0.490636
O O10 0.623373 0.953926 0.434651
O O11 0.695013 0.414628 0.495345
O O12 0.864055 0.572651 0.242695
O O13 0.250000 0.250000 0.500000
#
# Coordination Sequence:
#
# PCOD9268395 Si02
#       6
#     8   8   8   8   8   8
#     4  10  20  31  59  86 115 152 198 254 320 382
#     4   9  18  35  54  82 120 158 199 256 311 378
#     4  11  20  36  59  81 126 156 196 270 319 378
#     4  10  21  34  58  89 117 157 208 260 326 382
#     4  11  19  33  57  89 114 149 200 257 320 384
#     4  11  21  35  57  87 122 166 216 259 326 399
#
# _framework density 27.399480000000001
#
# number of rings (size 3 to 8) (size 9 to 14) (size 15 to 20)
#    0.000    1.667    3.333    6.000    0.000    4.000 
#    0.000    0.000    0.000    4.000    0.000   11.667 
#    0.000    0.000    0.000    0.000    0.000    0.000 
#
# Total GULP energy -134001.163222 kJ/mol
# GULP energy per Si atom -5583.381801 kJ/mol
# Density = 2.733712 g / cm^3
# Si number density = 27.399480 Si / 1000 Ang^3
#
#
#
# Elastic Constant Matrix: (Units=GPa)
#
#
# Indices 1 2 3 4 5 6 
#
# 1 211.4276 50.1648 83.8558 -0.0002 54.1585 0.0000
# 2 50.1648 178.4281 58.2420 -0.0004 34.8196 0.0004
# 3 83.8558 58.2420 151.4546 -0.0004 50.8707 -0.0002
# 4 -0.0002 -0.0004 -0.0004 26.7579 0.0004 4.0276
# 5 54.1585 34.8196 50.8707 0.0004 67.0832 0.0001
# 6 0.0000 0.0004 -0.0002 4.0276 0.0001 17.0406
#
#
#
# Elastic Compliance Matrix: (Units=1/GPa)
#
#
# Indices 1 2 3 4 5 6 
#
# 1 0.006630 -0.000437 -0.002390 0.000000 -0.003313 0.000000
# 2 -0.000437 0.006635 -0.001706 0.000000 -0.001797 0.000000
# 3 -0.002390 -0.001706 0.010246 0.000000 -0.004955 0.000000
# 4 0.000000 0.000000 0.000000 0.038751 0.000000 -0.009159
# 5 -0.003313 -0.001797 -0.004955 0.000000 0.022272 0.000000
# 6 0.000000 0.000000 0.000000 -0.009159 0.000000 0.060848
#
#
# Mechanical properties :
#
#
# Convention : Reuss Voigt Hill
#
# Bulk Modulus (GPa) = 69.22544 102.87062 86.04803
# Shear Modulus (GPa) = 31.39461 45.44621 38.42041
#
# Velocity S-wave (km/s) = 3.38865 4.07707 3.74870
# Velocity P-wave (km/s) = 6.37422 7.73237 7.08591
#
# Compressibility (1/GPa) = 0.01444556
#
# Stress axis : x y z
#
# Youngs Moduli (GPa) = 150.82694 150.71689 97.59900
#
# Poissons Ratio (x) = 0.06592 0.23324
# Poissons Ratio (y) = 0.06597 0.16647
# Poissons Ratio (z) = 0.36044 0.25707
#
# Static dielectric constant tensor:
#      x y z
#    x 2.197250 0.000000 -0.077180 
#    y 0.000000 2.187090 0.000000 
#    z -0.077180 0.000000 2.357180 
# 
# From -- ./inp_files/182004.got.cif
#   From: 2010.05.17/outbox.cif.g08.bks.cpg/sg15_92_cif.got.tgz:182004.got - 2010.06.03 18:47:42.
