data_PCOD9268082
_publ_section_title
;
Structure prediction by ZEFSAII (Michael W. Deem and Ramdas Pophale) SiO2 
 PCOD9268082
Probable space group: C 2/C
;
_chemical_formula_sum "Si O2"
_cell_formula_units_Z 48
_cell_length_a 27.481013
_cell_length_b 7.139551
_cell_length_c 14.160351
_cell_angle_alpha 90.000000
_cell_angle_beta 138.081189
_cell_angle_gamma 90.000000
_cell_volume 1856.111680
_symmetry_space_group_name_H-M "C 2/C"
_symmetry_group_IT_number 15
_symmetry_cell_setting 'monoclinic'
loop_
_space_group_symop_operation_xyz
x,y,z
-x,y,1/2-z
-x,-y,-z
x,-y,1/2+z
1/2+x,1/2+y,z
1/2-x,1/2+y,1/2-z
1/2-x,1/2-y,-z
1/2+x,1/2-y,1/2+z
loop_
_atom_site_type_symbol
_atom_site_label
_atom_site_fract_x
_atom_site_fract_y
_atom_site_fract_z
Si Si1 0.435030 0.685731 0.083116
Si Si2 0.542241 0.828696 0.104415
Si Si3 0.694642 0.587216 0.483160
Si Si4 0.142355 0.525572 0.923111
Si Si5 0.836528 0.933970 0.779712
Si Si6 0.251622 0.277077 0.833697
O O1 0.500000 0.650792 0.250000
O O2 0.479424 0.687169 0.051231
O O3 0.405142 0.897220 0.057805
O O4 0.370551 0.558061 0.033180
O O5 0.590007 0.928765 0.258210
O O6 0.594594 0.704629 0.114246
O O7 0.500000 0.000000 0.000000
O O8 0.666462 0.540571 0.338975
O O9 0.702734 0.810830 0.496829
O O10 0.758867 0.459485 0.616061
O O11 0.187520 0.344306 0.019925
O O12 0.780332 0.835764 0.772605
O O13 0.820332 0.152062 0.782557
#
# Coordination Sequence:
#
# PCOD9268082 Si02
#       6
#     8   8   8   8   8   8
#     4   8  15  38  69  96 145 178 235 306 373 447
#     4  10  19  41  78 115 150 196 251 314 395 462
#     4   9  22  46  70 102 147 197 247 324 383 447
#     4   8  20  40  72 103 148 195 237 316 383 451
#     4  11  26  45  73 107 152 205 252 323 381 467
#     4  12  25  46  67 111 148 199 269 308 390 466
#
# _framework density 25.860513000000001
#
# number of rings (size 3 to 8) (size 9 to 14) (size 15 to 20)
#    1.000    1.333    1.667    1.500    2.333    2.667 
#    9.000    5.000    0.000    0.000    0.000    0.000 
#    0.000    0.000    0.000    0.000    0.000    0.000 
#
# Total GULP energy -133696.045260 kJ/mol
# GULP energy per Si atom -5570.668552 kJ/mol
# Density = 2.580165 g / cm^3
# Si number density = 25.860513 Si / 1000 Ang^3
#
#
#
# Elastic Constant Matrix: (Units=GPa)
#
#
# Indices 1 2 3 4 5 6 
#
# 1 132.9790 40.4504 34.7287 0.0000 -2.1872 0.0000
# 2 40.4504 130.2409 54.1610 0.0000 -15.2821 0.0000
# 3 34.7287 54.1610 118.9940 0.0000 -12.6122 0.0000
# 4 0.0000 0.0000 0.0000 53.5534 0.0000 1.2070
# 5 -2.1872 -15.2821 -12.6122 0.0000 37.8597 0.0000
# 6 0.0000 0.0000 0.0000 1.2070 0.0000 33.0344
#
#
#
# Elastic Compliance Matrix: (Units=1/GPa)
#
#
# Indices 1 2 3 4 5 6 
#
# 1 0.008569 -0.002081 -0.001649 0.000000 -0.000894 0.000000
# 2 -0.002081 0.010205 -0.003746 0.000000 0.002751 0.000000
# 3 -0.001649 -0.003746 0.010801 0.000000 0.001991 0.000000
# 4 0.000000 0.000000 0.000000 0.018688 0.000000 -0.000683
# 5 -0.000894 0.002751 0.001991 0.000000 0.028135 0.000000
# 6 0.000000 0.000000 0.000000 -0.000683 0.000000 0.030296
#
#
# Mechanical properties :
#
#
# Convention : Reuss Voigt Hill
#
# Bulk Modulus (GPa) = 68.37989 71.21045 69.79517
# Shear Modulus (GPa) = 39.51955 41.74776 40.63366
#
# Velocity S-wave (km/s) = 3.91344 4.02225 3.96822
# Velocity P-wave (km/s) = 6.84976 7.01195 6.93133
#
# Compressibility (1/GPa) = 0.01462418
#
# Stress axis : x y z
#
# Youngs Moduli (GPa) = 116.70364 97.99239 92.58454
#
# Poissons Ratio (x) = 0.20389 0.15263
# Poissons Ratio (y) = 0.24282 0.34682
# Poissons Ratio (z) = 0.19239 0.36708
#
# Static dielectric constant tensor:
#      x y z
#    x 2.114610 0.000000 -0.016690 
#    y 0.000000 2.110470 0.000000 
#    z -0.016690 0.000000 2.330450 
# 
# From -- ./inp_files/180895.got.cif
#   From: 2010.05.17/outbox.cif.g08.bks.cpg/sg15_91_cif.got.tgz:180895.got - 2010.06.03 18:47:42.
