data_PCOD9268371
_publ_section_title
;
Structure prediction by ZEFSAII (Michael W. Deem and Ramdas Pophale) SiO2 
 PCOD9268371
Probable space group: C 2/C
;
_chemical_formula_sum "Si O2"
_cell_formula_units_Z 48
_cell_length_a 25.439820
_cell_length_b 19.582602
_cell_length_c 8.790994
_cell_angle_alpha 90.000000
_cell_angle_beta 151.141825
_cell_angle_gamma 90.000000
_cell_volume 2113.725508
_symmetry_space_group_name_H-M "C 2/C"
_symmetry_group_IT_number 15
_symmetry_cell_setting 'monoclinic'
loop_
_space_group_symop_operation_xyz
x,y,z
-x,y,1/2-z
-x,-y,-z
x,-y,1/2+z
1/2+x,1/2+y,z
1/2-x,1/2+y,1/2-z
1/2-x,1/2-y,-z
1/2+x,1/2-y,1/2+z
loop_
_atom_site_type_symbol
_atom_site_label
_atom_site_fract_x
_atom_site_fract_y
_atom_site_fract_z
Si Si1 0.500000 0.507731 0.750000
Si Si2 0.000000 0.352225 0.250000
Si Si3 0.424915 0.597499 0.279927
Si Si4 0.839164 0.843967 0.122570
Si Si5 0.188093 0.409715 0.210952
Si Si6 0.342841 0.807373 0.598830
Si Si7 0.815641 0.441294 0.944408
O O1 0.446496 0.553004 0.485582
O O2 0.582378 0.456471 0.876172
O O3 0.065138 0.307912 0.537457
O O4 0.086162 0.400952 0.386112
O O5 0.532889 0.642010 0.527837
O O6 0.306570 0.627465 0.004528
O O7 0.823369 0.770582 0.003252
O O8 0.764226 0.837280 0.084030
O O9 0.791550 0.904455 0.897318
O O10 0.170917 0.430162 0.341660
O O11 0.183256 0.480160 0.103912
O O12 0.118289 0.355362 0.939706
#
# Coordination Sequence:
#
# PCOD9268371 Si02
#       7
#     4   4   8   8   8   8   8
#     4  10  20  31  54  89 124 160 198 236 304 387
#     4  10  24  47  68  87 122 172 222 272 326 379
#     4  11  20  35  59  90 128 163 196 250 321 380
#     4  10  22  41  64  94 131 170 213 258 315 389
#     4  12  24  40  65  97 129 164 213 271 327 387
#     4  10  24  43  64  92 127 172 222 264 315 381
#     4  11  24  42  67  97 128 166 218 271 321 385
#
# _framework density 22.708718999999999
#
# number of rings (size 3 to 8) (size 9 to 14) (size 15 to 20)
#    0.000    1.333    0.000    7.000    0.000    8.667 
#    0.000    3.333    0.000    0.000    0.000    0.000 
#    0.000    0.000    0.000    0.000    0.000    0.000 
#
# Total GULP energy -134169.318674 kJ/mol
# GULP energy per Si atom -5590.388278 kJ/mol
# Density = 2.265703 g / cm^3
# Si number density = 22.708719 Si / 1000 Ang^3
#
#
#
# Elastic Constant Matrix: (Units=GPa)
#
#
# Indices 1 2 3 4 5 6 
#
# 1 89.1870 23.1661 25.3434 0.0000 -17.7543 0.0000
# 2 23.1661 112.8778 6.7208 0.0000 -20.5269 0.0000
# 3 25.3434 6.7208 46.0537 0.0000 0.8708 0.0000
# 4 0.0000 0.0000 0.0000 15.4032 0.0000 -10.2041
# 5 -17.7543 -20.5269 0.8708 0.0000 36.0684 0.0000
# 6 0.0000 0.0000 0.0000 -10.2041 0.0000 18.8252
#
#
#
# Elastic Compliance Matrix: (Units=1/GPa)
#
#
# Indices 1 2 3 4 5 6 
#
# 1 0.015336 -0.001383 -0.008369 0.000000 0.006964 0.000000
# 2 -0.001383 0.010118 -0.000812 0.000000 0.005097 0.000000
# 3 -0.008369 -0.000812 0.026537 0.000000 -0.005223 0.000000
# 4 0.000000 0.000000 0.000000 0.101296 0.000000 0.054907
# 5 0.006964 0.005097 -0.005223 0.000000 0.034180 0.000000
# 6 0.000000 0.000000 0.000000 0.054907 0.000000 0.082883
#
#
# Mechanical properties :
#
#
# Convention : Reuss Voigt Hill
#
# Bulk Modulus (GPa) = 32.40153 39.84213 36.12183
# Shear Modulus (GPa) = 16.56916 26.91857 21.74386
#
# Velocity S-wave (km/s) = 2.70411 3.44668 3.09773
# Velocity P-wave (km/s) = 4.90397 5.78121 5.36057
#
# Compressibility (1/GPa) = 0.03086274
#
# Stress axis : x y z
#
# Youngs Moduli (GPa) = 65.20545 98.83148 37.68365
#
# Poissons Ratio (x) = 0.13665 0.31539
# Poissons Ratio (y) = 0.09016 0.03060
# Poissons Ratio (z) = 0.54573 0.08026
#
# Static dielectric constant tensor:
#      x y z
#    x 1.865820 0.000000 0.036060 
#    y 0.000000 1.792010 0.000000 
#    z 0.036060 0.000000 1.902750 
# 
# From -- ./inp_files/67557.got.cif
#   From: 2010.05.17/outbox.cif.g08.bks.cpg/sg15_34_cif.got.tgz:67557.got - 2010.06.03 18:47:42.
