data_PCOD9268192
_publ_section_title
;
Structure prediction by ZEFSAII (Michael W. Deem and Ramdas Pophale) SiO2 
 PCOD9268192
Probable space group: C 2/C
;
_chemical_formula_sum "Si O2"
_cell_formula_units_Z 60
_cell_length_a 9.252466
_cell_length_b 20.116062
_cell_length_c 18.742596
_cell_angle_alpha 90.000000
_cell_angle_beta 124.769948
_cell_angle_gamma 90.000000
_cell_volume 2865.566663
_symmetry_space_group_name_H-M "C 2/C"
_symmetry_group_IT_number 15
_symmetry_cell_setting 'monoclinic'
loop_
_space_group_symop_operation_xyz
x,y,z
-x,y,1/2-z
-x,-y,-z
x,-y,1/2+z
1/2+x,1/2+y,z
1/2-x,1/2+y,1/2-z
1/2-x,1/2-y,-z
1/2+x,1/2-y,1/2+z
loop_
_atom_site_type_symbol
_atom_site_label
_atom_site_fract_x
_atom_site_fract_y
_atom_site_fract_z
Si Si1 0.099581 0.801824 0.979504
Si Si2 0.754737 0.275618 0.421286
Si Si3 0.789441 0.518210 0.774317
Si Si4 0.172717 0.891080 0.657824
Si Si5 0.710570 0.428157 0.405867
Si Si6 0.316898 0.021669 0.078118
Si Si7 0.843372 0.904042 0.383078
Si Si8 0.500000 0.797056 0.750000
O O1 0.922614 0.759688 0.935775
O O2 0.021572 0.859063 0.903957
O O3 0.250000 0.750000 0.000000
O O4 0.149108 0.836958 0.068830
O O5 0.750000 0.250000 0.500000
O O6 0.781431 0.353580 0.420465
O O7 0.578588 0.250164 0.333152
O O8 0.682181 0.457590 0.707872
O O9 0.712933 0.539598 0.828906
O O10 0.790730 0.580356 0.719485
O O11 0.987199 0.491908 0.839546
O O12 0.235335 0.914464 0.595921
O O13 0.333101 0.842418 0.726683
O O14 0.818583 0.469381 0.494415
O O15 0.523848 0.417926 0.392174
O O16 0.198124 0.960415 0.070066
#
# Coordination Sequence:
#
# PCOD9268192 Si02
#       8
#     8   8   8   8   8   8   8   4
#     4  11  25  45  70  98 137 187 236 277 344 424
#     4  11  24  43  70 100 129 186 231 280 350 410
#     4  11  25  39  71 108 132 174 232 294 351 411
#     4  10  19  43  71  97 135 182 232 281 357 410
#     4  12  24  42  67 103 139 175 230 290 344 414
#     4  11  22  44  70  99 132 183 223 287 352 418
#     4  11  23  44  68  92 141 181 223 278 358 414
#     4  10  20  40  70  90 132 174 236 272 332 432
#
# _framework density 20.938267
#
# number of rings (size 3 to 8) (size 9 to 14) (size 15 to 20)
#    0.000    1.067    4.000    3.200    5.600    0.000 
#    0.000    0.000    0.000    1.600    0.000    0.000 
#    0.000    0.000    0.000    0.000    0.000    0.000 
#
# Total GULP energy -167482.407948 kJ/mol
# GULP energy per Si atom -5582.746932 kJ/mol
# Density = 2.089061 g / cm^3
# Si number density = 20.938267 Si / 1000 Ang^3
#
#
#
# Elastic Constant Matrix: (Units=GPa)
#
#
# Indices 1 2 3 4 5 6 
#
# 1 69.8204 48.7344 50.9182 0.0000 -0.1807 0.0000
# 2 48.7344 72.7207 49.3850 0.0000 -17.1862 0.0000
# 3 50.9182 49.3850 153.7874 0.0000 -19.7828 0.0000
# 4 0.0000 0.0000 0.0000 -25.3550 0.0000 18.9364
# 5 -0.1807 -17.1862 -19.7828 0.0000 31.3305 0.0000
# 6 0.0000 0.0000 0.0000 18.9364 0.0000 35.0785
#
#
#
# Elastic Compliance Matrix: (Units=1/GPa)
#
#
# Indices 1 2 3 4 5 6 
#
# 1 0.034922 -0.023010 -0.006281 0.000000 -0.016387 0.000000
# 2 -0.023010 0.034107 -0.001028 0.000000 0.017927 0.000000
# 3 -0.006281 -0.001028 0.009616 0.000000 0.005472 0.000000
# 4 0.000000 0.000000 0.000000 -0.028108 0.000000 0.015173
# 5 -0.016387 0.017927 0.005472 0.000000 0.045112 0.000000
# 6 0.000000 0.000000 0.000000 0.015173 0.000000 0.020316
#
#
# Mechanical properties :
#
#
# Convention : Reuss Voigt Hill
#
# Bulk Modulus (GPa) = 55.53731 66.04485 60.79108
# Shear Modulus (GPa) = 27.38126 18.03019 22.70572
#
# Velocity S-wave (km/s) = 3.62016 2.93765 3.29661
# Velocity P-wave (km/s) = 6.63746 6.56640 6.60203
#
# Compressibility (1/GPa) = 0.01800591
#
# Stress axis : x y z
#
# Youngs Moduli (GPa) = 28.63523 29.31979 103.99249
#
# Poissons Ratio (x) = 0.67466 0.65320
# Poissons Ratio (y) = 0.65891 0.10688
# Poissons Ratio (z) = 0.17986 0.03013
#
# Static dielectric constant tensor:
#      x y z
#    x 1.663680 0.000000 0.037840 
#    y 0.000000 1.796560 0.000000 
#    z 0.037840 0.000000 1.809310 
# 
# From -- ./inp_files/192567.got.cif
#   From: 2010.05.17/outbox.cif.g08.bks.cpg/sg15_97_cif.got.tgz:192567.got - 2010.06.03 18:47:42.
