data_PCOD9268093
_publ_section_title
;
Structure prediction by ZEFSAII (Michael W. Deem and Ramdas Pophale) SiO2 
 PCOD9268093
Probable space group: C 2/C
;
_chemical_formula_sum "Si O2"
_cell_formula_units_Z 56
_cell_length_a 6.477018
_cell_length_b 28.418651
_cell_length_c 15.779919
_cell_angle_alpha 90.000000
_cell_angle_beta 63.298728
_cell_angle_gamma 90.000000
_cell_volume 2594.839631
_symmetry_space_group_name_H-M "C 2/C"
_symmetry_group_IT_number 15
_symmetry_cell_setting 'monoclinic'
loop_
_space_group_symop_operation_xyz
x,y,z
-x,y,1/2-z
-x,-y,-z
x,-y,1/2+z
1/2+x,1/2+y,z
1/2-x,1/2+y,1/2-z
1/2-x,1/2-y,-z
1/2+x,1/2-y,1/2+z
loop_
_atom_site_type_symbol
_atom_site_label
_atom_site_fract_x
_atom_site_fract_y
_atom_site_fract_z
Si Si1 0.707381 0.311093 0.912830
Si Si2 0.000000 0.868640 0.250000
Si Si3 0.500000 0.438779 0.750000
Si Si4 0.265133 0.019610 0.350395
Si Si5 0.238278 0.584674 0.653353
Si Si6 0.218560 0.293858 0.403207
Si Si7 0.013205 0.603529 0.384534
Si Si8 0.284297 0.153328 0.997549
O O1 0.769795 0.259525 0.868202
O O2 0.901362 0.350281 0.864243
O O3 0.682657 0.303793 0.020313
O O4 0.466221 0.331533 0.923246
O O5 0.929017 0.902298 0.186936
O O6 0.807575 0.832902 0.321416
O O7 0.445665 0.468091 0.674286
O O8 0.736217 0.409831 0.697749
O O9 0.500000 0.017252 0.250000
O O10 0.331926 0.060993 0.403423
O O11 0.230833 0.967191 0.391661
O O12 0.245002 0.625297 0.583375
O O13 0.000000 0.585780 0.750000
O O14 0.943443 0.300893 0.459607
O O15 0.070411 0.618328 0.469411
#
# Coordination Sequence:
#
# PCOD9268093 Si02
#       8
#     8   4   4   8   8   8   8   8
#     4  10  21  41  61  88 125 168 198 257 312 361
#     4  12  21  40  62  94 120 160 210 261 300 374
#     4  10  19  42  62  84 124 160 206 257 306 368
#     4   9  20  38  61  88 121 162 201 257 312 368
#     4  11  22  38  64  91 123 161 207 253 312 365
#     4  10  22  38  63  88 125 160 209 253 310 365
#     4  10  22  39  63  89 124 162 207 251 313 371
#     4  11  21  39  64  90 126 167 202 255 309 375
#
# _framework density 21.581295000000001
#
# number of rings (size 3 to 8) (size 9 to 14) (size 15 to 20)
#    0.000    1.714    2.857    1.714    0.000    0.571 
#    6.429    2.857    0.000    0.000    0.000    0.000 
#    0.000    0.000    0.000    0.000    0.000    0.000 
#
# Total GULP energy -156328.085210 kJ/mol
# GULP energy per Si atom -5583.145900 kJ/mol
# Density = 2.153217 g / cm^3
# Si number density = 21.581295 Si / 1000 Ang^3
#
#
#
# Elastic Constant Matrix: (Units=GPa)
#
#
# Indices 1 2 3 4 5 6 
#
# 1 114.4577 43.2266 1.8715 0.0000 3.9729 0.0000
# 2 43.2266 128.4293 0.5882 0.0000 1.3046 0.0000
# 3 1.8715 0.5882 15.7556 0.0000 3.8833 0.0000
# 4 0.0000 0.0000 0.0000 95.6441 0.0000 47.8707
# 5 3.9729 1.3046 3.8833 0.0000 35.0040 0.0000
# 6 0.0000 0.0000 0.0000 47.8707 0.0000 56.1450
#
#
#
# Elastic Compliance Matrix: (Units=1/GPa)
#
#
# Indices 1 2 3 4 5 6 
#
# 1 0.010056 -0.003371 -0.000841 0.000000 -0.000922 0.000000
# 2 -0.003371 0.008920 0.000057 0.000000 0.000044 0.000000
# 3 -0.000841 0.000057 0.065330 0.000000 -0.007154 0.000000
# 4 0.000000 0.000000 0.000000 0.018239 0.000000 -0.015551
# 5 -0.000922 0.000044 -0.007154 0.000000 0.029465 0.000000
# 6 0.000000 0.000000 0.000000 -0.015551 0.000000 0.031070
#
#
# Mechanical properties :
#
#
# Convention : Reuss Voigt Hill
#
# Bulk Modulus (GPa) = 13.15882 38.89059 26.02470
# Shear Modulus (GPa) = 25.41631 51.55572 38.48602
#
# Velocity S-wave (km/s) = 3.43549 4.89295 4.22750
# Velocity P-wave (km/s) = 4.67411 7.06972 5.99284
#
# Compressibility (1/GPa) = 0.07599468
#
# Stress axis : x y z
#
# Youngs Moduli (GPa) = 99.44444 112.10247 15.30680
#
# Poissons Ratio (x) = 0.37794 0.01288
# Poissons Ratio (y) = 0.33526 -0.00087
# Poissons Ratio (z) = 0.08366 -0.00635
#
# Static dielectric constant tensor:
#      x y z
#    x 1.792670 0.000000 -0.010290 
#    y 0.000000 1.789140 0.000000 
#    z -0.010290 0.000000 1.846690 
# 
# From -- ./inp_files/186141.got.cif
#   From: 2010.05.17/outbox.cif.g08.bks.cpg/sg15_94_cif.got.tgz:186141.got - 2010.06.03 18:47:42.
