data_PCOD9268960
_publ_section_title
;
Structure prediction by ZEFSAII (Michael W. Deem and Ramdas Pophale) SiO2 
 PCOD9268960
Probable space group: C 2/C
;
_chemical_formula_sum "Si O2"
_cell_formula_units_Z 56
_cell_length_a 16.876653
_cell_length_b 16.877490
_cell_length_c 11.737411
_cell_angle_alpha 90.000000
_cell_angle_beta 47.154097
_cell_angle_gamma 90.000000
_cell_volume 2451.208393
_symmetry_space_group_name_H-M "C 2/C"
_symmetry_group_IT_number 15
_symmetry_cell_setting 'monoclinic'
loop_
_space_group_symop_operation_xyz
x,y,z
-x,y,1/2-z
-x,-y,-z
x,-y,1/2+z
1/2+x,1/2+y,z
1/2-x,1/2+y,1/2-z
1/2-x,1/2-y,-z
1/2+x,1/2-y,1/2+z
loop_
_atom_site_type_symbol
_atom_site_label
_atom_site_fract_x
_atom_site_fract_y
_atom_site_fract_z
Si Si1 0.734931 0.468072 0.590507
Si Si2 0.940268 0.719077 0.975995
Si Si3 0.417283 0.545754 0.924727
Si Si4 0.454287 0.388817 0.623698
Si Si5 0.971489 0.602670 0.144548
Si Si6 0.141810 0.351125 0.138972
Si Si7 0.329579 0.954175 0.199356
O O1 0.691496 0.525966 0.536177
O O2 0.647325 0.397622 0.691594
O O3 0.850370 0.429585 0.450225
O O4 0.737175 0.511559 0.708969
O O5 0.846024 0.713362 0.972532
O O6 0.981771 0.807811 0.937989
O O7 0.036942 0.671214 0.816039
O O8 0.924029 0.675812 0.113383
O O9 0.500000 0.578955 0.750000
O O10 0.471296 0.463459 0.914901
O O11 0.409835 0.601481 0.039582
O O12 0.893852 0.526478 0.198025
O O13 0.000000 0.617021 0.250000
O O14 0.084832 0.582783 0.972468
O O15 0.213554 0.387397 0.171228
#
# Coordination Sequence:
#
# PCOD9268960 Si02
#       7
#     8   8   8   8   8   8   8
#     4  11  20  36  63  90 117 155 200 251 294 344
#     4  10  22  38  55  87 123 159 191 240 300 354
#     4   9  21  40  65  87 109 160 203 251 298 341
#     4  10  22  40  60  87 120 151 207 250 294 356
#     4  10  20  33  57  85 120 160 193 234 296 356
#     4  10  21  35  58  88 122 156 192 240 301 353
#     4  10  20  34  57  91 121 150 195 245 285 362
#
# _framework density 22.845874999999999
#
# number of rings (size 3 to 8) (size 9 to 14) (size 15 to 20)
#    0.000    2.000    1.429    1.714   12.000    1.143 
#    0.000    0.000    0.000    4.286    0.000    0.000 
#    0.000    0.000    0.000    0.000    0.000    0.000 
#
# Total GULP energy -155993.972426 kJ/mol
# GULP energy per Si atom -5571.213301 kJ/mol
# Density = 2.279388 g / cm^3
# Si number density = 22.845875 Si / 1000 Ang^3
#
#
#
# Elastic Constant Matrix: (Units=GPa)
#
#
# Indices 1 2 3 4 5 6 
#
# 1 115.8428 39.8248 21.7766 0.0000 44.2602 0.0000
# 2 39.8248 72.0703 25.6256 0.0000 22.5971 0.0000
# 3 21.7766 25.6256 81.6894 0.0000 30.7405 0.0000
# 4 0.0000 0.0000 0.0000 17.5763 0.0000 8.7976
# 5 44.2602 22.5971 30.7405 0.0000 52.4833 0.0000
# 6 0.0000 0.0000 0.0000 8.7976 0.0000 25.5581
#
#
#
# Elastic Compliance Matrix: (Units=1/GPa)
#
#
# Indices 1 2 3 4 5 6 
#
# 1 0.014188 -0.005108 0.001918 0.000000 -0.010889 0.000000
# 2 -0.005108 0.018525 -0.003937 0.000000 -0.001363 0.000000
# 3 0.001918 -0.003937 0.016593 0.000000 -0.009641 0.000000
# 4 0.000000 0.000000 0.000000 0.068738 0.000000 -0.023661
# 5 -0.010889 -0.001363 -0.009641 0.000000 0.034471 0.000000
# 6 0.000000 0.000000 0.000000 -0.023661 0.000000 0.047271
#
#
# Mechanical properties :
#
#
# Convention : Reuss Voigt Hill
#
# Bulk Modulus (GPa) = 28.52827 49.33961 38.93394
# Shear Modulus (GPa) = 22.15090 31.28190 26.71640
#
# Velocity S-wave (km/s) = 3.11719 3.70436 3.42339
# Velocity P-wave (km/s) = 5.04680 6.31981 5.71884
#
# Compressibility (1/GPa) = 0.03505295
#
# Stress axis : x y z
#
# Youngs Moduli (GPa) = 70.47999 53.98142 60.26524
#
# Poissons Ratio (x) = 0.27573 -0.11558
# Poissons Ratio (y) = 0.36000 0.23725
# Poissons Ratio (z) = -0.13517 0.21251
#
# Static dielectric constant tensor:
#      x y z
#    x 1.966290 0.000000 -0.034880 
#    y 0.000000 1.850900 0.000000 
#    z -0.034880 0.000000 1.948370 
# 
# From -- ./inp_files/106633.got.cif
#   From: 2010.05.17/outbox.cif.g08.bks.cpg/sg15_54_cif.got.tgz:106633.got - 2010.06.03 18:47:42.
