data_PCOD9268436
_publ_section_title
;
Structure prediction by ZEFSAII (Michael W. Deem and Ramdas Pophale) SiO2 
 PCOD9268436
Probable space group: C 2/C
;
_chemical_formula_sum "Si O2"
_cell_formula_units_Z 64
_cell_length_a 20.620324
_cell_length_b 23.167255
_cell_length_c 17.996536
_cell_angle_alpha 90.000000
_cell_angle_beta 29.195587
_cell_angle_gamma 90.000000
_cell_volume 4193.667890
_symmetry_space_group_name_H-M "C 2/C"
_symmetry_group_IT_number 15
_symmetry_cell_setting 'monoclinic'
loop_
_space_group_symop_operation_xyz
x,y,z
-x,y,1/2-z
-x,-y,-z
x,-y,1/2+z
1/2+x,1/2+y,z
1/2-x,1/2+y,1/2-z
1/2-x,1/2-y,-z
1/2+x,1/2-y,1/2+z
loop_
_atom_site_type_symbol
_atom_site_label
_atom_site_fract_x
_atom_site_fract_y
_atom_site_fract_z
Si Si1 0.906996 0.948218 0.564544
Si Si2 0.007117 0.880381 0.596486
Si Si3 0.096613 0.999969 0.584186
Si Si4 0.750007 0.695490 0.894416
Si Si5 0.250368 0.671026 0.429876
Si Si6 0.593166 0.948193 0.878534
Si Si7 0.096433 0.500262 0.222736
Si Si8 0.506596 0.880490 0.389357
O O1 0.956561 0.894572 0.563923
O O2 0.750091 0.958399 0.737541
O O3 0.920968 0.950978 0.461613
O O4 0.000000 0.000000 0.500000
O O5 0.881210 0.861365 0.771074
O O6 0.065956 0.938869 0.574301
O O7 0.119774 0.831838 0.487552
O O8 0.000000 0.007101 0.750000
O O9 0.250067 0.999405 0.454647
O O10 0.750313 0.764527 0.895944
O O11 0.880519 0.667954 0.727312
O O12 0.749351 0.676320 0.981603
O O13 0.119269 0.638673 0.533345
O O14 0.579222 0.950811 0.803516
O O15 0.543814 0.894612 0.977035
O O16 0.500000 0.000000 0.000000
O O17 0.000000 0.507749 0.250000
O O18 0.065053 0.439079 0.294312
#
# Coordination Sequence:
#
# PCOD9268436 Si02
#       8
#     8   8   8   8   8   8   8   8
#     4   9  19  33  48  69  95 126 160 195 235 286
#     4  11  20  34  50  67  97 134 163 195 241 282
#     4  10  20  32  49  73  99 126 160 196 237 291
#     4  11  22  34  47  72  95 125 170 209 232 276
#     4  11  22  34  49  66  97 131 166 205 240 268
#     4   9  19  33  48  69  95 126 160 195 235 286
#     4  10  20  32  49  73  99 126 160 196 237 291
#     4  11  20  34  50  67  97 134 163 195 241 282
#
# _framework density 15.261104
#
# number of rings (size 3 to 8) (size 9 to 14) (size 15 to 20)
#    0.000    1.750    2.500    3.000    3.500    3.000 
#    0.000    0.000    0.000    0.000    0.000    0.000 
#    0.000    6.000    0.000    0.000    0.000    0.000 
#
# Total GULP energy -178442.211982 kJ/mol
# GULP energy per Si atom -5576.319124 kJ/mol
# Density = 1.522637 g / cm^3
# Si number density = 15.261104 Si / 1000 Ang^3
#
#
#
# Elastic Constant Matrix: (Units=GPa)
#
#
# Indices 1 2 3 4 5 6 
#
# 1 83.4023 27.1769 60.8255 -0.0180 -4.6594 0.0143
# 2 27.1769 43.0326 23.9031 0.0030 2.0258 -0.0001
# 3 60.8255 23.9031 99.9058 0.0399 -14.2848 -0.0247
# 4 -0.0180 0.0030 0.0399 8.5834 0.0051 10.5801
# 5 -4.6594 2.0258 -14.2848 0.0051 21.9923 -0.0059
# 6 0.0143 -0.0001 -0.0247 10.5801 -0.0059 20.4768
#
#
#
# Elastic Compliance Matrix: (Units=1/GPa)
#
#
# Indices 1 2 3 4 5 6 
#
# 1 0.023897 -0.007685 -0.013102 0.000430 -0.002740 -0.000256
# 2 -0.007685 0.030382 -0.003553 -0.000014 -0.006735 0.000007
# 3 -0.013102 -0.003553 0.020380 -0.000476 0.010789 0.000283
# 4 0.000430 -0.000014 -0.000476 0.320854 -0.000336 -0.165781
# 5 -0.002740 -0.006735 0.010789 -0.000336 0.052518 0.000203
# 6 -0.000256 0.000007 0.000283 -0.165781 0.000203 0.134493
#
#
# Mechanical properties :
#
#
# Convention : Reuss Voigt Hill
#
# Bulk Modulus (GPa) = 38.49496 50.01686 44.25591
# Shear Modulus (GPa) = 7.81416 17.83952 12.82684
#
# Velocity S-wave (km/s) = 2.26527 3.42271 2.90227
# Velocity P-wave (km/s) = 5.66753 6.96169 6.34768
#
# Compressibility (1/GPa) = 0.02597743
#
# Stress axis : x y z
#
# Youngs Moduli (GPa) = 41.84628 32.91385 49.06862
#
# Poissons Ratio (x) = 0.25294 0.64292
# Poissons Ratio (y) = 0.32159 0.17435
# Poissons Ratio (z) = 0.54829 0.11695
#
# Static dielectric constant tensor:
#      x y z
#    x 1.518490 0.000000 -0.000080 
#    y 0.000000 1.497950 0.000000 
#    z -0.000080 0.000000 1.518200 
# 
# From -- ./inp_files/58466.got.cif
#   From: 2010.05.17/outbox.cif.g08.bks.cpg/sg15_30_cif.got.tgz:58466.got - 2010.06.03 18:47:42.
