data_PCOD9268706
_publ_section_title
;
Structure prediction by ZEFSAII (Michael W. Deem and Ramdas Pophale) SiO2 
 PCOD9268706
Probable space group: C 2/C
;
_chemical_formula_sum "Si O2"
_cell_formula_units_Z 64
_cell_length_a 13.727137
_cell_length_b 29.721781
_cell_length_c 9.343023
_cell_angle_alpha 90.000000
_cell_angle_beta 59.883711
_cell_angle_gamma 90.000000
_cell_volume 3297.332517
_symmetry_space_group_name_H-M "C 2/C"
_symmetry_group_IT_number 15
_symmetry_cell_setting 'monoclinic'
loop_
_space_group_symop_operation_xyz
x,y,z
-x,y,1/2-z
-x,-y,-z
x,-y,1/2+z
1/2+x,1/2+y,z
1/2-x,1/2+y,1/2-z
1/2-x,1/2-y,-z
1/2+x,1/2-y,1/2+z
loop_
_atom_site_type_symbol
_atom_site_label
_atom_site_fract_x
_atom_site_fract_y
_atom_site_fract_z
Si Si1 0.135437 0.631156 0.137299
Si Si2 0.809902 0.389563 0.438437
Si Si3 0.543191 0.271535 0.369483
Si Si4 0.605407 0.740769 0.278517
Si Si5 0.569040 0.963029 0.329828
Si Si6 0.322084 0.188352 0.123401
Si Si7 0.152021 0.551868 0.331992
Si Si8 0.741784 0.169599 0.770258
O O1 0.190020 0.664965 0.213447
O O2 0.162517 0.581509 0.181567
O O3 0.000000 0.636723 0.250000
O O4 0.182755 0.643709 0.946295
O O5 0.883700 0.418905 0.277870
O O6 0.869179 0.349630 0.483405
O O7 0.778525 0.424131 0.590459
O O8 0.732609 0.362924 0.383463
O O9 0.500000 0.255150 0.250000
O O10 0.439551 0.284231 0.545935
O O11 0.597110 0.229794 0.412523
O O12 0.640169 0.307877 0.273617
O O13 0.500000 0.743991 0.250000
O O14 0.706575 0.709252 0.148172
O O15 0.660148 0.788966 0.280904
O O16 0.500000 0.986196 0.250000
O O17 0.478837 0.948656 0.515682
O O18 0.664996 0.998284 0.304425
#
# Coordination Sequence:
#
# PCOD9268706 Si02
#       8
#     8   8   8   8   8   8   8   8
#     4  11  20  32  52  75 106 142 177 216 260 306
#     4  10  20  33  50  73 107 137 170 218 255 299
#     4  11  22  37  55  75 106 144 179 223 273 308
#     4  11  22  36  54  72 103 144 178 220 271 308
#     4   9  17  31  50  74 106 140 175 209 256 319
#     4  10  21  36  52  77 104 136 185 223 256 318
#     4   9  19  32  49  74 105 143 175 206 256 322
#     4  11  23  35  51  79 107 137 185 225 254 314
#
# _framework density 19.409628000000001
#
# number of rings (size 3 to 8) (size 9 to 14) (size 15 to 20)
#    0.000    1.750    0.000    5.250    0.000   12.500 
#    0.000    0.000    0.000    0.000    0.000    0.000 
#    0.000   63.000    0.000    0.000    0.000    0.000 
#
# Total GULP energy -178356.772954 kJ/mol
# GULP energy per Si atom -5573.649155 kJ/mol
# Density = 1.936545 g / cm^3
# Si number density = 19.409628 Si / 1000 Ang^3
#
#
#
# Elastic Constant Matrix: (Units=GPa)
#
#
# Indices 1 2 3 4 5 6 
#
# 1 58.8512 27.3101 19.4774 0.0000 4.1510 0.0000
# 2 27.3101 88.1881 48.1511 0.0000 3.4784 0.0000
# 3 19.4774 48.1511 91.7447 0.0000 15.7423 0.0000
# 4 0.0000 0.0000 0.0000 33.8192 0.0000 4.7387
# 5 4.1510 3.4784 15.7423 0.0000 22.7481 0.0000
# 6 0.0000 0.0000 0.0000 4.7387 0.0000 12.8744
#
#
#
# Elastic Compliance Matrix: (Units=1/GPa)
#
#
# Indices 1 2 3 4 5 6 
#
# 1 0.020060 -0.005612 -0.000945 0.000000 -0.002149 0.000000
# 2 -0.005612 0.017758 -0.008894 0.000000 0.004464 0.000000
# 3 -0.000945 -0.008894 0.017595 0.000000 -0.010644 0.000000
# 4 0.000000 0.000000 0.000000 0.031177 0.000000 -0.011475
# 5 -0.002149 0.004464 -0.010644 0.000000 0.051035 0.000000
# 6 0.000000 0.000000 0.000000 -0.011475 0.000000 0.081897
#
#
# Mechanical properties :
#
#
# Convention : Reuss Voigt Hill
#
# Bulk Modulus (GPa) = 40.79834 47.62902 44.21368
# Shear Modulus (GPa) = 19.33529 23.47802 21.40666
#
# Velocity S-wave (km/s) = 3.15964 3.48171 3.32458
# Velocity P-wave (km/s) = 5.86314 6.38398 6.12910
#
# Compressibility (1/GPa) = 0.02451080
#
# Stress axis : x y z
#
# Youngs Moduli (GPa) = 49.84945 56.31411 56.83468
#
# Poissons Ratio (x) = 0.31601 0.05371
# Poissons Ratio (y) = 0.27974 0.50551
# Poissons Ratio (z) = 0.04711 0.50088
#
# Static dielectric constant tensor:
#      x y z
#    x 1.693510 0.000000 0.027340 
#    y 0.000000 1.718610 0.000000 
#    z 0.027340 0.000000 1.760120 
# 
# From -- ./inp_files/44552.got.cif
#   From: 2010.05.17/outbox.cif.g08.bks.cpg/sg15_23_cif.got.tgz:44552.got - 2010.06.03 18:47:42.
