data_PCOD9268309
_publ_section_title
;
Structure prediction by ZEFSAII (Michael W. Deem and Ramdas Pophale) SiO2 
 PCOD9268309
Probable space group: C 2/C
;
_chemical_formula_sum "Si O2"
_cell_formula_units_Z 64
_cell_length_a 7.496246
_cell_length_b 13.458943
_cell_length_c 27.447410
_cell_angle_alpha 90.000000
_cell_angle_beta 125.847535
_cell_angle_gamma 90.000000
_cell_volume 2244.662709
_symmetry_space_group_name_H-M "C 2/C"
_symmetry_group_IT_number 15
_symmetry_cell_setting 'monoclinic'
loop_
_space_group_symop_operation_xyz
x,y,z
-x,y,1/2-z
-x,-y,-z
x,-y,1/2+z
1/2+x,1/2+y,z
1/2-x,1/2+y,1/2-z
1/2-x,1/2-y,-z
1/2+x,1/2-y,1/2+z
loop_
_atom_site_type_symbol
_atom_site_label
_atom_site_fract_x
_atom_site_fract_y
_atom_site_fract_z
Si Si1 0.858063 0.521997 0.775744
Si Si2 0.998598 0.492003 0.057002
Si Si3 0.734031 0.487727 0.097299
Si Si4 0.571732 0.232539 0.547511
Si Si5 0.169156 0.249093 0.208147
Si Si6 0.525005 0.257156 0.334182
Si Si7 0.760251 0.749028 0.582131
Si Si8 0.026675 0.997269 0.348401
O O1 0.809251 0.629988 0.789821
O O2 0.642966 0.467137 0.720463
O O3 0.000000 0.541255 0.750000
O O4 0.034272 0.477827 0.841123
O O5 0.225249 0.535847 0.113971
O O6 0.772795 0.521462 0.047688
O O7 0.045184 0.374332 0.069332
O O8 0.000000 0.500000 0.000000
O O9 0.726064 0.368161 0.089692
O O10 0.558198 0.513773 0.110105
O O11 0.820411 0.269349 0.595250
O O12 0.480017 0.224897 0.478351
O O13 0.402929 0.287457 0.557320
O O14 0.283467 0.224521 0.277938
O O15 0.324988 0.221902 0.187488
O O16 0.922602 0.222477 0.152643
O O17 0.510189 0.377431 0.337518
#
# Coordination Sequence:
#
# PCOD9268309 Si02
#       8
#     8   8   8   8   8   8   8   8
#     4   8  13  22  39  64  91 104 128 174 230 279
#     4  10  20  31  42  59  89 123 161 188 216 260
#     4   9  17  28  44  67  92 111 139 183 231 284
#     4   8  14  25  40  58  85 115 147 185 212 267
#     4   8  12  19  34  56  84 115 134 163 218 280
#     4   8  13  21  34  55  84 113 137 175 213 267
#     4   8  13  23  40  61  86 113 138 173 229 274
#     4   9  16  27  43  64  91 111 136 185 229 272
#
# _framework density 28.512080000000001
#
# number of rings (size 3 to 8) (size 9 to 14) (size 15 to 20)
#    0.000    3.500    0.000    2.250    0.000    2.000 
#    0.000    2.500    0.000    0.000    0.000    0.000 
#   90.000    0.000    0.000    0.000    0.000    0.000 
#
# Total GULP energy -178449.900309 kJ/mol
# GULP energy per Si atom -5576.559385 kJ/mol
# Density = 2.844719 g / cm^3
# Si number density = 28.512080 Si / 1000 Ang^3
#
#
#
# Elastic Constant Matrix: (Units=GPa)
#
#
# Indices 1 2 3 4 5 6 
#
# 1 119.0986 13.6472 57.9652 0.0000 -28.0093 0.0000
# 2 13.6472 89.2640 17.3380 0.0000 12.1269 0.0000
# 3 57.9652 17.3380 196.9053 0.0000 39.0952 0.0000
# 4 0.0000 0.0000 0.0000 35.5091 0.0000 4.8460
# 5 -28.0093 12.1269 39.0952 0.0000 63.2663 0.0000
# 6 0.0000 0.0000 0.0000 4.8460 0.0000 10.3422
#
#
#
# Elastic Compliance Matrix: (Units=1/GPa)
#
#
# Indices 1 2 3 4 5 6 
#
# 1 0.014008 -0.002388 -0.005968 0.000000 0.010347 0.000000
# 2 -0.002388 0.011984 0.000358 0.000000 -0.003575 0.000000
# 3 -0.005968 0.000358 0.008369 0.000000 -0.007882 0.000000
# 4 0.000000 0.000000 0.000000 0.030086 0.000000 -0.014097
# 5 0.010347 -0.003575 -0.007882 0.000000 0.025943 0.000000
# 6 0.000000 0.000000 0.000000 -0.014097 0.000000 0.103297
#
#
# Mechanical properties :
#
#
# Convention : Reuss Voigt Hill
#
# Bulk Modulus (GPa) = 54.45317 64.79651 59.62484
# Shear Modulus (GPa) = 23.16907 42.91135 33.04021
#
# Velocity S-wave (km/s) = 2.85372 3.88367 3.40783
# Velocity P-wave (km/s) = 5.47704 6.54873 6.03672
#
# Compressibility (1/GPa) = 0.01836440
#
# Stress axis : x y z
#
# Youngs Moduli (GPa) = 71.38762 83.44386 119.49006
#
# Poissons Ratio (x) = 0.19928 0.71310
# Poissons Ratio (y) = 0.17049 -0.04274
# Poissons Ratio (z) = 0.42603 -0.02985
#
# Static dielectric constant tensor:
#      x y z
#    x 2.377390 0.000000 -0.017010 
#    y 0.000000 2.419990 0.000000 
#    z -0.017010 0.000000 2.279650 
# 
# From -- ./inp_files/289989.got.cif
#   From: 2010.05.17/outbox.cif.g08.bks.cpg/sg15_145_cif.got.tgz:289989.got - 2010.06.03 18:47:42.
