data_PCOD9268671
_publ_section_title
;
Structure prediction by ZEFSAII (Michael W. Deem and Ramdas Pophale) SiO2 
 PCOD9268671
Probable space group: C 2/C
;
_chemical_formula_sum "Si O2"
_cell_formula_units_Z 52
_cell_length_a 29.311665
_cell_length_b 18.091158
_cell_length_c 5.065945
_cell_angle_alpha 90.000000
_cell_angle_beta 94.490072
_cell_angle_gamma 90.000000
_cell_volume 2678.134528
_symmetry_space_group_name_H-M "C 2/C"
_symmetry_group_IT_number 15
_symmetry_cell_setting 'monoclinic'
loop_
_space_group_symop_operation_xyz
x,y,z
-x,y,1/2-z
-x,-y,-z
x,-y,1/2+z
1/2+x,1/2+y,z
1/2-x,1/2+y,1/2-z
1/2-x,1/2-y,-z
1/2+x,1/2-y,1/2+z
loop_
_atom_site_type_symbol
_atom_site_label
_atom_site_fract_x
_atom_site_fract_y
_atom_site_fract_z
Si Si1 0.747454 0.680789 0.691378
Si Si2 0.655697 0.705641 0.832097
Si Si3 0.601610 0.445602 0.297485
Si Si4 0.650023 0.804620 0.302690
Si Si5 0.358742 0.956759 0.954702
Si Si6 0.000000 0.053055 0.750000
Si Si7 0.252376 0.459120 0.632268
O O1 0.750000 0.750000 0.500000
O O2 0.710554 0.696046 0.900011
O O3 0.800280 0.666233 0.784459
O O4 0.729916 0.613722 0.500975
O O5 0.634614 0.624388 0.813562
O O6 0.652684 0.748642 0.551948
O O7 0.633180 0.756374 0.048176
O O8 0.607106 0.499989 0.550028
O O9 0.549948 0.410736 0.272802
O O10 0.627333 0.878357 0.412712
O O11 0.303051 0.954639 0.904036
O O12 0.373188 0.020318 0.168090
O O13 0.000000 0.000000 0.500000
O O14 0.265907 0.475107 0.937420
#
# Coordination Sequence:
#
# PCOD9268671 Si02
#       7
#     8   8   8   8   8   4   8
#     4   9  20  33  46  61  86 124 162 191 235 290
#     4  11  21  32  47  67  93 125 158 200 241 284
#     4  10  20  35  53  75 100 130 167 206 250 300
#     4  10  20  33  46  65  93 125 160 200 244 285
#     4   9  16  28  45  62  80 110 150 189 225 268
#     4   8  16  32  54  74  96 126 160 198 248 308
#     4   9  18  29  42  58  76 100 141 192 230 257
#
# _framework density 19.416502000000001
#
# number of rings (size 3 to 8) (size 9 to 14) (size 15 to 20)
#    0.000    2.462    0.000    2.308    0.000   11.077 
#    0.000    0.000    0.000    0.000    0.000    0.000 
#    0.000    0.000    0.000   13.846    0.000    2.462 
#
# Total GULP energy -144942.363408 kJ/mol
# GULP energy per Si atom -5574.706285 kJ/mol
# Density = 1.937231 g / cm^3
# Si number density = 19.416502 Si / 1000 Ang^3
#
#
#
# Elastic Constant Matrix: (Units=GPa)
#
#
# Indices 1 2 3 4 5 6 
#
# 1 45.2731 27.1726 13.9448 0.0000 1.5500 0.0000
# 2 27.1726 92.5028 18.1657 0.0000 -0.3379 0.0000
# 3 13.9448 18.1657 108.9757 0.0000 -12.7241 0.0000
# 4 0.0000 0.0000 0.0000 31.6358 0.0000 -4.2560
# 5 1.5500 -0.3379 -12.7241 0.0000 10.2491 0.0000
# 6 0.0000 0.0000 0.0000 -4.2560 0.0000 13.2802
#
#
#
# Elastic Compliance Matrix: (Units=1/GPa)
#
#
# Indices 1 2 3 4 5 6 
#
# 1 0.027962 -0.007594 -0.003316 0.000000 -0.008596 0.000000
# 2 -0.007594 0.013284 -0.001237 0.000000 0.000051 0.000000
# 3 -0.003316 -0.001237 0.011532 0.000000 0.014778 0.000000
# 4 0.000000 0.000000 0.000000 0.033034 0.000000 0.010586
# 5 -0.008596 0.000051 0.014778 0.000000 0.117218 0.000000
# 6 0.000000 0.000000 0.000000 0.010586 0.000000 0.078693
#
#
# Mechanical properties :
#
#
# Convention : Reuss Voigt Hill
#
# Bulk Modulus (GPa) = 35.10588 40.59084 37.84836
# Shear Modulus (GPa) = 15.84734 23.53094 19.68914
#
# Velocity S-wave (km/s) = 2.85998 3.48502 3.18786
# Velocity P-wave (km/s) = 5.38755 6.09463 5.75197
#
# Compressibility (1/GPa) = 0.02848525
#
# Stress axis : x y z
#
# Youngs Moduli (GPa) = 35.76335 75.27715 86.71299
#
# Poissons Ratio (x) = 0.57165 0.28752
# Poissons Ratio (y) = 0.27158 0.10724
# Poissons Ratio (z) = 0.11858 0.09310
#
# Static dielectric constant tensor:
#      x y z
#    x 1.721300 0.000000 0.017320 
#    y 0.000000 1.719140 0.000000 
#    z 0.017320 0.000000 1.709120 
# 
# From -- ./inp_files/18315.got.cif
#   From: 2010.05.17/outbox.cif.g08.bks.cpg/sg15_10_cif.got.tgz:18315.got - 2010.06.03 18:47:42.
