data_PCOD9268482
_publ_section_title
;
Structure prediction by ZEFSAII (Michael W. Deem and Ramdas Pophale) SiO2 
 PCOD9268482
Probable space group: C 2/C
;
_chemical_formula_sum "Si O2"
_cell_formula_units_Z 60
_cell_length_a 33.334145
_cell_length_b 19.279730
_cell_length_c 5.252702
_cell_angle_alpha 90.000000
_cell_angle_beta 64.776057
_cell_angle_gamma 90.000000
_cell_volume 3053.888388
_symmetry_space_group_name_H-M "C 2/C"
_symmetry_group_IT_number 15
_symmetry_cell_setting 'monoclinic'
loop_
_space_group_symop_operation_xyz
x,y,z
-x,y,1/2-z
-x,-y,-z
x,-y,1/2+z
1/2+x,1/2+y,z
1/2-x,1/2+y,1/2-z
1/2-x,1/2-y,-z
1/2+x,1/2-y,1/2+z
loop_
_atom_site_type_symbol
_atom_site_label
_atom_site_fract_x
_atom_site_fract_y
_atom_site_fract_z
Si Si1 0.000000 0.547840 0.250000
Si Si2 0.458277 0.848173 0.181874
Si Si3 0.801882 0.721565 0.660699
Si Si4 0.047568 0.207987 0.593835
Si Si5 0.106579 0.711324 0.318155
Si Si6 0.547736 0.453554 0.561896
Si Si7 0.618660 0.647312 0.077482
Si Si8 0.709769 0.687096 0.808691
O O1 0.960920 0.602108 0.429836
O O2 0.000000 0.500000 0.500000
O O3 0.500000 0.863850 0.250000
O O4 0.413173 0.850948 0.463643
O O5 0.461637 0.768132 0.088116
O O6 0.851351 0.694828 0.470802
O O7 0.761206 0.668977 0.722370
O O8 0.793320 0.781857 0.469560
O O9 0.798903 0.754170 0.949764
O O10 0.066341 0.253784 0.772357
O O11 0.087522 0.157477 0.407847
O O12 0.000000 0.172093 0.750000
O O13 0.121011 0.774963 0.458859
O O14 0.500000 0.417857 0.750000
O O15 0.549283 0.489025 0.282533
O O16 0.589282 0.402903 0.484677
O O17 0.670660 0.631041 0.961075
#
# Coordination Sequence:
#
# PCOD9268482 Si02
#       8
#     4   8   8   8   8   8   8   8
#     4  12  24  38  58  76 102 148 192 222 258 308
#     4  11  20  36  50  77 113 143 178 225 264 321
#     4   9  17  31  48  75 110 140 166 209 274 332
#     4  11  20  29  50  76 115 143 176 225 273 332
#     4  10  20  32  51  81 112 146 176 221 285 342
#     4  10  24  40  53  71 104 145 188 241 282 325
#     4  10  22  32  53  78 102 144 191 223 285 346
#     4   9  17  31  50  74 106 136 173 218 260 340
#
# _framework density 19.647085000000001
#
# number of rings (size 3 to 8) (size 9 to 14) (size 15 to 20)
#    0.000    1.867    4.000    0.000    3.733    0.533 
#    0.000    0.000    0.000    0.000    0.000    1.867 
#    0.000    0.000    0.000    0.000    0.000    0.000 
#
# Total GULP energy -167052.291038 kJ/mol
# GULP energy per Si atom -5568.409701 kJ/mol
# Density = 1.960237 g / cm^3
# Si number density = 19.647085 Si / 1000 Ang^3
#
#
#
# Elastic Constant Matrix: (Units=GPa)
#
#
# Indices 1 2 3 4 5 6 
#
# 1 94.0045 8.1188 29.8625 0.0000 -18.8420 0.0000
# 2 8.1188 32.2236 19.7782 0.0000 -1.5000 0.0000
# 3 29.8625 19.7782 108.3242 0.0000 -7.7365 0.0000
# 4 0.0000 0.0000 0.0000 27.5350 0.0000 9.1308
# 5 -18.8420 -1.5000 -7.7365 0.0000 50.6162 0.0000
# 6 0.0000 0.0000 0.0000 9.1308 0.0000 23.9975
#
#
#
# Elastic Compliance Matrix: (Units=1/GPa)
#
#
# Indices 1 2 3 4 5 6 
#
# 1 0.012507 -0.001153 -0.002940 0.000000 0.004172 0.000000
# 2 -0.001153 0.035056 -0.006106 0.000000 -0.000324 0.000000
# 3 -0.002940 -0.006106 0.011188 0.000000 0.000435 0.000000
# 4 0.000000 0.000000 0.000000 0.041561 0.000000 -0.015814
# 5 0.004172 -0.000324 0.000435 0.000000 0.021367 0.000000
# 6 0.000000 0.000000 0.000000 -0.015814 0.000000 0.047688
#
#
# Mechanical properties :
#
#
# Convention : Reuss Voigt Hill
#
# Bulk Modulus (GPa) = 26.07234 38.89682 32.48458
# Shear Modulus (GPa) = 24.68536 32.21594 28.45065
#
# Velocity S-wave (km/s) = 3.54847 4.05375 3.80950
# Velocity P-wave (km/s) = 5.48526 6.46152 5.99330
#
# Compressibility (1/GPa) = 0.03835483
#
# Stress axis : x y z
#
# Youngs Moduli (GPa) = 79.95213 28.52558 89.38295
#
# Poissons Ratio (x) = 0.03289 0.26274
# Poissons Ratio (y) = 0.09217 0.54577
# Poissons Ratio (z) = 0.23502 0.17418
#
# Static dielectric constant tensor:
#      x y z
#    x 1.795420 0.000000 -0.031010 
#    y 0.000000 1.702330 0.000000 
#    z -0.031010 0.000000 1.831760 
# 
# From -- ./inp_files/18586.got.cif
#   From: 2010.05.17/outbox.cif.g08.bks.cpg/sg15_10_cif.got.tgz:18586.got - 2010.06.03 18:47:42.
