data_PCOD9268508
_publ_section_title
;
Structure prediction by ZEFSAII (Michael W. Deem and Ramdas Pophale) SiO2 
 PCOD9268508
Probable space group: C 2/C
;
_chemical_formula_sum "Si O2"
_cell_formula_units_Z 64
_cell_length_a 22.586320
_cell_length_b 25.624840
_cell_length_c 7.973886
_cell_angle_alpha 90.000000
_cell_angle_beta 120.627377
_cell_angle_gamma 90.000000
_cell_volume 3971.246817
_symmetry_space_group_name_H-M "C 2/C"
_symmetry_group_IT_number 15
_symmetry_cell_setting 'monoclinic'
loop_
_space_group_symop_operation_xyz
x,y,z
-x,y,1/2-z
-x,-y,-z
x,-y,1/2+z
1/2+x,1/2+y,z
1/2-x,1/2+y,1/2-z
1/2-x,1/2-y,-z
1/2+x,1/2-y,1/2+z
loop_
_atom_site_type_symbol
_atom_site_label
_atom_site_fract_x
_atom_site_fract_y
_atom_site_fract_z
Si Si1 0.163921 0.006953 0.198458
Si Si2 0.923217 0.940875 0.206453
Si Si3 0.425025 0.651730 0.209452
Si Si4 0.792735 0.918026 0.451679
Si Si5 0.170820 0.265216 0.913703
Si Si6 0.347628 0.247932 0.487032
Si Si7 0.075942 0.172072 0.894746
Si Si8 0.293498 0.816876 0.209381
O O1 0.094726 0.979164 0.168616
O O2 0.203038 0.044301 0.382069
O O3 0.208995 0.958022 0.204815
O O4 0.136084 0.042190 0.008404
O O5 0.916081 0.878536 0.213498
O O6 0.000000 0.949194 0.250000
O O7 0.500000 0.636439 0.250000
O O8 0.365816 0.612588 0.061095
O O9 0.421580 0.653718 0.407669
O O10 0.405442 0.709347 0.114269
O O11 0.733744 0.874914 0.363059
O O12 0.142729 0.275238 0.685553
O O13 0.132030 0.215140 0.934353
O O14 0.250000 0.250000 0.000000
O O15 0.170332 0.308852 0.058168
O O16 0.338594 0.205881 0.621798
O O17 0.275896 0.281023 0.384408
O O18 0.000000 0.193917 0.750000
#
# Coordination Sequence:
#
# PCOD9268508 Si02
#       8
#     8   8   8   8   8   8   8   8
#     4  10  21  35  44  63  91 123 176 225 268 289
#     4  10  21  31  46  61  87 129 173 217 255 298
#     4  11  21  33  50  70 102 141 176 213 257 305
#     4  10  22  35  50  67  95 132 174 221 264 300
#     4  10  20  32  53  76  96 129 170 212 259 321
#     4   9  18  32  50  73  97 123 165 209 253 307
#     4  11  22  34  48  74 103 135 176 218 259 311
#     4   9  18  34  51  71  94 125 166 209 256 316
#
# _framework density 16.115846000000001
#
# number of rings (size 3 to 8) (size 9 to 14) (size 15 to 20)
#    0.000    2.000    2.500    1.125   10.500    2.000 
#    2.250    0.000    0.000    0.000    0.000    0.000 
#    0.000    0.000    0.000    3.375    0.500    0.000 
#
# Total GULP energy -178350.531645 kJ/mol
# GULP energy per Si atom -5573.454114 kJ/mol
# Density = 1.607917 g / cm^3
# Si number density = 16.115846 Si / 1000 Ang^3
#
#
#
# Elastic Constant Matrix: (Units=GPa)
#
#
# Indices 1 2 3 4 5 6 
#
# 1 37.7282 32.3955 12.9785 0.0000 -8.2912 0.0000
# 2 32.3955 93.6085 34.3026 0.0000 -3.1520 0.0000
# 3 12.9785 34.3026 59.4102 0.0000 -15.0855 0.0000
# 4 0.0000 0.0000 0.0000 18.0941 0.0000 -7.3192
# 5 -8.2912 -3.1520 -15.0855 0.0000 19.5051 0.0000
# 6 0.0000 0.0000 0.0000 -7.3192 0.0000 -5.5879
#
#
#
# Elastic Compliance Matrix: (Units=1/GPa)
#
#
# Indices 1 2 3 4 5 6 
#
# 1 0.042742 -0.015871 0.004715 0.000000 0.019250 0.000000
# 2 -0.015871 0.019815 -0.011042 0.000000 -0.012085 0.000000
# 3 0.004715 -0.011042 0.027667 0.000000 0.021618 0.000000
# 4 0.000000 0.000000 0.000000 0.036126 0.000000 -0.047319
# 5 0.019250 -0.012085 0.021618 0.000000 0.074218 0.000000
# 6 0.000000 0.000000 0.000000 -0.047319 0.000000 -0.116979
#
#
# Mechanical properties :
#
#
# Convention : Reuss Voigt Hill
#
# Bulk Modulus (GPa) = 21.82157 38.90001 30.36079
# Shear Modulus (GPa) = 34.90095 13.80695 24.35395
#
# Velocity S-wave (km/s) = 4.65868 2.93017 3.89161
# Velocity P-wave (km/s) = 6.51978 5.96976 6.25082
#
# Compressibility (1/GPa) = 0.04582621
#
# Stress axis : x y z
#
# Youngs Moduli (GPa) = 23.39618 50.46700 36.14420
#
# Poissons Ratio (x) = 0.80098 -0.17041
# Poissons Ratio (y) = 0.37133 0.39911
# Poissons Ratio (z) = -0.11031 0.55727
#
# Static dielectric constant tensor:
#      x y z
#    x 1.550980 0.000000 -0.063770 
#    y 0.000000 1.533370 0.000000 
#    z -0.063770 0.000000 1.646180 
# 
# From -- ./inp_files/58330.got.cif
#   From: 2010.05.17/outbox.cif.g08.bks.cpg/sg15_30_cif.got.tgz:58330.got - 2010.06.03 18:47:42.
