data_PCOD9268796
_publ_section_title
;
Structure prediction by ZEFSAII (Michael W. Deem and Ramdas Pophale) SiO2 
 PCOD9268796
Probable space group: C 2/C
;
_chemical_formula_sum "Si O2"
_cell_formula_units_Z 48
_cell_length_a 11.535857
_cell_length_b 20.591160
_cell_length_c 12.365909
_cell_angle_alpha 90.000000
_cell_angle_beta 141.526552
_cell_angle_gamma 90.000000
_cell_volume 1827.482179
_symmetry_space_group_name_H-M "C 2/C"
_symmetry_group_IT_number 15
_symmetry_cell_setting 'monoclinic'
loop_
_space_group_symop_operation_xyz
x,y,z
-x,y,1/2-z
-x,-y,-z
x,-y,1/2+z
1/2+x,1/2+y,z
1/2-x,1/2+y,1/2-z
1/2-x,1/2-y,-z
1/2+x,1/2-y,1/2+z
loop_
_atom_site_type_symbol
_atom_site_label
_atom_site_fract_x
_atom_site_fract_y
_atom_site_fract_z
Si Si1 0.962242 0.409312 0.992670
Si Si2 0.900944 0.199096 0.574173
Si Si3 0.331348 0.766329 0.900070
Si Si4 0.460130 0.347454 0.601157
Si Si5 0.346585 0.576246 0.413458
Si Si6 0.347622 0.975696 0.550687
O O1 0.794118 0.431845 0.788834
O O2 0.138319 0.430980 0.047027
O O3 0.945238 0.333420 0.007549
O O4 0.920162 0.454030 0.065032
O O5 0.750000 0.250000 0.500000
O O6 0.795198 0.143581 0.433343
O O7 0.000000 0.168939 0.750000
O O8 0.059850 0.233316 0.619533
O O9 0.301030 0.705061 0.959690
O O10 0.133865 0.796375 0.721573
O O11 0.500000 0.374778 0.750000
O O12 0.465939 0.401921 0.512586
O O13 0.334942 0.527425 0.505949
O O14 0.500000 0.952110 0.750000
#
# Coordination Sequence:
#
# PCOD9268796 Si02
#       6
#     8   8   8   8   8   8
#     4   9  17  31  53  81 116 149 187 244 295 348
#     4  11  20  33  57  90 125 155 188 235 295 367
#     4  10  20  33  52  82 113 148 186 230 296 357
#     4  10  20  35  54  78 112 150 191 239 292 352
#     4   9  19  33  53  77 107 147 189 235 294 347
#     4   9  17  31  53  82 111 148 198 246 293 348
#
# _framework density 26.265647999999999
#
# number of rings (size 3 to 8) (size 9 to 14) (size 15 to 20)
#    0.000    2.333    0.000    4.500    0.000    3.333 
#    0.000    0.000    0.000   21.000    0.000    0.000 
#    0.000    0.000    0.000    0.000    0.000    2.167 
#
# Total GULP energy -133815.642301 kJ/mol
# GULP energy per Si atom -5575.651763 kJ/mol
# Density = 2.620587 g / cm^3
# Si number density = 26.265648 Si / 1000 Ang^3
#
#
#
# Elastic Constant Matrix: (Units=GPa)
#
#
# Indices 1 2 3 4 5 6 
#
# 1 99.9596 54.8426 12.8987 0.0000 -40.9820 0.0000
# 2 54.8426 116.2982 5.2254 0.0000 -22.3952 0.0000
# 3 12.8987 5.2254 53.6585 0.0000 -21.1957 0.0000
# 4 0.0000 0.0000 0.0000 32.2196 0.0000 -11.2397
# 5 -40.9820 -22.3952 -21.1957 0.0000 41.5594 0.0000
# 6 0.0000 0.0000 0.0000 -11.2397 0.0000 54.0946
#
#
#
# Elastic Compliance Matrix: (Units=1/GPa)
#
#
# Indices 1 2 3 4 5 6 
#
# 1 0.020666 -0.006320 0.002946 0.000000 0.018476 0.000000
# 2 -0.006320 0.011610 0.000499 0.000000 0.000278 0.000000
# 3 0.002946 0.000499 0.023960 0.000000 0.015394 0.000000
# 4 0.000000 0.000000 0.000000 0.033463 0.000000 0.006953
# 5 0.018476 0.000278 0.015394 0.000000 0.050282 0.000000
# 6 0.000000 0.000000 0.000000 0.006953 0.000000 0.019931
#
#
# Mechanical properties :
#
#
# Convention : Reuss Voigt Hill
#
# Bulk Modulus (GPa) = 19.80775 46.20550 33.00662
# Shear Modulus (GPa) = 27.39847 38.70467 33.05157
#
# Velocity S-wave (km/s) = 3.23326 3.84290 3.55118
# Velocity P-wave (km/s) = 4.63641 6.10903 5.42294
#
# Compressibility (1/GPa) = 0.05048530
#
# Stress axis : x y z
#
# Youngs Moduli (GPa) = 48.38806 86.13157 41.73565
#
# Poissons Ratio (x) = 0.54436 -0.12294
# Poissons Ratio (y) = 0.30582 -0.02081
# Poissons Ratio (z) = -0.14254 -0.04294
#
# Static dielectric constant tensor:
#      x y z
#    x 2.366760 0.000000 0.052590 
#    y 0.000000 2.087590 0.000000 
#    z 0.052590 0.000000 2.155630 
# 
# From -- ./inp_files/90997.got.cif
#   From: 2010.05.17/outbox.cif.g08.bks.cpg/sg15_46_cif.got.tgz:90997.got - 2010.06.03 18:47:42.
