data_PCOD9268293
_publ_section_title
;
Structure prediction by ZEFSAII (Michael W. Deem and Ramdas Pophale) SiO2 
 PCOD9268293
Probable space group: C 2/C
;
_chemical_formula_sum "Si O2"
_cell_formula_units_Z 52
_cell_length_a 27.322818
_cell_length_b 20.176338
_cell_length_c 9.128693
_cell_angle_alpha 90.000000
_cell_angle_beta 147.451720
_cell_angle_gamma 90.000000
_cell_volume 2707.490006
_symmetry_space_group_name_H-M "C 2/C"
_symmetry_group_IT_number 15
_symmetry_cell_setting 'monoclinic'
loop_
_space_group_symop_operation_xyz
x,y,z
-x,y,1/2-z
-x,-y,-z
x,-y,1/2+z
1/2+x,1/2+y,z
1/2-x,1/2+y,1/2-z
1/2-x,1/2-y,-z
1/2+x,1/2-y,1/2+z
loop_
_atom_site_type_symbol
_atom_site_label
_atom_site_fract_x
_atom_site_fract_y
_atom_site_fract_z
Si Si1 0.084071 0.162208 0.574580
Si Si2 0.047746 0.313983 0.528391
Si Si3 0.774514 0.405002 0.492718
Si Si4 0.913410 0.412156 0.294512
Si Si5 0.256210 0.027590 0.260174
Si Si6 0.051885 0.052606 0.732340
Si Si7 0.000000 0.499646 0.250000
O O1 0.080117 0.238226 0.617501
O O2 0.181363 0.138348 0.752773
O O3 0.067476 0.116475 0.672527
O O4 0.000000 0.152409 0.250000
O O5 0.969042 0.343518 0.435845
O O6 0.136534 0.359757 0.766469
O O7 0.000000 0.319610 0.250000
O O8 0.789649 0.455472 0.396582
O O9 0.767047 0.450932 0.619148
O O10 0.955119 0.453894 0.261508
O O11 0.933237 0.453083 0.490550
O O12 0.807648 0.416078 0.985951
O O13 0.149808 0.024935 0.023792
O O14 0.000000 0.066854 0.750000
O O15 0.000000 0.000000 0.500000
#
# Coordination Sequence:
#
# PCOD9268293 Si02
#       7
#     8   8   8   8   8   8   4
#     4  10  23  40  61  85 116 164 207 245 295 353
#     4  11  21  37  58  83 124 166 197 237 288 376
#     4  11  21  37  59  91 119 155 201 247 303 358
#     4  11  19  35  52  87 119 155 192 243 299 364
#     4  11  21  33  60  89 117 146 196 251 310 344
#     4  11  22  40  64  88 116 148 201 262 307 345
#     4  10  20  30  54  80 120 154 192 236 296 348
#
# _framework density 19.205981000000001
#
# number of rings (size 3 to 8) (size 9 to 14) (size 15 to 20)
#    0.000    1.231    2.308    6.462    0.000    0.000 
#    1.385    0.000    0.000    0.923    0.000    0.000 
#    0.000    0.000    0.000    0.000    0.000    0.000 
#
# Total GULP energy -145145.137426 kJ/mol
# GULP energy per Si atom -5582.505286 kJ/mol
# Density = 1.916227 g / cm^3
# Si number density = 19.205981 Si / 1000 Ang^3
#
#
#
# Elastic Constant Matrix: (Units=GPa)
#
#
# Indices 1 2 3 4 5 6 
#
# 1 54.5851 27.2907 28.2735 0.0000 6.4489 0.0000
# 2 27.2907 127.6935 40.9623 0.0000 10.3949 0.0000
# 3 28.2735 40.9623 115.1034 0.0000 20.8466 0.0000
# 4 0.0000 0.0000 0.0000 38.2160 0.0000 4.0277
# 5 6.4489 10.3949 20.8466 0.0000 34.0882 0.0000
# 6 0.0000 0.0000 0.0000 4.0277 0.0000 21.7623
#
#
#
# Elastic Compliance Matrix: (Units=1/GPa)
#
#
# Indices 1 2 3 4 5 6 
#
# 1 0.022227 -0.003368 -0.004144 0.000000 -0.000643 0.000000
# 2 -0.003368 0.009374 -0.002369 0.000000 -0.000773 0.000000
# 3 -0.004144 -0.002369 0.011556 0.000000 -0.005561 0.000000
# 4 0.000000 0.000000 0.000000 0.026688 0.000000 -0.004939
# 5 -0.000643 -0.000773 -0.005561 0.000000 0.033094 0.000000
# 6 0.000000 0.000000 0.000000 -0.004939 0.000000 0.046865
#
#
# Mechanical properties :
#
#
# Convention : Reuss Voigt Hill
#
# Bulk Modulus (GPa) = 42.74671 54.49278 48.61974
# Shear Modulus (GPa) = 28.19064 32.20366 30.19715
#
# Velocity S-wave (km/s) = 3.83535 4.09926 3.96950
# Velocity P-wave (km/s) = 6.47445 7.13019 6.81022
#
# Compressibility (1/GPa) = 0.02339362
#
# Stress axis : x y z
#
# Youngs Moduli (GPa) = 44.99063 106.67956 86.53617
#
# Poissons Ratio (x) = 0.35935 0.35864
# Poissons Ratio (y) = 0.15155 0.20496
# Poissons Ratio (z) = 0.18646 0.25267
#
# Static dielectric constant tensor:
#      x y z
#    x 1.661270 0.000000 0.024700 
#    y 0.000000 1.672550 0.000000 
#    z 0.024700 0.000000 1.707320 
# 
# From -- ./inp_files/70814.got.cif
#   From: 2010.05.17/outbox.cif.g08.bks.cpg/sg15_36_cif.got.tgz:70814.got - 2010.06.03 18:47:42.
