data_PCOD9268722
_publ_section_title
;
Structure prediction by ZEFSAII (Michael W. Deem and Ramdas Pophale) SiO2 
 PCOD9268722
Probable space group: C 2/C
;
_chemical_formula_sum "Si O2"
_cell_formula_units_Z 40
_cell_length_a 12.161976
_cell_length_b 28.002111
_cell_length_c 5.271973
_cell_angle_alpha 90.000000
_cell_angle_beta 91.866661
_cell_angle_gamma 90.000000
_cell_volume 1794.475643
_symmetry_space_group_name_H-M "C 2/C"
_symmetry_group_IT_number 15
_symmetry_cell_setting 'monoclinic'
loop_
_space_group_symop_operation_xyz
x,y,z
-x,y,1/2-z
-x,-y,-z
x,-y,1/2+z
1/2+x,1/2+y,z
1/2-x,1/2+y,1/2-z
1/2-x,1/2-y,-z
1/2+x,1/2-y,1/2+z
loop_
_atom_site_type_symbol
_atom_site_label
_atom_site_fract_x
_atom_site_fract_y
_atom_site_fract_z
Si Si1 0.680144 0.398914 0.875637
Si Si2 0.171646 0.482430 0.618792
Si Si3 0.609658 0.450915 0.371201
Si Si4 0.720713 0.291205 0.784762
Si Si5 0.431693 0.777440 0.485710
O O1 0.796342 0.427293 0.858119
O O2 0.612411 0.419718 0.628745
O O3 0.695286 0.342756 0.890776
O O4 0.632934 0.415569 0.139762
O O5 0.115011 0.496241 0.357051
O O6 0.288971 0.512040 0.604451
O O7 0.500000 0.476118 0.250000
O O8 0.614172 0.271887 0.630652
O O9 0.817868 0.299493 0.584937
O O10 0.750000 0.250000 0.000000
O O11 0.500000 0.772651 0.750000
O O12 0.500000 0.799198 0.250000
#
# Coordination Sequence:
#
# PCOD9268722 Si02
#       5
#     8   8   8   8   8
#     4  10  22  33  51  76 108 150 195 232 286 342
#     4   8  16  31  47  69 105 145 186 227 277 344
#     4  10  20  33  50  78 116 155 193 237 287 356
#     4  11  25  42  63  88 124 159 206 267 307 359
#     4  11  24  43  64  85 115 161 201 252 317 367
#
# _framework density 22.290635999999999
#
# number of rings (size 3 to 8) (size 9 to 14) (size 15 to 20)
#    0.000    2.000    2.000    0.600    5.600    9.600 
#    0.000    0.000    0.000    0.000    0.000    0.000 
#    0.000   43.200    0.000    0.000    0.000    0.000 
#
# Total GULP energy -111453.242920 kJ/mol
# GULP energy per Si atom -5572.662146 kJ/mol
# Density = 2.223990 g / cm^3
# Si number density = 22.290636 Si / 1000 Ang^3
#
#
#
# Elastic Constant Matrix: (Units=GPa)
#
#
# Indices 1 2 3 4 5 6 
#
# 1 82.3074 -9.0233 27.2376 0.0000 1.5208 0.0000
# 2 -9.0233 102.9041 27.8762 0.0000 8.5194 0.0000
# 3 27.2376 27.8762 185.1811 0.0000 1.1895 0.0000
# 4 0.0000 0.0000 0.0000 30.4088 0.0000 1.3537
# 5 1.5208 8.5194 1.1895 0.0000 36.1688 0.0000
# 6 0.0000 0.0000 0.0000 1.3537 0.0000 -1.1285
#
#
#
# Elastic Compliance Matrix: (Units=1/GPa)
#
#
# Indices 1 2 3 4 5 6 
#
# 1 0.013091 0.001817 -0.002193 0.000000 -0.000906 0.000000
# 2 0.001817 0.010584 -0.001844 0.000000 -0.002509 0.000000
# 3 -0.002193 -0.001844 0.005998 0.000000 0.000329 0.000000
# 4 0.000000 0.000000 0.000000 0.031218 0.000000 0.037447
# 5 -0.000906 -0.002509 0.000329 0.000000 0.028266 0.000000
# 6 0.000000 0.000000 0.000000 0.037447 0.000000 -0.841183
#
#
# Mechanical properties :
#
#
# Convention : Reuss Voigt Hill
#
# Bulk Modulus (GPa) = 39.63095 51.39706 45.51401
# Shear Modulus (GPa) = -6.76433 34.70994 13.97281
#
# Velocity S-wave (km/s) = -1.74390 3.95036 2.50641
# Velocity P-wave (km/s) = 3.70983 6.62683 5.37018
#
# Compressibility (1/GPa) = 0.02523280
#
# Stress axis : x y z
#
# Youngs Moduli (GPa) = 76.38636 94.47781 166.71486
#
# Poissons Ratio (x) = -0.17168 0.36565
# Poissons Ratio (y) = -0.13880 0.30750
# Poissons Ratio (z) = 0.16754 0.17426
#
# Static dielectric constant tensor:
#      x y z
#    x 1.970260 0.000000 -0.033850 
#    y 0.000000 1.786800 0.000000 
#    z -0.033850 0.000000 1.938440 
# 
# From -- ./inp_files/5015.got.cif
#   From: 2010.05.17/outbox.cif.g08.bks.cpg/sg15_3_cif.got.tgz:5015.got - 2010.06.03 18:47:42.
