data_PCOD9268797
_publ_section_title
;
Structure prediction by ZEFSAII (Michael W. Deem and Ramdas Pophale) SiO2 
 PCOD9268797
Probable space group: C 2/C
;
_chemical_formula_sum "Si O2"
_cell_formula_units_Z 32
_cell_length_a 14.389065
_cell_length_b 9.667517
_cell_length_c 8.296891
_cell_angle_alpha 90.000000
_cell_angle_beta 74.712136
_cell_angle_gamma 90.000000
_cell_volume 1113.310087
_symmetry_space_group_name_H-M "C 2/C"
_symmetry_group_IT_number 15
_symmetry_cell_setting 'monoclinic'
loop_
_space_group_symop_operation_xyz
x,y,z
-x,y,1/2-z
-x,-y,-z
x,-y,1/2+z
1/2+x,1/2+y,z
1/2-x,1/2+y,1/2-z
1/2-x,1/2-y,-z
1/2+x,1/2-y,1/2+z
loop_
_atom_site_type_symbol
_atom_site_label
_atom_site_fract_x
_atom_site_fract_y
_atom_site_fract_z
Si Si1 0.901653 0.176058 0.994723
Si Si2 0.646870 0.873742 0.057384
Si Si3 0.215460 0.798928 0.252632
Si Si4 0.000000 0.145684 0.250000
Si Si5 0.500000 0.894420 0.750000
O O1 0.144310 0.131531 0.655689
O O2 0.984188 0.283955 0.902566
O O3 0.947950 0.085042 0.115468
O O4 0.812047 0.259225 0.112536
O O5 0.746048 0.886094 0.113393
O O6 0.586267 0.741204 0.143459
O O7 0.580550 0.999242 0.144663
O O8 0.674688 0.840847 0.859074
#
# Coordination Sequence:
#
# PCOD9268797 Si02
#       5
#     8   8   8   4   4
#     4  10  20  33  52  82 119 158 192 240 297 355
#     4   9  19  34  51  78 118 156 188 242 300 354
#     4   9  19  34  48  71 124 165 184 221 310 374
#     4   9  18  30  48  74 106 143 194 235 276 332
#     4  11  22  36  62  94 120 145 198 255 298 336
#
# _framework density 28.743115
#
# number of rings (size 3 to 8) (size 9 to 14) (size 15 to 20)
#    0.000    2.500    0.000    1.500    0.000   16.000 
#    0.000    2.500    0.000    0.000    0.000    0.000 
#    0.000 1012.000    0.000    0.000    0.000    0.000 
#
# Total GULP energy -89195.054067 kJ/mol
# GULP energy per Si atom -5574.690879 kJ/mol
# Density = 2.867769 g / cm^3
# Si number density = 28.743115 Si / 1000 Ang^3
#
#
#
# Elastic Constant Matrix: (Units=GPa)
#
#
# Indices 1 2 3 4 5 6 
#
# 1 203.8452 20.3043 81.5059 0.0000 40.8837 0.0000
# 2 20.3043 64.5714 85.3878 0.0000 2.6402 0.0000
# 3 81.5059 85.3878 213.9517 0.0000 10.3679 0.0000
# 4 0.0000 0.0000 0.0000 55.0075 0.0000 -7.5934
# 5 40.8837 2.6402 10.3679 0.0000 55.1474 0.0000
# 6 0.0000 0.0000 0.0000 -7.5934 0.0000 -11.3898
#
#
#
# Elastic Compliance Matrix: (Units=1/GPa)
#
#
# Indices 1 2 3 4 5 6 
#
# 1 0.006959 0.002562 -0.003449 0.000000 -0.004633 0.000000
# 2 0.002562 0.033782 -0.014419 0.000000 -0.000806 0.000000
# 3 -0.003449 -0.014419 0.011692 0.000000 0.001049 0.000000
# 4 0.000000 0.000000 0.000000 0.016647 0.000000 -0.011098
# 5 -0.004633 -0.000806 0.001049 0.000000 0.021409 0.000000
# 6 0.000000 0.000000 0.000000 -0.011098 0.000000 -0.080399
#
#
# Mechanical properties :
#
#
# Convention : Reuss Voigt Hill
#
# Bulk Modulus (GPa) = 45.82941 95.19603 70.51272
# Shear Modulus (GPa) = 104.21918 39.43105 71.82511
#
# Velocity S-wave (km/s) = 6.02806 3.70786 5.00429
# Velocity P-wave (km/s) = 8.02678 7.17791 7.61418
#
# Compressibility (1/GPa) = 0.02182005
#
# Stress axis : x y z
#
# Youngs Moduli (GPa) = 143.70353 29.60176 85.53042
#
# Poissons Ratio (x) = -0.07585 0.29500
# Poissons Ratio (y) = -0.36819 1.23329
# Poissons Ratio (z) = 0.49564 0.42684
#
# Static dielectric constant tensor:
#      x y z
#    x 2.458190 0.000000 0.115550 
#    y 0.000000 2.182220 0.000000 
#    z 0.115550 0.000000 2.189340 
# 
# From -- ./inp_files/103147.got.cif
#   From: 2010.05.17/outbox.cif.g08.bks.cpg/sg15_52_cif.got.tgz:103147.got - 2010.06.03 18:47:42.
