data_PCOD9268203
_publ_section_title
;
Structure prediction by ZEFSAII (Michael W. Deem and Ramdas Pophale) SiO2 
 PCOD9268203
Probable space group: C 2/C
;
_chemical_formula_sum "Si O2"
_cell_formula_units_Z 56
_cell_length_a 27.406087
_cell_length_b 15.098514
_cell_length_c 18.713548
_cell_angle_alpha 90.000000
_cell_angle_beta 16.755040
_cell_angle_gamma 90.000000
_cell_volume 2232.300411
_symmetry_space_group_name_H-M "C 2/C"
_symmetry_group_IT_number 15
_symmetry_cell_setting 'monoclinic'
loop_
_space_group_symop_operation_xyz
x,y,z
-x,y,1/2-z
-x,-y,-z
x,-y,1/2+z
1/2+x,1/2+y,z
1/2-x,1/2+y,1/2-z
1/2-x,1/2-y,-z
1/2+x,1/2-y,1/2+z
loop_
_atom_site_type_symbol
_atom_site_label
_atom_site_fract_x
_atom_site_fract_y
_atom_site_fract_z
Si Si1 0.258123 0.962550 0.817062
Si Si2 0.500000 0.397116 0.750000
Si Si3 0.803788 0.891633 0.900114
Si Si4 0.000000 0.351543 0.750000
Si Si5 0.385751 0.719254 0.160118
Si Si6 0.996241 0.802378 0.352513
Si Si7 0.288062 0.923137 0.924746
Si Si8 0.550718 0.157352 0.551373
O O1 0.365020 0.942371 0.739316
O O2 0.366259 0.934953 0.595550
O O3 0.119439 0.885150 0.004668
O O4 0.147289 0.049128 0.996651
O O5 0.602155 0.342195 0.666299
O O6 0.606877 0.867971 0.177951
O O7 0.824599 0.992126 0.896635
O O8 0.883206 0.867315 0.713886
O O9 0.922576 0.282757 0.915928
O O10 0.104134 0.411886 0.656285
O O11 0.461925 0.793036 0.107555
O O12 0.198774 0.714389 0.383234
O O13 0.503645 0.713135 0.926106
O O14 0.179430 0.834143 0.070465
#
# Coordination Sequence:
#
# PCOD9268203 Si02
#       8
#     8   4   8   4   8   8   8   8
#     4  10  19  44  67 101 132 176 223 281 342 410
#     4  10  21  42  74  99 140 184 224 282 365 410
#     4  11  25  46  68  99 142 186 233 284 339 416
#     4  12  23  34  70  95 140 170 224 278 351 416
#     4  11  27  44  72 101 138 184 237 291 343 405
#     4  11  21  41  66  96 132 173 222 284 337 415
#     4  11  23  39  66  99 137 175 221 280 356 411
#     4  11  26  45  74  99 142 181 243 287 342 405
#
# _framework density 25.08623
#
# number of rings (size 3 to 8) (size 9 to 14) (size 15 to 20)
#    0.000    1.143    4.286    2.143    8.000    2.857 
#    0.000    0.000    0.000    0.000    0.000    0.000 
#    0.000    0.000    0.000    0.000    0.000    0.000 
#
# Total GULP energy -156094.584611 kJ/mol
# GULP energy per Si atom -5574.806593 kJ/mol
# Density = 2.502913 g / cm^3
# Si number density = 25.086230 Si / 1000 Ang^3
#
#
#
# Elastic Constant Matrix: (Units=GPa)
#
#
# Indices 1 2 3 4 5 6 
#
# 1 148.3982 2.3808 11.2023 0.0002 -5.6709 -0.0001
# 2 2.3808 52.2330 14.1135 -0.0025 4.8134 0.0017
# 3 11.2023 14.1135 34.0707 -0.0038 -8.1865 0.0017
# 4 0.0002 -0.0025 -0.0038 41.3038 0.0002 -16.2884
# 5 -5.6709 4.8134 -8.1865 0.0002 50.5776 -0.0002
# 6 -0.0001 0.0017 0.0017 -16.2884 -0.0002 59.7269
#
#
#
# Elastic Compliance Matrix: (Units=1/GPa)
#
#
# Indices 1 2 3 4 5 6 
#
# 1 0.006922 0.000270 -0.002297 0.000000 0.000379 0.000000
# 2 0.000270 0.022232 -0.010196 0.000000 -0.003736 0.000000
# 3 -0.002297 -0.010196 0.035897 0.000003 0.006523 0.000000
# 4 0.000000 0.000000 0.000003 0.027128 0.000000 0.007398
# 5 0.000379 -0.003736 0.006523 0.000000 0.021225 0.000000
# 6 0.000000 0.000000 0.000000 0.007398 0.000000 0.018760
#
#
# Mechanical properties :
#
#
# Convention : Reuss Voigt Hill
#
# Bulk Modulus (GPa) = 24.62705 32.23279 28.42992
# Shear Modulus (GPa) = 29.38660 44.12203 36.75431
#
# Velocity S-wave (km/s) = 3.42632 4.19837 3.83184
# Velocity P-wave (km/s) = 5.04888 6.03146 5.56191
#
# Compressibility (1/GPa) = 0.04060575
#
# Stress axis : x y z
#
# Youngs Moduli (GPa) = 144.46381 44.98043 27.85759
#
# Poissons Ratio (x) = -0.01216 0.06399
# Poissons Ratio (y) = -0.03904 0.28403
# Poissons Ratio (z) = 0.33182 0.45862
#
# Static dielectric constant tensor:
#      x y z
#    x 2.010720 0.000000 -0.029000 
#    y 0.000000 2.034460 0.000000 
#    z -0.029000 0.000000 2.054790 
# 
# From -- ./inp_files/222948.got.cif
#   From: 2010.05.17/outbox.cif.g08.bks.cpg/sg15_112_cif.got.tgz:222948.got - 2010.06.03 18:47:42.
