data_PCOD9268038
_publ_section_title
;
Structure prediction by ZEFSAII (Michael W. Deem and Ramdas Pophale) SiO2 
 PCOD9268038
Probable space group: C 2/C
;
_chemical_formula_sum "Si O2"
_cell_formula_units_Z 44
_cell_length_a 18.822058
_cell_length_b 9.150258
_cell_length_c 13.652629
_cell_angle_alpha 90.000000
_cell_angle_beta 60.185085
_cell_angle_gamma 90.000000
_cell_volume 2040.113483
_symmetry_space_group_name_H-M "C 2/C"
_symmetry_group_IT_number 15
_symmetry_cell_setting 'monoclinic'
loop_
_space_group_symop_operation_xyz
x,y,z
-x,y,1/2-z
-x,-y,-z
x,-y,1/2+z
1/2+x,1/2+y,z
1/2-x,1/2+y,1/2-z
1/2-x,1/2-y,-z
1/2+x,1/2-y,1/2+z
loop_
_atom_site_type_symbol
_atom_site_label
_atom_site_fract_x
_atom_site_fract_y
_atom_site_fract_z
Si Si1 0.106900 0.114640 0.959933
Si Si2 0.209304 0.356618 0.946369
Si Si3 0.920199 0.818611 0.613032
Si Si4 0.379398 0.532521 0.321218
Si Si5 0.932563 0.571755 0.473760
Si Si6 0.000000 0.231727 0.750000
O O1 0.109991 0.066174 0.071426
O O2 0.013844 0.168434 0.011502
O O3 0.171614 0.241715 0.895185
O O4 0.122061 0.968765 0.889928
O O5 0.282809 0.462452 0.866457
O O6 0.250000 0.250000 0.000000
O O7 0.129962 0.452715 0.027575
O O8 0.916485 0.833299 0.732128
O O9 0.884962 0.681104 0.580534
O O10 0.427614 0.381763 0.268974
O O11 0.000000 0.500000 0.500000
O O12 0.970902 0.666258 0.359250
#
# Coordination Sequence:
#
# PCOD9268038 Si02
#       6
#     8   8   8   8   8   4
#     4  10  19  41  67  96 137 180 228 285 354 424
#     4  10  25  44  66 103 146 179 230 301 359 420
#     4  11  20  38  72  96 132 183 237 283 341 433
#     4  11  22  41  71  99 135 188 230 282 366 424
#     4  12  26  45  70 107 143 184 249 301 349 433
#     4  12  24  46  76 102 138 198 238 288 366 434
#
# _framework density 21.567426999999999
#
# number of rings (size 3 to 8) (size 9 to 14) (size 15 to 20)
#    0.000    1.091    5.455    1.091    0.000    5.091 
#    0.000    0.000    0.000    0.000    0.000    0.000 
#    0.000    0.000    0.000    0.000    0.000    0.000 
#
# Total GULP energy -122673.366809 kJ/mol
# GULP energy per Si atom -5576.062128 kJ/mol
# Density = 2.151834 g / cm^3
# Si number density = 21.567427 Si / 1000 Ang^3
#
#
#
# Elastic Constant Matrix: (Units=GPa)
#
#
# Indices 1 2 3 4 5 6 
#
# 1 108.7306 66.0097 36.0877 0.0000 -15.5952 0.0000
# 2 66.0097 125.3109 32.9150 0.0000 -6.2993 0.0000
# 3 36.0877 32.9150 84.0984 0.0000 10.1152 0.0000
# 4 0.0000 0.0000 0.0000 32.3898 0.0000 8.0549
# 5 -15.5952 -6.2993 10.1152 0.0000 27.8939 0.0000
# 6 0.0000 0.0000 0.0000 8.0549 0.0000 48.6748
#
#
#
# Elastic Compliance Matrix: (Units=1/GPa)
#
#
# Indices 1 2 3 4 5 6 
#
# 1 0.016578 -0.006757 -0.005646 0.000000 0.009790 0.000000
# 2 -0.006757 0.011972 -0.001733 0.000000 -0.000446 0.000000
# 3 -0.005646 -0.001733 0.016122 0.000000 -0.009394 0.000000
# 4 0.000000 0.000000 0.000000 0.032199 0.000000 -0.005328
# 5 0.009790 -0.000446 -0.009394 0.000000 0.044630 0.000000
# 6 0.000000 0.000000 0.000000 -0.005328 0.000000 0.021426
#
#
# Mechanical properties :
#
#
# Convention : Reuss Voigt Hill
#
# Bulk Modulus (GPa) = 60.97859 65.35164 63.16512
# Shear Modulus (GPa) = 28.30208 34.00022 31.15115
#
# Velocity S-wave (km/s) = 3.62644 3.97478 3.80460
# Velocity P-wave (km/s) = 6.77271 7.17161 6.97501
#
# Compressibility (1/GPa) = 0.01639920
#
# Stress axis : x y z
#
# Youngs Moduli (GPa) = 60.32257 83.52608 62.02764
#
# Poissons Ratio (x) = 0.56441 0.35024
# Poissons Ratio (y) = 0.40761 0.10747
# Poissons Ratio (z) = 0.34061 0.14471
#
# Static dielectric constant tensor:
#      x y z
#    x 1.826810 0.000000 -0.001540 
#    y 0.000000 1.849760 0.000000 
#    z -0.001540 0.000000 1.826060 
# 
# From -- ./inp_files/159207.got.cif
#   From: 2010.05.17/outbox.cif.g08.bks.cpg/sg15_80_cif.got.tgz:159207.got - 2010.06.03 18:47:42.
