data_PCOD9268965
_publ_section_title
;
Structure prediction by ZEFSAII (Michael W. Deem and Ramdas Pophale) SiO2 
 PCOD9268965
Probable space group: C 2/C
;
_chemical_formula_sum "Si O2"
_cell_formula_units_Z 64
_cell_length_a 6.778270
_cell_length_b 23.447110
_cell_length_c 20.977566
_cell_angle_alpha 90.000000
_cell_angle_beta 82.421922
_cell_angle_gamma 90.000000
_cell_volume 3304.863468
_symmetry_space_group_name_H-M "C 2/C"
_symmetry_group_IT_number 15
_symmetry_cell_setting 'monoclinic'
loop_
_space_group_symop_operation_xyz
x,y,z
-x,y,1/2-z
-x,-y,-z
x,-y,1/2+z
1/2+x,1/2+y,z
1/2-x,1/2+y,1/2-z
1/2-x,1/2-y,-z
1/2+x,1/2-y,1/2+z
loop_
_atom_site_type_symbol
_atom_site_label
_atom_site_fract_x
_atom_site_fract_y
_atom_site_fract_z
Si Si1 0.666375 0.537918 0.909463
Si Si2 0.874112 0.804814 0.809867
Si Si3 0.366300 0.090051 0.160653
Si Si4 0.509610 0.252593 0.171880
Si Si5 0.418908 0.425061 0.945855
Si Si6 0.076802 0.884340 0.174511
Si Si7 0.931319 0.534988 0.682280
Si Si8 0.771698 0.150905 0.118034
O O1 0.529943 0.481283 0.913985
O O2 0.569557 0.585037 0.868169
O O3 0.884379 0.526743 0.872911
O O4 0.667666 0.559645 0.981845
O O5 0.738693 0.859157 0.795402
O O6 0.714210 0.760438 0.843152
O O7 0.000000 0.774486 0.750000
O O8 0.046299 0.833796 0.843315
O O9 0.257453 0.091005 0.096028
O O10 0.598937 0.106308 0.145242
O O11 0.333138 0.027835 0.191104
O O12 0.500000 0.240987 0.250000
O O13 0.580514 0.317041 0.161922
O O14 0.648774 0.209893 0.125755
O O15 0.596887 0.378030 0.943519
O O16 0.284911 0.917266 0.161876
O O17 0.000000 0.892606 0.250000
O O18 0.000000 0.551668 0.750000
#
# Coordination Sequence:
#
# PCOD9268965 Si02
#       8
#     8   8   8   8   8   8   8   8
#     4  11  23  41  62  93 124 168 207 249 312 371
#     4  10  20  33  57  90 122 157 200 259 320 367
#     4  10  22  34  59  93 127 157 200 259 312 380
#     4  10  21  38  60  87 121 164 211 255 313 379
#     4  10  22  40  64  89 126 162 208 259 304 373
#     4  11  24  43  60  88 129 163 205 255 308 380
#     4  12  24  37  60  93 129 164 202 253 317 381
#     4  10  20  38  59  90 120 158 201 258 313 365
#
# _framework density 19.365397999999999
#
# number of rings (size 3 to 8) (size 9 to 14) (size 15 to 20)
#    0.000    1.500    5.000    0.000    1.750    3.000 
#    0.000    0.625    0.000    7.500    0.000    0.000 
#    0.000    0.000    0.000    0.000    0.000    0.000 
#
# Total GULP energy -178279.499464 kJ/mol
# GULP energy per Si atom -5571.234358 kJ/mol
# Density = 1.932132 g / cm^3
# Si number density = 19.365398 Si / 1000 Ang^3
#
#
#
# Elastic Constant Matrix: (Units=GPa)
#
#
# Indices 1 2 3 4 5 6 
#
# 1 96.7067 32.6870 6.1759 0.0000 -0.3348 0.0000
# 2 32.6870 123.7587 14.3303 0.0000 -0.3413 0.0000
# 3 6.1759 14.3303 29.3266 0.0000 -4.8435 0.0000
# 4 0.0000 0.0000 0.0000 23.8873 0.0000 -0.0369
# 5 -0.3348 -0.3413 -4.8435 0.0000 27.2627 0.0000
# 6 0.0000 0.0000 0.0000 -0.0369 0.0000 24.9275
#
#
#
# Elastic Compliance Matrix: (Units=1/GPa)
#
#
# Indices 1 2 3 4 5 6 
#
# 1 0.011381 -0.002891 -0.000996 0.000000 -0.000073 0.000000
# 2 -0.002891 0.009310 -0.004046 0.000000 -0.000638 0.000000
# 3 -0.000996 -0.004046 0.037372 0.000000 0.006577 0.000000
# 4 0.000000 0.000000 0.000000 0.041863 0.000000 0.000062
# 5 -0.000073 -0.000638 0.006577 0.000000 0.037840 0.000000
# 6 0.000000 0.000000 0.000000 0.000062 0.000000 0.040116
#
#
# Mechanical properties :
#
#
# Convention : Reuss Voigt Hill
#
# Bulk Modulus (GPa) = 23.69834 39.57536 31.63685
# Shear Modulus (GPa) = 24.05988 28.32208 26.19098
#
# Velocity S-wave (km/s) = 3.52862 3.82843 3.68157
# Velocity P-wave (km/s) = 5.37267 6.32637 5.86892
#
# Compressibility (1/GPa) = 0.04219705
#
# Stress axis : x y z
#
# Youngs Moduli (GPa) = 87.86576 107.40567 26.75811
#
# Poissons Ratio (x) = 0.31049 0.02666
# Poissons Ratio (y) = 0.25400 0.10827
# Poissons Ratio (z) = 0.08754 0.43457
#
# Static dielectric constant tensor:
#      x y z
#    x 1.738920 0.000000 -0.022840 
#    y 0.000000 1.695030 0.000000 
#    z -0.022840 0.000000 1.704440 
# 
# From -- ./inp_files/261713.got.cif
#   From: 2010.05.17/outbox.cif.g08.bks.cpg/sg15_131_cif.got.tgz:261713.got - 2010.06.03 18:47:42.
