data_PCOD9268946
_publ_section_title
;
Structure prediction by ZEFSAII (Michael W. Deem and Ramdas Pophale) SiO2 
 PCOD9268946
Probable space group: C 2/C
;
_chemical_formula_sum "Si O2"
_cell_formula_units_Z 56
_cell_length_a 22.998663
_cell_length_b 5.420635
_cell_length_c 23.459493
_cell_angle_alpha 90.000000
_cell_angle_beta 135.071110
_cell_angle_gamma 90.000000
_cell_volume 2065.459600
_symmetry_space_group_name_H-M "C 2/C"
_symmetry_group_IT_number 15
_symmetry_cell_setting 'monoclinic'
loop_
_space_group_symop_operation_xyz
x,y,z
-x,y,1/2-z
-x,-y,-z
x,-y,1/2+z
1/2+x,1/2+y,z
1/2-x,1/2+y,1/2-z
1/2-x,1/2-y,-z
1/2+x,1/2-y,1/2+z
loop_
_atom_site_type_symbol
_atom_site_label
_atom_site_fract_x
_atom_site_fract_y
_atom_site_fract_z
Si Si1 0.733287 0.791264 0.708293
Si Si2 0.393488 0.013364 0.957044
Si Si3 0.509687 0.124093 0.812366
Si Si4 0.750865 0.290465 0.569071
Si Si5 0.623125 0.366425 0.963330
Si Si6 0.012969 0.248767 0.610166
Si Si7 0.869517 0.002642 0.228099
O O1 0.763340 0.998949 0.775347
O O2 0.795451 0.827994 0.698783
O O3 0.646798 0.918147 0.628962
O O4 0.320972 0.150065 0.943793
O O5 0.410908 0.767976 0.004753
O O6 0.473534 0.187077 0.021261
O O7 0.500000 0.957819 0.750000
O O8 0.602045 0.200222 0.894174
O O9 0.443776 0.339364 0.754252
O O10 0.477618 0.996355 0.846959
O O11 0.750000 0.250000 0.500000
O O12 0.715843 0.568120 0.542846
O O13 0.831741 0.198634 0.658261
O O14 0.563317 0.599812 0.913290
O O15 0.092694 0.103785 0.686259
#
# Coordination Sequence:
#
# PCOD9268946 Si02
#       7
#     8   8   8   8   8   8   8
#     4  11  27  46  73 100 130 176 229 284 347 396
#     4   9  21  40  63  88 124 170 210 279 327 403
#     4  10  20  35  59  92 130 173 214 264 331 401
#     4  10  20  33  56  91 128 172 214 265 330 396
#     4   9  19  36  57  81 124 163 211 253 328 380
#     4   9  20  37  62  87 126 166 209 262 332 388
#     4  10  23  39  63  95 133 170 225 281 330 406
#
# _framework density 27.11261
#
# number of rings (size 3 to 8) (size 9 to 14) (size 15 to 20)
#    0.000    2.286    0.000    0.857    8.000    7.429 
#    0.000    1.429    0.000    0.000    0.000    0.000 
#    0.000    0.000    0.000    0.000    0.000    0.000 
#
# Total GULP energy -156075.502138 kJ/mol
# GULP energy per Si atom -5574.125076 kJ/mol
# Density = 2.705090 g / cm^3
# Si number density = 27.112610 Si / 1000 Ang^3
#
#
#
# Elastic Constant Matrix: (Units=GPa)
#
#
# Indices 1 2 3 4 5 6 
#
# 1 67.9915 2.7192 28.7183 -0.0153 4.2329 -0.0088
# 2 2.7192 42.4185 15.2433 -0.0182 7.4492 -0.0113
# 3 28.7183 15.2433 141.3632 -0.0036 7.2511 0.0033
# 4 -0.0153 -0.0182 -0.0036 34.6293 -0.0031 2.4992
# 5 4.2329 7.4492 7.2511 -0.0031 48.1425 -0.0041
# 6 -0.0088 -0.0113 0.0033 2.4992 -0.0041 25.1847
#
#
#
# Elastic Compliance Matrix: (Units=1/GPa)
#
#
# Indices 1 2 3 4 5 6 
#
# 1 0.016133 0.000309 -0.003261 0.000006 -0.000975 0.000005
# 2 0.000309 0.025104 -0.002589 0.000012 -0.003522 0.000010
# 3 -0.003261 -0.002589 0.008042 -0.000002 -0.000524 -0.000003
# 4 0.000006 0.000012 -0.000002 0.029086 -0.000001 -0.002886
# 5 -0.000975 -0.003522 -0.000524 -0.000001 0.021481 0.000002
# 6 0.000005 0.000010 -0.000003 -0.002886 0.000002 0.039993
#
#
# Mechanical properties :
#
#
# Convention : Reuss Voigt Hill
#
# Bulk Modulus (GPa) = 26.17979 38.34833 32.26406
# Shear Modulus (GPa) = 30.55228 35.26413 32.90820
#
# Velocity S-wave (km/s) = 3.36052 3.61037 3.48769
# Velocity P-wave (km/s) = 4.97337 5.61734 5.30513
#
# Compressibility (1/GPa) = 0.03819740
#
# Stress axis : x y z
#
# Youngs Moduli (GPa) = 61.98319 39.83490 124.33979
#
# Poissons Ratio (x) = -0.01230 0.40545
# Poissons Ratio (y) = -0.01914 0.32192
# Poissons Ratio (z) = 0.20212 0.10313
#
# Static dielectric constant tensor:
#      x y z
#    x 2.273040 -0.000010 0.020400 
#    y -0.000010 2.209040 0.000000 
#    z 0.020400 0.000000 2.247590 
# 
# From -- ./inp_files/302955.got.cif
#   From: 2010.05.17/outbox.cif.g08.bks.cpg/sg15_152_cif.got.tgz:302955.got - 2010.06.03 18:47:42.
