data_PCOD9268783
_publ_section_title
;
Structure prediction by ZEFSAII (Michael W. Deem and Ramdas Pophale) SiO2 
 PCOD9268783
Probable space group: C 2/C
;
_chemical_formula_sum "Si O2"
_cell_formula_units_Z 44
_cell_length_a 18.620761
_cell_length_b 23.540963
_cell_length_c 5.357638
_cell_angle_alpha 90.000000
_cell_angle_beta 115.051894
_cell_angle_gamma 90.000000
_cell_volume 2127.585831
_symmetry_space_group_name_H-M "C 2/C"
_symmetry_group_IT_number 15
_symmetry_cell_setting 'monoclinic'
loop_
_space_group_symop_operation_xyz
x,y,z
-x,y,1/2-z
-x,-y,-z
x,-y,1/2+z
1/2+x,1/2+y,z
1/2-x,1/2+y,1/2-z
1/2-x,1/2-y,-z
1/2+x,1/2-y,1/2+z
loop_
_atom_site_type_symbol
_atom_site_label
_atom_site_fract_x
_atom_site_fract_y
_atom_site_fract_z
Si Si1 0.857416 0.128268 0.053802
Si Si2 0.500000 0.538173 0.250000
Si Si3 0.483593 0.092884 0.976586
Si Si4 0.183199 0.651265 0.800906
Si Si5 0.411362 0.316973 0.132710
Si Si6 0.118246 0.306338 0.708580
O O1 0.878821 0.173670 0.305297
O O2 0.921569 0.077864 0.159124
O O3 0.764430 0.117781 0.961321
O O4 0.864687 0.151061 0.782203
O O5 0.500000 0.500000 0.500000
O O6 0.500000 0.060793 0.250000
O O7 0.545493 0.147670 0.079454
O O8 0.500000 0.061530 0.750000
O O9 0.393568 0.112005 0.829984
O O10 0.179816 0.679960 0.522834
O O11 0.163168 0.691949 0.008337
O O12 0.500000 0.341063 0.250000
O O13 0.416463 0.253344 0.250519
#
# Coordination Sequence:
#
# PCOD9268783 Si02
#       6
#     8   4   8   8   8   8
#     4  12  25  40  60  87 106 140 191 263 303 344
#     4  12  26  50  72  82 104 142 196 256 346 384
#     4   8  15  29  47  69 107 154 198 210 247 309
#     4  10  20  34  51  81 118 145 204 234 268 327
#     4  12  22  37  55  78 123 156 202 230 278 335
#     4  10  20  33  52  79 120 177 187 214 255 330
#
# _framework density 20.680716
#
# number of rings (size 3 to 8) (size 9 to 14) (size 15 to 20)
#    0.000    1.455    1.818    4.909    0.000    7.273 
#    0.000    0.000    0.000    0.000    0.000    0.000 
#    0.000   39.273    0.000    0.000    0.000    0.000 
#
# Total GULP energy -122552.846768 kJ/mol
# GULP energy per Si atom -5570.583944 kJ/mol
# Density = 2.063365 g / cm^3
# Si number density = 20.680716 Si / 1000 Ang^3
#
#
#
# Elastic Constant Matrix: (Units=GPa)
#
#
# Indices 1 2 3 4 5 6 
#
# 1 129.5409 35.4338 71.7363 0.0000 4.3822 0.0000
# 2 35.4338 78.2430 16.6129 0.0000 -7.0723 0.0000
# 3 71.7363 16.6129 130.5906 0.0000 -31.3447 0.0000
# 4 0.0000 0.0000 0.0000 -48.6517 0.0000 21.1000
# 5 4.3822 -7.0723 -31.3447 0.0000 43.9414 0.0000
# 6 0.0000 0.0000 0.0000 21.1000 0.0000 12.9564
#
#
#
# Elastic Compliance Matrix: (Units=1/GPa)
#
#
# Indices 1 2 3 4 5 6 
#
# 1 0.014951 -0.005545 -0.009748 0.000000 -0.009337 0.000000
# 2 -0.005545 0.015237 0.002207 0.000000 0.004579 0.000000
# 3 -0.009748 0.002207 0.015746 0.000000 0.012560 0.000000
# 4 0.000000 0.000000 0.000000 -0.012046 0.000000 0.019618
# 5 -0.009337 0.004579 0.012560 0.000000 0.033385 0.000000
# 6 0.000000 0.000000 0.000000 0.019618 0.000000 0.045234
#
#
# Mechanical properties :
#
#
# Convention : Reuss Voigt Hill
#
# Bulk Modulus (GPa) = 50.60464 65.10451 57.85457
# Shear Modulus (GPa) = 34.41940 15.95531 25.18735
#
# Velocity S-wave (km/s) = 4.08404 2.78061 3.49365
# Velocity P-wave (km/s) = 6.83826 6.46979 6.65657
#
# Compressibility (1/GPa) = 0.01976104
#
# Stress axis : x y z
#
# Youngs Moduli (GPa) = 66.88726 65.62906 63.50640
#
# Poissons Ratio (x) = 0.36390 0.61909
# Poissons Ratio (y) = 0.37088 -0.14014
# Poissons Ratio (z) = 0.65205 -0.14482
#
# Static dielectric constant tensor:
#      x y z
#    x 1.762110 0.000000 -0.060350 
#    y 0.000000 1.740030 0.000000 
#    z -0.060350 0.000000 1.814300 
# 
# From -- ./inp_files/10803.got.cif
#   From: 2010.05.17/outbox.cif.g08.bks.cpg/sg15_6_cif.got.tgz:10803.got - 2010.06.03 18:47:42.
