data_PCOD9268423
_publ_section_title
;
Structure prediction by ZEFSAII (Michael W. Deem and Ramdas Pophale) SiO2 
 PCOD9268423
Probable space group: C 2/C
;
_chemical_formula_sum "Si O2"
_cell_formula_units_Z 64
_cell_length_a 24.861026
_cell_length_b 18.512835
_cell_length_c 28.213099
_cell_angle_alpha 90.000000
_cell_angle_beta 19.121741
_cell_angle_gamma 90.000000
_cell_volume 4253.588052
_symmetry_space_group_name_H-M "C 2/C"
_symmetry_group_IT_number 15
_symmetry_cell_setting 'monoclinic'
loop_
_space_group_symop_operation_xyz
x,y,z
-x,y,1/2-z
-x,-y,-z
x,-y,1/2+z
1/2+x,1/2+y,z
1/2-x,1/2+y,1/2-z
1/2-x,1/2-y,-z
1/2+x,1/2-y,1/2+z
loop_
_atom_site_type_symbol
_atom_site_label
_atom_site_fract_x
_atom_site_fract_y
_atom_site_fract_z
Si Si1 0.192164 0.402934 0.711471
Si Si2 0.570223 0.971264 0.371230
Si Si3 0.250670 0.951942 0.688522
Si Si4 0.406540 0.352863 0.375471
Si Si5 0.541445 0.188985 0.160604
Si Si6 0.806864 0.333169 0.181950
Si Si7 0.510589 0.422943 0.384425
Si Si8 0.841983 0.683617 0.161468
O O1 0.123414 0.482454 0.781748
O O2 0.373930 0.410451 0.538605
O O3 0.178154 0.355689 0.770959
O O4 0.081240 0.359905 0.766587
O O5 0.374677 0.968276 0.542085
O O6 0.638857 0.891101 0.323119
O O7 0.651943 0.014738 0.347284
O O8 0.244055 0.867197 0.705712
O O9 0.083710 0.996177 0.823824
O O10 0.500000 0.374318 0.250000
O O11 0.461948 0.273793 0.349218
O O12 0.224390 0.340959 0.507337
O O13 0.433141 0.404657 0.397880
O O14 0.500000 0.187458 0.250000
O O15 0.666797 0.371562 0.266480
O O16 0.731229 0.262622 0.269311
O O17 0.969100 0.316865 0.014813
#
# Coordination Sequence:
#
# PCOD9268423 Si02
#       8
#     8   8   8   8   8   8   8   8
#     4  11  20  30  49  66  93 127 156 190 232 267
#     4   8  17  32  46  65  89 123 149 187 231 270
#     4   8  17  32  46  64  93 117 153 188 226 273
#     4  10  22  32  48  65  89 126 159 195 231 260
#     4  10  20  36  44  63  95 120 157 200 226 262
#     4  10  20  32  48  68  95 119 157 189 227 279
#     4  11  20  31  46  70  92 123 161 190 225 276
#     4  10  20  32  48  69  92 125 150 191 231 273
#
# _framework density 15.046120999999999
#
# number of rings (size 3 to 8) (size 9 to 14) (size 15 to 20)
#    0.000    2.250    1.250    3.750    3.500    5.500 
#    0.000    0.000    0.000    0.000    0.000    0.000 
#    0.000    2.000    0.000    0.125    0.000    0.125 
#
# Total GULP energy -178181.136975 kJ/mol
# GULP energy per Si atom -5568.160530 kJ/mol
# Density = 1.501188 g / cm^3
# Si number density = 15.046121 Si / 1000 Ang^3
#
#
#
# Elastic Constant Matrix: (Units=GPa)
#
#
# Indices 1 2 3 4 5 6 
#
# 1 45.9828 25.0698 12.6235 0.0671 24.5856 0.0561
# 2 25.0698 85.4740 30.3782 0.1642 15.7513 0.1403
# 3 12.6235 30.3782 87.0808 0.0625 5.8354 0.0518
# 4 0.0671 0.1642 0.0625 87.7735 0.0349 52.4161
# 5 24.5856 15.7513 5.8354 0.0349 50.0630 0.0304
# 6 0.0561 0.1403 0.0518 52.4161 0.0304 61.2602
#
#
#
# Elastic Compliance Matrix: (Units=1/GPa)
#
#
# Indices 1 2 3 4 5 6 
#
# 1 0.033327 -0.006615 -0.001578 -0.000004 -0.014101 -0.000003
# 2 -0.006615 0.015380 -0.004334 -0.000011 -0.001085 -0.000016
# 3 -0.001578 -0.004334 0.013184 -0.000001 0.000602 0.000000
# 4 -0.000004 -0.000011 -0.000001 0.023297 0.000002 -0.019933
# 5 -0.014101 -0.001085 0.000602 0.000002 0.027171 0.000000
# 6 -0.000003 -0.000016 0.000000 -0.019933 0.000000 0.033379
#
#
# Mechanical properties :
#
#
# Convention : Reuss Voigt Hill
#
# Bulk Modulus (GPa) = 27.14746 39.40897 33.27821
# Shear Modulus (GPa) = 27.31184 49.85039 38.58111
#
# Velocity S-wave (km/s) = 4.26515 5.76226 5.06928
# Velocity P-wave (km/s) = 6.50671 8.39765 7.51192
#
# Compressibility (1/GPa) = 0.03683586
#
# Stress axis : x y z
#
# Youngs Moduli (GPa) = 30.00599 65.01974 75.85031
#
# Poissons Ratio (x) = 0.43012 0.11973
# Poissons Ratio (y) = 0.19850 0.32871
# Poissons Ratio (z) = 0.04736 0.28177
#
# Static dielectric constant tensor:
#      x y z
#    x 1.472220 0.000000 0.019550 
#    y 0.000000 1.539280 0.000020 
#    z 0.019550 0.000020 1.496390 
# 
# From -- ./inp_files/302418.got.cif
#   From: 2010.05.17/outbox.cif.g08.bks.cpg/sg15_152_cif.got.tgz:302418.got - 2010.06.03 18:47:42.
