data_PCOD9268684
_publ_section_title
;
Structure prediction by ZEFSAII (Michael W. Deem and Ramdas Pophale) SiO2 
 PCOD9268684
Probable space group: C 2/C
;
_chemical_formula_sum "Si O2"
_cell_formula_units_Z 56
_cell_length_a 23.029128
_cell_length_b 30.769768
_cell_length_c 5.121721
_cell_angle_alpha 90.000000
_cell_angle_beta 102.674634
_cell_angle_gamma 90.000000
_cell_volume 3540.817723
_symmetry_space_group_name_H-M "C 2/C"
_symmetry_group_IT_number 15
_symmetry_cell_setting 'monoclinic'
loop_
_space_group_symop_operation_xyz
x,y,z
-x,y,1/2-z
-x,-y,-z
x,-y,1/2+z
1/2+x,1/2+y,z
1/2-x,1/2+y,1/2-z
1/2-x,1/2-y,-z
1/2+x,1/2-y,1/2+z
loop_
_atom_site_type_symbol
_atom_site_label
_atom_site_fract_x
_atom_site_fract_y
_atom_site_fract_z
Si Si1 0.672279 0.619204 0.249858
Si Si2 0.632045 0.530041 0.363239
Si Si3 0.562670 0.268624 0.430953
Si Si4 0.103612 0.849302 0.181338
Si Si5 0.000000 0.165253 0.250000
Si Si6 0.000000 0.968934 0.750000
Si Si7 0.738794 0.191244 0.263766
Si Si8 0.177006 0.273935 0.210525
O O1 0.675835 0.568941 0.332165
O O2 0.647559 0.642654 0.485334
O O3 0.732264 0.644035 0.231966
O O4 0.627246 0.625548 0.959371
O O5 0.637613 0.507216 0.649059
O O6 0.565526 0.551682 0.297028
O O7 0.500000 0.252932 0.250000
O O8 0.597252 0.298693 0.254789
O O9 0.544104 0.303157 0.635437
O O10 0.607890 0.233245 0.581448
O O11 0.038038 0.860416 0.002777
O O12 0.000000 0.000000 0.500000
O O13 0.791985 0.226213 0.267001
O O14 0.710554 0.199829 0.516749
O O15 0.690771 0.203296 0.996926
#
# Coordination Sequence:
#
# PCOD9268684 Si02
#       8
#     8   8   8   8   4   4   8   8
#     4  12  22  35  53  72  94 119 164 203 253 289
#     4  10  21  38  53  69  90 121 155 201 249 305
#     4  10  21  33  51  66 101 130 168 205 238 288
#     4  11  21  33  47  70  95 118 155 207 243 282
#     4  10  20  35  46  68  98 124 166 200 250 276
#     4   8  16  33  50  62  84 108 146 184 236 292
#     4  10  21  31  50  71  94 126 157 205 234 294
#     4  10  20  33  48  69  98 127 163 190 250 274
#
# _framework density 15.815557
#
# number of rings (size 3 to 8) (size 9 to 14) (size 15 to 20)
#    0.000    1.714    2.857    1.714    8.000    0.571 
#    0.000    2.857    0.000    0.000    0.000    0.000 
#    0.000    0.000    0.000    0.000    0.000   14.286 
#
# Total GULP energy -156235.365180 kJ/mol
# GULP energy per Si atom -5579.834471 kJ/mol
# Density = 1.577956 g / cm^3
# Si number density = 15.815557 Si / 1000 Ang^3
#
#
#
# Elastic Constant Matrix: (Units=GPa)
#
#
# Indices 1 2 3 4 5 6 
#
# 1 33.7567 23.0184 9.9846 0.0000 5.1231 0.0000
# 2 23.0184 49.0812 1.7852 0.0000 4.9166 0.0000
# 3 9.9846 1.7852 79.8543 0.0000 -1.2748 0.0000
# 4 0.0000 0.0000 0.0000 11.2866 0.0000 -4.4230
# 5 5.1231 4.9166 -1.2748 0.0000 27.9915 0.0000
# 6 0.0000 0.0000 0.0000 -4.4230 0.0000 21.6327
#
#
#
# Elastic Compliance Matrix: (Units=1/GPa)
#
#
# Indices 1 2 3 4 5 6 
#
# 1 0.046321 -0.021023 -0.005402 0.000000 -0.005031 0.000000
# 2 -0.021023 0.030303 0.001929 0.000000 -0.001387 0.000000
# 3 -0.005402 0.001929 0.013175 0.000000 0.001250 0.000000
# 4 0.000000 0.000000 0.000000 0.096318 0.000000 0.019693
# 5 -0.005031 -0.001387 0.001250 0.000000 0.036946 0.000000
# 6 0.000000 0.000000 0.000000 0.019693 0.000000 0.050253
#
#
# Mechanical properties :
#
#
# Convention : Reuss Voigt Hill
#
# Bulk Modulus (GPa) = 24.50617 25.80762 25.15689
# Shear Modulus (GPa) = 14.88493 20.70910 17.79701
#
# Velocity S-wave (km/s) = 3.07116 3.62251 3.35817
# Velocity P-wave (km/s) = 5.30138 5.81808 5.56573
#
# Compressibility (1/GPa) = 0.04080606
#
# Stress axis : x y z
#
# Youngs Moduli (GPa) = 21.58857 33.00022 75.90087
#
# Poissons Ratio (x) = 0.69377 0.41002
# Poissons Ratio (y) = 0.45386 -0.14642
# Poissons Ratio (z) = 0.11662 -0.06366
#
# Static dielectric constant tensor:
#      x y z
#    x 1.543550 0.000000 0.005700 
#    y 0.000000 1.527200 0.000000 
#    z 0.005700 0.000000 1.585780 
# 
# From -- ./inp_files/14584.got.cif
#   From: 2010.05.17/outbox.cif.g08.bks.cpg/sg15_8_cif.got.tgz:14584.got - 2010.06.03 18:47:42.
