data_PCOD9268526
_publ_section_title
;
Structure prediction by ZEFSAII (Michael W. Deem and Ramdas Pophale) SiO2 
 PCOD9268526
Probable space group: C 2/C
;
_chemical_formula_sum "Si O2"
_cell_formula_units_Z 52
_cell_length_a 5.896040
_cell_length_b 15.650879
_cell_length_c 27.140459
_cell_angle_alpha 90.000000
_cell_angle_beta 59.725998
_cell_angle_gamma 90.000000
_cell_volume 2162.923917
_symmetry_space_group_name_H-M "C 2/C"
_symmetry_group_IT_number 15
_symmetry_cell_setting 'monoclinic'
loop_
_space_group_symop_operation_xyz
x,y,z
-x,y,1/2-z
-x,-y,-z
x,-y,1/2+z
1/2+x,1/2+y,z
1/2-x,1/2+y,1/2-z
1/2-x,1/2-y,-z
1/2+x,1/2-y,1/2+z
loop_
_atom_site_type_symbol
_atom_site_label
_atom_site_fract_x
_atom_site_fract_y
_atom_site_fract_z
Si Si1 0.000000 0.661893 0.250000
Si Si2 0.750912 0.374591 0.390736
Si Si3 0.171858 0.743921 0.326542
Si Si4 0.061905 0.237969 0.424014
Si Si5 0.856109 0.630928 0.512685
Si Si6 0.025719 0.495525 0.918218
Si Si7 0.992603 0.106390 0.356161
O O1 0.840724 0.721132 0.229246
O O2 0.788257 0.607930 0.304031
O O3 0.766734 0.336533 0.334195
O O4 0.453071 0.374692 0.442774
O O5 0.916600 0.305730 0.404493
O O6 0.872220 0.466610 0.388957
O O7 0.333081 0.671116 0.337728
O O8 0.869580 0.741522 0.377419
O O9 0.041439 0.275456 0.481605
O O10 0.974381 0.146019 0.413497
O O11 0.991276 0.565472 0.536554
O O12 0.914770 0.592890 0.452694
O O13 0.330323 0.480328 0.872963
#
# Coordination Sequence:
#
# PCOD9268526 Si02
#       7
#     4   8   8   8   8   8   8
#     4  10  20  36  58  86 100 140 194 258 306 362
#     4   9  17  33  54  80 112 155 187 233 278 350
#     4   9  18  35  57  82 102 142 192 241 296 342
#     4   8  17  33  52  79 113 150 194 232 275 336
#     4   9  18  34  53  79 118 166 196 223 269 351
#     4  10  20  32  53  87 119 156 193 226 291 351
#     4  10  20  34  55  88 109 146 189 248 304 339
#
# _framework density 24.041530000000002
#
# number of rings (size 3 to 8) (size 9 to 14) (size 15 to 20)
#    0.000    2.769    0.000    0.923    0.000    3.077 
#    0.000    6.923    0.000    0.000  332.000    0.000 
#    0.000    0.000    0.000    0.000    0.000    0.000 
#
# Total GULP energy -145294.860373 kJ/mol
# GULP energy per Si atom -5588.263861 kJ/mol
# Density = 2.398681 g / cm^3
# Si number density = 24.041530 Si / 1000 Ang^3
#
#
#
# Elastic Constant Matrix: (Units=GPa)
#
#
# Indices 1 2 3 4 5 6 
#
# 1 87.6872 25.5971 23.8731 0.0000 6.2621 0.0000
# 2 25.5971 63.8576 41.2248 0.0000 10.5130 0.0000
# 3 23.8731 41.2248 92.3513 0.0000 2.6525 0.0000
# 4 0.0000 0.0000 0.0000 22.6568 0.0000 0.0615
# 5 6.2621 10.5130 2.6525 0.0000 42.1938 0.0000
# 6 0.0000 0.0000 0.0000 0.0615 0.0000 55.6031
#
#
#
# Elastic Compliance Matrix: (Units=1/GPa)
#
#
# Indices 1 2 3 4 5 6 
#
# 1 0.013081 -0.004132 -0.001514 0.000000 -0.000817 0.000000
# 2 -0.004132 0.024352 -0.009663 0.000000 -0.004847 0.000000
# 3 -0.001514 -0.009663 0.015486 0.000000 0.001659 0.000000
# 4 0.000000 0.000000 0.000000 0.044137 0.000000 -0.000049
# 5 -0.000817 -0.004847 0.001659 0.000000 0.024925 0.000000
# 6 0.000000 0.000000 0.000000 -0.000049 0.000000 0.017985
#
#
# Mechanical properties :
#
#
# Convention : Reuss Voigt Hill
#
# Bulk Modulus (GPa) = 44.84077 47.25401 46.04739
# Shear Modulus (GPa) = 28.08730 34.30415 31.19572
#
# Velocity S-wave (km/s) = 3.42172 3.78149 3.60610
# Velocity P-wave (km/s) = 5.85686 6.22608 6.04429
#
# Compressibility (1/GPa) = 0.02230113
#
# Stress axis : x y z
#
# Youngs Moduli (GPa) = 76.44860 41.06358 64.57651
#
# Poissons Ratio (x) = 0.16967 0.09774
# Poissons Ratio (y) = 0.31587 0.62403
# Poissons Ratio (z) = 0.11571 0.39682
#
# Static dielectric constant tensor:
#      x y z
#    x 1.975110 0.000000 0.021520 
#    y 0.000000 1.958990 0.000000 
#    z 0.021520 0.000000 1.906880 
# 
# From -- ./inp_files/285915.got.cif
#   From: 2010.05.17/outbox.cif.g08.bks.cpg/sg15_143_cif.got.tgz:285915.got - 2010.06.03 18:47:42.
