data_PCOD9268262
_publ_section_title
;
Structure prediction by ZEFSAII (Michael W. Deem and Ramdas Pophale) SiO2 
 PCOD9268262
Probable space group: C 2/C
;
_chemical_formula_sum "Si O2"
_cell_formula_units_Z 64
_cell_length_a 17.949012
_cell_length_b 32.170792
_cell_length_c 8.397594
_cell_angle_alpha 90.000000
_cell_angle_beta 50.264136
_cell_angle_gamma 90.000000
_cell_volume 3728.921768
_symmetry_space_group_name_H-M "C 2/C"
_symmetry_group_IT_number 15
_symmetry_cell_setting 'monoclinic'
loop_
_space_group_symop_operation_xyz
x,y,z
-x,y,1/2-z
-x,-y,-z
x,-y,1/2+z
1/2+x,1/2+y,z
1/2-x,1/2+y,1/2-z
1/2-x,1/2-y,-z
1/2+x,1/2-y,1/2+z
loop_
_atom_site_type_symbol
_atom_site_label
_atom_site_fract_x
_atom_site_fract_y
_atom_site_fract_z
Si Si1 0.378219 0.229475 0.087851
Si Si2 0.152466 0.496493 0.047637
Si Si3 0.116652 0.220827 0.596602
Si Si4 0.110130 0.728037 0.789300
Si Si5 0.956494 0.443282 0.042645
Si Si6 0.404715 0.852082 0.990405
Si Si7 0.691148 0.939844 0.740001
Si Si8 0.229537 0.347170 0.624858
O O1 0.350631 0.256446 0.283336
O O2 0.341543 0.183019 0.177385
O O3 0.494241 0.233462 0.932993
O O4 0.349529 0.238429 0.942433
O O5 0.093765 0.463614 0.235552
O O6 0.211854 0.531231 0.060969
O O7 0.079831 0.523652 0.038568
O O8 0.219767 0.467664 0.849441
O O9 0.145086 0.245428 0.395022
O O10 0.169076 0.176625 0.518917
O O11 0.000000 0.218509 0.750000
O O12 0.117124 0.680411 0.839584
O O13 0.920975 0.397855 0.038578
O O14 0.072295 0.438904 0.900610
O O15 0.500000 0.840917 0.750000
O O16 0.317083 0.850769 0.986212
O O17 0.730640 0.893775 0.687683
#
# Coordination Sequence:
#
# PCOD9268262 Si02
#       8
#     8   8   8   8   8   8   8   8
#     4  10  20  35  56  81 104 141 177 205 263 322
#     4  10  20  30  47  68 106 147 175 199 245 314
#     4  10  22  42  57  72 104 139 179 231 269 303
#     4  10  20  35  56  77 108 143 171 212 260 315
#     4  11  18  30  45  69 106 148 172 201 245 302
#     4  12  19  33  48  75 113 144 170 214 259 305
#     4  11  19  31  46  72 102 140 177 205 247 308
#     4  12  22  34  54  79 106 139 180 218 260 311
#
# _framework density 17.163139000000001
#
# number of rings (size 3 to 8) (size 9 to 14) (size 15 to 20)
#    0.000    1.250    5.000    3.750    1.750    0.500 
#    0.000    0.000    0.000    0.000    0.000    0.875 
#    0.000    0.000    0.000    0.000    0.000    0.250 
#
# Total GULP energy -178354.192015 kJ/mol
# GULP energy per Si atom -5573.568500 kJ/mol
# Density = 1.712407 g / cm^3
# Si number density = 17.163139 Si / 1000 Ang^3
#
#
#
# Elastic Constant Matrix: (Units=GPa)
#
#
# Indices 1 2 3 4 5 6 
#
# 1 54.7165 40.4448 29.6188 0.0000 12.8503 0.0000
# 2 40.4448 143.0635 47.9581 0.0000 13.5533 0.0000
# 3 29.6188 47.9581 73.9464 0.0000 18.9696 0.0000
# 4 0.0000 0.0000 0.0000 3.5876 0.0000 -10.6114
# 5 12.8503 13.5533 18.9696 0.0000 22.4948 0.0000
# 6 0.0000 0.0000 0.0000 -10.6114 0.0000 23.0013
#
#
#
# Elastic Compliance Matrix: (Units=1/GPa)
#
#
# Indices 1 2 3 4 5 6 
#
# 1 0.026740 -0.004987 -0.005523 0.000000 -0.007613 0.000000
# 2 -0.004987 0.009869 -0.004605 0.000000 0.000786 0.000000
# 3 -0.005523 -0.004605 0.021949 0.000000 -0.012580 0.000000
# 4 0.000000 0.000000 0.000000 -0.764631 0.000000 -0.352754
# 5 -0.007613 0.000786 -0.012580 0.000000 0.058939 0.000000
# 6 0.000000 0.000000 0.000000 -0.352754 0.000000 -0.119263
#
#
# Mechanical properties :
#
#
# Convention : Reuss Voigt Hill
#
# Bulk Modulus (GPa) = 35.30024 56.41886 45.85955
# Shear Modulus (GPa) = -6.88017 20.06373 6.59178
#
# Velocity S-wave (km/s) = -2.00434 3.42278 1.96189
# Velocity P-wave (km/s) = 3.90584 6.96879 5.64888
#
# Compressibility (1/GPa) = 0.02832842
#
# Stress axis : x y z
#
# Youngs Moduli (GPa) = 37.39739 101.32945 45.56000
#
# Poissons Ratio (x) = 0.50530 0.25164
# Poissons Ratio (y) = 0.18649 0.20978
# Poissons Ratio (z) = 0.20656 0.46658
#
# Static dielectric constant tensor:
#      x y z
#    x 1.614300 0.000000 0.049210 
#    y 0.000000 1.583780 0.000000 
#    z 0.049210 0.000000 1.657310 
# 
# From -- ./inp_files/59018.got.cif
#   From: 2010.05.17/outbox.cif.g08.bks.cpg/sg15_30_cif.got.tgz:59018.got - 2010.06.03 18:47:42.
