data_PCOD9268073
_publ_section_title
;
Structure prediction by ZEFSAII (Michael W. Deem and Ramdas Pophale) SiO2 
 PCOD9268073
Probable space group: C 2/C
;
_chemical_formula_sum "Si O2"
_cell_formula_units_Z 64
_cell_length_a 12.162871
_cell_length_b 29.021890
_cell_length_c 17.770219
_cell_angle_alpha 90.000000
_cell_angle_beta 26.315882
_cell_angle_gamma 90.000000
_cell_volume 2780.811670
_symmetry_space_group_name_H-M "C 2/C"
_symmetry_group_IT_number 15
_symmetry_cell_setting 'monoclinic'
loop_
_space_group_symop_operation_xyz
x,y,z
-x,y,1/2-z
-x,-y,-z
x,-y,1/2+z
1/2+x,1/2+y,z
1/2-x,1/2+y,1/2-z
1/2-x,1/2-y,-z
1/2+x,1/2-y,1/2+z
loop_
_atom_site_type_symbol
_atom_site_label
_atom_site_fract_x
_atom_site_fract_y
_atom_site_fract_z
Si Si1 0.957030 0.397221 0.363401
Si Si2 0.801443 0.514053 0.052473
Si Si3 0.626785 0.767316 0.893705
Si Si4 0.128472 0.580932 0.032616
Si Si5 0.869190 0.881805 0.229881
Si Si6 0.154796 0.806526 0.008016
Si Si7 0.809881 0.339324 0.762629
Si Si8 0.072784 0.706916 0.594186
O O1 0.827781 0.436702 0.494539
O O2 0.848138 0.344658 0.431329
O O3 0.000000 0.410490 0.250000
O O4 0.210004 0.390361 0.254359
O O5 0.500000 0.507373 0.250000
O O6 0.888497 0.472976 0.945295
O O7 0.000000 0.500000 0.000000
O O8 0.762259 0.806232 0.761070
O O9 0.815427 0.724517 0.788406
O O10 0.400768 0.744789 0.985596
O O11 0.550212 0.790969 0.017564
O O12 0.360722 0.595586 0.940632
O O13 0.224515 0.597338 0.890471
O O14 0.877747 0.608864 0.199796
O O15 0.947114 0.828170 0.189396
O O16 0.138384 0.834066 0.938987
O O17 0.423654 0.818381 0.874636
O O18 0.250000 0.750000 0.500000
#
# Coordination Sequence:
#
# PCOD9268073 Si02
#       8
#     8   8   8   8   8   8   8   8
#     4  12  26  47  70 106 145 189 246 301 373 436
#     4  12  25  50  79 110 148 191 252 312 370 453
#     4  12  22  41  64  90 133 179 235 283 356 407
#     4  10  20  42  71 100 137 181 237 293 372 427
#     4  10  19  41  71  94 134 189 229 290 366 437
#     4  10  21  38  59  99 135 170 226 287 350 425
#     4  10  22  36  62 100 133 172 227 289 348 432
#     4  12  27  45  66  93 135 192 240 293 348 426
#
# _framework density 23.014862999999998
#
# number of rings (size 3 to 8) (size 9 to 14) (size 15 to 20)
#    0.000    1.000    5.000    2.250    0.000    1.000 
#    6.750    1.250    0.000    0.000    0.000    0.000 
#    0.000    0.000    0.000    0.000    0.000    0.000 
#
# Total GULP energy -178350.657410 kJ/mol
# GULP energy per Si atom -5573.458044 kJ/mol
# Density = 2.296248 g / cm^3
# Si number density = 23.014863 Si / 1000 Ang^3
#
#
#
# Elastic Constant Matrix: (Units=GPa)
#
#
# Indices 1 2 3 4 5 6 
#
# 1 85.6937 12.1765 15.6045 -0.0015 -4.2283 -0.0056
# 2 12.1765 149.0848 39.0296 0.0061 8.9864 -0.0018
# 3 15.6045 39.0296 64.5446 0.0205 -0.9111 -0.0370
# 4 -0.0015 0.0061 0.0205 34.6797 0.0049 -0.7707
# 5 -4.2283 8.9864 -0.9111 0.0049 30.2716 0.0201
# 6 -0.0056 -0.0018 -0.0370 -0.7707 0.0201 28.3396
#
#
#
# Elastic Compliance Matrix: (Units=1/GPa)
#
#
# Indices 1 2 3 4 5 6 
#
# 1 0.012306 -0.000402 -0.002707 0.000002 0.001757 -0.000002
# 2 -0.000402 0.008178 -0.004885 0.000002 -0.002631 -0.000004
# 3 -0.002707 -0.004885 0.019125 -0.000010 0.001648 0.000023
# 4 0.000002 0.000002 -0.000010 0.028853 -0.000006 0.000785
# 5 0.001757 -0.002631 0.001648 -0.000006 0.034110 -0.000022
# 6 -0.000002 -0.000004 0.000023 0.000785 -0.000022 0.035308
#
#
# Mechanical properties :
#
#
# Convention : Reuss Voigt Hill
#
# Bulk Modulus (GPa) = 42.33674 48.10494 45.22084
# Shear Modulus (GPa) = 30.91344 34.15902 32.53623
#
# Velocity S-wave (km/s) = 3.66894 3.85673 3.76401
# Velocity P-wave (km/s) = 6.03187 6.38589 6.21140
#
# Compressibility (1/GPa) = 0.02362015
#
# Stress axis : x y z
#
# Youngs Moduli (GPa) = 81.25931 122.28084 52.28808
#
# Poissons Ratio (x) = 0.04919 0.14155
# Poissons Ratio (y) = 0.03269 0.25543
# Poissons Ratio (z) = 0.21998 0.59734
#
# Static dielectric constant tensor:
#      x y z
#    x 1.958340 -0.000030 -0.023960 
#    y -0.000030 1.976330 -0.000030 
#    z -0.023960 -0.000030 1.878910 
# 
# From -- ./inp_files/201471.got.cif
#   From: 2010.05.17/outbox.cif.g08.bks.cpg/sg15_101_cif.got.tgz:201471.got - 2010.06.03 18:47:42.
