data_PCOD9268980
_publ_section_title
;
Structure prediction by ZEFSAII (Michael W. Deem and Ramdas Pophale) SiO2 
 PCOD9268980
Probable space group: C 2/C
;
_chemical_formula_sum "Si O2"
_cell_formula_units_Z 56
_cell_length_a 16.240211
_cell_length_b 8.666723
_cell_length_c 21.630433
_cell_angle_alpha 90.000000
_cell_angle_beta 66.650344
_cell_angle_gamma 90.000000
_cell_volume 2795.138380
_symmetry_space_group_name_H-M "C 2/C"
_symmetry_group_IT_number 15
_symmetry_cell_setting 'monoclinic'
loop_
_space_group_symop_operation_xyz
x,y,z
-x,y,1/2-z
-x,-y,-z
x,-y,1/2+z
1/2+x,1/2+y,z
1/2-x,1/2+y,1/2-z
1/2-x,1/2-y,-z
1/2+x,1/2-y,1/2+z
loop_
_atom_site_type_symbol
_atom_site_label
_atom_site_fract_x
_atom_site_fract_y
_atom_site_fract_z
Si Si1 0.244632 0.230186 0.073656
Si Si2 0.260773 0.636349 0.726148
Si Si3 0.817188 0.537906 0.151935
Si Si4 0.906697 0.353527 0.311425
Si Si5 0.971856 0.515589 0.915383
Si Si6 0.873867 0.976798 0.093837
Si Si7 0.525280 0.743682 0.496268
O O1 0.295685 0.086278 0.088421
O O2 0.146007 0.222868 0.133624
O O3 0.293410 0.385209 0.084213
O O4 0.250000 0.250000 0.000000
O O5 0.240552 0.600428 0.802920
O O6 0.289436 0.809732 0.699894
O O7 0.166186 0.601378 0.719065
O O8 0.339565 0.528913 0.674415
O O9 0.922000 0.508887 0.126095
O O10 0.000000 0.314607 0.250000
O O11 0.927183 0.471414 0.361579
O O12 0.940253 0.374494 0.967449
O O13 0.969213 0.670098 0.958595
O O14 0.898623 0.141539 0.058898
O O15 0.960287 0.869517 0.054365
#
# Coordination Sequence:
#
# PCOD9268980 Si02
#       7
#     8   8   8   8   8   8   8
#     4  10  21  39  59  84 120 155 193 249 301 354
#     4  10  21  38  56  85 114 150 195 242 295 352
#     4  10  21  37  58  85 114 153 198 238 295 353
#     4  10  20  34  56  83 114 148 192 243 294 347
#     4  11  20  35  59  87 106 155 197 240 282 362
#     4   9  19  37  54  83 115 153 180 250 287 346
#     4  10  20  33  58  84 113 145 204 229 291 350
#
# _framework density 20.034786
#
# number of rings (size 3 to 8) (size 9 to 14) (size 15 to 20)
#    0.000    2.286    4.286    0.857    4.000    0.000 
#    0.000    4.286    0.000    0.000    0.000    0.000 
#    0.000    0.000    0.000    0.000    0.000    0.000 
#
# Total GULP energy -155983.891458 kJ/mol
# GULP energy per Si atom -5570.853266 kJ/mol
# Density = 1.998919 g / cm^3
# Si number density = 20.034786 Si / 1000 Ang^3
#
#
#
# Elastic Constant Matrix: (Units=GPa)
#
#
# Indices 1 2 3 4 5 6 
#
# 1 52.3362 5.2291 20.4698 0.0000 -6.1698 0.0000
# 2 5.2291 37.5813 15.5853 0.0000 -6.2506 0.0000
# 3 20.4698 15.5853 97.6361 0.0000 -11.6371 0.0000
# 4 0.0000 0.0000 0.0000 36.6286 0.0000 -8.5814
# 5 -6.1698 -6.2506 -11.6371 0.0000 40.7366 0.0000
# 6 0.0000 0.0000 0.0000 -8.5814 0.0000 20.4051
#
#
#
# Elastic Compliance Matrix: (Units=1/GPa)
#
#
# Indices 1 2 3 4 5 6 
#
# 1 0.020999 -0.000938 -0.004028 0.000000 0.001886 0.000000
# 2 -0.000938 0.028941 -0.004049 0.000000 0.003142 0.000000
# 3 -0.004028 -0.004049 0.011995 0.000000 0.002195 0.000000
# 4 0.000000 0.000000 0.000000 0.030285 0.000000 0.012736
# 5 0.001886 0.003142 0.002195 0.000000 0.025943 0.000000
# 6 0.000000 0.000000 0.000000 0.012736 0.000000 0.054364
#
#
# Mechanical properties :
#
#
# Convention : Reuss Voigt Hill
#
# Bulk Modulus (GPa) = 22.77618 30.01357 26.39487
# Shear Modulus (GPa) = 24.36773 29.30535 26.83654
#
# Velocity S-wave (km/s) = 3.49129 3.82871 3.66388
# Velocity P-wave (km/s) = 5.25787 5.87865 5.57690
#
# Compressibility (1/GPa) = 0.04390552
#
# Stress axis : x y z
#
# Youngs Moduli (GPa) = 47.62205 34.55299 83.37144
#
# Poissons Ratio (x) = 0.03240 0.33582
# Poissons Ratio (y) = 0.04465 0.33754
# Poissons Ratio (z) = 0.19182 0.13989
#
# Static dielectric constant tensor:
#      x y z
#    x 1.734460 0.000000 -0.001690 
#    y 0.000000 1.735790 0.000000 
#    z -0.001690 0.000000 1.795700 
# 
# From -- ./inp_files/276237.got.cif
#   From: 2010.05.17/outbox.cif.g08.bks.cpg/sg15_139_cif.got.tgz:276237.got - 2010.06.03 18:47:42.
