data_PCOD9268501
_publ_section_title
;
Structure prediction by ZEFSAII (Michael W. Deem and Ramdas Pophale) SiO2 
 PCOD9268501
Probable space group: C 2/C
;
_chemical_formula_sum "Si O2"
_cell_formula_units_Z 60
_cell_length_a 14.948211
_cell_length_b 8.966133
_cell_length_c 25.183577
_cell_angle_alpha 90.000000
_cell_angle_beta 115.793444
_cell_angle_gamma 90.000000
_cell_volume 3039.010053
_symmetry_space_group_name_H-M "C 2/C"
_symmetry_group_IT_number 15
_symmetry_cell_setting 'monoclinic'
loop_
_space_group_symop_operation_xyz
x,y,z
-x,y,1/2-z
-x,-y,-z
x,-y,1/2+z
1/2+x,1/2+y,z
1/2-x,1/2+y,1/2-z
1/2-x,1/2-y,-z
1/2+x,1/2-y,1/2+z
loop_
_atom_site_type_symbol
_atom_site_label
_atom_site_fract_x
_atom_site_fract_y
_atom_site_fract_z
Si Si1 0.354177 0.074351 0.148112
Si Si2 0.963623 0.116451 0.064449
Si Si3 0.922496 0.895317 0.149770
Si Si4 0.140373 0.181381 0.678078
Si Si5 0.794847 0.536981 0.252476
Si Si6 0.000000 0.883386 0.750000
Si Si7 0.968149 0.647436 0.835161
Si Si8 0.853287 0.074802 0.931786
O O1 0.351506 0.056584 0.211143
O O2 0.450301 0.981738 0.154077
O O3 0.255622 0.996916 0.098927
O O4 0.353420 0.250692 0.134849
O O5 0.997872 0.263506 0.104054
O O6 0.919584 0.999784 0.096689
O O7 0.885087 0.136574 0.996929
O O8 0.062688 0.044739 0.064153
O O9 0.031601 0.819293 0.174375
O O10 0.922241 0.004964 0.200634
O O11 0.209275 0.307145 0.719705
O O12 0.189421 0.026355 0.708036
O O13 0.139957 0.192641 0.614582
O O14 0.860700 0.429426 0.306421
O O15 0.967061 0.771137 0.788011
#
# Coordination Sequence:
#
# PCOD9268501 Si02
#       8
#     8   8   8   8   8   4   8   8
#     4  11  21  36  59  85 119 146 187 238 301 328
#     4   9  21  41  61  79 114 152 203 228 280 339
#     4  10  20  35  57  86 113 153 185 239 283 345
#     4  10  22  35  59  81 117 150 189 228 291 338
#     4  11  22  35  55  87 118 149 184 238 287 353
#     4  10  20  32  52  82 118 144 186 220 292 338
#     4  11  21  36  57  84 115 153 183 241 285 342
#     4   9  21  41  61  80 112 157 193 240 277 335
#
# _framework density 19.743271
#
# number of rings (size 3 to 8) (size 9 to 14) (size 15 to 20)
#    0.000    1.867    2.667    0.800    7.467    1.067 
#    0.000    0.667    0.000    0.000    0.000    0.000 
#    0.000    0.000    0.000    0.000    0.000    0.000 
#
# Total GULP energy -167437.971971 kJ/mol
# GULP energy per Si atom -5581.265732 kJ/mol
# Density = 1.969833 g / cm^3
# Si number density = 19.743271 Si / 1000 Ang^3
#
#
#
# Elastic Constant Matrix: (Units=GPa)
#
#
# Indices 1 2 3 4 5 6 
#
# 1 21.8614 -7.3541 3.9803 0.0000 8.5536 0.0000
# 2 -7.3541 50.1797 14.5963 0.0000 -2.9808 0.0000
# 3 3.9803 14.5963 113.1288 0.0000 7.7622 0.0000
# 4 0.0000 0.0000 0.0000 21.2154 0.0000 8.8200
# 5 8.5536 -2.9808 7.7622 0.0000 19.9752 0.0000
# 6 0.0000 0.0000 0.0000 8.8200 0.0000 9.3799
#
#
#
# Elastic Compliance Matrix: (Units=1/GPa)
#
#
# Indices 1 2 3 4 5 6 
#
# 1 0.057496 0.007473 -0.001412 0.000000 -0.022956 0.000000
# 2 0.007473 0.022033 -0.003197 0.000000 0.001330 0.000000
# 3 -0.001412 -0.003197 0.009547 0.000000 -0.003582 0.000000
# 4 0.000000 0.000000 0.000000 0.077388 0.000000 -0.072768
# 5 -0.022956 0.001330 -0.003582 0.000000 0.061483 0.000000
# 6 0.000000 0.000000 0.000000 -0.072768 0.000000 0.175035
#
#
# Mechanical properties :
#
#
# Convention : Reuss Voigt Hill
#
# Bulk Modulus (GPa) = 10.54800 23.06832 16.80816
# Shear Modulus (GPa) = 11.65898 21.71060 16.68479
#
# Velocity S-wave (km/s) = 2.43272 3.31969 2.91019
# Velocity P-wave (km/s) = 3.63937 5.13841 4.45243
#
# Compressibility (1/GPa) = 0.09480474
#
# Stress axis : x y z
#
# Youngs Moduli (GPa) = 17.39255 45.38739 104.74002
#
# Poissons Ratio (x) = -0.33920 0.14790
# Poissons Ratio (y) = -0.12998 0.33485
# Poissons Ratio (z) = 0.02456 0.14510
#
# Static dielectric constant tensor:
#      x y z
#    x 1.718800 0.000000 -0.009250 
#    y 0.000000 1.709930 0.000000 
#    z -0.009250 0.000000 1.687640 
# 
# From -- ./inp_files/247449.got.cif
#   From: 2010.05.17/outbox.cif.g08.bks.cpg/sg15_124_cif.got.tgz:247449.got - 2010.06.03 18:47:42.
