data_PCOD9268745
_publ_section_title
;
Structure prediction by ZEFSAII (Michael W. Deem and Ramdas Pophale) SiO2 
 PCOD9268745
Probable space group: C 2/C
;
_chemical_formula_sum "Si O2"
_cell_formula_units_Z 40
_cell_length_a 5.419780
_cell_length_b 14.162361
_cell_length_c 22.897729
_cell_angle_alpha 90.000000
_cell_angle_beta 53.511065
_cell_angle_gamma 90.000000
_cell_volume 1413.027132
_symmetry_space_group_name_H-M "C 2/C"
_symmetry_group_IT_number 15
_symmetry_cell_setting 'monoclinic'
loop_
_space_group_symop_operation_xyz
x,y,z
-x,y,1/2-z
-x,-y,-z
x,-y,1/2+z
1/2+x,1/2+y,z
1/2-x,1/2+y,1/2-z
1/2-x,1/2-y,-z
1/2+x,1/2-y,1/2+z
loop_
_atom_site_type_symbol
_atom_site_label
_atom_site_fract_x
_atom_site_fract_y
_atom_site_fract_z
Si Si1 0.000000 0.919410 0.250000
Si Si2 0.500000 0.902124 0.750000
Si Si3 0.078611 0.339555 0.051035
Si Si4 0.965841 0.333416 0.946520
Si Si5 0.124427 0.502655 0.125579
Si Si6 0.899903 0.236624 0.678679
O O1 0.741490 0.982652 0.316823
O O2 0.192613 0.850428 0.266706
O O3 0.356065 0.828643 0.724747
O O4 0.286802 0.967489 0.821215
O O5 0.227919 0.407868 0.078247
O O6 0.754429 0.297760 0.119344
O O7 0.250000 0.250000 0.000000
O O8 0.047672 0.392250 0.992863
O O9 0.200639 0.274282 0.871356
O O10 0.817288 0.407510 0.922992
O O11 0.750000 0.250000 0.000000
#
# Coordination Sequence:
#
# PCOD9268745 Si02
#       6
#     4   4   8   8   8   8
#     4   9  18  32  52  75 100 132 172 213 250 297
#     4   9  18  34  52  73 100 132 170 207 252 303
#     4  10  20  33  51  78 105 129 168 214 249 293
#     4   9  18  35  54  72 102 140 170 202 252 306
#     4  10  20  34  53  77 103 134 170 207 251 300
#     4   8  17  35  52  68 100 140 168 202 255 303
#
# _framework density 28.308022000000001
#
# number of rings (size 3 to 8) (size 9 to 14) (size 15 to 20)
#    0.000    2.800    0.000    0.600    0.000    3.200 
#    0.000    9.000    0.000    0.000    0.000    0.000 
#    0.000    0.000    0.000    0.000    0.000    0.000 
#
# Total GULP energy -111558.859653 kJ/mol
# GULP energy per Si atom -5577.942983 kJ/mol
# Density = 2.824359 g / cm^3
# Si number density = 28.308022 Si / 1000 Ang^3
#
#
#
# Elastic Constant Matrix: (Units=GPa)
#
#
# Indices 1 2 3 4 5 6 
#
# 1 51.5193 20.9376 37.3327 -0.0008 1.6077 0.0018
# 2 20.9376 209.9683 77.4300 -0.0004 30.9377 0.0009
# 3 37.3327 77.4300 199.0480 -0.0001 23.0954 0.0005
# 4 -0.0008 -0.0004 -0.0001 61.9124 0.0002 14.6892
# 5 1.6077 30.9377 23.0954 0.0002 33.8376 -0.0005
# 6 0.0018 0.0009 0.0005 14.6892 -0.0005 28.6486
#
#
#
# Elastic Compliance Matrix: (Units=1/GPa)
#
#
# Indices 1 2 3 4 5 6 
#
# 1 0.022802 -0.001156 -0.004153 0.000001 0.002808 -0.000002
# 2 -0.001156 0.006142 -0.001659 0.000000 -0.004429 0.000000
# 3 -0.004153 -0.001659 0.006787 0.000000 -0.002918 0.000000
# 4 0.000001 0.000000 0.000000 0.018389 0.000000 -0.009429
# 5 0.002808 -0.004429 -0.002918 0.000000 0.035461 0.000001
# 6 -0.000002 0.000000 0.000000 -0.009429 0.000001 0.039740
#
#
# Mechanical properties :
#
#
# Convention : Reuss Voigt Hill
#
# Bulk Modulus (GPa) = 45.88093 81.32625 63.60359
# Shear Modulus (GPa) = 33.21824 46.53540 39.87682
#
# Velocity S-wave (km/s) = 3.42929 4.05890 3.75730
# Velocity P-wave (km/s) = 5.65004 7.12444 6.42964
#
# Compressibility (1/GPa) = 0.02179555
#
# Stress axis : x y z
#
# Youngs Moduli (GPa) = 43.85664 162.81085 147.34962
#
# Poissons Ratio (x) = 0.18822 0.61189
# Poissons Ratio (y) = 0.05070 0.24439
# Poissons Ratio (z) = 0.18212 0.27004
#
# Static dielectric constant tensor:
#      x y z
#    x 1.920750 0.000010 -0.323060 
#    y 0.000010 2.278330 0.000000 
#    z -0.323060 0.000000 2.005470 
# 
# From -- ./inp_files/188418.got.cif
#   From: 2010.05.17/outbox.cif.g08.bks.cpg/sg15_95_cif.got.tgz:188418.got - 2010.06.03 18:47:42.
