data_PCOD9268191
_publ_section_title
;
Structure prediction by ZEFSAII (Michael W. Deem and Ramdas Pophale) SiO2 
 PCOD9268191
Probable space group: C 2/C
;
_chemical_formula_sum "Si O2"
_cell_formula_units_Z 40
_cell_length_a 13.389419
_cell_length_b 7.206492
_cell_length_c 16.519025
_cell_angle_alpha 90.000000
_cell_angle_beta 104.446370
_cell_angle_gamma 90.000000
_cell_volume 1543.535315
_symmetry_space_group_name_H-M "C 2/C"
_symmetry_group_IT_number 15
_symmetry_cell_setting 'monoclinic'
loop_
_space_group_symop_operation_xyz
x,y,z
-x,y,1/2-z
-x,-y,-z
x,-y,1/2+z
1/2+x,1/2+y,z
1/2-x,1/2+y,1/2-z
1/2-x,1/2-y,-z
1/2+x,1/2-y,1/2+z
loop_
_atom_site_type_symbol
_atom_site_label
_atom_site_fract_x
_atom_site_fract_y
_atom_site_fract_z
Si Si1 0.836465 0.756832 0.590095
Si Si2 0.352539 0.364850 0.174731
Si Si3 0.150645 0.861207 0.142787
Si Si4 0.976848 0.420520 0.593110
Si Si5 0.334751 0.729446 0.444360
O O1 0.750000 0.750000 0.500000
O O2 0.770596 0.680076 0.652397
O O3 0.934630 0.626657 0.598107
O O4 0.868798 0.963858 0.617612
O O5 0.374437 0.418060 0.270988
O O6 0.419813 0.196364 0.153751
O O7 0.232493 0.305654 0.143448
O O8 0.089791 0.669216 0.116054
O O9 0.127265 0.026541 0.074721
O O10 0.925024 0.351669 0.498862
O O11 0.250000 0.750000 0.500000
#
# Coordination Sequence:
#
# PCOD9268191 Si02
#       5
#     8   8   8   8   8
#     4  12  24  45  73 105 148 199 254 315 377 466
#     4  11  23  45  70 105 149 190 249 316 387 448
#     4  12  24  43  74 106 147 200 245 316 392 442
#     4  11  24  47  70 106 148 191 255 308 368 475
#     4  10  19  43  70  95 144 198 238 301 373 457
#
# _framework density 25.914532999999999
#
# number of rings (size 3 to 8) (size 9 to 14) (size 15 to 20)
#    0.000    0.800    6.000    3.600    0.000    0.800 
#    3.600    2.000    0.000    0.000    0.000    0.000 
#    0.000    0.000    0.000    0.000    0.000    0.000 
#
# Total GULP energy -111967.864769 kJ/mol
# GULP energy per Si atom -5598.393238 kJ/mol
# Density = 2.585555 g / cm^3
# Si number density = 25.914533 Si / 1000 Ang^3
#
#
#
# Elastic Constant Matrix: (Units=GPa)
#
#
# Indices 1 2 3 4 5 6 
#
# 1 103.2231 27.2297 11.2591 0.0000 -20.5489 0.0000
# 2 27.2297 147.3477 29.9556 0.0000 -14.1542 0.0000
# 3 11.2591 29.9556 131.9800 0.0000 -18.1448 0.0000
# 4 0.0000 0.0000 0.0000 32.8347 0.0000 -4.5844
# 5 -20.5489 -14.1542 -18.1448 0.0000 34.3722 0.0000
# 6 0.0000 0.0000 0.0000 -4.5844 0.0000 47.6513
#
#
#
# Elastic Compliance Matrix: (Units=1/GPa)
#
#
# Indices 1 2 3 4 5 6 
#
# 1 0.011313 -0.001539 0.000245 0.000000 0.006259 0.000000
# 2 -0.001539 0.007488 -0.001370 0.000000 0.001440 0.000000
# 3 0.000245 -0.001370 0.008421 0.000000 0.004027 0.000000
# 4 0.000000 0.000000 0.000000 0.030870 0.000000 0.002970
# 5 0.006259 0.001440 0.004027 0.000000 0.035554 0.000000
# 6 0.000000 0.000000 0.000000 0.002970 0.000000 0.021272
#
#
# Mechanical properties :
#
#
# Convention : Reuss Voigt Hill
#
# Bulk Modulus (GPa) = 45.67837 57.71552 51.69694
# Shear Modulus (GPa) = 39.20208 43.91206 41.55707
#
# Velocity S-wave (km/s) = 3.89362 4.12089 4.00887
# Velocity P-wave (km/s) = 6.15455 6.70538 6.43586
#
# Compressibility (1/GPa) = 0.02189220
#
# Stress axis : x y z
#
# Youngs Moduli (GPa) = 88.39370 133.54683 118.75474
#
# Poissons Ratio (x) = 0.20555 -0.02906
# Poissons Ratio (y) = 0.13605 0.16273
# Poissons Ratio (z) = -0.02163 0.18300
#
# Static dielectric constant tensor:
#      x y z
#    x 2.059390 0.000000 -0.007340 
#    y 0.000000 2.093630 0.000000 
#    z -0.007340 0.000000 2.094210 
# 
# From -- ./inp_files/150697.got.cif
#   From: 2010.05.17/outbox.cif.g08.bks.cpg/sg15_76_cif.got.tgz:150697.got - 2010.06.03 18:47:42.
