data_PCOD9268412
_publ_section_title
;
Structure prediction by ZEFSAII (Michael W. Deem and Ramdas Pophale) SiO2 
 PCOD9268412
Probable space group: C 2/C
;
_chemical_formula_sum "Si O2"
_cell_formula_units_Z 40
_cell_length_a 27.981458
_cell_length_b 6.592890
_cell_length_c 7.587568
_cell_angle_alpha 90.000000
_cell_angle_beta 100.613823
_cell_angle_gamma 90.000000
_cell_volume 1375.796177
_symmetry_space_group_name_H-M "C 2/C"
_symmetry_group_IT_number 15
_symmetry_cell_setting 'monoclinic'
loop_
_space_group_symop_operation_xyz
x,y,z
-x,y,1/2-z
-x,-y,-z
x,-y,1/2+z
1/2+x,1/2+y,z
1/2-x,1/2+y,1/2-z
1/2-x,1/2-y,-z
1/2+x,1/2-y,1/2+z
loop_
_atom_site_type_symbol
_atom_site_label
_atom_site_fract_x
_atom_site_fract_y
_atom_site_fract_z
Si Si1 0.489318 0.262769 0.950157
Si Si2 0.108762 0.825999 0.735281
Si Si3 0.911673 0.287663 0.875596
Si Si4 0.810184 0.329224 0.743320
Si Si5 0.795180 0.936483 0.884865
O O1 0.500000 0.238363 0.750000
O O2 0.431243 0.234342 0.928839
O O3 0.500000 0.500000 0.000000
O O4 0.531361 0.153778 0.094409
O O5 0.163969 0.829043 0.706033
O O6 0.095612 0.068842 0.723272
O O7 0.097169 0.747758 0.922113
O O8 0.864876 0.414466 0.774560
O O9 0.800634 0.186982 0.567728
O O10 0.760430 0.451502 0.720017
O O11 0.809588 0.171563 0.904377
#
# Coordination Sequence:
#
# PCOD9268412 Si02
#       5
#     8   8   8   8   8
#     4   8  14  22  34  56  83 110 139 172 212 258
#     4   9  15  24  39  59  85 114 143 176 216 259
#     4   9  15  24  39  59  85 114 143 176 216 259
#     4  10  20  32  46  66  91 118 150 185 220 261
#     4  10  20  32  46  66  91 118 150 185 220 261
#
# _framework density 29.074076999999999
#
# number of rings (size 3 to 8) (size 9 to 14) (size 15 to 20)
#    0.000    2.800    0.000    4.800    0.000    4.800 
#    0.000    0.000    0.000    0.000    0.000    1.400 
#    0.000    0.000    0.000    0.000    0.000    0.000 
#
# Total GULP energy -111907.151380 kJ/mol
# GULP energy per Si atom -5595.357569 kJ/mol
# Density = 2.900790 g / cm^3
# Si number density = 29.074077 Si / 1000 Ang^3
#
#
#
# Elastic Constant Matrix: (Units=GPa)
#
#
# Indices 1 2 3 4 5 6 
#
# 1 252.9263 20.7313 87.9101 0.0000 74.6914 0.0000
# 2 20.7313 56.4842 16.6985 0.0000 4.3170 0.0000
# 3 87.9101 16.6985 115.3161 0.0000 17.4589 0.0000
# 4 0.0000 0.0000 0.0000 33.5912 0.0000 16.8737
# 5 74.6914 4.3170 17.4589 0.0000 87.2283 0.0000
# 6 0.0000 0.0000 0.0000 16.8737 0.0000 49.3545
#
#
#
# Elastic Compliance Matrix: (Units=1/GPa)
#
#
# Indices 1 2 3 4 5 6 
#
# 1 0.007116 -0.000883 -0.004518 0.000000 -0.005145 0.000000
# 2 -0.000883 0.018618 -0.002060 0.000000 0.000247 0.000000
# 3 -0.004518 -0.002060 0.012182 0.000000 0.001532 0.000000
# 4 0.000000 0.000000 0.000000 0.035942 0.000000 -0.012288
# 5 -0.005145 0.000247 0.001532 0.000000 0.015551 0.000000
# 6 0.000000 0.000000 0.000000 -0.012288 0.000000 0.024463
#
#
# Mechanical properties :
#
#
# Convention : Reuss Voigt Hill
#
# Bulk Modulus (GPa) = 43.48906 75.04515 59.26711
# Shear Modulus (GPa) = 36.64090 53.99389 45.31740
#
# Velocity S-wave (km/s) = 3.55387 4.31410 3.95230
# Velocity P-wave (km/s) = 5.64185 7.11920 6.42314
#
# Compressibility (1/GPa) = 0.02299429
#
# Stress axis : x y z
#
# Youngs Moduli (GPa) = 140.53360 53.71042 82.08617
#
# Poissons Ratio (x) = 0.04742 0.37085
# Poissons Ratio (y) = 0.12407 0.16913
# Poissons Ratio (z) = 0.63490 0.11067
#
# Static dielectric constant tensor:
#      x y z
#    x 2.314160 0.000000 0.087520 
#    y 0.000000 2.416390 0.000000 
#    z 0.087520 0.000000 2.235130 
# 
# From -- ./inp_files/64745.got.cif
#   From: 2010.05.17/outbox.cif.g08.bks.cpg/sg15_33_cif.got.tgz:64745.got - 2010.06.03 18:47:42.
