data_PCOD9268787
_publ_section_title
;
Structure prediction by ZEFSAII (Michael W. Deem and Ramdas Pophale) SiO2 
 PCOD9268787
Probable space group: C 2/C
;
_chemical_formula_sum "Si O2"
_cell_formula_units_Z 56
_cell_length_a 7.800479
_cell_length_b 27.011802
_cell_length_c 16.824417
_cell_angle_alpha 90.000000
_cell_angle_beta 135.312805
_cell_angle_gamma 90.000000
_cell_volume 2492.963059
_symmetry_space_group_name_H-M "C 2/C"
_symmetry_group_IT_number 15
_symmetry_cell_setting 'monoclinic'
loop_
_space_group_symop_operation_xyz
x,y,z
-x,y,1/2-z
-x,-y,-z
x,-y,1/2+z
1/2+x,1/2+y,z
1/2-x,1/2+y,1/2-z
1/2-x,1/2-y,-z
1/2+x,1/2-y,1/2+z
loop_
_atom_site_type_symbol
_atom_site_label
_atom_site_fract_x
_atom_site_fract_y
_atom_site_fract_z
Si Si1 0.990142 0.048207 0.340114
Si Si2 0.202552 0.460543 0.040501
Si Si3 0.024314 0.315119 0.905348
Si Si4 0.418190 0.122348 0.511965
Si Si5 0.477435 0.708565 0.836376
Si Si6 0.724128 0.130979 0.865685
Si Si7 0.246723 0.092577 0.095263
O O1 0.218958 0.079296 0.447507
O O2 0.000000 0.057271 0.250000
O O3 0.778100 0.070547 0.325040
O O4 0.043966 0.989954 0.369482
O O5 0.166266 0.409008 0.076648
O O6 0.146856 0.446679 0.931520
O O7 0.000000 0.500000 0.000000
O O8 0.116301 0.355552 0.872261
O O9 0.916110 0.266453 0.829696
O O10 0.259122 0.299922 0.035942
O O11 0.864449 0.343017 0.918900
O O12 0.383101 0.148708 0.584439
O O13 0.500000 0.697589 0.750000
O O14 0.298875 0.674273 0.829285
O O15 0.500000 0.102227 0.750000
O O16 0.975098 0.102740 0.968218
#
# Coordination Sequence:
#
# PCOD9268787 Si02
#       7
#     8   8   8   8   8   8   8
#     4  10  20  33  52  80 111 142 177 218 267 320
#     4   9  18  35  55  76 105 142 180 223 266 314
#     4   9  19  36  56  75 103 143 179 219 271 322
#     4   9  19  36  53  75 107 141 180 221 265 320
#     4  10  20  34  54  79 105 137 179 224 271 324
#     4  10  20  34  54  79 106 139 180 229 275 320
#     4   9  19  36  57  78 108 145 181 222 271 326
#
# _framework density 22.463229999999999
#
# number of rings (size 3 to 8) (size 9 to 14) (size 15 to 20)
#    0.000    2.571    0.000    1.286    0.000    2.857 
#    0.000   10.714    0.000    0.000    0.000    0.000 
#    0.000    0.000    0.000    0.000    0.000    0.000 
#
# Total GULP energy -156091.837072 kJ/mol
# GULP energy per Si atom -5574.708467 kJ/mol
# Density = 2.241210 g / cm^3
# Si number density = 22.463230 Si / 1000 Ang^3
#
#
#
# Elastic Constant Matrix: (Units=GPa)
#
#
# Indices 1 2 3 4 5 6 
#
# 1 100.7654 50.3260 49.1065 0.0000 -53.1777 0.0000
# 2 50.3260 104.6295 38.4071 0.0000 -36.2615 0.0000
# 3 49.1065 38.4071 105.1362 0.0000 -38.2808 0.0000
# 4 0.0000 0.0000 0.0000 25.1581 0.0000 -5.4163
# 5 -53.1777 -36.2615 -38.2808 0.0000 51.0985 0.0000
# 6 0.0000 0.0000 0.0000 -5.4163 0.0000 -1.2869
#
#
#
# Elastic Compliance Matrix: (Units=1/GPa)
#
#
# Indices 1 2 3 4 5 6 
#
# 1 0.023436 -0.003406 -0.002340 0.000000 0.020220 0.000000
# 2 -0.003406 0.013441 -0.001563 0.000000 0.004822 0.000000
# 3 -0.002340 -0.001563 0.013593 0.000000 0.006638 0.000000
# 4 0.000000 0.000000 0.000000 0.020853 0.000000 -0.087765
# 5 0.020220 0.004822 0.006638 0.000000 0.049008 0.000000
# 6 0.000000 0.000000 0.000000 -0.087765 0.000000 -0.407659
#
#
# Mechanical properties :
#
#
# Convention : Reuss Voigt Hill
#
# Bulk Modulus (GPa) = 27.89338 65.13448 46.51393
# Shear Modulus (GPa) = -19.17486 26.50670 3.66592
#
# Velocity S-wave (km/s) = -2.92483 3.43884 1.27887
# Velocity P-wave (km/s) = 1.01888 6.69526 4.78877
#
# Compressibility (1/GPa) = 0.03585080
#
# Stress axis : x y z
#
# Youngs Moduli (GPa) = 42.66888 74.39915 73.56929
#
# Poissons Ratio (x) = 0.25342 0.17216
# Poissons Ratio (y) = 0.14534 0.11501
# Poissons Ratio (z) = 0.09985 0.11631
#
# Static dielectric constant tensor:
#      x y z
#    x 1.949310 0.000000 0.040210 
#    y 0.000000 1.845130 0.000000 
#    z 0.040210 0.000000 1.880900 
# 
# From -- ./inp_files/138681.got.cif
#   From: 2010.05.17/outbox.cif.g08.bks.cpg/sg15_70_cif.got.tgz:138681.got - 2010.06.03 18:47:42.
