data_PCOD9268118
_publ_section_title
;
Structure prediction by ZEFSAII (Michael W. Deem and Ramdas Pophale) SiO2 
 PCOD9268118
Probable space group: C 2/C
;
_chemical_formula_sum "Si O2"
_cell_formula_units_Z 36
_cell_length_a 17.128203
_cell_length_b 8.044282
_cell_length_c 12.308332
_cell_angle_alpha 90.000000
_cell_angle_beta 107.279563
_cell_angle_gamma 90.000000
_cell_volume 1619.351354
_symmetry_space_group_name_H-M "C 2/C"
_symmetry_group_IT_number 15
_symmetry_cell_setting 'monoclinic'
loop_
_space_group_symop_operation_xyz
x,y,z
-x,y,1/2-z
-x,-y,-z
x,-y,1/2+z
1/2+x,1/2+y,z
1/2-x,1/2+y,1/2-z
1/2-x,1/2-y,-z
1/2+x,1/2-y,1/2+z
loop_
_atom_site_type_symbol
_atom_site_label
_atom_site_fract_x
_atom_site_fract_y
_atom_site_fract_z
Si Si1 0.500000 0.878294 0.250000
Si Si2 0.645200 0.885059 0.165528
Si Si3 0.975600 0.046573 0.864177
Si Si4 0.101636 0.338579 0.905508
Si Si5 0.818367 0.764477 0.272056
O O1 0.562381 0.811925 0.184489
O O2 0.434478 0.987893 0.153466
O O3 0.725133 0.810031 0.255607
O O4 0.652827 0.086029 0.170839
O O5 0.640544 0.843667 0.038272
O O6 0.879248 0.086467 0.828514
O O7 0.000000 0.972832 0.750000
O O8 0.022828 0.221604 0.874177
O O9 0.000000 0.000000 0.000000
O O10 0.166254 0.262453 0.849147
#
# Coordination Sequence:
#
# PCOD9268118 Si02
#       5
#     4   8   8   8   8
#     4  10  20  40  62  92 120 170 220 264 322 396
#     4  11  22  40  66  91 129 169 218 264 333 390
#     4  10  21  42  66  95 134 177 223 268 335 398
#     4  10  19  42  66  84 126 182 211 261 333 400
#     4  10  23  41  63  98 126 168 219 272 329 390
#
# _framework density 22.231124999999999
#
# number of rings (size 3 to 8) (size 9 to 14) (size 15 to 20)
#    0.000    1.778    5.556    1.333    3.111    0.000 
#    6.000    4.444    0.000    0.000    0.000    0.000 
#    0.000    0.000    0.000    0.000    0.000    0.000 
#
# Total GULP energy -100233.714859 kJ/mol
# GULP energy per Si atom -5568.539714 kJ/mol
# Density = 2.218053 g / cm^3
# Si number density = 22.231125 Si / 1000 Ang^3
#
#
#
# Elastic Constant Matrix: (Units=GPa)
#
#
# Indices 1 2 3 4 5 6 
#
# 1 116.8929 7.4517 30.0167 0.0000 7.6354 0.0000
# 2 7.4517 8.9472 27.7355 0.0000 -6.8906 0.0000
# 3 30.0167 27.7355 152.2555 0.0000 -12.0110 0.0000
# 4 0.0000 0.0000 0.0000 6.3829 0.0000 -6.2270
# 5 7.6354 -6.8906 -12.0110 0.0000 24.2720 0.0000
# 6 0.0000 0.0000 0.0000 -6.2270 0.0000 34.6345
#
#
#
# Elastic Compliance Matrix: (Units=1/GPa)
#
#
# Indices 1 2 3 4 5 6 
#
# 1 0.009876 -0.013408 -0.000052 0.000000 -0.006939 0.000000
# 2 -0.013408 0.357566 -0.056352 0.000000 0.077841 0.000000
# 3 -0.000052 -0.056352 0.016216 0.000000 -0.007957 0.000000
# 4 0.000000 0.000000 0.000000 0.189994 0.000000 0.034159
# 5 -0.006939 0.077841 -0.007957 0.000000 0.061543 0.000000
# 6 0.000000 0.000000 0.000000 0.034159 0.000000 0.035014
#
#
# Mechanical properties :
#
#
# Convention : Reuss Voigt Hill
#
# Bulk Modulus (GPa) = 4.09779 45.38926 24.74352
# Shear Modulus (GPa) = 5.61055 27.25067 16.43061
#
# Velocity S-wave (km/s) = 1.59035 3.50493 2.72155
# Velocity P-wave (km/s) = 2.28464 6.06965 4.58586
#
# Compressibility (1/GPa) = 0.24403395
#
# Stress axis : x y z
#
# Youngs Moduli (GPa) = 101.25385 2.79669 61.66847
#
# Poissons Ratio (x) = 0.03750 0.00320
# Poissons Ratio (y) = 1.35762 3.47513
# Poissons Ratio (z) = 0.00526 0.15760
#
# Static dielectric constant tensor:
#      x y z
#    x 1.855870 0.000000 -0.116510 
#    y 0.000000 1.979290 0.000000 
#    z -0.116510 0.000000 1.977660 
# 
# From -- ./inp_files/94432.got.cif
#   From: 2010.05.17/outbox.cif.g08.bks.cpg/sg15_48_cif.got.tgz:94432.got - 2010.06.03 18:47:42.
