data_PCOD9268599
_publ_section_title
;
Structure prediction by ZEFSAII (Michael W. Deem and Ramdas Pophale) SiO2 
 PCOD9268599
Probable space group: C 2/C
;
_chemical_formula_sum "Si O2"
_cell_formula_units_Z 48
_cell_length_a 17.678671
_cell_length_b 29.817789
_cell_length_c 8.511070
_cell_angle_alpha 90.000000
_cell_angle_beta 145.997027
_cell_angle_gamma 90.000000
_cell_volume 2509.020861
_symmetry_space_group_name_H-M "C 2/C"
_symmetry_group_IT_number 15
_symmetry_cell_setting 'monoclinic'
loop_
_space_group_symop_operation_xyz
x,y,z
-x,y,1/2-z
-x,-y,-z
x,-y,1/2+z
1/2+x,1/2+y,z
1/2-x,1/2+y,1/2-z
1/2-x,1/2-y,-z
1/2+x,1/2-y,1/2+z
loop_
_atom_site_type_symbol
_atom_site_label
_atom_site_fract_x
_atom_site_fract_y
_atom_site_fract_z
Si Si1 0.363603 0.225095 0.293474
Si Si2 0.786982 0.866495 0.297132
Si Si3 0.343192 0.649291 0.527523
Si Si4 0.847333 0.946935 0.919139
Si Si5 0.346314 0.538533 0.045528
Si Si6 0.000000 0.201743 0.250000
Si Si7 0.000000 0.674928 0.250000
O O1 0.442645 0.262996 0.524837
O O2 0.464464 0.203397 0.342392
O O3 0.250000 0.250000 0.000000
O O4 0.270401 0.186405 0.213128
O O5 0.843954 0.858950 0.217986
O O6 0.793966 0.917191 0.368836
O O7 0.875138 0.833036 0.559355
O O8 0.632250 0.852795 0.019273
O O9 0.500000 0.660038 0.750000
O O10 0.294546 0.602331 0.368707
O O11 0.846688 0.954917 0.732416
O O12 0.000000 0.944285 0.250000
O O13 0.781803 0.990681 0.887523
O O14 0.500000 0.535508 0.250000
#
# Coordination Sequence:
#
# PCOD9268599 Si02
#       7
#     8   8   8   8   8   4   4
#     4  11  24  42  60  89 124 165 208 262 307 371
#     4  11  23  40  62  90 126 162 208 256 311 377
#     4  10  21  39  61  86 126 165 206 260 315 359
#     4  10  20  32  57  91 125 164 195 263 311 362
#     4  11  19  34  58  92 127 156 211 251 313 371
#     4  12  24  40  62  93 117 172 210 256 312 362
#     4  10  24  46  62  85 129 164 206 258 322 360
#
# _framework density 19.130969
#
# number of rings (size 3 to 8) (size 9 to 14) (size 15 to 20)
#    0.000    1.333    4.167    5.000    1.167    2.000 
#    0.000    0.000    0.000   10.000    0.000    0.000 
#    0.000    0.000    0.000    0.000    0.000    0.000 
#
# Total GULP energy -133775.519663 kJ/mol
# GULP energy per Si atom -5573.979986 kJ/mol
# Density = 1.908743 g / cm^3
# Si number density = 19.130969 Si / 1000 Ang^3
#
#
#
# Elastic Constant Matrix: (Units=GPa)
#
#
# Indices 1 2 3 4 5 6 
#
# 1 78.5872 29.2957 23.0428 0.0000 7.6116 0.0000
# 2 29.2957 151.5443 30.6338 0.0000 10.8731 0.0000
# 3 23.0428 30.6338 74.9011 0.0000 8.2356 0.0000
# 4 0.0000 0.0000 0.0000 47.2862 0.0000 -6.5248
# 5 7.6116 10.8731 8.2356 0.0000 26.5171 0.0000
# 6 0.0000 0.0000 0.0000 -6.5248 0.0000 34.6510
#
#
#
# Elastic Compliance Matrix: (Units=1/GPa)
#
#
# Indices 1 2 3 4 5 6 
#
# 1 0.014701 -0.001975 -0.003458 0.000000 -0.002336 0.000000
# 2 -0.001975 0.007574 -0.002289 0.000000 -0.001828 0.000000
# 3 -0.003458 -0.002289 0.015674 0.000000 -0.002937 0.000000
# 4 0.000000 0.000000 0.000000 0.021712 0.000000 0.004088
# 5 -0.002336 -0.001828 -0.002937 0.000000 0.040044 0.000000
# 6 0.000000 0.000000 0.000000 0.004088 0.000000 0.029629
#
#
# Mechanical properties :
#
#
# Convention : Reuss Voigt Hill
#
# Bulk Modulus (GPa) = 44.43538 52.33078 48.38308
# Shear Modulus (GPa) = 32.83407 36.49490 34.66448
#
# Velocity S-wave (km/s) = 4.14729 4.37239 4.26133
# Velocity P-wave (km/s) = 6.79785 7.27349 7.03969
#
# Compressibility (1/GPa) = 0.02250459
#
# Stress axis : x y z
#
# Youngs Moduli (GPa) = 68.02132 132.02213 63.80021
#
# Poissons Ratio (x) = 0.26079 0.22062
# Poissons Ratio (y) = 0.13437 0.14605
# Poissons Ratio (z) = 0.23522 0.30223
#
# Static dielectric constant tensor:
#      x y z
#    x 1.713660 0.000000 -0.091650 
#    y 0.000000 1.766800 0.000000 
#    z -0.091650 0.000000 1.534000 
# 
# From -- ./inp_files/52898.got.cif
#   From: 2010.05.17/outbox.cif.g08.bks.cpg/sg15_27_cif.got.tgz:52898.got - 2010.06.03 18:47:42.
