data_PCOD9268620
_publ_section_title
;
Structure prediction by ZEFSAII (Michael W. Deem and Ramdas Pophale) SiO2 
 PCOD9268620
Probable space group: C 2/C
;
_chemical_formula_sum "Si O2"
_cell_formula_units_Z 60
_cell_length_a 22.301054
_cell_length_b 7.677387
_cell_length_c 29.613434
_cell_angle_alpha 90.000000
_cell_angle_beta 27.360443
_cell_angle_gamma 90.000000
_cell_volume 2330.210055
_symmetry_space_group_name_H-M "C 2/C"
_symmetry_group_IT_number 15
_symmetry_cell_setting 'monoclinic'
loop_
_space_group_symop_operation_xyz
x,y,z
-x,y,1/2-z
-x,-y,-z
x,-y,1/2+z
1/2+x,1/2+y,z
1/2-x,1/2+y,1/2-z
1/2-x,1/2-y,-z
1/2+x,1/2-y,1/2+z
loop_
_atom_site_type_symbol
_atom_site_label
_atom_site_fract_x
_atom_site_fract_y
_atom_site_fract_z
Si Si1 0.802655 0.201292 0.854159
Si Si2 0.532948 0.122499 0.068646
Si Si3 0.115339 0.291735 0.313541
Si Si4 0.492339 0.487434 0.559036
Si Si5 0.000000 0.743033 0.750000
Si Si6 0.738584 0.917006 0.143741
Si Si7 0.068374 0.215721 0.635671
Si Si8 0.875986 0.136355 0.417009
O O1 0.760115 0.374377 0.856164
O O2 0.863420 0.253105 0.862405
O O3 0.923778 0.138885 0.743069
O O4 0.672773 0.090802 0.950882
O O5 0.554083 0.131766 0.108930
O O6 0.429464 0.968636 0.131362
O O7 0.491083 0.318232 0.081193
O O8 0.122676 0.133261 0.344168
O O9 0.993154 0.223992 0.365313
O O10 0.225733 0.331389 0.202017
O O11 0.500000 0.500000 0.500000
O O12 0.631161 0.382043 0.472516
O O13 0.106623 0.631926 0.705469
O O14 0.082076 0.865499 0.663068
O O15 0.145113 0.064482 0.557798
O O16 0.750000 0.250000 0.500000
#
# Coordination Sequence:
#
# PCOD9268620 Si02
#       8
#     8   8   8   8   4   8   8   8
#     4  10  21  34  60  92 137 179 220 265 331 409
#     4  11  23  41  66  95 129 175 228 283 343 401
#     4  11  23  43  67  98 134 171 229 283 340 406
#     4  11  26  50  70  96 133 179 232 293 347 405
#     4  10  20  32  58  92 136 172 210 258 324 396
#     4  10  22  41  66 101 138 178 221 279 336 408
#     4  11  20  36  57  94 134 181 220 266 333 404
#     4  11  22  34  57  95 136 180 220 262 325 406
#
# _framework density 25.748752
#
# number of rings (size 3 to 8) (size 9 to 14) (size 15 to 20)
#    0.000    1.333    2.667    3.600    3.733    2.667 
#    2.400    0.000    0.000    0.000    0.000    0.000 
#    0.000    0.000    0.000    0.000    0.000    0.000 
#
# Total GULP energy -167746.584875 kJ/mol
# GULP energy per Si atom -5591.552829 kJ/mol
# Density = 2.569015 g / cm^3
# Si number density = 25.748752 Si / 1000 Ang^3
#
#
#
# Elastic Constant Matrix: (Units=GPa)
#
#
# Indices 1 2 3 4 5 6 
#
# 1 76.9024 13.0624 -2.1461 0.0028 10.0061 0.0038
# 2 13.0624 96.2792 26.0846 0.0064 12.9560 0.0110
# 3 -2.1461 26.0846 135.6070 -0.0049 13.4916 -0.0013
# 4 0.0028 0.0064 -0.0049 41.0875 -0.0003 10.8883
# 5 10.0061 12.9560 13.4916 -0.0003 33.4100 0.0002
# 6 0.0038 0.0110 -0.0013 10.8883 0.0002 19.3579
#
#
#
# Elastic Compliance Matrix: (Units=1/GPa)
#
#
# Indices 1 2 3 4 5 6 
#
# 1 0.013806 -0.001598 0.000912 0.000000 -0.003884 -0.000002
# 2 -0.001598 0.011560 -0.001928 0.000000 -0.003226 -0.000006
# 3 0.000912 -0.001928 0.008035 0.000001 -0.002770 0.000001
# 4 0.000000 0.000000 0.000001 0.028602 0.000000 -0.016088
# 5 -0.003884 -0.003226 -0.002770 0.000000 0.033464 0.000002
# 6 -0.000002 -0.000006 0.000001 -0.016088 0.000002 0.060707
#
#
# Mechanical properties :
#
#
# Convention : Reuss Voigt Hill
#
# Bulk Modulus (GPa) = 35.49407 42.53227 39.01317
# Shear Modulus (GPa) = 29.27554 36.89024 33.08289
#
# Velocity S-wave (km/s) = 3.37556 3.78921 3.58835
# Velocity P-wave (km/s) = 5.38583 5.97480 5.68794
#
# Compressibility (1/GPa) = 0.02817372
#
# Stress axis : x y z
#
# Youngs Moduli (GPa) = 72.43432 86.50819 124.45322
#
# Poissons Ratio (x) = 0.13820 -0.11352
# Poissons Ratio (y) = 0.11572 0.23993
# Poissons Ratio (z) = -0.06607 0.16678
#
# Static dielectric constant tensor:
#      x y z
#    x 2.102950 0.000000 -0.002280 
#    y 0.000000 2.091860 0.000000 
#    z -0.002280 0.000000 2.032490 
# 
# From -- ./inp_files/302108.got.cif
#   From: 2010.05.17/outbox.cif.g08.bks.cpg/sg15_152_cif.got.tgz:302108.got - 2010.06.03 18:47:42.
