data_PCOD9268172
_publ_section_title
;
Structure prediction by ZEFSAII (Michael W. Deem and Ramdas Pophale) SiO2 
 PCOD9268172
Probable space group: C 2/C
;
_chemical_formula_sum "Si O2"
_cell_formula_units_Z 56
_cell_length_a 13.606075
_cell_length_b 12.059271
_cell_length_c 14.128388
_cell_angle_alpha 90.000000
_cell_angle_beta 116.751946
_cell_angle_gamma 90.000000
_cell_volume 2070.047503
_symmetry_space_group_name_H-M "C 2/C"
_symmetry_group_IT_number 15
_symmetry_cell_setting 'monoclinic'
loop_
_space_group_symop_operation_xyz
x,y,z
-x,y,1/2-z
-x,-y,-z
x,-y,1/2+z
1/2+x,1/2+y,z
1/2-x,1/2+y,1/2-z
1/2-x,1/2-y,-z
1/2+x,1/2-y,1/2+z
loop_
_atom_site_type_symbol
_atom_site_label
_atom_site_fract_x
_atom_site_fract_y
_atom_site_fract_z
Si Si1 0.104123 0.499336 0.667903
Si Si2 0.557071 0.770140 0.188315
Si Si3 0.599496 0.112065 0.377423
Si Si4 0.663684 0.441280 0.529948
Si Si5 0.847872 0.802967 0.483855
Si Si6 0.334967 0.545636 0.241607
Si Si7 0.043041 0.165969 0.654719
O O1 0.128044 0.631002 0.676625
O O2 0.110220 0.444051 0.776997
O O3 0.208175 0.453364 0.656157
O O4 0.978067 0.466372 0.591137
O O5 0.500000 0.833684 0.250000
O O6 0.609010 0.661894 0.259728
O O7 0.464664 0.737065 0.074187
O O8 0.727386 0.120374 0.460871
O O9 0.534158 0.228953 0.350502
O O10 0.670001 0.568063 0.503740
O O11 0.662916 0.440466 0.643248
O O12 0.546413 0.401209 0.443942
O O13 0.750000 0.750000 0.500000
O O14 0.861678 0.792189 0.375971
O O15 0.397073 0.427380 0.252320
#
# Coordination Sequence:
#
# PCOD9268172 Si02
#       7
#     8   8   8   8   8   8   8
#     4  10  23  42  61  87 131 173 208 258 330 380
#     4  12  23  42  64  88 129 168 216 257 317 392
#     4  10  21  39  67  92 127 172 208 260 326 374
#     4  10  19  43  65  93 129 163 212 265 323 380
#     4  11  23  39  68  96 128 169 214 264 319 380
#     4  10  22  40  65  92 121 172 210 260 322 379
#     4  11  21  41  66  97 130 161 221 266 318 382
#
# _framework density 27.052517999999999
#
# number of rings (size 3 to 8) (size 9 to 14) (size 15 to 20)
#    0.000    1.429    4.286    2.143    6.000    0.000 
#    2.571    4.286    0.000    0.000    0.000    0.000 
#    0.000    0.000    0.000    0.000    0.000    0.000 
#
# Total GULP energy -156497.377221 kJ/mol
# GULP energy per Si atom -5589.192044 kJ/mol
# Density = 2.699095 g / cm^3
# Si number density = 27.052518 Si / 1000 Ang^3
#
#
#
# Elastic Constant Matrix: (Units=GPa)
#
#
# Indices 1 2 3 4 5 6 
#
# 1 159.1577 52.6904 10.5747 0.0000 27.8277 0.0000
# 2 52.6904 176.0613 -1.6717 0.0000 7.7989 0.0000
# 3 10.5747 -1.6717 30.6590 0.0000 5.8280 0.0000
# 4 0.0000 0.0000 0.0000 17.6561 0.0000 -3.6747
# 5 27.8277 7.7989 5.8280 0.0000 41.5171 0.0000
# 6 0.0000 0.0000 0.0000 -3.6747 0.0000 40.4015
#
#
#
# Elastic Compliance Matrix: (Units=1/GPa)
#
#
# Indices 1 2 3 4 5 6 
#
# 1 0.007952 -0.002193 -0.001980 0.000000 -0.004640 0.000000
# 2 -0.002193 0.006341 0.001078 0.000000 0.000128 0.000000
# 3 -0.001980 0.001078 0.034053 0.000000 -0.003655 0.000000
# 4 0.000000 0.000000 0.000000 0.057731 0.000000 0.005251
# 5 -0.004640 0.000128 -0.003655 0.000000 0.027686 0.000000
# 6 0.000000 0.000000 0.000000 0.005251 0.000000 0.025229
#
#
# Mechanical properties :
#
#
# Convention : Reuss Voigt Hill
#
# Bulk Modulus (GPa) = 23.72180 54.34052 39.03116
# Shear Modulus (GPa) = 27.89644 40.20058 34.04851
#
# Velocity S-wave (km/s) = 3.21471 3.85908 3.55154
# Velocity P-wave (km/s) = 4.75047 6.32355 5.59259
#
# Compressibility (1/GPa) = 0.04215532
#
# Stress axis : x y z
#
# Youngs Moduli (GPa) = 125.75516 157.71000 29.36556
#
# Poissons Ratio (x) = 0.34587 0.05815
# Poissons Ratio (y) = 0.27579 -0.03165
# Poissons Ratio (z) = 0.24903 -0.17000
#
# Static dielectric constant tensor:
#      x y z
#    x 2.152030 0.000000 -0.042410 
#    y 0.000000 2.147680 0.000000 
#    z -0.042410 0.000000 2.197800 
# 
# From -- ./inp_files/204547.got.cif
#   From: 2010.05.17/outbox.cif.g08.bks.cpg/sg15_103_cif.got.tgz:204547.got - 2010.06.03 18:47:42.
