data_PCOD9268151
_publ_section_title
;
Structure prediction by ZEFSAII (Michael W. Deem and Ramdas Pophale) SiO2 
 PCOD9268151
Probable space group: C 2/C
;
_chemical_formula_sum "Si O2"
_cell_formula_units_Z 36
_cell_length_a 8.067553
_cell_length_b 13.314280
_cell_length_c 13.253862
_cell_angle_alpha 90.000000
_cell_angle_beta 79.465175
_cell_angle_gamma 90.000000
_cell_volume 1399.648791
_symmetry_space_group_name_H-M "C 2/C"
_symmetry_group_IT_number 15
_symmetry_cell_setting 'monoclinic'
loop_
_space_group_symop_operation_xyz
x,y,z
-x,y,1/2-z
-x,-y,-z
x,-y,1/2+z
1/2+x,1/2+y,z
1/2-x,1/2+y,1/2-z
1/2-x,1/2-y,-z
1/2+x,1/2-y,1/2+z
loop_
_atom_site_type_symbol
_atom_site_label
_atom_site_fract_x
_atom_site_fract_y
_atom_site_fract_z
Si Si1 0.636454 0.346928 0.501981
Si Si2 0.136037 0.187079 0.322242
Si Si3 0.880741 0.531109 0.103933
Si Si4 0.176191 0.051941 0.782530
Si Si5 0.500000 0.190386 0.250000
O O1 0.750000 0.250000 0.500000
O O2 0.452787 0.311348 0.558908
O O3 0.706854 0.428460 0.574186
O O4 0.669258 0.391972 0.389080
O O5 0.316813 0.240160 0.287966
O O6 0.000000 0.215088 0.250000
O O7 0.176713 0.068518 0.303824
O O8 0.833583 0.443084 0.187618
O O9 0.968439 0.621018 0.155377
O O10 0.000000 0.500000 0.000000
O O11 0.000000 0.074135 0.750000
#
# Coordination Sequence:
#
# PCOD9268151 Si02
#       5
#     8   8   8   8   4
#     4  12  25  44  68 107 148 181 227 314 375 397
#     4  10  19  42  71 100 136 186 240 289 342 433
#     4  11  22  41  66 103 137 185 242 288 340 436
#     4  10  21  41  72 100 132 194 245 281 346 440
#     4  10  20  36  68  98 126 186 238 282 338 414
#
# _framework density 25.720738000000001
#
# number of rings (size 3 to 8) (size 9 to 14) (size 15 to 20)
#    0.000    1.333    6.667    3.333    3.111    0.000 
#    6.000    1.111    0.000    0.000    0.000    0.000 
#    0.000    0.000    0.000    0.000    0.000    0.000 
#
# Total GULP energy -100814.120128 kJ/mol
# GULP energy per Si atom -5600.784452 kJ/mol
# Density = 2.566220 g / cm^3
# Si number density = 25.720738 Si / 1000 Ang^3
#
#
#
# Elastic Constant Matrix: (Units=GPa)
#
#
# Indices 1 2 3 4 5 6 
#
# 1 160.8471 27.3917 67.1710 0.0000 -33.0220 0.0000
# 2 27.3917 65.9573 35.8698 0.0000 -7.0465 0.0000
# 3 67.1710 35.8698 201.3275 0.0000 -30.2622 0.0000
# 4 0.0000 0.0000 0.0000 25.5841 0.0000 1.4192
# 5 -33.0220 -7.0465 -30.2622 0.0000 64.8424 0.0000
# 6 0.0000 0.0000 0.0000 1.4192 0.0000 28.1460
#
#
#
# Elastic Compliance Matrix: (Units=1/GPa)
#
#
# Indices 1 2 3 4 5 6 
#
# 1 0.007934 -0.001972 -0.001850 0.000000 0.002963 0.000000
# 2 -0.001972 0.017291 -0.002464 0.000000 -0.000275 0.000000
# 3 -0.001850 -0.002464 0.006282 0.000000 0.001722 0.000000
# 4 0.000000 0.000000 0.000000 0.039196 0.000000 -0.001976
# 5 0.002963 -0.000275 0.001722 0.000000 0.017704 0.000000
# 6 0.000000 0.000000 0.000000 -0.001976 0.000000 0.035629
#
#
# Mechanical properties :
#
#
# Convention : Reuss Voigt Hill
#
# Bulk Modulus (GPa) = 52.81520 76.55523 64.68521
# Shear Modulus (GPa) = 34.98438 43.56114 39.27276
#
# Velocity S-wave (km/s) = 3.69204 4.11983 3.91178
# Velocity P-wave (km/s) = 6.22523 7.24287 6.75325
#
# Compressibility (1/GPa) = 0.01893394
#
# Stress axis : x y z
#
# Youngs Moduli (GPa) = 126.04176 57.83365 159.17917
#
# Poissons Ratio (x) = 0.11405 0.29454
# Poissons Ratio (y) = 0.24857 0.39223
# Poissons Ratio (z) = 0.23323 0.14251
#
# Static dielectric constant tensor:
#      x y z
#    x 2.079460 0.000000 -0.035190 
#    y 0.000000 2.156280 0.000000 
#    z -0.035190 0.000000 2.079620 
# 
# From -- ./inp_files/76343.got.cif
#   From: 2010.05.17/outbox.cif.g08.bks.cpg/sg15_39_cif.got.tgz:76343.got - 2010.06.03 18:47:42.
