data_PCOD9268904
_publ_section_title
;
Structure prediction by ZEFSAII (Michael W. Deem and Ramdas Pophale) SiO2 
 PCOD9268904
Probable space group: C 2/C
;
_chemical_formula_sum "Si O2"
_cell_formula_units_Z 52
_cell_length_a 22.659856
_cell_length_b 18.499797
_cell_length_c 11.945327
_cell_angle_alpha 90.000000
_cell_angle_beta 146.346215
_cell_angle_gamma 90.000000
_cell_volume 2775.029873
_symmetry_space_group_name_H-M "C 2/C"
_symmetry_group_IT_number 15
_symmetry_cell_setting 'monoclinic'
loop_
_space_group_symop_operation_xyz
x,y,z
-x,y,1/2-z
-x,-y,-z
x,-y,1/2+z
1/2+x,1/2+y,z
1/2-x,1/2+y,1/2-z
1/2-x,1/2-y,-z
1/2+x,1/2-y,1/2+z
loop_
_atom_site_type_symbol
_atom_site_label
_atom_site_fract_x
_atom_site_fract_y
_atom_site_fract_z
Si Si1 0.385807 0.261059 0.341338
Si Si2 0.603346 0.102036 0.717508
Si Si3 0.618514 0.963406 0.621298
Si Si4 0.617003 0.749733 0.114565
Si Si5 0.500000 0.059715 0.250000
Si Si6 0.318348 0.156630 0.423530
Si Si7 0.169857 0.318979 0.971334
O O1 0.505407 0.276476 0.490273
O O2 0.380531 0.218091 0.450419
O O3 0.295386 0.323586 0.200237
O O4 0.341873 0.209691 0.172729
O O5 0.478894 0.087965 0.494394
O O6 0.638344 0.170061 0.698280
O O7 0.655440 0.024603 0.766894
O O8 0.621105 0.125055 0.873390
O O9 0.700764 0.910131 0.691901
O O10 0.556604 0.009507 0.429532
O O11 0.710194 0.694560 0.291219
O O12 0.622277 0.762853 0.988784
O O13 0.596565 0.110944 0.363967
#
# Coordination Sequence:
#
# PCOD9268904 Si02
#       7
#     8   8   8   8   4   8   8
#     4  10  20  35  55  82 122 151 191 241 286 352
#     4  11  21  37  53  86 121 154 187 245 300 349
#     4  11  22  34  59  84 117 149 193 247 298 343
#     4  11  20  36  57  83 123 157 193 239 293 354
#     4  12  18  36  58  80 114 140 194 256 284 344
#     4  11  23  35  56  90 117 155 197 237 297 360
#     4  10  20  33  55  86 112 153 197 237 296 339
#
# _framework density 18.738537999999998
#
# number of rings (size 3 to 8) (size 9 to 14) (size 15 to 20)
#    0.000    1.231    6.154    0.462    2.154    0.000 
#    0.000    0.000    0.000    0.923    0.000    0.000 
#    0.000    0.000    0.000    0.000    0.000    0.000 
#
# Total GULP energy -144923.010396 kJ/mol
# GULP energy per Si atom -5573.961938 kJ/mol
# Density = 1.869589 g / cm^3
# Si number density = 18.738538 Si / 1000 Ang^3
#
#
#
# Elastic Constant Matrix: (Units=GPa)
#
#
# Indices 1 2 3 4 5 6 
#
# 1 90.6031 32.4665 48.5636 0.0000 4.9712 0.0000
# 2 32.4665 92.6781 42.3336 0.0000 11.3649 0.0000
# 3 48.5636 42.3336 67.1083 0.0000 10.7167 0.0000
# 4 0.0000 0.0000 0.0000 30.2566 0.0000 1.6390
# 5 4.9712 11.3649 10.7167 0.0000 44.7697 0.0000
# 6 0.0000 0.0000 0.0000 1.6390 0.0000 35.1143
#
#
#
# Elastic Compliance Matrix: (Units=1/GPa)
#
#
# Indices 1 2 3 4 5 6 
#
# 1 0.018113 -0.000589 -0.012933 0.000000 0.001234 0.000000
# 2 -0.000589 0.015291 -0.008952 0.000000 -0.001673 0.000000
# 3 -0.012933 -0.008952 0.030481 0.000000 -0.003588 0.000000
# 4 0.000000 0.000000 0.000000 0.033134 0.000000 -0.001547
# 5 0.001234 -0.001673 -0.003588 0.000000 0.023483 0.000000
# 6 0.000000 0.000000 0.000000 -0.001547 0.000000 0.028551
#
#
# Mechanical properties :
#
#
# Convention : Reuss Voigt Hill
#
# Bulk Modulus (GPa) = 52.81091 55.23523 54.02307
# Shear Modulus (GPa) = 24.96099 30.49650 27.72875
#
# Velocity S-wave (km/s) = 3.65371 4.03857 3.85095
# Velocity P-wave (km/s) = 6.78555 7.16153 6.97608
#
# Compressibility (1/GPa) = 0.01893548
#
# Stress axis : x y z
#
# Youngs Moduli (GPa) = 55.21038 65.39858 32.80771
#
# Poissons Ratio (x) = 0.03852 0.42430
# Poissons Ratio (y) = 0.03252 0.29371
# Poissons Ratio (z) = 0.71403 0.58548
#
# Static dielectric constant tensor:
#      x y z
#    x 1.761580 0.000000 -0.011800 
#    y 0.000000 1.681700 0.000000 
#    z -0.011800 0.000000 1.669290 
# 
# From -- ./inp_files/114392.got.cif
#   From: 2010.05.17/outbox.cif.g08.bks.cpg/sg15_58_cif.got.tgz:114392.got - 2010.06.03 18:47:42.
