data_PCOD9268346
_publ_section_title
;
Structure prediction by ZEFSAII (Michael W. Deem and Ramdas Pophale) SiO2 
 PCOD9268346
Probable space group: C 2/C
;
_chemical_formula_sum "Si O2"
_cell_formula_units_Z 64
_cell_length_a 23.376571
_cell_length_b 5.283598
_cell_length_c 26.691469
_cell_angle_alpha 90.000000
_cell_angle_beta 111.707293
_cell_angle_gamma 90.000000
_cell_volume 3062.941715
_symmetry_space_group_name_H-M "C 2/C"
_symmetry_group_IT_number 15
_symmetry_cell_setting 'monoclinic'
loop_
_space_group_symop_operation_xyz
x,y,z
-x,y,1/2-z
-x,-y,-z
x,-y,1/2+z
1/2+x,1/2+y,z
1/2-x,1/2+y,1/2-z
1/2-x,1/2-y,-z
1/2+x,1/2-y,1/2+z
loop_
_atom_site_type_symbol
_atom_site_label
_atom_site_fract_x
_atom_site_fract_y
_atom_site_fract_z
Si Si1 0.909566 0.531231 0.696924
Si Si2 0.472459 0.100401 0.316895
Si Si3 0.178296 0.032650 0.693601
Si Si4 0.651524 0.522802 0.856757
Si Si5 0.943786 0.035703 0.594995
Si Si6 0.040927 0.250753 0.004912
Si Si7 0.745983 0.030667 0.680552
Si Si8 0.565839 0.735602 0.117862
O O1 0.927475 0.398900 0.755142
O O2 0.867624 0.315454 0.658212
O O3 0.972526 0.577578 0.686581
O O4 0.878473 0.804530 0.688380
O O5 0.434397 0.990542 0.350637
O O6 0.514565 0.330581 0.348577
O O7 0.212149 0.796307 0.677786
O O8 0.106912 0.966797 0.661154
O O9 0.201489 0.028026 0.758592
O O10 0.201767 0.294881 0.677984
O O11 0.620655 0.459774 0.900655
O O12 0.722331 0.508297 0.863336
O O13 0.934890 0.219158 0.543959
O O14 0.992633 0.825716 0.593309
O O15 0.087044 0.252287 0.067245
O O16 0.000000 0.500000 0.000000
O O17 0.000000 0.000000 0.000000
#
# Coordination Sequence:
#
# PCOD9268346 Si02
#       8
#     8   8   8   8   8   8   8   8
#     4  10  22  31  50  82 116 150 180 220 275 350
#     4  10  20  31  50  81 121 143 180 222 282 347
#     4  10  23  37  58  79 111 150 197 234 279 335
#     4  11  21  38  57  78 116 154 187 231 286 345
#     4  10  22  36  57  88 117 148 188 235 298 346
#     4  10  21  37  56  83 119 149 188 235 290 351
#     4  10  22  40  54  80 110 152 195 236 276 338
#     4  11  21  36  60  82 116 150 191 237 288 344
#
# _framework density 20.894943000000001
#
# number of rings (size 3 to 8) (size 9 to 14) (size 15 to 20)
#    0.000    1.750    2.500    1.500    5.250    2.000 
#    0.000    0.000    0.000    1.500    0.000    0.000 
#    0.000    0.000    0.000    0.000    0.000    0.000 
#
# Total GULP energy -178222.861409 kJ/mol
# GULP energy per Si atom -5569.464419 kJ/mol
# Density = 2.084739 g / cm^3
# Si number density = 20.894943 Si / 1000 Ang^3
#
#
#
# Elastic Constant Matrix: (Units=GPa)
#
#
# Indices 1 2 3 4 5 6 
#
# 1 82.1389 23.2786 -0.7026 0.0005 -11.5104 0.0000
# 2 23.2786 93.4955 3.2963 0.0012 -5.2440 -0.0007
# 3 -0.7026 3.2963 55.6091 0.0005 -9.7352 0.0000
# 4 0.0005 0.0012 0.0005 15.6963 -0.0003 -6.5850
# 5 -11.5104 -5.2440 -9.7352 -0.0003 18.5965 0.0000
# 6 0.0000 -0.0007 0.0000 -6.5850 0.0000 19.4253
#
#
#
# Elastic Compliance Matrix: (Units=1/GPa)
#
#
# Indices 1 2 3 4 5 6 
#
# 1 0.014342 -0.003134 0.001945 0.000000 0.009011 0.000000
# 2 -0.003134 0.011553 -0.000543 -0.000001 0.001034 0.000000
# 3 0.001945 -0.000543 0.020062 0.000000 0.011553 0.000000
# 4 0.000000 -0.000001 0.000000 0.074272 0.000001 0.025177
# 5 0.009011 0.001034 0.011553 0.000001 0.065690 0.000000
# 6 0.000000 0.000000 0.000000 0.025177 0.000000 0.060014
#
#
# Mechanical properties :
#
#
# Convention : Reuss Voigt Hill
#
# Bulk Modulus (GPa) = 23.53427 31.44313 27.48870
# Shear Modulus (GPa) = 18.97079 24.43504 21.70292
#
# Velocity S-wave (km/s) = 3.01643 3.42339 3.22633
# Velocity P-wave (km/s) = 4.83936 5.54139 5.20223
#
# Compressibility (1/GPa) = 0.04249123
#
# Stress axis : x y z
#
# Youngs Moduli (GPa) = 69.72459 86.55651 49.84571
#
# Poissons Ratio (x) = 0.27127 -0.09693
# Poissons Ratio (y) = 0.21852 0.02709
# Poissons Ratio (z) = -0.13558 0.04704
#
# Static dielectric constant tensor:
#      x y z
#    x 1.822100 0.000000 -0.045430 
#    y 0.000000 1.774610 0.000000 
#    z -0.045430 0.000000 1.837060 
# 
# From -- ./inp_files/317015.got.cif
#   From: 2010.05.17/outbox.cif.g08.bks.cpg/sg15_159_cif.got.tgz:317015.got - 2010.06.03 18:47:42.
