data_PCOD9268250
_publ_section_title
;
Structure prediction by ZEFSAII (Michael W. Deem and Ramdas Pophale) SiO2 
 PCOD9268250
Probable space group: C 2/C
;
_chemical_formula_sum "Si O2"
_cell_formula_units_Z 60
_cell_length_a 25.158374
_cell_length_b 22.825308
_cell_length_c 9.667886
_cell_angle_alpha 90.000000
_cell_angle_beta 142.367548
_cell_angle_gamma 90.000000
_cell_volume 3389.870726
_symmetry_space_group_name_H-M "C 2/C"
_symmetry_group_IT_number 15
_symmetry_cell_setting 'monoclinic'
loop_
_space_group_symop_operation_xyz
x,y,z
-x,y,1/2-z
-x,-y,-z
x,-y,1/2+z
1/2+x,1/2+y,z
1/2-x,1/2+y,1/2-z
1/2-x,1/2-y,-z
1/2+x,1/2-y,1/2+z
loop_
_atom_site_type_symbol
_atom_site_label
_atom_site_fract_x
_atom_site_fract_y
_atom_site_fract_z
Si Si1 0.048332 0.708935 0.214984
Si Si2 0.339491 0.315016 0.169388
Si Si3 0.218201 0.680344 0.676271
Si Si4 0.863221 0.147391 0.165087
Si Si5 0.000000 0.013967 0.750000
Si Si6 0.568971 0.221344 0.767280
Si Si7 0.961898 0.923547 0.449292
Si Si8 0.236270 0.809859 0.780511
O O1 0.099883 0.760234 0.242687
O O2 0.122106 0.664619 0.424175
O O3 0.000000 0.733714 0.250000
O O4 0.976047 0.690423 0.956856
O O5 0.274054 0.301506 0.157518
O O6 0.399188 0.368754 0.337009
O O7 0.288602 0.329027 0.924307
O O8 0.208459 0.741159 0.741056
O O9 0.281353 0.638539 0.893022
O O10 0.906805 0.210402 0.214890
O O11 0.819309 0.154420 0.224013
O O12 0.939203 0.099578 0.323879
O O13 0.944996 0.971663 0.533550
O O14 0.045912 0.052779 0.724892
O O15 0.500000 0.220067 0.750000
O O16 0.660350 0.190311 0.987511
#
# Coordination Sequence:
#
# PCOD9268250 Si02
#       8
#     8   8   8   8   4   8   8   8
#     4  11  19  29  45  68  98 135 169 201 228 266
#     4  11  20  32  49  67  91 135 173 197 235 296
#     4  10  20  30  43  68  99 125 169 214 225 260
#     4  11  20  32  49  67  91 135 173 197 235 296
#     4  10  24  38  48  78  92 118 160 234 264 278
#     4  11  19  29  45  68  98 135 169 201 228 266
#     4  11  22  36  56  68  98 128 170 204 258 303
#     4  10  20  30  43  68  99 125 169 214 225 260
#
# _framework density 17.699788999999999
#
# number of rings (size 3 to 8) (size 9 to 14) (size 15 to 20)
#    0.000    1.333    1.333    9.600    1.867    0.000 
#    0.000    0.000    0.000    0.000    0.000    0.000 
#    0.000    0.000    0.000  302.400    0.000    0.000 
#
# Total GULP energy -167359.820540 kJ/mol
# GULP energy per Si atom -5578.660685 kJ/mol
# Density = 1.765950 g / cm^3
# Si number density = 17.699789 Si / 1000 Ang^3
#
#
#
# Elastic Constant Matrix: (Units=GPa)
#
#
# Indices 1 2 3 4 5 6 
#
# 1 55.2248 -2.8474 1.6019 0.0000 -4.8883 0.0000
# 2 -2.8474 25.1772 -0.8897 0.0000 6.4406 0.0000
# 3 1.6019 -0.8897 111.5337 0.0000 11.0932 0.0000
# 4 0.0000 0.0000 0.0000 15.2940 0.0000 -8.2664
# 5 -4.8883 6.4406 11.0932 0.0000 36.1589 0.0000
# 6 0.0000 0.0000 0.0000 -8.2664 0.0000 11.4676
#
#
#
# Elastic Compliance Matrix: (Units=1/GPa)
#
#
# Indices 1 2 3 4 5 6 
#
# 1 0.018408 0.001456 -0.000489 0.000000 0.002379 0.000000
# 2 0.001456 0.041862 0.001068 0.000000 -0.007587 0.000000
# 3 -0.000489 0.001068 0.009290 0.000000 -0.003107 0.000000
# 4 0.000000 0.000000 0.000000 0.107121 0.000000 0.077218
# 5 0.002379 -0.007587 -0.003107 0.000000 0.030282 0.000000
# 6 0.000000 0.000000 0.000000 0.077218 0.000000 0.142865
#
#
# Mechanical properties :
#
#
# Convention : Reuss Voigt Hill
#
# Bulk Modulus (GPa) = 13.58180 20.85170 17.21675
# Shear Modulus (GPa) = 13.50249 25.52216 19.51233
#
# Velocity S-wave (km/s) = 2.76499 3.80142 3.32385
# Velocity P-wave (km/s) = 4.22891 5.57441 4.94761
#
# Compressibility (1/GPa) = 0.07362795
#
# Stress axis : x y z
#
# Youngs Moduli (GPa) = 54.32521 23.88819 107.63771
#
# Poissons Ratio (x) = -0.03478 0.05268
# Poissons Ratio (y) = -0.07909 -0.11492
# Poissons Ratio (z) = 0.02659 -0.02550
#
# Static dielectric constant tensor:
#      x y z
#    x 1.610460 0.000000 -0.015960 
#    y 0.000000 1.579910 0.000000 
#    z -0.015960 0.000000 1.692460 
# 
# From -- ./inp_files/52038.got.cif
#   From: 2010.05.17/outbox.cif.g08.bks.cpg/sg15_27_cif.got.tgz:52038.got - 2010.06.03 18:47:42.
