data_PCOD9268415
_publ_section_title
;
Structure prediction by ZEFSAII (Michael W. Deem and Ramdas Pophale) SiO2 
 PCOD9268415
Probable space group: C 2/C
;
_chemical_formula_sum "Si O2"
_cell_formula_units_Z 48
_cell_length_a 6.148845
_cell_length_b 29.002093
_cell_length_c 12.228247
_cell_angle_alpha 90.000000
_cell_angle_beta 65.774398
_cell_angle_gamma 90.000000
_cell_volume 1988.620246
_symmetry_space_group_name_H-M "C 2/C"
_symmetry_group_IT_number 15
_symmetry_cell_setting 'monoclinic'
loop_
_space_group_symop_operation_xyz
x,y,z
-x,y,1/2-z
-x,-y,-z
x,-y,1/2+z
1/2+x,1/2+y,z
1/2-x,1/2+y,1/2-z
1/2-x,1/2-y,-z
1/2+x,1/2-y,1/2+z
loop_
_atom_site_type_symbol
_atom_site_label
_atom_site_fract_x
_atom_site_fract_y
_atom_site_fract_z
Si Si1 0.887795 0.479622 0.411729
Si Si2 0.358888 0.896832 0.086173
Si Si3 0.362705 0.645815 0.421365
Si Si4 0.380923 0.563339 0.081128
Si Si5 0.439211 0.213796 0.142473
Si Si6 0.591617 0.686148 0.590362
O O1 0.794172 0.521153 0.353083
O O2 0.638523 0.457273 0.500698
O O3 0.000000 0.500000 0.500000
O O4 0.075206 0.438444 0.345258
O O5 0.204944 0.851923 0.150000
O O6 0.610305 0.879530 0.987018
O O7 0.220323 0.917754 0.011905
O O8 0.567280 0.607565 0.352451
O O9 0.439263 0.663060 0.525299
O O10 0.291987 0.689433 0.361297
O O11 0.500000 0.194515 0.250000
O O12 0.436592 0.269186 0.154350
O O13 0.664127 0.203529 0.018252
#
# Coordination Sequence:
#
# PCOD9268415 Si02
#       6
#     8   8   8   8   8   8
#     4   8  12  19  34  60  92 127 148 188 240 289
#     4   8  14  24  40  61  89 127 150 196 242 294
#     4   9  16  28  44  62  90 130 157 198 251 296
#     4   8  13  21  36  60  91 128 149 191 239 297
#     4  10  20  32  47  67  91 128 170 211 246 303
#     4   9  18  32  47  65  92 129 164 203 259 292
#
# _framework density 24.137339000000001
#
# number of rings (size 3 to 8) (size 9 to 14) (size 15 to 20)
#    0.000    3.333    0.000    0.500    0.000    0.667 
#    0.000    0.000    0.000    0.000    0.000    0.000 
#    0.000    0.000 3133.667    0.000    0.000    2.667 
#
# Total GULP energy -133606.913671 kJ/mol
# GULP energy per Si atom -5566.954736 kJ/mol
# Density = 2.408240 g / cm^3
# Si number density = 24.137339 Si / 1000 Ang^3
#
#
#
# Elastic Constant Matrix: (Units=GPa)
#
#
# Indices 1 2 3 4 5 6 
#
# 1 159.6006 89.8898 20.4198 0.0000 16.5338 0.0000
# 2 89.8898 186.4013 21.9601 0.0000 11.0587 0.0000
# 3 20.4198 21.9601 33.3179 0.0000 3.1988 0.0000
# 4 0.0000 0.0000 0.0000 -6.5145 0.0000 10.4631
# 5 16.5338 11.0587 3.1988 0.0000 38.5261 0.0000
# 6 0.0000 0.0000 0.0000 10.4631 0.0000 319.0559
#
#
#
# Elastic Compliance Matrix: (Units=1/GPa)
#
#
# Indices 1 2 3 4 5 6 
#
# 1 0.009080 -0.003904 -0.002747 0.000000 -0.002548 0.000000
# 2 -0.003904 0.007567 -0.002567 0.000000 -0.000283 0.000000
# 3 -0.002747 -0.002567 0.033473 0.000000 -0.000863 0.000000
# 4 0.000000 0.000000 0.000000 -0.145822 0.000000 0.004782
# 5 -0.002548 -0.000283 -0.000863 0.000000 0.027203 0.000000
# 6 0.000000 0.000000 0.000000 0.004782 0.000000 0.002977
#
#
# Mechanical properties :
#
#
# Convention : Reuss Voigt Hill
#
# Bulk Modulus (GPa) = 31.56335 71.53990 51.55162
# Shear Modulus (GPa) = -136.89128 86.68350 -25.10389
#
# Velocity S-wave (km/s) = -7.53901 5.99921 -3.22847
# Velocity P-wave (km/s) = 7.91689 8.81422 2.73982
#
# Compressibility (1/GPa) = 0.03168232
#
# Stress axis : x y z
#
# Youngs Moduli (GPa) = 110.13508 132.15944 29.87507
#
# Poissons Ratio (x) = 0.51592 0.08207
# Poissons Ratio (y) = 0.42994 0.07670
# Poissons Ratio (z) = 0.30256 0.33931
#
# Static dielectric constant tensor:
#      x y z
#    x 1.894430 0.000000 -0.012980 
#    y 0.000000 2.094730 0.000000 
#    z -0.012980 0.000000 1.864670 
# 
# From -- ./inp_files/130364.got.cif
#   From: 2010.05.17/outbox.cif.g08.bks.cpg/sg15_66_cif.got.tgz:130364.got - 2010.06.03 18:47:42.
