data_PCOD9268689
_publ_section_title
;
Structure prediction by ZEFSAII (Michael W. Deem and Ramdas Pophale) SiO2 
 PCOD9268689
Probable space group: C 2/C
;
_chemical_formula_sum "Si O2"
_cell_formula_units_Z 40
_cell_length_a 18.354632
_cell_length_b 21.978322
_cell_length_c 4.970307
_cell_angle_alpha 90.000000
_cell_angle_beta 80.600980
_cell_angle_gamma 90.000000
_cell_volume 1978.124010
_symmetry_space_group_name_H-M "C 2/C"
_symmetry_group_IT_number 15
_symmetry_cell_setting 'monoclinic'
loop_
_space_group_symop_operation_xyz
x,y,z
-x,y,1/2-z
-x,-y,-z
x,-y,1/2+z
1/2+x,1/2+y,z
1/2-x,1/2+y,1/2-z
1/2-x,1/2-y,-z
1/2+x,1/2-y,1/2+z
loop_
_atom_site_type_symbol
_atom_site_label
_atom_site_fract_x
_atom_site_fract_y
_atom_site_fract_z
Si Si1 0.500000 0.364727 0.750000
Si Si2 0.100356 0.963391 0.414505
Si Si3 0.777510 0.461201 0.334572
Si Si4 0.500000 0.285216 0.250000
Si Si5 0.786768 0.324371 0.177344
Si Si6 0.154237 0.741892 0.358815
O O1 0.561064 0.406252 0.569623
O O2 0.470330 0.324539 0.520768
O O3 0.188261 0.957097 0.379566
O O4 0.080568 0.979398 0.120283
O O5 0.799662 0.486529 0.610347
O O6 0.802486 0.394023 0.238583
O O7 0.569752 0.249585 0.327590
O O8 0.833941 0.280952 0.346063
O O9 0.702032 0.303509 0.283723
O O10 0.807073 0.307225 0.861149
#
# Coordination Sequence:
#
# PCOD9268689 Si02
#       6
#     4   8   8   4   8   8
#     4  12  22  33  52  72 110 151 184 222 258 320
#     4  10  20  33  48  72 107 147 186 218 256 308
#     4  10  20  33  54  82 109 139 181 230 273 323
#     4  12  24  37  54  84 108 141 188 230 280 324
#     4  10  20  38  58  82 111 146 183 226 279 329
#     4  10  22  37  58  81 111 146 185 229 275 330
#
# _framework density 20.221178999999999
#
# number of rings (size 3 to 8) (size 9 to 14) (size 15 to 20)
#    0.000    1.600    0.000    5.400    0.000    6.400 
#    0.000    0.000    0.000    0.000    0.000   14.000 
#    0.000    0.000    0.000    0.000    0.000    0.000 
#
# Total GULP energy -111790.664610 kJ/mol
# GULP energy per Si atom -5589.533231 kJ/mol
# Density = 2.017515 g / cm^3
# Si number density = 20.221179 Si / 1000 Ang^3
#
#
#
# Elastic Constant Matrix: (Units=GPa)
#
#
# Indices 1 2 3 4 5 6 
#
# 1 67.8412 2.7119 -7.1619 0.0000 11.7768 0.0000
# 2 2.7119 65.9814 4.0692 0.0000 -13.4305 0.0000
# 3 -7.1619 4.0692 75.0846 0.0000 9.2068 0.0000
# 4 0.0000 0.0000 0.0000 25.7895 0.0000 0.7400
# 5 11.7768 -13.4305 9.2068 0.0000 18.5015 0.0000
# 6 0.0000 0.0000 0.0000 0.7400 0.0000 7.4493
#
#
#
# Elastic Compliance Matrix: (Units=1/GPa)
#
#
# Indices 1 2 3 4 5 6 
#
# 1 0.018273 -0.004434 0.004051 0.000000 -0.016866 0.000000
# 2 -0.004434 0.019394 -0.003777 0.000000 0.018780 0.000000
# 3 0.004051 -0.003777 0.015508 0.000000 -0.013038 0.000000
# 4 0.000000 0.000000 0.000000 0.038886 0.000000 -0.003863
# 5 -0.016866 0.018780 -0.013038 0.000000 0.084906 0.000000
# 6 0.000000 0.000000 0.000000 -0.003863 0.000000 0.134625
#
#
# Mechanical properties :
#
#
# Convention : Reuss Voigt Hill
#
# Bulk Modulus (GPa) = 22.29353 23.12730 22.71041
# Shear Modulus (GPa) = 14.93148 24.30058 19.61603
#
# Velocity S-wave (km/s) = 2.72031 3.47037 3.11798
# Velocity P-wave (km/s) = 4.57336 5.24595 4.92116
#
# Compressibility (1/GPa) = 0.04485607
#
# Stress axis : x y z
#
# Youngs Moduli (GPa) = 54.72517 51.56345 64.48243
#
# Poissons Ratio (x) = 0.22863 -0.26124
# Poissons Ratio (y) = 0.24265 0.24353
# Poissons Ratio (z) = -0.22171 0.19474
#
# Static dielectric constant tensor:
#      x y z
#    x 1.697910 0.000000 -0.013390 
#    y 0.000000 1.732360 0.000000 
#    z -0.013390 0.000000 1.707920 
# 
# From -- ./inp_files/9838.got.cif
#   From: 2010.05.17/outbox.cif.g08.bks.cpg/sg15_5_cif.got.tgz:9838.got - 2010.06.03 18:47:42.
