data_PCOD9268639
_publ_section_title
;
Structure prediction by ZEFSAII (Michael W. Deem and Ramdas Pophale) SiO2 
 PCOD9268639
Probable space group: C 2/C
;
_chemical_formula_sum "Si O2"
_cell_formula_units_Z 64
_cell_length_a 12.018810
_cell_length_b 9.880858
_cell_length_c 29.470444
_cell_angle_alpha 90.000000
_cell_angle_beta 133.727935
_cell_angle_gamma 90.000000
_cell_volume 2529.058779
_symmetry_space_group_name_H-M "C 2/C"
_symmetry_group_IT_number 15
_symmetry_cell_setting 'monoclinic'
loop_
_space_group_symop_operation_xyz
x,y,z
-x,y,1/2-z
-x,-y,-z
x,-y,1/2+z
1/2+x,1/2+y,z
1/2-x,1/2+y,1/2-z
1/2-x,1/2-y,-z
1/2+x,1/2-y,1/2+z
loop_
_atom_site_type_symbol
_atom_site_label
_atom_site_fract_x
_atom_site_fract_y
_atom_site_fract_z
Si Si1 0.447961 0.890513 0.916575
Si Si2 0.570418 0.400336 0.364946
Si Si3 0.548998 0.029003 0.816428
Si Si4 0.678183 0.824336 0.708703
Si Si5 0.761725 0.348982 0.568613
Si Si6 0.896755 0.951018 0.538756
Si Si7 0.022933 0.822807 0.809848
Si Si8 0.562686 0.840299 0.480093
O O1 0.323261 0.829665 0.846804
O O2 0.604539 0.853748 0.933283
O O3 0.454550 0.051824 0.924405
O O4 0.442862 0.841540 0.966787
O O5 0.436191 0.298972 0.310075
O O6 0.723121 0.309226 0.415228
O O7 0.520784 0.464716 0.398859
O O8 0.595493 0.534493 0.343058
O O9 0.500000 0.028109 0.750000
O O10 0.591849 0.179757 0.844697
O O11 0.401007 0.965131 0.799607
O O12 0.682067 0.929512 0.870967
O O13 0.845483 0.817171 0.777031
O O14 0.634001 0.440535 0.509276
O O15 0.733340 0.894802 0.513545
O O16 0.972892 0.811600 0.545196
O O17 0.000000 0.818195 0.750000
#
# Coordination Sequence:
#
# PCOD9268639 Si02
#       8
#     8   8   8   8   8   8   8   8
#     4   8  17  34  56  79 123 156 196 244 306 352
#     4  10  22  37  59  89 123 156 196 255 307 361
#     4   9  20  38  63  85 117 162 205 241 302 371
#     4  10  22  41  60  81 125 162 191 255 312 353
#     4   9  20  39  58  84 124 164 191 249 309 360
#     4  10  20  32  60  89 120 157 206 245 301 369
#     4  11  24  38  63  91 113 152 215 255 301 364
#     4   9  18  31  56  93 115 156 200 252 296 352
#
# _framework density 25.305855999999999
#
# number of rings (size 3 to 8) (size 9 to 14) (size 15 to 20)
#    0.000    2.750    0.000    1.125    8.750    3.000 
#    0.000    2.500    0.000   15.000    0.000    0.000 
#    0.000    0.000    0.000    0.000    0.000    0.000 
#
# Total GULP energy -178863.130190 kJ/mol
# GULP energy per Si atom -5589.472818 kJ/mol
# Density = 2.524826 g / cm^3
# Si number density = 25.305856 Si / 1000 Ang^3
#
#
#
# Elastic Constant Matrix: (Units=GPa)
#
#
# Indices 1 2 3 4 5 6 
#
# 1 55.8185 31.3562 2.4800 0.0000 0.0317 0.0000
# 2 31.3562 220.5501 31.7214 0.0000 -13.8860 0.0000
# 3 2.4800 31.7214 54.0495 0.0000 -11.1549 0.0000
# 4 0.0000 0.0000 0.0000 32.4810 0.0000 -6.5508
# 5 0.0317 -13.8860 -11.1549 0.0000 26.2341 0.0000
# 6 0.0000 0.0000 0.0000 -6.5508 0.0000 32.4026
#
#
#
# Elastic Compliance Matrix: (Units=1/GPa)
#
#
# Indices 1 2 3 4 5 6 
#
# 1 0.019545 -0.002943 0.000553 0.000000 -0.001346 0.000000
# 2 -0.002943 0.005451 -0.002705 0.000000 0.001739 0.000000
# 3 0.000553 -0.002705 0.021670 0.000000 0.007782 0.000000
# 4 0.000000 0.000000 0.000000 0.032096 0.000000 0.006489
# 5 -0.001346 0.001739 0.007782 0.000000 0.042349 0.000000
# 6 0.000000 0.000000 0.000000 0.006489 0.000000 0.032174
#
#
# Mechanical properties :
#
#
# Convention : Reuss Voigt Hill
#
# Bulk Modulus (GPa) = 27.41671 51.28147 39.34909
# Shear Modulus (GPa) = 28.46834 35.88091 32.17462
#
# Velocity S-wave (km/s) = 3.35770 3.76957 3.56958
# Velocity P-wave (km/s) = 5.08820 6.26537 5.70722
#
# Compressibility (1/GPa) = 0.03647410
#
# Stress axis : x y z
#
# Youngs Moduli (GPa) = 51.16497 183.44949 46.14684
#
# Poissons Ratio (x) = 0.53988 -0.02550
# Poissons Ratio (y) = 0.15058 0.12484
# Poissons Ratio (z) = -0.02827 0.49630
#
# Static dielectric constant tensor:
#      x y z
#    x 2.177620 0.000000 0.073830 
#    y 0.000000 1.982970 0.000000 
#    z 0.073830 0.000000 2.003350 
# 
# From -- ./inp_files/312910.got.cif
#   From: 2010.05.17/outbox.cif.g08.bks.cpg/sg15_157_cif.got.tgz:312910.got - 2010.06.03 18:47:42.
