data_PCOD9268286
_publ_section_title
;
Structure prediction by ZEFSAII (Michael W. Deem and Ramdas Pophale) SiO2 
 PCOD9268286
Probable space group: C 2/C
;
_chemical_formula_sum "Si O2"
_cell_formula_units_Z 52
_cell_length_a 26.015384
_cell_length_b 17.369334
_cell_length_c 11.652079
_cell_angle_alpha 90.000000
_cell_angle_beta 155.298239
_cell_angle_gamma 90.000000
_cell_volume 2200.310642
_symmetry_space_group_name_H-M "C 2/C"
_symmetry_group_IT_number 15
_symmetry_cell_setting 'monoclinic'
loop_
_space_group_symop_operation_xyz
x,y,z
-x,y,1/2-z
-x,-y,-z
x,-y,1/2+z
1/2+x,1/2+y,z
1/2-x,1/2+y,1/2-z
1/2-x,1/2-y,-z
1/2+x,1/2-y,1/2+z
loop_
_atom_site_type_symbol
_atom_site_label
_atom_site_fract_x
_atom_site_fract_y
_atom_site_fract_z
Si Si1 0.277068 0.827188 0.890240
Si Si2 0.812560 0.412399 0.733742
Si Si3 0.282115 0.080588 0.616486
Si Si4 0.500000 0.003716 0.250000
Si Si5 0.561859 0.683816 0.252306
Si Si6 0.011792 0.797936 0.396236
Si Si7 0.933807 0.630986 0.258649
O O1 0.267068 0.855464 0.739488
O O2 0.157923 0.781188 0.692438
O O3 0.272443 0.902085 0.961320
O O4 0.394659 0.773266 0.150029
O O5 0.746368 0.492931 0.573386
O O6 0.841524 0.370639 0.675813
O O7 0.942155 0.446892 0.041186
O O8 0.185077 0.133886 0.485406
O O9 0.425129 0.104373 0.927999
O O10 0.400769 0.062299 0.103982
O O11 0.500000 0.665466 0.250000
O O12 0.489051 0.673583 0.981740
O O13 0.939224 0.718631 0.231305
O O14 0.000000 0.843631 0.250000
#
# Coordination Sequence:
#
# PCOD9268286 Si02
#       7
#     8   8   8   4   8   8   8
#     4  11  21  39  62  88 123 163 208 255 306 374
#     4  11  22  33  58  93 120 155 206 252 306 369
#     4  10  20  38  56  88 123 159 200 247 310 361
#     4  10  20  30  52  84 124 152 182 252 320 358
#     4  11  22  40  67  90 119 170 215 248 294 379
#     4  11  22  40  62  89 127 162 204 259 315 353
#     4  11  18  34  55  86 121 156 190 248 310 365
#
# _framework density 23.633026999999998
#
# number of rings (size 3 to 8) (size 9 to 14) (size 15 to 20)
#    0.000    1.231    3.846    5.538    1.077    0.000 
#    0.000    8.462    0.000    3.692    0.000    0.000 
#    0.000    0.000    0.000    0.000    0.000    0.000 
#
# Total GULP energy -144959.454571 kJ/mol
# GULP energy per Si atom -5575.363637 kJ/mol
# Density = 2.357924 g / cm^3
# Si number density = 23.633027 Si / 1000 Ang^3
#
#
#
# Elastic Constant Matrix: (Units=GPa)
#
#
# Indices 1 2 3 4 5 6 
#
# 1 205.4579 38.7289 17.9682 0.0000 -18.6255 0.0000
# 2 38.7289 86.3147 -1.0139 0.0000 1.9878 0.0000
# 3 17.9682 -1.0139 25.9849 0.0000 -6.9836 0.0000
# 4 0.0000 0.0000 0.0000 11.7256 0.0000 -0.5223
# 5 -18.6255 1.9878 -6.9836 0.0000 28.4283 0.0000
# 6 0.0000 0.0000 0.0000 -0.5223 0.0000 35.5782
#
#
#
# Elastic Compliance Matrix: (Units=1/GPa)
#
#
# Indices 1 2 3 4 5 6 
#
# 1 0.005988 -0.002802 -0.003365 0.000000 0.003293 0.000000
# 2 -0.002802 0.012917 0.001826 0.000000 -0.002291 0.000000
# 3 -0.003365 0.001826 0.043101 0.000000 0.008256 0.000000
# 4 0.000000 0.000000 0.000000 0.085339 0.000000 0.001253
# 5 0.003293 -0.002291 0.008256 0.000000 0.039522 0.000000
# 6 0.000000 0.000000 0.000000 0.001253 0.000000 0.028125
#
#
# Mechanical properties :
#
#
# Convention : Reuss Voigt Hill
#
# Bulk Modulus (GPa) = 18.75347 47.68043 33.21695
# Shear Modulus (GPa) = 20.70827 32.61805 26.66316
#
# Velocity S-wave (km/s) = 2.96335 3.71912 3.36254
# Velocity P-wave (km/s) = 4.43409 6.21785 5.40013
#
# Compressibility (1/GPa) = 0.05332347
#
# Stress axis : x y z
#
# Youngs Moduli (GPa) = 166.99579 77.41703 23.20140
#
# Poissons Ratio (x) = 0.21694 0.07808
# Poissons Ratio (y) = 0.46796 -0.04237
# Poissons Ratio (z) = 0.56197 -0.14137
#
# Static dielectric constant tensor:
#      x y z
#    x 1.942910 0.000000 -0.060520 
#    y 0.000000 1.879640 0.000000 
#    z -0.060520 0.000000 2.008560 
# 
# From -- ./inp_files/123900.got.cif
#   From: 2010.05.17/outbox.cif.g08.bks.cpg/sg15_62_cif.got.tgz:123900.got - 2010.06.03 18:47:42.
