data_PCOD9268654
_publ_section_title
;
Structure prediction by ZEFSAII (Michael W. Deem and Ramdas Pophale) SiO2 
 PCOD9268654
Probable space group: C 2/C
;
_chemical_formula_sum "Si O2"
_cell_formula_units_Z 36
_cell_length_a 15.747253
_cell_length_b 11.781776
_cell_length_c 9.042538
_cell_angle_alpha 90.000000
_cell_angle_beta 104.995489
_cell_angle_gamma 90.000000
_cell_volume 1620.536613
_symmetry_space_group_name_H-M "C 2/C"
_symmetry_group_IT_number 15
_symmetry_cell_setting 'monoclinic'
loop_
_space_group_symop_operation_xyz
x,y,z
-x,y,1/2-z
-x,-y,-z
x,-y,1/2+z
1/2+x,1/2+y,z
1/2-x,1/2+y,1/2-z
1/2-x,1/2-y,-z
1/2+x,1/2-y,1/2+z
loop_
_atom_site_type_symbol
_atom_site_label
_atom_site_fract_x
_atom_site_fract_y
_atom_site_fract_z
Si Si1 0.500000 0.981483 0.250000
Si Si2 0.975991 0.119602 0.912770
Si Si3 0.885575 0.561751 0.455683
Si Si4 0.300900 0.744450 0.770151
Si Si5 0.629335 0.207544 0.530456
O O1 0.566361 0.904989 0.372423
O O2 0.450405 0.060941 0.343966
O O3 0.872514 0.156930 0.872772
O O4 0.000000 0.109622 0.750000
O O5 0.039947 0.219462 0.005370
O O6 0.000000 0.000000 0.000000
O O7 0.808647 0.642453 0.372337
O O8 0.871430 0.428885 0.473641
O O9 0.335464 0.758924 0.616733
O O10 0.198433 0.726347 0.693980
#
# Coordination Sequence:
#
# PCOD9268654 Si02
#       5
#     4   8   8   8   8
#     4  10  20  32  62  86 118 148 198 260 298 350
#     4  10  22  42  63  86 122 165 201 240 304 365
#     4  11  20  38  62  91 118 156 208 255 304 357
#     4  10  22  40  65  88 123 164 200 249 312 368
#     4  10  22  40  65  88 123 164 200 249 312 368
#
# _framework density 22.214863999999999
#
# number of rings (size 3 to 8) (size 9 to 14) (size 15 to 20)
#    0.000    1.778    2.222    2.667    6.222    0.000 
#    8.000    1.111    0.000    0.000    0.000    0.000 
#    0.000    0.000    0.000    0.000    0.000    0.000 
#
# Total GULP energy -100324.089421 kJ/mol
# GULP energy per Si atom -5573.560523 kJ/mol
# Density = 2.216430 g / cm^3
# Si number density = 22.214864 Si / 1000 Ang^3
#
#
#
# Elastic Constant Matrix: (Units=GPa)
#
#
# Indices 1 2 3 4 5 6 
#
# 1 40.0805 26.9953 55.8121 0.0000 27.2757 0.0000
# 2 26.9953 118.8774 60.4488 0.0000 26.7898 0.0000
# 3 55.8121 60.4488 135.7569 0.0000 55.5339 0.0000
# 4 0.0000 0.0000 0.0000-6038.7623 0.0000-2409.7043
# 5 27.2757 26.7898 55.5339 0.0000 40.9383 0.0000
# 6 0.0000 0.0000 0.0000-2409.7043 0.0000 -939.5581
#
#
#
# Elastic Compliance Matrix: (Units=1/GPa)
#
#
# Indices 1 2 3 4 5 6 
#
# 1 0.062416 -0.001116 -0.018987 0.000000 -0.015099 0.000000
# 2 -0.001116 0.010922 -0.004010 0.000000 -0.000964 0.000000
# 3 -0.018987 -0.004010 0.024061 0.000000 -0.017365 0.000000
# 4 0.000000 0.000000 0.000000 0.007069 0.000000 -0.018131
# 5 -0.015099 -0.000964 -0.017365 0.000000 0.058674 0.000000
# 6 0.000000 0.000000 0.000000 -0.018131 0.000000 0.045436
#
#
# Mechanical properties :
#
#
# Convention : Reuss Voigt Hill
#
# Bulk Modulus (GPa) = 20.33662 64.58080 42.45871
# Shear Modulus (GPa) = 18.30199 -1377.37919 -679.53860
#
# Velocity S-wave (km/s) = 2.87341 -24.92733 -17.50879
# Velocity P-wave (km/s) = 4.49256 28.27299 19.73802
#
# Compressibility (1/GPa) = 0.04917238
#
# Stress axis : x y z
#
# Youngs Moduli (GPa) = 16.02158 91.56011 41.56126
#
# Poissons Ratio (x) = 0.10222 0.78911
# Poissons Ratio (y) = 0.01789 0.16666
# Poissons Ratio (z) = 0.30420 0.36715
#
# Static dielectric constant tensor:
#      x y z
#    x 1.987400 0.000000 0.093620 
#    y 0.000000 1.835790 0.000000 
#    z 0.093620 0.000000 1.878030 
# 
# From -- ./inp_files/46003.got.cif
#   From: 2010.05.17/outbox.cif.g08.bks.cpg/sg15_24_cif.got.tgz:46003.got - 2010.06.03 18:47:42.
