data_PCOD9268524
_publ_section_title
;
Structure prediction by ZEFSAII (Michael W. Deem and Ramdas Pophale) SiO2 
 PCOD9268524
Probable space group: C 2/C
;
_chemical_formula_sum "Si O2"
_cell_formula_units_Z 56
_cell_length_a 17.402167
_cell_length_b 17.986800
_cell_length_c 8.607990
_cell_angle_alpha 90.000000
_cell_angle_beta 76.190921
_cell_angle_gamma 90.000000
_cell_volume 2616.503783
_symmetry_space_group_name_H-M "C 2/C"
_symmetry_group_IT_number 15
_symmetry_cell_setting 'monoclinic'
loop_
_space_group_symop_operation_xyz
x,y,z
-x,y,1/2-z
-x,-y,-z
x,-y,1/2+z
1/2+x,1/2+y,z
1/2-x,1/2+y,1/2-z
1/2-x,1/2-y,-z
1/2+x,1/2-y,1/2+z
loop_
_atom_site_type_symbol
_atom_site_label
_atom_site_fract_x
_atom_site_fract_y
_atom_site_fract_z
Si Si1 0.343590 0.530080 0.988689
Si Si2 0.724287 0.965736 0.807676
Si Si3 0.316801 0.822949 0.823915
Si Si4 0.694548 0.873926 0.313732
Si Si5 0.687664 0.265183 0.667609
Si Si6 0.123125 0.837379 0.249027
Si Si7 0.934010 0.118216 0.413108
O O1 0.265693 0.492361 0.946037
O O2 0.378838 0.602866 0.888995
O O3 0.407506 0.465903 0.957216
O O4 0.305280 0.547710 0.171378
O O5 0.673055 0.891982 0.801358
O O6 0.677132 0.040606 0.786477
O O7 0.233212 0.790171 0.802425
O O8 0.372057 0.750035 0.792500
O O9 0.313940 0.855544 0.998799
O O10 0.648961 0.813244 0.233713
O O11 0.788360 0.860644 0.229649
O O12 0.750000 0.250000 0.500000
O O13 0.631647 0.328407 0.631482
O O14 0.058854 0.849815 0.414821
O O15 0.000000 0.117734 0.250000
#
# Coordination Sequence:
#
# PCOD9268524 Si02
#       7
#     8   8   8   8   8   8   8
#     4  11  20  35  50  73 119 157 192 233 275 342
#     4  11  19  30  55  84 117 145 186 237 296 346
#     4  11  20  32  59  84 117 145 189 255 294 332
#     4  10  20  32  53  86 115 140 189 238 303 346
#     4  11  19  34  58  79 109 153 194 245 294 332
#     4  10  20  35  52  77 110 152 201 233 285 335
#     4  12  24  37  54  84 119 160 204 235 276 346
#
# _framework density 21.402605999999999
#
# number of rings (size 3 to 8) (size 9 to 14) (size 15 to 20)
#    0.000    1.143   10.000    1.714    0.000    0.571 
#    0.000    0.000    0.000    0.000    0.000    1.000 
#    0.000    0.000    0.000    0.000    0.000    0.000 
#
# Total GULP energy -156030.492028 kJ/mol
# GULP energy per Si atom -5572.517572 kJ/mol
# Density = 2.135389 g / cm^3
# Si number density = 21.402606 Si / 1000 Ang^3
#
#
#
# Elastic Constant Matrix: (Units=GPa)
#
#
# Indices 1 2 3 4 5 6 
#
# 1 13.7318 14.9472 7.9474 0.0000 -3.5670 0.0000
# 2 14.9472 196.0647 37.0738 0.0000 -3.2683 0.0000
# 3 7.9474 37.0738 96.5001 0.0000 -6.7927 0.0000
# 4 0.0000 0.0000 0.0000 36.9728 0.0000 5.1731
# 5 -3.5670 -3.2683 -6.7927 0.0000 18.5803 0.0000
# 6 0.0000 0.0000 0.0000 5.1731 0.0000 5.2564
#
#
#
# Elastic Compliance Matrix: (Units=1/GPa)
#
#
# Indices 1 2 3 4 5 6 
#
# 1 0.084647 -0.005487 -0.003887 0.000000 0.013864 0.000000
# 2 -0.005487 0.005856 -0.001847 0.000000 -0.000699 0.000000
# 3 -0.003887 -0.001847 0.011616 0.000000 0.003175 0.000000
# 4 0.000000 0.000000 0.000000 0.031366 0.000000 -0.030869
# 5 0.013864 -0.000699 0.003175 0.000000 0.057520 0.000000
# 6 0.000000 0.000000 0.000000 -0.030869 0.000000 0.220622
#
#
# Mechanical properties :
#
#
# Convention : Reuss Voigt Hill
#
# Bulk Modulus (GPa) = 12.55073 47.35929 29.95501
# Shear Modulus (GPa) = 10.85471 28.58380 19.71925
#
# Velocity S-wave (km/s) = 2.25448 3.65845 3.03866
# Velocity P-wave (km/s) = 3.55721 6.32626 5.13202
#
# Compressibility (1/GPa) = 0.07967667
#
# Stress axis : x y z
#
# Youngs Moduli (GPa) = 11.81370 170.75621 86.08811
#
# Poissons Ratio (x) = 0.93694 0.33466
# Poissons Ratio (y) = 0.06482 0.15902
# Poissons Ratio (z) = 0.04592 0.31542
#
# Static dielectric constant tensor:
#      x y z
#    x 1.798470 0.000000 0.047820 
#    y 0.000000 1.887320 0.000000 
#    z 0.047820 0.000000 1.829690 
# 
# From -- ./inp_files/56490.got.cif
#   From: 2010.05.17/outbox.cif.g08.bks.cpg/sg15_29_cif.got.tgz:56490.got - 2010.06.03 18:47:42.
