data_PCOD9268945
_publ_section_title
;
Structure prediction by ZEFSAII (Michael W. Deem and Ramdas Pophale) SiO2 
 PCOD9268945
Probable space group: C 2/C
;
_chemical_formula_sum "Si O2"
_cell_formula_units_Z 56
_cell_length_a 22.745389
_cell_length_b 19.012320
_cell_length_c 15.202582
_cell_angle_alpha 90.000000
_cell_angle_beta 25.164815
_cell_angle_gamma 90.000000
_cell_volume 2795.523582
_symmetry_space_group_name_H-M "C 2/C"
_symmetry_group_IT_number 15
_symmetry_cell_setting 'monoclinic'
loop_
_space_group_symop_operation_xyz
x,y,z
-x,y,1/2-z
-x,-y,-z
x,-y,1/2+z
1/2+x,1/2+y,z
1/2-x,1/2+y,1/2-z
1/2-x,1/2-y,-z
1/2+x,1/2-y,1/2+z
loop_
_atom_site_type_symbol
_atom_site_label
_atom_site_fract_x
_atom_site_fract_y
_atom_site_fract_z
Si Si1 0.385322 0.884743 0.839414
Si Si2 0.393436 0.447045 0.227710
Si Si3 0.000000 0.882767 0.250000
Si Si4 0.268276 0.253551 0.871636
Si Si5 0.500000 0.325188 0.750000
Si Si6 0.309388 0.255572 0.547247
Si Si7 0.567811 0.608766 0.344791
Si Si8 0.501625 0.202155 0.046079
O O1 0.500000 0.913145 0.750000
O O2 0.454064 0.871310 0.652502
O O3 0.251194 0.929983 0.031721
O O4 0.344794 0.806698 0.931202
O O5 0.500394 0.429107 0.161332
O O6 0.385908 0.528048 0.210676
O O7 0.433928 0.396303 0.090870
O O8 0.870653 0.828833 0.428284
O O9 0.324178 0.331159 0.770040
O O10 0.392730 0.201705 0.676760
O O11 0.250000 0.250000 0.000000
O O12 0.119851 0.223842 0.044525
O O13 0.456502 0.372336 0.724865
O O14 0.400365 0.238288 0.511091
O O15 0.144114 0.261196 0.780864
#
# Coordination Sequence:
#
# PCOD9268945 Si02
#       8
#     8   8   4   8   4   8   8   8
#     4  10  20  33  56  91 127 162 192 254 323 376
#     4  11  23  39  62  94 135 166 204 246 324 409
#     4  12  19  34  60  91 134 168 206 250 316 385
#     4  10  23  40  63  88 112 162 220 275 310 358
#     4  10  23  44  70  85 116 162 228 278 304 357
#     4  11  20  32  54  92 131 162 199 257 318 379
#     4  10  23  43  63  89 125 171 212 256 318 386
#     4  11  21  34  58  90 127 158 203 269 324 378
#
# _framework density 20.032025999999998
#
# number of rings (size 3 to 8) (size 9 to 14) (size 15 to 20)
#    0.000    1.429    3.571    3.429    8.000    0.000 
#    1.286    0.000    0.000    3.429    0.000    0.000 
#    0.000    0.000    0.000    0.000    0.000    0.000 
#
# Total GULP energy -155999.748438 kJ/mol
# GULP energy per Si atom -5571.419587 kJ/mol
# Density = 1.998643 g / cm^3
# Si number density = 20.032026 Si / 1000 Ang^3
#
#
#
# Elastic Constant Matrix: (Units=GPa)
#
#
# Indices 1 2 3 4 5 6 
#
# 1 53.2497 -3.8602 27.0189 -0.0001 4.6022 0.0002
# 2 -3.8602 76.8003 29.0624 -0.0002 1.9240 0.0000
# 3 27.0189 29.0624 144.4757 -0.0004 1.8428 -0.0001
# 4 -0.0001 -0.0002 -0.0004 25.5867 0.0001 4.8688
# 5 4.6022 1.9240 1.8428 0.0001 39.4872 -0.0001
# 6 0.0002 0.0000 -0.0001 4.8688 -0.0001 -9.2557
#
#
#
# Elastic Compliance Matrix: (Units=1/GPa)
#
#
# Indices 1 2 3 4 5 6 
#
# 1 0.021517 0.002872 -0.004571 0.000000 -0.002434 0.000001
# 2 0.002872 0.014489 -0.003440 0.000000 -0.000880 0.000000
# 3 -0.004571 -0.003440 0.008465 0.000000 0.000305 0.000000
# 4 0.000000 0.000000 0.000000 0.035527 0.000000 0.018688
# 5 -0.002434 -0.000880 0.000305 0.000000 0.025637 0.000000
# 6 0.000001 0.000000 0.000000 0.018688 0.000000 -0.098211
#
#
# Mechanical properties :
#
#
# Convention : Reuss Voigt Hill
#
# Bulk Modulus (GPa) = 29.24597 42.10755 35.67676
# Shear Modulus (GPa) = 171.82533 25.98396 98.90465
#
# Velocity S-wave (km/s) = 9.27154 3.60546 7.03423
# Velocity P-wave (km/s) = 11.36867 6.19663 9.15546
#
# Compressibility (1/GPa) = 0.03419275
#
# Stress axis : x y z
#
# Youngs Moduli (GPa) = 46.47437 69.01730 118.13975
#
# Poissons Ratio (x) = -0.19823 0.53998
# Poissons Ratio (y) = -0.13348 0.40646
# Poissons Ratio (z) = 0.21242 0.23745
#
# Static dielectric constant tensor:
#      x y z
#    x 1.835010 0.000000 -0.012120 
#    y 0.000000 1.713830 0.000000 
#    z -0.012120 0.000000 1.761210 
# 
# From -- ./inp_files/223098.got.cif
#   From: 2010.05.17/outbox.cif.g08.bks.cpg/sg15_112_cif.got.tgz:223098.got - 2010.06.03 18:47:42.
