data_PCOD9268896
_publ_section_title
;
Structure prediction by ZEFSAII (Michael W. Deem and Ramdas Pophale) SiO2 
 PCOD9268896
Probable space group: C 2/C
;
_chemical_formula_sum "Si O2"
_cell_formula_units_Z 64
_cell_length_a 17.847969
_cell_length_b 27.228164
_cell_length_c 14.597511
_cell_angle_alpha 90.000000
_cell_angle_beta 144.873190
_cell_angle_gamma 90.000000
_cell_volume 4081.753626
_symmetry_space_group_name_H-M "C 2/C"
_symmetry_group_IT_number 15
_symmetry_cell_setting 'monoclinic'
loop_
_space_group_symop_operation_xyz
x,y,z
-x,y,1/2-z
-x,-y,-z
x,-y,1/2+z
1/2+x,1/2+y,z
1/2-x,1/2+y,1/2-z
1/2-x,1/2-y,-z
1/2+x,1/2-y,1/2+z
loop_
_atom_site_type_symbol
_atom_site_label
_atom_site_fract_x
_atom_site_fract_y
_atom_site_fract_z
Si Si1 0.762974 0.633211 0.343835
Si Si2 0.853269 0.022553 0.603269
Si Si3 0.844781 0.565539 0.594781
Si Si4 0.347848 0.446526 0.891789
Si Si5 0.152152 0.946526 0.196093
Si Si6 0.237026 0.633211 0.817886
Si Si7 0.500000 0.315097 0.641593
Si Si8 0.500000 0.197807 0.861562
O O1 0.800431 0.596256 0.462748
O O2 0.740303 0.597380 0.235041
O O3 0.628228 0.660723 0.228264
O O4 0.876000 0.673665 0.464773
O O5 0.843124 0.050909 0.497075
O O6 0.843124 0.050909 0.689174
O O7 0.000000 0.999472 0.750000
O O8 0.738086 0.983694 0.488085
O O9 0.800431 0.596256 0.638114
O O10 0.000000 0.558267 0.750000
O O11 0.312151 0.500000 0.812151
O O12 0.500000 0.438454 0.016819
O O13 0.240303 0.902620 0.245566
O O14 0.124000 0.673665 0.712773
O O15 0.371772 0.660723 0.971807
O O16 0.500000 0.325317 0.750000
O O17 0.500000 0.256385 0.630130
O O18 0.500000 0.186644 0.750000
#
# Coordination Sequence:
#
# PCOD9268896 Si02
#       8
#     8   8   8   8   8   8   8   8
#     4  12  20  35  53  78 110 149 176 216 267 321
#     4  10  22  38  56  77 110 143 184 230 256 307
#     4  12  22  34  49  82 119 148 179 213 267 322
#     4  10  20  33  55  83 105 137 185 220 261 319
#     4  10  20  33  55  83 105 137 185 220 261 319
#     4  12  20  35  53  78 110 149 176 216 267 321
#     4  11  22  32  57  79 105 141 187 224 267 313
#     4  11  22  38  49  79 115 143 177 224 269 327
#
# _framework density 15.679536000000001
#
# number of rings (size 3 to 8) (size 9 to 14) (size 15 to 20)
#    0.000    1.000    7.500    0.750    1.750    2.000 
#    2.250    1.875    0.000    0.000    0.000    5.250 
#    0.000    0.000    0.000    0.000    0.000    0.000 
#
# Total GULP energy -178437.375915 kJ/mol
# GULP energy per Si atom -5576.167997 kJ/mol
# Density = 1.564385 g / cm^3
# Si number density = 15.679536 Si / 1000 Ang^3
#
#
#
# Elastic Constant Matrix: (Units=GPa)
#
#
# Indices 1 2 3 4 5 6 
#
# 1 78.1747 44.9218 54.9749 0.0000 1.2549 0.0000
# 2 44.9218 85.0704 53.8402 0.0000 8.9231 0.0000
# 3 54.9749 53.8402 101.4095 0.0000 21.9921 0.0000
# 4 0.0000 0.0000 0.0000 25.7459 0.0000 -10.2172
# 5 1.2549 8.9231 21.9921 0.0000 32.9760 0.0000
# 6 0.0000 0.0000 0.0000 -10.2172 0.0000 35.9572
#
#
#
# Elastic Compliance Matrix: (Units=1/GPa)
#
#
# Indices 1 2 3 4 5 6 
#
# 1 0.024693 -0.006454 -0.011848 0.000000 0.008708 0.000000
# 2 -0.006454 0.019475 -0.006724 0.000000 -0.000540 0.000000
# 3 -0.011848 -0.006724 0.022635 0.000000 -0.012825 0.000000
# 4 0.000000 0.000000 0.000000 0.043778 0.000000 0.012439
# 5 0.008708 -0.000540 -0.012825 0.000000 0.038693 0.000000
# 6 0.000000 0.000000 0.000000 0.012439 0.000000 0.031345
#
#
# Mechanical properties :
#
#
# Convention : Reuss Voigt Hill
#
# Bulk Modulus (GPa) = 59.69756 63.56983 61.63369
# Shear Modulus (GPa) = 21.16359 26.33034 23.74697
#
# Velocity S-wave (km/s) = 3.67789 4.10235 3.89591
# Velocity P-wave (km/s) = 7.49614 7.94168 7.72212
#
# Compressibility (1/GPa) = 0.01675110
#
# Stress axis : x y z
#
# Youngs Moduli (GPa) = 40.49781 51.34763 44.17908
#
# Poissons Ratio (x) = 0.33140 0.52344
# Poissons Ratio (y) = 0.26137 0.29705
# Poissons Ratio (z) = 0.47982 0.34525
#
# Static dielectric constant tensor:
#      x y z
#    x 1.522000 0.000000 0.008420 
#    y 0.000000 1.520170 0.000000 
#    z 0.008420 0.000000 1.530420 
# 
# From -- ./inp_files/164268.got.cif
#   From: 2010.05.17/outbox.cif.g08.bks.cpg/sg15_83_cif.got.tgz:164268.got - 2010.06.03 18:47:42.
