data_PCOD9268917
_publ_section_title
;
Structure prediction by ZEFSAII (Michael W. Deem and Ramdas Pophale) SiO2 
 PCOD9268917
Probable space group: C 2/C
;
_chemical_formula_sum "Si O2"
_cell_formula_units_Z 56
_cell_length_a 10.670778
_cell_length_b 35.440230
_cell_length_c 8.407353
_cell_angle_alpha 90.000000
_cell_angle_beta 115.459677
_cell_angle_gamma 90.000000
_cell_volume 2870.686717
_symmetry_space_group_name_H-M "C 2/C"
_symmetry_group_IT_number 15
_symmetry_cell_setting 'monoclinic'
loop_
_space_group_symop_operation_xyz
x,y,z
-x,y,1/2-z
-x,-y,-z
x,-y,1/2+z
1/2+x,1/2+y,z
1/2-x,1/2+y,1/2-z
1/2-x,1/2-y,-z
1/2+x,1/2-y,1/2+z
loop_
_atom_site_type_symbol
_atom_site_label
_atom_site_fract_x
_atom_site_fract_y
_atom_site_fract_z
Si Si1 0.365283 0.610707 0.899001
Si Si2 0.782732 0.812449 0.954643
Si Si3 0.648699 0.256857 0.241269
Si Si4 0.843283 0.465254 0.726457
Si Si5 0.072065 0.188500 0.459434
Si Si6 0.342422 0.046394 0.602897
Si Si7 0.181593 0.105857 0.005357
O O1 0.264562 0.579370 0.914606
O O2 0.530759 0.603576 0.008629
O O3 0.341306 0.610467 0.696163
O O4 0.336727 0.651258 0.964918
O O5 0.723270 0.783228 0.794495
O O6 0.947176 0.816693 0.018654
O O7 0.768728 0.789071 0.111654
O O8 0.734978 0.855425 0.908863
O O9 0.500000 0.251767 0.250000
O O10 0.636784 0.272929 0.058076
O O11 0.792702 0.507300 0.656354
O O12 0.760645 0.431966 0.594816
O O13 0.000000 0.463926 0.750000
O O14 0.844385 0.459495 0.915337
O O15 0.000000 0.189830 0.250000
O O16 0.500000 0.054156 0.750000
#
# Coordination Sequence:
#
# PCOD9268917 Si02
#       7
#     8   8   8   8   8   8   8
#     4  10  21  37  60  86 122 155 200 249 297 354
#     4   9  18  33  56  79 109 148 195 233 282 343
#     4   9  17  34  55  81 107 150 195 236 282 350
#     4  11  23  40  64  88 120 158 199 244 303 358
#     4  10  20  33  56  81 115 151 187 239 300 345
#     4  11  23  41  63  86 120 160 198 246 301 361
#     4  10  20  37  60  90 118 158 202 250 299 352
#
# _framework density 19.507527
#
# number of rings (size 3 to 8) (size 9 to 14) (size 15 to 20)
#    0.000    2.000    1.429    3.429    4.000    1.714 
#    0.000    0.000    0.000    0.000    0.000    0.000 
#    0.000    0.000    0.000    0.000    0.000    0.000 
#
# Total GULP energy -156113.929186 kJ/mol
# GULP energy per Si atom -5575.497471 kJ/mol
# Density = 1.946313 g / cm^3
# Si number density = 19.507527 Si / 1000 Ang^3
#
#
#
# Elastic Constant Matrix: (Units=GPa)
#
#
# Indices 1 2 3 4 5 6 
#
# 1 48.1211 55.1072 14.8369 0.0000 -5.5190 0.0000
# 2 55.1072 179.0419 62.3936 0.0000 14.3030 0.0000
# 3 14.8369 62.3936 106.2928 0.0000 -9.4072 0.0000
# 4 0.0000 0.0000 0.0000 26.4280 0.0000 13.6687
# 5 -5.5190 14.3030 -9.4072 0.0000 25.3623 0.0000
# 6 0.0000 0.0000 0.0000 13.6687 0.0000 28.3044
#
#
#
# Elastic Compliance Matrix: (Units=1/GPa)
#
#
# Indices 1 2 3 4 5 6 
#
# 1 0.038896 -0.015324 0.005252 0.000000 0.019054 0.000000
# 2 -0.015324 0.013949 -0.007279 0.000000 -0.013901 0.000000
# 3 0.005252 -0.007279 0.013868 0.000000 0.010392 0.000000
# 4 0.000000 0.000000 0.000000 0.050436 0.000000 -0.024356
# 5 0.019054 -0.013901 0.010392 0.000000 0.055269 0.000000
# 6 0.000000 0.000000 0.000000 -0.024356 0.000000 0.047092
#
#
# Mechanical properties :
#
#
# Convention : Reuss Voigt Hill
#
# Bulk Modulus (GPa) = 31.24025 66.45902 48.84964
# Shear Modulus (GPa) = 18.87629 29.42681 24.15155
#
# Velocity S-wave (km/s) = 3.11407 3.88814 3.52243
# Velocity P-wave (km/s) = 5.38323 7.36880 6.45284
#
# Compressibility (1/GPa) = 0.03200999
#
# Stress axis : x y z
#
# Youngs Moduli (GPa) = 25.70964 71.68833 72.11087
#
# Poissons Ratio (x) = 1.09858 -0.37876
# Poissons Ratio (y) = 0.39398 0.52493
# Poissons Ratio (z) = -0.13504 0.52185
#
# Static dielectric constant tensor:
#      x y z
#    x 1.688480 0.000000 0.002660 
#    y 0.000000 1.733860 0.000000 
#    z 0.002660 0.000000 1.710830 
# 
# From -- ./inp_files/35775.got.cif
#   From: 2010.05.17/outbox.cif.g08.bks.cpg/sg15_18_cif.got.tgz:35775.got - 2010.06.03 18:47:42.
