data_PCOD9268701
_publ_section_title
;
Structure prediction by ZEFSAII (Michael W. Deem and Ramdas Pophale) SiO2 
 PCOD9268701
Probable space group: C 2/C
;
_chemical_formula_sum "Si O2"
_cell_formula_units_Z 60
_cell_length_a 34.062373
_cell_length_b 21.380879
_cell_length_c 9.098758
_cell_angle_alpha 90.000000
_cell_angle_beta 147.631046
_cell_angle_gamma 90.000000
_cell_volume 3547.610760
_symmetry_space_group_name_H-M "C 2/C"
_symmetry_group_IT_number 15
_symmetry_cell_setting 'monoclinic'
loop_
_space_group_symop_operation_xyz
x,y,z
-x,y,1/2-z
-x,-y,-z
x,-y,1/2+z
1/2+x,1/2+y,z
1/2-x,1/2+y,1/2-z
1/2-x,1/2-y,-z
1/2+x,1/2-y,1/2+z
loop_
_atom_site_type_symbol
_atom_site_label
_atom_site_fract_x
_atom_site_fract_y
_atom_site_fract_z
Si Si1 0.000000 0.494181 0.250000
Si Si2 0.840987 0.390074 0.459222
Si Si3 0.798049 0.371120 0.987485
Si Si4 0.181704 0.196990 0.949888
Si Si5 0.564049 0.234629 0.244719
Si Si6 0.398257 0.749770 0.297867
Si Si7 0.281298 0.322939 0.259250
Si Si8 0.601657 0.030144 0.823849
O O1 0.943912 0.455209 0.173054
O O2 0.046978 0.535611 0.511867
O O3 0.808074 0.386324 0.190453
O O4 0.902428 0.335328 0.668269
O O5 0.773689 0.375637 0.355741
O O6 0.876026 0.457567 0.595276
O O7 0.851618 0.312651 0.126237
O O8 0.828688 0.427518 0.986556
O O9 0.718368 0.348571 0.685429
O O10 0.230705 0.260392 0.103125
O O11 0.102257 0.220419 0.747402
O O12 0.190025 0.168213 0.814924
O O13 0.589786 0.255490 0.489523
O O14 0.476724 0.239966 0.969923
O O15 0.350055 0.693359 0.080816
#
# Coordination Sequence:
#
# PCOD9268701 Si02
#       8
#     4   8   8   8   8   8   8   8
#     4  10  24  34  48  66 108 130 170 206 236 272
#     4  10  20  33  50  68  97 134 169 199 235 285
#     4  10  20  33  50  68  97 134 169 199 235 285
#     4   9  18  32  47  69  95 123 160 205 246 285
#     4   9  18  31  50  71  95 128 164 198 242 292
#     4   9  18  31  50  71  95 128 164 198 242 292
#     4   9  18  32  47  69  95 123 160 205 246 285
#     4  11  22  36  48  72  99 136 168 202 239 284
#
# _framework density 16.912790999999999
#
# number of rings (size 3 to 8) (size 9 to 14) (size 15 to 20)
#    0.000    2.400    1.333    0.800    5.600    3.733 
#    0.000    0.000    0.000    0.000    0.000    0.933 
#    0.000    0.000    0.000    0.000    0.000    0.000 
#
# Total GULP energy -167286.425568 kJ/mol
# GULP energy per Si atom -5576.214186 kJ/mol
# Density = 1.687430 g / cm^3
# Si number density = 16.912791 Si / 1000 Ang^3
#
#
#
# Elastic Constant Matrix: (Units=GPa)
#
#
# Indices 1 2 3 4 5 6 
#
# 1 107.3178 27.8269 14.1628 0.0000 9.5815 0.0000
# 2 27.8269 42.9786 13.6292 0.0000 2.5343 0.0000
# 3 14.1628 13.6292 44.5410 0.0000 3.4844 0.0000
# 4 0.0000 0.0000 0.0000 7.2649 0.0000 3.2646
# 5 9.5815 2.5343 3.4844 0.0000 16.9525 0.0000
# 6 0.0000 0.0000 0.0000 3.2646 0.0000 18.8494
#
#
#
# Elastic Compliance Matrix: (Units=1/GPa)
#
#
# Indices 1 2 3 4 5 6 
#
# 1 0.011746 -0.006908 -0.001202 0.000000 -0.005359 0.000000
# 2 -0.006908 0.029917 -0.007026 0.000000 0.000876 0.000000
# 3 -0.001202 -0.007026 0.025254 0.000000 -0.003461 0.000000
# 4 0.000000 0.000000 0.000000 0.149265 0.000000 -0.025852
# 5 -0.005359 0.000876 -0.003461 0.000000 0.062598 0.000000
# 6 0.000000 0.000000 0.000000 -0.025852 0.000000 0.057529
#
#
# Mechanical properties :
#
#
# Convention : Reuss Voigt Hill
#
# Bulk Modulus (GPa) = 27.28916 34.00834 30.64875
# Shear Modulus (GPa) = 13.19967 17.89458 15.54713
#
# Velocity S-wave (km/s) = 2.79669 3.25630 3.03521
# Velocity P-wave (km/s) = 5.15741 5.85574 5.51763
#
# Compressibility (1/GPa) = 0.03664458
#
# Stress axis : x y z
#
# Youngs Moduli (GPa) = 85.13186 33.42623 39.59751
#
# Poissons Ratio (x) = 0.23092 0.04759
# Poissons Ratio (y) = 0.58811 0.27822
# Poissons Ratio (z) = 0.10232 0.23486
#
# Static dielectric constant tensor:
#      x y z
#    x 1.597980 0.000000 -0.016360 
#    y 0.000000 1.549600 0.000000 
#    z -0.016360 0.000000 1.579400 
# 
# From -- ./inp_files/70773.got.cif
#   From: 2010.05.17/outbox.cif.g08.bks.cpg/sg15_36_cif.got.tgz:70773.got - 2010.06.03 18:47:42.
