data_PCOD9268427
_publ_section_title
;
Structure prediction by ZEFSAII (Michael W. Deem and Ramdas Pophale) SiO2 
 PCOD9268427
Probable space group: C 2/C
;
_chemical_formula_sum "Si O2"
_cell_formula_units_Z 40
_cell_length_a 9.955794
_cell_length_b 16.637754
_cell_length_c 16.987152
_cell_angle_alpha 90.000000
_cell_angle_beta 54.120930
_cell_angle_gamma 90.000000
_cell_volume 2279.886961
_symmetry_space_group_name_H-M "C 2/C"
_symmetry_group_IT_number 15
_symmetry_cell_setting 'monoclinic'
loop_
_space_group_symop_operation_xyz
x,y,z
-x,y,1/2-z
-x,-y,-z
x,-y,1/2+z
1/2+x,1/2+y,z
1/2-x,1/2+y,1/2-z
1/2-x,1/2-y,-z
1/2+x,1/2-y,1/2+z
loop_
_atom_site_type_symbol
_atom_site_label
_atom_site_fract_x
_atom_site_fract_y
_atom_site_fract_z
Si Si1 0.749866 0.062849 0.500137
Si Si2 0.613509 0.217538 0.636491
Si Si3 0.614677 0.092827 0.135322
Si Si4 0.589587 0.640645 0.364175
Si Si5 0.817934 0.359357 0.635825
O O1 0.677635 0.138872 0.572366
O O2 0.690168 0.075056 0.430673
O O3 0.948491 0.075057 0.430674
O O4 0.686282 0.983090 0.563721
O O5 0.500000 0.196362 0.750000
O O6 0.504543 0.275160 0.617422
O O7 0.760613 0.275161 0.617421
O O8 0.500000 0.068262 0.250000
O O9 0.768874 0.141221 0.118737
O O10 0.493652 0.141218 0.118735
O O11 0.680798 0.622265 0.250000
#
# Coordination Sequence:
#
# PCOD9268427 Si02
#       5
#     8   8   8   8   8
#     4  11  18  31  51  75  93 118 159 203 229 263
#     4   9  18  33  52  70  92 124 160 192 228 277
#     4  10  20  32  48  71  98 124 154 193 236 276
#     4   9  18  32  49  69  95 128 157 185 231 288
#     4   9  18  32  49  69  95 128 157 185 231 288
#
# _framework density 17.544730000000001
#
# number of rings (size 3 to 8) (size 9 to 14) (size 15 to 20)
#    0.000    2.400    0.000    6.000    0.000    0.000 
#    0.000    4.000    0.000    0.000    0.000   25.200 
#    0.000    0.000    0.000    0.000    0.000    0.000 
#
# Total GULP energy -111523.439147 kJ/mol
# GULP energy per Si atom -5576.171957 kJ/mol
# Density = 1.750480 g / cm^3
# Si number density = 17.544730 Si / 1000 Ang^3
#
#
#
# Elastic Constant Matrix: (Units=GPa)
#
#
# Indices 1 2 3 4 5 6 
#
# 1 160.2960 44.8122 44.7519 0.0000 -8.0878 0.0000
# 2 44.8122 67.8633 34.2944 0.0000 -1.0428 0.0000
# 3 44.7519 34.2944 78.0872 0.0000 -0.0500 0.0000
# 4 0.0000 0.0000 0.0000 26.5962 0.0000 2.6831
# 5 -8.0878 -1.0428 -0.0500 0.0000 17.7073 0.0000
# 6 0.0000 0.0000 0.0000 2.6831 0.0000 -0.5247
#
#
#
# Elastic Compliance Matrix: (Units=1/GPa)
#
#
# Indices 1 2 3 4 5 6 
#
# 1 0.008374 -0.003920 -0.003075 0.000000 0.003585 0.000000
# 2 -0.003920 0.020795 -0.006886 0.000000 -0.000585 0.000000
# 3 -0.003075 -0.006886 0.017592 0.000000 -0.001760 0.000000
# 4 0.000000 0.000000 0.000000 0.024803 0.000000 0.126841
# 5 0.003585 -0.000585 -0.001760 0.000000 0.058072 0.000000
# 6 0.000000 0.000000 0.000000 0.126841 0.000000 -1.257328
#
#
# Mechanical properties :
#
#
# Convention : Reuss Voigt Hill
#
# Bulk Modulus (GPa) = 52.63956 61.55149 57.09553
# Shear Modulus (GPa) = -4.57208 20.91496 8.17144
#
# Velocity S-wave (km/s) = -1.61605 3.45642 2.16046
# Velocity P-wave (km/s) = 5.15617 7.14758 6.23193
#
# Compressibility (1/GPa) = 0.01899712
#
# Stress axis : x y z
#
# Youngs Moduli (GPa) = 119.41948 48.08764 56.84484
#
# Poissons Ratio (x) = 0.18853 0.17480
# Poissons Ratio (y) = 0.46818 0.39146
# Poissons Ratio (z) = 0.36721 0.33115
#
# Static dielectric constant tensor:
#      x y z
#    x 1.613700 0.000000 0.001390 
#    y 0.000000 1.550400 0.000000 
#    z 0.001390 0.000000 1.627710 
# 
# From -- ./inp_files/133892.got.cif
#   From: 2010.05.17/outbox.cif.g08.bks.cpg/sg15_67_cif.got.tgz:133892.got - 2010.06.03 18:47:42.
