data_PCOD9268257
_publ_section_title
;
Structure prediction by ZEFSAII (Michael W. Deem and Ramdas Pophale) SiO2 
 PCOD9268257
Probable space group: C 2/C
;
_chemical_formula_sum "Si O2"
_cell_formula_units_Z 60
_cell_length_a 5.191842
_cell_length_b 25.382080
_cell_length_c 25.389173
_cell_angle_alpha 90.000000
_cell_angle_beta 109.866622
_cell_angle_gamma 90.000000
_cell_volume 3146.659025
_symmetry_space_group_name_H-M "C 2/C"
_symmetry_group_IT_number 15
_symmetry_cell_setting 'monoclinic'
loop_
_space_group_symop_operation_xyz
x,y,z
-x,y,1/2-z
-x,-y,-z
x,-y,1/2+z
1/2+x,1/2+y,z
1/2-x,1/2+y,1/2-z
1/2-x,1/2-y,-z
1/2+x,1/2-y,1/2+z
loop_
_atom_site_type_symbol
_atom_site_label
_atom_site_fract_x
_atom_site_fract_y
_atom_site_fract_z
Si Si1 0.500000 0.078234 0.750000
Si Si2 0.487128 0.538640 0.833495
Si Si3 0.926748 0.369042 0.355261
Si Si4 0.191301 0.062063 0.564174
Si Si5 0.107346 0.931152 0.886610
Si Si6 0.695876 0.229458 0.711990
Si Si7 0.706888 0.949891 0.958330
Si Si8 0.192097 0.852800 0.712480
O O1 0.483254 0.114329 0.697689
O O2 0.768186 0.042283 0.771532
O O3 0.674247 0.590641 0.845876
O O4 0.321922 0.541725 0.876913
O O5 0.633909 0.482818 0.850505
O O6 0.878414 0.307544 0.342660
O O7 0.136025 0.385007 0.415998
O O8 0.886840 0.068336 0.520531
O O9 0.326935 0.013876 0.541201
O O10 0.416426 0.922653 0.928677
O O11 0.912353 0.940467 0.923479
O O12 0.955744 0.886599 0.842574
O O13 0.500000 0.225156 0.750000
O O14 0.707724 0.291081 0.698230
O O15 0.000000 0.211895 0.750000
O O16 0.500000 0.870211 0.750000
O O17 0.000000 0.856654 0.750000
#
# Coordination Sequence:
#
# PCOD9268257 Si02
#       8
#     4   8   8   8   8   8   8   8
#     4  10  20  30  44  78 112 142 168 220 274 346
#     4  10  21  31  51  80 113 147 181 219 293 335
#     4  11  19  34  52  80 113 146 184 223 286 333
#     4   9  21  34  54  81 110 148 191 229 276 339
#     4  11  22  37  57  82 110 149 184 232 280 326
#     4  10  21  37  57  81 110 151 189 230 277 335
#     4  10  21  38  57  79 114 146 194 231 273 333
#     4  10  22  39  60  83 111 148 194 231 275 339
#
# _framework density 19.067843
#
# number of rings (size 3 to 8) (size 9 to 14) (size 15 to 20)
#    0.000    1.867    2.000    2.000    4.667    2.667 
#    0.000    0.000    0.000    1.600    0.000    0.000 
#    0.000    0.000    0.000    0.000    0.000    0.000 
#
# Total GULP energy -167186.403192 kJ/mol
# GULP energy per Si atom -5572.880106 kJ/mol
# Density = 1.902444 g / cm^3
# Si number density = 19.067843 Si / 1000 Ang^3
#
#
#
# Elastic Constant Matrix: (Units=GPa)
#
#
# Indices 1 2 3 4 5 6 
#
# 1 87.8771 11.9215 21.4922 0.0000 25.9682 0.0000
# 2 11.9215 59.3320 42.6939 0.0000 19.0518 0.0000
# 3 21.4922 42.6939 89.2421 0.0000 37.8890 0.0000
# 4 0.0000 0.0000 0.0000 23.2011 0.0000 9.7832
# 5 25.9682 19.0518 37.8890 0.0000 41.4342 0.0000
# 6 0.0000 0.0000 0.0000 9.7832 0.0000 5.2219
#
#
#
# Elastic Compliance Matrix: (Units=1/GPa)
#
#
# Indices 1 2 3 4 5 6 
#
# 1 0.013990 -0.000369 0.000748 0.000000 -0.009282 0.000000
# 2 -0.000369 0.025734 -0.011928 0.000000 -0.000695 0.000000
# 3 0.000748 -0.011928 0.023869 0.000000 -0.016811 0.000000
# 4 0.000000 0.000000 0.000000 0.205246 0.000000 -0.384529
# 5 -0.009282 -0.000695 -0.016811 0.000000 0.045645 0.000000
# 6 0.000000 0.000000 0.000000 -0.384529 0.000000 0.911921
#
#
# Mechanical properties :
#
#
# Convention : Reuss Voigt Hill
#
# Bulk Modulus (GPa) = 24.69348 43.18517 33.93933
# Shear Modulus (GPa) = 3.95883 24.66100 14.30991
#
# Velocity S-wave (km/s) = 1.44246 3.60019 2.74245
# Velocity P-wave (km/s) = 3.96897 6.32291 5.27882
#
# Compressibility (1/GPa) = 0.04049651
#
# Stress axis : x y z
#
# Youngs Moduli (GPa) = 71.48193 38.85845 41.89518
#
# Poissons Ratio (x) = 0.01433 -0.03135
# Poissons Ratio (y) = 0.02636 0.49972
# Poissons Ratio (z) = -0.05349 0.46350
#
# Static dielectric constant tensor:
#      x y z
#    x 1.761440 0.000000 0.005520 
#    y 0.000000 1.733640 0.000000 
#    z 0.005520 0.000000 1.699770 
# 
# From -- ./inp_files/261659.got.cif
#   From: 2010.05.17/outbox.cif.g08.bks.cpg/sg15_131_cif.got.tgz:261659.got - 2010.06.03 18:47:42.
