data_PCOD9268354
_publ_section_title
;
Structure prediction by ZEFSAII (Michael W. Deem and Ramdas Pophale) SiO2 
 PCOD9268354
Probable space group: C 2/C
;
_chemical_formula_sum "Si O2"
_cell_formula_units_Z 64
_cell_length_a 19.855598
_cell_length_b 23.696473
_cell_length_c 9.006903
_cell_angle_alpha 90.000000
_cell_angle_beta 131.865828
_cell_angle_gamma 90.000000
_cell_volume 3155.943275
_symmetry_space_group_name_H-M "C 2/C"
_symmetry_group_IT_number 15
_symmetry_cell_setting 'monoclinic'
loop_
_space_group_symop_operation_xyz
x,y,z
-x,y,1/2-z
-x,-y,-z
x,-y,1/2+z
1/2+x,1/2+y,z
1/2-x,1/2+y,1/2-z
1/2-x,1/2-y,-z
1/2+x,1/2-y,1/2+z
loop_
_atom_site_type_symbol
_atom_site_label
_atom_site_fract_x
_atom_site_fract_y
_atom_site_fract_z
Si Si1 0.607547 0.650600 0.942090
Si Si2 0.805290 0.953166 0.285255
Si Si3 0.353618 0.966736 0.050767
Si Si4 0.585516 0.069368 0.183009
Si Si5 0.910985 0.270358 0.507561
Si Si6 0.231382 0.348290 0.048728
Si Si7 0.397180 0.529893 0.627518
Si Si8 0.939145 0.635763 0.812722
O O1 0.500000 0.645929 0.750000
O O2 0.610029 0.704463 0.052587
O O3 0.679269 0.665813 0.916209
O O4 0.631738 0.585400 0.010927
O O5 0.763124 0.891365 0.223874
O O6 0.884592 0.952668 0.279339
O O7 0.837632 0.977970 0.486466
O O8 0.736344 0.997756 0.111122
O O9 0.359667 0.907817 0.149195
O O10 0.416008 0.013395 0.221685
O O11 0.387754 0.951315 0.939494
O O12 0.661769 0.113086 0.351146
O O13 0.493065 0.102444 0.022396
O O14 0.826917 0.297567 0.472716
O O15 0.920251 0.305518 0.368289
O O16 0.000000 0.273844 0.750000
O O17 0.500000 0.515889 0.750000
O O18 0.000000 0.642631 0.750000
#
# Coordination Sequence:
#
# PCOD9268354 Si02
#       8
#     8   8   8   8   8   8   8   8
#     4   9  20  37  59  87 110 150 197 255 295 334
#     4  10  20  33  55  84 114 149 182 241 292 357
#     4  10  20  31  51  77 118 156 187 229 282 344
#     4  10  20  34  50  81 116 159 188 237 282 347
#     4  11  21  36  62  85 113 160 200 243 284 349
#     4  10  20  35  59  88 121 142 199 244 298 344
#     4  10  20  37  58  82 113 144 191 243 301 347
#     4  10  22  36  51  80 118 158 195 238 284 341
#
# _framework density 20.279198999999998
#
# number of rings (size 3 to 8) (size 9 to 14) (size 15 to 20)
#    0.000    2.000    1.250    3.375    5.250    0.000 
#    0.000    0.000    0.000   15.000    0.000    0.000 
#    0.000    0.000    0.000    0.000    0.000    0.000 
#
# Total GULP energy -178264.253139 kJ/mol
# GULP energy per Si atom -5570.757911 kJ/mol
# Density = 2.023304 g / cm^3
# Si number density = 20.279199 Si / 1000 Ang^3
#
#
#
# Elastic Constant Matrix: (Units=GPa)
#
#
# Indices 1 2 3 4 5 6 
#
# 1 44.0431 -10.4783 -4.0522 0.0000 10.8784 0.0000
# 2 -10.4783 77.5809 0.3198 0.0000 -5.7441 0.0000
# 3 -4.0522 0.3198 19.6557 0.0000 -5.9235 0.0000
# 4 0.0000 0.0000 0.0000 4.3353 0.0000 -15.1797
# 5 10.8784 -5.7441 -5.9235 0.0000 24.9706 0.0000
# 6 0.0000 0.0000 0.0000 -15.1797 0.0000 22.5003
#
#
#
# Elastic Compliance Matrix: (Units=1/GPa)
#
#
# Indices 1 2 3 4 5 6 
#
# 1 0.026087 0.002759 0.002261 0.000000 -0.010194 0.000000
# 2 0.002759 0.013415 0.000989 0.000000 0.002118 0.000000
# 3 0.002261 0.000989 0.055032 0.000000 0.012297 0.000000
# 4 0.000000 0.000000 0.000000 -0.169329 0.000000 -0.114238
# 5 -0.010194 0.002118 0.012297 0.000000 0.047892 0.000000
# 6 0.000000 0.000000 0.000000 -0.114238 0.000000 -0.032626
#
#
# Mechanical properties :
#
#
# Convention : Reuss Voigt Hill
#
# Bulk Modulus (GPa) = 9.38493 12.53980 10.96236
# Shear Modulus (GPa) = -138.77244 20.72726 -59.02259
#
# Velocity S-wave (km/s) = -8.28127 3.20049 -5.40076
# Velocity P-wave (km/s) = 9.31673 4.45584 5.78562
#
# Compressibility (1/GPa) = 0.10655384
#
# Stress axis : x y z
#
# Youngs Moduli (GPa) = 38.33270 74.54217 18.17130
#
# Poissons Ratio (x) = -0.20569 -0.04109
# Poissons Ratio (y) = -0.10577 -0.01797
# Poissons Ratio (z) = -0.08668 -0.07372
#
# Static dielectric constant tensor:
#      x y z
#    x 1.774530 0.000000 0.034640 
#    y 0.000000 1.753080 0.000000 
#    z 0.034640 0.000000 1.731840 
# 
# From -- ./inp_files/58658.got.cif
#   From: 2010.05.17/outbox.cif.g08.bks.cpg/sg15_30_cif.got.tgz:58658.got - 2010.06.03 18:47:42.
