data_PCOD9268865
_publ_section_title
;
Structure prediction by ZEFSAII (Michael W. Deem and Ramdas Pophale) SiO2 
 PCOD9268865
Probable space group: C 2/C
;
_chemical_formula_sum "Si O2"
_cell_formula_units_Z 64
_cell_length_a 21.193854
_cell_length_b 9.339946
_cell_length_c 20.993428
_cell_angle_alpha 90.000000
_cell_angle_beta 52.013945
_cell_angle_gamma 90.000000
_cell_volume 3275.309688
_symmetry_space_group_name_H-M "C 2/C"
_symmetry_group_IT_number 15
_symmetry_cell_setting 'monoclinic'
loop_
_space_group_symop_operation_xyz
x,y,z
-x,y,1/2-z
-x,-y,-z
x,-y,1/2+z
1/2+x,1/2+y,z
1/2-x,1/2+y,1/2-z
1/2-x,1/2-y,-z
1/2+x,1/2-y,1/2+z
loop_
_atom_site_type_symbol
_atom_site_label
_atom_site_fract_x
_atom_site_fract_y
_atom_site_fract_z
Si Si1 0.575778 0.108496 0.602018
Si Si2 0.408309 0.396396 0.855349
Si Si3 0.319691 0.742111 0.043710
Si Si4 0.000921 0.673495 0.388139
Si Si5 0.884568 0.065354 0.107081
Si Si6 0.559695 0.541225 0.799123
Si Si7 0.247625 0.481623 0.488758
Si Si8 0.556410 0.279707 0.483965
O O1 0.562674 0.233778 0.660732
O O2 0.662544 0.042814 0.561404
O O3 0.578694 0.188045 0.531476
O O4 0.511334 0.981553 0.635400
O O5 0.469625 0.478027 0.864253
O O6 0.415053 0.480441 0.784684
O O7 0.317109 0.404920 0.933905
O O8 0.323822 0.674109 0.111260
O O9 0.269929 0.886892 0.063713
O O10 0.410112 0.774905 0.962329
O O11 0.281021 0.625913 0.021046
O O12 0.045267 0.789557 0.316004
O O13 0.047604 0.680643 0.426520
O O14 0.882687 0.019167 0.181791
O O15 0.887267 0.915567 0.066608
O O16 0.969717 0.146379 0.047074
#
# Coordination Sequence:
#
# PCOD9268865 Si02
#       8
#     8   8   8   8   8   8   8   8
#     4  11  20  32  55  89 115 137 177 244 284 322
#     4  11  21  35  54  79 113 149 186 219 280 334
#     4   9  17  32  57  82 106 140 183 231 274 324
#     4   9  18  33  56  86 107 139 182 235 285 322
#     4   9  16  31  56  78 104 144 190 223 271 324
#     4  10  20  36  57  75 105 154 186 225 264 349
#     4  10  20  33  54  82 116 141 180 229 282 329
#     4   9  16  28  53  87 112 130 178 238 284 323
#
# _framework density 19.540136
#
# number of rings (size 3 to 8) (size 9 to 14) (size 15 to 20)
#    0.000    2.250    2.500    2.250    0.000    0.000 
#    0.000    2.500    8.250    0.000    0.000    0.000 
#    0.000    0.000    0.000    0.000    0.000    0.000 
#
# Total GULP energy -178295.752833 kJ/mol
# GULP energy per Si atom -5571.742276 kJ/mol
# Density = 1.949566 g / cm^3
# Si number density = 19.540136 Si / 1000 Ang^3
#
#
#
# Elastic Constant Matrix: (Units=GPa)
#
#
# Indices 1 2 3 4 5 6 
#
# 1 61.0184 12.9541 10.5865 0.0000 20.2400 0.0002
# 2 12.9541 81.2489 21.0389 0.0001 17.8501 0.0004
# 3 10.5865 21.0389 36.0647 0.0000 17.5270 0.0000
# 4 0.0000 0.0001 0.0000 15.6839 0.0000 7.7796
# 5 20.2400 17.8501 17.5270 0.0000 22.2947 0.0000
# 6 0.0002 0.0004 0.0000 7.7796 0.0000 24.7884
#
#
#
# Elastic Compliance Matrix: (Units=1/GPa)
#
#
# Indices 1 2 3 4 5 6 
#
# 1 0.024194 0.000589 0.005596 0.000000 -0.026835 0.000000
# 2 0.000589 0.015457 -0.004719 0.000000 -0.009201 0.000000
# 3 0.005596 -0.004719 0.047692 0.000000 -0.038795 0.000000
# 4 0.000000 0.000000 0.000000 0.075515 0.000000 -0.023700
# 5 -0.026835 -0.009201 -0.038795 0.000000 0.107082 0.000000
# 6 0.000000 0.000000 0.000000 -0.023700 0.000000 0.047779
#
#
# Mechanical properties :
#
#
# Convention : Reuss Voigt Hill
#
# Bulk Modulus (GPa) = 11.07713 29.72123 20.39918
# Shear Modulus (GPa) = 14.49787 21.47022 17.98405
#
# Velocity S-wave (km/s) = 2.72684 3.31837 3.03704
# Velocity P-wave (km/s) = 3.94910 5.47042 4.77079
#
# Compressibility (1/GPa) = 0.09027606
#
# Stress axis : x y z
#
# Youngs Moduli (GPa) = 41.33290 64.69474 20.96785
#
# Poissons Ratio (x) = -0.03811 -0.11733
# Poissons Ratio (y) = -0.02435 0.09894
# Poissons Ratio (z) = -0.23130 0.30527
#
# Static dielectric constant tensor:
#      x y z
#    x 1.688170 0.000000 0.017910 
#    y 0.000000 1.715170 0.000000 
#    z 0.017910 0.000000 1.690210 
# 
# From -- ./inp_files/254840.got.cif
#   From: 2010.05.17/outbox.cif.g08.bks.cpg/sg15_128_cif.got.tgz:254840.got - 2010.06.03 18:47:42.
