data_PCOD9268404
_publ_section_title
;
Structure prediction by ZEFSAII (Michael W. Deem and Ramdas Pophale) SiO2 
 PCOD9268404
Probable space group: C 2/C
;
_chemical_formula_sum "Si O2"
_cell_formula_units_Z 56
_cell_length_a 27.634196
_cell_length_b 15.387575
_cell_length_c 23.420319
_cell_angle_alpha 90.000000
_cell_angle_beta 17.640956
_cell_angle_gamma 90.000000
_cell_volume 3018.045536
_symmetry_space_group_name_H-M "C 2/C"
_symmetry_group_IT_number 15
_symmetry_cell_setting 'monoclinic'
loop_
_space_group_symop_operation_xyz
x,y,z
-x,y,1/2-z
-x,-y,-z
x,-y,1/2+z
1/2+x,1/2+y,z
1/2-x,1/2+y,1/2-z
1/2-x,1/2-y,-z
1/2+x,1/2-y,1/2+z
loop_
_atom_site_type_symbol
_atom_site_label
_atom_site_fract_x
_atom_site_fract_y
_atom_site_fract_z
Si Si1 0.136632 0.430304 0.709406
Si Si2 0.385376 0.432524 0.332968
Si Si3 0.325447 0.331753 0.659651
Si Si4 0.183807 0.490468 0.272626
Si Si5 0.217285 0.400076 0.414537
Si Si6 0.368812 0.711460 0.984507
Si Si7 0.863993 0.837320 0.129708
O O1 0.222349 0.429303 0.552082
O O2 0.196145 0.496879 0.690633
O O3 0.200711 0.338864 0.663540
O O4 0.949075 0.443651 0.914917
O O5 0.500000 0.481892 0.250000
O O6 0.328426 0.453740 0.332824
O O7 0.491878 0.345617 0.200848
O O8 0.269517 0.427396 0.705734
O O9 0.402258 0.291999 0.514716
O O10 0.188168 0.261156 0.824350
O O11 0.446492 0.338494 0.575942
O O12 0.272638 0.403011 0.190979
O O13 0.000000 0.500000 0.500000
O O14 0.156606 0.308089 0.509693
O O15 0.305915 0.370999 0.257519
#
# Coordination Sequence:
#
# PCOD9268404 Si02
#       7
#     8   8   8   8   8   8   8
#     4  10  21  31  46  69  98 140 180 221 267 314
#     4  10  20  32  43  64  99 137 177 222 255 317
#     4  10  21  35  55  82 105 148 185 225 280 322
#     4  11  21  37  54  78 107 144 184 234 277 323
#     4  11  19  30  48  70  99 144 179 219 265 314
#     4   9  19  30  47  69 101 135 181 214 262 317
#     4  11  21  35  57  77 111 145 187 231 273 328
#
# _framework density 18.555053999999998
#
# number of rings (size 3 to 8) (size 9 to 14) (size 15 to 20)
#    0.000    1.714    2.857    2.571    8.000    6.286 
#    0.000    0.000    0.000    0.000    0.000    0.000 
#    0.000    1.143    7.143    3.000    0.000    0.000 
#
# Total GULP energy -155889.156214 kJ/mol
# GULP energy per Si atom -5567.469865 kJ/mol
# Density = 1.851282 g / cm^3
# Si number density = 18.555054 Si / 1000 Ang^3
#
#
#
# Elastic Constant Matrix: (Units=GPa)
#
#
# Indices 1 2 3 4 5 6 
#
# 1 67.8952 1.1795 3.3109 -0.0012 -19.7045 0.0008
# 2 1.1795 17.8185 -13.3754 -0.0063 -2.7923 0.0029
# 3 3.3109 -13.3754 34.3048 -0.0182 -14.6193 0.0091
# 4 -0.0012 -0.0063 -0.0182 12.7320 -0.0005 -0.2630
# 5 -19.7045 -2.7923 -14.6193 -0.0005 34.5503 0.0003
# 6 0.0008 0.0029 0.0091 -0.2630 0.0003 14.3472
#
#
#
# Elastic Compliance Matrix: (Units=1/GPa)
#
#
# Indices 1 2 3 4 5 6 
#
# 1 0.018230 0.005466 0.006088 0.000014 0.013415 -0.000006
# 2 0.005466 0.101073 0.053302 0.000127 0.033840 -0.000053
# 3 0.006088 0.053302 0.064246 0.000119 0.034964 -0.000050
# 4 0.000014 0.000127 0.000119 0.078572 0.000070 0.001440
# 5 0.013415 0.033840 0.034964 0.000070 0.054123 -0.000029
# 6 -0.000006 -0.000053 -0.000050 0.001440 -0.000029 0.069727
#
#
# Mechanical properties :
#
#
# Convention : Reuss Voigt Hill
#
# Bulk Modulus (GPa) = 3.19222 11.36094 7.27658
# Shear Modulus (GPa) = 13.86273 20.91945 17.39109
#
# Velocity S-wave (km/s) = 2.73630 3.36136 3.06481
# Velocity P-wave (km/s) = 3.42159 4.60447 4.05638
#
# Compressibility (1/GPa) = 0.31326123
#
# Stress axis : x y z
#
# Youngs Moduli (GPa) = 54.85483 9.89380 15.56529
#
# Poissons Ratio (x) = -0.05408 -0.09477
# Poissons Ratio (y) = -0.29982 -0.82966
# Poissons Ratio (z) = -0.33398 -0.52736
#
# Static dielectric constant tensor:
#      x y z
#    x 1.707920 0.000000 -0.034410 
#    y 0.000000 1.638600 0.000000 
#    z -0.034410 0.000000 1.705860 
# 
# From -- ./inp_files/283616.got.cif
#   From: 2010.05.17/outbox.cif.g08.bks.cpg/sg15_142_cif.got.tgz:283616.got - 2010.06.03 18:47:42.
