data_PCOD9268777
_publ_section_title
;
Structure prediction by ZEFSAII (Michael W. Deem and Ramdas Pophale) SiO2 
 PCOD9268777
Probable space group: C 2/C
;
_chemical_formula_sum "Si O2"
_cell_formula_units_Z 44
_cell_length_a 10.306597
_cell_length_b 25.199890
_cell_length_c 9.344556
_cell_angle_alpha 90.000000
_cell_angle_beta 49.363351
_cell_angle_gamma 90.000000
_cell_volume 1841.752832
_symmetry_space_group_name_H-M "C 2/C"
_symmetry_group_IT_number 15
_symmetry_cell_setting 'monoclinic'
loop_
_space_group_symop_operation_xyz
x,y,z
-x,y,1/2-z
-x,-y,-z
x,-y,1/2+z
1/2+x,1/2+y,z
1/2-x,1/2+y,1/2-z
1/2-x,1/2-y,-z
1/2+x,1/2-y,1/2+z
loop_
_atom_site_type_symbol
_atom_site_label
_atom_site_fract_x
_atom_site_fract_y
_atom_site_fract_z
Si Si1 0.500000 0.752904 0.750000
Si Si2 0.665369 0.657364 0.297899
Si Si3 0.216174 0.038031 0.755208
Si Si4 0.741185 0.365411 0.432614
Si Si5 0.167211 0.281749 0.362218
Si Si6 0.803873 0.939407 0.548168
O O1 0.655603 0.714826 0.678233
O O2 0.530567 0.787397 0.586507
O O3 0.464575 0.641902 0.429630
O O4 0.658773 0.720463 0.320284
O O5 0.727313 0.621014 0.383783
O O6 0.768395 0.640935 0.081522
O O7 0.283776 0.079713 0.823976
O O8 0.272417 0.048081 0.552370
O O9 0.255318 0.979654 0.785442
O O10 0.009457 0.048303 0.896587
O O11 0.828372 0.319744 0.275271
#
# Coordination Sequence:
#
# PCOD9268777 Si02
#       6
#     4   8   8   8   8   8
#     4  10  24  34  58  78 116 138 194 222 276 312
#     4  10  20  33  52  78 113 147 181 224 274 326
#     4   9  17  28  46  72 107 144 179 222 275 324
#     4  10  20  33  52  78 113 147 181 224 274 326
#     4  11  21  38  54  82 112 148 180 230 268 334
#     4   9  17  28  46  72 107 144 179 222 275 324
#
# _framework density 23.890284999999999
#
# number of rings (size 3 to 8) (size 9 to 14) (size 15 to 20)
#    0.000    2.182    1.818    1.636    5.091    4.364 
#    0.000    0.000    0.000    0.000    0.000    1.273 
#    0.000    0.000    0.000    0.000    0.000    0.000 
#
# Total GULP energy -122949.086242 kJ/mol
# GULP energy per Si atom -5588.594829 kJ/mol
# Density = 2.383591 g / cm^3
# Si number density = 23.890285 Si / 1000 Ang^3
#
#
#
# Elastic Constant Matrix: (Units=GPa)
#
#
# Indices 1 2 3 4 5 6 
#
# 1 32.6569 -4.0583 18.2850 0.0000 11.0885 0.0000
# 2 -4.0583 106.9569 31.0370 0.0000 23.5436 0.0000
# 3 18.2850 31.0370 146.1847 0.0000 41.8063 0.0000
# 4 0.0000 0.0000 0.0000 37.8042 0.0000 11.6779
# 5 11.0885 23.5436 41.8063 0.0000 39.5978 0.0000
# 6 0.0000 0.0000 0.0000 11.6779 0.0000 16.0382
#
#
#
# Elastic Compliance Matrix: (Units=1/GPa)
#
#
# Indices 1 2 3 4 5 6 
#
# 1 0.035960 0.004292 -0.002578 0.000000 -0.009900 0.000000
# 2 0.004292 0.011313 -0.000962 0.000000 -0.006913 0.000000
# 3 -0.002578 -0.000962 0.010024 0.000000 -0.009289 0.000000
# 4 0.000000 0.000000 0.000000 0.034128 0.000000 -0.024850
# 5 -0.009900 -0.006913 -0.009289 0.000000 0.041943 0.000000
# 6 0.000000 0.000000 0.000000 -0.024850 0.000000 0.080445
#
#
# Mechanical properties :
#
#
# Convention : Reuss Voigt Hill
#
# Bulk Modulus (GPa) = 17.00674 41.81402 29.41038
# Shear Modulus (GPa) = 21.56012 34.72370 28.14191
#
# Velocity S-wave (km/s) = 3.00736 3.81657 3.43587
# Velocity P-wave (km/s) = 4.38099 6.07965 5.29883
#
# Compressibility (1/GPa) = 0.05880023
#
# Stress axis : x y z
#
# Youngs Moduli (GPa) = 27.80905 88.39270 99.76207
#
# Poissons Ratio (x) = -0.37935 0.25718
# Poissons Ratio (y) = -0.11935 0.09595
# Poissons Ratio (z) = 0.07169 0.08502
#
# Static dielectric constant tensor:
#      x y z
#    x 1.929490 0.000000 -0.034770 
#    y 0.000000 1.860370 0.000000 
#    z -0.034770 0.000000 1.951730 
# 
# From -- ./inp_files/32714.got.cif
#   From: 2010.05.17/outbox.cif.g08.bks.cpg/sg15_17_cif.got.tgz:32714.got - 2010.06.03 18:47:42.
