data_PCOD9268046
_publ_section_title
;
Structure prediction by ZEFSAII (Michael W. Deem and Ramdas Pophale) SiO2 
 PCOD9268046
Probable space group: C 2/C
;
_chemical_formula_sum "Si O2"
_cell_formula_units_Z 48
_cell_length_a 8.854823
_cell_length_b 17.146311
_cell_length_c 17.714246
_cell_angle_alpha 90.000000
_cell_angle_beta 129.045698
_cell_angle_gamma 90.000000
_cell_volume 2088.791644
_symmetry_space_group_name_H-M "C 2/C"
_symmetry_group_IT_number 15
_symmetry_cell_setting 'monoclinic'
loop_
_space_group_symop_operation_xyz
x,y,z
-x,y,1/2-z
-x,-y,-z
x,-y,1/2+z
1/2+x,1/2+y,z
1/2-x,1/2+y,1/2-z
1/2-x,1/2-y,-z
1/2+x,1/2-y,1/2+z
loop_
_atom_site_type_symbol
_atom_site_label
_atom_site_fract_x
_atom_site_fract_y
_atom_site_fract_z
Si Si1 0.633572 0.265675 0.040171
Si Si2 0.705661 0.490307 0.862806
Si Si3 0.319211 0.677590 0.794952
Si Si4 0.263368 0.827929 0.399832
Si Si5 0.983622 0.929848 0.554543
Si Si6 0.317772 0.997594 0.745282
O O1 0.458216 0.205461 0.996530
O O2 0.543493 0.351098 0.998479
O O3 0.750000 0.250000 0.000000
O O4 0.756386 0.277139 0.155471
O O5 0.500000 0.487576 0.750000
O O6 0.752970 0.578683 0.899681
O O7 0.679807 0.442597 0.931626
O O8 0.857018 0.472048 0.843743
O O9 0.229388 0.698272 0.685885
O O10 0.550393 0.695237 0.862860
O O11 0.284355 0.583622 0.788602
O O12 0.000000 0.000000 0.500000
O O13 0.180633 0.933995 0.663897
O O14 0.500000 0.006881 0.750000
#
# Coordination Sequence:
#
# PCOD9268046 Si02
#       6
#     8   8   8   8   8   8
#     4  12  27  40  61 102 138 168 216 276 333 386
#     4   9  17  38  66  90 119 168 217 258 325 388
#     4  10  20  41  68  91 125 180 217 259 331 402
#     4  10  19  41  68  91 124 176 223 261 324 400
#     4  11  21  42  66  93 133 166 211 273 329 384
#     4  10  20  38  69  94 121 167 229 265 322 393
#
# _framework density 22.979793999999998
#
# number of rings (size 3 to 8) (size 9 to 14) (size 15 to 20)
#    0.000    1.667    6.667    0.500    4.667    0.000 
#   12.000    5.000    0.000    0.000    0.000    0.000 
#    0.000    0.000    0.000    0.000    0.000    0.000 
#
# Total GULP energy -133997.513444 kJ/mol
# GULP energy per Si atom -5583.229727 kJ/mol
# Density = 2.292749 g / cm^3
# Si number density = 22.979794 Si / 1000 Ang^3
#
#
#
# Elastic Constant Matrix: (Units=GPa)
#
#
# Indices 1 2 3 4 5 6 
#
# 1 102.6351 0.9547 20.8437 0.0000 -23.5030 0.0000
# 2 0.9547 33.9247 7.9523 0.0000 3.3578 0.0000
# 3 20.8437 7.9523 64.3637 0.0000 -23.6770 0.0000
# 4 0.0000 0.0000 0.0000 26.6228 0.0000 -13.0157
# 5 -23.5030 3.3578 -23.6770 0.0000 38.3806 0.0000
# 6 0.0000 0.0000 0.0000 -13.0157 0.0000 23.6693
#
#
#
# Elastic Compliance Matrix: (Units=1/GPa)
#
#
# Indices 1 2 3 4 5 6 
#
# 1 0.011450 -0.000628 -0.001334 0.000000 0.006244 0.000000
# 2 -0.000628 0.031668 -0.006300 0.000000 -0.007041 0.000000
# 3 -0.001334 -0.006300 0.021537 0.000000 0.013021 0.000000
# 4 0.000000 0.000000 0.000000 0.051373 0.000000 0.028250
# 5 0.006244 -0.007041 0.013021 0.000000 0.038527 0.000000
# 6 0.000000 0.000000 0.000000 0.028250 0.000000 0.057783
#
#
# Mechanical properties :
#
#
# Convention : Reuss Voigt Hill
#
# Bulk Modulus (GPa) = 20.77571 28.93611 24.85591
# Shear Modulus (GPa) = 20.41622 29.14606 24.78114
#
# Velocity S-wave (km/s) = 2.98391 3.56523 3.28744
# Velocity P-wave (km/s) = 4.57516 5.43757 5.02490
#
# Compressibility (1/GPa) = 0.04813313
#
# Stress axis : x y z
#
# Youngs Moduli (GPa) = 87.33858 31.57728 46.43247
#
# Poissons Ratio (x) = 0.01982 0.06192
# Poissons Ratio (y) = 0.05481 0.29251
# Poissons Ratio (z) = 0.11647 0.19893
#
# Static dielectric constant tensor:
#      x y z
#    x 1.967840 0.000000 -0.047660 
#    y 0.000000 1.828130 0.000000 
#    z -0.047660 0.000000 1.943260 
# 
# From -- ./inp_files/190609.got.cif
#   From: 2010.05.17/outbox.cif.g08.bks.cpg/sg15_96_cif.got.tgz:190609.got - 2010.06.03 18:47:42.
