data_PCOD9268425
_publ_section_title
;
Structure prediction by ZEFSAII (Michael W. Deem and Ramdas Pophale) SiO2 
 PCOD9268425
Probable space group: C 2/C
;
_chemical_formula_sum "Si O2"
_cell_formula_units_Z 56
_cell_length_a 4.938649
_cell_length_b 22.578119
_cell_length_c 25.072009
_cell_angle_alpha 90.000000
_cell_angle_beta 87.068589
_cell_angle_gamma 90.000000
_cell_volume 2792.006304
_symmetry_space_group_name_H-M "C 2/C"
_symmetry_group_IT_number 15
_symmetry_cell_setting 'monoclinic'
loop_
_space_group_symop_operation_xyz
x,y,z
-x,y,1/2-z
-x,-y,-z
x,-y,1/2+z
1/2+x,1/2+y,z
1/2-x,1/2+y,1/2-z
1/2-x,1/2-y,-z
1/2+x,1/2-y,1/2+z
loop_
_atom_site_type_symbol
_atom_site_label
_atom_site_fract_x
_atom_site_fract_y
_atom_site_fract_z
Si Si1 0.428360 0.232060 0.610344
Si Si2 0.136428 0.875268 0.495266
Si Si3 0.163591 0.483063 0.943880
Si Si4 0.414868 0.339983 0.690319
Si Si5 0.955455 0.715511 0.059948
Si Si6 0.547471 0.893164 0.862072
Si Si7 0.340083 0.111607 0.573458
O O1 0.379605 0.276992 0.659918
O O2 0.743233 0.241664 0.592737
O O3 0.342445 0.163481 0.617201
O O4 0.245993 0.253182 0.561486
O O5 0.273882 0.815277 0.516031
O O6 0.346353 0.893687 0.446877
O O7 0.838663 0.866867 0.475373
O O8 0.141057 0.929726 0.537467
O O9 0.271726 0.545025 0.919552
O O10 0.010445 0.453086 0.895616
O O11 0.000000 0.500000 0.000000
O O12 0.500000 0.329877 0.750000
O O13 0.146948 0.379129 0.685175
O O14 0.648576 0.378019 0.658815
O O15 0.019130 0.657399 0.094380
#
# Coordination Sequence:
#
# PCOD9268425 Si02
#       7
#     8   8   8   8   8   8   8
#     4  10  20  32  48  74 100 128 164 207 265 315
#     4  10  20  32  48  69  99 142 182 208 237 286
#     4   9  20  36  53  77 111 149 182 212 256 314
#     4  10  20  37  59  79 100 129 171 228 281 318
#     4   9  18  32  47  69 103 133 167 212 249 292
#     4   9  19  34  56  81 103 133 177 221 262 313
#     4  11  21  31  47  71 102 140 174 203 243 304
#
# _framework density 20.057259999999999
#
# number of rings (size 3 to 8) (size 9 to 14) (size 15 to 20)
#    0.000    2.286    0.000    2.571    0.000   12.571 
#    0.000    0.000    0.000    1.714    0.000    0.000 
#    0.000    0.000    0.000    0.000    0.000    0.000 
#
# Total GULP energy -155870.482431 kJ/mol
# GULP energy per Si atom -5566.802944 kJ/mol
# Density = 2.001161 g / cm^3
# Si number density = 20.057260 Si / 1000 Ang^3
#
#
#
# Elastic Constant Matrix: (Units=GPa)
#
#
# Indices 1 2 3 4 5 6 
#
# 1 72.2732 30.6003 2.6393 0.0000 15.1970 0.0000
# 2 30.6003 124.0070 53.8751 0.0000 16.7079 0.0000
# 3 2.6393 53.8751 89.2571 0.0000 18.2076 0.0000
# 4 0.0000 0.0000 0.0000 21.4887 0.0000 2.5708
# 5 15.1970 16.7079 18.2076 0.0000 22.9932 0.0000
# 6 0.0000 0.0000 0.0000 2.5708 0.0000 10.2159
#
#
#
# Elastic Compliance Matrix: (Units=1/GPa)
#
#
# Indices 1 2 3 4 5 6 
#
# 1 0.018424 -0.005060 0.005061 0.000000 -0.012508 0.000000
# 2 -0.005060 0.012526 -0.007438 0.000000 0.000132 0.000000
# 3 0.005061 -0.007438 0.018037 0.000000 -0.012223 0.000000
# 4 0.000000 0.000000 0.000000 0.047981 0.000000 -0.012074
# 5 -0.012508 0.000132 -0.012223 0.000000 0.061341 0.000000
# 6 0.000000 0.000000 0.000000 -0.012074 0.000000 0.100925
#
#
# Mechanical properties :
#
#
# Convention : Reuss Voigt Hill
#
# Bulk Modulus (GPa) = 29.31453 51.08518 40.19986
# Shear Modulus (GPa) = 17.51444 24.16773 20.84109
#
# Velocity S-wave (km/s) = 2.95824 3.47499 3.22697
# Velocity P-wave (km/s) = 5.12985 6.45180 5.82842
#
# Compressibility (1/GPa) = 0.03411277
#
# Stress axis : x y z
#
# Youngs Moduli (GPa) = 54.27737 79.83178 55.44195
#
# Poissons Ratio (x) = 0.40393 -0.28057
# Poissons Ratio (y) = 0.27463 0.41238
# Poissons Ratio (z) = -0.27468 0.59380
#
# Static dielectric constant tensor:
#      x y z
#    x 1.751330 0.000000 0.031590 
#    y 0.000000 1.794920 0.000000 
#    z 0.031590 0.000000 1.734920 
# 
# From -- ./inp_files/286265.got.cif
#   From: 2010.05.17/outbox.cif.g08.bks.cpg/sg15_144_cif.got.tgz:286265.got - 2010.06.03 18:47:42.
