data_PCOD9268388
_publ_section_title
;
Structure prediction by ZEFSAII (Michael W. Deem and Ramdas Pophale) SiO2 
 PCOD9268388
Probable space group: C 2/C
;
_chemical_formula_sum "Si O2"
_cell_formula_units_Z 60
_cell_length_a 23.010193
_cell_length_b 15.650536
_cell_length_c 27.067548
_cell_angle_alpha 90.000000
_cell_angle_beta 161.038440
_cell_angle_gamma 90.000000
_cell_volume 3167.329070
_symmetry_space_group_name_H-M "C 2/C"
_symmetry_group_IT_number 15
_symmetry_cell_setting 'monoclinic'
loop_
_space_group_symop_operation_xyz
x,y,z
-x,y,1/2-z
-x,-y,-z
x,-y,1/2+z
1/2+x,1/2+y,z
1/2-x,1/2+y,1/2-z
1/2-x,1/2-y,-z
1/2+x,1/2-y,1/2+z
loop_
_atom_site_type_symbol
_atom_site_label
_atom_site_fract_x
_atom_site_fract_y
_atom_site_fract_z
Si Si1 0.636005 0.728632 0.481371
Si Si2 0.676451 0.992906 0.077261
Si Si3 0.914239 0.379314 0.908156
Si Si4 0.613712 0.629962 0.292356
Si Si5 0.085863 0.450065 0.215934
Si Si6 0.352417 0.430228 0.894427
Si Si7 0.361597 0.690269 0.903419
Si Si8 0.500000 0.133035 0.750000
O O1 0.479302 0.699453 0.318795
O O2 0.698256 0.825973 0.540377
O O3 0.590874 0.694635 0.499899
O O4 0.816945 0.687354 0.604161
O O5 0.605688 0.060878 0.060381
O O6 0.866059 0.037462 0.217297
O O7 0.567216 0.006145 0.939250
O O8 0.615890 0.900734 0.050053
O O9 0.780202 0.412532 0.757964
O O10 0.851181 0.285698 0.873928
O O11 0.500000 0.620878 0.250000
O O12 0.235441 0.524789 0.342413
O O13 0.189060 0.373336 0.268143
O O14 0.015854 0.418970 0.212151
O O15 0.500000 0.500000 0.000000
O O16 0.477717 0.348443 0.000099
#
# Coordination Sequence:
#
# PCOD9268388 Si02
#       8
#     8   8   8   8   8   8   8   4
#     4  11  23  32  51  79 109 142 178 224 263 335
#     4  10  21  34  50  75 112 142 183 219 270 321
#     4  10  20  33  53  78 105 148 178 223 276 326
#     4  12  23  34  51  75 110 146 186 222 270 321
#     4   9  20  35  54  80 111 147 180 226 267 321
#     4   9  19  37  53  79 108 142 184 227 273 328
#     4  10  20  31  57  79 111 138 180 221 274 326
#     4  10  20  36  54  78 110 142 188 216 270 330
#
# _framework density 18.943406
#
# number of rings (size 3 to 8) (size 9 to 14) (size 15 to 20)
#    0.000    1.867    2.000    2.000    5.600    0.000 
#    0.000    0.000    0.000    0.000    1.733    1.867 
#    0.000    0.000    0.000    0.000    0.000    0.000 
#
# Total GULP energy -167056.527931 kJ/mol
# GULP energy per Si atom -5568.550931 kJ/mol
# Density = 1.890029 g / cm^3
# Si number density = 18.943406 Si / 1000 Ang^3
#
#
#
# Elastic Constant Matrix: (Units=GPa)
#
#
# Indices 1 2 3 4 5 6 
#
# 1 66.6154 39.2883 16.5637 -0.0253 6.9715 -0.0094
# 2 39.2883 58.8647 20.0697 -0.0421 14.1470 -0.0002
# 3 16.5637 20.0697 56.8898 -0.0286 3.1164 -0.0037
# 4 -0.0253 -0.0421 -0.0286 18.7162 0.0088 7.1349
# 5 6.9715 14.1470 3.1164 0.0088 24.4426 0.0007
# 6 -0.0094 -0.0002 -0.0037 7.1349 0.0007 27.1118
#
#
#
# Elastic Compliance Matrix: (Units=1/GPa)
#
#
# Indices 1 2 3 4 5 6 
#
# 1 0.025046 -0.016886 -0.001489 -0.000012 0.002820 0.000011
# 2 -0.016886 0.033721 -0.006218 0.000058 -0.013908 -0.000021
# 3 -0.001489 -0.006218 0.020125 0.000015 0.001458 -0.000002
# 4 -0.000012 0.000058 0.000015 0.059388 -0.000053 -0.015629
# 5 0.002820 -0.013908 0.001458 -0.000053 0.047972 0.000014
# 6 0.000011 -0.000021 -0.000002 -0.015629 0.000014 0.040997
#
#
# Mechanical properties :
#
#
# Convention : Reuss Voigt Hill
#
# Bulk Modulus (GPa) = 33.66435 37.13482 35.39958
# Shear Modulus (GPa) = 17.46184 21.15066 19.30625
#
# Velocity S-wave (km/s) = 3.03939 3.34506 3.19588
# Velocity P-wave (km/s) = 5.48879 5.87918 5.68734
#
# Compressibility (1/GPa) = 0.02970501
#
# Stress axis : x y z
#
# Youngs Moduli (GPa) = 39.92643 29.65490 49.68900
#
# Poissons Ratio (x) = 0.50077 0.07401
# Poissons Ratio (y) = 0.67422 0.30896
# Poissons Ratio (z) = 0.05947 0.18439
#
# Static dielectric constant tensor:
#      x y z
#    x 1.658260 0.000000 0.029540 
#    y 0.000000 1.751760 -0.000050 
#    z 0.029540 -0.000050 1.854250 
# 
# From -- ./inp_files/318891.got.cif
#   From: 2010.05.17/outbox.cif.g08.bks.cpg/sg15_160_cif.got.tgz:318891.got - 2010.06.03 18:47:42.
