data_PCOD9268209
_publ_section_title
;
Structure prediction by ZEFSAII (Michael W. Deem and Ramdas Pophale) SiO2 
 PCOD9268209
Probable space group: C 2/C
;
_chemical_formula_sum "Si O2"
_cell_formula_units_Z 60
_cell_length_a 25.445368
_cell_length_b 17.163610
_cell_length_c 19.892926
_cell_angle_alpha 90.000000
_cell_angle_beta 159.775152
_cell_angle_gamma 90.000000
_cell_volume 3003.460450
_symmetry_space_group_name_H-M "C 2/C"
_symmetry_group_IT_number 15
_symmetry_cell_setting 'monoclinic'
loop_
_space_group_symop_operation_xyz
x,y,z
-x,y,1/2-z
-x,-y,-z
x,-y,1/2+z
1/2+x,1/2+y,z
1/2-x,1/2+y,1/2-z
1/2-x,1/2-y,-z
1/2+x,1/2-y,1/2+z
loop_
_atom_site_type_symbol
_atom_site_label
_atom_site_fract_x
_atom_site_fract_y
_atom_site_fract_z
Si Si1 0.174290 0.184528 0.078676
Si Si2 0.623700 0.018883 0.510596
Si Si3 0.663870 0.517548 0.115435
Si Si4 0.487521 0.167618 0.055203
Si Si5 0.879058 0.585373 0.787960
Si Si6 0.154087 0.013948 0.336268
Si Si7 0.172458 0.826282 0.936250
Si Si8 0.500000 0.601930 0.750000
O O1 0.340790 0.195527 0.247849
O O2 0.174025 0.110685 0.128659
O O3 0.115087 0.260541 0.044886
O O4 0.069082 0.155266 0.891170
O O5 0.768456 0.017759 0.735378
O O6 0.535298 0.098955 0.417939
O O7 0.695459 0.008909 0.523782
O O8 0.512779 0.949819 0.402479
O O9 0.779219 0.486474 0.196473
O O10 0.495865 0.492869 0.890976
O O11 0.441136 0.129872 0.927951
O O12 0.770045 0.641737 0.615729
O O13 0.119842 0.955990 0.357403
O O14 0.167956 0.101572 0.379177
O O15 0.000000 0.809417 0.750000
O O16 0.250000 0.750000 0.000000
#
# Coordination Sequence:
#
# PCOD9268209 Si02
#       8
#     8   8   8   8   8   8   8   4
#     4  11  23  43  66  97 135 174 211 276 338 395
#     4  11  23  41  71 103 122 177 230 274 327 403
#     4  10  19  44  71  93 133 170 221 276 330 392
#     4  11  25  42  67  98 136 167 222 275 338 393
#     4  11  22  47  70  92 133 180 221 284 330 395
#     4  11  23  43  70  97 128 178 223 272 329 405
#     4  12  27  45  65  96 136 175 220 278 344 403
#     4  10  24  46  70  88 138 178 220 272 334 396
#
# _framework density 19.976958
#
# number of rings (size 3 to 8) (size 9 to 14) (size 15 to 20)
#    0.000    1.067    4.667    2.000    5.600    2.667 
#    0.000    0.000    0.000    0.000    0.000    0.000 
#    0.000    0.000    0.000    0.000    0.000    0.000 
#
# Total GULP energy -167727.032285 kJ/mol
# GULP energy per Si atom -5590.901076 kJ/mol
# Density = 1.993149 g / cm^3
# Si number density = 19.976958 Si / 1000 Ang^3
#
#
#
# Elastic Constant Matrix: (Units=GPa)
#
#
# Indices 1 2 3 4 5 6 
#
# 1 126.2171 61.8018 31.7656 -0.0014 41.3475 -0.0012
# 2 61.8018 122.7281 41.0176 -0.0006 28.0800 -0.0004
# 3 31.7656 41.0176 66.3326 -0.0018 21.1294 -0.0025
# 4 -0.0014 -0.0006 -0.0018 24.1456 -0.0010 15.6496
# 5 41.3475 28.0800 21.1294 -0.0010 25.6611 -0.0017
# 6 -0.0012 -0.0004 -0.0025 15.6496 -0.0017 22.4249
#
#
#
# Elastic Compliance Matrix: (Units=1/GPa)
#
#
# Indices 1 2 3 4 5 6 
#
# 1 0.017873 -0.003637 0.002163 0.000001 -0.026600 -0.000002
# 2 -0.003637 0.012442 -0.004720 0.000000 -0.003868 -0.000001
# 3 0.002163 -0.004720 0.022262 0.000000 -0.016651 0.000001
# 4 0.000001 0.000000 0.000000 0.075618 -0.000003 -0.052772
# 5 -0.026600 -0.003868 -0.016651 -0.000003 0.099773 0.000006
# 6 -0.000002 -0.000001 0.000001 -0.052772 0.000006 0.081421
#
#
# Mechanical properties :
#
#
# Convention : Reuss Voigt Hill
#
# Bulk Modulus (GPa) = 24.88205 64.93868 44.91036
# Shear Modulus (GPa) = 14.91757 26.49250 20.70504
#
# Velocity S-wave (km/s) = 2.73562 3.64559 3.22288
# Velocity P-wave (km/s) = 4.73926 7.09209 6.03151
#
# Compressibility (1/GPa) = 0.04018961
#
# Stress axis : x y z
#
# Youngs Moduli (GPa) = 55.94890 80.37217 44.91889
#
# Poissons Ratio (x) = 0.29234 -0.09716
# Poissons Ratio (y) = 0.20350 0.21201
# Poissons Ratio (z) = -0.12102 0.37934
#
# Static dielectric constant tensor:
#      x y z
#    x 1.707310 0.000000 -0.012590 
#    y 0.000000 1.676180 0.000000 
#    z -0.012590 0.000000 1.729360 
# 
# From -- ./inp_files/257904.got.cif
#   From: 2010.05.17/outbox.cif.g08.bks.cpg/sg15_129_cif.got.tgz:257904.got - 2010.06.03 18:47:42.
