data_PCOD9268281
_publ_section_title
;
Structure prediction by ZEFSAII (Michael W. Deem and Ramdas Pophale) SiO2 
 PCOD9268281
Probable space group: C 2/C
;
_chemical_formula_sum "Si O2"
_cell_formula_units_Z 56
_cell_length_a 18.352206
_cell_length_b 23.048289
_cell_length_c 14.035067
_cell_angle_alpha 90.000000
_cell_angle_beta 31.241607
_cell_angle_gamma 90.000000
_cell_volume 3079.031849
_symmetry_space_group_name_H-M "C 2/C"
_symmetry_group_IT_number 15
_symmetry_cell_setting 'monoclinic'
loop_
_space_group_symop_operation_xyz
x,y,z
-x,y,1/2-z
-x,-y,-z
x,-y,1/2+z
1/2+x,1/2+y,z
1/2-x,1/2+y,1/2-z
1/2-x,1/2-y,-z
1/2+x,1/2-y,1/2+z
loop_
_atom_site_type_symbol
_atom_site_label
_atom_site_fract_x
_atom_site_fract_y
_atom_site_fract_z
Si Si1 0.161295 0.305190 0.066422
Si Si2 0.953931 0.046321 0.412241
Si Si3 0.517891 0.314521 0.340304
Si Si4 0.747088 0.761298 0.314549
Si Si5 0.382702 0.574251 0.084567
Si Si6 0.794995 0.637199 0.788328
Si Si7 0.121124 0.354770 0.903263
O O1 0.194079 0.350815 0.111713
O O2 0.000000 0.285655 0.250000
O O3 0.250000 0.250000 0.000000
O O4 0.172879 0.335607 0.951448
O O5 0.821961 0.087432 0.589413
O O6 0.000000 0.053922 0.250000
O O7 0.076240 0.060455 0.352086
O O8 0.913535 0.980195 0.482477
O O9 0.500000 0.327623 0.250000
O O10 0.406638 0.263771 0.491755
O O11 0.676224 0.296300 0.187673
O O12 0.474110 0.370444 0.450058
O O13 0.747603 0.804502 0.222785
O O14 0.843131 0.704500 0.191719
O O15 0.222216 0.594279 0.256555
O O16 0.958417 0.627592 0.577750
#
# Coordination Sequence:
#
# PCOD9268281 Si02
#       7
#     8   8   8   8   8   8   8
#     4  10  20  30  51  85 121 157 188 227 287 350
#     4  11  23  41  63  87 113 154 204 248 295 345
#     4  11  22  38  59  86 118 155 195 245 296 354
#     4  11  20  35  57  86 119 154 192 241 296 353
#     4  10  23  40  63  85 115 154 201 248 291 352
#     4  11  21  36  57  85 123 155 195 244 290 355
#     4  10  21  37  56  88 124 158 194 235 301 350
#
# _framework density 18.187535
#
# number of rings (size 3 to 8) (size 9 to 14) (size 15 to 20)
#    0.000    1.429    4.286    1.714    0.000    2.286 
#    0.000    0.000    0.000    0.000    0.000    0.000 
#    0.000    0.000    0.000    0.000    0.000    0.000 
#
# Total GULP energy -156060.494248 kJ/mol
# GULP energy per Si atom -5573.589080 kJ/mol
# Density = 1.814614 g / cm^3
# Si number density = 18.187535 Si / 1000 Ang^3
#
#
#
# Elastic Constant Matrix: (Units=GPa)
#
#
# Indices 1 2 3 4 5 6 
#
# 1 65.5812 14.9491 14.2268 -0.0026 4.1821 0.0003
# 2 14.9491 80.3017 44.8512 -0.0054 -14.5440 0.0024
# 3 14.2268 44.8512 56.7085 -0.0123 -8.7847 0.0056
# 4 -0.0026 -0.0054 -0.0123 -5.3013 0.0057 -3.5529
# 5 4.1821 -14.5440 -8.7847 0.0057 32.2071 -0.0031
# 6 0.0003 0.0024 0.0056 -3.5529 -0.0031 14.3447
#
#
#
# Elastic Compliance Matrix: (Units=1/GPa)
#
#
# Indices 1 2 3 4 5 6 
#
# 1 0.016655 -0.002043 -0.003174 -0.000003 -0.003951 0.000000
# 2 -0.002043 0.023529 -0.017134 0.000018 0.006217 0.000009
# 3 -0.003174 -0.017134 0.032208 -0.000041 0.001460 -0.000020
# 4 -0.000003 0.000018 -0.000041 -0.161779 0.000022 -0.040070
# 5 -0.003951 0.006217 0.001460 0.000022 0.034768 0.000012
# 6 0.000000 0.000009 -0.000020 -0.040070 0.000012 0.059788
#
#
# Mechanical properties :
#
#
# Convention : Reuss Voigt Hill
#
# Bulk Modulus (GPa) = 36.11528 38.96063 37.53796
# Shear Modulus (GPa) = 84.60258 16.82106 50.71182
#
# Velocity S-wave (km/s) = 6.82772 3.04446 5.28614
# Velocity P-wave (km/s) = 9.05855 5.81605 7.61196
#
# Compressibility (1/GPa) = 0.02768911
#
# Stress axis : x y z
#
# Youngs Moduli (GPa) = 60.04355 42.50038 31.04832
#
# Poissons Ratio (x) = 0.08683 0.09856
# Poissons Ratio (y) = 0.12267 0.53198
# Poissons Ratio (z) = 0.19061 0.72819
#
# Static dielectric constant tensor:
#      x y z
#    x 1.592800 0.000050 -0.008950 
#    y 0.000050 2.069880 0.000010 
#    z -0.008950 0.000010 1.663480 
# 
# From -- ./inp_files/51477.got.cif
#   From: 2010.05.17/outbox.cif.g08.bks.cpg/sg15_26_cif.got.tgz:51477.got - 2010.06.03 18:47:42.
