data_PCOD9268926
_publ_section_title
;
Structure prediction by ZEFSAII (Michael W. Deem and Ramdas Pophale) SiO2 
 PCOD9268926
Probable space group: C 2/C
;
_chemical_formula_sum "Si O2"
_cell_formula_units_Z 48
_cell_length_a 21.597891
_cell_length_b 18.924754
_cell_length_c 8.596061
_cell_angle_alpha 90.000000
_cell_angle_beta 48.044192
_cell_angle_gamma 90.000000
_cell_volume 2612.858608
_symmetry_space_group_name_H-M "C 2/C"
_symmetry_group_IT_number 15
_symmetry_cell_setting 'monoclinic'
loop_
_space_group_symop_operation_xyz
x,y,z
-x,y,1/2-z
-x,-y,-z
x,-y,1/2+z
1/2+x,1/2+y,z
1/2-x,1/2+y,1/2-z
1/2-x,1/2-y,-z
1/2+x,1/2-y,1/2+z
loop_
_atom_site_type_symbol
_atom_site_label
_atom_site_fract_x
_atom_site_fract_y
_atom_site_fract_z
Si Si1 0.492631 0.320190 0.074844
Si Si2 0.081452 0.956002 0.915040
Si Si3 0.339350 0.916858 0.808369
Si Si4 0.650188 0.575505 0.632138
Si Si5 0.581687 0.951096 0.509480
Si Si6 0.491542 0.165094 0.947709
O O1 0.500000 0.309839 0.250000
O O2 0.404176 0.361253 0.201038
O O3 0.562004 0.376066 0.898522
O O4 0.505018 0.246033 0.971795
O O5 0.154896 0.004145 0.725946
O O6 0.098041 0.948404 0.069105
O O7 0.000000 0.000000 0.000000
O O8 0.353253 0.925800 0.969720
O O9 0.397864 0.853667 0.655160
O O10 0.378144 0.985573 0.656320
O O11 0.243359 0.904184 0.932594
O O12 0.500000 0.972994 0.750000
O O13 0.549777 0.888633 0.449326
O O14 0.500000 0.153911 0.750000
#
# Coordination Sequence:
#
# PCOD9268926 Si02
#       6
#     8   8   8   8   8   8
#     4   9  19  36  55  76 105 142 179 214 257 314
#     4   9  18  34  55  79 107 140 179 214 254 313
#     4  11  20  34  56  81 110 136 170 221 269 313
#     4  10  20  33  56  84 109 137 171 220 270 311
#     4  10  20  35  55  78 106 140 178 214 257 318
#     4  11  22  36  55  76 102 141 184 219 257 314
#
# _framework density 18.370683
#
# number of rings (size 3 to 8) (size 9 to 14) (size 15 to 20)
#    0.000    2.000    0.000    7.500    0.000    3.333 
#    0.000    0.000    0.000    6.000    0.000    0.000 
#    0.000    0.000    0.000    0.000    0.000    0.000 
#
# Total GULP energy -133740.246060 kJ/mol
# GULP energy per Si atom -5572.510252 kJ/mol
# Density = 1.832887 g / cm^3
# Si number density = 18.370683 Si / 1000 Ang^3
#
#
#
# Elastic Constant Matrix: (Units=GPa)
#
#
# Indices 1 2 3 4 5 6 
#
# 1 74.5623 5.6742 20.7233 0.0000 9.2322 0.0000
# 2 5.6742 94.3007 21.5981 0.0000 12.7333 0.0000
# 3 20.7233 21.5981 31.6427 0.0000 8.2184 0.0000
# 4 0.0000 0.0000 0.0000 28.1282 0.0000 8.7987
# 5 9.2322 12.7333 8.2184 0.0000 30.1572 0.0000
# 6 0.0000 0.0000 0.0000 8.7987 0.0000 14.8803
#
#
#
# Elastic Compliance Matrix: (Units=1/GPa)
#
#
# Indices 1 2 3 4 5 6 
#
# 1 0.016860 0.002049 -0.011704 0.000000 -0.002837 0.000000
# 2 0.002049 0.013111 -0.009352 0.000000 -0.003615 0.000000
# 3 -0.011704 -0.009352 0.047023 0.000000 -0.005283 0.000000
# 4 0.000000 0.000000 0.000000 0.043619 0.000000 -0.025792
# 5 -0.002837 -0.003615 -0.005283 0.000000 0.036994 0.000000
# 6 0.000000 0.000000 0.000000 -0.025792 0.000000 0.082454
#
#
# Mechanical properties :
#
#
# Convention : Reuss Voigt Hill
#
# Bulk Modulus (GPa) = 25.65366 32.94410 29.29888
# Shear Modulus (GPa) = 17.17810 24.80049 20.98929
#
# Velocity S-wave (km/s) = 3.06123 3.67823 3.38382
# Velocity P-wave (km/s) = 5.14680 6.00092 5.59020
#
# Compressibility (1/GPa) = 0.03898079
#
# Stress axis : x y z
#
# Youngs Moduli (GPa) = 59.31284 76.27089 21.26601
#
# Poissons Ratio (x) = -0.15629 0.24889
# Poissons Ratio (y) = -0.12154 0.19889
# Poissons Ratio (z) = 0.69417 0.71331
#
# Static dielectric constant tensor:
#      x y z
#    x 1.654170 0.000000 0.000600 
#    y 0.000000 1.639760 0.000000 
#    z 0.000600 0.000000 1.651830 
# 
# From -- ./inp_files/56412.got.cif
#   From: 2010.05.17/outbox.cif.g08.bks.cpg/sg15_29_cif.got.tgz:56412.got - 2010.06.03 18:47:42.
