data_PCOD9268824
_publ_section_title
;
Structure prediction by ZEFSAII (Michael W. Deem and Ramdas Pophale) SiO2 
 PCOD9268824
Probable space group: C 2/C
;
_chemical_formula_sum "Si O2"
_cell_formula_units_Z 56
_cell_length_a 18.418292
_cell_length_b 9.704111
_cell_length_c 16.923599
_cell_angle_alpha 90.000000
_cell_angle_beta 58.713302
_cell_angle_gamma 90.000000
_cell_volume 2584.938804
_symmetry_space_group_name_H-M "C 2/C"
_symmetry_group_IT_number 15
_symmetry_cell_setting 'monoclinic'
loop_
_space_group_symop_operation_xyz
x,y,z
-x,y,1/2-z
-x,-y,-z
x,-y,1/2+z
1/2+x,1/2+y,z
1/2-x,1/2+y,1/2-z
1/2-x,1/2-y,-z
1/2+x,1/2-y,1/2+z
loop_
_atom_site_type_symbol
_atom_site_label
_atom_site_fract_x
_atom_site_fract_y
_atom_site_fract_z
Si Si1 0.651531 0.993152 0.618458
Si Si2 0.591220 0.846328 0.901531
Si Si3 0.080931 0.673600 0.906411
Si Si4 0.407281 0.718137 0.274279
Si Si5 0.583733 0.268980 0.231758
Si Si6 0.759581 0.232097 0.087998
Si Si7 0.736572 0.857487 0.936027
O O1 0.613117 0.130989 0.676208
O O2 0.681876 0.024702 0.512014
O O3 0.587833 0.866132 0.670335
O O4 0.733896 0.929092 0.616689
O O5 0.577202 0.773338 0.826263
O O6 0.677100 0.805435 0.898758
O O7 0.595283 0.010734 0.883466
O O8 0.512350 0.815720 0.003550
O O9 0.090444 0.757583 0.820339
O O10 0.151507 0.729182 0.926467
O O11 0.500000 0.674991 0.250000
O O12 0.330371 0.623236 0.347994
O O13 0.500000 0.347633 0.250000
O O14 0.680923 0.318741 0.168139
O O15 0.750000 0.250000 0.000000
O O16 0.750000 0.750000 0.000000
#
# Coordination Sequence:
#
# PCOD9268824 Si02
#       7
#     8   8   8   8   8   8   8
#     4   9  20  35  56  81 117 148 185 238 293 335
#     4  11  22  34  58  88 116 149 191 240 294 346
#     4  11  21  33  58  89 117 148 190 237 290 353
#     4  11  21  36  60  86 113 148 196 245 291 344
#     4  10  20  34  55  83 120 151 188 239 294 345
#     4  10  20  33  53  81 116 151 185 229 288 344
#     4  10  21  37  58  82 116 152 198 243 293 343
#
# _framework density 21.663957
#
# number of rings (size 3 to 8) (size 9 to 14) (size 15 to 20)
#    0.857    0.857    1.429    4.714    4.000    0.000 
#    0.000    0.000    0.000   16.286    0.000    0.000 
#    0.000    0.000    0.000    0.000    0.000    0.000 
#
# Total GULP energy -156139.081213 kJ/mol
# GULP energy per Si atom -5576.395758 kJ/mol
# Density = 2.161465 g / cm^3
# Si number density = 21.663957 Si / 1000 Ang^3
#
#
#
# Elastic Constant Matrix: (Units=GPa)
#
#
# Indices 1 2 3 4 5 6 
#
# 1 161.2772 9.7463 50.8591 0.0000 -1.8937 0.0000
# 2 9.7463 51.7207 12.9399 0.0000 1.4237 0.0000
# 3 50.8591 12.9399 132.7424 0.0000 5.2198 0.0000
# 4 0.0000 0.0000 0.0000 9.5805 0.0000 4.2767
# 5 -1.8937 1.4237 5.2198 0.0000 39.5277 0.0000
# 6 0.0000 0.0000 0.0000 4.2767 0.0000 12.0802
#
#
#
# Elastic Compliance Matrix: (Units=1/GPa)
#
#
# Indices 1 2 3 4 5 6 
#
# 1 0.007096 -0.000686 -0.002680 0.000000 0.000719 0.000000
# 2 -0.000686 0.019893 -0.001655 0.000000 -0.000531 0.000000
# 3 -0.002680 -0.001655 0.008770 0.000000 -0.001227 0.000000
# 4 0.000000 0.000000 0.000000 0.123971 0.000000 -0.043889
# 5 0.000719 -0.000531 -0.001227 0.000000 0.025514 0.000000
# 6 0.000000 0.000000 0.000000 -0.043889 0.000000 0.098318
#
#
# Mechanical properties :
#
#
# Convention : Reuss Voigt Hill
#
# Bulk Modulus (GPa) = 38.88815 54.75899 46.82357
# Shear Modulus (GPa) = 16.54667 30.38402 23.46535
#
# Velocity S-wave (km/s) = 2.76667 3.74908 3.29470
# Velocity P-wave (km/s) = 5.30995 6.63869 6.01115
#
# Compressibility (1/GPa) = 0.02571478
#
# Stress axis : x y z
#
# Youngs Moduli (GPa) = 140.93349 50.26964 114.02785
#
# Poissons Ratio (x) = 0.03450 0.30559
# Poissons Ratio (y) = 0.09674 0.18875
# Poissons Ratio (z) = 0.37769 0.08321
#
# Static dielectric constant tensor:
#      x y z
#    x 1.851820 0.000000 -0.074370 
#    y 0.000000 1.883080 0.000000 
#    z -0.074370 0.000000 1.824570 
# 
# From -- ./inp_files/210214.got.cif
#   From: 2010.05.17/outbox.cif.g08.bks.cpg/sg15_106_cif.got.tgz:210214.got - 2010.06.03 18:47:42.
