data_PCOD9268539
_publ_section_title
;
Structure prediction by ZEFSAII (Michael W. Deem and Ramdas Pophale) SiO2 
 PCOD9268539
Probable space group: C 2/C
;
_chemical_formula_sum "Si O2"
_cell_formula_units_Z 56
_cell_length_a 22.273141
_cell_length_b 5.342347
_cell_length_c 27.724486
_cell_angle_alpha 90.000000
_cell_angle_beta 68.001542
_cell_angle_gamma 90.000000
_cell_volume 3058.775799
_symmetry_space_group_name_H-M "C 2/C"
_symmetry_group_IT_number 15
_symmetry_cell_setting 'monoclinic'
loop_
_space_group_symop_operation_xyz
x,y,z
-x,y,1/2-z
-x,-y,-z
x,-y,1/2+z
1/2+x,1/2+y,z
1/2-x,1/2+y,1/2-z
1/2-x,1/2-y,-z
1/2+x,1/2-y,1/2+z
loop_
_atom_site_type_symbol
_atom_site_label
_atom_site_fract_x
_atom_site_fract_y
_atom_site_fract_z
Si Si1 0.755143 0.224957 0.874129
Si Si2 0.927731 0.376796 0.214055
Si Si3 0.113472 0.485648 0.666893
Si Si4 0.712953 0.552312 0.477336
Si Si5 0.716965 0.101184 0.779914
Si Si6 0.172404 0.162627 0.078569
Si Si7 0.502605 0.623877 0.691474
O O1 0.811777 0.422498 0.842830
O O2 0.702044 0.331476 0.927832
O O3 0.725550 0.113778 0.834932
O O4 0.796741 0.030364 0.893052
O O5 0.919244 0.399137 0.275266
O O6 0.856414 0.348689 0.214027
O O7 0.956902 0.644286 0.189829
O O8 0.973006 0.143081 0.185435
O O9 0.117575 0.679879 0.621797
O O10 0.074239 0.238832 0.661614
O O11 0.750000 0.750000 0.500000
O O12 0.767262 0.346163 0.450020
O O13 0.657801 0.451739 0.530060
O O14 0.759444 0.329988 0.745540
O O15 0.500000 0.610629 0.750000
#
# Coordination Sequence:
#
# PCOD9268539 Si02
#       7
#     8   8   8   8   8   8   8
#     4  10  20  32  54  82 111 147 182 225 284 338
#     4  11  22  37  50  75 110 150 188 223 270 321
#     4  10  20  33  52  79 103 146 183 235 280 332
#     4   8  16  32  48  81 112 138 172 230 285 347
#     4  12  24  37  54  78 114 152 192 224 264 339
#     4   9  17  30  55  77 114 134 180 228 291 341
#     4  10  22  35  53  72 105 145 189 232 269 319
#
# _framework density 18.307979
#
# number of rings (size 3 to 8) (size 9 to 14) (size 15 to 20)
#    0.000    2.000    1.429    3.000   10.000    0.000 
#    0.000    0.000    0.000    0.000    0.000    2.000 
#    0.000    0.000    0.000    0.000    0.000    0.000 
#
# Total GULP energy -155922.380316 kJ/mol
# GULP energy per Si atom -5568.656440 kJ/mol
# Density = 1.826631 g / cm^3
# Si number density = 18.307979 Si / 1000 Ang^3
#
#
#
# Elastic Constant Matrix: (Units=GPa)
#
#
# Indices 1 2 3 4 5 6 
#
# 1 74.3414 13.7566 15.3211 0.0002 -3.4156 -0.0039
# 2 13.7566 84.6962 22.2239 0.0133 -7.0834 0.0034
# 3 15.3211 22.2239 93.3865 0.0011 2.7823 -0.0100
# 4 0.0002 0.0133 0.0011 29.3899 0.0102 -4.3589
# 5 -3.4156 -7.0834 2.7823 0.0102 12.6132 -0.0184
# 6 -0.0039 0.0034 -0.0100 -4.3589 -0.0184 18.0406
#
#
#
# Elastic Compliance Matrix: (Units=1/GPa)
#
#
# Indices 1 2 3 4 5 6 
#
# 1 0.014320 -0.001481 -0.002101 0.000000 0.003510 0.000006
# 2 -0.001481 0.013554 -0.003219 -0.000009 0.007921 0.000001
# 3 -0.002101 -0.003219 0.011968 0.000003 -0.005017 0.000002
# 4 0.000000 -0.000009 0.000003 0.035290 -0.000021 0.008527
# 5 0.003510 0.007921 -0.005017 -0.000021 0.085788 0.000079
# 6 0.000006 0.000001 0.000002 0.008527 0.000079 0.057491
#
#
# Mechanical properties :
#
#
# Convention : Reuss Voigt Hill
#
# Bulk Modulus (GPa) = 38.10899 39.44747 38.77823
# Shear Modulus (GPa) = 20.76757 25.41691 23.09224
#
# Velocity S-wave (km/s) = 3.37166 3.73003 3.55536
# Velocity P-wave (km/s) = 6.00151 6.33594 6.17099
#
# Compressibility (1/GPa) = 0.02624053
#
# Stress axis : x y z
#
# Youngs Moduli (GPa) = 69.83324 73.77646 83.55345
#
# Poissons Ratio (x) = 0.10926 0.17558
# Poissons Ratio (y) = 0.10342 0.26893
# Poissons Ratio (z) = 0.14675 0.23746
#
# Static dielectric constant tensor:
#      x y z
#    x 1.675010 0.000060 -0.089820 
#    y 0.000060 1.762940 -0.000070 
#    z -0.089820 -0.000070 1.713500 
# 
# From -- ./inp_files/278635.got.cif
#   From: 2010.05.17/outbox.cif.g08.bks.cpg/sg15_140_cif.got.tgz:278635.got - 2010.06.03 18:47:42.
