data_PCOD9268992
_publ_section_title
;
Structure prediction by ZEFSAII (Michael W. Deem and Ramdas Pophale) SiO2 
 PCOD9268992
Probable space group: C 2/C
;
_chemical_formula_sum "Si O2"
_cell_formula_units_Z 48
_cell_length_a 28.503078
_cell_length_b 9.488228
_cell_length_c 20.250654
_cell_angle_alpha 90.000000
_cell_angle_beta 161.282083
_cell_angle_gamma 90.000000
_cell_volume 1757.511051
_symmetry_space_group_name_H-M "C 2/C"
_symmetry_group_IT_number 15
_symmetry_cell_setting 'monoclinic'
loop_
_space_group_symop_operation_xyz
x,y,z
-x,y,1/2-z
-x,-y,-z
x,-y,1/2+z
1/2+x,1/2+y,z
1/2-x,1/2+y,1/2-z
1/2-x,1/2-y,-z
1/2+x,1/2-y,1/2+z
loop_
_atom_site_type_symbol
_atom_site_label
_atom_site_fract_x
_atom_site_fract_y
_atom_site_fract_z
Si Si1 0.272298 0.061593 0.707920
Si Si2 0.513357 0.200566 0.196967
Si Si3 0.483227 0.293585 0.008526
Si Si4 0.238242 0.023158 0.807212
Si Si5 0.725266 0.979327 0.434977
Si Si6 0.479567 0.723275 0.300065
O O1 0.426248 0.141187 0.913902
O O2 0.264134 0.983246 0.765619
O O3 0.252747 0.987113 0.612623
O O4 0.139083 0.175789 0.536091
O O5 0.500000 0.275104 0.250000
O O6 0.664691 0.116132 0.389911
O O7 0.485700 0.288313 0.092565
O O8 0.393584 0.072967 0.040598
O O9 0.369303 0.396081 0.817258
O O10 0.638664 0.340685 0.189044
O O11 0.606942 0.851728 0.282172
O O12 0.872341 0.912017 0.659926
O O13 0.500000 0.759640 0.250000
#
# Coordination Sequence:
#
# PCOD9268992 Si02
#       6
#     8   8   8   8   8   8
#     4  10  20  36  61  89 121 164 218 273 324 387
#     4  11  25  43  67  98 134 176 223 276 337 401
#     4  10  23  42  65  92 128 174 224 275 332 403
#     4  10  23  42  64  91 126 171 220 272 335 399
#     4  10  20  33  58  92 129 167 214 271 330 391
#     4   9  18  33  55  89 128 169 216 268 326 389
#
# _framework density 27.311350999999998
#
# number of rings (size 3 to 8) (size 9 to 14) (size 15 to 20)
#    0.000    2.000    0.000    2.500    0.000   12.667 
#    0.000    2.500    0.000    0.000    0.000    0.000 
#    0.000    0.000    0.000    0.000    0.000    0.000 
#
# Total GULP energy -134382.006877 kJ/mol
# GULP energy per Si atom -5599.250287 kJ/mol
# Density = 2.724919 g / cm^3
# Si number density = 27.311351 Si / 1000 Ang^3
#
#
#
# Elastic Constant Matrix: (Units=GPa)
#
#
# Indices 1 2 3 4 5 6 
#
# 1 174.1643 23.1882 33.0453 0.0000 -25.6463 0.0000
# 2 23.1882 76.9897 55.0914 0.0000 17.8858 0.0000
# 3 33.0453 55.0914 105.7147 0.0000 19.1033 0.0000
# 4 0.0000 0.0000 0.0000 54.5182 0.0000 5.6316
# 5 -25.6463 17.8858 19.1033 0.0000 41.3356 0.0000
# 6 0.0000 0.0000 0.0000 5.6316 0.0000 17.9762
#
#
#
# Elastic Compliance Matrix: (Units=1/GPa)
#
#
# Indices 1 2 3 4 5 6 
#
# 1 0.007460 -0.002014 -0.002484 0.000000 0.006648 0.000000
# 2 -0.002014 0.021994 -0.009696 0.000000 -0.006285 0.000000
# 3 -0.002484 -0.009696 0.016159 0.000000 -0.004813 0.000000
# 4 0.000000 0.000000 0.000000 0.018956 0.000000 -0.005939
# 5 0.006648 -0.006285 -0.004813 0.000000 0.033261 0.000000
# 6 0.000000 0.000000 0.000000 -0.005939 0.000000 0.057490
#
#
# Mechanical properties :
#
#
# Convention : Reuss Voigt Hill
#
# Bulk Modulus (GPa) = 58.05719 64.39095 61.22407
# Shear Modulus (GPa) = 26.39242 39.13558 32.76400
#
# Velocity S-wave (km/s) = 3.11199 3.78953 3.46735
# Velocity P-wave (km/s) = 5.84948 6.54027 6.20450
#
# Compressibility (1/GPa) = 0.01722439
#
# Stress axis : x y z
#
# Youngs Moduli (GPa) = 134.04846 45.46718 61.88627
#
# Poissons Ratio (x) = 0.09157 0.15370
# Poissons Ratio (y) = 0.26997 0.60008
# Poissons Ratio (z) = 0.33293 0.44087
#
# Static dielectric constant tensor:
#      x y z
#    x 2.085220 0.000000 0.024290 
#    y 0.000000 2.159280 0.000000 
#    z 0.024290 0.000000 2.080500 
# 
# From -- ./inp_files/259254.got.cif
#   From: 2010.05.17/outbox.cif.g08.bks.cpg/sg15_130_cif.got.tgz:259254.got - 2010.06.03 18:47:42.
