data_PCOD9268958
_publ_section_title
;
Structure prediction by ZEFSAII (Michael W. Deem and Ramdas Pophale) SiO2 
 PCOD9268958
Probable space group: C 2/C
;
_chemical_formula_sum "Si O2"
_cell_formula_units_Z 56
_cell_length_a 31.779588
_cell_length_b 12.281367
_cell_length_c 8.229602
_cell_angle_alpha 90.000000
_cell_angle_beta 60.046963
_cell_angle_gamma 90.000000
_cell_volume 2782.977935
_symmetry_space_group_name_H-M "C 2/C"
_symmetry_group_IT_number 15
_symmetry_cell_setting 'monoclinic'
loop_
_space_group_symop_operation_xyz
x,y,z
-x,y,1/2-z
-x,-y,-z
x,-y,1/2+z
1/2+x,1/2+y,z
1/2-x,1/2+y,1/2-z
1/2-x,1/2-y,-z
1/2+x,1/2-y,1/2+z
loop_
_atom_site_type_symbol
_atom_site_label
_atom_site_fract_x
_atom_site_fract_y
_atom_site_fract_z
Si Si1 0.660983 0.163948 0.814950
Si Si2 0.013949 0.879200 0.534147
Si Si3 0.292321 0.602031 0.860877
Si Si4 0.081875 0.839995 0.907943
Si Si5 0.393730 0.434469 0.999797
Si Si6 0.741065 0.702364 0.272001
Si Si7 0.697585 0.982835 0.980856
O O1 0.613979 0.238813 0.902055
O O2 0.707094 0.245556 0.698948
O O3 0.661228 0.074542 0.673348
O O4 0.674162 0.089391 0.945449
O O5 0.071775 0.868292 0.438837
O O6 0.000000 0.871077 0.750000
O O7 0.974875 0.809688 0.509361
O O8 0.000000 0.000000 0.500000
O O9 0.339783 0.565301 0.675371
O O10 0.268141 0.697240 0.802700
O O11 0.249981 0.512698 0.957879
O O12 0.298535 0.650199 0.028167
O O13 0.101055 0.885592 0.692719
O O14 0.087108 0.941384 0.021997
O O15 0.783288 0.613913 0.170564
#
# Coordination Sequence:
#
# PCOD9268958 Si02
#       7
#     8   8   8   8   8   8   8
#     4  11  23  37  58  79 113 154 198 230 282 335
#     4   8  16  33  53  79 113 140 172 224 280 334
#     4  10  21  33  53  78 111 144 188 226 276 328
#     4  10  21  36  55  86 114 148 186 230 283 345
#     4  10  20  33  57  84 115 148 178 228 286 339
#     4  10  21  36  51  77 111 146 189 232 270 329
#     4  11  21  38  54  78 115 156 185 238 273 328
#
# _framework density 20.122330000000002
#
# number of rings (size 3 to 8) (size 9 to 14) (size 15 to 20)
#    0.000    2.000    1.429    2.143    4.000    1.143 
#    0.000    0.000    0.000    0.000    0.000   16.000 
#    0.000    0.143    0.000    0.000    0.000    0.000 
#
# Total GULP energy -155971.270228 kJ/mol
# GULP energy per Si atom -5570.402508 kJ/mol
# Density = 2.007653 g / cm^3
# Si number density = 20.122330 Si / 1000 Ang^3
#
#
#
# Elastic Constant Matrix: (Units=GPa)
#
#
# Indices 1 2 3 4 5 6 
#
# 1 88.9863 38.3029 8.4590 0.0000 -3.9752 0.0000
# 2 38.3029 72.4066 1.8213 0.0000 -2.3537 0.0000
# 3 8.4590 1.8213 20.7653 0.0000 2.8900 0.0000
# 4 0.0000 0.0000 0.0000 56.4495 0.0000 -27.2196
# 5 -3.9752 -2.3537 2.8900 0.0000 14.4476 0.0000
# 6 0.0000 0.0000 0.0000 -27.2196 0.0000 53.1978
#
#
#
# Elastic Compliance Matrix: (Units=1/GPa)
#
#
# Indices 1 2 3 4 5 6 
#
# 1 0.015390 -0.007850 -0.006164 0.000000 0.004188 0.000000
# 2 -0.007850 0.017939 0.001562 0.000000 0.000450 0.000000
# 3 -0.006164 0.001562 0.052184 0.000000 -0.011880 0.000000
# 4 0.000000 0.000000 0.000000 0.023517 0.000000 0.012033
# 5 0.004188 0.000450 -0.011880 0.000000 0.072818 0.000000
# 6 0.000000 0.000000 0.000000 0.012033 0.000000 0.024955
#
#
# Mechanical properties :
#
#
# Convention : Reuss Voigt Hill
#
# Bulk Modulus (GPa) = 16.49908 31.03607 23.76757
# Shear Modulus (GPa) = 19.84844 33.72399 26.78621
#
# Velocity S-wave (km/s) = 3.14409 4.09828 3.65248
# Velocity P-wave (km/s) = 4.62575 6.15237 5.44285
#
# Compressibility (1/GPa) = 0.06060945
#
# Stress axis : x y z
#
# Youngs Moduli (GPa) = 64.97910 55.74510 19.16278
#
# Poissons Ratio (x) = 0.43759 0.11811
# Poissons Ratio (y) = 0.51008 -0.02993
# Poissons Ratio (z) = 0.40050 -0.08706
#
# Static dielectric constant tensor:
#      x y z
#    x 1.773680 0.000000 0.030190 
#    y 0.000000 1.754420 0.000000 
#    z 0.030190 0.000000 1.810780 
# 
# From -- ./inp_files/69302.got.cif
#   From: 2010.05.17/outbox.cif.g08.bks.cpg/sg15_35_cif.got.tgz:69302.got - 2010.06.03 18:47:42.
