data_PCOD9268401
_publ_section_title
;
Structure prediction by ZEFSAII (Michael W. Deem and Ramdas Pophale) SiO2 
 PCOD9268401
Probable space group: C 2/C
;
_chemical_formula_sum "Si O2"
_cell_formula_units_Z 52
_cell_length_a 9.738668
_cell_length_b 18.394863
_cell_length_c 19.814941
_cell_angle_alpha 90.000000
_cell_angle_beta 45.462885
_cell_angle_gamma 90.000000
_cell_volume 2530.196889
_symmetry_space_group_name_H-M "C 2/C"
_symmetry_group_IT_number 15
_symmetry_cell_setting 'monoclinic'
loop_
_space_group_symop_operation_xyz
x,y,z
-x,y,1/2-z
-x,-y,-z
x,-y,1/2+z
1/2+x,1/2+y,z
1/2-x,1/2+y,1/2-z
1/2-x,1/2-y,-z
1/2+x,1/2-y,1/2+z
loop_
_atom_site_type_symbol
_atom_site_label
_atom_site_fract_x
_atom_site_fract_y
_atom_site_fract_z
Si Si1 0.792208 0.812194 0.039651
Si Si2 0.713040 0.312874 0.957262
Si Si3 0.500000 0.875410 0.750000
Si Si4 0.500000 0.435111 0.250000
Si Si5 0.000000 0.633770 0.750000
Si Si6 0.710089 0.091046 0.948760
Si Si7 0.830833 0.508222 0.725167
Si Si8 0.140885 0.563269 0.509336
O O1 0.618042 0.820246 0.154060
O O2 0.786714 0.886824 0.998780
O O3 0.750000 0.750000 0.000000
O O4 0.998467 0.803537 0.003135
O O5 0.864831 0.326042 0.844482
O O6 0.750000 0.250000 0.000000
O O7 0.737775 0.383847 0.995409
O O8 0.373355 0.932453 0.748174
O O9 0.637135 0.383214 0.158509
O O10 0.366447 0.482995 0.247065
O O11 0.847430 0.577182 0.769856
O O12 0.496777 0.107737 0.994593
O O13 0.727859 0.003861 0.939905
O O14 0.000045 0.525834 0.613056
#
# Coordination Sequence:
#
# PCOD9268401 Si02
#       8
#     8   8   4   4   4   8   8   8
#     4  11  24  42  63  93 124 170 212 256 315 375
#     4  12  27  43  63  90 127 173 213 259 318 376
#     4  11  24  43  62  90 126 162 210 268 307 375
#     4  10  20  31  63  99 125 158 198 256 318 377
#     4   9  20  40  67  89 127 166 206 262 313 370
#     4  10  20  38  61  94 126 159 204 255 313 369
#     4   9  18  38  61  96 124 156 205 261 317 362
#     4   9  19  38  64  89 127 157 199 262 308 368
#
# _framework density 20.551760999999999
#
# number of rings (size 3 to 8) (size 9 to 14) (size 15 to 20)
#    0.000    1.846    1.538    1.846    2.154    2.462 
#    0.000    0.769    0.000    0.000    0.000    0.000 
#    0.000    0.000    0.000    0.000    0.000    0.000 
#
# Total GULP energy -145035.824880 kJ/mol
# GULP energy per Si atom -5578.300957 kJ/mol
# Density = 2.050498 g / cm^3
# Si number density = 20.551761 Si / 1000 Ang^3
#
#
#
# Elastic Constant Matrix: (Units=GPa)
#
#
# Indices 1 2 3 4 5 6 
#
# 1 184.4139 54.0487 39.2285 0.0002 -6.7346 -0.0001
# 2 54.0487 71.0468 37.8473 -0.0002 -0.8561 0.0000
# 3 39.2285 37.8473 109.1281 -0.0005 8.1772 0.0000
# 4 0.0002 -0.0002 -0.0005 29.0860 0.0005 18.0460
# 5 -6.7346 -0.8561 8.1772 0.0005 29.0949 -0.0001
# 6 -0.0001 0.0000 0.0000 18.0460 -0.0001 35.3555
#
#
#
# Elastic Compliance Matrix: (Units=1/GPa)
#
#
# Indices 1 2 3 4 5 6 
#
# 1 0.007128 -0.004863 -0.001010 0.000000 0.001791 0.000000
# 2 -0.004863 0.020727 -0.005518 0.000000 0.001035 0.000000
# 3 -0.001010 -0.005518 0.011717 0.000000 -0.003689 0.000000
# 4 0.000000 0.000000 0.000000 0.050314 -0.000001 -0.025681
# 5 0.001791 0.001035 -0.003689 -0.000001 0.035852 0.000001
# 6 0.000000 0.000000 0.000000 -0.025681 0.000001 0.041392
#
#
# Mechanical properties :
#
#
# Convention : Reuss Voigt Hill
#
# Bulk Modulus (GPa) = 59.55972 69.64864 64.60418
# Shear Modulus (GPa) = 25.57437 34.27156 29.92297
#
# Velocity S-wave (km/s) = 3.53142 4.08802 3.81987
# Velocity P-wave (km/s) = 6.75804 7.49970 7.13851
#
# Compressibility (1/GPa) = 0.01678987
#
# Stress axis : x y z
#
# Youngs Moduli (GPa) = 140.28964 48.24707 85.34855
#
# Poissons Ratio (x) = 0.23463 0.08620
# Poissons Ratio (y) = 0.68224 0.47093
# Poissons Ratio (z) = 0.14168 0.26621
#
# Static dielectric constant tensor:
#      x y z
#    x 1.754360 0.000000 0.028300 
#    y 0.000000 1.790980 0.000000 
#    z 0.028300 0.000000 1.836950 
# 
# From -- ./inp_files/233029.got.cif
#   From: 2010.05.17/outbox.cif.g08.bks.cpg/sg15_117_cif.got.tgz:233029.got - 2010.06.03 18:47:42.
