data_PCOD9268766
_publ_section_title
;
Structure prediction by ZEFSAII (Michael W. Deem and Ramdas Pophale) SiO2 
 PCOD9268766
Probable space group: C 2/C
;
_chemical_formula_sum "Si O2"
_cell_formula_units_Z 40
_cell_length_a 12.723831
_cell_length_b 31.175336
_cell_length_c 5.224062
_cell_angle_alpha 90.000000
_cell_angle_beta 105.358198
_cell_angle_gamma 90.000000
_cell_volume 1998.225615
_symmetry_space_group_name_H-M "C 2/C"
_symmetry_group_IT_number 15
_symmetry_cell_setting 'monoclinic'
loop_
_space_group_symop_operation_xyz
x,y,z
-x,y,1/2-z
-x,-y,-z
x,-y,1/2+z
1/2+x,1/2+y,z
1/2-x,1/2+y,1/2-z
1/2-x,1/2-y,-z
1/2+x,1/2-y,1/2+z
loop_
_atom_site_type_symbol
_atom_site_label
_atom_site_fract_x
_atom_site_fract_y
_atom_site_fract_z
Si Si1 0.217359 0.298286 0.038012
Si Si2 0.128246 0.881442 0.375764
Si Si3 0.114310 0.671223 0.969534
Si Si4 0.761735 0.913334 0.561337
Si Si5 0.949005 0.547681 0.468559
O O1 0.311048 0.335069 0.073920
O O2 0.181026 0.300243 0.309142
O O3 0.250000 0.250000 0.000000
O O4 0.126375 0.311040 0.765686
O O5 0.152554 0.905189 0.658362
O O6 0.000000 0.876145 0.250000
O O7 0.182561 0.908929 0.179171
O O8 0.000000 0.667717 0.750000
O O9 0.176082 0.625926 0.019641
O O10 0.680880 0.952482 0.580300
O O11 0.000000 0.569274 0.250000
O O12 0.000000 0.500000 0.500000
O O13 0.000000 0.568899 0.750000
#
# Coordination Sequence:
#
# PCOD9268766 Si02
#       5
#     8   8   8   8   8
#     4  10  21  36  51  75 106 140 187 235 277 328
#     4  10  21  36  55  79 108 150 196 232 271 321
#     4  10  20  33  52  76 104 138 174 221 285 335
#     4  10  20  35  55  81 113 141 181 230 266 330
#     4  10  20  34  56  89 118 143 171 214 284 348
#
# _framework density 20.017759999999999
#
# number of rings (size 3 to 8) (size 9 to 14) (size 15 to 20)
#    0.000    2.000    0.000    3.600    0.000    4.800 
#    0.000    0.000    0.000    0.000    0.000   56.000 
#    0.000    0.000    0.000    0.000    0.000    0.000 
#
# Total GULP energy -111439.969494 kJ/mol
# GULP energy per Si atom -5571.998475 kJ/mol
# Density = 1.997220 g / cm^3
# Si number density = 20.017760 Si / 1000 Ang^3
#
#
#
# Elastic Constant Matrix: (Units=GPa)
#
#
# Indices 1 2 3 4 5 6 
#
# 1 89.1904 26.2543 37.1521 0.0000 20.1311 0.0000
# 2 26.2543 59.1073 11.5110 0.0000 2.0752 0.0000
# 3 37.1521 11.5110 149.6548 0.0000 6.3538 0.0000
# 4 0.0000 0.0000 0.0000 -11.0144 0.0000 5.7079
# 5 20.1311 2.0752 6.3538 0.0000 49.1327 0.0000
# 6 0.0000 0.0000 0.0000 5.7079 0.0000 12.8743
#
#
#
# Elastic Compliance Matrix: (Units=1/GPa)
#
#
# Indices 1 2 3 4 5 6 
#
# 1 0.015627 -0.006124 -0.003165 0.000000 -0.005735 0.000000
# 2 -0.006124 0.019590 -0.000058 0.000000 0.001689 0.000000
# 3 -0.003165 -0.000058 0.007458 0.000000 0.000335 0.000000
# 4 0.000000 0.000000 0.000000 -0.073828 0.000000 0.032732
# 5 -0.005735 0.001689 0.000335 0.000000 0.022588 0.000000
# 6 0.000000 0.000000 0.000000 0.032732 0.000000 0.063162
#
#
# Mechanical properties :
#
#
# Convention : Reuss Voigt Hill
#
# Bulk Modulus (GPa) = 41.69822 49.75414 45.72618
# Shear Modulus (GPa) = 61.51072 25.06752 43.28912
#
# Velocity S-wave (km/s) = 5.54930 3.54257 4.65535
# Velocity P-wave (km/s) = 7.86991 6.45307 7.19644
#
# Compressibility (1/GPa) = 0.02398184
#
# Stress axis : x y z
#
# Youngs Moduli (GPa) = 63.99022 51.04528 134.08338
#
# Poissons Ratio (x) = 0.31258 0.42438
# Poissons Ratio (y) = 0.39185 0.00782
# Poissons Ratio (z) = 0.20253 0.00298
#
# Static dielectric constant tensor:
#      x y z
#    x 1.777530 0.000000 -0.018240 
#    y 0.000000 1.651160 0.000000 
#    z -0.018240 0.000000 1.736970 
# 
# From -- ./inp_files/5927.got.cif
#   From: 2010.05.17/outbox.cif.g08.bks.cpg/sg15_3_cif.got.tgz:5927.got - 2010.06.03 18:47:42.
