data_PCOD9268566
_publ_section_title
;
Structure prediction by ZEFSAII (Michael W. Deem and Ramdas Pophale) SiO2 
 PCOD9268566
Probable space group: C 2/C
;
_chemical_formula_sum "Si O2"
_cell_formula_units_Z 56
_cell_length_a 17.145793
_cell_length_b 20.410297
_cell_length_c 8.678916
_cell_angle_alpha 90.000000
_cell_angle_beta 69.856558
_cell_angle_gamma 90.000000
_cell_volume 2851.418253
_symmetry_space_group_name_H-M "C 2/C"
_symmetry_group_IT_number 15
_symmetry_cell_setting 'monoclinic'
loop_
_space_group_symop_operation_xyz
x,y,z
-x,y,1/2-z
-x,-y,-z
x,-y,1/2+z
1/2+x,1/2+y,z
1/2-x,1/2+y,1/2-z
1/2-x,1/2-y,-z
1/2+x,1/2-y,1/2+z
loop_
_atom_site_type_symbol
_atom_site_label
_atom_site_fract_x
_atom_site_fract_y
_atom_site_fract_z
Si Si1 0.500000 0.499224 0.750000
Si Si2 0.247983 0.961742 0.727694
Si Si3 0.147255 0.562065 0.065476
Si Si4 0.112995 0.058186 0.913247
Si Si5 0.196213 0.846661 0.545209
Si Si6 0.881015 0.289519 0.407890
Si Si7 0.000000 0.530272 0.750000
Si Si8 0.030561 0.354103 0.444260
O O1 0.566750 0.546260 0.784992
O O2 0.544290 0.454229 0.591861
O O3 0.298354 0.921337 0.822039
O O4 0.200631 0.910527 0.650400
O O5 0.301455 0.016702 0.594197
O O6 0.180920 0.001360 0.871131
O O7 0.080322 0.513146 0.183819
O O8 0.095018 0.623553 0.032617
O O9 0.164371 0.124245 0.904518
O O10 0.133265 0.787040 0.616706
O O11 0.289537 0.819316 0.492651
O O12 0.916435 0.322633 0.229827
O O13 0.946824 0.309154 0.498915
O O14 0.999859 0.576036 0.600416
#
# Coordination Sequence:
#
# PCOD9268566 Si02
#       8
#     4   8   8   8   8   8   4   8
#     4  10  22  38  55  93 114 150 184 260 314 368
#     4  12  22  37  61 100 122 162 190 263 317 380
#     4  12  22  34  60  96 135 151 200 246 330 361
#     4  11  21  38  63  88 122 146 202 251 329 352
#     4  11  21  39  62  86 118 165 209 248 294 387
#     4   9  22  39  60  82 117 171 215 235 297 361
#     4  10  20  32  55  95 122 164 186 250 310 362
#     4  10  20  38  57  87 121 162 202 250 288 377
#
# _framework density 19.63935
#
# number of rings (size 3 to 8) (size 9 to 14) (size 15 to 20)
#    0.000    1.429    4.286    3.000    2.000    1.143 
#    0.000    0.714    6.286    0.000    0.000    0.000 
#    0.000    0.000    0.000    0.000    0.000    0.000 
#
# Total GULP energy -155917.940299 kJ/mol
# GULP energy per Si atom -5568.497868 kJ/mol
# Density = 1.959465 g / cm^3
# Si number density = 19.639350 Si / 1000 Ang^3
#
#
#
# Elastic Constant Matrix: (Units=GPa)
#
#
# Indices 1 2 3 4 5 6 
#
# 1 96.8503 26.8705 8.1866 0.0000 24.2561 0.0000
# 2 26.8705 83.2365 6.7923 0.0000 2.4645 0.0000
# 3 8.1866 6.7923 29.4937 0.0000 -0.3717 0.0000
# 4 0.0000 0.0000 0.0000 12.3296 0.0000 9.2242
# 5 24.2561 2.4645 -0.3717 0.0000 38.3130 0.0000
# 6 0.0000 0.0000 0.0000 9.2242 0.0000 181.2337
#
#
#
# Elastic Compliance Matrix: (Units=1/GPa)
#
#
# Indices 1 2 3 4 5 6 
#
# 1 0.013814 -0.003960 -0.003030 0.000000 -0.008520 0.000000
# 2 -0.003960 0.013405 -0.001967 0.000000 0.001626 0.000000
# 3 -0.003030 -0.001967 0.035230 0.000000 0.002387 0.000000
# 4 0.000000 0.000000 0.000000 0.084316 0.000000 -0.004291
# 5 -0.008520 0.001626 0.002387 0.000000 0.031414 0.000000
# 6 0.000000 0.000000 0.000000 -0.004291 0.000000 0.005736
#
#
# Mechanical properties :
#
#
# Convention : Reuss Voigt Hill
#
# Bulk Modulus (GPa) = 22.45473 32.58661 27.52067
# Shear Modulus (GPa) = 23.07623 57.55733 40.31678
#
# Velocity S-wave (km/s) = 3.43155 5.41948 4.53576
# Velocity P-wave (km/s) = 5.21143 7.46924 6.44005
#
# Compressibility (1/GPa) = 0.04453406
#
# Stress axis : x y z
#
# Youngs Moduli (GPa) = 72.39103 74.60060 28.38517
#
# Poissons Ratio (x) = 0.29541 0.08600
# Poissons Ratio (y) = 0.28666 0.05585
# Poissons Ratio (z) = 0.21933 0.14677
#
# Static dielectric constant tensor:
#      x y z
#    x 1.786970 0.000000 0.030530 
#    y 0.000000 1.703860 0.000000 
#    z 0.030530 0.000000 1.695020 
# 
# From -- ./inp_files/49062.got.cif
#   From: 2010.05.17/outbox.cif.g08.bks.cpg/sg15_25_cif.got.tgz:49062.got - 2010.06.03 18:47:42.
