data_PCOD9268324
_publ_section_title
;
Structure prediction by ZEFSAII (Michael W. Deem and Ramdas Pophale) SiO2 
 PCOD9268324
Probable space group: C 2/C
;
_chemical_formula_sum "Si O2"
_cell_formula_units_Z 56
_cell_length_a 10.037993
_cell_length_b 25.769109
_cell_length_c 9.209034
_cell_angle_alpha 90.000000
_cell_angle_beta 85.997249
_cell_angle_gamma 90.000000
_cell_volume 2376.291413
_symmetry_space_group_name_H-M "C 2/C"
_symmetry_group_IT_number 15
_symmetry_cell_setting 'monoclinic'
loop_
_space_group_symop_operation_xyz
x,y,z
-x,y,1/2-z
-x,-y,-z
x,-y,1/2+z
1/2+x,1/2+y,z
1/2-x,1/2+y,1/2-z
1/2-x,1/2-y,-z
1/2+x,1/2-y,1/2+z
loop_
_atom_site_type_symbol
_atom_site_label
_atom_site_fract_x
_atom_site_fract_y
_atom_site_fract_z
Si Si1 0.889230 0.696693 0.594335
Si Si2 0.059509 0.912488 0.973112
Si Si3 0.214234 0.404944 0.341031
Si Si4 0.499006 0.053895 0.420959
Si Si5 0.326335 0.688424 0.155238
Si Si6 0.129914 0.979172 0.346413
Si Si7 0.394694 0.154751 0.120998
O O1 0.848948 0.649284 0.704969
O O2 0.777736 0.691254 0.473808
O O3 0.883336 0.753984 0.657311
O O4 0.030455 0.687695 0.505852
O O5 0.074583 0.859851 0.881990
O O6 0.141316 0.961799 0.900594
O O7 0.134804 0.896935 0.115969
O O8 0.919732 0.939452 0.024238
O O9 0.124255 0.417547 0.489054
O O10 0.238074 0.454544 0.236007
O O11 0.500000 0.044477 0.250000
O O12 0.617056 0.095634 0.432764
O O13 0.500000 0.000000 0.500000
O O14 0.240310 0.676263 0.304042
O O15 0.000000 0.982768 0.250000
O O16 0.500000 0.152477 0.250000
#
# Coordination Sequence:
#
# PCOD9268324 Si02
#       7
#     8   8   8   8   8   8   8
#     4   8  15  26  37  64  88 119 156 188 241 294
#     4   9  17  29  44  66  93 118 162 195 247 291
#     4   9  18  29  46  63  96 127 153 205 248 290
#     4  10  20  31  47  71  99 130 164 197 244 295
#     4   9  15  24  44  60  89 126 153 196 243 296
#     4   9  18  30  44  65  92 124 156 202 242 297
#     4   8  15  27  40  62  95 121 151 195 237 286
#
# _framework density 23.566130999999999
#
# number of rings (size 3 to 8) (size 9 to 14) (size 15 to 20)
#    0.000    3.143    0.000    2.571    4.000    1.143 
#    0.000    5.714    0.000    0.000    0.000    4.000 
#    0.000    9.714    0.000    0.000    0.000    0.000 
#
# Total GULP energy -156119.812459 kJ/mol
# GULP energy per Si atom -5575.707588 kJ/mol
# Density = 2.351249 g / cm^3
# Si number density = 23.566131 Si / 1000 Ang^3
#
#
#
# Elastic Constant Matrix: (Units=GPa)
#
#
# Indices 1 2 3 4 5 6 
#
# 1 49.3562 33.3125 28.5210 0.0000 5.1744 0.0000
# 2 33.3125 232.9867 83.3858 0.0000 -32.3500 0.0000
# 3 28.5210 83.3858 106.1671 0.0000 -28.1078 0.0000
# 4 0.0000 0.0000 0.0000 34.4777 0.0000 -10.5545
# 5 5.1744 -32.3500 -28.1078 0.0000 24.3631 0.0000
# 6 0.0000 0.0000 0.0000 -10.5545 0.0000 9.7322
#
#
#
# Elastic Compliance Matrix: (Units=1/GPa)
#
#
# Indices 1 2 3 4 5 6 
#
# 1 0.033366 -0.003856 -0.013198 0.000000 -0.027433 0.000000
# 2 -0.003856 0.006647 -0.002348 0.000000 0.006936 0.000000
# 3 -0.013198 -0.002348 0.021201 0.000000 0.024145 0.000000
# 4 0.000000 0.000000 0.000000 0.043419 0.000000 0.047087
# 5 -0.027433 0.006936 0.024145 0.000000 0.083938 0.000000
# 6 0.000000 0.000000 0.000000 0.047087 0.000000 0.153817
#
#
# Mechanical properties :
#
#
# Convention : Reuss Voigt Hill
#
# Bulk Modulus (GPa) = 44.62377 75.43874 60.03126
# Shear Modulus (GPa) = 12.86460 29.93400 21.39930
#
# Velocity S-wave (km/s) = 2.33897 3.56787 3.01666
# Velocity P-wave (km/s) = 5.12553 7.00385 6.13698
#
# Compressibility (1/GPa) = 0.02240958
#
# Stress axis : x y z
#
# Youngs Moduli (GPa) = 29.97044 150.44357 47.16653
#
# Poissons Ratio (x) = 0.58017 0.62249
# Poissons Ratio (y) = 0.11558 0.11077
# Poissons Ratio (z) = 0.39554 0.35332
#
# Static dielectric constant tensor:
#      x y z
#    x 1.986050 0.000000 0.085890 
#    y 0.000000 1.933690 0.000000 
#    z 0.085890 0.000000 1.969020 
# 
# From -- ./inp_files/91727.got.cif
#   From: 2010.05.17/outbox.cif.g08.bks.cpg/sg15_46_cif.got.tgz:91727.got - 2010.06.03 18:47:42.
