data_PCOD9268267
_publ_section_title
;
Structure prediction by ZEFSAII (Michael W. Deem and Ramdas Pophale) SiO2 
 PCOD9268267
Probable space group: C 2/C
;
_chemical_formula_sum "Si O2"
_cell_formula_units_Z 64
_cell_length_a 33.800529
_cell_length_b 12.839428
_cell_length_c 9.204972
_cell_angle_alpha 90.000000
_cell_angle_beta 109.705690
_cell_angle_gamma 90.000000
_cell_volume 3760.823374
_symmetry_space_group_name_H-M "C 2/C"
_symmetry_group_IT_number 15
_symmetry_cell_setting 'monoclinic'
loop_
_space_group_symop_operation_xyz
x,y,z
-x,y,1/2-z
-x,-y,-z
x,-y,1/2+z
1/2+x,1/2+y,z
1/2-x,1/2+y,1/2-z
1/2-x,1/2-y,-z
1/2+x,1/2-y,1/2+z
loop_
_atom_site_type_symbol
_atom_site_label
_atom_site_fract_x
_atom_site_fract_y
_atom_site_fract_z
Si Si1 0.677038 0.798227 0.681843
Si Si2 0.733086 0.382912 0.601597
Si Si3 0.127996 0.408485 0.858786
Si Si4 0.867553 0.649728 0.667427
Si Si5 0.777082 0.913977 0.249423
Si Si6 0.808785 0.675527 0.846692
Si Si7 0.459939 0.918253 0.607698
Si Si8 0.540201 0.139156 0.734146
O O1 0.719948 0.855846 0.785372
O O2 0.640820 0.827660 0.750834
O O3 0.660496 0.838918 0.509011
O O4 0.688850 0.676544 0.686762
O O5 0.732831 0.416767 0.434203
O O6 0.713444 0.473910 0.674308
O O7 0.706859 0.276467 0.585730
O O8 0.125872 0.525749 0.793448
O O9 0.084897 0.379087 0.887260
O O10 0.166352 0.403022 0.019120
O O11 0.841824 0.702484 0.763767
O O12 0.914453 0.692680 0.703972
O O13 0.733278 0.876357 0.268446
O O14 0.500000 0.877649 0.750000
O O15 0.464958 0.898265 0.441248
O O16 0.457542 0.040226 0.651734
O O17 0.500000 0.198771 0.750000
#
# Coordination Sequence:
#
# PCOD9268267 Si02
#       8
#     8   8   8   8   8   8   8   8
#     4  11  23  36  53  77 103 137 180 215 254 308
#     4  11  23  38  55  73 105 137 171 222 262 304
#     4  11  19  35  52  74 106 141 176 212 253 301
#     4  11  23  31  54  79 102 141 176 213 251 306
#     4  11  23  38  55  74 103 138 172 218 268 298
#     4  11  21  38  52  75 106 134 179 216 254 303
#     4  10  20  30  48  70 100 140 173 206 256 305
#     4  10  20  32  45  70 104 137 172 209 253 305
#
# _framework density 17.01755
#
# number of rings (size 3 to 8) (size 9 to 14) (size 15 to 20)
#    0.000    1.250    3.750    4.500   10.500    1.000 
#    0.000    0.000    0.000    0.000    0.000    0.000 
#    0.000    6.000    0.000    0.000    0.000    0.000 
#
# Total GULP energy -178479.882378 kJ/mol
# GULP energy per Si atom -5577.496324 kJ/mol
# Density = 1.697882 g / cm^3
# Si number density = 17.017550 Si / 1000 Ang^3
#
#
#
# Elastic Constant Matrix: (Units=GPa)
#
#
# Indices 1 2 3 4 5 6 
#
# 1 105.4340 6.4587 26.4462 0.0000 -9.4123 0.0000
# 2 6.4587 41.9503 8.2445 0.0000 3.2519 0.0000
# 3 26.4462 8.2445 68.2678 0.0000 -6.4112 0.0000
# 4 0.0000 0.0000 0.0000 18.0755 0.0000 -4.0121
# 5 -9.4123 3.2519 -6.4112 0.0000 26.6397 0.0000
# 6 0.0000 0.0000 0.0000 -4.0121 0.0000 17.9307
#
#
#
# Elastic Compliance Matrix: (Units=1/GPa)
#
#
# Indices 1 2 3 4 5 6 
#
# 1 0.010767 -0.001158 -0.003745 0.000000 0.003044 0.000000
# 2 -0.001158 0.024919 -0.002952 0.000000 -0.004161 0.000000
# 3 -0.003745 -0.002952 0.016744 0.000000 0.003067 0.000000
# 4 0.000000 0.000000 0.000000 0.058215 0.000000 0.013026
# 5 0.003044 -0.004161 0.003067 0.000000 0.039859 0.000000
# 6 0.000000 0.000000 0.000000 0.013026 0.000000 0.058685
#
#
# Mechanical properties :
#
#
# Convention : Reuss Voigt Hill
#
# Bulk Modulus (GPa) = 27.23322 33.10564 30.16943
# Shear Modulus (GPa) = 21.08487 24.16270 22.62379
#
# Velocity S-wave (km/s) = 3.52377 3.77220 3.65010
# Velocity P-wave (km/s) = 5.70909 6.20232 5.96081
#
# Compressibility (1/GPa) = 0.03671986
#
# Stress axis : x y z
#
# Youngs Moduli (GPa) = 92.87912 40.13063 59.72456
#
# Poissons Ratio (x) = 0.04645 0.22368
# Poissons Ratio (y) = 0.10751 0.17629
# Poissons Ratio (z) = 0.34785 0.11845
#
# Static dielectric constant tensor:
#      x y z
#    x 1.630510 0.000000 -0.001970 
#    y 0.000000 1.551220 0.000000 
#    z -0.001970 0.000000 1.623040 
# 
# From -- ./inp_files/69755.got.cif
#   From: 2010.05.17/outbox.cif.g08.bks.cpg/sg15_35_cif.got.tgz:69755.got - 2010.06.03 18:47:42.
