data_PCOD9268075
_publ_section_title
;
Structure prediction by ZEFSAII (Michael W. Deem and Ramdas Pophale) SiO2 
 PCOD9268075
Probable space group: C 2/C
;
_chemical_formula_sum "Si O2"
_cell_formula_units_Z 48
_cell_length_a 26.465236
_cell_length_b 6.504212
_cell_length_c 21.083738
_cell_angle_alpha 90.000000
_cell_angle_beta 32.050207
_cell_angle_gamma 90.000000
_cell_volume 1925.910993
_symmetry_space_group_name_H-M "C 2/C"
_symmetry_group_IT_number 15
_symmetry_cell_setting 'monoclinic'
loop_
_space_group_symop_operation_xyz
x,y,z
-x,y,1/2-z
-x,-y,-z
x,-y,1/2+z
1/2+x,1/2+y,z
1/2-x,1/2+y,1/2-z
1/2-x,1/2-y,-z
1/2+x,1/2-y,1/2+z
loop_
_atom_site_type_symbol
_atom_site_label
_atom_site_fract_x
_atom_site_fract_y
_atom_site_fract_z
Si Si1 0.592418 0.682430 0.686633
Si Si2 0.551471 0.302929 0.821737
Si Si3 0.938523 0.493930 0.001048
Si Si4 0.234963 0.933103 0.686602
Si Si5 0.877906 0.018789 0.067762
Si Si6 0.242456 0.156559 0.415808
O O1 0.500000 0.769667 0.750000
O O2 0.558960 0.472385 0.758114
O O3 0.650978 0.839226 0.669250
O O4 0.669540 0.625719 0.550918
O O5 0.498438 0.083787 0.878112
O O6 0.657962 0.286453 0.735062
O O7 0.477891 0.406494 0.950093
O O8 0.838007 0.618000 0.106241
O O9 0.909216 0.257879 0.028942
O O10 0.000000 0.500000 0.000000
O O11 0.173758 0.015936 0.810779
O O12 0.258815 0.110340 0.610424
O O13 0.798976 0.012354 0.095503
#
# Coordination Sequence:
#
# PCOD9268075 Si02
#       6
#     8   8   8   8   8   8
#     4  10  19  41  71  97 139 190 248 300 347 425
#     4  11  23  41  71  98 138 191 244 283 364 429
#     4  11  25  39  62 102 142 180 232 286 362 429
#     4  10  23  40  63 103 148 178 234 298 354 447
#     4  11  22  41  66 103 145 186 230 297 361 434
#     4   9  21  38  67 105 133 189 247 288 365 424
#
# _framework density 24.923271
#
# number of rings (size 3 to 8) (size 9 to 14) (size 15 to 20)
#    0.000    1.667    3.333    0.500    4.667    1.333 
#    0.000    0.000    7.333    5.000    0.000    0.000 
#    0.000    0.000    0.000    0.000    0.000    0.000 
#
# Total GULP energy -133938.386191 kJ/mol
# GULP energy per Si atom -5580.766091 kJ/mol
# Density = 2.486654 g / cm^3
# Si number density = 24.923271 Si / 1000 Ang^3
#
#
#
# Elastic Constant Matrix: (Units=GPa)
#
#
# Indices 1 2 3 4 5 6 
#
# 1 156.6240 21.7659 45.0489 0.0322 -47.3264 -0.0126
# 2 21.7659 29.8391 51.4888 0.0266 -8.2036 -0.0491
# 3 45.0489 51.4888 151.5124 0.0488 -11.7792 -0.0617
# 4 0.0322 0.0266 0.0488 50.8687 -0.0717 -16.5081
# 5 -47.3264 -8.2036 -11.7792 -0.0717 65.6889 0.0618
# 6 -0.0126 -0.0491 -0.0617 -16.5081 0.0618 39.5449
#
#
#
# Elastic Compliance Matrix: (Units=1/GPa)
#
#
# Indices 1 2 3 4 5 6 
#
# 1 0.008889 -0.002662 -0.001284 0.000002 0.005842 -0.000011
# 2 -0.002662 0.083654 -0.027355 0.000008 0.003624 0.000058
# 3 -0.001284 -0.027355 0.016166 -0.000005 -0.001443 -0.000009
# 4 0.000002 0.000008 -0.000005 0.022739 0.000017 0.009492
# 5 0.005842 0.003624 -0.001443 0.000017 0.019626 -0.000019
# 6 -0.000011 0.000058 -0.000009 0.009492 -0.000019 0.029250
#
#
# Mechanical properties :
#
#
# Convention : Reuss Voigt Hill
#
# Bulk Modulus (GPa) = 21.68917 63.84251 42.76584
# Shear Modulus (GPa) = 19.35771 45.86528 32.61150
#
# Velocity S-wave (km/s) = 2.78994 4.29448 3.62121
# Velocity P-wave (km/s) = 4.37031 7.08952 5.88901
#
# Compressibility (1/GPa) = 0.04610596
#
# Stress axis : x y z
#
# Youngs Moduli (GPa) = 112.49660 11.95406 61.85896
#
# Poissons Ratio (x) = 0.03183 0.07943
# Poissons Ratio (y) = 0.29951 1.69214
# Poissons Ratio (z) = 0.14446 0.32700
#
# Static dielectric constant tensor:
#      x y z
#    x 2.016110 -0.000900 -0.032670 
#    y -0.000900 8.520460 0.003490 
#    z -0.032670 0.003490 1.901750 
# 
# From -- ./inp_files/257136.got.cif
#   From: 2010.05.17/outbox.cif.g08.bks.cpg/sg15_129_cif.got.tgz:257136.got - 2010.06.03 18:47:42.
