data_PCOD9268799
_publ_section_title
;
Structure prediction by ZEFSAII (Michael W. Deem and Ramdas Pophale) SiO2 
 PCOD9268799
Probable space group: C 2/C
;
_chemical_formula_sum "Si O2"
_cell_formula_units_Z 40
_cell_length_a 18.212352
_cell_length_b 5.252561
_cell_length_c 18.291534
_cell_angle_alpha 90.000000
_cell_angle_beta 76.428204
_cell_angle_gamma 90.000000
_cell_volume 1700.935213
_symmetry_space_group_name_H-M "C 2/C"
_symmetry_group_IT_number 15
_symmetry_cell_setting 'monoclinic'
loop_
_space_group_symop_operation_xyz
x,y,z
-x,y,1/2-z
-x,-y,-z
x,-y,1/2+z
1/2+x,1/2+y,z
1/2-x,1/2+y,1/2-z
1/2-x,1/2-y,-z
1/2+x,1/2-y,1/2+z
loop_
_atom_site_type_symbol
_atom_site_label
_atom_site_fract_x
_atom_site_fract_y
_atom_site_fract_z
Si Si1 0.070954 0.406663 0.029962
Si Si2 0.136597 0.097709 0.550605
Si Si3 0.834278 0.922953 0.176664
Si Si4 0.252310 0.076955 0.649248
Si Si5 0.497440 0.585187 0.336002
O O1 0.133029 0.627300 0.015373
O O2 0.033044 0.336911 0.116757
O O3 0.111103 0.134778 0.004409
O O4 0.000000 0.500000 0.000000
O O5 0.208039 0.037938 0.583860
O O6 0.066643 0.111507 0.624169
O O7 0.805923 0.938138 0.268122
O O8 0.787953 0.142493 0.145455
O O9 0.921921 0.993244 0.154592
O O10 0.812578 0.644347 0.152356
O O11 0.500000 0.620388 0.250000
#
# Coordination Sequence:
#
# PCOD9268799 Si02
#       5
#     8   8   8   8   8
#     4  10  22  38  62  86 114 155 196 240 288 344
#     4  10  21  37  60  82 112 151 198 236 283 343
#     4  10  20  33  52  82 122 149 185 231 302 343
#     4  10  20  34  53  81 118 156 181 234 294 356
#     4  10  22  36  60  92 117 147 195 251 288 338
#
# _framework density 23.516475
#
# number of rings (size 3 to 8) (size 9 to 14) (size 15 to 20)
#    1.200    0.800    2.000    1.800    2.800    2.400 
#    0.000    0.000    0.000    7.200    0.000    0.000 
#    0.000    0.000    0.000    0.000    0.000    0.000 
#
# Total GULP energy -111781.057078 kJ/mol
# GULP energy per Si atom -5589.052854 kJ/mol
# Density = 2.346295 g / cm^3
# Si number density = 23.516475 Si / 1000 Ang^3
#
#
#
# Elastic Constant Matrix: (Units=GPa)
#
#
# Indices 1 2 3 4 5 6 
#
# 1 106.0896 22.7748 23.0202 0.0000 12.3217 0.0000
# 2 22.7748 161.2757 28.1149 0.0000 15.7568 0.0000
# 3 23.0202 28.1149 70.4898 0.0000 4.3564 0.0000
# 4 0.0000 0.0000 0.0000 28.9250 0.0000 -1.1622
# 5 12.3217 15.7568 4.3564 0.0000 46.0823 0.0000
# 6 0.0000 0.0000 0.0000 -1.1622 0.0000 13.9686
#
#
#
# Elastic Compliance Matrix: (Units=1/GPa)
#
#
# Indices 1 2 3 4 5 6 
#
# 1 0.010498 -0.000739 -0.002993 0.000000 -0.002271 0.000000
# 2 -0.000739 0.006912 -0.002396 0.000000 -0.001939 0.000000
# 3 -0.002993 -0.002396 0.016114 0.000000 0.000096 0.000000
# 4 0.000000 0.000000 0.000000 0.034688 0.000000 0.002886
# 5 -0.002271 -0.001939 0.000096 0.000000 0.022962 0.000000
# 6 0.000000 0.000000 0.000000 0.002886 0.000000 0.071829
#
#
# Mechanical properties :
#
#
# Convention : Reuss Voigt Hill
#
# Bulk Modulus (GPa) = 47.01926 53.96387 50.49157
# Shear Modulus (GPa) = 27.42019 35.39153 31.40586
#
# Velocity S-wave (km/s) = 3.41838 3.88360 3.65839
# Velocity P-wave (km/s) = 5.96808 6.56558 6.27395
#
# Compressibility (1/GPa) = 0.02126788
#
# Stress axis : x y z
#
# Youngs Moduli (GPa) = 95.25705 144.67568 62.05946
#
# Poissons Ratio (x) = 0.10688 0.18576
# Poissons Ratio (y) = 0.07037 0.14868
# Poissons Ratio (z) = 0.28514 0.34661
#
# Static dielectric constant tensor:
#      x y z
#    x 1.844990 0.000000 -0.050230 
#    y 0.000000 2.377350 0.000000 
#    z -0.050230 0.000000 1.956250 
# 
# From -- ./inp_files/275493.got.cif
#   From: 2010.05.17/outbox.cif.g08.bks.cpg/sg15_138_cif.got.tgz:275493.got - 2010.06.03 18:47:42.
