data_PCOD9268719
_publ_section_title
;
Structure prediction by ZEFSAII (Michael W. Deem and Ramdas Pophale) SiO2 
 PCOD9268719
Probable space group: C 2/C
;
_chemical_formula_sum "Si O2"
_cell_formula_units_Z 52
_cell_length_a 5.182277
_cell_length_b 27.616755
_cell_length_c 19.135503
_cell_angle_alpha 90.000000
_cell_angle_beta 91.964944
_cell_angle_gamma 90.000000
_cell_volume 2737.018352
_symmetry_space_group_name_H-M "C 2/C"
_symmetry_group_IT_number 15
_symmetry_cell_setting 'monoclinic'
loop_
_space_group_symop_operation_xyz
x,y,z
-x,y,1/2-z
-x,-y,-z
x,-y,1/2+z
1/2+x,1/2+y,z
1/2-x,1/2+y,1/2-z
1/2-x,1/2-y,-z
1/2+x,1/2-y,1/2+z
loop_
_atom_site_type_symbol
_atom_site_label
_atom_site_fract_x
_atom_site_fract_y
_atom_site_fract_z
Si Si1 0.629248 0.392133 0.819266
Si Si2 0.256809 0.325946 0.036690
Si Si3 0.264107 0.774472 0.075851
Si Si4 0.500000 0.185005 0.250000
Si Si5 0.680928 0.034304 0.067963
Si Si6 0.858968 0.196516 0.376854
Si Si7 0.329132 0.560544 0.517580
O O1 0.500000 0.414692 0.750000
O O2 0.763658 0.432196 0.866078
O O3 0.433036 0.359486 0.862821
O O4 0.816426 0.351061 0.791145
O O5 0.485619 0.299007 0.081379
O O6 0.984958 0.314825 0.069850
O O7 0.256506 0.304826 0.956207
O O8 0.302136 0.383146 0.033751
O O9 0.392656 0.732110 0.123462
O O10 0.250000 0.750000 0.000000
O O11 0.667991 0.211045 0.311777
O O12 0.389534 0.044637 0.040923
O O13 0.885160 0.051361 0.010048
O O14 0.755483 0.977899 0.077559
#
# Coordination Sequence:
#
# PCOD9268719 Si02
#       7
#     8   8   8   4   8   8   8
#     4  10  21  34  51  80 107 146 175 219 270 321
#     4  11  20  34  54  79 112 140 177 219 267 322
#     4  10  22  32  52  79 107 145 175 217 272 313
#     4  10  22  32  54  74 110 150 180 212 282 314
#     4  10  20  35  53  80 112 138 179 215 273 323
#     4  10  20  33  50  76 111 140 178 218 265 328
#     4  10  20  33  56  80 107 148 169 221 273 318
#
# _framework density 18.998775999999999
#
# number of rings (size 3 to 8) (size 9 to 14) (size 15 to 20)
#    0.000    1.846    1.538    3.692   10.769    0.000 
#    0.000    0.000    0.000    0.000    2.000    0.000 
#    0.000    0.000    0.000    0.000    0.000    0.000 
#
# Total GULP energy -144956.233422 kJ/mol
# GULP energy per Si atom -5575.239747 kJ/mol
# Density = 1.895553 g / cm^3
# Si number density = 18.998776 Si / 1000 Ang^3
#
#
#
# Elastic Constant Matrix: (Units=GPa)
#
#
# Indices 1 2 3 4 5 6 
#
# 1 79.9107 11.6767 23.8348 0.0000 19.5992 0.0000
# 2 11.6767 105.4371 24.8181 0.0000 14.2193 0.0000
# 3 23.8348 24.8181 70.9948 0.0000 24.0916 0.0000
# 4 0.0000 0.0000 0.0000 27.5199 0.0000 9.6861
# 5 19.5992 14.2193 24.0916 0.0000 33.0334 0.0000
# 6 0.0000 0.0000 0.0000 9.6861 0.0000 25.8817
#
#
#
# Elastic Compliance Matrix: (Units=1/GPa)
#
#
# Indices 1 2 3 4 5 6 
#
# 1 0.015021 -0.000104 -0.002654 0.000000 -0.006931 0.000000
# 2 -0.000104 0.010482 -0.002816 0.000000 -0.002396 0.000000
# 3 -0.002654 -0.002816 0.019954 0.000000 -0.011765 0.000000
# 4 0.000000 0.000000 0.000000 0.041850 0.000000 -0.015662
# 5 -0.006931 -0.002396 -0.011765 0.000000 0.043997 0.000000
# 6 0.000000 0.000000 0.000000 -0.015662 0.000000 0.044499
#
#
# Mechanical properties :
#
#
# Convention : Reuss Voigt Hill
#
# Bulk Modulus (GPa) = 29.14811 41.88909 35.51860
# Shear Modulus (GPa) = 25.20324 30.35452 27.77888
#
# Velocity S-wave (km/s) = 3.64616 4.00147 3.82794
# Velocity P-wave (km/s) = 5.75338 6.59130 6.18654
#
# Compressibility (1/GPa) = 0.03430754
#
# Stress axis : x y z
#
# Youngs Moduli (GPa) = 66.57380 95.40266 50.11621
#
# Poissons Ratio (x) = 0.00991 0.13303
# Poissons Ratio (y) = 0.00692 0.14113
# Poissons Ratio (z) = 0.17672 0.26866
#
# Static dielectric constant tensor:
#      x y z
#    x 1.747940 0.000000 -0.014510 
#    y 0.000000 1.681590 0.000000 
#    z -0.014510 0.000000 1.687140 
# 
# From -- ./inp_files/185863.got.cif
#   From: 2010.05.17/outbox.cif.g08.bks.cpg/sg15_93_cif.got.tgz:185863.got - 2010.06.03 18:47:42.
