data_PCOD9268704
_publ_section_title
;
Structure prediction by ZEFSAII (Michael W. Deem and Ramdas Pophale) SiO2 
 PCOD9268704
Probable space group: C 2/C
;
_chemical_formula_sum "Si O2"
_cell_formula_units_Z 56
_cell_length_a 24.096116
_cell_length_b 24.359973
_cell_length_c 8.596493
_cell_angle_alpha 90.000000
_cell_angle_beta 40.375395
_cell_angle_gamma 90.000000
_cell_volume 3268.746818
_symmetry_space_group_name_H-M "C 2/C"
_symmetry_group_IT_number 15
_symmetry_cell_setting 'monoclinic'
loop_
_space_group_symop_operation_xyz
x,y,z
-x,y,1/2-z
-x,-y,-z
x,-y,1/2+z
1/2+x,1/2+y,z
1/2-x,1/2+y,1/2-z
1/2-x,1/2-y,-z
1/2+x,1/2-y,1/2+z
loop_
_atom_site_type_symbol
_atom_site_label
_atom_site_fract_x
_atom_site_fract_y
_atom_site_fract_z
Si Si1 0.385208 0.059181 0.348797
Si Si2 0.363782 0.159857 0.901119
Si Si3 0.695757 0.695081 0.147525
Si Si4 0.303851 0.168987 0.380230
Si Si5 0.089947 0.446306 0.347117
Si Si6 0.365370 0.283449 0.378585
Si Si7 0.538727 0.730270 0.338378
O O1 0.338030 0.111146 0.371550
O O2 0.372075 0.063674 0.561997
O O3 0.363421 0.000099 0.321140
O O4 0.487684 0.055274 0.098752
O O5 0.404109 0.101013 0.794586
O O6 0.424748 0.208209 0.705925
O O7 0.273382 0.153483 0.003246
O O8 0.342481 0.175743 0.123572
O O9 0.647953 0.701510 0.413857
O O10 0.622019 0.691630 0.177475
O O11 0.750000 0.750000 0.000000
O O12 0.336931 0.220154 0.411641
O O13 0.201996 0.179164 0.575210
O O14 0.462436 0.286884 0.114799
O O15 0.500000 0.730332 0.250000
#
# Coordination Sequence:
#
# PCOD9268704 Si02
#       7
#     8   8   8   8   8   8   8
#     4  10  21  34  50  74  98 136 172 219 255 304
#     4  10  20  35  49  73 104 139 170 213 261 301
#     4   9  21  34  48  69 103 137 172 210 255 308
#     4  10  20  33  51  72 103 136 172 209 258 302
#     4  10  21  34  51  72 101 133 178 214 258 305
#     4  10  20  33  50  73 102 137 171 208 253 312
#     4  11  20  32  50  76 100 137 173 212 256 305
#
# _framework density 17.131947
#
# number of rings (size 3 to 8) (size 9 to 14) (size 15 to 20)
#    0.000    2.000    1.429    2.143    6.000    1.143 
#    0.000    0.000    0.000    0.000    0.000    1.000 
#    0.000    0.000    0.000    0.000    0.000    0.000 
#
# Total GULP energy -155899.328740 kJ/mol
# GULP energy per Si atom -5567.833169 kJ/mol
# Density = 1.709295 g / cm^3
# Si number density = 17.131947 Si / 1000 Ang^3
#
#
#
# Elastic Constant Matrix: (Units=GPa)
#
#
# Indices 1 2 3 4 5 6 
#
# 1 77.1596 11.4276 13.9488 0.0000 -15.6192 0.0000
# 2 11.4276 47.3032 3.8315 0.0000 8.0825 0.0000
# 3 13.9488 3.8315 66.2679 0.0000 -8.4581 0.0000
# 4 0.0000 0.0000 0.0000 17.3329 0.0000 -0.3802
# 5 -15.6192 8.0825 -8.4581 0.0000 9.7210 0.0000
# 6 0.0000 0.0000 0.0000 -0.3802 0.0000 25.4834
#
#
#
# Elastic Compliance Matrix: (Units=1/GPa)
#
#
# Indices 1 2 3 4 5 6 
#
# 1 0.027252 -0.017199 0.003006 0.000000 0.060702 0.000000
# 2 -0.017199 0.036775 -0.006677 0.000000 -0.064021 0.000000
# 3 0.003006 -0.006677 0.018189 0.000000 0.026207 0.000000
# 4 0.000000 0.000000 0.000000 0.057713 0.000000 0.000861
# 5 0.060702 -0.064021 0.026207 0.000000 0.276435 0.000000
# 6 0.000000 0.000000 0.000000 0.000861 0.000000 0.039254
#
#
# Mechanical properties :
#
#
# Convention : Reuss Voigt Hill
#
# Bulk Modulus (GPa) = 24.70693 27.68294 26.19494
# Shear Modulus (GPa) = 9.78762 21.27565 15.53164
#
# Velocity S-wave (km/s) = 2.39280 3.52784 3.01423
# Velocity P-wave (km/s) = 4.69966 5.72608 5.23807
#
# Compressibility (1/GPa) = 0.04047448
#
# Stress axis : x y z
#
# Youngs Moduli (GPa) = 36.69497 27.19238 54.97968
#
# Poissons Ratio (x) = 0.46768 -0.16526
# Poissons Ratio (y) = 0.63111 0.36711
# Poissons Ratio (z) = -0.11030 0.18157
#
# Static dielectric constant tensor:
#      x y z
#    x 1.655470 0.000000 -0.004490 
#    y 0.000000 1.594200 0.000000 
#    z -0.004490 0.000000 1.584820 
# 
# From -- ./inp_files/63780.got.cif
#   From: 2010.05.17/outbox.cif.g08.bks.cpg/sg15_32_cif.got.tgz:63780.got - 2010.06.03 18:47:42.
