data_PCOD9268593
_publ_section_title
;
Structure prediction by ZEFSAII (Michael W. Deem and Ramdas Pophale) SiO2 
 PCOD9268593
Probable space group: C 2/C
;
_chemical_formula_sum "Si O2"
_cell_formula_units_Z 56
_cell_length_a 18.106368
_cell_length_b 27.491238
_cell_length_c 9.380012
_cell_angle_alpha 90.000000
_cell_angle_beta 37.690771
_cell_angle_gamma 90.000000
_cell_volume 2854.658582
_symmetry_space_group_name_H-M "C 2/C"
_symmetry_group_IT_number 15
_symmetry_cell_setting 'monoclinic'
loop_
_space_group_symop_operation_xyz
x,y,z
-x,y,1/2-z
-x,-y,-z
x,-y,1/2+z
1/2+x,1/2+y,z
1/2-x,1/2+y,1/2-z
1/2-x,1/2-y,-z
1/2+x,1/2-y,1/2+z
loop_
_atom_site_type_symbol
_atom_site_label
_atom_site_fract_x
_atom_site_fract_y
_atom_site_fract_z
Si Si1 0.680882 0.742763 0.257389
Si Si2 0.886873 0.671982 0.014131
Si Si3 0.777218 0.603839 0.949279
Si Si4 0.969821 0.164715 0.137657
Si Si5 0.944209 0.657319 0.485562
Si Si6 0.609052 0.519584 0.202975
Si Si7 0.959391 0.919599 0.154390
O O1 0.777066 0.709676 0.193408
O O2 0.562601 0.710190 0.409774
O O3 0.635806 0.793078 0.391261
O O4 0.750000 0.750000 0.000000
O O5 0.942942 0.662311 0.080383
O O6 0.845692 0.623962 0.986885
O O7 0.000000 0.693046 0.750000
O O8 0.856996 0.619014 0.693900
O O9 0.654301 0.635135 0.147795
O O10 0.730196 0.549729 0.993938
O O11 0.000000 0.180990 0.250000
O O12 0.057152 0.126201 0.924632
O O13 0.000000 0.645348 0.250000
O O14 0.500000 0.525834 0.250000
O O15 0.637396 0.462387 0.175061
O O16 0.559225 0.545976 0.422843
O O17 0.000000 0.903059 0.250000
#
# Coordination Sequence:
#
# PCOD9268593 Si02
#       7
#     8   8   8   8   8   8   8
#     4  11  20  35  57  79 105 160 205 221 273 351
#     4   9  18  34  54  74 107 149 199 232 279 341
#     4   9  17  33  52  75 104 153 200 217 278 354
#     4  10  20  32  57  83 114 152 190 225 282 357
#     4  11  23  36  53  79 114 152 195 254 278 317
#     4   9  17  32  54  80 115 153 183 216 283 370
#     4   9  17  30  49  80 121 142 170 229 288 337
#
# _framework density 19.617056999999999
#
# number of rings (size 3 to 8) (size 9 to 14) (size 15 to 20)
#    0.000    2.286    4.286    1.714    2.000    1.714 
#    0.000    8.571    0.000    0.000    0.000    0.000 
#    0.000  877.714    0.000    0.000    0.000    0.000 
#
# Total GULP energy -155870.250907 kJ/mol
# GULP energy per Si atom -5566.794675 kJ/mol
# Density = 1.957241 g / cm^3
# Si number density = 19.617057 Si / 1000 Ang^3
#
#
#
# Elastic Constant Matrix: (Units=GPa)
#
#
# Indices 1 2 3 4 5 6 
#
# 1 85.8532 24.9457 44.3442 0.0000 6.3385 0.0000
# 2 24.9457 91.2427 29.1483 0.0000 -9.5724 0.0000
# 3 44.3442 29.1483 54.9697 0.0000 17.7312 0.0000
# 4 0.0000 0.0000 0.0000 21.6033 0.0000 -7.3346
# 5 6.3385 -9.5724 17.7312 0.0000 29.1495 0.0000
# 6 0.0000 0.0000 0.0000 -7.3346 0.0000 1.8853
#
#
#
# Elastic Compliance Matrix: (Units=1/GPa)
#
#
# Indices 1 2 3 4 5 6 
#
# 1 0.021297 0.001769 -0.020915 0.000000 0.008673 0.000000
# 2 0.001769 0.016698 -0.014837 0.000000 0.014124 0.000000
# 3 -0.020915 -0.014837 0.053542 0.000000 -0.032893 0.000001
# 4 0.000000 0.000000 0.000000 -0.144279 0.000000 -0.561296
# 5 0.008673 0.014124 -0.032893 0.000000 0.057066 -0.000001
# 6 0.000000 0.000000 0.000001 -0.561296 -0.000001 -1.653230
#
#
# Mechanical properties :
#
#
# Convention : Reuss Voigt Hill
#
# Bulk Modulus (GPa) = 42.42820 47.66023 45.04421
# Shear Modulus (GPa) = -3.17847 19.43613 8.12883
#
# Velocity S-wave (km/s) = -1.27427 3.15108 2.03783
# Velocity P-wave (km/s) = 4.41703 6.13083 5.34309
#
# Compressibility (1/GPa) = 0.02356923
#
# Stress axis : x y z
#
# Youngs Moduli (GPa) = 46.95596 59.88842 18.67697
#
# Poissons Ratio (x) = -0.10594 0.39064
# Poissons Ratio (y) = -0.08307 0.27711
# Poissons Ratio (z) = 0.98210 0.88857
#
# Static dielectric constant tensor:
#      x y z
#    x 1.729640 0.000000 0.069470 
#    y 0.000000 1.832970 0.000000 
#    z 0.069470 0.000000 1.716910 
# 
# From -- ./inp_files/52625.got.cif
#   From: 2010.05.17/outbox.cif.g08.bks.cpg/sg15_27_cif.got.tgz:52625.got - 2010.06.03 18:47:42.
