data_PCOD9268336
_publ_section_title
;
Structure prediction by ZEFSAII (Michael W. Deem and Ramdas Pophale) SiO2 
 PCOD9268336
Probable space group: C 2/C
;
_chemical_formula_sum "Si O2"
_cell_formula_units_Z 44
_cell_length_a 20.586107
_cell_length_b 20.622395
_cell_length_c 5.369861
_cell_angle_alpha 90.000000
_cell_angle_beta 114.226898
_cell_angle_gamma 90.000000
_cell_volume 2078.914931
_symmetry_space_group_name_H-M "C 2/C"
_symmetry_group_IT_number 15
_symmetry_cell_setting 'monoclinic'
loop_
_space_group_symop_operation_xyz
x,y,z
-x,y,1/2-z
-x,-y,-z
x,-y,1/2+z
1/2+x,1/2+y,z
1/2-x,1/2+y,1/2-z
1/2-x,1/2-y,-z
1/2+x,1/2-y,1/2+z
loop_
_atom_site_type_symbol
_atom_site_label
_atom_site_fract_x
_atom_site_fract_y
_atom_site_fract_z
Si Si1 0.275027 0.168435 0.315055
Si Si2 0.855054 0.477205 0.494553
Si Si3 0.913351 0.644494 0.290094
Si Si4 0.043295 0.211363 0.578841
Si Si5 0.500000 0.938491 0.250000
Si Si6 0.197912 0.823621 0.188886
O O1 0.355885 0.143503 0.426399
O O2 0.230117 0.148291 0.484654
O O3 0.283573 0.246774 0.312124
O O4 0.236104 0.150874 0.996481
O O5 0.817361 0.502995 0.191230
O O6 0.875589 0.401772 0.531358
O O7 0.930366 0.516614 0.649281
O O8 0.928365 0.719313 0.267203
O O9 0.984113 0.609445 0.497267
O O10 0.113603 0.172631 0.604462
O O11 0.000000 0.183698 0.750000
O O12 0.000000 0.222278 0.250000
#
# Coordination Sequence:
#
# PCOD9268336 Si02
#       6
#     8   8   8   8   4   8
#     4   9  18  31  49  61  85 119 153 198 226 285
#     4  10  21  32  45  60  92 128 150 198 238 264
#     4  10  20  31  49  68  89 122 175 195 234 268
#     4  11  22  31  49  71  92 117 154 205 239 287
#     4  10  20  34  46  66 100 130 154 210 236 264
#     4   9  18  34  45  64  89 113 147 193 253 269
#
# _framework density 21.164888999999999
#
# number of rings (size 3 to 8) (size 9 to 14) (size 15 to 20)
#    0.000    2.182    0.909    3.273    3.818    7.273 
#    0.000    0.000    0.000    0.000    0.000    0.000 
#    0.000    0.000    0.000    0.000    0.000  254.545 
#
# Total GULP energy -122700.764350 kJ/mol
# GULP energy per Si atom -5577.307470 kJ/mol
# Density = 2.111672 g / cm^3
# Si number density = 21.164889 Si / 1000 Ang^3
#
#
#
# Elastic Constant Matrix: (Units=GPa)
#
#
# Indices 1 2 3 4 5 6 
#
# 1 149.3602 10.6921 52.9621 0.0000 -26.7947 0.0000
# 2 10.6921 22.7919 7.1244 0.0000 3.7314 0.0000
# 3 52.9621 7.1244 119.7728 0.0000 -32.9720 0.0000
# 4 0.0000 0.0000 0.0000 12.7308 0.0000 0.8291
# 5 -26.7947 3.7314 -32.9720 0.0000 38.9679 0.0000
# 6 0.0000 0.0000 0.0000 0.8291 0.0000 17.4020
#
#
#
# Elastic Compliance Matrix: (Units=1/GPa)
#
#
# Indices 1 2 3 4 5 6 
#
# 1 0.008593 -0.003984 -0.002387 0.000000 0.004270 0.000000
# 2 -0.003984 0.048831 -0.004151 0.000000 -0.010928 0.000000
# 3 -0.002387 -0.004151 0.012136 0.000000 0.009025 0.000000
# 4 0.000000 0.000000 0.000000 0.078794 0.000000 -0.003754
# 5 0.004270 -0.010928 0.009025 0.000000 0.037281 0.000000
# 6 0.000000 0.000000 0.000000 -0.003754 0.000000 0.057644
#
#
# Mechanical properties :
#
#
# Convention : Reuss Voigt Hill
#
# Bulk Modulus (GPa) = 20.61212 48.16467 34.38839
# Shear Modulus (GPa) = 17.82563 28.56323 23.19443
#
# Velocity S-wave (km/s) = 2.90526 3.67762 3.31402
# Velocity P-wave (km/s) = 4.58411 6.39057 5.56118
#
# Compressibility (1/GPa) = 0.04851514
#
# Stress axis : x y z
#
# Youngs Moduli (GPa) = 116.37419 20.47882 82.39912
#
# Poissons Ratio (x) = 0.08159 0.19670
# Poissons Ratio (y) = 0.46364 0.34206
# Poissons Ratio (z) = 0.27781 0.08501
#
# Static dielectric constant tensor:
#      x y z
#    x 1.877710 0.000000 -0.089100 
#    y 0.000000 1.786820 0.000000 
#    z -0.089100 0.000000 1.888890 
# 
# From -- ./inp_files/11146.got.cif
#   From: 2010.05.17/outbox.cif.g08.bks.cpg/sg15_6_cif.got.tgz:11146.got - 2010.06.03 18:47:42.
