data_PCOD9268631
_publ_section_title
;
Structure prediction by ZEFSAII (Michael W. Deem and Ramdas Pophale) SiO2 
 PCOD9268631
Probable space group: C 2/C
;
_chemical_formula_sum "Si O2"
_cell_formula_units_Z 60
_cell_length_a 8.579948
_cell_length_b 22.224604
_cell_length_c 20.569716
_cell_angle_alpha 90.000000
_cell_angle_beta 130.176640
_cell_angle_gamma 90.000000
_cell_volume 2996.911712
_symmetry_space_group_name_H-M "C 2/C"
_symmetry_group_IT_number 15
_symmetry_cell_setting 'monoclinic'
loop_
_space_group_symop_operation_xyz
x,y,z
-x,y,1/2-z
-x,-y,-z
x,-y,1/2+z
1/2+x,1/2+y,z
1/2-x,1/2+y,1/2-z
1/2-x,1/2-y,-z
1/2+x,1/2-y,1/2+z
loop_
_atom_site_type_symbol
_atom_site_label
_atom_site_fract_x
_atom_site_fract_y
_atom_site_fract_z
Si Si1 0.434916 0.868522 0.961430
Si Si2 0.479007 0.682559 0.315775
Si Si3 0.768678 0.970997 0.529927
Si Si4 0.500000 0.029279 0.750000
Si Si5 0.238539 0.098317 0.045317
Si Si6 0.216274 0.884982 0.090113
Si Si7 0.802328 0.065060 0.312901
Si Si8 0.055443 0.714456 0.919587
O O1 0.205178 0.843711 0.891562
O O2 0.405269 0.938584 0.974223
O O3 0.573695 0.865450 0.935070
O O4 0.526722 0.828864 0.045617
O O5 0.500000 0.708943 0.250000
O O6 0.331072 0.625168 0.279212
O O7 0.419491 0.733205 0.351889
O O8 0.790922 0.921860 0.478903
O O9 0.980891 0.969148 0.626295
O O10 0.755249 0.033466 0.488624
O O11 0.666153 0.071112 0.829252
O O12 0.366573 0.982129 0.756376
O O13 0.022997 0.127630 0.964281
O O14 0.241332 0.086644 0.123882
O O15 0.353839 0.827172 0.113154
O O16 0.250000 0.750000 0.000000
#
# Coordination Sequence:
#
# PCOD9268631 Si02
#       8
#     8   8   8   4   8   8   8   8
#     4   9  20  32  59  83 110 147 198 239 284 334
#     4  10  22  39  57  81 111 152 196 242 290 348
#     4   9  16  35  50  80 111 154 187 223 272 352
#     4  12  20  34  56  90 122 150 188 236 310 360
#     4  11  17  34  55  86 113 149 194 235 282 347
#     4  10  20  32  60  84 111 152 196 238 293 348
#     4  10  21  34  56  80 119 148 189 234 285 353
#     4   9  19  41  59  79 109 155 203 244 282 350
#
# _framework density 20.020609
#
# number of rings (size 3 to 8) (size 9 to 14) (size 15 to 20)
#    0.000    2.133    2.667    3.600    2.800    0.000 
#    0.000    6.000    0.000    0.000    0.000    0.000 
#    0.000    0.000    0.000    0.000    0.000    0.000 
#
# Total GULP energy -167065.538293 kJ/mol
# GULP energy per Si atom -5568.851276 kJ/mol
# Density = 1.997504 g / cm^3
# Si number density = 20.020609 Si / 1000 Ang^3
#
#
#
# Elastic Constant Matrix: (Units=GPa)
#
#
# Indices 1 2 3 4 5 6 
#
# 1 71.1879 -0.3873 0.2572 0.0000 -3.3508 0.0000
# 2 -0.3873 63.0090 2.6977 0.0000 2.7228 0.0000
# 3 0.2572 2.6977 40.9265 0.0000 0.7778 0.0000
# 4 0.0000 0.0000 0.0000 10.5008 0.0000 -4.6054
# 5 -3.3508 2.7228 0.7778 0.0000 17.7898 0.0000
# 6 0.0000 0.0000 0.0000 -4.6054 0.0000 21.2037
#
#
#
# Elastic Compliance Matrix: (Units=1/GPa)
#
#
# Indices 1 2 3 4 5 6 
#
# 1 0.014174 -0.000023 -0.000138 0.000000 0.002679 0.000000
# 2 -0.000023 0.016018 -0.001010 0.000000 -0.002412 0.000000
# 3 -0.000138 -0.001010 0.024519 0.000000 -0.000944 0.000000
# 4 0.000000 0.000000 0.000000 0.105257 0.000000 0.022862
# 5 0.002679 -0.002412 -0.000944 0.000000 0.057127 0.000000
# 6 0.000000 0.000000 0.000000 0.022862 0.000000 0.052127
#
#
# Mechanical properties :
#
#
# Convention : Reuss Voigt Hill
#
# Bulk Modulus (GPa) = 19.09523 20.02874 19.56199
# Shear Modulus (GPa) = 17.29975 21.40257 19.35116
#
# Velocity S-wave (km/s) = 2.94274 3.27314 3.11233
# Velocity P-wave (km/s) = 4.59400 4.93056 4.76525
#
# Compressibility (1/GPa) = 0.05236911
#
# Stress axis : x y z
#
# Youngs Moduli (GPa) = 70.55265 62.42951 40.78401
#
# Poissons Ratio (x) = 0.00142 0.00565
# Poissons Ratio (y) = 0.00160 0.04119
# Poissons Ratio (z) = 0.00977 0.06305
#
# Static dielectric constant tensor:
#      x y z
#    x 1.679460 0.000000 0.036940 
#    y 0.000000 1.743240 0.000000 
#    z 0.036940 0.000000 1.749800 
# 
# From -- ./inp_files/193032.got.cif
#   From: 2010.05.17/outbox.cif.g08.bks.cpg/sg15_97_cif.got.tgz:193032.got - 2010.06.03 18:47:42.
