data_PCOD9268780
_publ_section_title
;
Structure prediction by ZEFSAII (Michael W. Deem and Ramdas Pophale) SiO2 
 PCOD9268780
Probable space group: C 2/C
;
_chemical_formula_sum "Si O2"
_cell_formula_units_Z 40
_cell_length_a 12.518270
_cell_length_b 5.108023
_cell_length_c 22.564301
_cell_angle_alpha 90.000000
_cell_angle_beta 102.858725
_cell_angle_gamma 90.000000
_cell_volume 1406.658938
_symmetry_space_group_name_H-M "C 2/C"
_symmetry_group_IT_number 15
_symmetry_cell_setting 'monoclinic'
loop_
_space_group_symop_operation_xyz
x,y,z
-x,y,1/2-z
-x,-y,-z
x,-y,1/2+z
1/2+x,1/2+y,z
1/2-x,1/2+y,1/2-z
1/2-x,1/2-y,-z
1/2+x,1/2-y,1/2+z
loop_
_atom_site_type_symbol
_atom_site_label
_atom_site_fract_x
_atom_site_fract_y
_atom_site_fract_z
Si Si1 0.549085 0.352442 0.808138
Si Si2 0.777668 0.222983 0.714390
Si Si3 0.679101 0.964686 0.897765
Si Si4 0.105490 0.686044 0.000121
Si Si5 0.022291 0.899933 0.096126
O O1 0.500000 0.179940 0.750000
O O2 0.603944 0.594679 0.781728
O O3 0.456381 0.429272 0.843537
O O4 0.645839 0.219892 0.856813
O O5 0.778040 0.481883 0.755993
O O6 0.752145 0.292053 0.640775
O O7 0.559255 0.823543 0.890792
O O8 0.694741 0.036425 0.970179
O O9 0.054913 0.920451 0.955136
O O10 0.000000 0.500000 0.000000
O O11 0.122960 0.798526 0.068791
#
# Coordination Sequence:
#
# PCOD9268780 Si02
#       5
#     8   8   8   8   8
#     4  10  20  33  52  79 111 143 178 222 270 322
#     4  11  21  37  53  75 109 144 185 223 265 327
#     4   9  17  29  49  74 106 135 178 220 270 313
#     4   8  13  25  44  70 102 133 167 222 270 311
#     4   8  15  26  44  72 106 132 172 216 275 310
#
# _framework density 28.436177000000001
#
# number of rings (size 3 to 8) (size 9 to 14) (size 15 to 20)
#    0.000    2.800    2.000    0.000    0.000    3.200 
#    0.000    0.000    0.000    0.000    0.000    2.800 
#    0.000    3.400    0.000    0.000    0.000    0.000 
#
# Total GULP energy -111525.080879 kJ/mol
# GULP energy per Si atom -5576.254044 kJ/mol
# Density = 2.837145 g / cm^3
# Si number density = 28.436177 Si / 1000 Ang^3
#
#
#
# Elastic Constant Matrix: (Units=GPa)
#
#
# Indices 1 2 3 4 5 6 
#
# 1 92.5375 25.8275 57.3924 0.0000 -44.1930 0.0000
# 2 25.8275 151.3454 70.3015 0.0000 -18.1514 0.0000
# 3 57.3924 70.3015 212.3827 0.0000 -42.5607 0.0000
# 4 0.0000 0.0000 0.0000 66.4669 0.0000 -12.8428
# 5 -44.1930 -18.1514 -42.5607 0.0000 70.8682 0.0000
# 6 0.0000 0.0000 0.0000 -12.8428 0.0000 21.7210
#
#
#
# Elastic Compliance Matrix: (Units=1/GPa)
#
#
# Indices 1 2 3 4 5 6 
#
# 1 0.016747 -0.000616 -0.002570 0.000000 0.008742 0.000000
# 2 -0.000616 0.007847 -0.002393 0.000000 0.000189 0.000000
# 3 -0.002570 -0.002393 0.006538 0.000000 0.001711 0.000000
# 4 0.000000 0.000000 0.000000 0.016986 0.000000 0.010043
# 5 0.008742 0.000189 0.001711 0.000000 0.020638 0.000000
# 6 0.000000 0.000000 0.000000 0.010043 0.000000 0.051976
#
#
# Mechanical properties :
#
#
# Convention : Reuss Voigt Hill
#
# Bulk Modulus (GPa) = 50.06416 84.81205 67.43811
# Shear Modulus (GPa) = 36.08859 51.99416 44.04138
#
# Velocity S-wave (km/s) = 3.56632 4.28068 3.93972
# Velocity P-wave (km/s) = 5.88236 7.37038 6.66801
#
# Compressibility (1/GPa) = 0.01997437
#
# Stress axis : x y z
#
# Youngs Moduli (GPa) = 59.71146 127.44106 152.95218
#
# Poissons Ratio (x) = 0.07847 0.39307
# Poissons Ratio (y) = 0.03677 0.36605
# Poissons Ratio (z) = 0.15345 0.30499
#
# Static dielectric constant tensor:
#      x y z
#    x 2.431880 0.000000 0.160630 
#    y 0.000000 2.368570 0.000000 
#    z 0.160630 0.000000 2.389760 
# 
# From -- ./inp_files/250539.got.cif
#   From: 2010.05.17/outbox.cif.g08.bks.cpg/sg15_126_cif.got.tgz:250539.got - 2010.06.03 18:47:42.
