data_PCOD9268838
_publ_section_title
;
Structure prediction by ZEFSAII (Michael W. Deem and Ramdas Pophale) SiO2 
 PCOD9268838
Probable space group: C 2/C
;
_chemical_formula_sum "Si O2"
_cell_formula_units_Z 60
_cell_length_a 8.813503
_cell_length_b 10.837158
_cell_length_c 26.432521
_cell_angle_alpha 90.000000
_cell_angle_beta 75.848043
_cell_angle_gamma 90.000000
_cell_volume 2448.036359
_symmetry_space_group_name_H-M "C 2/C"
_symmetry_group_IT_number 15
_symmetry_cell_setting 'monoclinic'
loop_
_space_group_symop_operation_xyz
x,y,z
-x,y,1/2-z
-x,-y,-z
x,-y,1/2+z
1/2+x,1/2+y,z
1/2-x,1/2+y,1/2-z
1/2-x,1/2-y,-z
1/2+x,1/2-y,1/2+z
loop_
_atom_site_type_symbol
_atom_site_label
_atom_site_fract_x
_atom_site_fract_y
_atom_site_fract_z
Si Si1 0.193906 0.227001 0.320684
Si Si2 0.278985 0.094641 0.109931
Si Si3 0.761607 0.951627 0.157962
Si Si4 0.493502 0.785515 0.507166
Si Si5 0.920117 0.316090 0.400122
Si Si6 0.673478 0.638520 0.559678
Si Si7 0.000000 0.344281 0.250000
Si Si8 0.499400 0.228287 0.344973
O O1 0.382154 0.237701 0.307545
O O2 0.099004 0.317661 0.366843
O O3 0.116376 0.260637 0.273880
O O4 0.170197 0.085972 0.339166
O O5 0.153038 0.203301 0.125387
O O6 0.390299 0.110920 0.150498
O O7 0.187927 0.977388 0.095670
O O8 0.391524 0.137054 0.054675
O O9 0.686549 0.929744 0.108484
O O10 0.613368 0.927142 0.206428
O O11 0.889452 0.847223 0.159450
O O12 0.412436 0.784836 0.459336
O O13 0.537552 0.653006 0.528367
O O14 0.661098 0.847589 0.481551
O O15 0.626129 0.754676 0.598915
#
# Coordination Sequence:
#
# PCOD9268838 Si02
#       8
#     8   8   8   8   8   8   4   8
#     4  11  23  42  68  88 120 160 186 245 314 357
#     4  10  21  34  56  84 120 167 206 250 299 338
#     4  10  24  43  65  92 120 153 193 246 305 365
#     4  10  20  33  53  84 124 162 211 256 287 342
#     4  10  21  39  57  89 124 155 212 251 286 363
#     4  10  20  35  53  84 124 160 208 255 290 337
#     4  10  26  44  60  96 120 136 196 244 292 388
#     4  10  22  39  61  90 117 155 206 241 292 368
#
# _framework density 24.509440999999999
#
# number of rings (size 3 to 8) (size 9 to 14) (size 15 to 20)
#    0.000    1.867    1.333    1.600    1.867    4.267 
#    0.000    0.000    0.000    0.000    0.000    0.000 
#    0.000    0.000    0.000    0.000    0.000    0.000 
#
# Total GULP energy -167479.372268 kJ/mol
# GULP energy per Si atom -5582.645742 kJ/mol
# Density = 2.445366 g / cm^3
# Si number density = 24.509441 Si / 1000 Ang^3
#
#
#
# Elastic Constant Matrix: (Units=GPa)
#
#
# Indices 1 2 3 4 5 6 
#
# 1 97.8446 11.1118 50.1235 0.0000 12.8584 0.0000
# 2 11.1118 76.0738 -3.0145 0.0000 10.0731 0.0000
# 3 50.1235 -3.0145 61.8999 0.0000 20.5996 0.0000
# 4 0.0000 0.0000 0.0000 22.0848 0.0000 6.2050
# 5 12.8584 10.0731 20.5996 0.0000 55.1071 0.0000
# 6 0.0000 0.0000 0.0000 6.2050 0.0000 45.4617
#
#
#
# Elastic Compliance Matrix: (Units=1/GPa)
#
#
# Indices 1 2 3 4 5 6 
#
# 1 0.018479 -0.003634 -0.015905 0.000000 0.002298 0.000000
# 2 -0.003634 0.014341 0.004832 0.000000 -0.003580 0.000000
# 3 -0.015905 0.004832 0.032353 0.000000 -0.009266 0.000000
# 4 0.000000 0.000000 0.000000 0.047086 0.000000 -0.006427
# 5 0.002298 -0.003580 -0.009266 0.000000 0.021728 0.000000
# 6 0.000000 0.000000 0.000000 -0.006427 0.000000 0.022874
#
#
# Mechanical properties :
#
#
# Convention : Reuss Voigt Hill
#
# Bulk Modulus (GPa) = 27.96385 39.13999 33.55192
# Shear Modulus (GPa) = 25.22791 36.37056 30.79924
#
# Velocity S-wave (km/s) = 3.21177 3.85637 3.54874
# Velocity P-wave (km/s) = 5.01878 5.98605 5.52363
#
# Compressibility (1/GPa) = 0.03576046
#
# Stress axis : x y z
#
# Youngs Moduli (GPa) = 54.11671 69.72826 30.90913
#
# Poissons Ratio (x) = 0.25336 0.49160
# Poissons Ratio (y) = 0.19664 -0.14936
# Poissons Ratio (z) = 0.86071 -0.33693
#
# Static dielectric constant tensor:
#      x y z
#    x 2.012270 0.000000 0.073070 
#    y 0.000000 1.961340 0.000000 
#    z 0.073070 0.000000 2.017330 
# 
# From -- ./inp_files/288014.got.cif
#   From: 2010.05.17/outbox.cif.g08.bks.cpg/sg15_145_cif.got.tgz:288014.got - 2010.06.03 18:47:42.
