data_PCOD9268758
_publ_section_title
;
Structure prediction by ZEFSAII (Michael W. Deem and Ramdas Pophale) SiO2 
 PCOD9268758
Probable space group: C 2/C
;
_chemical_formula_sum "Si O2"
_cell_formula_units_Z 32
_cell_length_a 11.252243
_cell_length_b 13.210005
_cell_length_c 13.491172
_cell_angle_alpha 90.000000
_cell_angle_beta 45.467230
_cell_angle_gamma 90.000000
_cell_volume 1429.517852
_symmetry_space_group_name_H-M "C 2/C"
_symmetry_group_IT_number 15
_symmetry_cell_setting 'monoclinic'
loop_
_space_group_symop_operation_xyz
x,y,z
-x,y,1/2-z
-x,-y,-z
x,-y,1/2+z
1/2+x,1/2+y,z
1/2-x,1/2+y,1/2-z
1/2-x,1/2-y,-z
1/2+x,1/2-y,1/2+z
loop_
_atom_site_type_symbol
_atom_site_label
_atom_site_fract_x
_atom_site_fract_y
_atom_site_fract_z
Si Si1 0.819816 0.343021 0.517811
Si Si2 0.358042 0.528732 0.211428
Si Si3 0.612800 0.103546 0.951263
Si Si4 0.241692 0.971043 0.947643
O O1 0.750000 0.250000 0.500000
O O2 0.694653 0.390032 0.674094
O O3 0.844760 0.429256 0.419030
O O4 0.990336 0.315552 0.475716
O O5 0.275202 0.422658 0.293266
O O6 0.552591 0.505844 0.085270
O O7 0.270326 0.557723 0.159340
O O8 0.676421 0.110784 0.026279
O O9 0.500000 0.000000 0.000000
#
# Coordination Sequence:
#
# PCOD9268758 Si02
#       4
#     8   8   8   8
#     4  10  20  33  51  88 124 142 191 251 304 337
#     4   9  17  33  56  82 112 157 197 240 279 361
#     4   8  16  29  50  80 109 148 194 231 281 351
#     4   9  17  33  57  82 109 156 202 231 284 353
#
# _framework density 22.385169999999999
#
# number of rings (size 3 to 8) (size 9 to 14) (size 15 to 20)
#    0.000    3.500    0.000    3.000    0.000    9.000 
#    9.000    0.000    0.000    6.000   26.000    0.000 
#    0.000    0.000    0.000    0.000    0.000    0.000 
#
# Total GULP energy -89103.057465 kJ/mol
# GULP energy per Si atom -5568.941092 kJ/mol
# Density = 2.233422 g / cm^3
# Si number density = 22.385170 Si / 1000 Ang^3
#
#
#
# Elastic Constant Matrix: (Units=GPa)
#
#
# Indices 1 2 3 4 5 6 
#
# 1 224.6464 43.8669 47.4862 0.0000 45.5417 0.0000
# 2 43.8669 36.7922 18.9533 0.0000 13.0580 0.0000
# 3 47.4862 18.9533 82.8997 0.0000 24.8752 0.0000
# 4 0.0000 0.0000 0.0000 5.2602 0.0000 3.4190
# 5 45.5417 13.0580 24.8752 0.0000 35.7974 0.0000
# 6 0.0000 0.0000 0.0000 3.4190 0.0000 42.7864
#
#
#
# Elastic Compliance Matrix: (Units=1/GPa)
#
#
# Indices 1 2 3 4 5 6 
#
# 1 0.007011 -0.005709 -0.000833 0.000000 -0.006258 0.000000
# 2 -0.005709 0.037391 -0.004252 0.000000 -0.003422 0.000000
# 3 -0.000833 -0.004252 0.016082 0.000000 -0.008565 0.000000
# 4 0.000000 0.000000 0.000000 0.200522 0.000000 -0.016023
# 5 -0.006258 -0.003422 -0.008565 0.000000 0.043096 0.000000
# 6 0.000000 0.000000 0.000000 -0.016023 0.000000 0.024652
#
#
# Mechanical properties :
#
#
# Convention : Reuss Voigt Hill
#
# Bulk Modulus (GPa) = 25.70913 62.77235 44.24074
# Shear Modulus (GPa) = 13.76245 32.37091 23.06668
#
# Velocity S-wave (km/s) = 2.48221 3.80687 3.21354
# Velocity P-wave (km/s) = 4.44128 6.88664 5.79443
#
# Compressibility (1/GPa) = 0.03889669
#
# Stress axis : x y z
#
# Youngs Moduli (GPa) = 142.63315 26.74431 62.18187
#
# Poissons Ratio (x) = 0.15268 0.05179
# Poissons Ratio (y) = 0.81429 0.26438
# Poissons Ratio (z) = 0.11880 0.11371
#
# Static dielectric constant tensor:
#      x y z
#    x 1.945160 0.000000 -0.041570 
#    y 0.000000 1.905920 0.000000 
#    z -0.041570 0.000000 1.899780 
# 
# From -- ./inp_files/132558.got.cif
#   From: 2010.05.17/outbox.cif.g08.bks.cpg/sg15_67_cif.got.tgz:132558.got - 2010.06.03 18:47:42.
