data_PCOD9268635
_publ_section_title
;
Structure prediction by ZEFSAII (Michael W. Deem and Ramdas Pophale) SiO2 
 PCOD9268635
Probable space group: C 2/C
;
_chemical_formula_sum "Si O2"
_cell_formula_units_Z 40
_cell_length_a 5.148855
_cell_length_b 18.786565
_cell_length_c 17.999110
_cell_angle_alpha 90.000000
_cell_angle_beta 72.824426
_cell_angle_gamma 90.000000
_cell_volume 1663.398409
_symmetry_space_group_name_H-M "C 2/C"
_symmetry_group_IT_number 15
_symmetry_cell_setting 'monoclinic'
loop_
_space_group_symop_operation_xyz
x,y,z
-x,y,1/2-z
-x,-y,-z
x,-y,1/2+z
1/2+x,1/2+y,z
1/2-x,1/2+y,1/2-z
1/2-x,1/2-y,-z
1/2+x,1/2-y,1/2+z
loop_
_atom_site_type_symbol
_atom_site_label
_atom_site_fract_x
_atom_site_fract_y
_atom_site_fract_z
Si Si1 0.742940 0.908934 0.010182
Si Si2 0.660875 0.067322 0.080708
Si Si3 0.000000 0.486105 0.750000
Si Si4 0.187495 0.229743 0.669018
Si Si5 0.225420 0.770687 0.416471
Si Si6 0.000000 0.913440 0.250000
O O1 0.518449 0.893672 0.966520
O O2 0.033566 0.904515 0.945328
O O3 0.753417 0.855892 0.078112
O O4 0.688782 0.986701 0.047379
O O5 0.531637 0.060608 0.172754
O O6 0.732856 0.536321 0.764505
O O7 0.498678 0.251547 0.647981
O O8 0.000000 0.260310 0.750000
O O9 0.046032 0.249040 0.603600
O O10 0.148667 0.143714 0.682891
O O11 0.250000 0.750000 0.500000
#
# Coordination Sequence:
#
# PCOD9268635 Si02
#       6
#     8   8   4   8   8   4
#     4  10  21  38  56  85 121 153 198 234 309 341
#     4  10  21  35  59  83 120 159 187 253 282 365
#     4  12  20  34  58  91 118 157 210 232 314 354
#     4  10  22  38  61  92 121 147 201 265 309 339
#     4  12  23  40  66  89 123 163 205 249 299 371
#     4  10  20  32  60  87 122 147 196 270 296 332
#
# _framework density 24.047156999999999
#
# number of rings (size 3 to 8) (size 9 to 14) (size 15 to 20)
#    0.600    0.800    0.000    7.200    0.000    3.200 
#    0.000    0.000   13.200    0.000    0.000    0.000 
#    0.000    0.000    0.000    0.000    0.000    0.000 
#
# Total GULP energy -111865.259655 kJ/mol
# GULP energy per Si atom -5593.262983 kJ/mol
# Density = 2.399242 g / cm^3
# Si number density = 24.047157 Si / 1000 Ang^3
#
#
#
# Elastic Constant Matrix: (Units=GPa)
#
#
# Indices 1 2 3 4 5 6 
#
# 1 63.6791 -4.3970 -1.2575 0.0000 5.0439 0.0000
# 2 -4.3970 35.7411 -8.4731 0.0000 6.5119 0.0000
# 3 -1.2575 -8.4731 89.7746 0.0000 -3.6116 0.0000
# 4 0.0000 0.0000 0.0000 4.6342 0.0000 6.2014
# 5 5.0439 6.5119 -3.6116 0.0000 45.0661 0.0000
# 6 0.0000 0.0000 0.0000 6.2014 0.0000 7.2675
#
#
#
# Elastic Compliance Matrix: (Units=1/GPa)
#
#
# Indices 1 2 3 4 5 6 
#
# 1 0.016048 0.002448 0.000371 0.000000 -0.002120 0.000000
# 2 0.002448 0.029705 0.002663 0.000000 -0.004353 0.000000
# 3 0.000371 0.002663 0.011415 0.000000 0.000489 0.000000
# 4 0.000000 0.000000 0.000000 -1.521003 0.000000 1.297876
# 5 -0.002120 -0.004353 0.000489 0.000000 0.023095 0.000000
# 6 0.000000 0.000000 0.000000 1.297876 0.000000 -0.969882
#
#
# Mechanical properties :
#
#
# Convention : Reuss Voigt Hill
#
# Bulk Modulus (GPa) = 14.67753 17.88217 16.27985
# Shear Modulus (GPa) = -2.08431 24.94838 11.43203
#
# Velocity S-wave (km/s) = -0.93201 3.22448 2.18273
# Velocity P-wave (km/s) = 2.22682 4.61687 3.62451
#
# Compressibility (1/GPa) = 0.06813135
#
# Stress axis : x y z
#
# Youngs Moduli (GPa) = 62.31282 33.66491 87.60270
#
# Poissons Ratio (x) = -0.08243 -0.03246
# Poissons Ratio (y) = -0.15257 -0.23326
# Poissons Ratio (z) = -0.02309 -0.08964
#
# Static dielectric constant tensor:
#      x y z
#    x 1.858770 0.000000 -0.024240 
#    y 0.000000 2.067480 0.000000 
#    z -0.024240 0.000000 1.890880 
# 
# From -- ./inp_files/184677.got.cif
#   From: 2010.05.17/outbox.cif.g08.bks.cpg/sg15_93_cif.got.tgz:184677.got - 2010.06.03 18:47:42.
