data_PCOD9268721
_publ_section_title
;
Structure prediction by ZEFSAII (Michael W. Deem and Ramdas Pophale) SiO2 
 PCOD9268721
Probable space group: C 2/C
;
_chemical_formula_sum "Si O2"
_cell_formula_units_Z 64
_cell_length_a 28.657404
_cell_length_b 15.779096
_cell_length_c 8.786226
_cell_angle_alpha 90.000000
_cell_angle_beta 65.701353
_cell_angle_gamma 90.000000
_cell_volume 3621.066918
_symmetry_space_group_name_H-M "C 2/C"
_symmetry_group_IT_number 15
_symmetry_cell_setting 'monoclinic'
loop_
_space_group_symop_operation_xyz
x,y,z
-x,y,1/2-z
-x,-y,-z
x,-y,1/2+z
1/2+x,1/2+y,z
1/2-x,1/2+y,1/2-z
1/2-x,1/2-y,-z
1/2+x,1/2-y,1/2+z
loop_
_atom_site_type_symbol
_atom_site_label
_atom_site_fract_x
_atom_site_fract_y
_atom_site_fract_z
Si Si1 0.194619 0.598005 0.226015
Si Si2 0.306909 0.446337 0.626774
Si Si3 0.863140 0.731235 0.027065
Si Si4 0.201032 0.791629 0.652843
Si Si5 0.439173 0.904491 0.336131
Si Si6 0.174661 0.113509 0.737699
Si Si7 0.882697 0.538854 0.619339
Si Si8 0.206341 0.657785 0.896765
O O1 0.246413 0.544855 0.168166
O O2 0.178024 0.654408 0.390993
O O3 0.148992 0.534438 0.251851
O O4 0.200062 0.665305 0.084669
O O5 0.301337 0.387571 0.785743
O O6 0.335494 0.530365 0.645120
O O7 0.329161 0.407552 0.438257
O O8 0.846752 0.773018 0.890953
O O9 0.915838 0.679614 0.946863
O O10 0.856806 0.804934 0.161018
O O11 0.250000 0.750000 0.500000
O O12 0.198564 0.742119 0.814276
O O13 0.500000 0.903986 0.250000
O O14 0.415062 0.909895 0.199412
O O15 0.418565 0.987333 0.454592
O O16 0.234605 0.130612 0.698226
O O17 0.837470 0.593714 0.603335
#
# Coordination Sequence:
#
# PCOD9268721 Si02
#       8
#     8   8   8   8   8   8   8   8
#     4  10  20  33  50  78 112 156 184 224 271 335
#     4  11  22  33  53  79 121 150 191 224 271 337
#     4  11  22  36  55  76 112 149 194 236 286 334
#     4  12  21  32  51  78 112 152 193 228 276 338
#     4  11  24  40  59  82 111 149 198 248 288 327
#     4  11  22  34  52  81 114 156 189 226 278 343
#     4  11  20  35  57  82 110 148 189 230 282 343
#     4  11  20  31  51  75 116 149 186 219 276 344
#
# _framework density 17.67435
#
# number of rings (size 3 to 8) (size 9 to 14) (size 15 to 20)
#    0.000    1.000    6.250    1.875    0.000    2.000 
#    0.000    0.000    0.000    0.000    0.000    3.500 
#    0.000    0.000    0.000    0.000    0.000    0.000 
#
# Total GULP energy -178320.152445 kJ/mol
# GULP energy per Si atom -5572.504764 kJ/mol
# Density = 1.763412 g / cm^3
# Si number density = 17.674350 Si / 1000 Ang^3
#
#
#
# Elastic Constant Matrix: (Units=GPa)
#
#
# Indices 1 2 3 4 5 6 
#
# 1 51.1735 18.4267 26.7550 0.0000 -7.1921 0.0000
# 2 18.4267 74.7033 21.5504 0.0000 -8.1669 0.0000
# 3 26.7550 21.5504 43.7081 0.0000 -1.6050 0.0000
# 4 0.0000 0.0000 0.0000 30.7110 0.0000 5.9771
# 5 -7.1921 -8.1669 -1.6050 0.0000 24.5253 0.0000
# 6 0.0000 0.0000 0.0000 5.9771 0.0000 19.9831
#
#
#
# Elastic Compliance Matrix: (Units=1/GPa)
#
#
# Indices 1 2 3 4 5 6 
#
# 1 0.030269 -0.001646 -0.017453 0.000000 0.007186 0.000000
# 2 -0.001646 0.016256 -0.006843 0.000000 0.004483 0.000000
# 3 -0.017453 -0.006843 0.036754 0.000000 -0.004992 0.000000
# 4 0.000000 0.000000 0.000000 0.034574 0.000000 -0.010341
# 5 0.007186 0.004483 -0.004992 0.000000 0.044048 0.000000
# 6 0.000000 0.000000 0.000000 -0.010341 0.000000 0.053135
#
#
# Mechanical properties :
#
#
# Convention : Reuss Voigt Hill
#
# Bulk Modulus (GPa) = 31.85274 33.67213 32.76243
# Shear Modulus (GPa) = 18.02542 21.90073 19.96307
#
# Velocity S-wave (km/s) = 3.19699 3.52394 3.36444
# Velocity P-wave (km/s) = 5.62928 5.97079 5.80255
#
# Compressibility (1/GPa) = 0.03139447
#
# Stress axis : x y z
#
# Youngs Moduli (GPa) = 33.03700 61.51386 27.20826
#
# Poissons Ratio (x) = 0.10124 0.47487
# Poissons Ratio (y) = 0.05437 0.18619
# Poissons Ratio (z) = 0.57660 0.42096
#
# Static dielectric constant tensor:
#      x y z
#    x 1.577860 0.000000 0.027600 
#    y 0.000000 1.670040 0.000000 
#    z 0.027600 0.000000 1.656650 
# 
# From -- ./inp_files/61924.got.cif
#   From: 2010.05.17/outbox.cif.g08.bks.cpg/sg15_31_cif.got.tgz:61924.got - 2010.06.03 18:47:42.
