data_PCOD9268670
_publ_section_title
;
Structure prediction by ZEFSAII (Michael W. Deem and Ramdas Pophale) SiO2 
 PCOD9268670
Probable space group: C 2/C
;
_chemical_formula_sum "Si O2"
_cell_formula_units_Z 40
_cell_length_a 27.260687
_cell_length_b 9.439395
_cell_length_c 10.851670
_cell_angle_alpha 90.000000
_cell_angle_beta 144.556348
_cell_angle_gamma 90.000000
_cell_volume 1619.318066
_symmetry_space_group_name_H-M "C 2/C"
_symmetry_group_IT_number 15
_symmetry_cell_setting 'monoclinic'
loop_
_space_group_symop_operation_xyz
x,y,z
-x,y,1/2-z
-x,-y,-z
x,-y,1/2+z
1/2+x,1/2+y,z
1/2-x,1/2+y,1/2-z
1/2-x,1/2-y,-z
1/2+x,1/2-y,1/2+z
loop_
_atom_site_type_symbol
_atom_site_label
_atom_site_fract_x
_atom_site_fract_y
_atom_site_fract_z
Si Si1 0.702783 0.155032 0.303107
Si Si2 0.086144 0.734542 0.860761
Si Si3 0.459254 0.669334 0.487722
Si Si4 0.129628 0.875003 0.448114
Si Si5 0.417424 0.087160 0.230193
O O1 0.750000 0.250000 0.500000
O O2 0.779285 0.065309 0.400107
O O3 0.627068 0.084486 0.226266
O O4 0.661016 0.247991 0.110576
O O5 0.090192 0.814529 0.739987
O O6 0.080723 0.566754 0.822298
O O7 0.000000 0.780933 0.750000
O O8 0.406169 0.599878 0.489094
O O9 0.553825 0.600416 0.692935
O O10 0.492084 0.832474 0.579893
O O11 0.135923 0.702161 0.457290
#
# Coordination Sequence:
#
# PCOD9268670 Si02
#       5
#     8   8   8   8   8
#     4  10  20  33  45  68 110 134 161 205 243 294
#     4  12  19  27  50  78 103 133 163 192 251 315
#     4   9  17  29  51  71 101 129 168 194 251 299
#     4   8  17  32  45  67 104 133 157 202 244 285
#     4   9  18  28  48  71 105 130 155 196 251 305
#
# _framework density 24.701758000000002
#
# number of rings (size 3 to 8) (size 9 to 14) (size 15 to 20)
#    1.200    1.200    2.000    1.800    2.800    0.800 
#    0.000    0.000    0.000    0.000    0.000    5.600 
#   24.000    1.800    0.000    0.000    0.000    0.000 
#
# Total GULP energy -111531.803995 kJ/mol
# GULP energy per Si atom -5576.590200 kJ/mol
# Density = 2.464554 g / cm^3
# Si number density = 24.701758 Si / 1000 Ang^3
#
#
#
# Elastic Constant Matrix: (Units=GPa)
#
#
# Indices 1 2 3 4 5 6 
#
# 1 128.9416 -6.4953 40.2996 0.0000 7.6975 0.0000
# 2 -6.4953 108.0382 0.7656 0.0000 -5.8368 0.0000
# 3 40.2996 0.7656 154.1344 0.0000 -29.1016 0.0000
# 4 0.0000 0.0000 0.0000 6.7086 0.0000 8.3210
# 5 7.6975 -5.8368 -29.1016 0.0000 44.7646 0.0000
# 6 0.0000 0.0000 0.0000 8.3210 0.0000 -10.7498
#
#
#
# Elastic Compliance Matrix: (Units=1/GPa)
#
#
# Indices 1 2 3 4 5 6 
#
# 1 0.008909 0.000372 -0.002976 0.000000 -0.003418 0.000000
# 2 0.000372 0.009343 0.000085 0.000000 0.001209 0.000000
# 3 -0.002976 0.000085 0.008395 0.000000 0.005980 0.000000
# 4 0.000000 0.000000 0.000000 0.076048 0.000000 0.058866
# 5 -0.003418 0.001209 0.005980 0.000000 0.026972 0.000000
# 6 0.000000 0.000000 0.000000 0.058866 0.000000 -0.047459
#
#
# Mechanical properties :
#
#
# Convention : Reuss Voigt Hill
#
# Bulk Modulus (GPa) = 46.28180 51.13933 48.71056
# Shear Modulus (GPa) = 52.93848 31.91431 42.42639
#
# Velocity S-wave (km/s) = 4.63439 3.59832 4.14882
# Velocity P-wave (km/s) = 6.88576 6.16535 6.53549
#
# Compressibility (1/GPa) = 0.02160677
#
# Stress axis : x y z
#
# Youngs Moduli (GPa) = 112.25207 107.03102 119.12188
#
# Poissons Ratio (x) = -0.03982 0.35456
# Poissons Ratio (y) = -0.04176 -0.01008
# Poissons Ratio (z) = 0.33411 -0.00906
#
# Static dielectric constant tensor:
#      x y z
#    x 2.044740 0.000000 0.005070 
#    y 0.000000 2.058370 0.000000 
#    z 0.005070 0.000000 1.990480 
# 
# From -- ./inp_files/126668.got.cif
#   From: 2010.05.17/outbox.cif.g08.bks.cpg/sg15_64_cif.got.tgz:126668.got - 2010.06.03 18:47:42.
