data_PCOD9268239
_publ_section_title
;
Structure prediction by ZEFSAII (Michael W. Deem and Ramdas Pophale) SiO2 
 PCOD9268239
Probable space group: C 2/C
;
_chemical_formula_sum "Si O2"
_cell_formula_units_Z 56
_cell_length_a 22.069893
_cell_length_b 25.072311
_cell_length_c 9.343228
_cell_angle_alpha 90.000000
_cell_angle_beta 136.011824
_cell_angle_gamma 90.000000
_cell_volume 3590.624468
_symmetry_space_group_name_H-M "C 2/C"
_symmetry_group_IT_number 15
_symmetry_cell_setting 'monoclinic'
loop_
_space_group_symop_operation_xyz
x,y,z
-x,y,1/2-z
-x,-y,-z
x,-y,1/2+z
1/2+x,1/2+y,z
1/2-x,1/2+y,1/2-z
1/2-x,1/2-y,-z
1/2+x,1/2-y,1/2+z
loop_
_atom_site_type_symbol
_atom_site_label
_atom_site_fract_x
_atom_site_fract_y
_atom_site_fract_z
Si Si1 0.013034 0.245010 0.440438
Si Si2 0.594049 0.755723 0.985935
Si Si3 0.313927 0.354883 0.927466
Si Si4 0.135299 0.062494 0.197315
Si Si5 0.678420 0.202969 0.369938
Si Si6 0.049160 0.876928 0.094948
Si Si7 0.601714 0.459129 0.957841
O O1 0.098809 0.276401 0.637797
O O2 0.025646 0.183146 0.508616
O O3 0.000000 0.248323 0.250000
O O4 0.931407 0.266750 0.394315
O O5 0.500000 0.745234 0.750000
O O6 0.651023 0.702060 0.070730
O O7 0.640708 0.800315 0.967329
O O8 0.389950 0.375739 0.162596
O O9 0.303520 0.395198 0.778764
O O10 0.228971 0.345010 0.880416
O O11 0.149352 0.050407 0.388380
O O12 0.038839 0.089708 0.027190
O O13 0.135949 0.007992 0.109446
O O14 0.750000 0.250000 0.500000
O O15 0.098720 0.906229 0.049608
O O16 0.500000 0.471490 0.750000
#
# Coordination Sequence:
#
# PCOD9268239 Si02
#       7
#     8   8   8   8   8   8   8
#     4  11  19  30  47  67  90 120 158 192 224 265
#     4   9  15  29  45  61  81 117 152 181 218 269
#     4  11  17  29  47  60  86 121 155 187 227 267
#     4  11  19  30  43  64  87 125 158 189 221 257
#     4   9  18  32  44  65  86 117 160 188 226 270
#     4  11  18  28  44  63  88 124 161 188 219 256
#     4  10  20  29  40  63  91 115 161 198 212 249
#
# _framework density 15.596173
#
# number of rings (size 3 to 8) (size 9 to 14) (size 15 to 20)
#    0.000    1.714    5.714    5.143    0.000    0.000 
#    0.000    4.286    0.000    0.000    0.000    0.000 
#    0.000    0.000    0.000   66.857    0.000    0.000 
#
# Total GULP energy -156039.575662 kJ/mol
# GULP energy per Si atom -5572.841988 kJ/mol
# Density = 1.556068 g / cm^3
# Si number density = 15.596173 Si / 1000 Ang^3
#
#
#
# Elastic Constant Matrix: (Units=GPa)
#
#
# Indices 1 2 3 4 5 6 
#
# 1 127.7145 39.1261 31.4301 0.0000 -32.6075 0.0000
# 2 39.1261 39.1518 3.5812 0.0000 -9.3311 0.0000
# 3 31.4301 3.5812 34.0199 0.0000 -20.3274 0.0000
# 4 0.0000 0.0000 0.0000 7.7643 0.0000 -6.8932
# 5 -32.6075 -9.3311 -20.3274 0.0000 31.2680 0.0000
# 6 0.0000 0.0000 0.0000 -6.8932 0.0000 26.4585
#
#
#
# Elastic Compliance Matrix: (Units=1/GPa)
#
#
# Indices 1 2 3 4 5 6 
#
# 1 0.015952 -0.013540 -0.009462 0.000000 0.006443 0.000000
# 2 -0.013540 0.039217 0.011343 0.000000 0.004957 0.000000
# 3 -0.009462 0.011343 0.054074 0.000000 0.028671 0.000000
# 4 0.000000 0.000000 0.000000 0.167547 0.000000 0.043651
# 5 0.006443 0.004957 0.028671 0.000000 0.058819 0.000000
# 6 0.000000 0.000000 0.000000 0.043651 0.000000 0.049167
#
#
# Mechanical properties :
#
#
# Convention : Reuss Voigt Hill
#
# Bulk Modulus (GPa) = 11.63826 38.79568 25.21697
# Shear Modulus (GPa) = 11.44858 21.54808 16.49833
#
# Velocity S-wave (km/s) = 2.71230 3.72106 3.25598
# Velocity P-wave (km/s) = 4.15779 6.58717 5.50809
#
# Compressibility (1/GPa) = 0.08592348
#
# Stress axis : x y z
#
# Youngs Moduli (GPa) = 62.68931 25.49930 18.49327
#
# Poissons Ratio (x) = 0.34526 0.17499
# Poissons Ratio (y) = 0.84882 -0.20977
# Poissons Ratio (z) = 0.59318 -0.28924
#
# Static dielectric constant tensor:
#      x y z
#    x 1.604340 0.000000 -0.002010 
#    y 0.000000 1.519440 0.000000 
#    z -0.002010 0.000000 1.536620 
# 
# From -- ./inp_files/58503.got.cif
#   From: 2010.05.17/outbox.cif.g08.bks.cpg/sg15_30_cif.got.tgz:58503.got - 2010.06.03 18:47:42.
