data_PCOD9268218
_publ_section_title
;
Structure prediction by ZEFSAII (Michael W. Deem and Ramdas Pophale) SiO2 
 PCOD9268218
Probable space group: C 2/C
;
_chemical_formula_sum "Si O2"
_cell_formula_units_Z 40
_cell_length_a 6.987163
_cell_length_b 27.508858
_cell_length_c 9.715567
_cell_angle_alpha 90.000000
_cell_angle_beta 63.300621
_cell_angle_gamma 90.000000
_cell_volume 1668.307085
_symmetry_space_group_name_H-M "C 2/C"
_symmetry_group_IT_number 15
_symmetry_cell_setting 'monoclinic'
loop_
_space_group_symop_operation_xyz
x,y,z
-x,y,1/2-z
-x,-y,-z
x,-y,1/2+z
1/2+x,1/2+y,z
1/2-x,1/2+y,1/2-z
1/2-x,1/2-y,-z
1/2+x,1/2-y,1/2+z
loop_
_atom_site_type_symbol
_atom_site_label
_atom_site_fract_x
_atom_site_fract_y
_atom_site_fract_z
Si Si1 0.878118 0.965883 0.646815
Si Si2 0.138315 0.198865 0.566017
Si Si3 0.251547 0.941211 0.213554
Si Si4 0.991185 0.383624 0.918271
Si Si5 0.873721 0.875309 0.999391
O O1 0.922866 0.911815 0.577611
O O2 0.000000 0.961130 0.750000
O O3 0.697790 0.004300 0.751235
O O4 0.000000 0.000000 0.500000
O O5 0.250000 0.250000 0.500000
O O6 0.333134 0.160489 0.507271
O O7 0.971685 0.176579 0.508639
O O8 0.000000 0.200595 0.750000
O O9 0.000000 0.938355 0.250000
O O10 0.260541 0.901002 0.332680
O O11 0.396242 0.928685 0.035748
O O12 0.000000 0.390891 0.750000
O O13 0.222393 0.373836 0.914581
#
# Coordination Sequence:
#
# PCOD9268218 Si02
#       5
#     8   8   8   8   8
#     4   9  21  37  70 106 146 202 250 297 372 435
#     4  12  27  52  80 110 151 193 251 323 392 463
#     4  10  19  45  74 103 152 207 250 314 370 444
#     4  12  26  43  76 116 152 202 263 312 375 452
#     4  11  23  44  79 105 153 199 252 317 381 439
#
# _framework density 23.976400999999999
#
# number of rings (size 3 to 8) (size 9 to 14) (size 15 to 20)
#    0.000    1.200    4.000    1.200    2.800    0.800 
#    0.000    6.000   13.200    0.000    0.000    0.000 
#    0.000    0.000    0.000    0.000    0.000    0.000 
#
# Total GULP energy -111588.809788 kJ/mol
# GULP energy per Si atom -5579.440489 kJ/mol
# Density = 2.392183 g / cm^3
# Si number density = 23.976401 Si / 1000 Ang^3
#
#
#
# Elastic Constant Matrix: (Units=GPa)
#
#
# Indices 1 2 3 4 5 6 
#
# 1 170.1205 47.0919 70.1577 0.0000 1.9199 0.0000
# 2 47.0919 155.2917 95.3199 0.0000 -12.7233 0.0000
# 3 70.1577 95.3199 195.7728 0.0000 10.1696 0.0000
# 4 0.0000 0.0000 0.0000 51.5441 0.0000 -3.5690
# 5 1.9199 -12.7233 10.1696 0.0000 44.7505 0.0000
# 6 0.0000 0.0000 0.0000 -3.5690 0.0000 -3.3387
#
#
#
# Elastic Compliance Matrix: (Units=1/GPa)
#
#
# Indices 1 2 3 4 5 6 
#
# 1 0.006972 -0.000838 -0.002087 0.000000 -0.000063 0.000000
# 2 -0.000838 0.009922 -0.004735 0.000000 0.003933 0.000000
# 3 -0.002087 -0.004735 0.008325 0.000000 -0.003149 0.000000
# 4 0.000000 0.000000 0.000000 0.018064 0.000000 -0.019310
# 5 -0.000063 0.003933 -0.003149 0.000000 0.024183 0.000000
# 6 0.000000 0.000000 0.000000 -0.019310 0.000000 -0.278878
#
#
# Mechanical properties :
#
#
# Convention : Reuss Voigt Hill
#
# Bulk Modulus (GPa) = 101.02728 105.14713 103.08721
# Shear Modulus (GPa) = -25.93453 39.16556 6.61552
#
# Velocity S-wave (km/s) = -3.29244 4.04605 1.66288
# Velocity P-wave (km/s) = 5.27011 8.11030 6.83926
#
# Compressibility (1/GPa) = 0.00989832
#
# Stress axis : x y z
#
# Youngs Moduli (GPa) = 143.43905 100.78268 120.12312
#
# Poissons Ratio (x) = 0.08449 0.25069
# Poissons Ratio (y) = 0.12025 0.56878
# Poissons Ratio (z) = 0.29934 0.47720
#
# Static dielectric constant tensor:
#      x y z
#    x 2.032490 0.000000 -0.038660 
#    y 0.000000 1.992620 0.000000 
#    z -0.038660 0.000000 1.989940 
# 
# From -- ./inp_files/91662.got.cif
#   From: 2010.05.17/outbox.cif.g08.bks.cpg/sg15_46_cif.got.tgz:91662.got - 2010.06.03 18:47:42.
