data_PCOD9268169
_publ_section_title
;
Structure prediction by ZEFSAII (Michael W. Deem and Ramdas Pophale) SiO2 
 PCOD9268169
Probable space group: C 2/C
;
_chemical_formula_sum "Si O2"
_cell_formula_units_Z 40
_cell_length_a 17.355881
_cell_length_b 7.576446
_cell_length_c 23.423355
_cell_angle_alpha 90.000000
_cell_angle_beta 147.748950
_cell_angle_gamma 90.000000
_cell_volume 1643.620485
_symmetry_space_group_name_H-M "C 2/C"
_symmetry_group_IT_number 15
_symmetry_cell_setting 'monoclinic'
loop_
_space_group_symop_operation_xyz
x,y,z
-x,y,1/2-z
-x,-y,-z
x,-y,1/2+z
1/2+x,1/2+y,z
1/2-x,1/2+y,1/2-z
1/2-x,1/2-y,-z
1/2+x,1/2-y,1/2+z
loop_
_atom_site_type_symbol
_atom_site_label
_atom_site_fract_x
_atom_site_fract_y
_atom_site_fract_z
Si Si1 0.264222 0.249227 0.665592
Si Si2 0.187135 0.544974 0.531449
Si Si3 0.330198 0.100372 0.160166
Si Si4 0.094069 0.732850 0.173972
Si Si5 0.961903 0.054740 0.159167
O O1 0.203273 0.428418 0.598715
O O2 0.243422 0.590855 0.884627
O O3 0.434781 0.278811 0.785248
O O4 0.180880 0.220204 0.671866
O O5 0.257398 0.740787 0.580262
O O6 0.024242 0.583750 0.413651
O O7 0.289685 0.442475 0.551192
O O8 0.500000 0.088252 0.250000
O O9 0.313769 0.160050 0.215843
O O10 0.017339 0.904983 0.151736
O O11 0.000000 0.007044 0.250000
#
# Coordination Sequence:
#
# PCOD9268169 Si02
#       5
#     8   8   8   8   8
#     4  11  24  42  62  95 130 160 209 268 316 365
#     4  11  23  44  65  91 131 165 218 254 309 382
#     4  12  23  42  66  90 126 173 210 255 321 374
#     4  12  22  41  69  93 124 172 208 262 319 367
#     4  10  19  43  65  84 128 168 204 256 310 371
#
# _framework density 24.336518000000002
#
# number of rings (size 3 to 8) (size 9 to 14) (size 15 to 20)
#    0.000    0.800    6.000    4.200    0.000    0.800 
#    3.600    2.000    0.000    0.000    0.000    0.000 
#    0.000    0.000    0.000    0.000    0.000    0.000 
#
# Total GULP energy -111871.349466 kJ/mol
# GULP energy per Si atom -5593.567473 kJ/mol
# Density = 2.428113 g / cm^3
# Si number density = 24.336518 Si / 1000 Ang^3
#
#
#
# Elastic Constant Matrix: (Units=GPa)
#
#
# Indices 1 2 3 4 5 6 
#
# 1 178.8307 42.9109 15.1697 0.0000 -13.6493 0.0000
# 2 42.9109 113.4085 19.9862 0.0000 -4.5542 0.0000
# 3 15.1697 19.9862 36.8082 0.0001 -0.8678 0.0000
# 4 0.0000 0.0000 0.0001 14.8487 0.0000 -19.4614
# 5 -13.6493 -4.5542 -0.8678 0.0000 20.0378 0.0000
# 6 0.0000 0.0000 0.0000 -19.4614 0.0000 12.9296
#
#
#
# Elastic Compliance Matrix: (Units=1/GPa)
#
#
# Indices 1 2 3 4 5 6 
#
# 1 0.006506 -0.002044 -0.001479 0.000000 0.003903 0.000000
# 2 -0.002044 0.010473 -0.004826 0.000000 0.000779 0.000000
# 3 -0.001479 -0.004826 0.030379 0.000000 -0.000789 0.000000
# 4 0.000000 0.000000 0.000000 -0.069231 0.000000 -0.104206
# 5 0.003903 0.000779 -0.000789 0.000000 0.052707 0.000000
# 6 0.000000 0.000000 0.000000 -0.104206 0.000000 -0.079507
#
#
# Mechanical properties :
#
#
# Convention : Reuss Voigt Hill
#
# Bulk Modulus (GPa) = 32.61634 53.90899 43.26266
# Shear Modulus (GPa) = -229.82479 26.29527 -101.76476
#
# Velocity S-wave (km/s) = -9.72837 3.29064 -6.47352
# Velocity P-wave (km/s) = 10.61871 6.05288 6.16926
#
# Compressibility (1/GPa) = 0.03065948
#
# Stress axis : x y z
#
# Youngs Moduli (GPa) = 153.70990 95.48476 32.91728
#
# Poissons Ratio (x) = 0.19519 0.04869
# Poissons Ratio (y) = 0.31421 0.15885
# Poissons Ratio (z) = 0.22737 0.46079
#
# Static dielectric constant tensor:
#      x y z
#    x 1.890630 0.000000 0.006180 
#    y 0.000000 1.989490 0.000000 
#    z 0.006180 0.000000 2.023380 
# 
# From -- ./inp_files/276430.got.cif
#   From: 2010.05.17/outbox.cif.g08.bks.cpg/sg15_139_cif.got.tgz:276430.got - 2010.06.03 18:47:42.
