data_PCOD9268424
_publ_section_title
;
Structure prediction by ZEFSAII (Michael W. Deem and Ramdas Pophale) SiO2 
 PCOD9268424
Probable space group: C 2/C
;
_chemical_formula_sum "Si O2"
_cell_formula_units_Z 60
_cell_length_a 20.818184
_cell_length_b 9.372356
_cell_length_c 19.255442
_cell_angle_alpha 90.000000
_cell_angle_beta 136.232339
_cell_angle_gamma 90.000000
_cell_volume 2598.874409
_symmetry_space_group_name_H-M "C 2/C"
_symmetry_group_IT_number 15
_symmetry_cell_setting 'monoclinic'
loop_
_space_group_symop_operation_xyz
x,y,z
-x,y,1/2-z
-x,-y,-z
x,-y,1/2+z
1/2+x,1/2+y,z
1/2-x,1/2+y,1/2-z
1/2-x,1/2-y,-z
1/2+x,1/2-y,1/2+z
loop_
_atom_site_type_symbol
_atom_site_label
_atom_site_fract_x
_atom_site_fract_y
_atom_site_fract_z
Si Si1 0.321243 0.337544 0.654783
Si Si2 0.839431 0.551097 0.742903
Si Si3 0.160208 0.006547 0.191968
Si Si4 0.500000 0.482297 0.250000
Si Si5 0.604988 0.230413 0.589246
Si Si6 0.900038 0.221666 0.567000
Si Si7 0.818388 0.237416 0.703383
Si Si8 0.746599 0.064488 0.512986
O O1 0.334496 0.170838 0.679438
O O2 0.292176 0.403747 0.707275
O O3 0.418470 0.412032 0.710702
O O4 0.252298 0.402265 0.542888
O O5 0.736299 0.534119 0.694543
O O6 0.902275 0.611723 0.856197
O O7 0.862618 0.393102 0.734795
O O8 0.126467 0.862840 0.200553
O O9 0.083209 0.115093 0.104468
O O10 0.531144 0.373009 0.334351
O O11 0.565794 0.226179 0.481386
O O12 0.715758 0.238422 0.658382
O O13 0.809524 0.110550 0.496405
O O14 0.854210 0.364014 0.565006
O O15 0.800461 0.150803 0.618106
#
# Coordination Sequence:
#
# PCOD9268424 Si02
#       8
#     8   8   8   4   8   8   8   8
#     4   9  17  30  48  74  99 126 160 198 248 296
#     4   9  15  25  46  74 101 123 152 201 254 295
#     4   8  14  25  43  69  95 119 154 199 242 281
#     4  10  20  32  48  68  98 136 168 204 246 302
#     4   8  14  24  41  67  94 117 150 199 247 286
#     4   9  16  28  47  69  93 125 168 210 245 283
#     4   8  13  23  43  70  95 118 148 195 248 288
#     4   8  15  28  48  70  93 123 166 212 237 278
#
# _framework density 23.086918000000001
#
# number of rings (size 3 to 8) (size 9 to 14) (size 15 to 20)
#    0.000    3.467    0.000    1.600    0.000    0.000 
#    0.000    2.667    0.000   49.600    0.000   15.867 
#    0.000    0.000    0.000    0.000    0.000    0.000 
#
# Total GULP energy -167002.605623 kJ/mol
# GULP energy per Si atom -5566.753521 kJ/mol
# Density = 2.303437 g / cm^3
# Si number density = 23.086918 Si / 1000 Ang^3
#
#
#
# Elastic Constant Matrix: (Units=GPa)
#
#
# Indices 1 2 3 4 5 6 
#
# 1 52.9333 17.6088 19.9784 0.0000 -11.8267 0.0000
# 2 17.6088 147.2388 15.4664 0.0000 -14.9471 0.0000
# 3 19.9784 15.4664 45.2824 0.0000 -18.1524 0.0000
# 4 0.0000 0.0000 0.0000 14.9531 0.0000 -17.6609
# 5 -11.8267 -14.9471 -18.1524 0.0000 33.7933 0.0000
# 6 0.0000 0.0000 0.0000 -17.6609 0.0000 27.0682
#
#
#
# Elastic Compliance Matrix: (Units=1/GPa)
#
#
# Indices 1 2 3 4 5 6 
#
# 1 0.023301 -0.001596 -0.008601 0.000000 0.002829 0.000000
# 2 -0.001596 0.007300 -0.000916 0.000000 0.002178 0.000000
# 3 -0.008601 -0.000916 0.031634 0.000000 0.013577 0.000000
# 4 0.000000 0.000000 0.000000 0.291539 0.000000 0.190218
# 5 0.002829 0.002178 0.013577 0.000000 0.038838 0.000000
# 6 0.000000 0.000000 0.000000 0.190218 0.000000 0.161054
#
#
# Mechanical properties :
#
#
# Convention : Reuss Voigt Hill
#
# Bulk Modulus (GPa) = 24.99480 39.06241 32.02860
# Shear Modulus (GPa) = 8.48567 27.98965 18.23766
#
# Velocity S-wave (km/s) = 1.91925 3.48567 2.81367
# Velocity P-wave (km/s) = 3.97004 5.75815 4.94558
#
# Compressibility (1/GPa) = 0.04000832
#
# Stress axis : x y z
#
# Youngs Moduli (GPa) = 42.91672 136.98823 31.61152
#
# Poissons Ratio (x) = 0.21863 0.27190
# Poissons Ratio (y) = 0.06849 0.02896
# Poissons Ratio (z) = 0.36914 0.12548
#
# Static dielectric constant tensor:
#      x y z
#    x 1.940360 0.000000 -0.036410 
#    y 0.000000 1.950290 0.000000 
#    z -0.036410 0.000000 1.989340 
# 
# From -- ./inp_files/224267.got.cif
#   From: 2010.05.17/outbox.cif.g08.bks.cpg/sg15_113_cif.got.tgz:224267.got - 2010.06.03 18:47:42.
