data_PCOD9268714
_publ_section_title
;
Structure prediction by ZEFSAII (Michael W. Deem and Ramdas Pophale) SiO2 
 PCOD9268714
Probable space group: C 2/C
;
_chemical_formula_sum "Si O2"
_cell_formula_units_Z 56
_cell_length_a 7.381830
_cell_length_b 12.714084
_cell_length_c 25.526612
_cell_angle_alpha 90.000000
_cell_angle_beta 66.496168
_cell_angle_gamma 90.000000
_cell_volume 2196.986804
_symmetry_space_group_name_H-M "C 2/C"
_symmetry_group_IT_number 15
_symmetry_cell_setting 'monoclinic'
loop_
_space_group_symop_operation_xyz
x,y,z
-x,y,1/2-z
-x,-y,-z
x,-y,1/2+z
1/2+x,1/2+y,z
1/2-x,1/2+y,1/2-z
1/2-x,1/2-y,-z
1/2+x,1/2-y,1/2+z
loop_
_atom_site_type_symbol
_atom_site_label
_atom_site_fract_x
_atom_site_fract_y
_atom_site_fract_z
Si Si1 0.016799 0.262109 0.810226
Si Si2 0.436666 0.266650 0.637338
Si Si3 0.093945 0.531714 0.353706
Si Si4 0.867211 0.030467 0.098142
Si Si5 0.171551 0.384493 0.262746
Si Si6 0.476658 0.889131 0.456528
Si Si7 0.198463 0.925112 0.010154
O O1 0.114609 0.346965 0.837434
O O2 0.149833 0.159352 0.791205
O O3 0.000000 0.297525 0.750000
O O4 0.792404 0.247091 0.853442
O O5 0.458749 0.391329 0.630495
O O6 0.434653 0.213235 0.694437
O O7 0.564133 0.202561 0.580321
O O8 0.234036 0.464958 0.300143
O O9 0.098179 0.479677 0.409993
O O10 0.862196 0.507748 0.364798
O O11 0.005833 0.932465 0.068487
O O12 0.854160 0.094722 0.044070
O O13 0.000000 0.437413 0.250000
O O14 0.288175 0.954685 0.497114
O O15 0.623008 0.858014 0.486512
#
# Coordination Sequence:
#
# PCOD9268714 Si02
#       7
#     8   8   8   8   8   8   8
#     4   9  18  34  51  69  95 129 166 199 243 298
#     4   9  19  34  50  70  98 130 162 200 243 292
#     4   9  18  34  52  69  98 133 161 199 246 292
#     4   9  18  33  52  72  97 131 165 196 241 293
#     4  10  20  33  50  74  98 124 164 207 244 286
#     4   9  18  32  49  73 102 127 159 203 245 283
#     4   9  18  32  50  73  98 128 163 198 241 291
#
# _framework density 25.489457000000002
#
# number of rings (size 3 to 8) (size 9 to 14) (size 15 to 20)
#    0.000    2.857    0.000    0.429    0.000    3.429 
#    0.000    3.571    0.000    0.000    0.000    0.000 
#    0.000    0.000    0.000    0.000    0.000    0.000 
#
# Total GULP energy -156260.921328 kJ/mol
# GULP energy per Si atom -5580.747190 kJ/mol
# Density = 2.543144 g / cm^3
# Si number density = 25.489457 Si / 1000 Ang^3
#
#
#
# Elastic Constant Matrix: (Units=GPa)
#
#
# Indices 1 2 3 4 5 6 
#
# 1 38.9087 -3.1731 4.1084 0.0000 -2.3696 0.0000
# 2 -3.1731 34.4720 3.0378 0.0000 -11.8450 0.0000
# 3 4.1084 3.0378 65.8402 0.0000 -10.7229 0.0000
# 4 0.0000 0.0000 0.0000 30.4177 0.0000 1.7084
# 5 -2.3696 -11.8450 -10.7229 0.0000 36.3957 0.0000
# 6 0.0000 0.0000 0.0000 1.7084 0.0000 14.4044
#
#
#
# Elastic Compliance Matrix: (Units=1/GPa)
#
#
# Indices 1 2 3 4 5 6 
#
# 1 0.026269 0.003363 -0.001405 0.000000 0.002391 0.000000
# 2 0.003363 0.033096 0.000056 0.000000 0.011006 0.000000
# 3 -0.001405 0.000056 0.016031 0.000000 0.004650 0.000000
# 4 0.000000 0.000000 0.000000 0.033096 0.000000 -0.003925
# 5 0.002391 0.011006 0.004650 0.000000 0.032583 0.000000
# 6 0.000000 0.000000 0.000000 -0.003925 0.000000 0.069889
#
#
# Mechanical properties :
#
#
# Convention : Reuss Voigt Hill
#
# Bulk Modulus (GPa) = 12.59064 16.35188 14.47126
# Shear Modulus (GPa) = 21.42149 25.26007 23.34078
#
# Velocity S-wave (km/s) = 2.90212 3.15143 3.02934
# Velocity P-wave (km/s) = 4.02244 4.43521 4.23386
#
# Compressibility (1/GPa) = 0.07942408
#
# Stress axis : x y z
#
# Youngs Moduli (GPa) = 38.06698 30.21544 62.38052
#
# Poissons Ratio (x) = -0.10163 0.08764
# Poissons Ratio (y) = -0.12804 -0.00347
# Poissons Ratio (z) = 0.05348 -0.00168
#
# Static dielectric constant tensor:
#      x y z
#    x 2.031960 0.000000 0.027810 
#    y 0.000000 2.015750 0.000000 
#    z 0.027810 0.000000 1.987200 
# 
# From -- ./inp_files/288659.got.cif
#   From: 2010.05.17/outbox.cif.g08.bks.cpg/sg15_145_cif.got.tgz:288659.got - 2010.06.03 18:47:42.
