data_PCOD9268839
_publ_section_title
;
Structure prediction by ZEFSAII (Michael W. Deem and Ramdas Pophale) SiO2 
 PCOD9268839
Probable space group: C 2/C
;
_chemical_formula_sum "Si O2"
_cell_formula_units_Z 60
_cell_length_a 10.774253
_cell_length_b 8.794321
_cell_length_c 26.173911
_cell_angle_alpha 90.000000
_cell_angle_beta 101.244462
_cell_angle_gamma 90.000000
_cell_volume 2432.430226
_symmetry_space_group_name_H-M "C 2/C"
_symmetry_group_IT_number 15
_symmetry_cell_setting 'monoclinic'
loop_
_space_group_symop_operation_xyz
x,y,z
-x,y,1/2-z
-x,-y,-z
x,-y,1/2+z
1/2+x,1/2+y,z
1/2-x,1/2+y,1/2-z
1/2-x,1/2-y,-z
1/2+x,1/2-y,1/2+z
loop_
_atom_site_type_symbol
_atom_site_label
_atom_site_fract_x
_atom_site_fract_y
_atom_site_fract_z
Si Si1 0.199641 0.385876 0.845223
Si Si2 0.389264 0.785281 0.559354
Si Si3 0.285286 0.501902 0.993341
Si Si4 0.529195 0.118984 0.658422
Si Si5 0.632200 0.654201 0.399491
Si Si6 0.816481 0.937821 0.180707
Si Si7 0.353851 0.642272 0.890450
Si Si8 0.500000 0.652650 0.250000
O O1 0.208398 0.301336 0.901104
O O2 0.171814 0.242643 0.807050
O O3 0.319323 0.500186 0.850306
O O4 0.077036 0.492910 0.839716
O O5 0.357488 0.649197 0.518389
O O6 0.358566 0.944176 0.528098
O O7 0.522882 0.746420 0.595569
O O8 0.309279 0.617426 0.041283
O O9 0.340351 0.568985 0.945847
O O10 0.485184 0.230465 0.608760
O O11 0.665911 0.046597 0.662911
O O12 0.530054 0.235817 0.705697
O O13 0.615688 0.499307 0.366016
O O14 0.735389 0.745917 0.375124
O O15 0.882103 0.043160 0.227891
#
# Coordination Sequence:
#
# PCOD9268839 Si02
#       8
#     8   8   8   8   8   8   8   4
#     4  10  22  39  61  90 117 155 207 242 293 366
#     4  10  20  35  53  84 124 160 210 256 286 339
#     4  10  20  33  53  84 125 162 211 256 284 345
#     4  10  24  43  65  91 122 153 191 250 306 364
#     4  10  21  39  57  89 124 155 213 251 285 364
#     4  11  23  42  68  89 118 160 188 243 314 360
#     4  10  21  34  56  84 120 169 204 250 302 332
#     4  10  26  44  60  96 120 136 196 244 294 390
#
# _framework density 24.666689999999999
#
# number of rings (size 3 to 8) (size 9 to 14) (size 15 to 20)
#    0.000    1.867    1.333    1.600    1.867    4.267 
#    0.000    0.000    0.000    0.000    0.000    0.000 
#    0.000    0.000    0.000    0.000    0.000    0.000 
#
# Total GULP energy -167492.115902 kJ/mol
# GULP energy per Si atom -5583.070530 kJ/mol
# Density = 2.461055 g / cm^3
# Si number density = 24.666690 Si / 1000 Ang^3
#
#
#
# Elastic Constant Matrix: (Units=GPa)
#
#
# Indices 1 2 3 4 5 6 
#
# 1 111.9538 35.4987 13.9555 0.0000 37.4756 0.0000
# 2 35.4987 106.9704 58.4253 0.0000 19.2456 0.0000
# 3 13.9555 58.4253 65.3754 0.0000 11.2545 0.0000
# 4 0.0000 0.0000 0.0000 51.3252 0.0000 13.4099
# 5 37.4756 19.2456 11.2545 0.0000 28.3339 0.0000
# 6 0.0000 0.0000 0.0000 13.4099 0.0000 47.3773
#
#
#
# Elastic Compliance Matrix: (Units=1/GPa)
#
#
# Indices 1 2 3 4 5 6 
#
# 1 0.016638 -0.003491 0.003165 0.000000 -0.020892 0.000000
# 2 -0.003491 0.020128 -0.016836 0.000000 -0.002367 0.000000
# 3 0.003165 -0.016836 0.030504 0.000000 -0.004868 0.000000
# 4 0.000000 0.000000 0.000000 0.021040 0.000000 -0.005955
# 5 -0.020892 -0.002367 -0.004868 0.000000 0.066467 0.000000
# 6 0.000000 0.000000 0.000000 -0.005955 0.000000 0.022793
#
#
# Mechanical properties :
#
#
# Convention : Reuss Voigt Hill
#
# Bulk Modulus (GPa) = 30.35171 55.56207 42.95689
# Shear Modulus (GPa) = 22.43398 37.16861 29.80130
#
# Velocity S-wave (km/s) = 3.01904 3.88601 3.47963
# Velocity P-wave (km/s) = 4.94816 6.53520 5.79625
#
# Compressibility (1/GPa) = 0.03294707
#
# Stress axis : x y z
#
# Youngs Moduli (GPa) = 60.10246 49.68179 32.78225
#
# Poissons Ratio (x) = 0.17346 -0.10376
# Poissons Ratio (y) = 0.20984 0.55191
# Poissons Ratio (z) = -0.19023 0.83642
#
# Static dielectric constant tensor:
#      x y z
#    x 1.991980 0.000000 0.026010 
#    y 0.000000 2.027050 0.000000 
#    z 0.026010 0.000000 1.997530 
# 
# From -- ./inp_files/310297.got.cif
#   From: 2010.05.17/outbox.cif.g08.bks.cpg/sg15_156_cif.got.tgz:310297.got - 2010.06.03 18:47:42.
