data_PCOD9268555
_publ_section_title
;
Structure prediction by ZEFSAII (Michael W. Deem and Ramdas Pophale) SiO2 
 PCOD9268555
Probable space group: C 2/C
;
_chemical_formula_sum "Si O2"
_cell_formula_units_Z 56
_cell_length_a 15.371037
_cell_length_b 27.824675
_cell_length_c 10.002052
_cell_angle_alpha 90.000000
_cell_angle_beta 131.746390
_cell_angle_gamma 90.000000
_cell_volume 3191.677672
_symmetry_space_group_name_H-M "C 2/C"
_symmetry_group_IT_number 15
_symmetry_cell_setting 'monoclinic'
loop_
_space_group_symop_operation_xyz
x,y,z
-x,y,1/2-z
-x,-y,-z
x,-y,1/2+z
1/2+x,1/2+y,z
1/2-x,1/2+y,1/2-z
1/2-x,1/2-y,-z
1/2+x,1/2-y,1/2+z
loop_
_atom_site_type_symbol
_atom_site_label
_atom_site_fract_x
_atom_site_fract_y
_atom_site_fract_z
Si Si1 0.172874 0.811489 0.794077
Si Si2 0.290472 0.712006 0.887407
Si Si3 0.485520 0.725939 0.890128
Si Si4 0.333093 0.892406 0.852525
Si Si5 0.362204 0.090719 0.079788
Si Si6 0.414558 0.008539 0.537927
Si Si7 0.565567 0.831801 0.049835
O O1 0.268027 0.768576 0.883552
O O2 0.077969 0.798254 0.585629
O O3 0.235756 0.860371 0.821316
O O4 0.138062 0.808713 0.914197
O O5 0.361000 0.710001 0.821503
O O6 0.163883 0.686699 0.752940
O O7 0.500000 0.713273 0.750000
O O8 0.508600 0.783520 0.929127
O O9 0.307414 0.899210 0.667852
O O10 0.343174 0.944067 0.930692
O O11 0.458968 0.864989 0.991113
O O12 0.500000 0.085571 0.250000
O O13 0.336933 0.038982 0.987827
O O14 0.361197 0.136005 0.980486
O O15 0.500000 0.017753 0.750000
O O16 0.500000 0.000000 0.500000
#
# Coordination Sequence:
#
# PCOD9268555 Si02
#       7
#     8   8   8   8   8   8   8
#     4  10  23  36  54  77 111 149 180 226 270 314
#     4  10  22  37  51  80 111 145 186 224 264 314
#     4  11  22  37  56  76 108 148 191 227 258 312
#     4  11  20  34  54  80 115 144 181 212 279 325
#     4   9  18  32  49  77 114 142 173 222 262 321
#     4  11  19  32  49  78 113 144 172 219 271 332
#     4  10  20  32  55  80 112 149 178 216 268 321
#
# _framework density 17.545632000000001
#
# number of rings (size 3 to 8) (size 9 to 14) (size 15 to 20)
#    0.000    1.714    5.714    1.714    4.000    1.143 
#    0.000    0.000    0.000    0.000    0.000    1.000 
#    0.000    0.000    0.000    0.000    0.000    0.000 
#
# Total GULP energy -156014.208438 kJ/mol
# GULP energy per Si atom -5571.936016 kJ/mol
# Density = 1.750570 g / cm^3
# Si number density = 17.545632 Si / 1000 Ang^3
#
#
#
# Elastic Constant Matrix: (Units=GPa)
#
#
# Indices 1 2 3 4 5 6 
#
# 1 52.2205 18.5148 13.2976 0.0000 -16.3154 0.0000
# 2 18.5148 111.5778 20.4269 0.0000 0.9590 0.0000
# 3 13.2976 20.4269 60.0558 0.0000 -13.4716 0.0000
# 4 0.0000 0.0000 0.0000 26.6000 0.0000 1.7858
# 5 -16.3154 0.9590 -13.4716 0.0000 24.5591 0.0000
# 6 0.0000 0.0000 0.0000 1.7858 0.0000 21.1104
#
#
#
# Elastic Compliance Matrix: (Units=1/GPa)
#
#
# Indices 1 2 3 4 5 6 
#
# 1 0.026259 -0.004433 -0.000404 0.000000 0.017396 0.000000
# 2 -0.004433 0.010438 -0.003787 0.000000 -0.005430 0.000000
# 3 -0.000404 -0.003787 0.020527 0.000000 0.011139 0.000000
# 4 0.000000 0.000000 0.000000 0.037809 0.000000 -0.003198
# 5 0.017396 -0.005430 0.011139 0.000000 0.058597 0.000000
# 6 0.000000 0.000000 0.000000 -0.003198 0.000000 0.047641
#
#
# Mechanical properties :
#
#
# Convention : Reuss Voigt Hill
#
# Bulk Modulus (GPa) = 25.01449 36.48141 30.74795
# Shear Modulus (GPa) = 21.56618 25.89489 23.73054
#
# Velocity S-wave (km/s) = 3.50972 3.84586 3.68163
# Velocity P-wave (km/s) = 5.54184 6.36854 5.96952
#
# Compressibility (1/GPa) = 0.03997683
#
# Stress axis : x y z
#
# Youngs Moduli (GPa) = 38.08172 95.80537 48.71537
#
# Poissons Ratio (x) = 0.42469 0.01970
# Poissons Ratio (y) = 0.16881 0.18447
# Poissons Ratio (z) = 0.01540 0.36278
#
# Static dielectric constant tensor:
#      x y z
#    x 1.591610 0.000000 -0.023540 
#    y 0.000000 1.629870 0.000000 
#    z -0.023540 0.000000 1.623160 
# 
# From -- ./inp_files/43596.got.cif
#   From: 2010.05.17/outbox.cif.g08.bks.cpg/sg15_22_cif.got.tgz:43596.got - 2010.06.03 18:47:42.
