data_PCOD9268624
_publ_section_title
;
Structure prediction by ZEFSAII (Michael W. Deem and Ramdas Pophale) SiO2 
 PCOD9268624
Probable space group: C 2/C
;
_chemical_formula_sum "Si O2"
_cell_formula_units_Z 48
_cell_length_a 22.264976
_cell_length_b 19.515345
_cell_length_c 13.909799
_cell_angle_alpha 90.000000
_cell_angle_beta 23.503994
_cell_angle_gamma 90.000000
_cell_volume 2410.397231
_symmetry_space_group_name_H-M "C 2/C"
_symmetry_group_IT_number 15
_symmetry_cell_setting 'monoclinic'
loop_
_space_group_symop_operation_xyz
x,y,z
-x,y,1/2-z
-x,-y,-z
x,-y,1/2+z
1/2+x,1/2+y,z
1/2-x,1/2+y,1/2-z
1/2-x,1/2-y,-z
1/2+x,1/2-y,1/2+z
loop_
_atom_site_type_symbol
_atom_site_label
_atom_site_fract_x
_atom_site_fract_y
_atom_site_fract_z
Si Si1 0.333983 0.251401 0.012619
Si Si2 0.300404 0.861225 0.709611
Si Si3 0.146275 0.360884 0.186760
Si Si4 0.017674 0.905851 0.022117
Si Si5 0.581969 0.457343 0.731636
Si Si6 0.370222 0.700732 0.870548
O O1 0.310004 0.215283 0.149418
O O2 0.209871 0.308138 0.173046
O O3 0.500000 0.282444 0.750000
O O4 0.333864 0.186954 0.937787
O O5 0.474261 0.882027 0.455249
O O6 0.191849 0.907452 0.802313
O O7 0.218813 0.853574 0.931391
O O8 0.252758 0.426492 0.024836
O O9 0.954704 0.837142 0.160242
O O10 0.007091 0.908833 0.923139
O O11 0.930771 0.968986 0.198610
O O12 0.500000 0.459142 0.750000
O O13 0.500000 0.730978 0.750000
O O14 0.250000 0.750000 0.000000
#
# Coordination Sequence:
#
# PCOD9268624 Si02
#       6
#     8   8   8   8   8   8
#     4   9  18  32  53  90 126 150 193 253 313 359
#     4  10  20  37  62  87 125 164 201 253 311 371
#     4  10  20  32  59  92 119 154 199 256 306 356
#     4  10  23  43  62  87 123 165 205 246 310 373
#     4  11  22  40  66  89 118 161 207 255 303 367
#     4  10  23  40  63  87 125 172 210 249 310 378
#
# _framework density 19.913729
#
# number of rings (size 3 to 8) (size 9 to 14) (size 15 to 20)
#    0.000    2.000    1.667    2.000    4.667    2.667 
#    0.000    3.333    3.667    0.000    0.000    0.000 
#    0.000    0.000    0.000    0.000    0.000    0.000 
#
# Total GULP energy -133912.362201 kJ/mol
# GULP energy per Si atom -5579.681758 kJ/mol
# Density = 1.986840 g / cm^3
# Si number density = 19.913729 Si / 1000 Ang^3
#
#
#
# Elastic Constant Matrix: (Units=GPa)
#
#
# Indices 1 2 3 4 5 6 
#
# 1 91.8022 11.1448 28.8083 -0.0006 5.1149 0.0004
# 2 11.1448 29.0914 21.3151 0.0002 -17.8238 0.0001
# 3 28.8083 21.3151 101.1320 0.0004 -21.8331 0.0003
# 4 -0.0006 0.0002 0.0004 26.4089 0.0002 -2.9101
# 5 5.1149 -17.8238 -21.8331 0.0002 33.3251 -0.0004
# 6 0.0004 0.0001 0.0003 -2.9101 -0.0004 20.6501
#
#
#
# Elastic Compliance Matrix: (Units=1/GPa)
#
#
# Indices 1 2 3 4 5 6 
#
# 1 0.013632 -0.007602 -0.004205 0.000000 -0.008914 0.000000
# 2 -0.007602 0.058327 -0.003658 -0.000001 0.029966 0.000000
# 3 -0.004205 -0.003658 0.013481 0.000000 0.007521 0.000000
# 4 0.000000 -0.000001 0.000000 0.038463 -0.000001 0.005420
# 5 -0.008914 0.029966 0.007521 -0.000001 0.052330 0.000001
# 6 0.000000 0.000000 0.000000 0.005420 0.000001 0.049190
#
#
# Mechanical properties :
#
#
# Convention : Reuss Voigt Hill
#
# Bulk Modulus (GPa) = 18.34605 38.28468 28.31537
# Shear Modulus (GPa) = 18.21334 26.79398 22.50366
#
# Velocity S-wave (km/s) = 3.02754 3.67209 3.36528
# Velocity P-wave (km/s) = 4.63185 6.10295 5.41757
#
# Compressibility (1/GPa) = 0.05450763
#
# Stress axis : x y z
#
# Youngs Moduli (GPa) = 73.35585 17.14474 74.18041
#
# Poissons Ratio (x) = 0.13034 0.31195
# Poissons Ratio (y) = 0.55768 0.27138
# Poissons Ratio (z) = 0.30848 0.06272
#
# Static dielectric constant tensor:
#      x y z
#    x 1.747280 0.000000 -0.000540 
#    y 0.000000 1.693570 0.000000 
#    z -0.000540 0.000000 1.719160 
# 
# From -- ./inp_files/174487.got.cif
#   From: 2010.05.17/outbox.cif.g08.bks.cpg/sg15_88_cif.got.tgz:174487.got - 2010.06.03 18:47:42.
