data_PCOD9268126
_publ_section_title
;
Structure prediction by ZEFSAII (Michael W. Deem and Ramdas Pophale) SiO2 
 PCOD9268126
Probable space group: C 2/C
;
_chemical_formula_sum "Si O2"
_cell_formula_units_Z 52
_cell_length_a 13.658567
_cell_length_b 29.254960
_cell_length_c 8.637248
_cell_angle_alpha 90.000000
_cell_angle_beta 135.520034
_cell_angle_gamma 90.000000
_cell_volume 2418.172361
_symmetry_space_group_name_H-M "C 2/C"
_symmetry_group_IT_number 15
_symmetry_cell_setting 'monoclinic'
loop_
_space_group_symop_operation_xyz
x,y,z
-x,y,1/2-z
-x,-y,-z
x,-y,1/2+z
1/2+x,1/2+y,z
1/2-x,1/2+y,1/2-z
1/2-x,1/2-y,-z
1/2+x,1/2-y,1/2+z
loop_
_atom_site_type_symbol
_atom_site_label
_atom_site_fract_x
_atom_site_fract_y
_atom_site_fract_z
Si Si1 0.477457 0.705480 0.039736
Si Si2 0.938718 0.887141 0.007444
Si Si3 0.631420 0.930095 0.615321
Si Si4 0.809846 0.490599 0.551846
Si Si5 0.500000 0.141162 0.750000
Si Si6 0.818787 0.283736 0.202868
Si Si7 0.386845 0.537894 0.922163
O O1 0.500000 0.696608 0.250000
O O2 0.549867 0.754407 0.085956
O O3 0.551714 0.665814 0.026633
O O4 0.309491 0.705176 0.827762
O O5 0.000000 0.894580 0.250000
O O6 0.033207 0.914461 0.988561
O O7 0.785103 0.908943 0.819431
O O8 0.630993 0.968378 0.482224
O O9 0.539436 0.889821 0.441940
O O10 0.598300 0.959617 0.730511
O O11 0.691980 0.516820 0.521109
O O12 0.730405 0.458442 0.341788
O O13 0.624264 0.173178 0.828241
O O14 0.750000 0.250000 0.000000
O O15 0.500000 0.500000 0.000000
#
# Coordination Sequence:
#
# PCOD9268126 Si02
#       7
#     8   8   8   8   4   8   8
#     4  10  22  37  67  96 126 162 214 271 327 391
#     4  12  23  36  60  98 134 165 218 271 326 373
#     4  11  24  38  62  91 125 181 211 272 307 384
#     4  10  21  36  56  85 130 167 215 256 325 365
#     4  12  24  40  66  94 132 158 226 262 324 384
#     4  10  19  42  66  96 122 162 208 272 325 386
#     4  11  18  32  55  88 124 164 205 270 316 365
#
# _framework density 21.503843
#
# number of rings (size 3 to 8) (size 9 to 14) (size 15 to 20)
#    0.000    1.231    6.923    2.308    4.308    0.615 
#    0.000    0.769    0.000    1.846    0.000    0.000 
#    0.000    0.000    0.000    0.000    0.000    0.000 
#
# Total GULP energy -145193.987114 kJ/mol
# GULP energy per Si atom -5584.384120 kJ/mol
# Density = 2.145490 g / cm^3
# Si number density = 21.503843 Si / 1000 Ang^3
#
#
#
# Elastic Constant Matrix: (Units=GPa)
#
#
# Indices 1 2 3 4 5 6 
#
# 1 78.4640 30.7463 28.2293 0.0000 8.4266 0.0000
# 2 30.7463 106.9523 29.8467 0.0000 2.5706 0.0000
# 3 28.2293 29.8467 92.3945 0.0000 7.3382 0.0000
# 4 0.0000 0.0000 0.0000 31.5669 0.0000 11.1679
# 5 8.4266 2.5706 7.3382 0.0000 17.9813 0.0000
# 6 0.0000 0.0000 0.0000 11.1679 0.0000 27.0973
#
#
#
# Elastic Compliance Matrix: (Units=1/GPa)
#
#
# Indices 1 2 3 4 5 6 
#
# 1 0.015907 -0.003524 -0.003276 0.000000 -0.005614 0.000000
# 2 -0.003524 0.011057 -0.002585 0.000000 0.001125 0.000000
# 3 -0.003276 -0.002585 0.012927 0.000000 -0.003371 0.000000
# 4 0.000000 0.000000 0.000000 0.037086 0.000000 -0.015285
# 5 -0.005614 0.001125 -0.003371 0.000000 0.059459 0.000000
# 6 0.000000 0.000000 0.000000 -0.015285 0.000000 0.043203
#
#
# Mechanical properties :
#
#
# Convention : Reuss Voigt Hill
#
# Bulk Modulus (GPa) = 47.34338 50.60615 48.97476
# Shear Modulus (GPa) = 24.33697 27.92834 26.13266
#
# Velocity S-wave (km/s) = 3.36780 3.60774 3.48983
# Velocity P-wave (km/s) = 6.09810 6.39836 6.25003
#
# Compressibility (1/GPa) = 0.02112228
#
# Stress axis : x y z
#
# Youngs Moduli (GPa) = 62.86548 90.43881 77.35944
#
# Poissons Ratio (x) = 0.31869 0.25342
# Poissons Ratio (y) = 0.22152 0.19995
# Poissons Ratio (z) = 0.20594 0.23375
#
# Static dielectric constant tensor:
#      x y z
#    x 1.897050 0.000000 0.090260 
#    y 0.000000 1.770050 0.000000 
#    z 0.090260 0.000000 1.861320 
# 
# From -- ./inp_files/43674.got.cif
#   From: 2010.05.17/outbox.cif.g08.bks.cpg/sg15_22_cif.got.tgz:43674.got - 2010.06.03 18:47:42.
