data_PCOD9268897
_publ_section_title
;
Structure prediction by ZEFSAII (Michael W. Deem and Ramdas Pophale) SiO2 
 PCOD9268897
Probable space group: C 2/C
;
_chemical_formula_sum "Si O2"
_cell_formula_units_Z 48
_cell_length_a 21.608467
_cell_length_b 8.137533
_cell_length_c 10.447318
_cell_angle_alpha 90.000000
_cell_angle_beta 109.687659
_cell_angle_gamma 90.000000
_cell_volume 1729.664027
_symmetry_space_group_name_H-M "C 2/C"
_symmetry_group_IT_number 15
_symmetry_cell_setting 'monoclinic'
loop_
_space_group_symop_operation_xyz
x,y,z
-x,y,1/2-z
-x,-y,-z
x,-y,1/2+z
1/2+x,1/2+y,z
1/2-x,1/2+y,1/2-z
1/2-x,1/2-y,-z
1/2+x,1/2-y,1/2+z
loop_
_atom_site_type_symbol
_atom_site_label
_atom_site_fract_x
_atom_site_fract_y
_atom_site_fract_z
Si Si1 0.204356 0.362603 0.378484
Si Si2 0.680160 0.791019 0.811030
Si Si3 0.341525 0.552523 0.270602
Si Si4 0.592188 0.110480 0.006753
Si Si5 0.427350 0.550350 0.073021
Si Si6 0.551170 0.793131 0.889024
O O1 0.250000 0.250000 0.500000
O O2 0.226360 0.551026 0.369253
O O3 0.188874 0.234915 0.253383
O O4 0.138542 0.392262 0.414288
O O5 0.703608 0.604411 0.801852
O O6 0.638650 0.848594 0.658187
O O7 0.623902 0.771836 0.879735
O O8 0.394895 0.561320 0.191464
O O9 0.374616 0.497837 0.425849
O O10 0.547608 0.269125 0.946410
O O11 0.560732 0.932747 0.000340
O O12 0.473099 0.391074 0.100832
O O13 0.500000 0.863119 0.750000
#
# Coordination Sequence:
#
# PCOD9268897 Si02
#       6
#     8   8   8   8   8   8
#     4  10  20  35  54  81 107 140 189 226 276 334
#     4   9  19  37  54  74 111 146 177 230 283 319
#     4   9  18  35  57  77 106 149 180 223 282 329
#     4   9  19  37  53  75 112 148 177 232 284 320
#     4   9  18  35  56  76 109 147 181 222 280 326
#     4  10  20  33  55  83 108 145 191 227 273 335
#
# _framework density 27.751054
#
# number of rings (size 3 to 8) (size 9 to 14) (size 15 to 20)
#    0.000    2.667    0.000    1.000    0.000    2.000 
#    9.000    7.500    0.000    0.000    0.000    0.000 
#    0.000    0.000    0.000    0.000    0.000    0.000 
#
# Total GULP energy -134163.227911 kJ/mol
# GULP energy per Si atom -5590.134496 kJ/mol
# Density = 2.768789 g / cm^3
# Si number density = 27.751054 Si / 1000 Ang^3
#
#
#
# Elastic Constant Matrix: (Units=GPa)
#
#
# Indices 1 2 3 4 5 6 
#
# 1 90.8379 27.2549 -5.1217 0.0000 -23.5742 0.0000
# 2 27.2549 182.6919 30.6330 0.0000 6.6358 0.0000
# 3 -5.1217 30.6330 99.2234 0.0000 1.7537 0.0000
# 4 0.0000 0.0000 0.0000 214.4457 0.0000 571.4426
# 5 -23.5742 6.6358 1.7537 0.0000 25.9048 0.0000
# 6 0.0000 0.0000 0.0000 571.4426 0.0000 2006.4234
#
#
#
# Elastic Compliance Matrix: (Units=1/GPa)
#
#
# Indices 1 2 3 4 5 6 
#
# 1 0.016030 -0.003207 0.001547 0.000000 0.015304 0.000000
# 2 -0.003207 0.006462 -0.002082 0.000000 -0.004433 0.000000
# 3 0.001547 -0.002082 0.010780 0.000000 0.001211 0.000000
# 4 0.000000 0.000000 0.000000 0.019344 0.000000 -0.005509
# 5 0.015304 -0.004433 0.001211 0.000000 0.053584 0.000000
# 6 0.000000 0.000000 0.000000 -0.005509 0.000000 0.002068
#
#
# Mechanical properties :
#
#
# Convention : Reuss Voigt Hill
#
# Bulk Modulus (GPa) = 38.77849 53.14284 45.96066
# Shear Modulus (GPa) = 40.21022 470.68725 255.44873
#
# Velocity S-wave (km/s) = 3.81065 13.03759 9.60468
# Velocity P-wave (km/s) = 5.77628 15.67896 11.81514
#
# Compressibility (1/GPa) = 0.02578749
#
# Stress axis : x y z
#
# Youngs Moduli (GPa) = 62.38426 154.74547 92.76817
#
# Poissons Ratio (x) = 0.49622 -0.14350
# Poissons Ratio (y) = 0.20004 0.19317
# Poissons Ratio (z) = -0.09650 0.32222
#
# Static dielectric constant tensor:
#      x y z
#    x 2.225360 0.000000 -0.047460 
#    y 0.000000 2.305420 0.000000 
#    z -0.047460 0.000000 2.178480 
# 
# From -- ./inp_files/116377.got.cif
#   From: 2010.05.17/outbox.cif.g08.bks.cpg/sg15_59_cif.got.tgz:116377.got - 2010.06.03 18:47:42.
