data_PCOD9268876
_publ_section_title
;
Structure prediction by ZEFSAII (Michael W. Deem and Ramdas Pophale) SiO2 
 PCOD9268876
Probable space group: C 2/C
;
_chemical_formula_sum "Si O2"
_cell_formula_units_Z 52
_cell_length_a 22.476009
_cell_length_b 11.459001
_cell_length_c 11.466958
_cell_angle_alpha 90.000000
_cell_angle_beta 75.506473
_cell_angle_gamma 90.000000
_cell_volume 2859.357474
_symmetry_space_group_name_H-M "C 2/C"
_symmetry_group_IT_number 15
_symmetry_cell_setting 'monoclinic'
loop_
_space_group_symop_operation_xyz
x,y,z
-x,y,1/2-z
-x,-y,-z
x,-y,1/2+z
1/2+x,1/2+y,z
1/2-x,1/2+y,1/2-z
1/2-x,1/2-y,-z
1/2+x,1/2-y,1/2+z
loop_
_atom_site_type_symbol
_atom_site_label
_atom_site_fract_x
_atom_site_fract_y
_atom_site_fract_z
Si Si1 0.832097 0.233833 0.860612
Si Si2 0.000000 0.126879 0.250000
Si Si3 0.308374 0.838849 0.116170
Si Si4 0.098516 0.200280 0.028190
Si Si5 0.308553 0.345621 0.813226
Si Si6 0.895597 0.037649 0.696806
Si Si7 0.168593 0.392174 0.861443
O O1 0.765015 0.173336 0.874644
O O2 0.882033 0.138771 0.797845
O O3 0.834775 0.342392 0.768998
O O4 0.838345 0.278130 0.988691
O O5 0.962011 0.200997 0.362759
O O6 0.951359 0.044259 0.207734
O O7 0.320258 0.766155 0.227015
O O8 0.331733 0.969574 0.123353
O O9 0.153427 0.162196 0.087196
O O10 0.093609 0.103097 0.929767
O O11 0.117974 0.321568 0.959348
O O12 0.335054 0.455726 0.727648
O O13 0.236531 0.355283 0.871053
#
# Coordination Sequence:
#
# PCOD9268876 Si02
#       7
#     8   4   8   8   8   8   8
#     4   9  20  35  53  83 119 152 187 227 283 345
#     4  10  22  38  62  84 110 148 202 246 286 320
#     4  10  20  33  54  84 119 154 181 224 283 356
#     4  10  22  37  57  84 113 149 190 242 286 335
#     4  10  21  32  56  87 116 149 185 225 296 348
#     4  10  20  38  59  86 115 145 190 242 285 335
#     4  10  20  35  55  82 120 152 186 232 284 352
#
# _framework density 18.185904000000001
#
# number of rings (size 3 to 8) (size 9 to 14) (size 15 to 20)
#    0.000    2.154    1.538    0.923    6.462    1.231 
#    0.000    0.000    0.000    4.615    0.000    0.000 
#    0.000    0.000    0.000    0.000    0.000    0.000 
#
# Total GULP energy -145072.408470 kJ/mol
# GULP energy per Si atom -5579.708018 kJ/mol
# Density = 1.814451 g / cm^3
# Si number density = 18.185904 Si / 1000 Ang^3
#
#
#
# Elastic Constant Matrix: (Units=GPa)
#
#
# Indices 1 2 3 4 5 6 
#
# 1 46.0954 19.2431 32.6072 0.0000 -10.0161 0.0000
# 2 19.2431 120.6975 52.5426 0.0000 -12.5531 0.0000
# 3 32.6072 52.5426 106.9914 0.0000 -19.6410 0.0000
# 4 0.0000 0.0000 0.0000 16.2550 0.0000 -7.0087
# 5 -10.0161 -12.5531 -19.6410 0.0000 22.7947 0.0000
# 6 0.0000 0.0000 0.0000 -7.0087 0.0000 13.5773
#
#
#
# Elastic Compliance Matrix: (Units=1/GPa)
#
#
# Indices 1 2 3 4 5 6 
#
# 1 0.028378 -0.000787 -0.007190 0.000000 0.005841 0.000000
# 2 -0.000787 0.010609 -0.004705 0.000000 0.001442 0.000000
# 3 -0.007190 -0.004705 0.015197 0.000000 0.007344 0.000000
# 4 0.000000 0.000000 0.000000 0.079132 0.000000 0.040849
# 5 0.005841 0.001442 0.007344 0.000000 0.053558 0.000000
# 6 0.000000 0.000000 0.000000 0.040849 0.000000 0.094739
#
#
# Mechanical properties :
#
#
# Convention : Reuss Voigt Hill
#
# Bulk Modulus (GPa) = 34.69927 53.61891 44.15909
# Shear Modulus (GPa) = 15.79361 21.81817 18.80589
#
# Velocity S-wave (km/s) = 2.95015 3.46747 3.21922
# Velocity P-wave (km/s) = 5.54313 6.75121 6.17678
#
# Compressibility (1/GPa) = 0.02881905
#
# Stress axis : x y z
#
# Youngs Moduli (GPa) = 35.23880 94.25944 65.80398
#
# Poissons Ratio (x) = 0.07418 0.47312
# Poissons Ratio (y) = 0.02773 0.30963
# Poissons Ratio (z) = 0.25336 0.44353
#
# Static dielectric constant tensor:
#      x y z
#    x 1.612870 0.000000 -0.015470 
#    y 0.000000 1.616440 0.000000 
#    z -0.015470 0.000000 1.633910 
# 
# From -- ./inp_files/110930.got.cif
#   From: 2010.05.17/outbox.cif.g08.bks.cpg/sg15_56_cif.got.tgz:110930.got - 2010.06.03 18:47:42.
