data_PCOD9268658
_publ_section_title
;
Structure prediction by ZEFSAII (Michael W. Deem and Ramdas Pophale) SiO2 
 PCOD9268658
Probable space group: C 2/C
;
_chemical_formula_sum "Si O2"
_cell_formula_units_Z 60
_cell_length_a 8.625653
_cell_length_b 17.745347
_cell_length_c 15.572569
_cell_angle_alpha 90.000000
_cell_angle_beta 70.646440
_cell_angle_gamma 90.000000
_cell_volume 2248.923950
_symmetry_space_group_name_H-M "C 2/C"
_symmetry_group_IT_number 15
_symmetry_cell_setting 'monoclinic'
loop_
_space_group_symop_operation_xyz
x,y,z
-x,y,1/2-z
-x,-y,-z
x,-y,1/2+z
1/2+x,1/2+y,z
1/2-x,1/2+y,1/2-z
1/2-x,1/2-y,-z
1/2+x,1/2-y,1/2+z
loop_
_atom_site_type_symbol
_atom_site_label
_atom_site_fract_x
_atom_site_fract_y
_atom_site_fract_z
Si Si1 0.664051 0.405818 0.883531
Si Si2 0.194532 0.395912 0.942279
Si Si3 0.150712 0.074198 0.897592
Si Si4 0.222980 0.471470 0.315257
Si Si5 0.410451 0.749360 0.147337
Si Si6 0.239632 0.230761 0.854135
Si Si7 0.678578 0.864503 0.468573
Si Si8 0.000000 0.459701 0.750000
O O1 0.584794 0.487451 0.909918
O O2 0.556008 0.339935 0.863410
O O3 0.834795 0.414057 0.798768
O O4 0.720179 0.375720 0.964934
O O5 0.269597 0.450315 0.854239
O O6 0.203910 0.308817 0.909020
O O7 0.265691 0.417964 0.022628
O O8 0.997032 0.404692 0.984245
O O9 0.222497 0.061137 0.786749
O O10 0.110785 0.164024 0.894796
O O11 0.264657 0.410030 0.376837
O O12 0.032958 0.488268 0.326169
O O13 0.578398 0.791289 0.142975
O O14 0.275211 0.758385 0.246706
O O15 0.352651 0.783633 0.068114
#
# Coordination Sequence:
#
# PCOD9268658 Si02
#       8
#     8   8   8   8   8   8   8   4
#     4  11  23  39  61  97 124 169 205 264 326 385
#     4  12  23  39  67 100 125 159 221 272 314 373
#     4  11  22  39  67  92 128 164 218 266 313 369
#     4  11  21  37  61 100 126 155 205 278 323 368
#     4  11  25  41  62  88 135 175 205 257 328 387
#     4  11  24  42  63  93 127 171 215 266 309 379
#     4  12  21  38  63  93 129 158 210 265 326 376
#     4  10  20  32  62  92 126 150 206 266 320 362
#
# _framework density 26.679428999999999
#
# number of rings (size 3 to 8) (size 9 to 14) (size 15 to 20)
#    0.000    0.800    5.333    4.400    0.000    0.000 
#    0.000    0.667    0.000    0.000    3.467    0.000 
#    0.000    0.000    0.000    0.000    0.000    0.000 
#
# Total GULP energy -167314.626502 kJ/mol
# GULP energy per Si atom -5577.154217 kJ/mol
# Density = 2.661871 g / cm^3
# Si number density = 26.679429 Si / 1000 Ang^3
#
#
#
# Elastic Constant Matrix: (Units=GPa)
#
#
# Indices 1 2 3 4 5 6 
#
# 1 42.9245 22.2053 35.7554 0.0000 -10.0068 0.0000
# 2 22.2053 211.9279 43.6240 0.0000 0.3455 0.0000
# 3 35.7554 43.6240 168.9517 0.0000 4.7281 0.0000
# 4 0.0000 0.0000 0.0000 53.3971 0.0000 9.2336
# 5 -10.0068 0.3455 4.7281 0.0000 35.7964 0.0000
# 6 0.0000 0.0000 0.0000 9.2336 0.0000 8.3876
#
#
#
# Elastic Compliance Matrix: (Units=1/GPa)
#
#
# Indices 1 2 3 4 5 6 
#
# 1 0.032097 -0.002032 -0.006544 0.000000 0.009856 0.000000
# 2 -0.002032 0.005113 -0.000876 0.000000 -0.000502 0.000000
# 3 -0.006544 -0.000876 0.007609 0.000000 -0.002826 0.000000
# 4 0.000000 0.000000 0.000000 0.023131 0.000000 -0.025464
# 5 0.009856 -0.000502 -0.002826 0.000000 0.031069 0.000000
# 6 0.000000 0.000000 0.000000 -0.025464 0.000000 0.147255
#
#
# Mechanical properties :
#
#
# Convention : Reuss Voigt Hill
#
# Bulk Modulus (GPa) = 38.58848 69.66374 54.12611
# Shear Modulus (GPa) = 18.26046 40.99751 29.62899
#
# Velocity S-wave (km/s) = 2.61902 3.92429 3.33612
# Velocity P-wave (km/s) = 4.86218 6.83385 5.93053
#
# Compressibility (1/GPa) = 0.02591447
#
# Stress axis : x y z
#
# Youngs Moduli (GPa) = 31.15599 195.59355 131.42359
#
# Poissons Ratio (x) = 0.39746 0.86000
# Poissons Ratio (y) = 0.06331 0.11513
# Poissons Ratio (z) = 0.20388 0.17134
#
# Static dielectric constant tensor:
#      x y z
#    x 2.200220 0.000000 -0.060700 
#    y 0.000000 2.100890 0.000000 
#    z -0.060700 0.000000 2.095840 
# 
# From -- ./inp_files/145634.got.cif
#   From: 2010.05.17/outbox.cif.g08.bks.cpg/sg15_73_cif.got.tgz:145634.got - 2010.06.03 18:47:42.
