data_PCOD9268228
_publ_section_title
;
Structure prediction by ZEFSAII (Michael W. Deem and Ramdas Pophale) SiO2 
 PCOD9268228
Probable space group: C 2/C
;
_chemical_formula_sum "Si O2"
_cell_formula_units_Z 52
_cell_length_a 10.163251
_cell_length_b 28.731429
_cell_length_c 16.894538
_cell_angle_alpha 90.000000
_cell_angle_beta 156.245379
_cell_angle_gamma 90.000000
_cell_volume 1987.228345
_symmetry_space_group_name_H-M "C 2/C"
_symmetry_group_IT_number 15
_symmetry_cell_setting 'monoclinic'
loop_
_space_group_symop_operation_xyz
x,y,z
-x,y,1/2-z
-x,-y,-z
x,-y,1/2+z
1/2+x,1/2+y,z
1/2-x,1/2+y,1/2-z
1/2-x,1/2-y,-z
1/2+x,1/2-y,1/2+z
loop_
_atom_site_type_symbol
_atom_site_label
_atom_site_fract_x
_atom_site_fract_y
_atom_site_fract_z
Si Si1 0.765325 0.411284 0.332268
Si Si2 0.175398 0.184361 0.250647
Si Si3 0.000000 0.571872 0.250000
Si Si4 0.169962 0.910160 0.725713
Si Si5 0.409652 0.316163 0.079925
Si Si6 0.429554 0.747771 0.437344
Si Si7 0.506365 0.510873 0.596693
O O1 0.500000 0.428829 0.250000
O O2 0.609713 0.364315 0.207022
O O3 0.778697 0.452671 0.275576
O O4 0.068685 0.406386 0.558296
O O5 0.976349 0.136476 0.140901
O O6 0.313954 0.212216 0.400882
O O7 0.538547 0.176517 0.406897
O O8 0.978452 0.218815 0.087936
O O9 0.239313 0.597295 0.319540
O O10 0.176802 0.541154 0.415297
O O11 0.023751 0.961665 0.648974
O O12 0.400028 0.292035 0.988689
O O13 0.603821 0.276147 0.234118
O O14 0.500000 0.500000 0.500000
#
# Coordination Sequence:
#
# PCOD9268228 Si02
#       7
#     8   8   4   8   8   8   8
#     4  12  20  35  53  73 105 144 180 210 257 303
#     4  11  18  28  42  67  98 135 176 204 243 295
#     4  10  20  38  54  74 102 132 176 218 268 308
#     4  11  22  34  54  75 103 140 175 215 255 309
#     4  11  18  29  44  69  98 143 177 205 239 294
#     4  10  20  27  41  65 101 139 178 206 234 291
#     4  10  23  37  54  77  99 135 176 221 265 310
#
# _framework density 26.167097999999999
#
# number of rings (size 3 to 8) (size 9 to 14) (size 15 to 20)
#    0.000    1.231    4.615    4.154    6.462    0.000 
#    0.000    0.000    0.000    0.000    0.000    0.000 
#    0.000    1.231    0.000    0.000    0.000    0.000 
#
# Total GULP energy -145012.286008 kJ/mol
# GULP energy per Si atom -5577.395616 kJ/mol
# Density = 2.610754 g / cm^3
# Si number density = 26.167098 Si / 1000 Ang^3
#
#
#
# Elastic Constant Matrix: (Units=GPa)
#
#
# Indices 1 2 3 4 5 6 
#
# 1 79.6434 29.4979 37.4051 0.0001 -21.0597 0.0001
# 2 29.4979 216.7867 64.9420 0.0000 -33.5971 0.0000
# 3 37.4051 64.9420 108.0610 0.0005 -32.8286 0.0004
# 4 0.0001 0.0000 0.0005 56.0609 0.0000 -15.0811
# 5 -21.0597 -33.5971 -32.8286 0.0000 40.9976 0.0001
# 6 0.0001 0.0000 0.0004 -15.0811 0.0001 21.7222
#
#
#
# Elastic Compliance Matrix: (Units=1/GPa)
#
#
# Indices 1 2 3 4 5 6 
#
# 1 0.015718 -0.000246 -0.003834 0.000000 0.004802 0.000000
# 2 -0.000246 0.005833 -0.002651 0.000000 0.002530 0.000000
# 3 -0.003834 -0.002651 0.014425 0.000000 0.007409 0.000000
# 4 0.000000 0.000000 0.000000 0.021934 0.000000 0.015229
# 5 0.004802 0.002530 0.007409 0.000000 0.034865 -0.000001
# 6 0.000000 0.000000 0.000000 0.015229 -0.000001 0.056609
#
#
# Mechanical properties :
#
#
# Convention : Reuss Voigt Hill
#
# Bulk Modulus (GPa) = 44.41866 74.24237 59.33052
# Shear Modulus (GPa) = 29.35128 41.93254 35.64191
#
# Velocity S-wave (km/s) = 3.35279 4.00746 3.69465
# Velocity P-wave (km/s) = 5.65687 7.06024 6.39715
#
# Compressibility (1/GPa) = 0.02251306
#
# Stress axis : x y z
#
# Youngs Moduli (GPa) = 63.62326 171.44600 69.32239
#
# Poissons Ratio (x) = 0.04216 0.26577
# Poissons Ratio (y) = 0.01565 0.18381
# Poissons Ratio (z) = 0.24392 0.45459
#
# Static dielectric constant tensor:
#      x y z
#    x 2.243620 0.000000 0.098990 
#    y 0.000000 2.141210 0.000000 
#    z 0.098990 0.000000 2.109110 
# 
# From -- ./inp_files/43084.got.cif
#   From: 2010.05.17/outbox.cif.g08.bks.cpg/sg15_22_cif.got.tgz:43084.got - 2010.06.03 18:47:42.
