data_PCOD9268400
_publ_section_title
;
Structure prediction by ZEFSAII (Michael W. Deem and Ramdas Pophale) SiO2 
 PCOD9268400
Probable space group: C 2/C
;
_chemical_formula_sum "Si O2"
_cell_formula_units_Z 56
_cell_length_a 18.593520
_cell_length_b 16.823428
_cell_length_c 10.384703
_cell_angle_alpha 90.000000
_cell_angle_beta 48.537655
_cell_angle_gamma 90.000000
_cell_volume 2434.325694
_symmetry_space_group_name_H-M "C 2/C"
_symmetry_group_IT_number 15
_symmetry_cell_setting 'monoclinic'
loop_
_space_group_symop_operation_xyz
x,y,z
-x,y,1/2-z
-x,-y,-z
x,-y,1/2+z
1/2+x,1/2+y,z
1/2-x,1/2+y,1/2-z
1/2-x,1/2-y,-z
1/2+x,1/2-y,1/2+z
loop_
_atom_site_type_symbol
_atom_site_label
_atom_site_fract_x
_atom_site_fract_y
_atom_site_fract_z
Si Si1 0.627062 0.268131 0.714745
Si Si2 0.381336 0.032909 0.996502
Si Si3 0.600750 0.865299 0.597040
Si Si4 0.614301 0.428087 0.605748
Si Si5 0.933939 0.705317 0.995844
Si Si6 0.785320 0.522752 0.370486
Si Si7 0.223291 0.812771 0.288535
O O1 0.637068 0.362927 0.689736
O O2 0.595430 0.236901 0.612021
O O3 0.718952 0.225567 0.661040
O O4 0.536054 0.242220 0.908898
O O5 0.436817 0.110964 0.973992
O O6 0.339720 0.041317 0.900317
O O7 0.433991 0.947892 0.932672
O O8 0.300468 0.018491 0.200633
O O9 0.688990 0.832035 0.409737
O O10 0.659320 0.898969 0.649910
O O11 0.500000 0.823251 0.750000
O O12 0.500000 0.438255 0.750000
O O13 0.675486 0.508657 0.540092
O O14 0.658518 0.384714 0.424342
O O15 0.850328 0.746876 0.177281
#
# Coordination Sequence:
#
# PCOD9268400 Si02
#       7
#     8   8   8   8   8   8   8
#     4  10  20  31  63  92 121 155 201 265 324 355
#     4  10  22  38  61  88 130 160 206 260 318 369
#     4  10  25  39  61  89 126 169 209 248 324 377
#     4  11  18  38  62  95 125 157 212 266 321 363
#     4  10  20  34  57  94 120 155 206 257 314 374
#     4  10  22  40  61  89 127 167 206 259 313 374
#     4  11  20  39  60  87 128 163 205 260 316 371
#
# _framework density 23.004315999999999
#
# number of rings (size 3 to 8) (size 9 to 14) (size 15 to 20)
#    0.857    0.857    4.286    3.429    4.000    0.571 
#    0.000    3.571    0.000    0.000    0.000    0.000 
#    0.000    0.000    0.000    0.000    0.000    0.000 
#
# Total GULP energy -155889.426712 kJ/mol
# GULP energy per Si atom -5567.479525 kJ/mol
# Density = 2.295196 g / cm^3
# Si number density = 23.004316 Si / 1000 Ang^3
#
#
#
# Elastic Constant Matrix: (Units=GPa)
#
#
# Indices 1 2 3 4 5 6 
#
# 1 49.6556 8.8232 37.2469 0.0000 -28.7935 0.0000
# 2 8.8232 45.2119 36.3263 0.0000 -8.2971 0.0000
# 3 37.2469 36.3263 170.2857 0.0000 -42.3988 0.0000
# 4 0.0000 0.0000 0.0000 31.2405 0.0000 -6.2416
# 5 -28.7935 -8.2971 -42.3988 0.0000 41.7931 0.0000
# 6 0.0000 0.0000 0.0000 -6.2416 0.0000 4.3225
#
#
#
# Elastic Compliance Matrix: (Units=1/GPa)
#
#
# Indices 1 2 3 4 5 6 
#
# 1 0.034173 -0.001227 -0.001889 0.000000 0.021384 0.000000
# 2 -0.001227 0.026750 -0.005788 0.000000 -0.001407 0.000000
# 3 -0.001889 -0.005788 0.009246 0.000000 0.006929 0.000000
# 4 0.000000 0.000000 0.000000 0.044989 0.000000 0.064963
# 5 0.021384 -0.001407 0.006929 0.000000 0.045411 0.000000
# 6 0.000000 0.000000 0.000000 0.064963 0.000000 0.325157
#
#
# Mechanical properties :
#
#
# Convention : Reuss Voigt Hill
#
# Bulk Modulus (GPa) = 19.09829 47.77179 33.43504
# Shear Modulus (GPa) = 9.59716 27.65501 18.62609
#
# Velocity S-wave (km/s) = 2.04474 3.47099 2.84857
# Velocity P-wave (km/s) = 3.72756 6.07250 5.03835
#
# Compressibility (1/GPa) = 0.05236071
#
# Stress axis : x y z
#
# Youngs Moduli (GPa) = 29.26253 37.38301 108.15813
#
# Poissons Ratio (x) = 0.04588 0.20427
# Poissons Ratio (y) = 0.03591 0.62606
# Poissons Ratio (z) = 0.05527 0.21639
#
# Static dielectric constant tensor:
#      x y z
#    x 1.894720 0.000000 0.036100 
#    y 0.000000 1.925890 0.000000 
#    z 0.036100 0.000000 2.032630 
# 
# From -- ./inp_files/119799.got.cif
#   From: 2010.05.17/outbox.cif.g08.bks.cpg/sg15_60_cif.got.tgz:119799.got - 2010.06.03 18:47:42.
