data_PCOD9268612
_publ_section_title
;
Structure prediction by ZEFSAII (Michael W. Deem and Ramdas Pophale) SiO2 
 PCOD9268612
Probable space group: C 2/C
;
_chemical_formula_sum "Si O2"
_cell_formula_units_Z 52
_cell_length_a 24.333161
_cell_length_b 21.047324
_cell_length_c 8.928631
_cell_angle_alpha 90.000000
_cell_angle_beta 36.847222
_cell_angle_gamma 90.000000
_cell_volume 2742.219885
_symmetry_space_group_name_H-M "C 2/C"
_symmetry_group_IT_number 15
_symmetry_cell_setting 'monoclinic'
loop_
_space_group_symop_operation_xyz
x,y,z
-x,y,1/2-z
-x,-y,-z
x,-y,1/2+z
1/2+x,1/2+y,z
1/2-x,1/2+y,1/2-z
1/2-x,1/2-y,-z
1/2+x,1/2-y,1/2+z
loop_
_atom_site_type_symbol
_atom_site_label
_atom_site_fract_x
_atom_site_fract_y
_atom_site_fract_z
Si Si1 0.604677 0.526465 0.079955
Si Si2 0.292910 0.246780 0.145141
Si Si3 0.161791 0.916079 0.767070
Si Si4 0.500000 0.805463 0.750000
Si Si5 0.330560 0.161968 0.797091
Si Si6 0.887410 0.813736 0.403920
Si Si7 0.092665 0.850817 0.452753
O O1 0.500000 0.516502 0.250000
O O2 0.612899 0.548731 0.234040
O O3 0.659473 0.464227 0.911699
O O4 0.642534 0.586444 0.903348
O O5 0.233031 0.295497 0.174558
O O6 0.219850 0.201319 0.383664
O O7 0.352744 0.287639 0.125850
O O8 0.348555 0.204823 0.904893
O O9 0.263375 0.895064 0.492690
O O10 0.111783 0.852310 0.940522
O O11 0.572668 0.846223 0.496808
O O12 0.560429 0.753473 0.709391
O O13 0.923285 0.854484 0.188117
O O14 0.000000 0.848290 0.750000
#
# Coordination Sequence:
#
# PCOD9268612 Si02
#       7
#     8   8   8   4   8   8   8
#     4  11  24  35  55  78 110 148 187 222 269 325
#     4   9  17  34  52  78 112 145 183 218 278 323
#     4  11  22  40  55  80 112 147 186 229 269 326
#     4  10  20  32  58  86 104 148 182 214 290 330
#     4   9  18  34  56  80 109 145 181 231 270 330
#     4  10  22  32  57  80 114 146 179 223 276 329
#     4  11  21  33  51  83 115 146 178 225 264 331
#
# _framework density 18.962738000000002
#
# number of rings (size 3 to 8) (size 9 to 14) (size 15 to 20)
#    0.000    1.846    1.538    3.692    5.385    0.000 
#    0.000    0.000    0.000    0.923    0.000    0.000 
#    0.000    0.000    0.000    0.000    0.000    0.000 
#
# Total GULP energy -144943.388824 kJ/mol
# GULP energy per Si atom -5574.745724 kJ/mol
# Density = 1.891958 g / cm^3
# Si number density = 18.962738 Si / 1000 Ang^3
#
#
#
# Elastic Constant Matrix: (Units=GPa)
#
#
# Indices 1 2 3 4 5 6 
#
# 1 41.4070 19.7842 38.1997 0.0000 6.0841 0.0000
# 2 19.7842 63.3993 39.1027 0.0000 0.5350 0.0000
# 3 38.1997 39.1027 141.2665 0.0000 7.1479 0.0000
# 4 0.0000 0.0000 0.0000 24.3507 0.0000 2.2804
# 5 6.0841 0.5350 7.1479 0.0000 19.9134 0.0000
# 6 0.0000 0.0000 0.0000 2.2804 0.0000 18.1778
#
#
#
# Elastic Compliance Matrix: (Units=1/GPa)
#
#
# Indices 1 2 3 4 5 6 
#
# 1 0.035125 -0.006371 -0.007333 0.000000 -0.007928 0.000000
# 2 -0.006371 0.020214 -0.004017 0.000000 0.002845 0.000000
# 3 -0.007333 -0.004017 0.010241 0.000000 -0.001327 0.000000
# 4 0.000000 0.000000 0.000000 0.041555 0.000000 -0.005213
# 5 -0.007928 0.002845 -0.001327 0.000000 0.053040 0.000000
# 6 0.000000 0.000000 0.000000 -0.005213 0.000000 0.055666
#
#
# Mechanical properties :
#
#
# Convention : Reuss Voigt Hill
#
# Bulk Modulus (GPa) = 33.18059 48.91620 41.04839
# Shear Modulus (GPa) = 19.13298 22.42080 20.77689
#
# Velocity S-wave (km/s) = 3.17989 3.44228 3.31368
# Velocity P-wave (km/s) = 5.56938 6.45376 6.02781
#
# Compressibility (1/GPa) = 0.03013811
#
# Stress axis : x y z
#
# Youngs Moduli (GPa) = 28.46984 49.46958 97.64880
#
# Poissons Ratio (x) = 0.31517 0.71610
# Poissons Ratio (y) = 0.18138 0.39221
# Poissons Ratio (z) = 0.20878 0.19870
#
# Static dielectric constant tensor:
#      x y z
#    x 1.690070 0.000000 0.011520 
#    y 0.000000 1.690370 0.000000 
#    z 0.011520 0.000000 1.696330 
# 
# From -- ./inp_files/40779.got.cif
#   From: 2010.05.17/outbox.cif.g08.bks.cpg/sg15_21_cif.got.tgz:40779.got - 2010.06.03 18:47:42.
