data_PCOD9268820
_publ_section_title
;
Structure prediction by ZEFSAII (Michael W. Deem and Ramdas Pophale) SiO2 
 PCOD9268820
Probable space group: C 2/C
;
_chemical_formula_sum "Si O2"
_cell_formula_units_Z 64
_cell_length_a 14.407863
_cell_length_b 7.707844
_cell_length_c 32.728351
_cell_angle_alpha 90.000000
_cell_angle_beta 133.904803
_cell_angle_gamma 90.000000
_cell_volume 2618.703725
_symmetry_space_group_name_H-M "C 2/C"
_symmetry_group_IT_number 15
_symmetry_cell_setting 'monoclinic'
loop_
_space_group_symop_operation_xyz
x,y,z
-x,y,1/2-z
-x,-y,-z
x,-y,1/2+z
1/2+x,1/2+y,z
1/2-x,1/2+y,1/2-z
1/2-x,1/2-y,-z
1/2+x,1/2-y,1/2+z
loop_
_atom_site_type_symbol
_atom_site_label
_atom_site_fract_x
_atom_site_fract_y
_atom_site_fract_z
Si Si1 0.380388 0.078841 0.413316
Si Si2 0.747094 0.939979 0.897817
Si Si3 0.768612 0.017182 0.817066
Si Si4 0.374096 0.559854 0.649780
Si Si5 0.863278 0.232938 0.773345
Si Si6 0.515651 0.006262 0.375606
Si Si7 0.955090 0.122915 0.095295
Si Si8 0.483495 0.280716 0.517018
O O1 0.397799 0.225636 0.452580
O O2 0.230788 0.046883 0.356049
O O3 0.470566 0.107141 0.401977
O O4 0.439912 0.898958 0.448720
O O5 0.716654 0.047835 0.847038
O O6 0.687233 0.749693 0.871058
O O7 0.896397 0.909747 0.953308
O O8 0.666372 0.998211 0.912012
O O9 0.710256 0.832345 0.784930
O O10 0.920388 0.997094 0.871294
O O11 0.768717 0.149208 0.778715
O O12 0.526144 0.592048 0.705716
O O13 0.369336 0.468030 0.603512
O O14 0.941890 0.390827 0.818023
O O15 0.486596 0.803920 0.370387
O O16 0.908530 0.164228 0.035337
#
# Coordination Sequence:
#
# PCOD9268820 Si02
#       8
#     8   8   8   8   8   8   8   8
#     4   9  17  32  53  79 110 151 194 234 278 333
#     4   9  19  35  54  79 111 146 181 233 289 338
#     4  10  20  37  59  80 109 142 182 228 290 351
#     4   9  19  33  53  78 110 148 185 222 276 340
#     4  10  21  37  58  83 108 141 181 233 289 347
#     4  10  20  33  53  80 113 146 187 236 282 328
#     4   9  18  34  54  80 111 147 190 235 276 337
#     4   8  16  32  54  76 108 151 192 234 284 331
#
# _framework density 24.439571999999998
#
# number of rings (size 3 to 8) (size 9 to 14) (size 15 to 20)
#    0.000    2.750    0.000    1.500    0.000    4.000 
#    0.000    2.500    0.000   15.750    0.000    0.000 
#    0.000    0.000    0.000    0.000    0.000    0.000 
#
# Total GULP energy -178523.986166 kJ/mol
# GULP energy per Si atom -5578.874568 kJ/mol
# Density = 2.438395 g / cm^3
# Si number density = 24.439572 Si / 1000 Ang^3
#
#
#
# Elastic Constant Matrix: (Units=GPa)
#
#
# Indices 1 2 3 4 5 6 
#
# 1 130.0430 19.2308 51.1276 0.0000 -11.3580 0.0000
# 2 19.2308 98.3986 26.5077 0.0000 -0.2561 0.0000
# 3 51.1276 26.5077 83.1872 0.0000 0.0749 0.0000
# 4 0.0000 0.0000 0.0000 31.1283 0.0000 1.8918
# 5 -11.3580 -0.2561 0.0749 0.0000 22.6464 0.0000
# 6 0.0000 0.0000 0.0000 1.8918 0.0000 34.2297
#
#
#
# Elastic Compliance Matrix: (Units=1/GPa)
#
#
# Indices 1 2 3 4 5 6 
#
# 1 0.010777 -0.000335 -0.006522 0.000000 0.005423 0.000000
# 2 -0.000335 0.011128 -0.003340 0.000000 -0.000031 0.000000
# 3 -0.006522 -0.003340 0.017097 0.000000 -0.003365 0.000000
# 4 0.000000 0.000000 0.000000 0.032233 0.000000 -0.001781
# 5 0.005423 -0.000031 -0.003365 0.000000 0.046888 0.000000
# 6 0.000000 0.000000 0.000000 -0.001781 0.000000 0.029313
#
#
# Mechanical properties :
#
#
# Convention : Reuss Voigt Hill
#
# Bulk Modulus (GPa) = 53.74034 56.15122 54.94578
# Shear Modulus (GPa) = 28.73036 31.91839 30.32437
#
# Velocity S-wave (km/s) = 3.43237 3.61780 3.52631
# Velocity P-wave (km/s) = 6.14370 6.36213 6.25387
#
# Compressibility (1/GPa) = 0.01860799
#
# Stress axis : x y z
#
# Youngs Moduli (GPa) = 92.78966 89.86410 58.49084
#
# Poissons Ratio (x) = 0.03013 0.38146
# Poissons Ratio (y) = 0.03111 0.19535
# Poissons Ratio (z) = 0.60515 0.30013
#
# Static dielectric constant tensor:
#      x y z
#    x 2.022420 0.000000 -0.036790 
#    y 0.000000 2.008190 0.000000 
#    z -0.036790 0.000000 1.959140 
# 
# From -- ./inp_files/312913.got.cif
#   From: 2010.05.17/outbox.cif.g08.bks.cpg/sg15_157_cif.got.tgz:312913.got - 2010.06.03 18:47:42.
