data_PCOD9268128
_publ_section_title
;
Structure prediction by ZEFSAII (Michael W. Deem and Ramdas Pophale) SiO2 
 PCOD9268128
Probable space group: C 2/C
;
_chemical_formula_sum "Si O2"
_cell_formula_units_Z 28
_cell_length_a 8.988693
_cell_length_b 12.159721
_cell_length_c 13.810169
_cell_angle_alpha 90.000000
_cell_angle_beta 126.333991
_cell_angle_gamma 90.000000
_cell_volume 1215.979265
_symmetry_space_group_name_H-M "C 2/C"
_symmetry_group_IT_number 15
_symmetry_cell_setting 'monoclinic'
loop_
_space_group_symop_operation_xyz
x,y,z
-x,y,1/2-z
-x,-y,-z
x,-y,1/2+z
1/2+x,1/2+y,z
1/2-x,1/2+y,1/2-z
1/2-x,1/2-y,-z
1/2+x,1/2-y,1/2+z
loop_
_atom_site_type_symbol
_atom_site_label
_atom_site_fract_x
_atom_site_fract_y
_atom_site_fract_z
Si Si1 0.000000 0.659514 0.750000
Si Si2 0.231635 0.960462 0.641327
Si Si3 0.495556 0.098312 0.078991
Si Si4 0.045251 0.213975 0.450222
O O1 0.820151 0.582148 0.664057
O O2 0.057648 0.731936 0.681293
O O3 0.338870 0.922265 0.780832
O O4 0.315770 0.904922 0.577587
O O5 0.025508 0.911373 0.572347
O O6 0.504164 0.214092 0.028515
O O7 0.500000 0.000000 0.000000
O O8 0.250000 0.250000 0.500000
#
# Coordination Sequence:
#
# PCOD9268128 Si02
#       4
#     4   8   8   8
#     4  10  22  44  62  94 142 168 230 280 322 412
#     4  10  22  40  69  93 131 176 224 271 336 403
#     4  10  19  42  67  90 132 176 216 279 331 387
#     4  12  23  39  69  98 132 177 223 277 340 400
#
# _framework density 23.026709
#
# number of rings (size 3 to 8) (size 9 to 14) (size 15 to 20)
#    0.000    1.714    5.714    2.571    0.000    1.143 
#    0.000    0.000    0.000    0.000    0.000    0.000 
#    0.000    0.000    0.000    0.000    0.000    0.000 
#
# Total GULP energy -78031.789238 kJ/mol
# GULP energy per Si atom -5573.699231 kJ/mol
# Density = 2.297430 g / cm^3
# Si number density = 23.026709 Si / 1000 Ang^3
#
#
#
# Elastic Constant Matrix: (Units=GPa)
#
#
# Indices 1 2 3 4 5 6 
#
# 1 98.1484 37.9660 51.6958 0.0000 7.5124 0.0000
# 2 37.9660 134.3678 35.0575 0.0000 -3.3664 0.0000
# 3 51.6958 35.0575 75.1426 0.0000 -21.0323 0.0000
# 4 0.0000 0.0000 0.0000 21.3310 0.0000 37.5719
# 5 7.5124 -3.3664 -21.0323 0.0000 54.3833 0.0000
# 6 0.0000 0.0000 0.0000 37.5719 0.0000 -44.6772
#
#
#
# Elastic Compliance Matrix: (Units=1/GPa)
#
#
# Indices 1 2 3 4 5 6 
#
# 1 0.019380 -0.001807 -0.014881 0.000000 -0.008544 0.000000
# 2 -0.001807 0.008704 -0.002912 0.000000 -0.000338 0.000000
# 3 -0.014881 -0.002912 0.028516 0.000000 0.012904 0.000000
# 4 0.000000 0.000000 0.000000 0.018894 0.000000 0.015889
# 5 -0.008544 -0.000338 0.012904 0.000000 0.024538 0.000000
# 6 0.000000 0.000000 0.000000 0.015889 0.000000 -0.009021
#
#
# Mechanical properties :
#
#
# Convention : Reuss Voigt Hill
#
# Bulk Modulus (GPa) = 57.47359 61.89972 59.68665
# Shear Modulus (GPa) = 36.76181 18.40339 27.58260
#
# Velocity S-wave (km/s) = 3.99994 2.83011 3.46476
# Velocity P-wave (km/s) = 6.80782 6.13347 6.47942
#
# Compressibility (1/GPa) = 0.01739930
#
# Stress axis : x y z
#
# Youngs Moduli (GPa) = 51.60059 114.88647 35.06813
#
# Poissons Ratio (x) = 0.20764 0.52184
# Poissons Ratio (y) = 0.09326 0.10212
# Poissons Ratio (z) = 0.76786 0.33456
#
# Static dielectric constant tensor:
#      x y z
#    x 1.700090 0.000000 0.207240 
#    y 0.000000 1.942720 0.000000 
#    z 0.207240 0.000000 1.892540 
# 
# From -- ./inp_files/75162.got.cif
#   From: 2010.05.17/outbox.cif.g08.bks.cpg/sg15_38_cif.got.tgz:75162.got - 2010.06.03 18:47:42.
