data_PCOD9268348
_publ_section_title
;
Structure prediction by ZEFSAII (Michael W. Deem and Ramdas Pophale) SiO2 
 PCOD9268348
Probable space group: C 2/C
;
_chemical_formula_sum "Si O2"
_cell_formula_units_Z 56
_cell_length_a 16.529131
_cell_length_b 19.037226
_cell_length_c 8.915254
_cell_angle_alpha 90.000000
_cell_angle_beta 119.195430
_cell_angle_gamma 90.000000
_cell_volume 2448.963112
_symmetry_space_group_name_H-M "C 2/C"
_symmetry_group_IT_number 15
_symmetry_cell_setting 'monoclinic'
loop_
_space_group_symop_operation_xyz
x,y,z
-x,y,1/2-z
-x,-y,-z
x,-y,1/2+z
1/2+x,1/2+y,z
1/2-x,1/2+y,1/2-z
1/2-x,1/2-y,-z
1/2+x,1/2-y,1/2+z
loop_
_atom_site_type_symbol
_atom_site_label
_atom_site_fract_x
_atom_site_fract_y
_atom_site_fract_z
Si Si1 0.843403 0.163554 0.152216
Si Si2 0.645410 0.160513 0.093390
Si Si3 0.334953 0.376258 0.299906
Si Si4 0.569952 0.018943 0.933281
Si Si5 0.000000 0.905458 0.250000
Si Si6 0.809194 0.610892 0.064684
Si Si7 0.500000 0.765758 0.250000
Si Si8 0.644295 0.460212 0.608777
O O1 0.743060 0.187679 0.119782
O O2 0.924525 0.217218 0.264030
O O3 0.864859 0.090078 0.255119
O O4 0.841865 0.154982 0.971473
O O5 0.645330 0.163204 0.273461
O O6 0.642135 0.077460 0.048400
O O7 0.559114 0.193015 0.928195
O O8 0.423617 0.361864 0.274342
O O9 0.334337 0.460824 0.323506
O O10 0.241626 0.356647 0.125655
O O11 0.500000 0.050711 0.750000
O O12 0.619243 0.949122 0.919414
O O13 0.500000 0.000000 0.000000
O O14 0.054507 0.952162 0.421616
O O15 0.726844 0.571675 0.081568
#
# Coordination Sequence:
#
# PCOD9268348 Si02
#       8
#     8   8   8   8   4   8   4   8
#     4  11  24  42  70  97 128 176 233 274 331 403
#     4  11  24  44  66  95 134 173 219 281 333 395
#     4  11  21  36  62  94 133 165 210 267 340 402
#     4  12  23  38  68 105 137 165 207 267 344 413
#     4  10  20  31  50  88 132 173 200 248 312 394
#     4  10  22  39  61  98 132 167 203 264 349 405
#     4  12  26  45  66  94 126 181 242 282 322 384
#     4  10  20  37  62  95 137 170 210 267 332 400
#
# _framework density 22.866821000000002
#
# number of rings (size 3 to 8) (size 9 to 14) (size 15 to 20)
#    0.000    1.143    2.143    6.000    2.000    1.143 
#    0.000    0.714    0.000   18.857    0.000    0.000 
#    0.000    0.000    0.000    0.000    0.000    0.000 
#
# Total GULP energy -156696.295302 kJ/mol
# GULP energy per Si atom -5596.296261 kJ/mol
# Density = 2.281478 g / cm^3
# Si number density = 22.866821 Si / 1000 Ang^3
#
#
#
# Elastic Constant Matrix: (Units=GPa)
#
#
# Indices 1 2 3 4 5 6 
#
# 1 109.8616 32.8678 47.4365 0.0000 5.2748 0.0000
# 2 32.8678 60.7879 37.3244 0.0000 3.0941 0.0000
# 3 47.4365 37.3244 184.9260 0.0000 14.7522 0.0000
# 4 0.0000 0.0000 0.0000 20.5763 0.0000 8.4083
# 5 5.2748 3.0941 14.7522 0.0000 42.7760 0.0000
# 6 0.0000 0.0000 0.0000 8.4083 0.0000 20.6208
#
#
#
# Elastic Compliance Matrix: (Units=1/GPa)
#
#
# Indices 1 2 3 4 5 6 
#
# 1 0.011434 -0.005001 -0.001892 0.000000 -0.000396 0.000000
# 2 -0.005001 0.020965 -0.002958 0.000000 0.000120 0.000000
# 3 -0.001892 -0.002958 0.006637 0.000000 -0.001842 0.000000
# 4 0.000000 0.000000 0.000000 0.058317 0.000000 -0.023779
# 5 -0.000396 0.000120 -0.001842 0.000000 0.024053 0.000000
# 6 0.000000 0.000000 0.000000 -0.023779 0.000000 0.058191
#
#
# Mechanical properties :
#
#
# Convention : Reuss Voigt Hill
#
# Bulk Modulus (GPa) = 51.72261 65.64811 58.68536
# Shear Modulus (GPa) = 24.30214 32.65773 28.47993
#
# Velocity S-wave (km/s) = 3.26355 3.78321 3.53295
# Velocity P-wave (km/s) = 6.07200 6.91772 6.50861
#
# Compressibility (1/GPa) = 0.01933390
#
# Stress axis : x y z
#
# Youngs Moduli (GPa) = 87.45500 47.69921 150.67137
#
# Poissons Ratio (x) = 0.23852 0.28511
# Poissons Ratio (y) = 0.43732 0.44573
# Poissons Ratio (z) = 0.16549 0.14111
#
# Static dielectric constant tensor:
#      x y z
#    x 1.816380 0.000000 0.014300 
#    y 0.000000 1.861260 0.000000 
#    z 0.014300 0.000000 1.869960 
# 
# From -- ./inp_files/50386.got.cif
#   From: 2010.05.17/outbox.cif.g08.bks.cpg/sg15_26_cif.got.tgz:50386.got - 2010.06.03 18:47:42.
