data_PCOD9268311
_publ_section_title
;
Structure prediction by ZEFSAII (Michael W. Deem and Ramdas Pophale) SiO2 
 PCOD9268311
Probable space group: C 2/C
;
_chemical_formula_sum "Si O2"
_cell_formula_units_Z 56
_cell_length_a 22.233520
_cell_length_b 27.141372
_cell_length_c 18.241680
_cell_angle_alpha 90.000000
_cell_angle_beta 160.303073
_cell_angle_gamma 90.000000
_cell_volume 3710.158297
_symmetry_space_group_name_H-M "C 2/C"
_symmetry_group_IT_number 15
_symmetry_cell_setting 'monoclinic'
loop_
_space_group_symop_operation_xyz
x,y,z
-x,y,1/2-z
-x,-y,-z
x,-y,1/2+z
1/2+x,1/2+y,z
1/2-x,1/2+y,1/2-z
1/2-x,1/2-y,-z
1/2+x,1/2-y,1/2+z
loop_
_atom_site_type_symbol
_atom_site_label
_atom_site_fract_x
_atom_site_fract_y
_atom_site_fract_z
Si Si1 0.104381 0.043266 0.163305
Si Si2 0.884290 0.406056 0.542439
Si Si3 0.514261 0.799678 0.854694
Si Si4 0.508223 0.001210 0.921073
Si Si5 0.528019 0.592489 0.935158
Si Si6 0.111443 0.006240 0.451853
Si Si7 0.118695 0.192859 0.959822
O O1 0.314808 0.030371 0.403403
O O2 0.004286 0.040931 0.126246
O O3 0.067219 0.088921 0.066814
O O4 0.000000 0.000000 0.000000
O O5 0.880811 0.349911 0.509089
O O6 0.678712 0.419064 0.319380
O O7 0.000000 0.407110 0.750000
O O8 0.965065 0.446170 0.580257
O O9 0.500000 0.796958 0.750000
O O10 0.320628 0.807582 0.665310
O O11 0.583739 0.745949 0.956662
O O12 0.316631 0.022224 0.675591
O O13 0.500000 0.000000 0.000000
O O14 0.628940 0.547771 0.010153
O O15 0.575913 0.645576 0.959033
O O16 0.000000 0.001124 0.250000
O O17 0.000000 0.189307 0.750000
#
# Coordination Sequence:
#
# PCOD9268311 Si02
#       7
#     8   8   8   8   8   8   8
#     4  10  20  35  45  68  96 124 163 205 244 291
#     4  11  20  31  47  69  92 125 168 203 236 281
#     4  10  20  31  43  65  90 121 161 204 242 274
#     4  12  20  33  52  66  97 133 164 200 251 289
#     4  11  19  33  47  64  95 125 161 205 241 283
#     4  11  21  33  50  73  93 126 170 206 241 288
#     4  11  19  31  46  63  90 125 162 204 241 275
#
# _framework density 15.093696
#
# number of rings (size 3 to 8) (size 9 to 14) (size 15 to 20)
#    0.000    1.143    5.714    6.429    0.000    0.000 
#    0.000    0.000    0.000    0.000    0.000    0.000 
#    0.000    0.000    0.000   12.857    2.857    2.286 
#
# Total GULP energy -156075.422260 kJ/mol
# GULP energy per Si atom -5574.122224 kJ/mol
# Density = 1.505934 g / cm^3
# Si number density = 15.093696 Si / 1000 Ang^3
#
#
#
# Elastic Constant Matrix: (Units=GPa)
#
#
# Indices 1 2 3 4 5 6 
#
# 1 69.8620 41.4213 23.1372 0.0001 8.1379 0.0000
# 2 41.4213 77.0152 14.8633 0.0000 -2.4739 -0.0001
# 3 23.1372 14.8633 91.9195 0.0006 21.6236 -0.0006
# 4 0.0001 0.0000 0.0006 24.1321 0.0002 -7.3735
# 5 8.1379 -2.4739 21.6236 0.0002 28.8909 -0.0002
# 6 0.0000 -0.0001 -0.0006 -7.3735 -0.0002 35.0296
#
#
#
# Elastic Compliance Matrix: (Units=1/GPa)
#
#
# Indices 1 2 3 4 5 6 
#
# 1 0.022930 -0.012029 -0.002506 0.000000 -0.005613 0.000000
# 2 -0.012029 0.019988 -0.001704 0.000000 0.006375 0.000000
# 3 -0.002506 -0.001704 0.014144 0.000000 -0.010026 0.000000
# 4 0.000000 0.000000 0.000000 0.044287 0.000000 0.009322
# 5 -0.005613 0.006375 -0.010026 0.000000 0.044244 0.000000
# 6 0.000000 0.000000 0.000000 0.009322 0.000000 0.030510
#
#
# Mechanical properties :
#
#
# Convention : Reuss Voigt Hill
#
# Bulk Modulus (GPa) = 40.67786 44.18226 42.43006
# Shear Modulus (GPa) = 23.06545 28.23552 25.65048
#
# Velocity S-wave (km/s) = 3.91340 4.32983 4.12687
# Velocity P-wave (km/s) = 6.88682 7.37103 7.13304
#
# Compressibility (1/GPa) = 0.02458340
#
# Stress axis : x y z
#
# Youngs Moduli (GPa) = 43.61135 50.03085 70.70127
#
# Poissons Ratio (x) = 0.60182 0.17719
# Poissons Ratio (y) = 0.52460 0.12046
# Poissons Ratio (z) = 0.10930 0.08524
#
# Static dielectric constant tensor:
#      x y z
#    x 1.524270 0.000000 0.023710 
#    y 0.000000 1.546950 0.000000 
#    z 0.023710 0.000000 1.522180 
# 
# From -- ./inp_files/216915.got.cif
#   From: 2010.05.17/outbox.cif.g08.bks.cpg/sg15_109_cif.got.tgz:216915.got - 2010.06.03 18:47:42.
