data_PCOD9268744
_publ_section_title
;
Structure prediction by ZEFSAII (Michael W. Deem and Ramdas Pophale) SiO2 
 PCOD9268744
Probable space group: C 2/C
;
_chemical_formula_sum "Si O2"
_cell_formula_units_Z 64
_cell_length_a 11.431977
_cell_length_b 28.403705
_cell_length_c 9.333647
_cell_angle_alpha 90.000000
_cell_angle_beta 86.404103
_cell_angle_gamma 90.000000
_cell_volume 3024.766366
_symmetry_space_group_name_H-M "C 2/C"
_symmetry_group_IT_number 15
_symmetry_cell_setting 'monoclinic'
loop_
_space_group_symop_operation_xyz
x,y,z
-x,y,1/2-z
-x,-y,-z
x,-y,1/2+z
1/2+x,1/2+y,z
1/2-x,1/2+y,1/2-z
1/2-x,1/2-y,-z
1/2+x,1/2-y,1/2+z
loop_
_atom_site_type_symbol
_atom_site_label
_atom_site_fract_x
_atom_site_fract_y
_atom_site_fract_z
Si Si1 0.711050 0.185752 0.450329
Si Si2 0.176331 0.027543 0.710954
Si Si3 0.414525 0.983225 0.624957
Si Si4 0.136044 0.605675 0.266092
Si Si5 0.452717 0.256103 0.907886
Si Si6 0.571333 0.655674 0.522455
Si Si7 0.848209 0.062537 0.099131
Si Si8 0.327760 0.631849 0.693294
O O1 0.698737 0.151603 0.316948
O O2 0.590265 0.214483 0.484016
O O3 0.827250 0.216484 0.408840
O O4 0.734617 0.156864 0.596489
O O5 0.126353 0.039800 0.558167
O O6 0.169566 0.075093 0.803008
O O7 0.312847 0.018489 0.670937
O O8 0.131000 0.979700 0.789349
O O9 0.500000 0.975908 0.750000
O O10 0.358827 0.932251 0.604041
O O11 0.500000 0.000000 0.500000
O O12 0.212588 0.579369 0.137550
O O13 0.000000 0.616810 0.250000
O O14 0.500000 0.239824 0.750000
O O15 0.550406 0.292834 0.958466
O O16 0.586190 0.612830 0.408010
O O17 0.450150 0.646223 0.613117
O O18 0.669251 0.649561 0.640619
#
# Coordination Sequence:
#
# PCOD9268744 Si02
#       8
#     8   8   8   8   8   8   8   8
#     4  10  22  40  64  92 120 155 208 263 315 375
#     4  10  20  34  55  87 126 160 207 257 291 371
#     4  10  20  33  51  77 112 162 199 233 294 355
#     4  10  21  38  57  83 123 156 203 247 305 367
#     4  10  21  43  64  91 120 154 207 263 317 384
#     4   9  19  41  63  83 123 165 199 253 319 372
#     4  10  21  36  60  89 123 168 212 245 309 374
#     4   9  20  37  61  89 122 159 202 258 309 363
#
# _framework density 21.158660999999999
#
# number of rings (size 3 to 8) (size 9 to 14) (size 15 to 20)
#    0.000    2.250    0.000    3.000    5.250    0.500 
#   13.500    0.625    0.000    0.000    0.000    0.000 
#    0.000    0.000    0.000    0.000    0.000    0.000 
#
# Total GULP energy -178216.014592 kJ/mol
# GULP energy per Si atom -5569.250456 kJ/mol
# Density = 2.111050 g / cm^3
# Si number density = 21.158661 Si / 1000 Ang^3
#
#
#
# Elastic Constant Matrix: (Units=GPa)
#
#
# Indices 1 2 3 4 5 6 
#
# 1 27.3386 2.5223 2.4919 0.0000 2.2389 0.0000
# 2 2.5223 62.0605 25.4327 0.0000 0.3181 0.0000
# 3 2.4919 25.4327 51.7245 0.0000 -11.8889 0.0000
# 4 0.0000 0.0000 0.0000 32.8986 0.0000 -6.4272
# 5 2.2389 0.3181 -11.8889 0.0000 23.1590 0.0000
# 6 0.0000 0.0000 0.0000 -6.4272 0.0000 51.9280
#
#
#
# Elastic Compliance Matrix: (Units=1/GPa)
#
#
# Indices 1 2 3 4 5 6 
#
# 1 0.037275 -0.000351 -0.002778 0.000000 -0.005025 0.000000
# 2 -0.000351 0.020970 -0.011737 0.000000 -0.006280 0.000000
# 3 -0.002778 -0.011737 0.028727 0.000000 0.015177 0.000000
# 4 0.000000 0.000000 0.000000 0.031150 0.000000 0.003855
# 5 -0.005025 -0.006280 0.015177 0.000000 0.051543 0.000000
# 6 0.000000 0.000000 0.000000 0.003855 0.000000 0.019735
#
#
# Mechanical properties :
#
#
# Convention : Reuss Voigt Hill
#
# Bulk Modulus (GPa) = 17.47049 22.44637 19.95843
# Shear Modulus (GPa) = 20.98977 28.97558 24.98267
#
# Velocity S-wave (km/s) = 3.15305 3.70461 3.43990
# Velocity P-wave (km/s) = 4.64009 5.37871 5.02299
#
# Compressibility (1/GPa) = 0.05723939
#
# Stress axis : x y z
#
# Youngs Moduli (GPa) = 26.82729 47.68780 34.81095
#
# Poissons Ratio (x) = 0.01672 0.09672
# Poissons Ratio (y) = 0.00941 0.40858
# Poissons Ratio (z) = 0.07454 0.55972
#
# Static dielectric constant tensor:
#      x y z
#    x 1.767310 0.000000 0.029320 
#    y 0.000000 1.860100 0.000000 
#    z 0.029320 0.000000 1.785790 
# 
# From -- ./inp_files/35672.got.cif
#   From: 2010.05.17/outbox.cif.g08.bks.cpg/sg15_18_cif.got.tgz:35672.got - 2010.06.03 18:47:42.
