data_PCOD9268137
_publ_section_title
;
Structure prediction by ZEFSAII (Michael W. Deem and Ramdas Pophale) SiO2 
 PCOD9268137
Probable space group: C 2/C
;
_chemical_formula_sum "Si O2"
_cell_formula_units_Z 52
_cell_length_a 9.077830
_cell_length_b 27.303214
_cell_length_c 11.448897
_cell_angle_alpha 90.000000
_cell_angle_beta 118.595452
_cell_angle_gamma 90.000000
_cell_volume 2491.519871
_symmetry_space_group_name_H-M "C 2/C"
_symmetry_group_IT_number 15
_symmetry_cell_setting 'monoclinic'
loop_
_space_group_symop_operation_xyz
x,y,z
-x,y,1/2-z
-x,-y,-z
x,-y,1/2+z
1/2+x,1/2+y,z
1/2-x,1/2+y,1/2-z
1/2-x,1/2-y,-z
1/2+x,1/2-y,1/2+z
loop_
_atom_site_type_symbol
_atom_site_label
_atom_site_fract_x
_atom_site_fract_y
_atom_site_fract_z
Si Si1 0.402015 0.501563 0.837544
Si Si2 0.858195 0.299309 0.295880
Si Si3 0.682635 0.098164 0.774433
Si Si4 0.296032 0.607328 0.289231
Si Si5 0.828735 0.852984 0.560221
Si Si6 0.000000 0.335411 0.750000
Si Si7 0.106528 0.269197 0.574963
O O1 0.500000 0.498707 0.750000
O O2 0.291945 0.550829 0.787204
O O3 0.306959 0.450105 0.809917
O O4 0.500000 0.500000 0.000000
O O5 0.832234 0.356303 0.322711
O O6 0.693459 0.275721 0.175439
O O7 0.000000 0.301821 0.250000
O O8 0.946955 0.265594 0.427855
O O9 0.500000 0.082303 0.750000
O O10 0.764789 0.125817 0.915492
O O11 0.472097 0.637054 0.365598
O O12 0.251677 0.615297 0.136482
O O13 0.162669 0.630940 0.324104
O O14 0.756052 0.799183 0.563862
O O15 0.962507 0.302721 0.847274
#
# Coordination Sequence:
#
# PCOD9268137 Si02
#       7
#     8   8   8   8   8   4   8
#     4  12  24  45  68 102 137 182 229 281 346 415
#     4  11  24  41  69  99 130 178 232 279 338 410
#     4  11  23  42  65 100 138 175 224 283 338 404
#     4  10  21  40  67  96 131 172 228 271 339 405
#     4  10  19  42  68  91 130 173 224 277 325 410
#     4  10  26  40  64 100 134 178 220 286 346 408
#     4  11  24  43  68  99 135 175 234 280 347 408
#
# _framework density 20.870794
#
# number of rings (size 3 to 8) (size 9 to 14) (size 15 to 20)
#    0.000    1.231    6.154    0.462    5.385    1.846 
#    1.385    1.538    0.000    0.000    0.000    0.000 
#    0.000    0.000    0.000    0.000    0.000    0.000 
#
# Total GULP energy -144971.248859 kJ/mol
# GULP energy per Si atom -5575.817264 kJ/mol
# Density = 2.082329 g / cm^3
# Si number density = 20.870794 Si / 1000 Ang^3
#
#
#
# Elastic Constant Matrix: (Units=GPa)
#
#
# Indices 1 2 3 4 5 6 
#
# 1 100.8003 48.7539 17.6122 0.0000 2.4280 0.0000
# 2 48.7539 136.7618 29.9631 0.0000 7.1001 0.0000
# 3 17.6122 29.9631 82.0542 0.0000 5.3694 0.0000
# 4 0.0000 0.0000 0.0000 27.5885 0.0000 7.4585
# 5 2.4280 7.1001 5.3694 0.0000 18.5713 0.0000
# 6 0.0000 0.0000 0.0000 7.4585 0.0000 34.5229
#
#
#
# Elastic Compliance Matrix: (Units=1/GPa)
#
#
# Indices 1 2 3 4 5 6 
#
# 1 0.012081 -0.004076 -0.001125 0.000000 0.000304 0.000000
# 2 -0.004076 0.009416 -0.002408 0.000000 -0.002371 0.000000
# 3 -0.001125 -0.002408 0.013493 0.000000 -0.002833 0.000000
# 4 0.000000 0.000000 0.000000 0.038495 0.000000 -0.008317
# 5 0.000304 -0.002371 -0.002833 0.000000 0.055532 0.000000
# 6 0.000000 0.000000 0.000000 -0.008317 0.000000 0.030763
#
#
# Mechanical properties :
#
#
# Convention : Reuss Voigt Hill
#
# Bulk Modulus (GPa) = 50.57582 56.91941 53.74761
# Shear Modulus (GPa) = 27.53455 31.02235 29.27845
#
# Velocity S-wave (km/s) = 3.63614 3.85957 3.74952
# Velocity P-wave (km/s) = 6.47411 6.86973 6.67485
#
# Compressibility (1/GPa) = 0.01977230
#
# Stress axis : x y z
#
# Youngs Moduli (GPa) = 82.77244 106.20436 74.11114
#
# Poissons Ratio (x) = 0.43291 0.08334
# Poissons Ratio (y) = 0.33740 0.17848
# Poissons Ratio (z) = 0.09308 0.25577
#
# Static dielectric constant tensor:
#      x y z
#    x 1.728180 0.000000 0.028420 
#    y 0.000000 1.791550 0.000000 
#    z 0.028420 0.000000 1.847140 
# 
# From -- ./inp_files/81522.got.cif
#   From: 2010.05.17/outbox.cif.g08.bks.cpg/sg15_41_cif.got.tgz:81522.got - 2010.06.03 18:47:42.
