data_PCOD9268755
_publ_section_title
;
Structure prediction by ZEFSAII (Michael W. Deem and Ramdas Pophale) SiO2 
 PCOD9268755
Probable space group: C 2/C
;
_chemical_formula_sum "Si O2"
_cell_formula_units_Z 64
_cell_length_a 23.038472
_cell_length_b 17.356624
_cell_length_c 20.808795
_cell_angle_alpha 90.000000
_cell_angle_beta 22.844379
_cell_angle_gamma 90.000000
_cell_volume 3230.385859
_symmetry_space_group_name_H-M "C 2/C"
_symmetry_group_IT_number 15
_symmetry_cell_setting 'monoclinic'
loop_
_space_group_symop_operation_xyz
x,y,z
-x,y,1/2-z
-x,-y,-z
x,-y,1/2+z
1/2+x,1/2+y,z
1/2-x,1/2+y,1/2-z
1/2-x,1/2-y,-z
1/2+x,1/2-y,1/2+z
loop_
_atom_site_type_symbol
_atom_site_label
_atom_site_fract_x
_atom_site_fract_y
_atom_site_fract_z
Si Si1 0.794970 0.662423 0.636823
Si Si2 0.874062 0.734964 0.425747
Si Si3 0.321098 0.990278 0.433125
Si Si4 0.937048 0.728116 0.057433
Si Si5 0.828694 0.829493 0.901749
Si Si6 0.901750 0.910985 0.414852
Si Si7 0.350918 0.514643 0.755147
Si Si8 0.832170 0.843524 0.745192
O O1 0.831002 0.678263 0.525706
O O2 0.672059 0.724995 0.783808
O O3 0.723601 0.578713 0.713492
O O4 0.944900 0.675799 0.524564
O O5 0.750000 0.750000 0.500000
O O6 0.902970 0.819447 0.427225
O O7 0.000000 0.703984 0.250000
O O8 0.500000 0.991942 0.250000
O O9 0.258537 0.904245 0.482124
O O10 0.252042 0.006271 0.574955
O O11 0.252457 0.049975 0.450803
O O12 0.825219 0.681001 0.125791
O O13 0.038119 0.789973 0.916256
O O14 0.826416 0.832305 0.827230
O O15 0.000000 0.832666 0.750000
O O16 0.750000 0.750000 0.000000
O O17 0.000000 0.918795 0.250000
O O18 0.989369 0.955648 0.381155
O O19 0.362762 0.433998 0.706785
#
# Coordination Sequence:
#
# PCOD9268755 Si02
#       8
#     8   8   8   8   8   8   8   8
#     4  11  22  39  60  86 117 155 198 242 292 346
#     4  11  21  34  58  88 120 155 191 233 288 352
#     4  10  20  33  51  83 120 152 185 232 294 356
#     4  10  23  41  61  81 114 156 201 245 284 351
#     4  11  21  36  61  88 117 148 187 240 300 363
#     4   9  18  34  53  79 118 159 190 226 287 356
#     4  10  21  38  58  81 115 152 196 246 293 351
#     4  10  22  41  61  85 113 152 196 241 297 348
#
# _framework density 19.811875000000001
#
# number of rings (size 3 to 8) (size 9 to 14) (size 15 to 20)
#    0.000    1.750    0.000    6.750    0.000    5.000 
#    0.000    2.500    0.000    0.000    0.000    0.000 
#    0.000    0.000    0.000    0.000    0.000    0.000 
#
# Total GULP energy -178734.272165 kJ/mol
# GULP energy per Si atom -5585.446005 kJ/mol
# Density = 1.976678 g / cm^3
# Si number density = 19.811875 Si / 1000 Ang^3
#
#
#
# Elastic Constant Matrix: (Units=GPa)
#
#
# Indices 1 2 3 4 5 6 
#
# 1 77.1704 38.5710 22.7439 0.0000 -21.9990 0.0022
# 2 38.5710 121.5947 9.1452 0.0029 -16.6977 0.0022
# 3 22.7439 9.1452 66.7705 0.0017 -26.2405 0.0046
# 4 0.0000 0.0029 0.0017 20.7596 -0.0004 -7.7900
# 5 -21.9990 -16.6977 -26.2405 -0.0004 37.3162 -0.0009
# 6 0.0022 0.0022 0.0046 -7.7900 -0.0009 26.9344
#
#
#
# Elastic Compliance Matrix: (Units=1/GPa)
#
#
# Indices 1 2 3 4 5 6 
#
# 1 0.017964 -0.004589 -0.002951 0.000001 0.006462 0.000000
# 2 -0.004589 0.009945 0.001225 -0.000002 0.002607 -0.000001
# 3 -0.002951 0.001225 0.021206 -0.000003 0.013721 -0.000004
# 4 0.000001 -0.000002 -0.000003 0.054035 -0.000002 0.015628
# 5 0.006462 0.002607 0.013721 -0.000002 0.041422 -0.000002
# 6 0.000000 -0.000001 -0.000004 0.015628 -0.000002 0.041647
#
#
# Mechanical properties :
#
#
# Convention : Reuss Voigt Hill
#
# Bulk Modulus (GPa) = 27.40782 45.16175 36.28479
# Shear Modulus (GPa) = 23.69548 30.00708 26.85128
#
# Velocity S-wave (km/s) = 3.46211 3.89601 3.68545
# Velocity P-wave (km/s) = 5.46312 6.56379 6.03858
#
# Compressibility (1/GPa) = 0.03648594
#
# Stress axis : x y z
#
# Youngs Moduli (GPa) = 55.66766 100.54800 47.15607
#
# Poissons Ratio (x) = 0.46142 0.13916
# Poissons Ratio (y) = 0.25546 -0.05778
# Poissons Ratio (z) = 0.16428 -0.12320
#
# Static dielectric constant tensor:
#      x y z
#    x 1.643780 0.000000 -0.016380 
#    y 0.000000 1.721690 0.000000 
#    z -0.016380 0.000000 1.680980 
# 
# From -- ./inp_files/255983.got.cif
#   From: 2010.05.17/outbox.cif.g08.bks.cpg/sg15_128_cif.got.tgz:255983.got - 2010.06.03 18:47:42.
