data_PCOD9268193
_publ_section_title
;
Structure prediction by ZEFSAII (Michael W. Deem and Ramdas Pophale) SiO2 
 PCOD9268193
Probable space group: C 2/C
;
_chemical_formula_sum "Si O2"
_cell_formula_units_Z 56
_cell_length_a 14.615429
_cell_length_b 11.645371
_cell_length_c 31.376907
_cell_angle_alpha 90.000000
_cell_angle_beta 27.929823
_cell_angle_gamma 90.000000
_cell_volume 2501.395811
_symmetry_space_group_name_H-M "C 2/C"
_symmetry_group_IT_number 15
_symmetry_cell_setting 'monoclinic'
loop_
_space_group_symop_operation_xyz
x,y,z
-x,y,1/2-z
-x,-y,-z
x,-y,1/2+z
1/2+x,1/2+y,z
1/2-x,1/2+y,1/2-z
1/2-x,1/2-y,-z
1/2+x,1/2-y,1/2+z
loop_
_atom_site_type_symbol
_atom_site_label
_atom_site_fract_x
_atom_site_fract_y
_atom_site_fract_z
Si Si1 0.007555 0.637338 0.653649
Si Si2 0.455756 0.400630 0.860325
Si Si3 0.577733 0.537587 0.032102
Si Si4 0.000000 0.322418 0.250000
Si Si5 0.739592 0.965146 0.319638
Si Si6 0.000000 0.231410 0.750000
Si Si7 0.818626 0.836884 0.570518
Si Si8 0.352783 0.846248 0.576059
O O1 0.894539 0.564456 0.665342
O O2 0.961452 0.772239 0.667537
O O3 0.237191 0.620966 0.550812
O O4 0.966197 0.608486 0.720247
O O5 0.575672 0.464695 0.774585
O O6 0.237507 0.385898 0.931870
O O7 0.468081 0.466294 0.899489
O O8 0.645139 0.416854 0.985026
O O9 0.404677 0.589923 0.074846
O O10 0.812029 0.242478 0.337546
O O11 0.828027 0.849681 0.303166
O O12 0.638149 0.046104 0.396148
O O13 0.097810 0.305155 0.672383
O O14 0.949136 0.723517 0.510608
#
# Coordination Sequence:
#
# PCOD9268193 Si02
#       8
#     8   8   8   4   8   4   8   8
#     4  11  24  40  75 102 142 185 240 298 351 435
#     4  11  22  42  70 103 140 182 246 285 347 444
#     4  11  25  44  69 109 134 195 243 288 371 422
#     4  10  19  43  72 102 132 182 249 285 348 428
#     4  12  25  43  73 109 142 190 236 301 366 423
#     4  12  27  49  66 108 152 186 241 307 372 408
#     4  11  27  47  73 101 154 186 242 307 355 431
#     4  11  21  47  73 101 139 193 239 294 349 438
#
# _framework density 22.387502000000001
#
# number of rings (size 3 to 8) (size 9 to 14) (size 15 to 20)
#    0.000    0.857    7.143    1.286    4.000    4.571 
#    0.000    1.429    0.000    0.000    0.000    0.000 
#    0.000    0.000    0.000    0.000    0.000    0.000 
#
# Total GULP energy -156777.200299 kJ/mol
# GULP energy per Si atom -5599.185725 kJ/mol
# Density = 2.233655 g / cm^3
# Si number density = 22.387502 Si / 1000 Ang^3
#
#
#
# Elastic Constant Matrix: (Units=GPa)
#
#
# Indices 1 2 3 4 5 6 
#
# 1 101.7755 32.1099 10.2303 -0.0006 33.1211 0.0001
# 2 32.1099 91.3710 32.6282 -0.0001 11.5658 0.0002
# 3 10.2303 32.6282 88.9279 0.0012 13.2513 0.0010
# 4 -0.0006 -0.0001 0.0012 13.2325 0.0007 15.7933
# 5 33.1211 11.5658 13.2513 0.0007 30.2416 -0.0010
# 6 0.0001 0.0002 0.0010 15.7933 -0.0010 29.3541
#
#
#
# Elastic Compliance Matrix: (Units=1/GPa)
#
#
# Indices 1 2 3 4 5 6 
#
# 1 0.016754 -0.004492 0.002353 0.000007 -0.017662 -0.000004
# 2 -0.004492 0.014056 -0.004892 0.000000 0.001688 0.000000
# 3 0.002353 -0.004892 0.013774 0.000000 -0.006741 -0.000001
# 4 0.000007 0.000000 0.000000 0.211182 -0.000016 -0.113622
# 5 -0.017662 0.001688 -0.006741 -0.000016 0.054720 0.000011
# 6 -0.000004 0.000000 -0.000001 -0.113622 0.000011 0.095199
#
#
# Mechanical properties :
#
#
# Convention : Reuss Voigt Hill
#
# Bulk Modulus (GPa) = 32.76403 48.00126 40.38264
# Shear Modulus (GPa) = 11.63002 28.37271 20.00136
#
# Velocity S-wave (km/s) = 2.28170 3.56384 2.99225
# Velocity P-wave (km/s) = 4.64847 6.19857 5.47862
#
# Compressibility (1/GPa) = 0.03052128
#
# Stress axis : x y z
#
# Youngs Moduli (GPa) = 59.68621 71.14210 72.60126
#
# Poissons Ratio (x) = 0.31959 -0.17081
# Poissons Ratio (y) = 0.26813 0.35517
# Poissons Ratio (z) = -0.14043 0.34803
#
# Static dielectric constant tensor:
#      x y z
#    x 1.816540 0.000000 -0.007130 
#    y 0.000000 1.848740 0.000000 
#    z -0.007130 0.000000 1.818320 
# 
# From -- ./inp_files/313752.got.cif
#   From: 2010.05.17/outbox.cif.g08.bks.cpg/sg15_157_cif.got.tgz:313752.got - 2010.06.03 18:47:42.
