data_PCOD9268032
_publ_section_title
;
Structure prediction by ZEFSAII (Michael W. Deem and Ramdas Pophale) SiO2 
 PCOD9268032
Probable space group: C 2/C
;
_chemical_formula_sum "Si O2"
_cell_formula_units_Z 48
_cell_length_a 11.097217
_cell_length_b 12.327868
_cell_length_c 18.713570
_cell_angle_alpha 90.000000
_cell_angle_beta 126.568029
_cell_angle_gamma 90.000000
_cell_volume 2056.152808
_symmetry_space_group_name_H-M "C 2/C"
_symmetry_group_IT_number 15
_symmetry_cell_setting 'monoclinic'
loop_
_space_group_symop_operation_xyz
x,y,z
-x,y,1/2-z
-x,-y,-z
x,-y,1/2+z
1/2+x,1/2+y,z
1/2-x,1/2+y,1/2-z
1/2-x,1/2-y,-z
1/2+x,1/2-y,1/2+z
loop_
_atom_site_type_symbol
_atom_site_label
_atom_site_fract_x
_atom_site_fract_y
_atom_site_fract_z
Si Si1 0.247494 0.877377 0.180818
Si Si2 0.959709 0.060636 0.410430
Si Si3 0.585287 0.051623 0.636950
Si Si4 0.212896 0.271048 0.095496
Si Si5 0.728758 0.875648 0.480892
Si Si6 0.998758 0.695992 0.117657
O O1 0.393708 0.884310 0.280788
O O2 0.273742 0.891018 0.105767
O O3 0.138714 0.776772 0.158038
O O4 0.152369 0.983257 0.170126
O O5 0.879551 0.175598 0.396302
O O6 0.123325 0.070761 0.434210
O O7 0.000000 0.000000 0.500000
O O8 0.710276 0.113259 0.634300
O O9 0.427037 0.082914 0.544537
O O10 0.566607 0.924557 0.644576
O O11 0.380094 0.227113 0.138254
O O12 0.112226 0.289571 0.989315
O O13 0.750000 0.750000 0.500000
#
# Coordination Sequence:
#
# PCOD9268032 Si02
#       6
#     8   8   8   8   8   8
#     4  11  25  43  64 101 135 177 225 295 353 410
#     4  10  19  41  67  92 125 174 232 272 334 416
#     4  12  26  42  67 102 145 178 229 293 358 413
#     4  11  23  43  72  99 129 184 236 286 344 425
#     4  11  21  41  70  96 125 178 232 278 335 423
#     4  11  24  44  70  98 138 178 235 284 349 428
#
# _framework density 23.344567000000001
#
# number of rings (size 3 to 8) (size 9 to 14) (size 15 to 20)
#    0.000    1.000    5.000    3.000    4.667    0.667 
#    0.000    0.000    0.000    0.000    0.000    0.000 
#    0.000    0.000    0.000    0.000    0.000    0.000 
#
# Total GULP energy -134050.433090 kJ/mol
# GULP energy per Si atom -5585.434712 kJ/mol
# Density = 2.329143 g / cm^3
# Si number density = 23.344567 Si / 1000 Ang^3
#
#
#
# Elastic Constant Matrix: (Units=GPa)
#
#
# Indices 1 2 3 4 5 6 
#
# 1 88.1736 57.1223 15.2809 0.0000 18.5054 0.0000
# 2 57.1223 122.0262 16.1194 0.0000 3.5449 0.0000
# 3 15.2809 16.1194 53.8653 0.0000 10.4519 0.0000
# 4 0.0000 0.0000 0.0000 17.7986 0.0000 -7.5485
# 5 18.5054 3.5449 10.4519 0.0000 19.5856 0.0000
# 6 0.0000 0.0000 0.0000 -7.5485 0.0000 24.8324
#
#
#
# Elastic Compliance Matrix: (Units=1/GPa)
#
#
# Indices 1 2 3 4 5 6 
#
# 1 0.021345 -0.009504 0.000411 0.000000 -0.018666 0.000000
# 2 -0.009504 0.012765 -0.002697 0.000000 0.008109 0.000000
# 3 0.000411 -0.002697 0.021458 0.000000 -0.011351 0.000000
# 4 0.000000 0.000000 0.000000 0.064499 0.000000 0.019606
# 5 -0.018666 0.008109 -0.011351 0.000000 0.073285 0.000000
# 6 0.000000 0.000000 0.000000 0.019606 0.000000 0.046230
#
#
# Mechanical properties :
#
#
# Convention : Reuss Voigt Hill
#
# Bulk Modulus (GPa) = 31.26270 49.01227 40.13749
# Shear Modulus (GPa) = 18.25994 24.14614 21.20304
#
# Velocity S-wave (km/s) = 2.79980 3.21960 3.01701
# Velocity P-wave (km/s) = 4.88598 5.90439 5.41916
#
# Compressibility (1/GPa) = 0.03198700
#
# Stress axis : x y z
#
# Youngs Moduli (GPa) = 46.85041 78.34220 46.60279
#
# Poissons Ratio (x) = 0.74454 -0.01915
# Poissons Ratio (y) = 0.44525 0.12569
# Poissons Ratio (z) = -0.01925 0.21130
#
# Static dielectric constant tensor:
#      x y z
#    x 1.905710 0.000000 -0.046960 
#    y 0.000000 1.844980 0.000000 
#    z -0.046960 0.000000 1.897780 
# 
# From -- ./inp_files/237225.got.cif
#   From: 2010.05.17/outbox.cif.g08.bks.cpg/sg15_119_cif.got.tgz:237225.got - 2010.06.03 18:47:42.
