data_PCOD9268510
_publ_section_title
;
Structure prediction by ZEFSAII (Michael W. Deem and Ramdas Pophale) SiO2 
 PCOD9268510
Probable space group: C 2/C
;
_chemical_formula_sum "Si O2"
_cell_formula_units_Z 64
_cell_length_a 20.929411
_cell_length_b 7.976211
_cell_length_c 24.169941
_cell_angle_alpha 90.000000
_cell_angle_beta 44.783187
_cell_angle_gamma 90.000000
_cell_volume 2842.265113
_symmetry_space_group_name_H-M "C 2/C"
_symmetry_group_IT_number 15
_symmetry_cell_setting 'monoclinic'
loop_
_space_group_symop_operation_xyz
x,y,z
-x,y,1/2-z
-x,-y,-z
x,-y,1/2+z
1/2+x,1/2+y,z
1/2-x,1/2+y,1/2-z
1/2-x,1/2-y,-z
1/2+x,1/2-y,1/2+z
loop_
_atom_site_type_symbol
_atom_site_label
_atom_site_fract_x
_atom_site_fract_y
_atom_site_fract_z
Si Si1 0.075191 0.576373 0.355329
Si Si2 0.840801 0.764166 0.979819
Si Si3 0.979462 0.044751 0.327350
Si Si4 0.186826 0.414560 0.892875
Si Si5 0.220121 0.428540 0.205746
Si Si6 0.254555 0.591421 0.073314
Si Si7 0.835208 0.078646 0.739373
Si Si8 0.113081 0.300376 0.574181
O O1 0.101315 0.566155 0.404000
O O2 0.122030 0.422107 0.294818
O O3 0.973425 0.612423 0.399918
O O4 0.130748 0.737053 0.297821
O O5 0.841804 0.624081 0.026835
O O6 0.825210 0.939380 0.021217
O O7 0.750000 0.750000 0.000000
O O8 0.923906 0.801442 0.888046
O O9 0.000000 0.065255 0.250000
O O10 0.075012 0.018703 0.298584
O O11 0.922193 0.871351 0.373600
O O12 0.259181 0.559830 0.833848
O O13 0.243619 0.248938 0.838603
O O14 0.219651 0.557870 0.155686
O O15 0.287576 0.487598 0.212923
O O16 0.168382 0.591564 0.085020
O O17 0.314022 0.748505 0.017304
#
# Coordination Sequence:
#
# PCOD9268510 Si02
#       8
#     8   8   8   8   8   8   8   8
#     4   9  18  32  56  82 104 139 179 221 268 317
#     4  10  20  36  53  73 105 146 177 213 270 318
#     4  10  20  32  53  79 103 135 182 224 260 317
#     4   9  18  35  54  77 110 141 176 219 269 322
#     4   9  18  32  53  77 104 138 173 218 271 314
#     4   9  19  34  51  74 105 135 172 221 264 321
#     4   9  18  33  52  78 105 136 179 220 261 318
#     4   9  19  33  50  77 104 131 172 221 270 311
#
# _framework density 22.517251000000002
#
# number of rings (size 3 to 8) (size 9 to 14) (size 15 to 20)
#    0.000    2.750    0.000    0.750    3.500    1.000 
#    4.500    5.000    0.000    0.750    0.000    0.000 
#    0.000    0.000    0.000    0.000    0.000    0.000 
#
# Total GULP energy -178684.970484 kJ/mol
# GULP energy per Si atom -5583.905328 kJ/mol
# Density = 2.246600 g / cm^3
# Si number density = 22.517251 Si / 1000 Ang^3
#
#
#
# Elastic Constant Matrix: (Units=GPa)
#
#
# Indices 1 2 3 4 5 6 
#
# 1 92.7797 19.0882 53.9320 -0.0001 -15.9977 0.0000
# 2 19.0882 66.5846 23.0595 -0.0003 1.9007 -0.0005
# 3 53.9320 23.0595 103.7101 -0.0001 15.3458 0.0000
# 4 -0.0001 -0.0003 -0.0001 38.1789 0.0000 -6.3642
# 5 -15.9977 1.9007 15.3458 0.0000 35.3327 0.0001
# 6 0.0000 -0.0005 0.0000 -6.3642 0.0001 22.8401
#
#
#
# Elastic Compliance Matrix: (Units=1/GPa)
#
#
# Indices 1 2 3 4 5 6 
#
# 1 0.021387 -0.002091 -0.012938 0.000000 0.015415 0.000000
# 2 -0.002091 0.016494 -0.002468 0.000000 -0.000762 0.000000
# 3 -0.012938 -0.002468 0.018986 0.000000 -0.013971 0.000000
# 4 0.000000 0.000000 0.000000 0.027468 0.000000 0.007654
# 5 0.015415 -0.000762 -0.013971 0.000000 0.041391 0.000000
# 6 0.000000 0.000000 0.000000 0.007654 0.000000 0.045915
#
#
# Mechanical properties :
#
#
# Convention : Reuss Voigt Hill
#
# Bulk Modulus (GPa) = 45.71330 50.58153 48.14741
# Shear Modulus (GPa) = 23.37261 30.40332 26.88797
#
# Velocity S-wave (km/s) = 3.22528 3.67853 3.45933
# Velocity P-wave (km/s) = 5.84939 6.36822 6.11431
#
# Compressibility (1/GPa) = 0.02187547
#
# Stress axis : x y z
#
# Youngs Moduli (GPa) = 46.75744 60.62778 52.66962
#
# Poissons Ratio (x) = 0.12674 0.68144
# Poissons Ratio (y) = 0.09775 0.12996
# Poissons Ratio (z) = 0.60494 0.14960
#
# Static dielectric constant tensor:
#      x y z
#    x 1.790460 0.000000 0.009150 
#    y 0.000000 1.943730 0.000000 
#    z 0.009150 0.000000 1.847550 
# 
# From -- ./inp_files/248620.got.cif
#   From: 2010.05.17/outbox.cif.g08.bks.cpg/sg15_125_cif.got.tgz:248620.got - 2010.06.03 18:47:42.
