data_PCOD9268562
_publ_section_title
;
Structure prediction by ZEFSAII (Michael W. Deem and Ramdas Pophale) SiO2 
 PCOD9268562
Probable space group: C 2/C
;
_chemical_formula_sum "Si O2"
_cell_formula_units_Z 60
_cell_length_a 26.752814
_cell_length_b 14.381842
_cell_length_c 12.256083
_cell_angle_alpha 90.000000
_cell_angle_beta 44.601276
_cell_angle_gamma 90.000000
_cell_volume 3311.137935
_symmetry_space_group_name_H-M "C 2/C"
_symmetry_group_IT_number 15
_symmetry_cell_setting 'monoclinic'
loop_
_space_group_symop_operation_xyz
x,y,z
-x,y,1/2-z
-x,-y,-z
x,-y,1/2+z
1/2+x,1/2+y,z
1/2-x,1/2+y,1/2-z
1/2-x,1/2-y,-z
1/2+x,1/2-y,1/2+z
loop_
_atom_site_type_symbol
_atom_site_label
_atom_site_fract_x
_atom_site_fract_y
_atom_site_fract_z
Si Si1 0.449651 0.586988 0.603050
Si Si2 0.568776 0.281721 0.010986
Si Si3 0.413516 0.265905 0.986990
Si Si4 0.000000 0.382767 0.750000
Si Si5 0.927871 0.500803 0.184840
Si Si6 0.573396 0.789312 0.276002
Si Si7 0.825068 0.336911 0.791018
Si Si8 0.657936 0.337118 0.078074
O O1 0.500000 0.500000 0.500000
O O2 0.499477 0.656272 0.595879
O O3 0.426406 0.634934 0.525102
O O4 0.379720 0.584657 0.787898
O O5 0.541089 0.184172 0.102340
O O6 0.619741 0.327279 0.020916
O O7 0.599380 0.264329 0.842940
O O8 0.406766 0.260224 0.867904
O O9 0.486437 0.211878 0.907823
O O10 0.347076 0.216533 0.146871
O O11 0.052711 0.448716 0.732910
O O12 0.904499 0.396054 0.246300
O O13 0.868351 0.567299 0.226153
O O14 0.000000 0.500000 0.000000
O O15 0.849574 0.262473 0.846432
O O16 0.741605 0.352777 0.934198
#
# Coordination Sequence:
#
# PCOD9268562 Si02
#       8
#     8   8   8   4   8   8   8   8
#     4  10  20  37  64  87 107 145 210 257 282 337
#     4  11  19  37  57  85 114 148 203 242 290 351
#     4   9  18  37  54  87 118 150 185 234 312 351
#     4  12  18  32  56  90 118 144 198 246 276 340
#     4  12  20  30  55  93 120 146 196 237 285 349
#     4  10  20  32  55  86 123 152 183 240 297 354
#     4  10  20  36  60  85 118 158 191 242 293 360
#     4  10  20  39  61  82 116 155 199 242 302 341
#
# _framework density 18.120659
#
# number of rings (size 3 to 8) (size 9 to 14) (size 15 to 20)
#    0.000    1.600    5.333    1.600    0.000    0.000 
#    9.600    2.000    5.867    0.000    0.000    0.000 
#    0.000    0.000    0.000    0.000    0.000    0.000 
#
# Total GULP energy -167255.223159 kJ/mol
# GULP energy per Si atom -5575.174105 kJ/mol
# Density = 1.807942 g / cm^3
# Si number density = 18.120659 Si / 1000 Ang^3
#
#
#
# Elastic Constant Matrix: (Units=GPa)
#
#
# Indices 1 2 3 4 5 6 
#
# 1 68.2886 19.2950 59.1355 0.0000 15.9394 0.0000
# 2 19.2950 54.9925 49.9918 0.0000 -1.4748 0.0000
# 3 59.1355 49.9918 130.9953 0.0000 7.4361 0.0000
# 4 0.0000 0.0000 0.0000 24.2222 0.0000 0.3600
# 5 15.9394 -1.4748 7.4361 0.0000 35.6551 0.0000
# 6 0.0000 0.0000 0.0000 0.3600 0.0000 19.5691
#
#
#
# Elastic Compliance Matrix: (Units=1/GPa)
#
#
# Indices 1 2 3 4 5 6 
#
# 1 0.027016 0.001323 -0.012162 0.000000 -0.009486 0.000000
# 2 0.001323 0.028324 -0.011577 0.000000 0.002995 0.000000
# 3 -0.012162 -0.011577 0.017468 0.000000 0.001315 0.000000
# 4 0.000000 0.000000 0.000000 0.041296 0.000000 -0.000760
# 5 -0.009486 0.002995 0.001315 0.000000 0.032137 0.000000
# 6 0.000000 0.000000 0.000000 -0.000760 0.000000 0.051115
#
#
# Mechanical properties :
#
#
# Convention : Reuss Voigt Hill
#
# Bulk Modulus (GPa) = 35.74476 56.79123 46.26800
# Shear Modulus (GPa) = 19.87964 24.27956 22.07960
#
# Velocity S-wave (km/s) = 3.31580 3.66441 3.49446
# Velocity P-wave (km/s) = 5.86755 7.02229 6.47073
#
# Compressibility (1/GPa) = 0.02797613
#
# Stress axis : x y z
#
# Youngs Moduli (GPa) = 37.01456 35.30531 57.24849
#
# Poissons Ratio (x) = -0.04671 0.69628
# Poissons Ratio (y) = -0.04897 0.66274
# Poissons Ratio (z) = 0.45019 0.40872
#
# Static dielectric constant tensor:
#      x y z
#    x 1.634700 0.000000 0.005620 
#    y 0.000000 1.639960 0.000000 
#    z 0.005620 0.000000 1.667450 
# 
# From -- ./inp_files/123146.got.cif
#   From: 2010.05.17/outbox.cif.g08.bks.cpg/sg15_62_cif.got.tgz:123146.got - 2010.06.03 18:47:42.
