data_PCOD9268468
_publ_section_title
;
Structure prediction by ZEFSAII (Michael W. Deem and Ramdas Pophale) SiO2 
 PCOD9268468
Probable space group: C 2/C
;
_chemical_formula_sum "Si O2"
_cell_formula_units_Z 64
_cell_length_a 16.937011
_cell_length_b 23.115535
_cell_length_c 20.771284
_cell_angle_alpha 90.000000
_cell_angle_beta 155.012549
_cell_angle_gamma 90.000000
_cell_volume 3435.170352
_symmetry_space_group_name_H-M "C 2/C"
_symmetry_group_IT_number 15
_symmetry_cell_setting 'monoclinic'
loop_
_space_group_symop_operation_xyz
x,y,z
-x,y,1/2-z
-x,-y,-z
x,-y,1/2+z
1/2+x,1/2+y,z
1/2-x,1/2+y,1/2-z
1/2-x,1/2-y,-z
1/2+x,1/2-y,1/2+z
loop_
_atom_site_type_symbol
_atom_site_label
_atom_site_fract_x
_atom_site_fract_y
_atom_site_fract_z
Si Si1 0.122586 0.446843 0.564680
Si Si2 0.736580 0.451299 0.083598
Si Si3 0.086521 0.213179 0.172640
Si Si4 0.924785 0.325717 0.015616
Si Si5 0.684523 0.173311 0.918265
Si Si6 0.443629 0.940802 0.778064
Si Si7 0.699025 0.513313 0.918543
Si Si8 0.123486 0.095978 0.130530
O O1 0.014387 0.387616 0.467703
O O2 0.239102 0.465435 0.587775
O O3 0.265874 0.429599 0.726436
O O4 0.000000 0.500000 0.500000
O O5 0.795989 0.388274 0.103381
O O6 0.892218 0.490800 0.232289
O O7 0.683157 0.486900 0.979078
O O8 0.569930 0.438983 0.010484
O O9 0.255904 0.199694 0.346700
O O10 0.091724 0.163209 0.122535
O O11 0.083967 0.277240 0.141394
O O12 0.881019 0.205584 0.053040
O O13 0.849178 0.336426 0.031622
O O14 0.500000 0.201931 0.750000
O O15 0.500000 0.918068 0.750000
O O16 0.260512 0.912860 0.672243
O O17 0.632617 0.940511 0.958554
O O18 0.500000 0.536830 0.750000
#
# Coordination Sequence:
#
# PCOD9268468 Si02
#       8
#     8   8   8   8   8   8   8   8
#     4  11  21  34  58  84 112 150 189 236 284 337
#     4  10  20  32  50  82 114 156 184 233 282 336
#     4  10  23  37  55  78 107 152 193 233 277 326
#     4  11  22  38  54  79 113 150 196 231 276 331
#     4  11  20  32  53  79 113 158 194 230 265 332
#     4  10  21  35  53  80 114 148 187 234 287 350
#     4  11  19  32  53  78 115 151 187 223 287 341
#     4  10  20  36  56  79 113 148 193 231 283 338
#
# _framework density 18.630807000000001
#
# number of rings (size 3 to 8) (size 9 to 14) (size 15 to 20)
#    0.000    1.500    3.750    3.000    0.000    0.000 
#    0.000    0.000    0.000    0.000    0.000    4.375 
#    0.000    0.000    0.000    0.000    0.000    0.000 
#
# Total GULP energy -178596.271518 kJ/mol
# GULP energy per Si atom -5581.133485 kJ/mol
# Density = 1.858840 g / cm^3
# Si number density = 18.630807 Si / 1000 Ang^3
#
#
#
# Elastic Constant Matrix: (Units=GPa)
#
#
# Indices 1 2 3 4 5 6 
#
# 1 83.2621 20.5447 28.1735 -0.0291 18.8624 -0.0006
# 2 20.5447 91.2317 25.4890 0.0040 7.8645 -0.0059
# 3 28.1735 25.4890 81.9685 0.0147 5.9593 -0.0121
# 4 -0.0291 0.0040 0.0147 20.2192 0.0046 0.6659
# 5 18.8624 7.8645 5.9593 0.0046 27.7384 -0.0047
# 6 -0.0006 -0.0059 -0.0121 0.6659 -0.0047 15.6875
#
#
#
# Elastic Compliance Matrix: (Units=1/GPa)
#
#
# Indices 1 2 3 4 5 6 
#
# 1 0.016018 -0.001579 -0.004323 0.000029 -0.009516 -0.000007
# 2 -0.001579 0.012353 -0.003172 -0.000002 -0.001747 0.000002
# 3 -0.004323 -0.003172 0.014621 -0.000017 0.000698 0.000011
# 4 0.000029 -0.000002 -0.000017 0.049527 -0.000024 -0.002102
# 5 -0.009516 -0.001747 0.000698 -0.000024 0.042868 0.000013
# 6 -0.000007 0.000002 0.000011 -0.002102 0.000013 0.063834
#
#
# Mechanical properties :
#
#
# Convention : Reuss Voigt Hill
#
# Bulk Modulus (GPa) = 40.24816 44.98629 42.61722
# Shear Modulus (GPa) = 22.15807 24.87937 23.51872
#
# Velocity S-wave (km/s) = 3.45240 3.65826 3.55682
# Velocity P-wave (km/s) = 6.12715 6.48401 6.30811
#
# Compressibility (1/GPa) = 0.02484586
#
# Stress axis : x y z
#
# Youngs Moduli (GPa) = 62.42783 80.94905 68.39399
#
# Poissons Ratio (x) = 0.12783 0.29566
# Poissons Ratio (y) = 0.09858 0.21692
# Poissons Ratio (z) = 0.26987 0.25674
#
# Static dielectric constant tensor:
#      x y z
#    x 1.670450 -0.000030 0.008930 
#    y -0.000030 1.673560 -0.000070 
#    z 0.008930 -0.000070 1.697610 
# 
# From -- ./inp_files/58632.got.cif
#   From: 2010.05.17/outbox.cif.g08.bks.cpg/sg15_30_cif.got.tgz:58632.got - 2010.06.03 18:47:42.
