data_PCOD9268124
_publ_section_title
;
Structure prediction by ZEFSAII (Michael W. Deem and Ramdas Pophale) SiO2 
 PCOD9268124
Probable space group: C 2/C
;
_chemical_formula_sum "Si O2"
_cell_formula_units_Z 48
_cell_length_a 16.683059
_cell_length_b 9.997018
_cell_length_c 17.090184
_cell_angle_alpha 90.000000
_cell_angle_beta 131.687797
_cell_angle_gamma 90.000000
_cell_volume 2128.557998
_symmetry_space_group_name_H-M "C 2/C"
_symmetry_group_IT_number 15
_symmetry_cell_setting 'monoclinic'
loop_
_space_group_symop_operation_xyz
x,y,z
-x,y,1/2-z
-x,-y,-z
x,-y,1/2+z
1/2+x,1/2+y,z
1/2-x,1/2+y,1/2-z
1/2-x,1/2-y,-z
1/2+x,1/2-y,1/2+z
loop_
_atom_site_type_symbol
_atom_site_label
_atom_site_fract_x
_atom_site_fract_y
_atom_site_fract_z
Si Si1 0.434411 0.858894 0.459586
Si Si2 0.906244 0.868996 0.389401
Si Si3 0.757393 0.504962 0.423052
Si Si4 0.823147 0.255657 0.236095
Si Si5 0.931345 0.963255 0.583032
Si Si6 0.367710 0.808726 0.099802
O O1 0.511541 0.753848 0.551741
O O2 0.404016 0.783951 0.359044
O O3 0.500000 0.000000 0.500000
O O4 0.317813 0.883730 0.421868
O O5 0.788267 0.813600 0.303879
O O6 0.900620 0.942039 0.471463
O O7 0.956794 0.960171 0.354139
O O8 0.713019 0.615056 0.330537
O O9 0.662231 0.473503 0.423468
O O10 0.859961 0.567268 0.537881
O O11 0.866013 0.340704 0.189456
O O12 0.941501 0.817625 0.629173
O O13 0.250000 0.750000 0.000000
#
# Coordination Sequence:
#
# PCOD9268124 Si02
#       6
#     8   8   8   8   8   8
#     4  12  25  40  65 101 142 173 225 284 335 410
#     4  11  20  39  62 100 127 170 223 263 342 391
#     4  10  19  42  66  93 137 169 223 282 330 395
#     4  10  20  40  64  88 129 180 218 268 334 393
#     4   9  18  35  68  89 129 166 218 281 313 399
#     4   8  14  36  65  87 121 169 223 270 322 384
#
# _framework density 22.550477000000001
#
# number of rings (size 3 to 8) (size 9 to 14) (size 15 to 20)
#    0.000    2.333    6.667    0.000    0.000    3.333 
#    0.000   11.667    0.000    2.000    0.000    0.000 
#    0.000    0.000    0.000    0.000    0.000    0.000 
#
# Total GULP energy -133650.037781 kJ/mol
# GULP energy per Si atom -5568.751574 kJ/mol
# Density = 2.249915 g / cm^3
# Si number density = 22.550477 Si / 1000 Ang^3
#
#
#
# Elastic Constant Matrix: (Units=GPa)
#
#
# Indices 1 2 3 4 5 6 
#
# 1 210.6523 60.4098 25.9724 0.0000 -0.5687 0.0000
# 2 60.4098 55.6886 30.4964 0.0000 3.1973 0.0000
# 3 25.9724 30.4964 80.0354 0.0000 6.0386 0.0000
# 4 0.0000 0.0000 0.0000 20.2104 0.0000 1.2279
# 5 -0.5687 3.1973 6.0386 0.0000 20.3898 0.0000
# 6 0.0000 0.0000 0.0000 1.2279 0.0000 58.1984
#
#
#
# Elastic Compliance Matrix: (Units=1/GPa)
#
#
# Indices 1 2 3 4 5 6 
#
# 1 0.006960 -0.008003 0.000697 0.000000 0.001243 0.000000
# 2 -0.008003 0.031915 -0.009379 0.000000 -0.002450 0.000000
# 3 0.000697 -0.009379 0.016089 0.000000 -0.003275 0.000000
# 4 0.000000 0.000000 0.000000 0.049543 0.000000 -0.001045
# 5 0.001243 -0.002450 -0.003275 0.000000 0.050433 0.000000
# 6 0.000000 0.000000 0.000000 -0.001045 0.000000 0.017205
#
#
# Mechanical properties :
#
#
# Convention : Reuss Voigt Hill
#
# Bulk Modulus (GPa) = 46.30805 64.45929 55.38367
# Shear Modulus (GPa) = 23.50608 35.05958 29.28283
#
# Velocity S-wave (km/s) = 3.23209 3.94727 3.60744
# Velocity P-wave (km/s) = 5.87438 7.03001 6.47802
#
# Compressibility (1/GPa) = 0.02159452
#
# Stress axis : x y z
#
# Youngs Moduli (GPa) = 143.68802 31.33333 62.15412
#
# Poissons Ratio (x) = 0.25075 -0.04333
# Poissons Ratio (y) = 1.14988 0.58294
# Poissons Ratio (z) = -0.10017 0.29387
#
# Static dielectric constant tensor:
#      x y z
#    x 1.688460 0.000000 0.009700 
#    y 0.000000 1.995060 0.000000 
#    z 0.009700 0.000000 1.955550 
# 
# From -- ./inp_files/210442.got.cif
#   From: 2010.05.17/outbox.cif.g08.bks.cpg/sg15_106_cif.got.tgz:210442.got - 2010.06.03 18:47:42.
