data_PCOD9268070
_publ_section_title
;
Structure prediction by ZEFSAII (Michael W. Deem and Ramdas Pophale) SiO2 
 PCOD9268070
Probable space group: C 2/C
;
_chemical_formula_sum "Si O2"
_cell_formula_units_Z 24
_cell_length_a 12.361224
_cell_length_b 4.827166
_cell_length_c 13.629994
_cell_angle_alpha 90.000000
_cell_angle_beta 88.367331
_cell_angle_gamma 90.000000
_cell_volume 812.967211
_symmetry_space_group_name_H-M "C 2/C"
_symmetry_group_IT_number 15
_symmetry_cell_setting 'monoclinic'
loop_
_space_group_symop_operation_xyz
x,y,z
-x,y,1/2-z
-x,-y,-z
x,-y,1/2+z
1/2+x,1/2+y,z
1/2-x,1/2+y,1/2-z
1/2-x,1/2-y,-z
1/2+x,1/2-y,1/2+z
loop_
_atom_site_type_symbol
_atom_site_label
_atom_site_fract_x
_atom_site_fract_y
_atom_site_fract_z
Si Si1 0.757279 0.800048 0.817875
Si Si2 0.368367 0.155592 0.536025
Si Si3 0.520931 0.586682 0.638951
O O1 0.737133 0.991416 0.722654
O O2 0.665981 0.888375 0.898883
O O3 0.871791 0.894607 0.857025
O O4 0.250000 0.250000 0.500000
O O5 0.428549 0.377839 0.603705
O O6 0.444567 0.173888 0.437870
O O7 0.500000 0.686433 0.750000
#
# Coordination Sequence:
#
# PCOD9268070 Si02
#       3
#     8   8   8
#     4  11  23  44  71 105 148 191 242 301 359 430
#     4   9  20  40  71 105 146 188 243 301 363 431
#     4  10  19  41  71 104 144 194 244 296 366 433
#
# _framework density 29.521488000000002
#
# number of rings (size 3 to 8) (size 9 to 14) (size 15 to 20)
#    0.000    2.000    3.333    0.000    0.000    0.000 
#    6.000   16.667    0.000    0.000    0.000    0.000 
#    0.000    0.000    0.000    0.000    0.000    0.000 
#
# Total GULP energy -67427.425103 kJ/mol
# GULP energy per Si atom -5618.952092 kJ/mol
# Density = 2.945430 g / cm^3
# Si number density = 29.521488 Si / 1000 Ang^3
#
#
#
# Elastic Constant Matrix: (Units=GPa)
#
#
# Indices 1 2 3 4 5 6 
#
# 1 211.7245 34.8653 71.8731 0.0000 -22.2396 0.0000
# 2 34.8653 106.0412 44.2898 0.0000 14.2877 0.0000
# 3 71.8731 44.2898 219.8284 0.0000 -21.9591 0.0000
# 4 0.0000 0.0000 0.0000 52.5843 0.0000 8.5502
# 5 -22.2396 14.2877 -21.9591 0.0000 81.8996 0.0000
# 6 0.0000 0.0000 0.0000 8.5502 0.0000 40.4401
#
#
#
# Elastic Compliance Matrix: (Units=1/GPa)
#
#
# Indices 1 2 3 4 5 6 
#
# 1 0.005580 -0.001439 -0.001395 0.000000 0.001392 0.000000
# 2 -0.001439 0.011156 -0.002066 0.000000 -0.002891 0.000000
# 3 -0.001395 -0.002066 0.005569 0.000000 0.001475 0.000000
# 4 0.000000 0.000000 0.000000 0.019694 0.000000 -0.004164
# 5 0.001392 -0.002891 0.001475 0.000000 0.013488 0.000000
# 6 0.000000 0.000000 0.000000 -0.004164 0.000000 0.025608
#
#
# Mechanical properties :
#
#
# Convention : Reuss Voigt Hill
#
# Bulk Modulus (GPa) = 79.97738 93.29449 86.63593
# Shear Modulus (GPa) = 52.59620 60.75587 56.67603
#
# Velocity S-wave (km/s) = 4.22551 4.54146 4.38633
# Velocity P-wave (km/s) = 7.13839 7.69225 7.42049
#
# Compressibility (1/GPa) = 0.01250354
#
# Stress axis : x y z
#
# Youngs Moduli (GPa) = 179.20929 89.63859 179.57515
#
# Poissons Ratio (x) = 0.12903 0.25056
# Poissons Ratio (y) = 0.25797 0.37096
# Poissons Ratio (z) = 0.25005 0.18517
#
# Static dielectric constant tensor:
#      x y z
#    x 2.347380 0.000000 0.006150 
#    y 0.000000 2.193170 0.000000 
#    z 0.006150 0.000000 2.261680 
# 
# From -- ./inp_files/149342.got.cif
#   From: 2010.05.17/outbox.cif.g08.bks.cpg/sg15_75_cif.got.tgz:149342.got - 2010.06.03 18:47:42.
