data_PCOD9268834
_publ_section_title
;
Structure prediction by ZEFSAII (Michael W. Deem and Ramdas Pophale) SiO2 
 PCOD9268834
Probable space group: C 2/C
;
_chemical_formula_sum "Si O2"
_cell_formula_units_Z 56
_cell_length_a 21.527331
_cell_length_b 21.813545
_cell_length_c 12.548434
_cell_angle_alpha 90.000000
_cell_angle_beta 31.616447
_cell_angle_gamma 90.000000
_cell_volume 3089.072859
_symmetry_space_group_name_H-M "C 2/C"
_symmetry_group_IT_number 15
_symmetry_cell_setting 'monoclinic'
loop_
_space_group_symop_operation_xyz
x,y,z
-x,y,1/2-z
-x,-y,-z
x,-y,1/2+z
1/2+x,1/2+y,z
1/2-x,1/2+y,1/2-z
1/2-x,1/2-y,-z
1/2+x,1/2-y,1/2+z
loop_
_atom_site_type_symbol
_atom_site_label
_atom_site_fract_x
_atom_site_fract_y
_atom_site_fract_z
Si Si1 0.500000 0.186811 0.750000
Si Si2 0.616265 0.613795 0.128373
Si Si3 0.138896 0.581041 0.637387
Si Si4 0.054240 0.221772 0.362432
Si Si5 0.268644 0.792883 0.270802
Si Si6 0.839969 0.267995 0.775749
Si Si7 0.989492 0.380708 0.959107
Si Si8 0.500000 0.974647 0.750000
O O1 0.610630 0.140592 0.605511
O O2 0.494827 0.231166 0.655836
O O3 0.500000 0.581607 0.250000
O O4 0.570140 0.655280 0.292481
O O5 0.730615 0.578213 0.003513
O O6 0.668568 0.662903 0.966134
O O7 0.107570 0.521621 0.614669
O O8 0.049311 0.591486 0.869303
O O9 0.179985 0.248419 0.214125
O O10 0.959707 0.226695 0.595678
O O11 0.227737 0.752173 0.232538
O O12 0.380470 0.836728 0.083364
O O13 0.894108 0.337066 0.702750
O O14 0.750000 0.250000 0.000000
O O15 0.996417 0.432531 0.859661
#
# Coordination Sequence:
#
# PCOD9268834 Si02
#       8
#     4   8   8   8   8   8   8   4
#     4  11  16  34  52  84 118 142 187 234 290 340
#     4  11  19  31  55  87 117 148 180 231 300 353
#     4  10  23  34  58  87 113 147 201 252 287 331
#     4  11  20  29  52  83 122 151 179 222 289 356
#     4  10  20  33  53  83 120 150 178 230 284 359
#     4  11  21  34  53  84 121 159 183 218 284 365
#     4  10  21  39  57  87 112 153 194 239 289 342
#     4  11  22  40  62  78 114 148 209 252 292 318
#
# _framework density 18.128416000000001
#
# number of rings (size 3 to 8) (size 9 to 14) (size 15 to 20)
#    0.000    1.429    6.429    1.714    2.000    1.714 
#    0.000    0.000    0.000    3.429   14.857    0.000 
#    0.000    0.000    0.000    0.000    0.000    0.000 
#
# Total GULP energy -156019.044268 kJ/mol
# GULP energy per Si atom -5572.108724 kJ/mol
# Density = 1.808716 g / cm^3
# Si number density = 18.128416 Si / 1000 Ang^3
#
#
#
# Elastic Constant Matrix: (Units=GPa)
#
#
# Indices 1 2 3 4 5 6 
#
# 1 110.7076 23.6576 27.6200 0.0000 -13.2261 0.0000
# 2 23.6576 56.9409 15.0576 0.0000 0.3721 0.0000
# 3 27.6200 15.0576 81.0996 0.0000 -1.1125 0.0000
# 4 0.0000 0.0000 0.0000 9.7266 0.0000 2.4303
# 5 -13.2261 0.3721 -1.1125 0.0000 29.7468 0.0000
# 6 0.0000 0.0000 0.0000 2.4303 0.0000 42.6432
#
#
#
# Elastic Compliance Matrix: (Units=1/GPa)
#
#
# Indices 1 2 3 4 5 6 
#
# 1 0.011206 -0.003888 -0.003027 0.000000 0.004918 0.000000
# 2 -0.003888 0.019821 -0.002385 0.000000 -0.002066 0.000000
# 3 -0.003027 -0.002385 0.013793 0.000000 -0.000800 0.000000
# 4 0.000000 0.000000 0.000000 0.104296 0.000000 -0.005944
# 5 0.004918 -0.002066 -0.000800 0.000000 0.035800 0.000000
# 6 0.000000 0.000000 0.000000 -0.005944 0.000000 0.023789
#
#
# Mechanical properties :
#
#
# Convention : Reuss Voigt Hill
#
# Bulk Modulus (GPa) = 38.13565 42.37984 40.25774
# Shear Modulus (GPa) = 21.18237 28.58419 24.88328
#
# Velocity S-wave (km/s) = 3.42199 3.97515 3.70890
# Velocity P-wave (km/s) = 6.05767 6.67064 6.37153
#
# Compressibility (1/GPa) = 0.02622219
#
# Stress axis : x y z
#
# Youngs Moduli (GPa) = 89.23505 50.45073 72.49920
#
# Poissons Ratio (x) = 0.19613 0.21947
# Poissons Ratio (y) = 0.34691 0.17288
# Poissons Ratio (z) = 0.27014 0.12030
#
# Static dielectric constant tensor:
#      x y z
#    x 1.673330 0.000000 -0.015030 
#    y 0.000000 1.626720 0.000000 
#    z -0.015030 0.000000 1.681720 
# 
# From -- ./inp_files/114720.got.cif
#   From: 2010.05.17/outbox.cif.g08.bks.cpg/sg15_58_cif.got.tgz:114720.got - 2010.06.03 18:47:42.
