data_PCOD9268180
_publ_section_title
;
Structure prediction by ZEFSAII (Michael W. Deem and Ramdas Pophale) SiO2 
 PCOD9268180
Probable space group: C 2/C
;
_chemical_formula_sum "Si O2"
_cell_formula_units_Z 40
_cell_length_a 21.348465
_cell_length_b 7.735728
_cell_length_c 13.752902
_cell_angle_alpha 90.000000
_cell_angle_beta 133.811944
_cell_angle_gamma 90.000000
_cell_volume 1638.959806
_symmetry_space_group_name_H-M "C 2/C"
_symmetry_group_IT_number 15
_symmetry_cell_setting 'monoclinic'
loop_
_space_group_symop_operation_xyz
x,y,z
-x,y,1/2-z
-x,-y,-z
x,-y,1/2+z
1/2+x,1/2+y,z
1/2-x,1/2+y,1/2-z
1/2-x,1/2-y,-z
1/2+x,1/2-y,1/2+z
loop_
_atom_site_type_symbol
_atom_site_label
_atom_site_fract_x
_atom_site_fract_y
_atom_site_fract_z
Si Si1 0.636878 0.605226 0.257753
Si Si2 0.396123 0.115996 0.626462
Si Si3 0.890064 0.732547 0.224995
Si Si4 0.952987 0.680462 0.980326
Si Si5 0.686893 0.079958 0.160371
O O1 0.650302 0.764982 0.344294
O O2 0.629774 0.431909 0.313890
O O3 0.553443 0.666751 0.104914
O O4 0.714495 0.572650 0.266140
O O5 0.500000 0.137065 0.750000
O O6 0.364331 0.164972 0.485522
O O7 0.374876 0.916526 0.630061
O O8 0.836594 0.671551 0.263833
O O9 0.991282 0.731580 0.366955
O O10 0.855205 0.611368 0.883755
O O11 0.000000 0.500000 0.000000
#
# Coordination Sequence:
#
# PCOD9268180 Si02
#       5
#     8   8   8   8   8
#     4  12  24  42  70 105 135 179 236 286 352 414
#     4  12  24  46  69  98 144 183 234 286 346 418
#     4  11  24  44  71 100 136 192 234 276 352 424
#     4  10  19  43  68  90 135 182 221 274 340 407
#     4  11  23  44  70 101 144 180 224 302 351 403
#
# _framework density 24.405725
#
# number of rings (size 3 to 8) (size 9 to 14) (size 15 to 20)
#    0.000    0.800    6.000    3.600    0.000    1.600 
#    3.600    0.000    0.000    0.000    0.000    0.000 
#    0.000    0.000    0.000    0.000    0.000    0.000 
#
# Total GULP energy -111762.272816 kJ/mol
# GULP energy per Si atom -5588.113641 kJ/mol
# Density = 2.435018 g / cm^3
# Si number density = 24.405725 Si / 1000 Ang^3
#
#
#
# Elastic Constant Matrix: (Units=GPa)
#
#
# Indices 1 2 3 4 5 6 
#
# 1 97.1639 33.8454 0.3272 0.0000 0.6306 0.0000
# 2 33.8454 128.3321 0.9764 0.0000 13.5896 0.0000
# 3 0.3272 0.9764 30.2117 0.0000 -4.7508 0.0000
# 4 0.0000 0.0000 0.0000 11.9459 0.0000 -0.4976
# 5 0.6306 13.5896 -4.7508 0.0000 34.9552 0.0000
# 6 0.0000 0.0000 0.0000 -0.4976 0.0000 27.6150
#
#
#
# Elastic Compliance Matrix: (Units=1/GPa)
#
#
# Indices 1 2 3 4 5 6 
#
# 1 0.011367 -0.003107 0.000138 0.000000 0.001022 0.000000
# 2 -0.003107 0.008994 -0.000815 0.000000 -0.003551 0.000000
# 3 0.000138 -0.000815 0.033899 0.000000 0.004922 0.000000
# 4 0.000000 0.000000 0.000000 0.083773 0.000000 0.001510
# 5 0.001022 -0.003551 0.004922 0.000000 0.030639 0.000000
# 6 0.000000 0.000000 0.000000 0.001510 0.000000 0.036239
#
#
# Mechanical properties :
#
#
# Convention : Reuss Voigt Hill
#
# Bulk Modulus (GPa) = 21.41770 36.22287 28.82028
# Shear Modulus (GPa) = 21.92557 29.60716 25.76636
#
# Velocity S-wave (km/s) = 3.00055 3.48677 3.25276
# Velocity P-wave (km/s) = 4.56060 5.57533 5.09330
#
# Compressibility (1/GPa) = 0.04669036
#
# Stress axis : x y z
#
# Youngs Moduli (GPa) = 87.97319 111.18512 29.49981
#
# Poissons Ratio (x) = 0.34547 -0.00407
# Poissons Ratio (y) = 0.27334 0.02406
# Poissons Ratio (z) = -0.01214 0.09067
#
# Static dielectric constant tensor:
#      x y z
#    x 2.029840 0.000000 0.019950 
#    y 0.000000 1.953030 0.000000 
#    z 0.019950 0.000000 1.960330 
# 
# From -- ./inp_files/166497.got.cif
#   From: 2010.05.17/outbox.cif.g08.bks.cpg/sg15_84_cif.got.tgz:166497.got - 2010.06.03 18:47:42.
