data_PCOD9268580
_publ_section_title
;
Structure prediction by ZEFSAII (Michael W. Deem and Ramdas Pophale) SiO2 
 PCOD9268580
Probable space group: C 2/C
;
_chemical_formula_sum "Si O2"
_cell_formula_units_Z 36
_cell_length_a 10.843824
_cell_length_b 28.379893
_cell_length_c 5.690041
_cell_angle_alpha 90.000000
_cell_angle_beta 106.961819
_cell_angle_gamma 90.000000
_cell_volume 1674.917038
_symmetry_space_group_name_H-M "C 2/C"
_symmetry_group_IT_number 15
_symmetry_cell_setting 'monoclinic'
loop_
_space_group_symop_operation_xyz
x,y,z
-x,y,1/2-z
-x,-y,-z
x,-y,1/2+z
1/2+x,1/2+y,z
1/2-x,1/2+y,1/2-z
1/2-x,1/2-y,-z
1/2+x,1/2-y,1/2+z
loop_
_atom_site_type_symbol
_atom_site_label
_atom_site_fract_x
_atom_site_fract_y
_atom_site_fract_z
Si Si1 0.155870 0.024706 0.332498
Si Si2 0.881559 0.308110 0.364494
Si Si3 0.219642 0.794262 0.676740
Si Si4 0.793222 0.123805 0.960312
Si Si5 0.500000 0.657685 0.750000
O O1 0.218093 0.076076 0.404191
O O2 0.000000 0.028706 0.250000
O O3 0.190099 0.996387 0.593925
O O4 0.802245 0.259585 0.265799
O O5 0.858864 0.303674 0.634478
O O6 0.820218 0.359409 0.275361
O O7 0.000000 0.304312 0.250000
O O8 0.106203 0.809490 0.432337
O O9 0.200246 0.830966 0.870656
O O10 0.925496 0.124197 0.888661
#
# Coordination Sequence:
#
# PCOD9268580 Si02
#       5
#     8   8   8   8   4
#     4  10  23  38  63  93 126 160 203 261 324 379
#     4  10  22  37  57  86 120 160 207 245 301 363
#     4  10  21  36  58  86 121 159 199 250 302 367
#     4  11  22  36  59  85 122 158 202 250 312 369
#     4  10  20  32  56  88 122 154 194 248 312 370
#
# _framework density 21.493601000000002
#
# number of rings (size 3 to 8) (size 9 to 14) (size 15 to 20)
#    0.000    1.778    0.000    4.000   10.889    4.444 
#    0.000    0.000    0.000    1.333    0.000    0.000 
#    0.000    0.000    0.000    0.000    0.000    0.000 
#
# Total GULP energy -100247.998553 kJ/mol
# GULP energy per Si atom -5569.333253 kJ/mol
# Density = 2.144468 g / cm^3
# Si number density = 21.493601 Si / 1000 Ang^3
#
#
#
# Elastic Constant Matrix: (Units=GPa)
#
#
# Indices 1 2 3 4 5 6 
#
# 1 111.0673 -6.8612 14.8893 0.0000 -26.3259 0.0000
# 2 -6.8612 107.8139 30.1919 0.0000 0.1439 0.0000
# 3 14.8893 30.1919 66.0339 0.0000 -21.5878 0.0000
# 4 0.0000 0.0000 0.0000 0.1513 0.0000 -1.1115
# 5 -26.3259 0.1439 -21.5878 0.0000 32.0540 0.0000
# 6 0.0000 0.0000 0.0000 -1.1115 0.0000 17.4766
#
#
#
# Elastic Compliance Matrix: (Units=1/GPa)
#
#
# Indices 1 2 3 4 5 6 
#
# 1 0.011236 0.000633 0.000247 0.000000 0.009392 0.000000
# 2 0.000633 0.011147 -0.006522 0.000000 -0.003922 0.000000
# 3 0.000247 -0.006522 0.023269 0.000000 0.015904 0.000000
# 4 0.000000 0.000000 0.000000 12.399711 0.000000 0.788642
# 5 0.009392 -0.003922 0.015904 0.000000 0.049639 0.000000
# 6 0.000000 0.000000 0.000000 0.788642 0.000000 0.107378
#
#
# Mechanical properties :
#
#
# Convention : Reuss Voigt Hill
#
# Bulk Modulus (GPa) = 29.09557 40.15055 34.62306
# Shear Modulus (GPa) = 0.39604 26.38273 13.38939
#
# Velocity S-wave (km/s) = 0.42972 3.50733 2.49860
# Velocity P-wave (km/s) = 3.71651 5.92643 4.94646
#
# Compressibility (1/GPa) = 0.03436949
#
# Stress axis : x y z
#
# Youngs Moduli (GPa) = 89.00326 89.70950 42.97554
#
# Poissons Ratio (x) = -0.05681 -0.01063
# Poissons Ratio (y) = -0.05636 0.28027
# Poissons Ratio (z) = -0.02202 0.58506
#
# Static dielectric constant tensor:
#      x y z
#    x 1.845100 0.000000 0.022520 
#    y 0.000000 1.740750 0.000000 
#    z 0.022520 0.000000 1.990910 
# 
# From -- ./inp_files/4685.got.cif
#   From: 2010.05.17/outbox.cif.g08.bks.cpg/sg15_3_cif.got.tgz:4685.got - 2010.06.03 18:47:42.
