data_PCOD9268363
_publ_section_title
;
Structure prediction by ZEFSAII (Michael W. Deem and Ramdas Pophale) SiO2 
 PCOD9268363
Probable space group: C 2/C
;
_chemical_formula_sum "Si O2"
_cell_formula_units_Z 52
_cell_length_a 6.415770
_cell_length_b 20.044307
_cell_length_c 26.480998
_cell_angle_alpha 90.000000
_cell_angle_beta 122.939640
_cell_angle_gamma 90.000000
_cell_volume 2858.000880
_symmetry_space_group_name_H-M "C 2/C"
_symmetry_group_IT_number 15
_symmetry_cell_setting 'monoclinic'
loop_
_space_group_symop_operation_xyz
x,y,z
-x,y,1/2-z
-x,-y,-z
x,-y,1/2+z
1/2+x,1/2+y,z
1/2-x,1/2+y,1/2-z
1/2-x,1/2-y,-z
1/2+x,1/2-y,1/2+z
loop_
_atom_site_type_symbol
_atom_site_label
_atom_site_fract_x
_atom_site_fract_y
_atom_site_fract_z
Si Si1 0.123287 0.714647 0.530745
Si Si2 0.500000 0.041752 0.250000
Si Si3 0.815546 0.572047 0.923365
Si Si4 0.760090 0.490140 0.312292
Si Si5 0.065875 0.178314 0.422047
Si Si6 0.509358 0.376684 0.808055
Si Si7 0.124617 0.035888 0.469179
O O1 0.250000 0.750000 0.500000
O O2 0.246020 0.645631 0.564851
O O3 0.105262 0.766152 0.574825
O O4 0.844392 0.695912 0.476423
O O5 0.254157 0.087151 0.216333
O O6 0.466532 0.998385 0.296311
O O7 0.810124 0.562031 0.862755
O O8 0.639653 0.517039 0.925869
O O9 0.094352 0.554709 0.978171
O O10 0.500000 0.475173 0.250000
O O11 0.712740 0.563395 0.331344
O O12 0.000974 0.104939 0.435438
O O13 0.059343 0.172166 0.360821
O O14 0.500000 0.347633 0.750000
O O15 0.000000 0.000000 0.500000
#
# Coordination Sequence:
#
# PCOD9268363 Si02
#       7
#     8   4   8   8   8   8   8
#     4  10  22  37  54  75 108 148 178 221 279 325
#     4   8  18  30  52  84 102 144 166 206 284 312
#     4  10  20  34  52  79 107 136 179 220 264 326
#     4   9  18  32  51  78 110 132 169 219 260 314
#     4  10  20  36  53  79 109 138 180 226 268 330
#     4   9  18  33  53  79 108 134 177 224 261 316
#     4  10  20  31  53  83 105 134 173 220 275 319
#
# _framework density 18.194534999999998
#
# number of rings (size 3 to 8) (size 9 to 14) (size 15 to 20)
#    0.000    2.769    1.538    0.923    2.154    2.462 
#    0.000    0.000    6.769    0.000    0.000    0.000 
#    0.000    0.000    0.000    0.000    0.000    0.000 
#
# Total GULP energy -144958.190414 kJ/mol
# GULP energy per Si atom -5575.315016 kJ/mol
# Density = 1.815312 g / cm^3
# Si number density = 18.194535 Si / 1000 Ang^3
#
#
#
# Elastic Constant Matrix: (Units=GPa)
#
#
# Indices 1 2 3 4 5 6 
#
# 1 67.4146 32.2427 17.5327 0.0000 -33.2408 0.0000
# 2 32.2427 116.8998 49.0234 0.0000 -24.5325 0.0000
# 3 17.5327 49.0234 107.3797 0.0000 -40.6493 0.0000
# 4 0.0000 0.0000 0.0000 33.5066 0.0000 -16.6986
# 5 -33.2408 -24.5325 -40.6493 0.0000 33.0291 0.0000
# 6 0.0000 0.0000 0.0000 -16.6986 0.0000 13.1449
#
#
#
# Elastic Compliance Matrix: (Units=1/GPa)
#
#
# Indices 1 2 3 4 5 6 
#
# 1 0.045610 -0.007509 0.021057 0.000000 0.066240 0.000000
# 2 -0.007509 0.012048 -0.007017 0.000000 -0.007245 0.000000
# 3 0.021057 -0.007017 0.028323 0.000000 0.050837 0.000000
# 4 0.000000 0.000000 0.000000 0.081342 0.000000 0.103332
# 5 0.066240 -0.007245 0.050837 0.000000 0.154126 0.000000
# 6 0.000000 0.000000 0.000000 0.103332 0.000000 0.207343
#
#
# Mechanical properties :
#
#
# Convention : Reuss Voigt Hill
#
# Bulk Modulus (GPa) = 10.09667 54.36575 32.23121
# Shear Modulus (GPa) = 9.11170 28.79582 18.95376
#
# Velocity S-wave (km/s) = 2.24027 3.98259 3.23108
# Velocity P-wave (km/s) = 3.50044 7.14794 5.62789
#
# Compressibility (1/GPa) = 0.09904255
#
# Stress axis : x y z
#
# Youngs Moduli (GPa) = 21.92481 83.00313 35.30709
#
# Poissons Ratio (x) = 0.62331 -0.74345
# Poissons Ratio (y) = 0.16464 0.24774
# Poissons Ratio (z) = -0.46167 0.58240
#
# Static dielectric constant tensor:
#      x y z
#    x 1.628810 0.000000 -0.004630 
#    y 0.000000 1.624930 0.000000 
#    z -0.004630 0.000000 1.644680 
# 
# From -- ./inp_files/261597.got.cif
#   From: 2010.05.17/outbox.cif.g08.bks.cpg/sg15_131_cif.got.tgz:261597.got - 2010.06.03 18:47:42.
