data_PCOD9268333
_publ_section_title
;
Structure prediction by ZEFSAII (Michael W. Deem and Ramdas Pophale) SiO2 
 PCOD9268333
Probable space group: C 2/C
;
_chemical_formula_sum "Si O2"
_cell_formula_units_Z 56
_cell_length_a 5.504169
_cell_length_b 24.553710
_cell_length_c 21.189502
_cell_angle_alpha 90.000000
_cell_angle_beta 114.439283
_cell_angle_gamma 90.000000
_cell_volume 2607.125778
_symmetry_space_group_name_H-M "C 2/C"
_symmetry_group_IT_number 15
_symmetry_cell_setting 'monoclinic'
loop_
_space_group_symop_operation_xyz
x,y,z
-x,y,1/2-z
-x,-y,-z
x,-y,1/2+z
1/2+x,1/2+y,z
1/2-x,1/2+y,1/2-z
1/2-x,1/2-y,-z
1/2+x,1/2-y,1/2+z
loop_
_atom_site_type_symbol
_atom_site_label
_atom_site_fract_x
_atom_site_fract_y
_atom_site_fract_z
Si Si1 0.506072 0.224438 0.824087
Si Si2 0.635174 0.950391 0.933469
Si Si3 0.032910 0.228638 0.055012
Si Si4 0.844411 0.616950 0.866357
Si Si5 0.310494 0.002992 0.790706
Si Si6 0.250725 0.571657 0.999584
Si Si7 0.056002 0.824104 0.434437
O O1 0.500000 0.238078 0.750000
O O2 0.453759 0.273800 0.867726
O O3 0.326587 0.170991 0.821413
O O4 0.792607 0.201533 0.875733
O O5 0.439057 0.918622 0.960391
O O6 0.934137 0.928869 0.953998
O O7 0.466034 0.961505 0.852783
O O8 0.684692 0.010514 0.968674
O O9 0.225239 0.278547 0.060239
O O10 0.750000 0.250000 0.000000
O O11 0.080667 0.178602 0.013131
O O12 0.798728 0.562562 0.822370
O O13 0.640067 0.623182 0.903026
O O14 0.135076 0.610456 0.931603
O O15 0.500000 0.008226 0.750000
O O16 0.000000 0.986649 0.750000
#
# Coordination Sequence:
#
# PCOD9268333 Si02
#       7
#     8   8   8   8   8   8   8
#     4  10  20  31  48  77 118 152 185 221 286 354
#     4   9  18  34  51  69  99 142 186 231 267 329
#     4   8  16  33  50  70  98 149 189 229 260 330
#     4  10  22  29  48  77 111 151 177 237 291 352
#     4  11  23  35  52  77 115 151 189 229 292 357
#     4   9  18  32  51  70 100 139 188 230 275 319
#     4   9  18  32  51  70 110 146 188 223 277 330
#
# _framework density 21.479593000000001
#
# number of rings (size 3 to 8) (size 9 to 14) (size 15 to 20)
#    0.000    2.571    0.000    1.286    6.000    4.000 
#    0.000    0.000    0.000    0.000    0.000    0.000 
#   25.714    1.143    0.000    0.000    0.000    0.000 
#
# Total GULP energy -156047.893706 kJ/mol
# GULP energy per Si atom -5573.139061 kJ/mol
# Density = 2.143070 g / cm^3
# Si number density = 21.479593 Si / 1000 Ang^3
#
#
#
# Elastic Constant Matrix: (Units=GPa)
#
#
# Indices 1 2 3 4 5 6 
#
# 1 134.4041 13.6384 67.5677 0.0000 1.0917 0.0000
# 2 13.6384 23.6436 29.0005 0.0000 -7.2208 0.0000
# 3 67.5677 29.0005 172.5209 0.0000 -25.5472 0.0000
# 4 0.0000 0.0000 0.0000 26.0320 0.0000 -1.0346
# 5 1.0917 -7.2208 -25.5472 0.0000 44.3658 0.0000
# 6 0.0000 0.0000 0.0000 -1.0346 0.0000 19.0220
#
#
#
# Elastic Compliance Matrix: (Units=1/GPa)
#
#
# Indices 1 2 3 4 5 6 
#
# 1 0.009579 -0.001590 -0.003889 0.000000 -0.002734 0.000000
# 2 -0.001590 0.054150 -0.007837 0.000000 0.004340 0.000000
# 3 -0.003889 -0.007837 0.009251 0.000000 0.004147 0.000000
# 4 0.000000 0.000000 0.000000 0.038498 0.000000 0.002094
# 5 -0.002734 0.004340 0.004147 0.000000 0.025702 0.000000
# 6 0.000000 0.000000 0.000000 0.002094 0.000000 0.052685
#
#
# Mechanical properties :
#
#
# Convention : Reuss Voigt Hill
#
# Bulk Modulus (GPa) = 21.57619 61.22021 41.39820
# Shear Modulus (GPa) = 21.55674 32.57475 27.06574
#
# Velocity S-wave (km/s) = 3.17139 3.89851 3.55359
# Velocity P-wave (km/s) = 4.84531 6.98770 6.01269
#
# Compressibility (1/GPa) = 0.04634738
#
# Stress axis : x y z
#
# Youngs Moduli (GPa) = 104.39536 18.46715 108.09476
#
# Poissons Ratio (x) = 0.02936 0.42040
# Poissons Ratio (y) = 0.16600 0.84716
# Poissons Ratio (z) = 0.40601 0.14473
#
# Static dielectric constant tensor:
#      x y z
#    x 1.895270 0.000000 -0.057960 
#    y 0.000000 1.775970 0.000000 
#    z -0.057960 0.000000 1.801410 
# 
# From -- ./inp_files/186582.got.cif
#   From: 2010.05.17/outbox.cif.g08.bks.cpg/sg15_94_cif.got.tgz:186582.got - 2010.06.03 18:47:42.
