data_PCOD9268276
_publ_section_title
;
Structure prediction by ZEFSAII (Michael W. Deem and Ramdas Pophale) SiO2 
 PCOD9268276
Probable space group: C 2/C
;
_chemical_formula_sum "Si O2"
_cell_formula_units_Z 52
_cell_length_a 19.766076
_cell_length_b 5.391197
_cell_length_c 19.143202
_cell_angle_alpha 90.000000
_cell_angle_beta 76.050232
_cell_angle_gamma 90.000000
_cell_volume 1979.789962
_symmetry_space_group_name_H-M "C 2/C"
_symmetry_group_IT_number 15
_symmetry_cell_setting 'monoclinic'
loop_
_space_group_symop_operation_xyz
x,y,z
-x,y,1/2-z
-x,-y,-z
x,-y,1/2+z
1/2+x,1/2+y,z
1/2-x,1/2+y,1/2-z
1/2-x,1/2-y,-z
1/2+x,1/2-y,1/2+z
loop_
_atom_site_type_symbol
_atom_site_label
_atom_site_fract_x
_atom_site_fract_y
_atom_site_fract_z
Si Si1 0.570820 0.611828 0.950688
Si Si2 0.112753 0.265208 0.083895
Si Si3 0.724669 0.603814 0.152917
Si Si4 0.000000 0.890796 0.250000
Si Si5 0.475212 0.013392 0.142551
Si Si6 0.732982 0.121554 0.079443
Si Si7 0.874575 0.846618 0.703100
O O1 0.619637 0.662461 0.004397
O O2 0.545797 0.871770 0.925196
O O3 0.605880 0.461473 0.877710
O O4 0.500000 0.500000 0.000000
O O5 0.154421 0.085478 0.123778
O O6 0.031694 0.297604 0.120722
O O7 0.153376 0.525183 0.084937
O O8 0.757286 0.338248 0.126960
O O9 0.698497 0.626138 0.238944
O O10 0.756614 0.856410 0.111285
O O11 0.012981 0.711158 0.181528
O O12 0.066707 0.038430 0.259927
O O13 0.401221 0.936715 0.194134
O O14 0.750000 0.250000 0.000000
#
# Coordination Sequence:
#
# PCOD9268276 Si02
#       7
#     8   8   8   4   8   8   8
#     4  11  24  35  52  88 135 178 216 249 312 406
#     4  10  22  35  60  88 127 170 216 258 330 378
#     4  10  23  38  67  93 123 159 215 275 336 377
#     4  10  20  30  50  76 122 160 216 250 302 352
#     4  11  21  34  53  83 131 167 211 250 307 388
#     4  10  23  42  68  96 120 152 222 285 340 374
#     4  11  22  34  54  85 126 171 215 252 317 393
#
# _framework density 26.265412000000001
#
# number of rings (size 3 to 8) (size 9 to 14) (size 15 to 20)
#    0.923    0.615    1.538    4.154    8.615    0.000 
#    0.000    0.000    0.000    0.000    8.000    0.000 
#    0.000    0.000    0.000    0.000    0.000    0.000 
#
# Total GULP energy -145019.156877 kJ/mol
# GULP energy per Si atom -5577.659880 kJ/mol
# Density = 2.620563 g / cm^3
# Si number density = 26.265412 Si / 1000 Ang^3
#
#
#
# Elastic Constant Matrix: (Units=GPa)
#
#
# Indices 1 2 3 4 5 6 
#
# 1 55.7257 5.1263 29.8958 0.0000 -4.2269 0.0000
# 2 5.1263 119.3194 37.0337 -0.0001 -8.1213 0.0000
# 3 29.8958 37.0337 147.2388 0.0000 -1.1071 0.0000
# 4 0.0000 -0.0001 0.0000 242.6930 0.0000 2.3161
# 5 -4.2269 -8.1213 -1.1071 0.0000 49.0117 0.0000
# 6 0.0000 0.0000 0.0000 2.3161 0.0000 25.0059
#
#
#
# Elastic Compliance Matrix: (Units=1/GPa)
#
#
# Indices 1 2 3 4 5 6 
#
# 1 0.020307 0.000566 -0.004253 0.000000 0.001749 0.000000
# 2 0.000566 0.009211 -0.002420 0.000000 0.001521 0.000000
# 3 -0.004253 -0.002420 0.008260 0.000000 -0.000581 0.000000
# 4 0.000000 0.000000 0.000000 0.004124 0.000000 -0.000382
# 5 0.001749 0.001521 -0.000581 0.000000 0.020793 0.000000
# 6 0.000000 0.000000 0.000000 -0.000382 0.000000 0.040026
#
#
# Mechanical properties :
#
#
# Convention : Reuss Voigt Hill
#
# Bulk Modulus (GPa) = 39.11612 51.82173 45.46893
# Shear Modulus (GPa) = 40.50043 80.02398 60.26220
#
# Velocity S-wave (km/s) = 3.93105 5.52572 4.79514
# Velocity P-wave (km/s) = 5.96064 7.77717 6.92869
#
# Compressibility (1/GPa) = 0.02556491
#
# Stress axis : x y z
#
# Youngs Moduli (GPa) = 49.24403 108.56284 121.07191
#
# Poissons Ratio (x) = -0.06150 0.51486
# Poissons Ratio (y) = -0.02790 0.29304
# Poissons Ratio (z) = 0.20941 0.26277
#
# Static dielectric constant tensor:
#      x y z
#    x 2.030390 0.000000 -0.043190 
#    y 0.000000 2.233620 0.000000 
#    z -0.043190 0.000000 2.068960 
# 
# From -- ./inp_files/223582.got.cif
#   From: 2010.05.17/outbox.cif.g08.bks.cpg/sg15_112_cif.got.tgz:223582.got - 2010.06.03 18:47:42.
