data_PCOD9268268
_publ_section_title
;
Structure prediction by ZEFSAII (Michael W. Deem and Ramdas Pophale) SiO2 
 PCOD9268268
Probable space group: C 2/C
;
_chemical_formula_sum "Si O2"
_cell_formula_units_Z 52
_cell_length_a 22.906508
_cell_length_b 16.080215
_cell_length_c 8.166531
_cell_angle_alpha 90.000000
_cell_angle_beta 108.835947
_cell_angle_gamma 90.000000
_cell_volume 2846.981210
_symmetry_space_group_name_H-M "C 2/C"
_symmetry_group_IT_number 15
_symmetry_cell_setting 'monoclinic'
loop_
_space_group_symop_operation_xyz
x,y,z
-x,y,1/2-z
-x,-y,-z
x,-y,1/2+z
1/2+x,1/2+y,z
1/2-x,1/2+y,1/2-z
1/2-x,1/2-y,-z
1/2+x,1/2-y,1/2+z
loop_
_atom_site_type_symbol
_atom_site_label
_atom_site_fract_x
_atom_site_fract_y
_atom_site_fract_z
Si Si1 0.797587 0.656317 0.676446
Si Si2 0.675069 0.744324 0.629881
Si Si3 0.454834 0.930529 0.034138
Si Si4 0.864100 0.678241 0.061866
Si Si5 0.534293 0.266764 0.944392
Si Si6 0.868431 0.494031 0.696962
Si Si7 0.000000 0.747202 0.250000
O O1 0.728259 0.675447 0.669631
O O2 0.807326 0.692241 0.501774
O O3 0.815894 0.560053 0.681050
O O4 0.841074 0.699710 0.856885
O O5 0.669542 0.779371 0.811719
O O6 0.606803 0.716020 0.515349
O O7 0.474205 0.834647 0.048852
O O8 0.428136 0.954682 0.186262
O O9 0.392692 0.941173 0.871642
O O10 0.500000 0.000000 0.000000
O O11 0.852698 0.579490 0.058818
O O12 0.937080 0.694842 0.160404
O O13 0.500000 0.293785 0.750000
O O14 0.508036 0.299077 0.091976
#
# Coordination Sequence:
#
# PCOD9268268 Si02
#       7
#     8   8   8   8   8   8   4
#     4  11  22  36  52  68 101 147 183 221 249 299
#     4  10  22  38  50  71 100 143 187 212 256 314
#     4  12  22  29  45  73 106 137 171 208 247 302
#     4  11  21  35  52  74 105 141 174 216 264 305
#     4  11  20  34  49  72 103 136 169 210 256 301
#     4  12  20  32  47  72 101 135 181 215 251 296
#     4  10  20  30  48  74 102 132 172 204 244 310
#
# _framework density 18.264961
#
# number of rings (size 3 to 8) (size 9 to 14) (size 15 to 20)
#    0.000    0.923    6.154    3.692    0.000    0.000 
#    0.000    0.000    0.000    0.000    0.000    0.000 
#    0.000    1.231    3.846    2.769    1.231    0.308 
#
# Total GULP energy -144834.680630 kJ/mol
# GULP energy per Si atom -5570.564640 kJ/mol
# Density = 1.822339 g / cm^3
# Si number density = 18.264961 Si / 1000 Ang^3
#
#
#
# Elastic Constant Matrix: (Units=GPa)
#
#
# Indices 1 2 3 4 5 6 
#
# 1 109.1519 22.9562 17.2164 0.0000 -3.6138 0.0000
# 2 22.9562 15.9419 1.0736 0.0000 3.2541 0.0000
# 3 17.2164 1.0736 84.6732 0.0000 -2.6563 0.0000
# 4 0.0000 0.0000 0.0000 13.8446 0.0000 2.1212
# 5 -3.6138 3.2541 -2.6563 0.0000 28.1801 0.0000
# 6 0.0000 0.0000 0.0000 2.1212 0.0000 30.9535
#
#
#
# Elastic Compliance Matrix: (Units=1/GPa)
#
#
# Indices 1 2 3 4 5 6 
#
# 1 0.014086 -0.020932 -0.002473 0.000000 0.003990 0.000000
# 2 -0.020932 0.095439 0.002624 0.000000 -0.013458 0.000000
# 3 -0.002473 0.002624 0.012297 0.000000 0.000539 0.000000
# 4 0.000000 0.000000 0.000000 0.072997 0.000000 -0.005002
# 5 0.003990 -0.013458 0.000539 0.000000 0.037603 0.000000
# 6 0.000000 0.000000 0.000000 -0.005002 0.000000 0.032649
#
#
# Mechanical properties :
#
#
# Convention : Reuss Voigt Hill
#
# Bulk Modulus (GPa) = 12.45965 32.47328 22.46646
# Shear Modulus (GPa) = 14.99758 25.83035 20.41397
#
# Velocity S-wave (km/s) = 2.86861 3.76467 3.34676
# Velocity P-wave (km/s) = 4.21999 6.05925 5.22125
#
# Compressibility (1/GPa) = 0.08025909
#
# Stress axis : x y z
#
# Youngs Moduli (GPa) = 70.99225 10.47786 81.32271
#
# Poissons Ratio (x) = 0.21932 0.20115
# Poissons Ratio (y) = 1.48599 -0.21337
# Poissons Ratio (z) = 0.17560 -0.02749
#
# Static dielectric constant tensor:
#      x y z
#    x 1.677400 0.000000 -0.026910 
#    y 0.000000 1.616890 0.000000 
#    z -0.026910 0.000000 1.813610 
# 
# From -- ./inp_files/62285.got.cif
#   From: 2010.05.17/outbox.cif.g08.bks.cpg/sg15_32_cif.got.tgz:62285.got - 2010.06.03 18:47:42.
