data_PCOD9268294
_publ_section_title
;
Structure prediction by ZEFSAII (Michael W. Deem and Ramdas Pophale) SiO2 
 PCOD9268294
Probable space group: C 2/C
;
_chemical_formula_sum "Si O2"
_cell_formula_units_Z 52
_cell_length_a 18.297145
_cell_length_b 14.647196
_cell_length_c 14.327769
_cell_angle_alpha 90.000000
_cell_angle_beta 129.051232
_cell_angle_gamma 90.000000
_cell_volume 2981.976632
_symmetry_space_group_name_H-M "C 2/C"
_symmetry_group_IT_number 15
_symmetry_cell_setting 'monoclinic'
loop_
_space_group_symop_operation_xyz
x,y,z
-x,y,1/2-z
-x,-y,-z
x,-y,1/2+z
1/2+x,1/2+y,z
1/2-x,1/2+y,1/2-z
1/2-x,1/2-y,-z
1/2+x,1/2-y,1/2+z
loop_
_atom_site_type_symbol
_atom_site_label
_atom_site_fract_x
_atom_site_fract_y
_atom_site_fract_z
Si Si1 0.301525 0.997030 0.148082
Si Si2 0.888982 0.744713 0.663699
Si Si3 0.971115 0.404811 0.528605
Si Si4 0.796948 0.334809 0.272342
Si Si5 0.000000 0.522839 0.250000
Si Si6 0.245180 0.391782 0.556100
Si Si7 0.176546 0.659850 0.199119
O O1 0.258853 0.924087 0.186581
O O2 0.412511 0.970430 0.224862
O O3 0.302328 0.096649 0.193913
O O4 0.261328 0.981595 0.012519
O O5 0.853741 0.718310 0.737740
O O6 0.835146 0.677607 0.548663
O O7 0.844031 0.844160 0.612460
O O8 0.000000 0.740523 0.750000
O O9 0.874503 0.367277 0.408873
O O10 0.959979 0.421977 0.630111
O O11 0.000000 0.500000 0.500000
O O12 0.063952 0.341991 0.592398
O O13 0.719597 0.261038 0.241918
O O14 0.223135 0.392827 0.647757
#
# Coordination Sequence:
#
# PCOD9268294 Si02
#       7
#     8   8   8   8   4   8   8
#     4  10  20  32  51  82 110 140 178 222 271 317
#     4   9  17  29  49  78 103 132 169 220 279 314
#     4  11  19  35  56  81 110 142 176 232 267 315
#     4  10  20  32  53  81 111 142 176 223 274 317
#     4  10  20  30  54  84 102 140 182 222 280 308
#     4   9  18  29  49  75 106 135 169 221 265 313
#     4  10  20  34  53  83 111 140 179 220 274 323
#
# _framework density 17.438098
#
# number of rings (size 3 to 8) (size 9 to 14) (size 15 to 20)
#    0.000    2.154    3.077    2.769    4.308    0.000 
#    0.000    3.077    0.000    8.308    0.000    0.000 
#    0.000    0.000    0.000    0.000    0.000    0.000 
#
# Total GULP energy -144779.043436 kJ/mol
# GULP energy per Si atom -5568.424748 kJ/mol
# Density = 1.739841 g / cm^3
# Si number density = 17.438098 Si / 1000 Ang^3
#
#
#
# Elastic Constant Matrix: (Units=GPa)
#
#
# Indices 1 2 3 4 5 6 
#
# 1 49.9870 21.9280 12.1112 0.0000 4.0360 0.0000
# 2 21.9280 54.0630 16.5556 0.0000 6.2529 0.0000
# 3 12.1112 16.5556 70.2675 0.0000 -8.6475 0.0000
# 4 0.0000 0.0000 0.0000 31.7751 0.0000 1.5174
# 5 4.0360 6.2529 -8.6475 0.0000 34.8890 0.0000
# 6 0.0000 0.0000 0.0000 1.5174 0.0000 24.9976
#
#
#
# Elastic Compliance Matrix: (Units=1/GPa)
#
#
# Indices 1 2 3 4 5 6 
#
# 1 0.024708 -0.009097 -0.002338 0.000000 -0.001807 0.000000
# 2 -0.009097 0.024126 -0.004661 0.000000 -0.004427 0.000000
# 3 -0.002338 -0.004661 0.016368 0.000000 0.005163 0.000000
# 4 0.000000 0.000000 0.000000 0.031563 0.000000 -0.001916
# 5 -0.001807 -0.004427 0.005163 0.000000 0.030944 0.000000
# 6 0.000000 0.000000 0.000000 -0.001916 0.000000 0.040120
#
#
# Mechanical properties :
#
#
# Convention : Reuss Voigt Hill
#
# Bulk Modulus (GPa) = 30.29339 30.61190 30.45265
# Shear Modulus (GPa) = 23.69401 26.58052 25.13726
#
# Velocity S-wave (km/s) = 3.69012 3.90844 3.80085
# Velocity P-wave (km/s) = 5.96370 6.16121 6.06326
#
# Compressibility (1/GPa) = 0.03301050
#
# Stress axis : x y z
#
# Youngs Moduli (GPa) = 40.47268 41.44915 61.09547
#
# Poissons Ratio (x) = 0.37705 0.14283
# Poissons Ratio (y) = 0.36817 0.28478
# Poissons Ratio (z) = 0.09462 0.19320
#
# Static dielectric constant tensor:
#      x y z
#    x 1.611510 0.000000 -0.010050 
#    y 0.000000 1.642350 0.000000 
#    z -0.010050 0.000000 1.643540 
# 
# From -- ./inp_files/161844.got.cif
#   From: 2010.05.17/outbox.cif.g08.bks.cpg/sg15_81_cif.got.tgz:161844.got - 2010.06.03 18:47:42.
