data_PCOD9268291
_publ_section_title
;
Structure prediction by ZEFSAII (Michael W. Deem and Ramdas Pophale) SiO2 
 PCOD9268291
Probable space group: C 2/C
;
_chemical_formula_sum "Si O2"
_cell_formula_units_Z 28
_cell_length_a 23.657501
_cell_length_b 6.854289
_cell_length_c 21.043178
_cell_angle_alpha 90.000000
_cell_angle_beta 163.231597
_cell_angle_gamma 90.000000
_cell_volume 984.451156
_symmetry_space_group_name_H-M "C 2/C"
_symmetry_group_IT_number 15
_symmetry_cell_setting 'monoclinic'
loop_
_space_group_symop_operation_xyz
x,y,z
-x,y,1/2-z
-x,-y,-z
x,-y,1/2+z
1/2+x,1/2+y,z
1/2-x,1/2+y,1/2-z
1/2-x,1/2-y,-z
1/2+x,1/2-y,1/2+z
loop_
_atom_site_type_symbol
_atom_site_label
_atom_site_fract_x
_atom_site_fract_y
_atom_site_fract_z
Si Si1 0.000000 0.110919 0.750000
Si Si2 0.902153 0.479147 0.731790
Si Si3 0.739352 0.466021 0.826756
Si Si4 0.698809 0.586277 0.137629
O O1 0.053356 0.263371 0.750614
O O2 0.806639 0.987331 0.526733
O O3 0.846490 0.508530 0.746644
O O4 0.109139 0.594137 0.954668
O O5 0.508227 0.477189 0.591066
O O6 0.756431 0.389834 0.773214
O O7 0.800726 0.692153 0.884758
#
# Coordination Sequence:
#
# PCOD9268291 Si02
#       4
#     4   8   8   8
#     4  10  20  30  54  76 108 142 180 216 272 300
#     4  11  19  34  49  78 112 138 174 229 260 311
#     4  11  21  34  54  81 114 139 176 218 269 322
#     4  11  21  34  54  81 114 139 176 218 269 322
#
# _framework density 28.442245
#
# number of rings (size 3 to 8) (size 9 to 14) (size 15 to 20)
#    0.000    1.143    5.714    0.857    4.000    0.000 
#    0.000    0.000    0.000    0.000    0.000    6.000 
#    0.000    0.000    0.000    0.000    0.000    0.000 
#
# Total GULP energy -78169.955015 kJ/mol
# GULP energy per Si atom -5583.568215 kJ/mol
# Density = 2.837751 g / cm^3
# Si number density = 28.442245 Si / 1000 Ang^3
#
#
#
# Elastic Constant Matrix: (Units=GPa)
#
#
# Indices 1 2 3 4 5 6 
#
# 1 150.5900 15.5862 43.0402 0.0016 21.4330 0.0005
# 2 15.5862 67.8224 25.1643 0.0024 -1.1516 0.0013
# 3 43.0402 25.1643 285.0174 0.0032 8.5606 0.0027
# 4 0.0016 0.0024 0.0032 2.3249 0.0019 -5.6793
# 5 21.4330 -1.1516 8.5606 0.0019 25.6324 0.0012
# 6 0.0005 0.0013 0.0027 -5.6793 0.0012 46.2276
#
#
#
# Elastic Compliance Matrix: (Units=1/GPa)
#
#
# Indices 1 2 3 4 5 6 
#
# 1 0.007974 -0.001620 -0.000867 0.000004 -0.006451 0.000001
# 2 -0.001620 0.015606 -0.001207 -0.000023 0.002459 -0.000003
# 3 -0.000867 -0.001207 0.003764 -0.000005 -0.000586 -0.000001
# 4 0.000004 -0.000023 -0.000005 0.614579 -0.000052 0.075504
# 5 -0.006451 0.002459 -0.000586 -0.000052 0.044713 -0.000007
# 6 0.000001 -0.000003 -0.000001 0.075504 -0.000007 0.030908
#
#
# Mechanical properties :
#
#
# Convention : Reuss Voigt Hill
#
# Bulk Modulus (GPa) = 50.11296 74.55678 62.33487
# Shear Modulus (GPa) = 6.83447 42.81291 24.82369
#
# Velocity S-wave (km/s) = 1.55182 3.88397 2.95748
# Velocity P-wave (km/s) = 4.56818 6.81058 5.79881
#
# Compressibility (1/GPa) = 0.01995492
#
# Stress axis : x y z
#
# Youngs Moduli (GPa) = 125.40290 64.07646 265.69519
#
# Poissons Ratio (x) = 0.10382 0.23046
# Poissons Ratio (y) = 0.20319 0.32071
# Poissons Ratio (z) = 0.10877 0.07735
#
# Static dielectric constant tensor:
#      x y z
#    x 2.195450 0.000000 -0.048700 
#    y 0.000000 2.378020 0.000000 
#    z -0.048700 0.000000 2.318790 
# 
# From -- ./inp_files/28222.got.cif
#   From: 2010.05.17/outbox.cif.g08.bks.cpg/sg15_15_cif.got.tgz:28222.got - 2010.06.03 18:47:42.
