data_PCOD9268325
_publ_section_title
;
Structure prediction by ZEFSAII (Michael W. Deem and Ramdas Pophale) SiO2 
 PCOD9268325
Probable space group: C 2/C
;
_chemical_formula_sum "Si O2"
_cell_formula_units_Z 36
_cell_length_a 32.006964
_cell_length_b 8.008051
_cell_length_c 5.480214
_cell_angle_alpha 90.000000
_cell_angle_beta 85.442313
_cell_angle_gamma 90.000000
_cell_volume 1400.210539
_symmetry_space_group_name_H-M "C 2/C"
_symmetry_group_IT_number 15
_symmetry_cell_setting 'monoclinic'
loop_
_space_group_symop_operation_xyz
x,y,z
-x,y,1/2-z
-x,-y,-z
x,-y,1/2+z
1/2+x,1/2+y,z
1/2-x,1/2+y,1/2-z
1/2-x,1/2-y,-z
1/2+x,1/2-y,1/2+z
loop_
_atom_site_type_symbol
_atom_site_label
_atom_site_fract_x
_atom_site_fract_y
_atom_site_fract_z
Si Si1 0.500000 0.610496 0.750000
Si Si2 0.713967 0.380236 0.440020
Si Si3 0.205539 0.583613 0.141515
Si Si4 0.873885 0.174708 0.284880
Si Si5 0.592294 0.703711 0.732458
O O1 0.500000 0.500000 0.500000
O O2 0.542532 0.716996 0.732838
O O3 0.750000 0.250000 0.500000
O O4 0.744243 0.538163 0.382645
O O5 0.697090 0.274823 0.213372
O O6 0.674256 0.377781 0.637985
O O7 0.190410 0.476648 0.383597
O O8 0.890795 0.269030 0.516497
O O9 0.897720 0.996174 0.258693
O O10 0.884969 0.261425 0.025053
#
# Coordination Sequence:
#
# PCOD9268325 Si02
#       5
#     4   8   8   8   8
#     4  12  16  32  48  76 104 144 176 206 288 336
#     4  10  23  37  56  75 108 147 196 234 273 321
#     4  10  22  37  52  75  96 141 185 235 273 313
#     4  10  20  31  47  72 101 138 183 213 267 315
#     4  10  20  31  50  73 104 142 170 226 261 349
#
# _framework density 25.710419999999999
#
# number of rings (size 3 to 8) (size 9 to 14) (size 15 to 20)
#    0.000    1.778    4.444    0.667   12.444    3.556 
#    0.000    0.000    0.000    0.000    0.000    0.000 
#    0.000    0.000    0.000  136.000    0.000    0.000 
#
# Total GULP energy -100536.950136 kJ/mol
# GULP energy per Si atom -5585.386119 kJ/mol
# Density = 2.565190 g / cm^3
# Si number density = 25.710420 Si / 1000 Ang^3
#
#
#
# Elastic Constant Matrix: (Units=GPa)
#
#
# Indices 1 2 3 4 5 6 
#
# 1 166.3359 -1.1085 36.0182 0.0000 -28.6354 0.0000
# 2 -1.1085 31.0904 12.6185 0.0000 -17.4907 0.0000
# 3 36.0182 12.6185 246.3378 0.0000 9.0576 0.0000
# 4 0.0000 0.0000 0.0000 27.8280 0.0000 -4.8688
# 5 -28.6354 -17.4907 9.0576 0.0000 49.7356 0.0000
# 6 0.0000 0.0000 0.0000 -4.8688 0.0000 20.2839
#
#
#
# Elastic Compliance Matrix: (Units=1/GPa)
#
#
# Indices 1 2 3 4 5 6 
#
# 1 0.007413 0.004290 -0.001526 0.000000 0.006055 0.000000
# 2 0.004290 0.044291 -0.003584 0.000000 0.018699 0.000000
# 3 -0.001526 -0.003584 0.004575 0.000000 -0.002972 0.000000
# 4 0.000000 0.000000 0.000000 0.037510 0.000000 0.009004
# 5 0.006055 0.018699 -0.002972 0.000000 0.030710 0.000000
# 6 0.000000 0.000000 0.000000 0.009004 0.000000 0.051461
#
#
# Mechanical properties :
#
#
# Convention : Reuss Voigt Hill
#
# Bulk Modulus (GPa) = 18.30139 59.86896 39.08517
# Shear Modulus (GPa) = 25.53439 45.98524 35.75981
#
# Velocity S-wave (km/s) = 3.15485 4.23375 3.73348
# Velocity P-wave (km/s) = 4.51714 6.87284 5.81552
#
# Compressibility (1/GPa) = 0.05464066
#
# Stress axis : x y z
#
# Youngs Moduli (GPa) = 134.89025 22.57783 218.55540
#
# Poissons Ratio (x) = -0.09686 0.33359
# Poissons Ratio (y) = -0.57871 0.78322
# Poissons Ratio (z) = 0.20589 0.08091
#
# Static dielectric constant tensor:
#      x y z
#    x 2.031300 0.000000 0.108160 
#    y 0.000000 2.277630 0.000000 
#    z 0.108160 0.000000 2.357590 
# 
# From -- ./inp_files/17955.got.cif
#   From: 2010.05.17/outbox.cif.g08.bks.cpg/sg15_9_cif.got.tgz:17955.got - 2010.06.03 18:47:42.
