data_PCOD9268034
_publ_section_title
;
Structure prediction by ZEFSAII (Michael W. Deem and Ramdas Pophale) SiO2 
 PCOD9268034
Probable space group: C 2/C
;
_chemical_formula_sum "Si O2"
_cell_formula_units_Z 40
_cell_length_a 19.762271
_cell_length_b 8.559560
_cell_length_c 27.946186
_cell_angle_alpha 90.000000
_cell_angle_beta 157.114308
_cell_angle_gamma 90.000000
_cell_volume 1838.408271
_symmetry_space_group_name_H-M "C 2/C"
_symmetry_group_IT_number 15
_symmetry_cell_setting 'monoclinic'
loop_
_space_group_symop_operation_xyz
x,y,z
-x,y,1/2-z
-x,-y,-z
x,-y,1/2+z
1/2+x,1/2+y,z
1/2-x,1/2+y,1/2-z
1/2-x,1/2-y,-z
1/2+x,1/2-y,1/2+z
loop_
_atom_site_type_symbol
_atom_site_label
_atom_site_fract_x
_atom_site_fract_y
_atom_site_fract_z
Si Si1 0.439832 0.669131 0.764847
Si Si2 0.738551 0.724560 0.680340
Si Si3 0.643021 0.916811 0.710013
Si Si4 0.660426 0.935995 0.551227
Si Si5 0.398868 0.652561 0.122246
O O1 0.500000 0.711694 0.750000
O O2 0.432163 0.810257 0.796604
O O3 0.252430 0.584168 0.636696
O O4 0.563582 0.529856 0.865465
O O5 0.726155 0.810399 0.723102
O O6 0.724654 0.541928 0.681338
O O7 0.611864 0.809972 0.560002
O O8 0.927391 0.757629 0.780364
O O9 0.491021 0.011133 0.582877
O O10 0.818577 0.864334 0.622928
O O11 0.250000 0.750000 0.000000
#
# Coordination Sequence:
#
# PCOD9268034 Si02
#       5
#     8   8   8   8   8
#     4   9  22  41  67  98 134 167 230 272 323 406
#     4  11  23  40  65  96 133 170 227 271 336 400
#     4  12  24  44  66  96 137 180 216 288 335 391
#     4  10  22  44  66  94 132 177 218 277 334 391
#     4  10  19  41  67  94 129 173 212 270 333 391
#
# _framework density 21.757952
#
# number of rings (size 3 to 8) (size 9 to 14) (size 15 to 20)
#    0.000    1.600    2.000    4.800    0.000    4.800 
#    3.600    2.000    0.000    0.000    0.000    0.000 
#    0.000    0.000    0.000    0.000    0.000    0.000 
#
# Total GULP energy -111593.382128 kJ/mol
# GULP energy per Si atom -5579.669106 kJ/mol
# Density = 2.170843 g / cm^3
# Si number density = 21.757952 Si / 1000 Ang^3
#
#
#
# Elastic Constant Matrix: (Units=GPa)
#
#
# Indices 1 2 3 4 5 6 
#
# 1 81.6772 51.7485 20.9529 0.0004 -9.1995 -0.0016
# 2 51.7485 125.2428 31.6099 -0.0002 -35.6562 -0.0014
# 3 20.9529 31.6099 79.2311 0.0023 -12.8321 -0.0033
# 4 0.0004 -0.0002 0.0023 27.3264 -0.0012 -4.4576
# 5 -9.1995 -35.6562 -12.8321 -0.0012 32.6928 0.0006
# 6 -0.0016 -0.0014 -0.0033 -4.4576 0.0006 20.8453
#
#
#
# Elastic Compliance Matrix: (Units=1/GPa)
#
#
# Indices 1 2 3 4 5 6 
#
# 1 0.017291 -0.007912 -0.002163 0.000000 -0.004612 0.000001
# 2 -0.007912 0.015789 -0.001899 0.000001 0.014249 0.000000
# 3 -0.002163 -0.001899 0.014435 -0.000001 0.002985 0.000002
# 4 0.000000 0.000001 -0.000001 0.037917 0.000002 0.008108
# 5 -0.004612 0.014249 0.002985 0.000002 0.046002 0.000000
# 6 0.000001 0.000000 0.000002 0.008108 0.000000 0.049706
#
#
# Mechanical properties :
#
#
# Convention : Reuss Voigt Hill
#
# Bulk Modulus (GPa) = 42.43244 54.97487 48.70365
# Shear Modulus (GPa) = 23.48015 28.29553 25.88784
#
# Velocity S-wave (km/s) = 3.28861 3.61011 3.45311
# Velocity P-wave (km/s) = 5.82789 6.53442 6.19124
#
# Compressibility (1/GPa) = 0.02356688
#
# Stress axis : x y z
#
# Youngs Moduli (GPa) = 57.83216 63.33346 69.27761
#
# Poissons Ratio (x) = 0.50107 0.14987
# Poissons Ratio (y) = 0.45755 0.13158
# Poissons Ratio (z) = 0.12511 0.12029
#
# Static dielectric constant tensor:
#      x y z
#    x 1.837530 0.000000 -0.094420 
#    y 0.000000 1.803890 -0.000010 
#    z -0.094420 -0.000010 2.020850 
# 
# From -- ./inp_files/109765.got.cif
#   From: 2010.05.17/outbox.cif.g08.bks.cpg/sg15_55_cif.got.tgz:109765.got - 2010.06.03 18:47:42.
