data_PCOD9268084
_publ_section_title
;
Structure prediction by ZEFSAII (Michael W. Deem and Ramdas Pophale) SiO2 
 PCOD9268084
Probable space group: C 2/C
;
_chemical_formula_sum "Si O2"
_cell_formula_units_Z 56
_cell_length_a 12.775321
_cell_length_b 24.982846
_cell_length_c 9.387454
_cell_angle_alpha 90.000000
_cell_angle_beta 65.137531
_cell_angle_gamma 90.000000
_cell_volume 2718.453157
_symmetry_space_group_name_H-M "C 2/C"
_symmetry_group_IT_number 15
_symmetry_cell_setting 'monoclinic'
loop_
_space_group_symop_operation_xyz
x,y,z
-x,y,1/2-z
-x,-y,-z
x,-y,1/2+z
1/2+x,1/2+y,z
1/2-x,1/2+y,1/2-z
1/2-x,1/2-y,-z
1/2+x,1/2-y,1/2+z
loop_
_atom_site_type_symbol
_atom_site_label
_atom_site_fract_x
_atom_site_fract_y
_atom_site_fract_z
Si Si1 0.500000 0.574232 0.250000
Si Si2 0.000338 0.167169 0.446703
Si Si3 0.953768 0.285890 0.435228
Si Si4 0.723940 0.538551 0.273556
Si Si5 0.897108 0.343737 0.912307
Si Si6 0.261973 0.837558 0.720516
Si Si7 0.000000 0.883009 0.250000
Si Si8 0.760847 0.058910 0.908654
O O1 0.449034 0.614708 0.398785
O O2 0.597294 0.541046 0.274225
O O3 0.126836 0.174556 0.304136
O O4 0.018444 0.152581 0.599981
O O5 0.936113 0.222491 0.463584
O O6 0.835281 0.314325 0.549371
O O7 0.000000 0.297182 0.250000
O O8 0.047191 0.306099 0.499524
O O9 0.774046 0.597727 0.214648
O O10 0.719567 0.534456 0.445404
O O11 0.782996 0.487515 0.169782
O O12 0.813707 0.316860 0.842115
O O13 0.000000 0.364122 0.750000
O O14 0.827691 0.392083 0.023793
O O15 0.884676 0.917470 0.292516
#
# Coordination Sequence:
#
# PCOD9268084 Si02
#       8
#     4   8   8   8   8   8   4   8
#     4  10  19  42  56  86 132 162 183 250 312 358
#     4  11  23  40  62  92 126 163 197 250 309 364
#     4  11  24  40  63  93 119 162 207 251 305 357
#     4  10  22  39  61  86 129 160 200 249 311 358
#     4   9  20  43  64  83 124 161 207 254 295 363
#     4   9  21  45  58  86 126 158 203 255 301 361
#     4  12  23  38  64  98 126 152 217 242 294 396
#     4  11  23  40  61  96 117 165 203 253 308 359
#
# _framework density 20.59995
#
# number of rings (size 3 to 8) (size 9 to 14) (size 15 to 20)
#    0.000    1.714    5.000    0.429    5.000    4.571 
#    2.571    7.143    0.000    0.000    0.000    0.000 
#    0.000    0.000    0.000    0.000    0.000    0.000 
#
# Total GULP energy -156319.206309 kJ/mol
# GULP energy per Si atom -5582.828797 kJ/mol
# Density = 2.055306 g / cm^3
# Si number density = 20.599950 Si / 1000 Ang^3
#
#
#
# Elastic Constant Matrix: (Units=GPa)
#
#
# Indices 1 2 3 4 5 6 
#
# 1 34.3554 -5.9902 -0.7526 0.0000 8.8519 0.0000
# 2 -5.9902 63.7551 42.5070 0.0000 -5.7092 0.0000
# 3 -0.7526 42.5070 97.9514 0.0000 7.1345 0.0000
# 4 0.0000 0.0000 0.0000 27.8998 0.0000 36.6938
# 5 8.8519 -5.7092 7.1345 0.0000 30.2451 0.0000
# 6 0.0000 0.0000 0.0000 36.6938 0.0000 62.4679
#
#
#
# Elastic Compliance Matrix: (Units=1/GPa)
#
#
# Indices 1 2 3 4 5 6 
#
# 1 0.031780 0.002252 -0.000088 0.000000 -0.008855 0.000000
# 2 0.002252 0.023578 -0.010674 0.000000 0.006310 0.000000
# 3 -0.000088 -0.010674 0.015248 0.000000 -0.005586 0.000000
# 4 0.000000 0.000000 0.000000 0.157586 0.000000 -0.092566
# 5 -0.008855 0.006310 -0.005586 0.000000 0.038164 0.000000
# 6 0.000000 0.000000 0.000000 -0.092566 0.000000 0.070382
#
#
# Mechanical properties :
#
#
# Convention : Reuss Voigt Hill
#
# Bulk Modulus (GPa) = 18.66215 29.73224 24.19720
# Shear Modulus (GPa) = 13.45461 34.80908 24.13184
#
# Velocity S-wave (km/s) = 2.55843 4.11513 3.42636
# Velocity P-wave (km/s) = 4.21976 6.08635 5.23689
#
# Compressibility (1/GPa) = 0.05358439
#
# Stress axis : x y z
#
# Youngs Moduli (GPa) = 31.46652 42.41158 65.58406
#
# Poissons Ratio (x) = -0.09549 0.00577
# Poissons Ratio (y) = -0.07085 0.70007
# Poissons Ratio (z) = 0.00277 0.45272
#
# Static dielectric constant tensor:
#      x y z
#    x 1.786810 0.000000 0.007010 
#    y 0.000000 1.733970 0.000000 
#    z 0.007010 0.000000 1.742350 
# 
# From -- ./inp_files/43483.got.cif
#   From: 2010.05.17/outbox.cif.g08.bks.cpg/sg15_22_cif.got.tgz:43483.got - 2010.06.03 18:47:42.
