data_PCOD9268144
_publ_section_title
;
Structure prediction by ZEFSAII (Michael W. Deem and Ramdas Pophale) SiO2 
 PCOD9268144
Probable space group: C 2/C
;
_chemical_formula_sum "Si O2"
_cell_formula_units_Z 48
_cell_length_a 14.003688
_cell_length_b 21.249733
_cell_length_c 18.480245
_cell_angle_alpha 90.000000
_cell_angle_beta 160.127536
_cell_angle_gamma 90.000000
_cell_volume 1869.347642
_symmetry_space_group_name_H-M "C 2/C"
_symmetry_group_IT_number 15
_symmetry_cell_setting 'monoclinic'
loop_
_space_group_symop_operation_xyz
x,y,z
-x,y,1/2-z
-x,-y,-z
x,-y,1/2+z
1/2+x,1/2+y,z
1/2-x,1/2+y,1/2-z
1/2-x,1/2-y,-z
1/2+x,1/2-y,1/2+z
loop_
_atom_site_type_symbol
_atom_site_label
_atom_site_fract_x
_atom_site_fract_y
_atom_site_fract_z
Si Si1 0.259390 0.995848 0.767288
Si Si2 0.406357 0.288080 0.048068
Si Si3 0.918806 0.106826 0.458229
Si Si4 0.939925 0.317701 0.280780
Si Si5 0.003956 0.312962 0.493336
Si Si6 0.967056 0.093890 0.145415
O O1 0.981223 0.966187 0.605236
O O2 0.298433 0.941818 0.733841
O O3 0.159148 0.061697 0.664338
O O4 0.500000 0.000000 0.000000
O O5 0.263592 0.342283 0.897856
O O6 0.673599 0.327557 0.268189
O O7 0.250000 0.250000 0.000000
O O8 0.520496 0.236552 0.071086
O O9 0.127504 0.152513 0.560054
O O10 0.176696 0.370247 0.438904
O O11 0.000000 0.277772 0.250000
O O12 0.007072 0.293339 0.409897
O O13 0.256709 0.363049 0.675718
O O14 0.000000 0.070417 0.250000
#
# Coordination Sequence:
#
# PCOD9268144 Si02
#       6
#     8   8   8   8   8   8
#     4  11  21  41  74 103 151 195 246 322 384 460
#     4  11  24  48  71  97 150 203 257 324 388 470
#     4  10  24  43  71 112 145 199 259 315 390 470
#     4  10  19  42  69 102 148 182 232 305 386 467
#     4  10  24  40  69 102 138 191 245 310 388 466
#     4  10  21  41  71 103 142 184 238 306 394 464
#
# _framework density 25.677408
#
# number of rings (size 3 to 8) (size 9 to 14) (size 15 to 20)
#    0.000    1.667    1.667    3.500    2.333    0.000 
#    0.000   33.333    3.667    0.000    0.000    0.000 
#    0.000    0.000    0.000    0.000    0.000    0.000 
#
# Total GULP energy -133642.686110 kJ/mol
# GULP energy per Si atom -5568.445255 kJ/mol
# Density = 2.561896 g / cm^3
# Si number density = 25.677408 Si / 1000 Ang^3
#
#
#
# Elastic Constant Matrix: (Units=GPa)
#
#
# Indices 1 2 3 4 5 6 
#
# 1 179.8010 81.2333 40.0532 0.0027 3.0580 -0.0093
# 2 81.2333 113.2003 31.1432 0.0565 6.8420 0.0021
# 3 40.0532 31.1432 107.3124 0.0285 -2.1719 -0.0282
# 4 0.0027 0.0565 0.0285 17.0924 -0.0304 -1.2073
# 5 3.0580 6.8420 -2.1719 -0.0304 49.6506 -0.0260
# 6 -0.0093 0.0021 -0.0282 -1.2073 -0.0260 41.8480
#
#
#
# Elastic Compliance Matrix: (Units=1/GPa)
#
#
# Indices 1 2 3 4 5 6 
#
# 1 0.008453 -0.005663 -0.001508 0.000020 0.000194 0.000002
# 2 -0.005663 0.013499 -0.001836 -0.000044 -0.001592 -0.000005
# 3 -0.001508 -0.001836 0.010430 -0.000009 0.000802 0.000007
# 4 0.000020 -0.000044 -0.000009 0.058625 0.000041 0.001691
# 5 0.000194 -0.001592 0.000802 0.000041 0.020383 0.000015
# 6 0.000002 -0.000005 0.000007 0.001691 0.000015 0.023945
#
#
# Mechanical properties :
#
#
# Convention : Reuss Voigt Hill
#
# Bulk Modulus (GPa) = 69.59400 78.35256 73.97328
# Shear Modulus (GPa) = 31.61806 38.24381 34.93093
#
# Velocity S-wave (km/s) = 3.51288 3.86346 3.69233
# Velocity P-wave (km/s) = 6.60422 7.10508 6.85923
#
# Compressibility (1/GPa) = 0.01436905
#
# Stress axis : x y z
#
# Youngs Moduli (GPa) = 118.30712 74.08056 95.87365
#
# Poissons Ratio (x) = 0.41949 0.14454
# Poissons Ratio (y) = 0.66993 0.17604
# Poissons Ratio (z) = 0.17836 0.13603
#
# Static dielectric constant tensor:
#      x y z
#    x 2.233800 0.000150 -0.160130 
#    y 0.000150 2.066100 -0.000250 
#    z -0.160130 -0.000250 2.114060 
# 
# From -- ./inp_files/245657.got.cif
#   From: 2010.05.17/outbox.cif.g08.bks.cpg/sg15_123_cif.got.tgz:245657.got - 2010.06.03 18:47:42.
