data_PCOD9268129
_publ_section_title
;
Structure prediction by ZEFSAII (Michael W. Deem and Ramdas Pophale) SiO2 
 PCOD9268129
Probable space group: C 2/C
;
_chemical_formula_sum "Si O2"
_cell_formula_units_Z 60
_cell_length_a 15.063551
_cell_length_b 11.121891
_cell_length_c 22.326926
_cell_angle_alpha 90.000000
_cell_angle_beta 140.029704
_cell_angle_gamma 90.000000
_cell_volume 2402.890381
_symmetry_space_group_name_H-M "C 2/C"
_symmetry_group_IT_number 15
_symmetry_cell_setting 'monoclinic'
loop_
_space_group_symop_operation_xyz
x,y,z
-x,y,1/2-z
-x,-y,-z
x,-y,1/2+z
1/2+x,1/2+y,z
1/2-x,1/2+y,1/2-z
1/2-x,1/2-y,-z
1/2+x,1/2-y,1/2+z
loop_
_atom_site_type_symbol
_atom_site_label
_atom_site_fract_x
_atom_site_fract_y
_atom_site_fract_z
Si Si1 0.103435 0.973440 0.249272
Si Si2 0.918704 0.119015 0.892469
Si Si3 0.559096 0.949233 0.373644
Si Si4 0.290987 0.287707 0.430696
Si Si5 0.938074 0.205600 0.351053
Si Si6 0.000000 0.372851 0.750000
Si Si7 0.695559 0.631104 0.107231
Si Si8 0.646801 0.014073 0.042245
O O1 0.080100 0.109287 0.211067
O O2 0.249074 0.959408 0.356727
O O3 0.000000 0.947584 0.250000
O O4 0.084674 0.895231 0.179870
O O5 0.823799 0.215117 0.876999
O O6 0.850596 0.000957 0.889871
O O7 0.073846 0.146726 0.995508
O O8 0.669797 0.875675 0.389771
O O9 0.463415 0.841361 0.345738
O O10 0.623247 0.024890 0.461609
O O11 0.469707 0.040696 0.290064
O O12 0.423647 0.329525 0.538679
O O13 0.285162 0.145541 0.439394
O O14 0.820764 0.204053 0.340013
O O15 0.843859 0.330398 0.657088
O O16 0.500000 0.000000 0.000000
#
# Coordination Sequence:
#
# PCOD9268129 Si02
#       8
#     8   8   8   8   8   4   8   8
#     4  11  22  36  61  92 128 172 211 252 331 390
#     4   9  19  37  64  90 121 171 218 260 313 395
#     4  11  23  38  64 100 129 158 216 274 320 381
#     4  10  19  42  67  94 123 165 216 275 318 374
#     4   9  20  36  59  90 126 164 207 258 323 390
#     4  12  24  32  66 100 128 160 218 280 316 372
#     4   9  19  36  58  92 126 163 210 266 323 370
#     4  11  26  40  59  95 139 165 197 267 344 374
#
# _framework density 24.969926000000001
#
# number of rings (size 3 to 8) (size 9 to 14) (size 15 to 20)
#    0.000    1.867    1.333    4.000    8.400    0.000 
#    2.400    0.000    0.000    0.800   20.800    0.000 
#    0.000    0.000    0.000    0.000    0.000    0.000 
#
# Total GULP energy -167370.577514 kJ/mol
# GULP energy per Si atom -5579.019250 kJ/mol
# Density = 2.491309 g / cm^3
# Si number density = 24.969926 Si / 1000 Ang^3
#
#
#
# Elastic Constant Matrix: (Units=GPa)
#
#
# Indices 1 2 3 4 5 6 
#
# 1 135.8415 0.7594 56.8844 0.0000 -0.2997 0.0000
# 2 0.7594 16.7880 2.0009 0.0000 -2.3171 0.0000
# 3 56.8844 2.0009 125.8442 0.0000 -15.6035 0.0000
# 4 0.0000 0.0000 0.0000 7.9169 0.0000 -5.2613
# 5 -0.2997 -2.3171 -15.6035 0.0000 60.8818 0.0000
# 6 0.0000 0.0000 0.0000 -5.2613 0.0000 39.3050
#
#
#
# Elastic Compliance Matrix: (Units=1/GPa)
#
#
# Indices 1 2 3 4 5 6 
#
# 1 0.009145 -0.000050 -0.004263 0.000000 -0.001049 0.000000
# 2 -0.000050 0.059939 -0.000669 0.000000 0.002110 0.000000
# 3 -0.004263 -0.000669 0.010202 0.000000 0.002568 0.000000
# 4 0.000000 0.000000 0.000000 0.138645 0.000000 0.018559
# 5 -0.001049 0.002110 0.002568 0.000000 0.017159 0.000000
# 6 0.000000 0.000000 0.000000 0.018559 0.000000 0.027926
#
#
# Mechanical properties :
#
#
# Convention : Reuss Voigt Hill
#
# Bulk Modulus (GPa) = 14.42534 44.19589 29.31062
# Shear Modulus (GPa) = 16.88688 36.20935 26.54811
#
# Velocity S-wave (km/s) = 2.60338 3.81217 3.26422
# Velocity P-wave (km/s) = 3.85050 6.09220 5.09614
#
# Compressibility (1/GPa) = 0.06932245
#
# Stress axis : x y z
#
# Youngs Moduli (GPa) = 109.35430 16.68351 98.01681
#
# Poissons Ratio (x) = 0.00084 0.41783
# Poissons Ratio (y) = 0.00551 0.06554
# Poissons Ratio (z) = 0.46616 0.01116
#
# Static dielectric constant tensor:
#      x y z
#    x 2.052140 0.000000 0.022330 
#    y 0.000000 2.152980 0.000000 
#    z 0.022330 0.000000 2.031530 
# 
# From -- ./inp_files/244706.got.cif
#   From: 2010.05.17/outbox.cif.g08.bks.cpg/sg15_123_cif.got.tgz:244706.got - 2010.06.03 18:47:42.
