data_PCOD9268254
_publ_section_title
;
Structure prediction by ZEFSAII (Michael W. Deem and Ramdas Pophale) SiO2 
 PCOD9268254
Probable space group: C 2/C
;
_chemical_formula_sum "Si O2"
_cell_formula_units_Z 28
_cell_length_a 11.959619
_cell_length_b 17.895290
_cell_length_c 8.343421
_cell_angle_alpha 90.000000
_cell_angle_beta 34.621477
_cell_angle_gamma 90.000000
_cell_volume 1014.530194
_symmetry_space_group_name_H-M "C 2/C"
_symmetry_group_IT_number 15
_symmetry_cell_setting 'monoclinic'
loop_
_space_group_symop_operation_xyz
x,y,z
-x,y,1/2-z
-x,-y,-z
x,-y,1/2+z
1/2+x,1/2+y,z
1/2-x,1/2+y,1/2-z
1/2-x,1/2-y,-z
1/2+x,1/2-y,1/2+z
loop_
_atom_site_type_symbol
_atom_site_label
_atom_site_fract_x
_atom_site_fract_y
_atom_site_fract_z
Si Si1 0.500000 0.306103 0.250000
Si Si2 0.234756 0.587087 0.495398
Si Si3 0.668343 0.059028 0.241341
Si Si4 0.307970 0.168236 0.638118
O O1 0.376495 0.252775 0.518386
O O2 0.341162 0.349669 0.331657
O O3 0.301304 0.587638 0.231933
O O4 0.271363 0.501244 0.504742
O O5 0.287245 0.643939 0.578443
O O6 0.000000 0.601849 0.750000
O O7 0.512875 0.124299 0.388465
O O8 0.500000 0.000000 0.500000
#
# Coordination Sequence:
#
# PCOD9268254 Si02
#       4
#     4   8   8   8
#     4  10  20  30  44  70  96 136 148 192 222 290
#     4   8  15  28  49  75  87 117 161 200 226 275
#     4   8  15  27  50  75  87 117 161 200 226 275
#     4   9  18  30  46  68  95 122 167 181 235 271
#
# _framework density 27.598979
#
# number of rings (size 3 to 8) (size 9 to 14) (size 15 to 20)
#    0.000    4.000    0.000    0.000   10.000    0.000 
#    0.000   12.857    0.000   27.429    0.000    0.000 
#    0.000    0.000    0.000    0.000    0.000    0.000 
#
# Total GULP energy -77984.233643 kJ/mol
# GULP energy per Si atom -5570.302403 kJ/mol
# Density = 2.753616 g / cm^3
# Si number density = 27.598979 Si / 1000 Ang^3
#
#
#
# Elastic Constant Matrix: (Units=GPa)
#
#
# Indices 1 2 3 4 5 6 
#
# 1 230.4232 54.1339 68.4817 -0.0019 37.9625 0.0012
# 2 54.1339 135.4467 28.5346 0.0002 4.5801 0.0000
# 3 68.4817 28.5346 76.0934 -0.0026 -2.2042 0.0018
# 4 -0.0019 0.0002 -0.0026 13.5796 0.0022 26.3510
# 5 37.9625 4.5801 -2.2042 0.0022 58.9394 -0.0015
# 6 0.0012 0.0000 0.0018 26.3510 -0.0015 50.7494
#
#
#
# Elastic Compliance Matrix: (Units=1/GPa)
#
#
# Indices 1 2 3 4 5 6 
#
# 1 0.007313 -0.001459 -0.006174 -0.000115 -0.004828 0.000060
# 2 -0.001459 0.008339 -0.001808 0.000118 0.000224 -0.000061
# 3 -0.006174 -0.001808 0.019517 -0.000373 0.004847 0.000193
# 4 -0.000115 0.000118 -0.000373 -9.728675 0.000550 5.051486
# 5 -0.004828 0.000224 0.004847 0.000550 0.020240 -0.000285
# 6 0.000060 -0.000061 0.000193 5.051486 -0.000285 -2.603213
#
#
# Mechanical properties :
#
#
# Convention : Reuss Voigt Hill
#
# Bulk Modulus (GPa) = 61.39788 82.69599 72.04693
# Shear Modulus (GPa) = -0.40809 44.04122 21.81656
#
# Velocity S-wave (km/s) = -0.38495 3.99902 2.81461
# Velocity P-wave (km/s) = 4.70076 7.16599 6.06006
#
# Compressibility (1/GPa) = 0.01628721
#
# Stress axis : x y z
#
# Youngs Moduli (GPa) = 136.74467 119.91429 51.23829
#
# Poissons Ratio (x) = 0.17493 0.31636
# Poissons Ratio (y) = 0.19948 0.09263
# Poissons Ratio (z) = 0.84429 0.21679
#
# Static dielectric constant tensor:
#      x y z
#    x 2.219830 0.000000 0.187680 
#    y 0.000000 2.343640 0.000000 
#    z 0.187680 0.000000 2.529180 
# 
# From -- ./inp_files/21893.got.cif
#   From: 2010.05.17/outbox.cif.g08.bks.cpg/sg15_11_cif.got.tgz:21893.got - 2010.06.03 18:47:42.
