data_PCOD9268779
_publ_section_title
;
Structure prediction by ZEFSAII (Michael W. Deem and Ramdas Pophale) SiO2 
 PCOD9268779
Probable space group: C 2/C
;
_chemical_formula_sum "Si O2"
_cell_formula_units_Z 56
_cell_length_a 25.297901
_cell_length_b 8.294509
_cell_length_c 15.981608
_cell_angle_alpha 90.000000
_cell_angle_beta 47.956239
_cell_angle_gamma 90.000000
_cell_volume 2490.406308
_symmetry_space_group_name_H-M "C 2/C"
_symmetry_group_IT_number 15
_symmetry_cell_setting 'monoclinic'
loop_
_space_group_symop_operation_xyz
x,y,z
-x,y,1/2-z
-x,-y,-z
x,-y,1/2+z
1/2+x,1/2+y,z
1/2-x,1/2+y,1/2-z
1/2-x,1/2-y,-z
1/2+x,1/2-y,1/2+z
loop_
_atom_site_type_symbol
_atom_site_label
_atom_site_fract_x
_atom_site_fract_y
_atom_site_fract_z
Si Si1 0.639668 0.697913 0.089654
Si Si2 0.867399 0.091287 0.016795
Si Si3 0.565671 0.379233 0.424132
Si Si4 0.058365 0.587624 0.553694
Si Si5 0.701793 0.108028 0.856028
Si Si6 0.510791 0.224914 0.337122
Si Si7 0.720809 0.702135 0.164809
O O1 0.654126 0.706004 0.172526
O O2 0.626022 0.517052 0.072471
O O3 0.581047 0.819119 0.114582
O O4 0.711627 0.743615 0.962536
O O5 0.804840 0.223006 0.085549
O O6 0.871625 0.966812 0.090479
O O7 0.938719 0.195197 0.948111
O O8 0.500000 0.500000 0.500000
O O9 0.544317 0.223075 0.500334
O O10 0.573142 0.316804 0.321040
O O11 0.128118 0.490302 0.447549
O O12 0.994707 0.463271 0.634837
O O13 0.710774 0.175399 0.752475
O O14 0.759269 0.978073 0.826040
O O15 0.500000 0.241430 0.250000
#
# Coordination Sequence:
#
# PCOD9268779 Si02
#       7
#     8   8   8   8   8   8   8
#     4   9  19  36  54  75 105 135 172 219 262 304
#     4   9  19  36  53  74 105 138 174 216 258 304
#     4   9  18  35  56  74 101 141 176 211 260 314
#     4   9  19  36  54  76 106 138 173 217 264 311
#     4  10  20  34  54  77 105 138 174 213 258 317
#     4  10  20  33  52  79 106 135 175 216 259 309
#     4  10  20  34  54  79 104 137 174 212 261 313
#
# _framework density 22.486291000000001
#
# number of rings (size 3 to 8) (size 9 to 14) (size 15 to 20)
#    0.000    2.571    0.000    1.286    0.000    2.857 
#    0.000    9.286    0.000    0.000    0.000    0.000 
#    0.000    0.000    0.000    0.000    0.000    0.000 
#
# Total GULP energy -156155.290495 kJ/mol
# GULP energy per Si atom -5576.974661 kJ/mol
# Density = 2.243511 g / cm^3
# Si number density = 22.486291 Si / 1000 Ang^3
#
#
#
# Elastic Constant Matrix: (Units=GPa)
#
#
# Indices 1 2 3 4 5 6 
#
# 1 67.7468 53.1049 18.4929 0.0006 31.0820 -0.0004
# 2 53.1049 151.8116 39.5073 -0.0016 33.8381 0.0028
# 3 18.4929 39.5073 50.8466 0.0002 20.7253 0.0006
# 4 0.0006 -0.0016 0.0002 13.3872 0.0011 4.8578
# 5 31.0820 33.8381 20.7253 0.0011 25.6135 -0.0010
# 6 -0.0004 0.0028 0.0006 4.8578 -0.0010 8.1558
#
#
#
# Elastic Compliance Matrix: (Units=1/GPa)
#
#
# Indices 1 2 3 4 5 6 
#
# 1 0.037442 -0.005249 0.009183 0.000003 -0.045932 -0.000004
# 2 -0.005249 0.010464 -0.004750 0.000004 -0.003611 -0.000007
# 3 0.009183 -0.004750 0.032830 0.000003 -0.031433 -0.000006
# 4 0.000003 0.000004 0.000003 0.095295 -0.000018 -0.056760
# 5 -0.045932 -0.003611 -0.031433 -0.000018 0.124985 0.000027
# 6 -0.000004 -0.000007 -0.000006 -0.056760 0.000027 0.156420
#
#
# Mechanical properties :
#
#
# Convention : Reuss Voigt Hill
#
# Bulk Modulus (GPa) = 12.64150 54.73502 33.68826
# Shear Modulus (GPa) = 10.30000 20.05130 15.17565
#
# Velocity S-wave (km/s) = 2.14255 2.98939 2.60067
# Velocity P-wave (km/s) = 3.42852 6.02575 4.90227
#
# Compressibility (1/GPa) = 0.07910456
#
# Stress axis : x y z
#
# Youngs Moduli (GPa) = 26.70773 95.56262 30.46005
#
# Poissons Ratio (x) = 0.50165 -0.27971
# Poissons Ratio (y) = 0.14020 0.14467
# Poissons Ratio (z) = -0.24526 0.45388
#
# Static dielectric constant tensor:
#      x y z
#    x 1.859160 0.000000 0.017510 
#    y 0.000000 1.851350 0.000000 
#    z 0.017510 0.000000 1.865340 
# 
# From -- ./inp_files/176240.got.cif
#   From: 2010.05.17/outbox.cif.g08.bks.cpg/sg15_89_cif.got.tgz:176240.got - 2010.06.03 18:47:42.
