data_PCOD9268422
_publ_section_title
;
Structure prediction by ZEFSAII (Michael W. Deem and Ramdas Pophale) SiO2 
 PCOD9268422
Probable space group: C 2/C
;
_chemical_formula_sum "Si O2"
_cell_formula_units_Z 64
_cell_length_a 25.334879
_cell_length_b 7.993668
_cell_length_c 13.756731
_cell_angle_alpha 90.000000
_cell_angle_beta 107.944052
_cell_angle_gamma 90.000000
_cell_volume 2650.477211
_symmetry_space_group_name_H-M "C 2/C"
_symmetry_group_IT_number 15
_symmetry_cell_setting 'monoclinic'
loop_
_space_group_symop_operation_xyz
x,y,z
-x,y,1/2-z
-x,-y,-z
x,-y,1/2+z
1/2+x,1/2+y,z
1/2-x,1/2+y,1/2-z
1/2-x,1/2-y,-z
1/2+x,1/2-y,1/2+z
loop_
_atom_site_type_symbol
_atom_site_label
_atom_site_fract_x
_atom_site_fract_y
_atom_site_fract_z
Si Si1 0.435448 0.434833 0.726915
Si Si2 0.616912 0.097754 0.563441
Si Si3 0.738684 0.253316 0.854164
Si Si4 0.939038 0.925161 0.958170
Si Si5 0.140873 0.758870 0.315829
Si Si6 0.121326 0.393974 0.303147
Si Si7 0.638618 0.278777 0.076020
Si Si8 0.241172 0.352316 0.130457
O O1 0.500000 0.475786 0.750000
O O2 0.425588 0.421243 0.836482
O O3 0.394593 0.582343 0.670521
O O4 0.420043 0.248791 0.683012
O O5 0.571518 0.237309 0.510311
O O6 0.618005 0.095797 0.682862
O O7 0.677372 0.161933 0.563236
O O8 0.614552 0.902869 0.533094
O O9 0.683486 0.168723 0.863291
O O10 0.798534 0.192679 0.924513
O O11 0.740987 0.453227 0.863733
O O12 0.737990 0.207627 0.740132
O O13 0.898307 0.066089 0.975957
O O14 0.000000 0.000000 0.000000
O O15 0.113499 0.584165 0.330969
O O16 0.141160 0.770023 0.196629
O O17 0.205757 0.757685 0.381939
#
# Coordination Sequence:
#
# PCOD9268422 Si02
#       8
#     8   8   8   8   8   8   8   8
#     4  10  20  34  48  66  96 128 157 190 226 274
#     4   8  16  26  40  65  95 120 146 186 235 276
#     4   9  14  21  37  64  95 121 142 181 241 287
#     4  10  20  32  48  68  92 126 161 188 222 270
#     4   9  16  26  42  66  94 121 149 188 236 279
#     4   9  16  26  42  66  94 121 149 188 236 279
#     4   8  16  26  40  65  95 120 146 186 235 276
#     4   9  14  21  37  64  95 121 142 181 241 287
#
# _framework density 24.146595000000001
#
# number of rings (size 3 to 8) (size 9 to 14) (size 15 to 20)
#    0.000    3.000    1.250    2.250    7.000    1.000 
#    0.000    0.000    0.000    0.000    0.000    1.750 
#    0.000    0.000    0.000    0.000    0.000    0.000 
#
# Total GULP energy -178815.314076 kJ/mol
# GULP energy per Si atom -5587.978565 kJ/mol
# Density = 2.409164 g / cm^3
# Si number density = 24.146595 Si / 1000 Ang^3
#
#
#
# Elastic Constant Matrix: (Units=GPa)
#
#
# Indices 1 2 3 4 5 6 
#
# 1 40.9023 13.9751 22.6269 0.0000 3.6007 0.0000
# 2 13.9751 82.7906 17.3091 0.0000 16.4844 0.0000
# 3 22.6269 17.3091 40.9344 0.0000 -7.7845 0.0000
# 4 0.0000 0.0000 0.0000 32.5270 0.0000 4.5804
# 5 3.6007 16.4844 -7.7845 0.0000 47.3231 0.0000
# 6 0.0000 0.0000 0.0000 4.5804 0.0000 35.9130
#
#
#
# Elastic Compliance Matrix: (Units=1/GPa)
#
#
# Indices 1 2 3 4 5 6 
#
# 1 0.037013 -0.000552 -0.021394 0.000000 -0.006143 0.000000
# 2 -0.000552 0.014947 -0.007223 0.000000 -0.006353 0.000000
# 3 -0.021394 -0.007223 0.041393 0.000000 0.010953 0.000000
# 4 0.000000 0.000000 0.000000 0.031306 0.000000 -0.003993
# 5 -0.006143 -0.006353 0.010953 0.000000 0.025613 0.000000
# 6 0.000000 0.000000 0.000000 -0.003993 0.000000 0.028354
#
#
# Mechanical properties :
#
#
# Convention : Reuss Voigt Hill
#
# Bulk Modulus (GPa) = 28.56034 30.27219 29.41627
# Shear Modulus (GPa) = 20.10968 30.53369 25.32169
#
# Velocity S-wave (km/s) = 2.88899 3.55986 3.24182
# Velocity P-wave (km/s) = 4.79394 5.42778 5.12068
#
# Compressibility (1/GPa) = 0.03501358
#
# Stress axis : x y z
#
# Youngs Moduli (GPa) = 27.01753 66.90338 24.15888
#
# Poissons Ratio (x) = 0.03691 0.51686
# Poissons Ratio (y) = 0.01491 0.17451
# Poissons Ratio (z) = 0.57802 0.48327
#
# Static dielectric constant tensor:
#      x y z
#    x 1.920620 0.000000 -0.069940 
#    y 0.000000 1.897750 0.000000 
#    z -0.069940 0.000000 1.991720 
# 
# From -- ./inp_files/283164.got.cif
#   From: 2010.05.17/outbox.cif.g08.bks.cpg/sg15_142_cif.got.tgz:283164.got - 2010.06.03 18:47:42.
