data_PCOD9268142
_publ_section_title
;
Structure prediction by ZEFSAII (Michael W. Deem and Ramdas Pophale) SiO2 
 PCOD9268142
Probable space group: C 2/C
;
_chemical_formula_sum "Si O2"
_cell_formula_units_Z 32
_cell_length_a 7.964259
_cell_length_b 18.159740
_cell_length_c 9.581211
_cell_angle_alpha 90.000000
_cell_angle_beta 81.960891
_cell_angle_gamma 90.000000
_cell_volume 1372.102058
_symmetry_space_group_name_H-M "C 2/C"
_symmetry_group_IT_number 15
_symmetry_cell_setting 'monoclinic'
loop_
_space_group_symop_operation_xyz
x,y,z
-x,y,1/2-z
-x,-y,-z
x,-y,1/2+z
1/2+x,1/2+y,z
1/2-x,1/2+y,1/2-z
1/2-x,1/2-y,-z
1/2+x,1/2-y,1/2+z
loop_
_atom_site_type_symbol
_atom_site_label
_atom_site_fract_x
_atom_site_fract_y
_atom_site_fract_z
Si Si1 0.105566 0.720583 0.910473
Si Si2 0.194453 0.067782 0.243480
Si Si3 0.338703 0.947637 0.037410
Si Si4 0.844411 0.719667 0.158883
O O1 0.108934 0.632337 0.914873
O O2 0.181230 0.744466 0.752805
O O3 0.250000 0.750000 0.000000
O O4 0.929683 0.746349 0.004402
O O5 0.247869 0.061805 0.398576
O O6 0.305074 0.132521 0.161125
O O7 0.000000 0.089443 0.250000
O O8 0.223298 0.990857 0.161666
O O9 0.500000 0.000000 0.000000
O O10 0.000000 0.729652 0.250000
#
# Coordination Sequence:
#
# PCOD9268142 Si02
#       4
#     8   8   8   8
#     4  10  20  39  77 100 139 190 250 303 365 436
#     4  12  25  43  67 106 150 187 246 315 370 440
#     4  12  23  46  75 102 142 199 252 299 375 443
#     4  10  19  42  69 101 137 193 242 303 365 433
#
# _framework density 23.32188
#
# number of rings (size 3 to 8) (size 9 to 14) (size 15 to 20)
#    0.000    1.000    7.500    1.500    0.000    3.000 
#    4.500    3.750    0.000    0.000    0.000    0.000 
#    0.000    0.000    0.000    0.000    0.000    0.000 
#
# Total GULP energy -89504.276422 kJ/mol
# GULP energy per Si atom -5594.017276 kJ/mol
# Density = 2.326880 g / cm^3
# Si number density = 23.321880 Si / 1000 Ang^3
#
#
#
# Elastic Constant Matrix: (Units=GPa)
#
#
# Indices 1 2 3 4 5 6 
#
# 1 118.8371 6.1356 69.0958 0.0000 -27.6895 0.0000
# 2 6.1356 124.1950 45.5047 0.0000 -21.7005 0.0000
# 3 69.0958 45.5047 186.8781 0.0000 -26.8484 0.0000
# 4 0.0000 0.0000 0.0000 47.1279 0.0000 -18.4882
# 5 -27.6895 -21.7005 -26.8484 0.0000 54.1104 0.0000
# 6 0.0000 0.0000 0.0000 -18.4882 0.0000 22.8085
#
#
#
# Elastic Compliance Matrix: (Units=1/GPa)
#
#
# Indices 1 2 3 4 5 6 
#
# 1 0.011815 0.001747 -0.004118 0.000000 0.004703 0.000000
# 2 0.001747 0.009472 -0.002453 0.000000 0.003475 0.000000
# 3 -0.004118 -0.002453 0.007566 0.000000 0.000663 0.000000
# 4 0.000000 0.000000 0.000000 0.031112 0.000000 0.025219
# 5 0.004703 0.003475 0.000663 0.000000 0.022610 0.000000
# 6 0.000000 0.000000 0.000000 0.025219 0.000000 0.064286
#
#
# Mechanical properties :
#
#
# Convention : Reuss Voigt Hill
#
# Bulk Modulus (GPa) = 52.07084 74.59804 63.33444
# Shear Modulus (GPa) = 30.69166 45.42096 38.05631
#
# Velocity S-wave (km/s) = 3.63161 4.41791 4.04392
# Velocity P-wave (km/s) = 6.32142 7.62100 7.00143
#
# Compressibility (1/GPa) = 0.01920461
#
# Stress axis : x y z
#
# Youngs Moduli (GPa) = 84.63843 105.57945 132.16571
#
# Poissons Ratio (x) = -0.18444 0.54427
# Poissons Ratio (y) = -0.14786 0.32419
# Poissons Ratio (z) = 0.34855 0.25898
#
# Static dielectric constant tensor:
#      x y z
#    x 1.880770 0.000000 -0.000730 
#    y 0.000000 1.829920 0.000000 
#    z -0.000730 0.000000 1.924800 
# 
# From -- ./inp_files/22348.got.cif
#   From: 2010.05.17/outbox.cif.g08.bks.cpg/sg15_12_cif.got.tgz:22348.got - 2010.06.03 18:47:42.
