data_PCOD9268147
_publ_section_title
;
Structure prediction by ZEFSAII (Michael W. Deem and Ramdas Pophale) SiO2 
 PCOD9268147
Probable space group: C 2/C
;
_chemical_formula_sum "Si O2"
_cell_formula_units_Z 36
_cell_length_a 19.118318
_cell_length_b 7.484952
_cell_length_c 27.752680
_cell_angle_alpha 90.000000
_cell_angle_beta 149.432394
_cell_angle_gamma 90.000000
_cell_volume 2019.674069
_symmetry_space_group_name_H-M "C 2/C"
_symmetry_group_IT_number 15
_symmetry_cell_setting 'monoclinic'
loop_
_space_group_symop_operation_xyz
x,y,z
-x,y,1/2-z
-x,-y,-z
x,-y,1/2+z
1/2+x,1/2+y,z
1/2-x,1/2+y,1/2-z
1/2-x,1/2-y,-z
1/2+x,1/2-y,1/2+z
loop_
_atom_site_type_symbol
_atom_site_label
_atom_site_fract_x
_atom_site_fract_y
_atom_site_fract_z
Si Si1 0.500000 0.034253 0.750000
Si Si2 0.626519 0.029932 0.539690
Si Si3 0.237763 0.192184 0.547968
Si Si4 0.616833 0.319461 0.451528
Si Si5 0.088671 0.817325 0.257182
O O1 0.419640 0.896110 0.737508
O O2 0.389781 0.150481 0.657091
O O3 0.590062 0.171612 0.476127
O O4 0.759331 0.106483 0.647100
O O5 0.500000 0.000000 0.500000
O O6 0.669564 0.846485 0.539056
O O7 0.250000 0.250000 0.500000
O O8 0.156305 0.005481 0.499784
O O9 0.750000 0.250000 0.500000
O O10 0.493182 0.348873 0.340561
O O11 0.000000 0.892620 0.250000
#
# Coordination Sequence:
#
# PCOD9268147 Si02
#       5
#     4   8   8   8   8
#     4  10  20  36  68 100 116 170 228 266 322 376
#     4  12  27  45  63 102 143 173 214 283 345 392
#     4  12  23  38  72  97 122 172 229 264 326 398
#     4  12  20  44  68  96 131 172 225 281 317 397
#     4  10  19  42  70  89 132 176 220 281 323 382
#
# _framework density 17.824659
#
# number of rings (size 3 to 8) (size 9 to 14) (size 15 to 20)
#    0.667    0.000    8.889    0.000    4.667    0.889 
#    4.000    0.000    0.000    0.000    0.000    0.000 
#    0.000    0.000    0.000    0.000    0.000    0.000 
#
# Total GULP energy -100502.046439 kJ/mol
# GULP energy per Si atom -5583.447024 kJ/mol
# Density = 1.778409 g / cm^3
# Si number density = 17.824659 Si / 1000 Ang^3
#
#
#
# Elastic Constant Matrix: (Units=GPa)
#
#
# Indices 1 2 3 4 5 6 
#
# 1 132.1631 72.1942 83.8027 0.0000 10.4924 -0.0001
# 2 72.1942 147.4850 70.6293 0.0000 -3.3184 -0.0001
# 3 83.8027 70.6293 201.0673 -0.0001 -13.1633 0.0000
# 4 0.0000 0.0000 -0.0001 38.4699 0.0000 -3.6127
# 5 10.4924 -3.3184 -13.1633 0.0000 28.7100 0.0000
# 6 -0.0001 -0.0001 0.0000 -3.6127 0.0000 20.2710
#
#
#
# Elastic Compliance Matrix: (Units=1/GPa)
#
#
# Indices 1 2 3 4 5 6 
#
# 1 0.013573 -0.004650 -0.004519 0.000000 -0.007570 0.000000
# 2 -0.004650 0.009749 -0.001342 0.000000 0.002211 0.000000
# 3 -0.004519 -0.001342 0.007656 0.000000 0.005007 0.000000
# 4 0.000000 0.000000 0.000000 0.026437 0.000000 0.004712
# 5 -0.007570 0.002211 0.005007 0.000000 0.040149 0.000000
# 6 0.000000 0.000000 0.000000 0.004712 0.000000 0.050171
#
#
# Mechanical properties :
#
#
# Convention : Reuss Voigt Hill
#
# Bulk Modulus (GPa) = 100.44164 103.77420 102.10792
# Shear Modulus (GPa) = 29.05700 34.42946 31.74323
#
# Velocity S-wave (km/s) = 4.04190 4.39972 4.22460
# Velocity P-wave (km/s) = 8.84617 9.17365 9.01140
#
# Compressibility (1/GPa) = 0.00995603
#
# Stress axis : x y z
#
# Youngs Moduli (GPa) = 73.67493 102.57615 130.61528
#
# Poissons Ratio (x) = 0.47700 0.59028
# Poissons Ratio (y) = 0.34260 0.17523
# Poissons Ratio (z) = 0.33295 0.13762
#
# Static dielectric constant tensor:
#      x y z
#    x 1.582600 0.000000 -0.005730 
#    y 0.000000 1.633700 0.000000 
#    z -0.005730 0.000000 1.606340 
# 
# From -- ./inp_files/317043.got.cif
#   From: 2010.05.17/outbox.cif.g08.bks.cpg/sg15_159_cif.got.tgz:317043.got - 2010.06.03 18:47:42.
