data_PCOD9268646
_publ_section_title
;
Structure prediction by ZEFSAII (Michael W. Deem and Ramdas Pophale) SiO2 
 PCOD9268646
Probable space group: C 2/C
;
_chemical_formula_sum "Si O2"
_cell_formula_units_Z 48
_cell_length_a 9.444435
_cell_length_b 16.089942
_cell_length_c 16.043349
_cell_angle_alpha 90.000000
_cell_angle_beta 111.222698
_cell_angle_gamma 90.000000
_cell_volume 2272.613022
_symmetry_space_group_name_H-M "C 2/C"
_symmetry_group_IT_number 15
_symmetry_cell_setting 'monoclinic'
loop_
_space_group_symop_operation_xyz
x,y,z
-x,y,1/2-z
-x,-y,-z
x,-y,1/2+z
1/2+x,1/2+y,z
1/2-x,1/2+y,1/2-z
1/2-x,1/2-y,-z
1/2+x,1/2-y,1/2+z
loop_
_atom_site_type_symbol
_atom_site_label
_atom_site_fract_x
_atom_site_fract_y
_atom_site_fract_z
Si Si1 0.421570 0.593719 0.820571
Si Si2 0.532276 0.097078 0.500215
Si Si3 0.559624 0.591014 0.137393
Si Si4 0.612071 0.912226 0.196305
Si Si5 0.743677 0.907835 0.664702
Si Si6 0.662542 0.335937 0.490043
O O1 0.500000 0.569067 0.750000
O O2 0.401767 0.507251 0.866885
O O3 0.260678 0.633386 0.763560
O O4 0.535564 0.652313 0.893326
O O5 0.541472 0.128517 0.598006
O O6 0.400337 0.133655 0.412598
O O7 0.698762 0.101447 0.496253
O O8 0.500000 0.000000 0.500000
O O9 0.674419 0.624004 0.233725
O O10 0.385128 0.590043 0.130890
O O11 0.586783 0.644124 0.061502
O O12 0.500000 0.923473 0.250000
O O13 0.680026 0.001378 0.179968
O O14 0.750000 0.250000 0.500000
#
# Coordination Sequence:
#
# PCOD9268646 Si02
#       6
#     8   8   8   8   8   8
#     4  11  19  41  67  93 133 171 229 284 322 400
#     4  10  21  38  61  95 127 164 224 279 318 393
#     4  10  20  40  67  96 126 176 233 273 334 388
#     4  10  20  32  61 101 131 160 222 286 342 372
#     4   9  19  36  60  97 129 160 221 291 320 382
#     4  12  27  43  64 100 139 178 219 273 352 408
#
# _framework density 21.121062999999999
#
# number of rings (size 3 to 8) (size 9 to 14) (size 15 to 20)
#    0.000    1.667    5.000    1.500   11.667    0.000 
#    3.000    0.833    3.667    0.000    0.000    0.000 
#    0.000    0.000    0.000    0.000    0.000    0.000 
#
# Total GULP energy -133817.987418 kJ/mol
# GULP energy per Si atom -5575.749476 kJ/mol
# Density = 2.107299 g / cm^3
# Si number density = 21.121063 Si / 1000 Ang^3
#
#
#
# Elastic Constant Matrix: (Units=GPa)
#
#
# Indices 1 2 3 4 5 6 
#
# 1 136.3403 9.6640 78.7734 0.0000 7.8527 0.0000
# 2 9.6640 40.4240 18.1041 0.0000 -2.0843 0.0000
# 3 78.7734 18.1041 138.0091 0.0000 27.2661 0.0000
# 4 0.0000 0.0000 0.0000 -7.1160 0.0000 9.0546
# 5 7.8527 -2.0843 27.2661 0.0000 52.2980 0.0000
# 6 0.0000 0.0000 0.0000 9.0546 0.0000 19.7596
#
#
#
# Elastic Compliance Matrix: (Units=1/GPa)
#
#
# Indices 1 2 3 4 5 6 
#
# 1 0.011106 0.000476 -0.006773 0.000000 0.001883 0.000000
# 2 0.000476 0.026783 -0.004439 0.000000 0.003310 0.000000
# 3 -0.006773 -0.004439 0.012852 0.000000 -0.005860 0.000000
# 4 0.000000 0.000000 0.000000 -0.088769 0.000000 0.040678
# 5 0.001883 0.003310 -0.005860 0.000000 0.022026 0.000000
# 6 0.000000 0.000000 0.000000 0.040678 0.000000 0.031968
#
#
# Mechanical properties :
#
#
# Convention : Reuss Voigt Hill
#
# Bulk Modulus (GPa) = 34.16764 58.65073 46.40918
# Shear Modulus (GPa) = 105.94369 26.87044 66.40707
#
# Velocity S-wave (km/s) = 7.09007 3.57068 5.61332
# Velocity P-wave (km/s) = 9.12347 6.69543 8.00207
#
# Compressibility (1/GPa) = 0.02926746
#
# Stress axis : x y z
#
# Youngs Moduli (GPa) = 90.04182 37.33750 77.80760
#
# Poissons Ratio (x) = -0.01776 0.52703
# Poissons Ratio (y) = -0.04282 0.34537
# Poissons Ratio (z) = 0.60990 0.16573
#
# Static dielectric constant tensor:
#      x y z
#    x 1.704300 0.000000 0.041340 
#    y 0.000000 1.803520 0.000000 
#    z 0.041340 0.000000 1.838730 
# 
# From -- ./inp_files/136189.got.cif
#   From: 2010.05.17/outbox.cif.g08.bks.cpg/sg15_69_cif.got.tgz:136189.got - 2010.06.03 18:47:42.
