data_PCOD9268853
_publ_section_title
;
Structure prediction by ZEFSAII (Michael W. Deem and Ramdas Pophale) SiO2 
 PCOD9268853
Probable space group: C 2/C
;
_chemical_formula_sum "Si O2"
_cell_formula_units_Z 64
_cell_length_a 12.663427
_cell_length_b 24.147544
_cell_length_c 11.606239
_cell_angle_alpha 90.000000
_cell_angle_beta 128.362340
_cell_angle_gamma 90.000000
_cell_volume 2782.838776
_symmetry_space_group_name_H-M "C 2/C"
_symmetry_group_IT_number 15
_symmetry_cell_setting 'monoclinic'
loop_
_space_group_symop_operation_xyz
x,y,z
-x,y,1/2-z
-x,-y,-z
x,-y,1/2+z
1/2+x,1/2+y,z
1/2-x,1/2+y,1/2-z
1/2-x,1/2-y,-z
1/2+x,1/2-y,1/2+z
loop_
_atom_site_type_symbol
_atom_site_label
_atom_site_fract_x
_atom_site_fract_y
_atom_site_fract_z
Si Si1 0.313413 0.833997 0.315250
Si Si2 0.293788 0.390627 0.862468
Si Si3 0.904263 0.731776 0.074794
Si Si4 0.236170 0.286808 0.688970
Si Si5 0.006090 0.814998 0.948453
Si Si6 0.659336 0.579129 0.853707
Si Si7 0.661093 0.552037 0.334816
Si Si8 0.204775 0.346505 0.445394
O O1 0.400404 0.821442 0.488095
O O2 0.239785 0.774132 0.246084
O O3 0.220532 0.884776 0.291701
O O4 0.373685 0.847593 0.229922
O O5 0.213092 0.335970 0.766008
O O6 0.450860 0.373873 0.953562
O O7 0.284906 0.436370 0.758230
O O8 0.272477 0.403153 0.979690
O O9 0.750000 0.750000 0.000000
O O10 0.970359 0.776465 0.032812
O O11 0.500000 0.771647 0.750000
O O12 0.397025 0.296681 0.778832
O O13 0.162559 0.305217 0.521396
O O14 0.152949 0.820959 0.000593
O O15 0.500000 0.590905 0.750000
O O16 0.676858 0.513183 0.862031
O O17 0.500000 0.564556 0.250000
O O18 0.752320 0.593898 0.473505
#
# Coordination Sequence:
#
# PCOD9268853 Si02
#       8
#     8   8   8   8   8   8   8   8
#     4  11  23  34  54  86 118 163 215 259 321 390
#     4   9  18  34  49  73 116 162 212 249 333 377
#     4  11  23  40  61  93 138 177 216 267 330 399
#     4   8  19  33  51  76 115 164 202 262 315 388
#     4   9  17  31  55  83 114 170 207 248 323 391
#     4  11  24  33  52  84 127 174 219 268 325 401
#     4  10  20  33  54  79 123 174 214 272 329 398
#     4  11  17  34  58  85 124 165 214 266 328 401
#
# _framework density 22.998097999999999
#
# number of rings (size 3 to 8) (size 9 to 14) (size 15 to 20)
#    0.750    1.250    1.250    3.000    1.750    2.000 
#    0.000    0.000    0.000    0.000    0.000    0.875 
#    0.000    0.000    0.000   18.000    0.000    0.000 
#
# Total GULP energy -178247.069676 kJ/mol
# GULP energy per Si atom -5570.220927 kJ/mol
# Density = 2.294575 g / cm^3
# Si number density = 22.998098 Si / 1000 Ang^3
#
#
#
# Elastic Constant Matrix: (Units=GPa)
#
#
# Indices 1 2 3 4 5 6 
#
# 1 87.8248 20.6265 24.4420 0.0000 -15.9216 0.0000
# 2 20.6265 122.1390 47.4335 0.0000 -24.9956 0.0000
# 3 24.4420 47.4335 187.2150 0.0000 -31.1080 0.0000
# 4 0.0000 0.0000 0.0000 10.6596 0.0000 -10.8205
# 5 -15.9216 -24.9956 -31.1080 0.0000 37.1121 0.0000
# 6 0.0000 0.0000 0.0000 -10.8205 0.0000 12.9779
#
#
#
# Elastic Compliance Matrix: (Units=1/GPa)
#
#
# Indices 1 2 3 4 5 6 
#
# 1 0.012565 -0.001006 -0.000700 0.000000 0.004127 0.000000
# 2 -0.001006 0.009986 -0.001572 0.000000 0.004977 0.000000
# 3 -0.000700 -0.001572 0.006512 0.000000 0.004100 0.000000
# 4 0.000000 0.000000 0.000000 0.610527 0.000000 0.509034
# 5 0.004127 0.004977 0.004100 0.000000 0.035504 0.000000
# 6 0.000000 0.000000 0.000000 0.509034 0.000000 0.501467
#
#
# Mechanical properties :
#
#
# Convention : Reuss Voigt Hill
#
# Bulk Modulus (GPa) = 44.42696 64.68699 54.55698
# Shear Modulus (GPa) = 4.19949 32.46171 18.33060
#
# Velocity S-wave (km/s) = 1.35277 3.76106 2.82627
# Velocity P-wave (km/s) = 4.66900 6.85922 5.86722
#
# Compressibility (1/GPa) = 0.02250886
#
# Stress axis : x y z
#
# Youngs Moduli (GPa) = 79.58349 100.13843 153.55514
#
# Poissons Ratio (x) = 0.10070 0.10749
# Poissons Ratio (y) = 0.08003 0.24137
# Poissons Ratio (z) = 0.05571 0.15741
#
# Static dielectric constant tensor:
#      x y z
#    x 1.947050 0.000000 0.050080 
#    y 0.000000 1.891530 0.000000 
#    z 0.050080 0.000000 2.050470 
# 
# From -- ./inp_files/100497.got.cif
#   From: 2010.05.17/outbox.cif.g08.bks.cpg/sg15_51_cif.got.tgz:100497.got - 2010.06.03 18:47:42.
