data_PCOD9268457
_publ_section_title
;
Structure prediction by ZEFSAII (Michael W. Deem and Ramdas Pophale) SiO2 
 PCOD9268457
Probable space group: C 2/C
;
_chemical_formula_sum "Si O2"
_cell_formula_units_Z 64
_cell_length_a 18.242086
_cell_length_b 19.960651
_cell_length_c 11.629039
_cell_angle_alpha 90.000000
_cell_angle_beta 127.589298
_cell_angle_gamma 90.000000
_cell_volume 3355.362640
_symmetry_space_group_name_H-M "C 2/C"
_symmetry_group_IT_number 15
_symmetry_cell_setting 'monoclinic'
loop_
_space_group_symop_operation_xyz
x,y,z
-x,y,1/2-z
-x,-y,-z
x,-y,1/2+z
1/2+x,1/2+y,z
1/2-x,1/2+y,1/2-z
1/2-x,1/2-y,-z
1/2+x,1/2-y,1/2+z
loop_
_atom_site_type_symbol
_atom_site_label
_atom_site_fract_x
_atom_site_fract_y
_atom_site_fract_z
Si Si1 0.823556 0.263660 0.970950
Si Si2 0.259504 0.198308 0.839192
Si Si3 0.093089 0.864903 0.899350
Si Si4 0.256584 0.944973 0.406807
Si Si5 0.266444 0.096857 0.401407
Si Si6 0.902532 0.036027 0.905549
Si Si7 0.189125 0.086740 0.076195
Si Si8 0.395912 0.710022 0.611038
O O1 0.775445 0.234571 0.809429
O O2 0.839459 0.343085 0.985354
O O3 0.750000 0.250000 0.000000
O O4 0.906459 0.214829 0.083876
O O5 0.283285 0.118656 0.852963
O O6 0.173647 0.204575 0.846722
O O7 0.346715 0.236833 0.978928
O O8 0.181994 0.889501 0.910446
O O9 0.000000 0.889126 0.750000
O O10 0.094022 0.893779 0.028460
O O11 0.149738 0.959125 0.265557
O O12 0.261135 0.917376 0.540528
O O13 0.299053 0.019437 0.439097
O O14 0.227252 0.108625 0.235530
O O15 0.842721 0.988480 0.931316
O O16 0.000000 0.000000 0.000000
O O17 0.110487 0.138160 0.959697
O O18 0.500000 0.725059 0.750000
#
# Coordination Sequence:
#
# PCOD9268457 Si02
#       8
#     8   8   8   8   8   8   8   8
#     4  10  21  37  55  73 113 153 190 230 275 332
#     4  10  20  39  55  83 115 146 190 240 286 345
#     4  11  21  35  50  76 111 146 188 226 278 338
#     4  10  20  34  54  76 106 144 181 229 284 330
#     4  10  20  36  54  77 104 147 187 227 277 342
#     4  11  22  30  47  77 115 147 176 220 278 347
#     4  10  20  32  50  76 108 140 180 219 271 343
#     4  10  22  35  59  83 112 148 190 236 290 343
#
# _framework density 19.073944000000001
#
# number of rings (size 3 to 8) (size 9 to 14) (size 15 to 20)
#    0.000    1.750    3.750    1.500    3.500    1.000 
#    0.000    0.000    0.000    0.750    0.000    0.875 
#    0.000    0.000    0.000    0.000    0.000    0.000 
#
# Total GULP energy -178214.618342 kJ/mol
# GULP energy per Si atom -5569.206823 kJ/mol
# Density = 1.903053 g / cm^3
# Si number density = 19.073944 Si / 1000 Ang^3
#
#
#
# Elastic Constant Matrix: (Units=GPa)
#
#
# Indices 1 2 3 4 5 6 
#
# 1 27.2295 8.9614 17.4392 0.0000 -11.0419 0.0000
# 2 8.9614 130.3786 11.1190 0.0000 3.3608 0.0000
# 3 17.4392 11.1190 58.6069 0.0000 -8.8978 0.0000
# 4 0.0000 0.0000 0.0000 18.7339 0.0000 -0.5040
# 5 -11.0419 3.3608 -8.8978 0.0000 27.9718 0.0000
# 6 0.0000 0.0000 0.0000 -0.5040 0.0000 13.2190
#
#
#
# Elastic Compliance Matrix: (Units=1/GPa)
#
#
# Indices 1 2 3 4 5 6 
#
# 1 0.052684 -0.002998 -0.012499 0.000000 0.017181 0.000000
# 2 -0.002998 0.008025 -0.001005 0.000000 -0.002467 0.000000
# 3 -0.012499 -0.001005 0.021269 0.000000 0.001952 0.000000
# 4 0.000000 0.000000 0.000000 0.053434 0.000000 0.002037
# 5 0.017181 -0.002467 0.001952 0.000000 0.043450 0.000000
# 6 0.000000 0.000000 0.000000 0.002037 0.000000 0.075726
#
#
# Mechanical properties :
#
#
# Convention : Reuss Voigt Hill
#
# Bulk Modulus (GPa) = 20.41924 32.36158 26.39041
# Shear Modulus (GPa) = 16.45177 23.89796 20.17486
#
# Velocity S-wave (km/s) = 2.94006 3.54349 3.25579
# Velocity P-wave (km/s) = 4.71740 5.80904 5.29145
#
# Compressibility (1/GPa) = 0.04897342
#
# Stress axis : x y z
#
# Youngs Moduli (GPa) = 18.98109 124.60505 47.01611
#
# Poissons Ratio (x) = 0.37357 0.58768
# Poissons Ratio (y) = 0.05691 0.04726
# Poissons Ratio (z) = 0.23725 0.12524
#
# Static dielectric constant tensor:
#      x y z
#    x 1.710380 0.000000 -0.070460 
#    y 0.000000 1.780480 0.000000 
#    z -0.070460 0.000000 1.725510 
# 
# From -- ./inp_files/107522.got.cif
#   From: 2010.05.17/outbox.cif.g08.bks.cpg/sg15_54_cif.got.tgz:107522.got - 2010.06.03 18:47:42.
