data_PCOD9268316
_publ_section_title
;
Structure prediction by ZEFSAII (Michael W. Deem and Ramdas Pophale) SiO2 
 PCOD9268316
Probable space group: C 2/C
;
_chemical_formula_sum "Si O2"
_cell_formula_units_Z 48
_cell_length_a 15.589112
_cell_length_b 23.094019
_cell_length_c 5.620591
_cell_angle_alpha 90.000000
_cell_angle_beta 85.957459
_cell_angle_gamma 90.000000
_cell_volume 2018.463967
_symmetry_space_group_name_H-M "C 2/C"
_symmetry_group_IT_number 15
_symmetry_cell_setting 'monoclinic'
loop_
_space_group_symop_operation_xyz
x,y,z
-x,y,1/2-z
-x,-y,-z
x,-y,1/2+z
1/2+x,1/2+y,z
1/2-x,1/2+y,1/2-z
1/2-x,1/2-y,-z
1/2+x,1/2-y,1/2+z
loop_
_atom_site_type_symbol
_atom_site_label
_atom_site_fract_x
_atom_site_fract_y
_atom_site_fract_z
Si Si1 0.500000 0.533519 0.250000
Si Si2 0.644040 0.090493 0.374714
Si Si3 0.302339 0.669809 0.851467
Si Si4 0.500000 0.206348 0.750000
Si Si5 0.885168 0.608670 0.611175
Si Si6 0.662158 0.613870 0.155901
Si Si7 0.903456 0.726846 0.166244
O O1 0.500000 0.500000 0.500000
O O2 0.584641 0.571874 0.221662
O O3 0.605405 0.076183 0.639158
O O4 0.745842 0.080943 0.364083
O O5 0.627634 0.160419 0.352196
O O6 0.610396 0.070036 0.125370
O O7 0.206166 0.643053 0.858123
O O8 0.346208 0.640959 0.607167
O O9 0.328269 0.736416 0.799573
O O10 0.333381 0.654210 0.110083
O O11 0.453992 0.160465 0.584322
O O12 0.574813 0.242082 0.612939
O O13 0.000000 0.739232 0.250000
#
# Coordination Sequence:
#
# PCOD9268316 Si02
#       7
#     4   8   8   4   8   8   8
#     4  12  26  45  70  94 116 140 182 246 304 365
#     4   9  19  35  52  73 109 149 189 233 274 326
#     4  10  23  35  54  77 116 157 195 235 277 327
#     4  10  20  31  46  66 104 146 208 254 272 305
#     4   9  18  33  46  67  95 144 187 245 277 314
#     4  10  23  41  59  82 110 146 184 233 292 349
#     4  11  22  32  49  76 112 159 205 238 269 309
#
# _framework density 23.780457999999999
#
# number of rings (size 3 to 8) (size 9 to 14) (size 15 to 20)
#    0.000    2.000    1.667    1.000    4.667    8.667 
#    0.000    0.000    0.000    0.000    0.000    0.000 
#    0.000    1.333    0.000    1.667    0.000    0.000 
#
# Total GULP energy -133778.131258 kJ/mol
# GULP energy per Si atom -5574.088802 kJ/mol
# Density = 2.372633 g / cm^3
# Si number density = 23.780458 Si / 1000 Ang^3
#
#
#
# Elastic Constant Matrix: (Units=GPa)
#
#
# Indices 1 2 3 4 5 6 
#
# 1 98.4059 24.6173 25.6508 0.0000 -15.5437 0.0000
# 2 24.6173 29.8296 14.4633 0.0000 -6.2899 0.0000
# 3 25.6508 14.4633 208.4231 0.0000 -5.0548 0.0000
# 4 0.0000 0.0000 0.0000 10.6294 0.0000 13.9575
# 5 -15.5437 -6.2899 -5.0548 0.0000 44.4584 0.0000
# 6 0.0000 0.0000 0.0000 13.9575 0.0000 -62.7872
#
#
#
# Elastic Compliance Matrix: (Units=1/GPa)
#
#
# Indices 1 2 3 4 5 6 
#
# 1 0.013381 -0.009947 -0.000880 0.000000 0.003171 0.000000
# 2 -0.009947 0.043071 -0.001706 0.000000 0.002422 0.000000
# 3 -0.000880 -0.001706 0.005025 0.000000 0.000022 0.000000
# 4 0.000000 0.000000 0.000000 0.072822 0.000000 0.016188
# 5 0.003171 0.002422 0.000022 0.000000 0.023947 0.000000
# 6 0.000000 0.000000 0.000000 0.016188 0.000000 -0.012328
#
#
# Mechanical properties :
#
#
# Convention : Reuss Voigt Hill
#
# Bulk Modulus (GPa) = 27.46446 51.79127 39.62787
# Shear Modulus (GPa) = 27.30455 16.58858 21.94657
#
# Velocity S-wave (km/s) = 3.39218 2.64402 3.04119
# Velocity P-wave (km/s) = 5.18813 5.58098 5.38814
#
# Compressibility (1/GPa) = 0.03641069
#
# Stress axis : x y z
#
# Youngs Moduli (GPa) = 74.73521 23.21760 199.00083
#
# Poissons Ratio (x) = 0.23096 0.17504
# Poissons Ratio (y) = 0.74342 0.33947
# Poissons Ratio (z) = 0.06573 0.03961
#
# Static dielectric constant tensor:
#      x y z
#    x 1.922480 0.000000 0.056800 
#    y 0.000000 1.893740 0.000000 
#    z 0.056800 0.000000 2.118900 
# 
# From -- ./inp_files/10706.got.cif
#   From: 2010.05.17/outbox.cif.g08.bks.cpg/sg15_6_cif.got.tgz:10706.got - 2010.06.03 18:47:42.
