data_PCOD9268397
_publ_section_title
;
Structure prediction by ZEFSAII (Michael W. Deem and Ramdas Pophale) SiO2 
 PCOD9268397
Probable space group: C 2/C
;
_chemical_formula_sum "Si O2"
_cell_formula_units_Z 48
_cell_length_a 15.728833
_cell_length_b 11.334889
_cell_length_c 12.507420
_cell_angle_alpha 90.000000
_cell_angle_beta 112.261022
_cell_angle_gamma 90.000000
_cell_volume 2063.681863
_symmetry_space_group_name_H-M "C 2/C"
_symmetry_group_IT_number 15
_symmetry_cell_setting 'monoclinic'
loop_
_space_group_symop_operation_xyz
x,y,z
-x,y,1/2-z
-x,-y,-z
x,-y,1/2+z
1/2+x,1/2+y,z
1/2-x,1/2+y,1/2-z
1/2-x,1/2-y,-z
1/2+x,1/2-y,1/2+z
loop_
_atom_site_type_symbol
_atom_site_label
_atom_site_fract_x
_atom_site_fract_y
_atom_site_fract_z
Si Si1 0.638357 0.337316 0.630171
Si Si2 0.651153 0.212075 0.217542
Si Si3 0.409219 0.054987 0.504834
Si Si4 0.820939 0.897489 0.425903
Si Si5 0.650081 0.187833 0.450300
Si Si6 0.626153 0.242624 0.848555
O O1 0.741535 0.293948 0.703648
O O2 0.656450 0.466893 0.588811
O O3 0.595491 0.256681 0.516704
O O4 0.593860 0.306991 0.724330
O O5 0.637372 0.116583 0.118624
O O6 0.627526 0.332177 0.147102
O O7 0.607158 0.194988 0.312268
O O8 0.430787 0.147107 0.609555
O O9 0.500000 0.000000 0.500000
O O10 0.345542 0.948952 0.516710
O O11 0.717127 0.841734 0.370681
O O12 0.851852 0.846936 0.555677
O O13 0.750000 0.250000 0.500000
#
# Coordination Sequence:
#
# PCOD9268397 Si02
#       6
#     8   8   8   8   8   8
#     4  10  20  31  61  90 124 158 205 264 317 372
#     4   9  21  35  57  89 124 161 202 258 322 371
#     4  11  24  41  62  89 127 168 208 264 326 393
#     4   9  18  33  57  89 123 155 201 262 314 363
#     4  10  22  36  58  91 122 160 207 260 316 381
#     4   9  19  36  55  87 122 163 202 255 319 372
#
# _framework density 23.259398000000001
#
# number of rings (size 3 to 8) (size 9 to 14) (size 15 to 20)
#    0.000    2.333    0.000    3.000   11.667    0.667 
#    0.000    0.000    0.000    4.000    8.667    0.000 
#    0.000    0.000    0.000    0.000    0.000    0.000 
#
# Total GULP energy -133739.643459 kJ/mol
# GULP energy per Si atom -5572.485144 kJ/mol
# Density = 2.320646 g / cm^3
# Si number density = 23.259398 Si / 1000 Ang^3
#
#
#
# Elastic Constant Matrix: (Units=GPa)
#
#
# Indices 1 2 3 4 5 6 
#
# 1 49.7242 14.5240 21.6822 0.0000 -10.6118 0.0000
# 2 14.5240 164.1487 101.5889 0.0000 -34.8736 0.0000
# 3 21.6822 101.5889 184.4329 0.0000 -51.9639 0.0000
# 4 0.0000 0.0000 0.0000 17.6839 0.0000 -8.0342
# 5 -10.6118 -34.8736 -51.9639 0.0000 24.6333 0.0000
# 6 0.0000 0.0000 0.0000 -8.0342 0.0000 12.7505
#
#
#
# Elastic Compliance Matrix: (Units=1/GPa)
#
#
# Indices 1 2 3 4 5 6 
#
# 1 0.022151 0.000050 0.000189 0.000000 0.010013 0.000000
# 2 0.000050 0.009590 -0.003591 0.000000 0.006022 0.000000
# 3 0.000189 -0.003591 0.014713 0.000000 0.026035 0.000000
# 4 0.000000 0.000000 0.000000 0.079231 0.000000 0.049924
# 5 0.010013 0.006022 0.026035 0.000000 0.108354 0.000000
# 6 0.000000 0.000000 0.000000 0.049924 0.000000 0.109886
#
#
# Mechanical properties :
#
#
# Convention : Reuss Voigt Hill
#
# Bulk Modulus (GPa) = 25.15746 74.87733 50.01739
# Shear Modulus (GPa) = 13.74088 28.38092 21.06090
#
# Velocity S-wave (km/s) = 2.43321 3.49691 3.01238
# Velocity P-wave (km/s) = 4.32822 6.96898 5.80087
#
# Compressibility (1/GPa) = 0.03974965
#
# Stress axis : x y z
#
# Youngs Moduli (GPa) = 45.14565 104.28017 67.96573
#
# Poissons Ratio (x) = -0.00522 -0.01288
# Poissons Ratio (y) = -0.00226 0.24409
# Poissons Ratio (z) = -0.00855 0.37451
#
# Static dielectric constant tensor:
#      x y z
#    x 2.025070 0.000000 -0.142520 
#    y 0.000000 1.901340 0.000000 
#    z -0.142520 0.000000 1.912200 
# 
# From -- ./inp_files/110654.got.cif
#   From: 2010.05.17/outbox.cif.g08.bks.cpg/sg15_56_cif.got.tgz:110654.got - 2010.06.03 18:47:42.
