data_PCOD9268331
_publ_section_title
;
Structure prediction by ZEFSAII (Michael W. Deem and Ramdas Pophale) SiO2 
 PCOD9268331
Probable space group: C 2/C
;
_chemical_formula_sum "Si O2"
_cell_formula_units_Z 48
_cell_length_a 26.663094
_cell_length_b 14.221497
_cell_length_c 7.372291
_cell_angle_alpha 90.000000
_cell_angle_beta 60.645393
_cell_angle_gamma 90.000000
_cell_volume 2436.558115
_symmetry_space_group_name_H-M "C 2/C"
_symmetry_group_IT_number 15
_symmetry_cell_setting 'monoclinic'
loop_
_space_group_symop_operation_xyz
x,y,z
-x,y,1/2-z
-x,-y,-z
x,-y,1/2+z
1/2+x,1/2+y,z
1/2-x,1/2+y,1/2-z
1/2-x,1/2-y,-z
1/2+x,1/2-y,1/2+z
loop_
_atom_site_type_symbol
_atom_site_label
_atom_site_fract_x
_atom_site_fract_y
_atom_site_fract_z
Si Si1 0.369642 0.300432 0.102643
Si Si2 0.596208 0.292089 0.868157
Si Si3 0.790742 0.876952 0.726996
Si Si4 0.262075 0.422304 0.170370
Si Si5 0.171079 0.691429 0.001772
Si Si6 0.014466 0.891598 0.513078
O O1 0.316748 0.370951 0.163664
O O2 0.349614 0.213089 0.260178
O O3 0.391651 0.270774 0.864693
O O4 0.420141 0.356444 0.120308
O O5 0.641450 0.376067 0.837402
O O6 0.713748 0.278608 0.869664
O O7 0.531958 0.327584 0.007326
O O8 0.756699 0.880596 0.976912
O O9 0.617675 0.790956 0.460034
O O10 0.775051 0.967451 0.640056
O O11 0.206075 0.400214 0.388385
O O12 0.000000 0.879088 0.750000
O O13 0.000000 0.000000 0.500000
#
# Coordination Sequence:
#
# PCOD9268331 Si02
#       6
#     8   8   8   8   8   8
#     4  10  20  31  51  72 101 139 178 206 251 306
#     4   8  20  35  47  74 105 139 173 209 258 302
#     4   9  20  32  50  74 103 136 174 212 252 315
#     4  11  19  35  51  76 106 142 175 212 268 303
#     4  10  21  35  54  71 106 147 171 219 258 307
#     4  10  20  31  48  73 104 139 175 210 250 313
#
# _framework density 19.699919000000001
#
# number of rings (size 3 to 8) (size 9 to 14) (size 15 to 20)
#    1.000    1.333    0.000    3.000    2.333    1.333 
#    0.000    0.000    0.000    0.000    0.000    0.000 
#    0.000   12.000    0.000    0.000    0.000    0.000 
#
# Total GULP energy -133865.143014 kJ/mol
# GULP energy per Si atom -5577.714292 kJ/mol
# Density = 1.965508 g / cm^3
# Si number density = 19.699919 Si / 1000 Ang^3
#
#
#
# Elastic Constant Matrix: (Units=GPa)
#
#
# Indices 1 2 3 4 5 6 
#
# 1 81.2690 4.6714 16.3518 0.0000 -3.5713 0.0000
# 2 4.6714 17.8810 4.2339 0.0000 5.7385 0.0000
# 3 16.3518 4.2339 78.9127 0.0000 11.8144 0.0000
# 4 0.0000 0.0000 0.0000 18.4049 0.0000 -2.4865
# 5 -3.5713 5.7385 11.8144 0.0000 21.9620 0.0000
# 6 0.0000 0.0000 0.0000 -2.4865 0.0000 14.8697
#
#
#
# Elastic Compliance Matrix: (Units=1/GPa)
#
#
# Indices 1 2 3 4 5 6 
#
# 1 0.013448 -0.004369 -0.003318 0.000000 0.005113 0.000000
# 2 -0.004369 0.062531 0.000112 0.000000 -0.017110 0.000000
# 3 -0.003318 0.000112 0.014616 0.000000 -0.008431 0.000000
# 4 0.000000 0.000000 0.000000 0.055589 0.000000 0.009296
# 5 0.005113 -0.017110 -0.008431 0.000000 0.055371 0.000000
# 6 0.000000 0.000000 0.000000 0.009296 0.000000 0.068805
#
#
# Mechanical properties :
#
#
# Convention : Reuss Voigt Hill
#
# Bulk Modulus (GPa) = 13.25450 25.39743 19.32596
# Shear Modulus (GPa) = 16.09485 21.23438 18.66461
#
# Velocity S-wave (km/s) = 2.86142 3.28669 3.08140
# Velocity P-wave (km/s) = 4.20236 5.22716 4.74252
#
# Compressibility (1/GPa) = 0.07544609
#
# Stress axis : x y z
#
# Youngs Moduli (GPa) = 74.35948 15.99202 68.41809
#
# Poissons Ratio (x) = 0.06986 0.22700
# Poissons Ratio (y) = 0.32486 -0.00765
# Poissons Ratio (z) = 0.24671 -0.00179
#
# Static dielectric constant tensor:
#      x y z
#    x 1.754240 0.000000 0.026860 
#    y 0.000000 1.664500 0.000000 
#    z 0.026860 0.000000 1.742040 
# 
# From -- ./inp_files/65036.got.cif
#   From: 2010.05.17/outbox.cif.g08.bks.cpg/sg15_33_cif.got.tgz:65036.got - 2010.06.03 18:47:42.
