data_PCOD9268202
_publ_section_title
;
Structure prediction by ZEFSAII (Michael W. Deem and Ramdas Pophale) SiO2 
 PCOD9268202
Probable space group: C 2/C
;
_chemical_formula_sum "Si O2"
_cell_formula_units_Z 60
_cell_length_a 22.671984
_cell_length_b 5.330011
_cell_length_c 23.059434
_cell_angle_alpha 90.000000
_cell_angle_beta 102.194401
_cell_angle_gamma 90.000000
_cell_volume 2723.672247
_symmetry_space_group_name_H-M "C 2/C"
_symmetry_group_IT_number 15
_symmetry_cell_setting 'monoclinic'
loop_
_space_group_symop_operation_xyz
x,y,z
-x,y,1/2-z
-x,-y,-z
x,-y,1/2+z
1/2+x,1/2+y,z
1/2-x,1/2+y,1/2-z
1/2-x,1/2-y,-z
1/2+x,1/2-y,1/2+z
loop_
_atom_site_type_symbol
_atom_site_label
_atom_site_fract_x
_atom_site_fract_y
_atom_site_fract_z
Si Si1 0.331989 0.415859 0.060305
Si Si2 0.408125 0.436679 0.345706
Si Si3 0.838719 0.441632 0.366833
Si Si4 0.722510 0.399752 0.563684
Si Si5 0.399605 0.314834 0.732069
Si Si6 0.000000 0.453085 0.750000
Si Si7 0.275018 0.708433 0.158045
Si Si8 0.043588 0.090312 0.859834
O O1 0.288570 0.173255 0.053878
O O2 0.307003 0.576180 0.109249
O O3 0.401633 0.353683 0.085447
O O4 0.315778 0.532526 0.994601
O O5 0.380436 0.186847 0.368340
O O6 0.401643 0.442000 0.273997
O O7 0.478998 0.463259 0.374646
O O8 0.373071 0.693329 0.353289
O O9 0.814624 0.348178 0.424783
O O10 0.774496 0.522231 0.324613
O O11 0.737235 0.563447 0.623318
O O12 0.446543 0.117300 0.766786
O O13 0.331304 0.225436 0.710147
O O14 0.429845 0.372981 0.676159
O O15 0.970820 0.301663 0.690940
#
# Coordination Sequence:
#
# PCOD9268202 Si02
#       8
#     8   8   8   8   8   4   8   8
#     4   9  21  37  71  98 127 169 219 285 345 380
#     4  12  23  43  63  91 135 181 213 262 327 392
#     4  11  25  42  67  89 135 177 217 263 322 393
#     4  10  19  44  66  99 131 169 222 285 331 391
#     4  11  23  37  65  95 125 170 216 278 329 391
#     4  12  18  38  62  94 136 162 206 280 338 384
#     4  10  21  41  65  97 130 164 225 274 333 397
#     4  11  22  39  61 100 129 171 224 274 329 403
#
# _framework density 22.029081999999999
#
# number of rings (size 3 to 8) (size 9 to 14) (size 15 to 20)
#    0.000    1.333    4.000    2.000    0.000    1.067 
#    0.000    1.333    0.000    0.000    0.000    0.000 
#    0.000    0.000    0.000    0.000    0.000    0.000 
#
# Total GULP energy -167247.611118 kJ/mol
# GULP energy per Si atom -5574.920371 kJ/mol
# Density = 2.197894 g / cm^3
# Si number density = 22.029082 Si / 1000 Ang^3
#
#
#
# Elastic Constant Matrix: (Units=GPa)
#
#
# Indices 1 2 3 4 5 6 
#
# 1 191.3173 69.4695 55.8966 0.0000 32.5338 0.0000
# 2 69.4695 99.4890 26.3259 0.0000 12.4943 0.0000
# 3 55.8966 26.3259 75.8478 0.0000 35.8330 0.0000
# 4 0.0000 0.0000 0.0000 20.7068 0.0000 -4.8094
# 5 32.5338 12.4943 35.8330 0.0000 38.6783 0.0000
# 6 0.0000 0.0000 0.0000 -4.8094 0.0000 29.8841
#
#
#
# Elastic Compliance Matrix: (Units=1/GPa)
#
#
# Indices 1 2 3 4 5 6 
#
# 1 0.008287 -0.004591 -0.003417 0.000000 -0.002322 0.000000
# 2 -0.004591 0.013611 -0.001935 0.000000 0.001257 0.000000
# 3 -0.003417 -0.001935 0.026179 0.000000 -0.020754 0.000000
# 4 0.000000 0.000000 0.000000 0.050169 0.000000 0.008074
# 5 -0.002322 0.001257 -0.020754 0.000000 0.046629 0.000000
# 6 0.000000 0.000000 0.000000 0.008074 0.000000 0.034762
#
#
# Mechanical properties :
#
#
# Convention : Reuss Voigt Hill
#
# Bulk Modulus (GPa) = 35.47139 74.44866 54.96003
# Shear Modulus (GPa) = 23.93279 32.18465 28.05872
#
# Velocity S-wave (km/s) = 3.29966 3.82646 3.57278
# Velocity P-wave (km/s) = 5.53661 7.30694 6.48249
#
# Compressibility (1/GPa) = 0.02819174
#
# Stress axis : x y z
#
# Youngs Moduli (GPa) = 120.67049 73.46958 38.19899
#
# Poissons Ratio (x) = 0.33728 0.13051
# Poissons Ratio (y) = 0.55397 0.07392
# Poissons Ratio (z) = 0.41229 0.14217
#
# Static dielectric constant tensor:
#      x y z
#    x 1.890980 0.000000 -0.079710 
#    y 0.000000 1.898160 0.000000 
#    z -0.079710 0.000000 1.895260 
# 
# From -- ./inp_files/299965.got.cif
#   From: 2010.05.17/outbox.cif.g08.bks.cpg/sg15_150_cif.got.tgz:299965.got - 2010.06.03 18:47:42.
