data_PCOD9268091
_publ_section_title
;
Structure prediction by ZEFSAII (Michael W. Deem and Ramdas Pophale) SiO2 
 PCOD9268091
Probable space group: C 2/C
;
_chemical_formula_sum "Si O2"
_cell_formula_units_Z 36
_cell_length_a 12.511095
_cell_length_b 7.317967
_cell_length_c 20.115793
_cell_angle_alpha 90.000000
_cell_angle_beta 129.147892
_cell_angle_gamma 90.000000
_cell_volume 1428.286570
_symmetry_space_group_name_H-M "C 2/C"
_symmetry_group_IT_number 15
_symmetry_cell_setting 'monoclinic'
loop_
_space_group_symop_operation_xyz
x,y,z
-x,y,1/2-z
-x,-y,-z
x,-y,1/2+z
1/2+x,1/2+y,z
1/2-x,1/2+y,1/2-z
1/2-x,1/2-y,-z
1/2+x,1/2-y,1/2+z
loop_
_atom_site_type_symbol
_atom_site_label
_atom_site_fract_x
_atom_site_fract_y
_atom_site_fract_z
Si Si1 0.268990 0.967542 0.915357
Si Si2 0.284130 0.548487 0.889432
Si Si3 0.536916 0.479819 0.416387
Si Si4 0.500000 0.958895 0.750000
Si Si5 0.977283 0.407356 0.391013
O O1 0.238317 0.748985 0.897858
O O2 0.128157 0.055625 0.887603
O O3 0.339322 0.033719 0.875369
O O4 0.390430 0.992431 0.018232
O O5 0.389146 0.607430 0.871589
O O6 0.162160 0.412077 0.822355
O O7 0.368586 0.451537 0.981688
O O8 0.498180 0.692229 0.404382
O O9 0.520183 0.047264 0.684996
#
# Coordination Sequence:
#
# PCOD9268091 Si02
#       5
#     8   8   8   4   8
#     4  10  19  42  61  87 110 164 194 239 275 378
#     4  10  21  36  65  84 121 150 199 235 306 326
#     4  10  19  42  61  87 110 164 194 239 275 378
#     4  12  20  38  58  92 120 156 180 266 288 342
#     4  10  21  36  65  84 121 150 199 235 306 326
#
# _framework density 25.205024999999999
#
# number of rings (size 3 to 8) (size 9 to 14) (size 15 to 20)
#    0.000    1.778    4.444    1.333    0.000    1.778 
#    4.000    4.444    0.000    0.000    0.000    0.000 
#    0.000    0.000    0.000    0.000    0.000    0.000 
#
# Total GULP energy -100402.875709 kJ/mol
# GULP energy per Si atom -5577.937539 kJ/mol
# Density = 2.514766 g / cm^3
# Si number density = 25.205025 Si / 1000 Ang^3
#
#
#
# Elastic Constant Matrix: (Units=GPa)
#
#
# Indices 1 2 3 4 5 6 
#
# 1 238.4164 37.7837 26.6492 0.0000 -4.6555 0.0000
# 2 37.7837 50.1278 26.7246 0.0000 -5.7417 0.0000
# 3 26.6492 26.7246 48.9376 0.0000 -19.0921 0.0000
# 4 0.0000 0.0000 0.0000 -12.9445 0.0000 -5.6866
# 5 -4.6555 -5.7417 -19.0921 0.0000 52.2229 0.0000
# 6 0.0000 0.0000 0.0000 -5.6866 0.0000 37.9541
#
#
#
# Elastic Compliance Matrix: (Units=1/GPa)
#
#
# Indices 1 2 3 4 5 6 
#
# 1 0.004795 -0.003096 -0.001034 0.000000 -0.000291 0.000000
# 2 -0.003096 0.030536 -0.016081 0.000000 -0.002798 0.000000
# 3 -0.001034 -0.016081 0.033886 0.000000 0.010528 0.000000
# 4 0.000000 0.000000 0.000000 -0.072482 0.000000 -0.010860
# 5 -0.000291 -0.002798 0.010528 0.000000 0.022664 0.000000
# 6 0.000000 0.000000 0.000000 -0.010860 0.000000 0.024721
#
#
# Mechanical properties :
#
#
# Convention : Reuss Voigt Hill
#
# Bulk Modulus (GPa) = 34.72813 57.75520 46.24167
# Shear Modulus (GPa) = 53.11306 31.86811 42.49059
#
# Velocity S-wave (km/s) = 4.59545 3.55964 4.11030
# Velocity P-wave (km/s) = 6.47809 6.31337 6.39626
#
# Compressibility (1/GPa) = 0.02879510
#
# Stress axis : x y z
#
# Youngs Moduli (GPa) = 208.55445 32.74875 29.51070
#
# Poissons Ratio (x) = 0.10140 0.03050
# Poissons Ratio (y) = 0.64577 0.47455
# Poissons Ratio (z) = 0.21557 0.52662
#
# Static dielectric constant tensor:
#      x y z
#    x 2.059270 0.000000 0.032170 
#    y 0.000000 2.005070 0.000000 
#    z 0.032170 0.000000 1.960030 
# 
# From -- ./inp_files/141337.got.cif
#   From: 2010.05.17/outbox.cif.g08.bks.cpg/sg15_71_cif.got.tgz:141337.got - 2010.06.03 18:47:42.
