data_PCOD9268095
_publ_section_title
;
Structure prediction by ZEFSAII (Michael W. Deem and Ramdas Pophale) SiO2 
 PCOD9268095
Probable space group: C 2/C
;
_chemical_formula_sum "Si O2"
_cell_formula_units_Z 60
_cell_length_a 19.780200
_cell_length_b 14.215236
_cell_length_c 12.188415
_cell_angle_alpha 90.000000
_cell_angle_beta 58.824179
_cell_angle_gamma 90.000000
_cell_volume 2932.202957
_symmetry_space_group_name_H-M "C 2/C"
_symmetry_group_IT_number 15
_symmetry_cell_setting 'monoclinic'
loop_
_space_group_symop_operation_xyz
x,y,z
-x,y,1/2-z
-x,-y,-z
x,-y,1/2+z
1/2+x,1/2+y,z
1/2-x,1/2+y,1/2-z
1/2-x,1/2-y,-z
1/2+x,1/2-y,1/2+z
loop_
_atom_site_type_symbol
_atom_site_label
_atom_site_fract_x
_atom_site_fract_y
_atom_site_fract_z
Si Si1 0.592928 0.660176 0.993572
Si Si2 0.589788 0.818085 0.670428
Si Si3 0.791049 0.644415 0.615832
Si Si4 0.239360 0.555222 0.633851
Si Si5 0.691441 0.824209 0.988564
Si Si6 0.728279 0.149045 0.212864
Si Si7 0.500000 0.450174 0.750000
Si Si8 0.389275 0.616862 0.774195
O O1 0.527051 0.613009 0.124671
O O2 0.675630 0.605258 0.942285
O O3 0.613829 0.765202 0.018549
O O4 0.580732 0.647949 0.873180
O O5 0.500000 0.850161 0.750000
O O6 0.639637 0.862693 0.529694
O O7 0.640252 0.838456 0.737620
O O8 0.591132 0.703943 0.662315
O O9 0.804352 0.594766 0.720885
O O10 0.774692 0.756051 0.645030
O O11 0.705430 0.606842 0.649366
O O12 0.187993 0.588241 0.573546
O O13 0.257055 0.446065 0.633987
O O14 0.728215 0.857788 0.843395
O O15 0.750000 0.750000 0.000000
O O16 0.429805 0.520446 0.774416
#
# Coordination Sequence:
#
# PCOD9268095 Si02
#       8
#     8   8   8   8   8   8   4   8
#     4  10  22  40  58  90 140 164 206 264 327 395
#     4  11  23  41  64  90 129 170 216 276 330 374
#     4  10  22  42  64  96 127 165 220 268 328 383
#     4  10  23  38  68  98 120 174 225 265 314 395
#     4  10  19  42  62  91 134 167 217 270 325 382
#     4  11  21  39  70  93 126 172 217 277 321 384
#     4  12  24  34  64 100 128 172 202 262 348 398
#     4  10  20  41  59  92 131 161 211 263 317 400
#
# _framework density 20.462430000000001
#
# number of rings (size 3 to 8) (size 9 to 14) (size 15 to 20)
#    0.000    1.600    6.000    2.000    5.600    3.200 
#    2.400    0.667    1.467    0.000    0.000    0.000 
#    0.000    0.000    0.000    0.000    0.000    0.000 
#
# Total GULP energy -167491.560371 kJ/mol
# GULP energy per Si atom -5583.052012 kJ/mol
# Density = 2.041586 g / cm^3
# Si number density = 20.462430 Si / 1000 Ang^3
#
#
#
# Elastic Constant Matrix: (Units=GPa)
#
#
# Indices 1 2 3 4 5 6 
#
# 1 30.0501 -8.7122 34.2637 0.0000 4.2341 0.0000
# 2 -8.7122 64.5950 8.2768 0.0000 7.2764 0.0000
# 3 34.2637 8.2768 139.8518 0.0000 1.3169 0.0000
# 4 0.0000 0.0000 0.0000 27.7428 0.0000 5.2247
# 5 4.2341 7.2764 1.3169 0.0000 28.5265 0.0000
# 6 0.0000 0.0000 0.0000 5.2247 0.0000 18.2625
#
#
#
# Elastic Compliance Matrix: (Units=1/GPa)
#
#
# Indices 1 2 3 4 5 6 
#
# 1 0.052879 0.009956 -0.013453 0.000000 -0.009767 0.000000
# 2 0.009956 0.017929 -0.003445 0.000000 -0.005892 0.000000
# 3 -0.013453 -0.003445 0.010628 0.000000 0.002385 0.000000
# 4 0.000000 0.000000 0.000000 0.038098 0.000000 -0.010899
# 5 -0.009767 -0.005892 0.002385 0.000000 0.037898 0.000000
# 6 0.000000 0.000000 0.000000 -0.010899 0.000000 0.057875
#
#
# Mechanical properties :
#
#
# Convention : Reuss Voigt Hill
#
# Bulk Modulus (GPa) = 14.80316 33.57262 24.18789
# Shear Modulus (GPa) = 19.86431 28.28428 24.07429
#
# Velocity S-wave (km/s) = 3.11910 3.72190 3.43375
# Velocity P-wave (km/s) = 4.49686 5.90869 5.25045
#
# Compressibility (1/GPa) = 0.06755314
#
# Stress axis : x y z
#
# Youngs Moduli (GPa) = 18.91094 55.77567 94.09328
#
# Poissons Ratio (x) = -0.55530 1.26581
# Poissons Ratio (y) = -0.18828 0.32413
# Poissons Ratio (z) = 0.25440 0.19214
#
# Static dielectric constant tensor:
#      x y z
#    x 1.737310 0.000000 0.017880 
#    y 0.000000 1.781560 0.000000 
#    z 0.017880 0.000000 1.744020 
# 
# From -- ./inp_files/112696.got.cif
#   From: 2010.05.17/outbox.cif.g08.bks.cpg/sg15_57_cif.got.tgz:112696.got - 2010.06.03 18:47:42.
