data_PCOD9268284
_publ_section_title
;
Structure prediction by ZEFSAII (Michael W. Deem and Ramdas Pophale) SiO2 
 PCOD9268284
Probable space group: C 2/C
;
_chemical_formula_sum "Si O2"
_cell_formula_units_Z 32
_cell_length_a 15.629097
_cell_length_b 20.023703
_cell_length_c 15.746882
_cell_angle_alpha 90.000000
_cell_angle_beta 160.935536
_cell_angle_gamma 90.000000
_cell_volume 1609.649301
_symmetry_space_group_name_H-M "C 2/C"
_symmetry_group_IT_number 15
_symmetry_cell_setting 'monoclinic'
loop_
_space_group_symop_operation_xyz
x,y,z
-x,y,1/2-z
-x,-y,-z
x,-y,1/2+z
1/2+x,1/2+y,z
1/2-x,1/2+y,1/2-z
1/2-x,1/2-y,-z
1/2+x,1/2-y,1/2+z
loop_
_atom_site_type_symbol
_atom_site_label
_atom_site_fract_x
_atom_site_fract_y
_atom_site_fract_z
Si Si1 0.500000 0.429265 0.750000
Si Si2 0.673861 0.960669 0.734540
Si Si3 0.066639 0.900352 0.991836
Si Si4 0.000000 0.477566 0.750000
Si Si5 0.558000 0.204973 0.705928
O O1 0.466301 0.386240 0.802914
O O2 0.244609 0.474758 0.501346
O O3 0.541353 0.939650 0.699213
O O4 0.840111 0.900667 0.849142
O O5 0.500000 0.000000 0.500000
O O6 0.860966 0.021248 0.940355
O O7 0.328823 0.856516 0.243464
O O8 0.500000 0.184444 0.750000
O O9 0.303054 0.243803 0.435728
#
# Coordination Sequence:
#
# PCOD9268284 Si02
#       5
#     4   8   8   4   8
#     4  10  20  30  52  75 110 155 176 220 280 328
#     4  10  20  35  54  84 112 151 190 230 294 343
#     4  10  22  34  54  80 113 151 192 232 281 346
#     4  10  20  34  50  79 116 145 182 226 278 344
#     4  10  24  38  54  81 113 154 198 233 277 341
#
# _framework density 19.880106999999999
#
# number of rings (size 3 to 8) (size 9 to 14) (size 15 to 20)
#    0.000    2.000    2.500    0.000   15.750    0.000 
#    0.000    0.000    0.000    0.000    0.000    1.750 
#    0.000    0.000    0.000    0.000    0.000    0.000 
#
# Total GULP energy -89160.910078 kJ/mol
# GULP energy per Si atom -5572.556880 kJ/mol
# Density = 1.983486 g / cm^3
# Si number density = 19.880107 Si / 1000 Ang^3
#
#
#
# Elastic Constant Matrix: (Units=GPa)
#
#
# Indices 1 2 3 4 5 6 
#
# 1 173.2961 35.5659 30.5524 0.0001 22.0122 0.0000
# 2 35.5659 59.2752 16.6219 -0.0004 21.0702 -0.0001
# 3 30.5524 16.6219 97.6381 0.0004 18.3722 0.0014
# 4 0.0001 -0.0004 0.0004 34.0740 0.0006 19.0089
# 5 22.0122 21.0702 18.3722 0.0006 33.9930 0.0005
# 6 0.0000 -0.0001 0.0014 19.0089 0.0005 29.5151
#
#
#
# Elastic Compliance Matrix: (Units=1/GPa)
#
#
# Indices 1 2 3 4 5 6 
#
# 1 0.006866 -0.003113 -0.001275 0.000000 -0.001828 0.000000
# 2 -0.003113 0.023196 -0.000722 0.000000 -0.011972 0.000000
# 3 -0.001275 -0.000722 0.011716 0.000000 -0.005059 -0.000001
# 4 0.000000 0.000000 0.000000 0.045805 -0.000001 -0.029501
# 5 -0.001828 -0.011972 -0.005059 -0.000001 0.040756 0.000000
# 6 0.000000 0.000000 -0.000001 -0.029501 0.000000 0.052881
#
#
# Mechanical properties :
#
#
# Convention : Reuss Voigt Hill
#
# Bulk Modulus (GPa) = 31.68661 55.07667 43.38164
# Shear Modulus (GPa) = 24.75749 36.01437 30.38593
#
# Velocity S-wave (km/s) = 3.53277 4.26088 3.91379
# Velocity P-wave (km/s) = 5.71087 7.20912 6.50328
#
# Compressibility (1/GPa) = 0.03155907
#
# Stress axis : x y z
#
# Youngs Moduli (GPa) = 145.64115 43.11051 85.35606
#
# Poissons Ratio (x) = 0.13418 0.10880
# Poissons Ratio (y) = 0.45332 0.06165
# Poissons Ratio (z) = 0.18565 0.03113
#
# Static dielectric constant tensor:
#      x y z
#    x 1.856350 0.000000 0.036520 
#    y 0.000000 1.717280 0.000000 
#    z 0.036520 0.000000 1.829910 
# 
# From -- ./inp_files/6436.got.cif
#   From: 2010.05.17/outbox.cif.g08.bks.cpg/sg15_4_cif.got.tgz:6436.got - 2010.06.03 18:47:42.
