data_PCOD9268975
_publ_section_title
;
Structure prediction by ZEFSAII (Michael W. Deem and Ramdas Pophale) SiO2 
 PCOD9268975
Probable space group: C 2/C
;
_chemical_formula_sum "Si O2"
_cell_formula_units_Z 64
_cell_length_a 21.726183
_cell_length_b 26.514282
_cell_length_c 11.044447
_cell_angle_alpha 90.000000
_cell_angle_beta 32.496825
_cell_angle_gamma 90.000000
_cell_volume 3418.109924
_symmetry_space_group_name_H-M "C 2/C"
_symmetry_group_IT_number 15
_symmetry_cell_setting 'monoclinic'
loop_
_space_group_symop_operation_xyz
x,y,z
-x,y,1/2-z
-x,-y,-z
x,-y,1/2+z
1/2+x,1/2+y,z
1/2-x,1/2+y,1/2-z
1/2-x,1/2-y,-z
1/2+x,1/2-y,1/2+z
loop_
_atom_site_type_symbol
_atom_site_label
_atom_site_fract_x
_atom_site_fract_y
_atom_site_fract_z
Si Si1 0.512050 0.676111 0.089775
Si Si2 0.781777 0.201643 0.362884
Si Si3 0.621714 0.973981 0.280054
Si Si4 0.574055 0.774609 0.862091
Si Si5 0.617243 0.143428 0.775166
Si Si6 0.241396 0.644180 0.820147
Si Si7 0.360982 0.037548 0.477108
Si Si8 0.178155 0.758544 0.969898
O O1 0.500000 0.665931 0.250000
O O2 0.390727 0.669745 0.227562
O O3 0.538208 0.735541 0.026094
O O4 0.625242 0.645647 0.865042
O O5 0.750000 0.250000 0.500000
O O6 0.670282 0.167133 0.565480
O O7 0.818333 0.221834 0.171984
O O8 0.595450 0.915484 0.296210
O O9 0.679146 0.976919 0.319083
O O10 0.500000 0.000000 0.500000
O O11 0.676155 0.001601 0.072555
O O12 0.707941 0.784854 0.664159
O O13 0.575680 0.739874 0.737398
O O14 0.489950 0.822231 0.003413
O O15 0.712982 0.145284 0.723319
O O16 0.192998 0.698074 0.939594
O O17 0.179664 0.595060 0.974798
O O18 0.500000 0.037365 0.250000
#
# Coordination Sequence:
#
# PCOD9268975 Si02
#       8
#     8   8   8   8   8   8   8   8
#     4  11  20  36  55  78 117 145 198 240 270 344
#     4  12  20  37  56  84 118 156 193 245 284 341
#     4   9  20  38  55  85 116 147 190 247 304 358
#     4  10  22  35  52  82 120 156 194 233 282 355
#     4  11  21  35  61  86 114 161 196 239 301 353
#     4  10  20  33  58  82 108 157 200 230 289 345
#     4   9  19  37  59  84 116 146 192 251 305 360
#     4  10  22  36  50  83 120 158 197 231 283 353
#
# _framework density 18.723799
#
# number of rings (size 3 to 8) (size 9 to 14) (size 15 to 20)
#    0.000    1.750    3.750    0.750    5.250    1.500 
#    6.750    0.000    0.000    0.750    0.000    0.000 
#    0.000    0.000    0.000    0.000    0.000    0.000 
#
# Total GULP energy -178154.378783 kJ/mol
# GULP energy per Si atom -5567.324337 kJ/mol
# Density = 1.868118 g / cm^3
# Si number density = 18.723799 Si / 1000 Ang^3
#
#
#
# Elastic Constant Matrix: (Units=GPa)
#
#
# Indices 1 2 3 4 5 6 
#
# 1 80.6063 34.3453 33.9537 0.0000 11.9172 0.0001
# 2 34.3453 97.3007 38.5073 -0.0001 5.3766 0.0001
# 3 33.9537 38.5073 79.3184 -0.0003 4.2876 0.0001
# 4 0.0000 -0.0001 -0.0003 25.6247 0.0001 4.0316
# 5 11.9172 5.3766 4.2876 0.0001 27.2000 -0.0001
# 6 0.0001 0.0001 0.0001 4.0316 -0.0001 21.4083
#
#
#
# Elastic Compliance Matrix: (Units=1/GPa)
#
#
# Indices 1 2 3 4 5 6 
#
# 1 0.017017 -0.003618 -0.005208 0.000000 -0.005919 0.000000
# 2 -0.003618 0.013557 -0.005016 0.000000 -0.000304 0.000000
# 3 -0.005208 -0.005016 0.017242 0.000000 0.000555 0.000000
# 4 0.000000 0.000000 0.000000 0.040216 0.000000 -0.007574
# 5 -0.005919 -0.000304 0.000555 0.000000 0.039331 0.000000
# 6 0.000000 0.000000 0.000000 -0.007574 0.000000 0.048137
#
#
# Mechanical properties :
#
#
# Convention : Reuss Voigt Hill
#
# Bulk Modulus (GPa) = 49.67546 52.31533 50.99539
# Shear Modulus (GPa) = 23.82161 24.87454 24.34808
#
# Velocity S-wave (km/s) = 3.57075 3.64881 3.60999
# Velocity P-wave (km/s) = 6.60217 6.76410 6.68362
#
# Compressibility (1/GPa) = 0.02013067
#
# Stress axis : x y z
#
# Youngs Moduli (GPa) = 58.76649 73.76492 57.99867
#
# Poissons Ratio (x) = 0.26692 0.30203
# Poissons Ratio (y) = 0.21265 0.29092
# Poissons Ratio (z) = 0.30603 0.37001
#
# Static dielectric constant tensor:
#      x y z
#    x 1.775610 0.000000 0.016670 
#    y 0.000000 1.624440 0.000000 
#    z 0.016670 0.000000 1.757170 
# 
# From -- ./inp_files/120236.got.cif
#   From: 2010.05.17/outbox.cif.g08.bks.cpg/sg15_61_cif.got.tgz:120236.got - 2010.06.03 18:47:42.
