data_PCOD9268174
_publ_section_title
;
Structure prediction by ZEFSAII (Michael W. Deem and Ramdas Pophale) SiO2 
 PCOD9268174
Probable space group: C 2/C
;
_chemical_formula_sum "Si O2"
_cell_formula_units_Z 40
_cell_length_a 9.186392
_cell_length_b 13.552878
_cell_length_c 30.043471
_cell_angle_alpha 90.000000
_cell_angle_beta 27.705734
_cell_angle_gamma 90.000000
_cell_volume 1739.060887
_symmetry_space_group_name_H-M "C 2/C"
_symmetry_group_IT_number 15
_symmetry_cell_setting 'monoclinic'
loop_
_space_group_symop_operation_xyz
x,y,z
-x,y,1/2-z
-x,-y,-z
x,-y,1/2+z
1/2+x,1/2+y,z
1/2-x,1/2+y,1/2-z
1/2-x,1/2-y,-z
1/2+x,1/2-y,1/2+z
loop_
_atom_site_type_symbol
_atom_site_label
_atom_site_fract_x
_atom_site_fract_y
_atom_site_fract_z
Si Si1 0.187446 0.558466 0.574002
Si Si2 0.715357 0.775660 0.652926
Si Si3 0.768019 0.078375 0.355968
Si Si4 0.168013 0.711183 0.462937
Si Si5 0.145633 0.525459 0.257625
O O1 0.500000 0.500000 0.500000
O O2 0.274567 0.671946 0.547587
O O3 0.000261 0.496262 0.587492
O O4 0.972499 0.551950 0.675151
O O5 0.500000 0.728094 0.750000
O O6 0.505326 0.865504 0.690652
O O7 0.856014 0.702695 0.577859
O O8 0.013514 0.824799 0.598199
O O9 0.644867 0.171057 0.418890
O O10 0.000000 0.099255 0.250000
O O11 0.987974 0.028385 0.333437
O O12 0.000000 0.501049 0.250000
#
# Coordination Sequence:
#
# PCOD9268174 Si02
#       5
#     8   8   8   8   8
#     4  11  24  41  62  99 140 175 232 293 346 419
#     4  10  20  39  70  94 132 176 225 294 351 407
#     4  10  23  43  68 100 144 181 227 296 357 409
#     4  11  22  41  72  99 127 191 236 273 361 434
#     4  10  19  43  66  90 139 179 211 298 357 389
#
# _framework density 23.000921000000002
#
# number of rings (size 3 to 8) (size 9 to 14) (size 15 to 20)
#    0.000    1.600    6.000    0.000    0.000    4.000 
#    0.000   11.000    0.000    0.000    0.000    0.000 
#    0.000    0.000    0.000    0.000    0.000    0.000 
#
# Total GULP energy -111476.756085 kJ/mol
# GULP energy per Si atom -5573.837804 kJ/mol
# Density = 2.294857 g / cm^3
# Si number density = 23.000921 Si / 1000 Ang^3
#
#
#
# Elastic Constant Matrix: (Units=GPa)
#
#
# Indices 1 2 3 4 5 6 
#
# 1 151.5132 63.2023 34.5618 -0.0257 -9.3856 0.0023
# 2 63.2023 101.4715 41.3795 0.0002 2.3190 0.0077
# 3 34.5618 41.3795 106.7877 -0.0269 9.0040 0.0424
# 4 -0.0257 0.0002 -0.0269 18.9633 0.0158 -5.3707
# 5 -9.3856 2.3190 9.0040 0.0158 50.5127 -0.0133
# 6 0.0023 0.0077 0.0424 -5.3707 -0.0133 29.9430
#
#
#
# Elastic Compliance Matrix: (Units=1/GPa)
#
#
# Indices 1 2 3 4 5 6 
#
# 1 0.009210 -0.005340 -0.001093 0.000011 0.002151 0.000005
# 2 -0.005340 0.014804 -0.003926 -0.000012 -0.000972 -0.000001
# 3 -0.001093 -0.003926 0.011413 0.000013 -0.002057 -0.000014
# 4 0.000011 -0.000012 0.000013 0.055556 -0.000014 0.009965
# 5 0.002151 -0.000972 -0.002057 -0.000014 0.020608 0.000010
# 6 0.000005 -0.000001 -0.000014 0.009965 0.000010 0.035184
#
#
# Mechanical properties :
#
#
# Convention : Reuss Voigt Hill
#
# Bulk Modulus (GPa) = 67.98664 70.89551 69.44107
# Shear Modulus (GPa) = 29.00275 34.59239 31.79757
#
# Velocity S-wave (km/s) = 3.55482 3.88230 3.72216
# Velocity P-wave (km/s) = 6.81699 7.14046 6.98060
#
# Compressibility (1/GPa) = 0.01470877
#
# Stress axis : x y z
#
# Youngs Moduli (GPa) = 108.57457 67.54714 87.61906
#
# Poissons Ratio (x) = 0.36071 0.09577
# Poissons Ratio (y) = 0.57980 0.34402
# Poissons Ratio (z) = 0.11868 0.26521
#
# Static dielectric constant tensor:
#      x y z
#    x 1.888070 -0.000050 0.037960 
#    y -0.000050 1.955250 -0.000350 
#    z 0.037960 -0.000350 2.188620 
# 
# From -- ./inp_files/308167.got.cif
#   From: 2010.05.17/outbox.cif.g08.bks.cpg/sg15_155_cif.got.tgz:308167.got - 2010.06.03 18:47:42.
