data_PCOD9268392
_publ_section_title
;
Structure prediction by ZEFSAII (Michael W. Deem and Ramdas Pophale) SiO2 
 PCOD9268392
Probable space group: C 2/C
;
_chemical_formula_sum "Si O2"
_cell_formula_units_Z 64
_cell_length_a 12.197811
_cell_length_b 16.555071
_cell_length_c 19.335323
_cell_angle_alpha 90.000000
_cell_angle_beta 98.284968
_cell_angle_gamma 90.000000
_cell_volume 3863.741860
_symmetry_space_group_name_H-M "C 2/C"
_symmetry_group_IT_number 15
_symmetry_cell_setting 'monoclinic'
loop_
_space_group_symop_operation_xyz
x,y,z
-x,y,1/2-z
-x,-y,-z
x,-y,1/2+z
1/2+x,1/2+y,z
1/2-x,1/2+y,1/2-z
1/2-x,1/2-y,-z
1/2+x,1/2-y,1/2+z
loop_
_atom_site_type_symbol
_atom_site_label
_atom_site_fract_x
_atom_site_fract_y
_atom_site_fract_z
Si Si1 0.809907 0.321133 0.090922
Si Si2 0.543657 0.772077 0.175768
Si Si3 0.322108 0.931305 0.310540
Si Si4 0.690399 0.991735 0.344583
Si Si5 0.304129 0.157016 0.425972
Si Si6 0.602612 0.408203 0.673597
Si Si7 0.484152 0.967470 0.920566
Si Si8 0.863822 0.041152 0.167520
O O1 0.776851 0.403471 0.125008
O O2 0.733566 0.244882 0.104240
O O3 0.937401 0.302485 0.122835
O O4 0.801957 0.335947 0.008457
O O5 0.500000 0.762849 0.250000
O O6 0.641318 0.838330 0.187135
O O7 0.581391 0.684637 0.153100
O O8 0.345421 0.973452 0.238169
O O9 0.400438 0.972804 0.373912
O O10 0.197545 0.956842 0.320877
O O11 0.794283 0.051085 0.353976
O O12 0.595097 0.026819 0.385307
O O13 0.422707 0.119324 0.416054
O O14 0.212915 0.093570 0.390045
O O15 0.629692 0.413037 0.758076
O O16 0.489454 0.458749 0.652667
O O17 0.500000 0.000000 0.000000
#
# Coordination Sequence:
#
# PCOD9268392 Si02
#       8
#     8   8   8   8   8   8   8   8
#     4  11  20  33  55  83 106 139 185 228 264 324
#     4  12  17  32  56  83 104 139 188 229 267 322
#     4  10  20  31  58  83 109 135 192 234 265 322
#     4  11  21  35  54  87 111 142 183 234 272 324
#     4  10  20  33  56  81 109 138 186 222 275 325
#     4  10  20  34  55  78 113 142 180 221 275 330
#     4  11  19  35  56  83 112 146 178 230 283 326
#     4   9  18  35  52  79 106 148 173 220 278 329
#
# _framework density 16.564253999999998
#
# number of rings (size 3 to 8) (size 9 to 14) (size 15 to 20)
#    0.000    1.500    6.250    0.375    0.000    0.000 
#    0.000    1.875    0.000    3.000    0.000    0.000 
#    0.000    0.000    0.000    0.000    0.000    0.000 
#
# Total GULP energy -178338.301526 kJ/mol
# GULP energy per Si atom -5573.071923 kJ/mol
# Density = 1.652655 g / cm^3
# Si number density = 16.564254 Si / 1000 Ang^3
#
#
#
# Elastic Constant Matrix: (Units=GPa)
#
#
# Indices 1 2 3 4 5 6 
#
# 1 117.8783 60.4638 37.4943 0.0000 0.9021 0.0000
# 2 60.4638 111.8249 18.3592 0.0000 0.5851 0.0000
# 3 37.4943 18.3592 76.4009 0.0000 11.3842 0.0000
# 4 0.0000 0.0000 0.0000 16.0272 0.0000 0.0703
# 5 0.9021 0.5851 11.3842 0.0000 11.8983 0.0000
# 6 0.0000 0.0000 0.0000 0.0703 0.0000 38.3339
#
#
#
# Elastic Compliance Matrix: (Units=1/GPa)
#
#
# Indices 1 2 3 4 5 6 
#
# 1 0.013603 -0.006418 -0.005862 0.000000 0.004893 0.000000
# 2 -0.006418 0.012377 0.000226 0.000000 -0.000338 0.000000
# 3 -0.005862 0.000226 0.018482 0.000000 -0.017250 0.000000
# 4 0.000000 0.000000 0.000000 0.062395 0.000000 -0.000114
# 5 0.004893 -0.000338 -0.017250 0.000000 0.100196 0.000000
# 6 0.000000 0.000000 0.000000 -0.000114 0.000000 0.026087
#
#
# Mechanical properties :
#
#
# Convention : Reuss Voigt Hill
#
# Bulk Modulus (GPa) = 49.13382 59.85986 54.49684
# Shear Modulus (GPa) = 18.93702 25.90433 22.42068
#
# Velocity S-wave (km/s) = 3.38486 3.95887 3.68306
# Velocity P-wave (km/s) = 6.70845 7.55733 7.14551
#
# Compressibility (1/GPa) = 0.02035258
#
# Stress axis : x y z
#
# Youngs Moduli (GPa) = 73.51520 80.79178 54.10664
#
# Poissons Ratio (x) = 0.51853 0.31720
# Poissons Ratio (y) = 0.47182 -0.01221
# Poissons Ratio (z) = 0.43098 -0.01824
#
# Static dielectric constant tensor:
#      x y z
#    x 1.566120 0.000000 0.012950 
#    y 0.000000 1.566680 0.000000 
#    z 0.012950 0.000000 1.559850 
# 
# From -- ./inp_files/239322.got.cif
#   From: 2010.05.17/outbox.cif.g08.bks.cpg/sg15_120_cif.got.tgz:239322.got - 2010.06.03 18:47:42.
