data_PCOD9268290
_publ_section_title
;
Structure prediction by ZEFSAII (Michael W. Deem and Ramdas Pophale) SiO2 
 PCOD9268290
Probable space group: C 2/C
;
_chemical_formula_sum "Si O2"
_cell_formula_units_Z 36
_cell_length_a 13.703427
_cell_length_b 28.006123
_cell_length_c 5.024781
_cell_angle_alpha 90.000000
_cell_angle_beta 91.939231
_cell_angle_gamma 90.000000
_cell_volume 1927.305320
_symmetry_space_group_name_H-M "C 2/C"
_symmetry_group_IT_number 15
_symmetry_cell_setting 'monoclinic'
loop_
_space_group_symop_operation_xyz
x,y,z
-x,y,1/2-z
-x,-y,-z
x,-y,1/2+z
1/2+x,1/2+y,z
1/2-x,1/2+y,1/2-z
1/2-x,1/2-y,-z
1/2+x,1/2-y,1/2+z
loop_
_atom_site_type_symbol
_atom_site_label
_atom_site_fract_x
_atom_site_fract_y
_atom_site_fract_z
Si Si1 0.000000 0.179492 0.750000
Si Si2 0.755966 0.310474 0.741910
Si Si3 0.698494 0.632051 0.756922
Si Si4 0.908199 0.258091 0.109569
Si Si5 0.613549 0.532278 0.804592
O O1 0.908552 0.148594 0.653614
O O2 0.038910 0.213696 0.525457
O O3 0.767400 0.339799 0.470937
O O4 0.676939 0.266712 0.719348
O O5 0.717835 0.347126 0.966037
O O6 0.852738 0.287768 0.877984
O O7 0.688831 0.575215 0.760253
O O8 0.000000 0.284726 0.250000
O O9 0.500000 0.547829 0.750000
O O10 0.626050 0.488852 0.599276
#
# Coordination Sequence:
#
# PCOD9268290 Si02
#       5
#     4   8   8   8   8
#     4  10  20  30  54  68 104 150 170 208 248 296
#     4  10  23  32  52  73 105 138 184 212 249 300
#     4  11  20  36  49  77 103 139 176 208 252 310
#     4  10  20  34  49  73 103 143 181 216 250 289
#     4  10  20  33  52  76 102 133 170 211 255 313
#
# _framework density 18.678930999999999
#
# number of rings (size 3 to 8) (size 9 to 14) (size 15 to 20)
#    0.000    1.778    3.333    1.333    3.111    2.667 
#    0.000    0.000    0.000    0.000    0.000    0.000 
#    0.000   17.778    0.000    0.000    0.000    0.000 
#
# Total GULP energy -100439.861735 kJ/mol
# GULP energy per Si atom -5579.992319 kJ/mol
# Density = 1.863642 g / cm^3
# Si number density = 18.678931 Si / 1000 Ang^3
#
#
#
# Elastic Constant Matrix: (Units=GPa)
#
#
# Indices 1 2 3 4 5 6 
#
# 1 51.1295 6.0520 8.8215 0.0000 21.0673 0.0000
# 2 6.0520 59.0877 1.3968 0.0000 8.3066 0.0000
# 3 8.8215 1.3968 51.5977 0.0000 6.9541 0.0000
# 4 0.0000 0.0000 0.0000 13.9378 0.0000 -6.0934
# 5 21.0673 8.3066 6.9541 0.0000 35.6037 0.0000
# 6 0.0000 0.0000 0.0000 -6.0934 0.0000 -17.6307
#
#
#
# Elastic Compliance Matrix: (Units=1/GPa)
#
#
# Indices 1 2 3 4 5 6 
#
# 1 0.026179 -0.000530 -0.002455 0.000000 -0.014887 0.000000
# 2 -0.000530 0.017509 0.000128 0.000000 -0.003796 0.000000
# 3 -0.002455 0.000128 0.020135 0.000000 -0.002510 0.000000
# 4 0.000000 0.000000 0.000000 0.062329 0.000000 -0.021542
# 5 -0.014887 -0.003796 -0.002510 0.000000 0.038272 0.000000
# 6 0.000000 0.000000 0.000000 -0.021542 0.000000 -0.049274
#
#
# Mechanical properties :
#
#
# Convention : Reuss Voigt Hill
#
# Bulk Modulus (GPa) = 17.20910 21.59506 19.40208
# Shear Modulus (GPa) = 35.65479 16.08514 25.86996
#
# Velocity S-wave (km/s) = 4.37375 2.93770 3.72557
# Velocity P-wave (km/s) = 5.89401 4.80552 5.37738
#
# Compressibility (1/GPa) = 0.05810878
#
# Stress axis : x y z
#
# Youngs Moduli (GPa) = 38.19918 57.11362 49.66416
#
# Poissons Ratio (x) = 0.03030 0.12192
# Poissons Ratio (y) = 0.02026 -0.00637
# Poissons Ratio (z) = 0.09378 -0.00733
#
# Static dielectric constant tensor:
#      x y z
#    x 1.697530 0.000000 0.037300 
#    y 0.000000 1.645690 0.000000 
#    z 0.037300 0.000000 1.313370 
# 
# From -- ./inp_files/4255.got.cif
#   From: 2010.05.17/outbox.cif.g08.bks.cpg/sg15_3_cif.got.tgz:4255.got - 2010.06.03 18:47:42.
