data_PCOD9268474
_publ_section_title
;
Structure prediction by ZEFSAII (Michael W. Deem and Ramdas Pophale) SiO2 
 PCOD9268474
Probable space group: C 2/C
;
_chemical_formula_sum "Si O2"
_cell_formula_units_Z 60
_cell_length_a 27.611392
_cell_length_b 20.364056
_cell_length_c 15.565789
_cell_angle_alpha 90.000000
_cell_angle_beta 21.869013
_cell_angle_gamma 90.000000
_cell_volume 3260.120083
_symmetry_space_group_name_H-M "C 2/C"
_symmetry_group_IT_number 15
_symmetry_cell_setting 'monoclinic'
loop_
_space_group_symop_operation_xyz
x,y,z
-x,y,1/2-z
-x,-y,-z
x,-y,1/2+z
1/2+x,1/2+y,z
1/2-x,1/2+y,1/2-z
1/2-x,1/2-y,-z
1/2+x,1/2-y,1/2+z
loop_
_atom_site_type_symbol
_atom_site_label
_atom_site_fract_x
_atom_site_fract_y
_atom_site_fract_z
Si Si1 0.837692 0.790422 0.422105
Si Si2 0.404173 0.957343 0.516865
Si Si3 0.709208 0.074564 0.112769
Si Si4 0.636352 0.752165 0.430381
Si Si5 0.275566 0.198101 0.031699
Si Si6 0.301689 0.932937 0.402489
Si Si7 0.915761 0.599656 0.528615
Si Si8 0.500000 0.147192 0.750000
O O1 0.750000 0.750000 0.500000
O O2 0.807770 0.865807 0.450415
O O3 0.806078 0.772054 0.573450
O O4 0.988945 0.773524 0.164266
O O5 0.323961 0.941322 0.733453
O O6 0.554531 0.947771 0.296639
O O7 0.390067 0.901261 0.469444
O O8 0.386969 0.033503 0.521360
O O9 0.570200 0.096133 0.298823
O O10 0.760612 0.005123 0.992281
O O11 0.713930 0.724001 0.221301
O O12 0.623591 0.831522 0.448145
O O13 0.250000 0.250000 0.000000
O O14 0.234718 0.126298 0.063398
O O15 0.430239 0.190396 0.793724
O O16 0.334995 0.909439 0.250483
#
# Coordination Sequence:
#
# PCOD9268474 Si02
#       8
#     8   8   8   8   8   8   8   4
#     4  11  23  38  55  78 116 157 183 228 271 330
#     4   8  16  28  52  81 110 137 179 232 283 327
#     4   9  16  33  56  75 109 148 183 220 282 330
#     4  11  23  35  56  87 112 146 195 219 282 337
#     4  11  21  36  59  86 118 142 182 238 280 340
#     4   8  16  31  55  82 105 145 175 227 290 317
#     4   9  15  31  54  84 111 134 178 238 278 326
#     4  10  20  32  50  86 112 150 180 222 292 328
#
# _framework density 18.404229999999998
#
# number of rings (size 3 to 8) (size 9 to 14) (size 15 to 20)
#    0.000    2.400    2.667    2.400    0.000    2.133 
#    2.400    0.667    0.000    1.600    0.000    0.000 
#    0.000    0.000    0.000    0.000    0.000    0.000 
#
# Total GULP energy -167107.961418 kJ/mol
# GULP energy per Si atom -5570.265381 kJ/mol
# Density = 1.836234 g / cm^3
# Si number density = 18.404230 Si / 1000 Ang^3
#
#
#
# Elastic Constant Matrix: (Units=GPa)
#
#
# Indices 1 2 3 4 5 6 
#
# 1 89.9244 45.1821 19.7953 0.0000 -0.3968 0.0001
# 2 45.1821 171.5536 30.3942 0.0000 -5.2284 0.0000
# 3 19.7953 30.3942 30.8379 -0.0001 6.9009 0.0001
# 4 0.0000 0.0000 -0.0001 24.4540 -0.0003 2.2851
# 5 -0.3968 -5.2284 6.9009 -0.0003 20.2425 0.0000
# 6 0.0001 0.0000 0.0001 2.2851 0.0000 20.3647
#
#
#
# Elastic Compliance Matrix: (Units=1/GPa)
#
#
# Indices 1 2 3 4 5 6 
#
# 1 0.013857 -0.002336 -0.007057 0.000000 0.002074 0.000000
# 2 -0.002336 0.007864 -0.007249 0.000000 0.004457 0.000000
# 3 -0.007057 -0.007249 0.048232 0.000000 -0.018453 0.000000
# 4 0.000000 0.000000 0.000000 0.041326 0.000001 -0.004637
# 5 0.002074 0.004457 -0.018453 0.000001 0.056884 0.000000
# 6 0.000000 0.000000 0.000000 -0.004637 0.000000 0.049625
#
#
# Mechanical properties :
#
#
# Convention : Reuss Voigt Hill
#
# Bulk Modulus (GPa) = 27.27063 53.67322 40.47193
# Shear Modulus (GPa) = 18.99016 26.14186 22.56601
#
# Velocity S-wave (km/s) = 3.21571 3.77294 3.50542
# Velocity P-wave (km/s) = 5.35140 6.94312 6.19857
#
# Compressibility (1/GPa) = 0.03666949
#
# Stress axis : x y z
#
# Youngs Moduli (GPa) = 72.16730 127.15392 20.73327
#
# Poissons Ratio (x) = 0.29704 0.14630
# Poissons Ratio (y) = 0.16858 0.15030
# Poissons Ratio (z) = 0.50925 0.92176
#
# Static dielectric constant tensor:
#      x y z
#    x 3.192900 0.000090 -0.072110 
#    y 0.000090 1.684580 -0.000010 
#    z -0.072110 -0.000010 1.622090 
# 
# From -- ./inp_files/225782.got.cif
#   From: 2010.05.17/outbox.cif.g08.bks.cpg/sg15_113_cif.got.tgz:225782.got - 2010.06.03 18:47:42.
