data_PCOD9268150
_publ_section_title
;
Structure prediction by ZEFSAII (Michael W. Deem and Ramdas Pophale) SiO2 
 PCOD9268150
Probable space group: C 2/C
;
_chemical_formula_sum "Si O2"
_cell_formula_units_Z 56
_cell_length_a 17.297445
_cell_length_b 8.308864
_cell_length_c 19.282151
_cell_angle_alpha 90.000000
_cell_angle_beta 107.133742
_cell_angle_gamma 90.000000
_cell_volume 2648.281680
_symmetry_space_group_name_H-M "C 2/C"
_symmetry_group_IT_number 15
_symmetry_cell_setting 'monoclinic'
loop_
_space_group_symop_operation_xyz
x,y,z
-x,y,1/2-z
-x,-y,-z
x,-y,1/2+z
1/2+x,1/2+y,z
1/2-x,1/2+y,1/2-z
1/2-x,1/2-y,-z
1/2+x,1/2-y,1/2+z
loop_
_atom_site_type_symbol
_atom_site_label
_atom_site_fract_x
_atom_site_fract_y
_atom_site_fract_z
Si Si1 0.771374 0.347274 0.436330
Si Si2 0.411595 0.326575 0.905414
Si Si3 0.061064 0.843555 0.162044
Si Si4 0.665764 0.155125 0.973817
Si Si5 0.542071 0.800900 0.328062
Si Si6 0.027808 0.678381 0.028853
Si Si7 0.107215 0.055961 0.820421
O O1 0.750000 0.250000 0.500000
O O2 0.822912 0.246738 0.393861
O O3 0.823249 0.494801 0.479094
O O4 0.690111 0.417630 0.381699
O O5 0.412676 0.509151 0.880452
O O6 0.469720 0.236767 0.864131
O O7 0.453161 0.295046 0.991220
O O8 0.060848 0.685109 0.115330
O O9 0.110709 0.864383 0.245444
O O10 0.968075 0.865240 0.159913
O O11 0.618772 0.121502 0.888922
O O12 0.750000 0.250000 0.000000
O O13 0.598177 0.249666 0.998825
O O14 0.500000 0.881994 0.250000
O O15 0.580328 0.631502 0.310551
O O16 0.000000 0.500000 0.000000
#
# Coordination Sequence:
#
# PCOD9268150 Si02
#       7
#     8   8   8   8   8   8   8
#     4  12  25  41  61  95 134 165 215 279 321 386
#     4  10  21  39  64  92 123 169 212 259 321 393
#     4  10  21  41  69  91 122 176 219 261 329 404
#     4  11  24  40  64  92 127 170 216 267 330 386
#     4  10  19  42  70  93 125 172 217 268 326 400
#     4  11  22  39  62  94 126 163 214 269 320 386
#     4  10  20  41  67  93 126 170 220 266 325 396
#
# _framework density 21.145786000000001
#
# number of rings (size 3 to 8) (size 9 to 14) (size 15 to 20)
#    0.000    1.429    5.714    1.286    2.000    0.000 
#    5.143    2.857    0.000    0.000    0.000    0.000 
#    0.000    0.000    0.000    0.000    0.000    0.000 
#
# Total GULP energy -156138.732181 kJ/mol
# GULP energy per Si atom -5576.383292 kJ/mol
# Density = 2.109766 g / cm^3
# Si number density = 21.145786 Si / 1000 Ang^3
#
#
#
# Elastic Constant Matrix: (Units=GPa)
#
#
# Indices 1 2 3 4 5 6 
#
# 1 95.2303 17.2509 32.4472 0.0000 21.0625 0.0000
# 2 17.2509 51.7362 31.8676 0.0000 -1.8333 0.0000
# 3 32.4472 31.8676 159.4781 0.0000 21.5243 0.0000
# 4 0.0000 0.0000 0.0000 29.5172 0.0000 1.7611
# 5 21.0625 -1.8333 21.5243 0.0000 36.9267 0.0000
# 6 0.0000 0.0000 0.0000 1.7611 0.0000 13.6340
#
#
#
# Elastic Compliance Matrix: (Units=1/GPa)
#
#
# Indices 1 2 3 4 5 6 
#
# 1 0.013130 -0.004086 -0.000886 0.000000 -0.007175 0.000000
# 2 -0.004086 0.023864 -0.004788 0.000000 0.006307 0.000000
# 3 -0.000886 -0.004788 0.008001 0.000000 -0.004396 0.000000
# 4 0.000000 0.000000 0.000000 0.034142 0.000000 -0.004410
# 5 -0.007175 0.006307 -0.004396 0.000000 0.034049 0.000000
# 6 0.000000 0.000000 0.000000 -0.004410 0.000000 0.073916
#
#
# Mechanical properties :
#
#
# Convention : Reuss Voigt Hill
#
# Bulk Modulus (GPa) = 39.25737 52.17510 45.71624
# Shear Modulus (GPa) = 23.24337 31.00751 27.12544
#
# Velocity S-wave (km/s) = 3.31901 3.83347 3.58548
# Velocity P-wave (km/s) = 5.77002 6.65745 6.22956
#
# Compressibility (1/GPa) = 0.02547292
#
# Stress axis : x y z
#
# Youngs Moduli (GPa) = 76.16054 41.90346 124.98514
#
# Poissons Ratio (x) = 0.17123 0.11079
# Poissons Ratio (y) = 0.31122 0.59849
# Poissons Ratio (z) = 0.06751 0.20065
#
# Static dielectric constant tensor:
#      x y z
#    x 2.484470 0.000000 0.099610 
#    y 0.000000 1.994160 0.000000 
#    z 0.099610 0.000000 1.850300 
# 
# From -- ./inp_files/209633.got.cif
#   From: 2010.05.17/outbox.cif.g08.bks.cpg/sg15_105_cif.got.tgz:209633.got - 2010.06.03 18:47:42.
