data_PCOD9268437
_publ_section_title
;
Structure prediction by ZEFSAII (Michael W. Deem and Ramdas Pophale) SiO2 
 PCOD9268437
Probable space group: C 2/C
;
_chemical_formula_sum "Si O2"
_cell_formula_units_Z 48
_cell_length_a 26.014366
_cell_length_b 12.834997
_cell_length_c 21.829728
_cell_angle_alpha 90.000000
_cell_angle_beta 157.377577
_cell_angle_gamma 90.000000
_cell_volume 2803.693446
_symmetry_space_group_name_H-M "C 2/C"
_symmetry_group_IT_number 15
_symmetry_cell_setting 'monoclinic'
loop_
_space_group_symop_operation_xyz
x,y,z
-x,y,1/2-z
-x,-y,-z
x,-y,1/2+z
1/2+x,1/2+y,z
1/2-x,1/2+y,1/2-z
1/2-x,1/2-y,-z
1/2+x,1/2-y,1/2+z
loop_
_atom_site_type_symbol
_atom_site_label
_atom_site_fract_x
_atom_site_fract_y
_atom_site_fract_z
Si Si1 0.378882 0.083966 0.441268
Si Si2 0.644026 0.783106 0.935223
Si Si3 0.389492 0.612167 0.496611
Si Si4 0.152216 0.464482 0.219280
Si Si5 0.312151 0.422101 0.210754
Si Si6 0.754341 0.270281 0.252860
O O1 0.524832 0.046465 0.623508
O O2 0.349347 0.205247 0.402050
O O3 0.377731 0.042956 0.369865
O O4 0.258750 0.026512 0.343558
O O5 0.500000 0.814379 0.750000
O O6 0.616659 0.687095 0.951397
O O7 0.750000 0.750000 0.000000
O O8 0.716167 0.871674 0.054392
O O9 0.285836 0.517236 0.391908
O O10 0.537364 0.569613 0.647120
O O11 0.345596 0.686672 0.390585
O O12 0.171080 0.351996 0.208674
O O13 0.312494 0.341281 0.268222
#
# Coordination Sequence:
#
# PCOD9268437 Si02
#       6
#     8   8   8   8   8   8
#     4   9  18  30  46  70 101 134 165 199 241 290
#     4  11  22  36  54  74  98 128 164 207 255 295
#     4  10  20  32  49  74 101 130 166 204 243 294
#     4   9  18  30  46  70 101 134 165 199 240 291
#     4  10  20  32  49  74 101 130 166 204 243 294
#     4   9  18  30  50  72 104 136 166 196 240 291
#
# _framework density 17.120273999999998
#
# number of rings (size 3 to 8) (size 9 to 14) (size 15 to 20)
#    0.000    2.333    1.667    1.000    2.333   11.333 
#    0.000    0.000    0.000    0.000    0.000    2.333 
#    0.000    0.000    0.000    0.000    0.000    0.000 
#
# Total GULP energy -133651.888169 kJ/mol
# GULP energy per Si atom -5568.828674 kJ/mol
# Density = 1.708131 g / cm^3
# Si number density = 17.120274 Si / 1000 Ang^3
#
#
#
# Elastic Constant Matrix: (Units=GPa)
#
#
# Indices 1 2 3 4 5 6 
#
# 1 30.3915 3.3108 19.6821 0.0000 8.6270 0.0000
# 2 3.3108 63.7460 25.8598 0.0000 3.5572 0.0000
# 3 19.6821 25.8598 116.4227 -0.0001 22.8669 0.0000
# 4 0.0000 0.0000 -0.0001 15.7634 0.0000 -2.4833
# 5 8.6270 3.5572 22.8669 0.0000 25.2013 0.0000
# 6 0.0000 0.0000 0.0000 -2.4833 0.0000 7.5508
#
#
#
# Elastic Compliance Matrix: (Units=1/GPa)
#
#
# Indices 1 2 3 4 5 6 
#
# 1 0.038520 0.000473 -0.004885 0.000000 -0.008821 0.000000
# 2 0.000473 0.017280 -0.004146 0.000000 0.001161 0.000000
# 3 -0.004885 -0.004146 0.012038 0.000000 -0.008666 0.000000
# 4 0.000000 0.000000 0.000000 0.066904 0.000000 0.022003
# 5 -0.008821 0.001161 -0.008666 0.000000 0.050399 0.000000
# 6 0.000000 0.000000 0.000000 0.022003 0.000000 0.139672
#
#
# Mechanical properties :
#
#
# Convention : Reuss Voigt Hill
#
# Bulk Modulus (GPa) = 19.71520 34.25173 26.98346
# Shear Modulus (GPa) = 13.93392 20.48361 17.20877
#
# Velocity S-wave (km/s) = 2.85596 3.46273 3.17388
# Velocity P-wave (km/s) = 4.73456 6.00311 5.40617
#
# Compressibility (1/GPa) = 0.05072229
#
# Stress axis : x y z
#
# Youngs Moduli (GPa) = 25.96078 57.87072 83.06883
#
# Poissons Ratio (x) = -0.02738 0.40576
# Poissons Ratio (y) = -0.01228 0.34443
# Poissons Ratio (z) = 0.12681 0.23995
#
# Static dielectric constant tensor:
#      x y z
#    x 1.572610 0.000000 0.013410 
#    y 0.000000 1.629050 0.000000 
#    z 0.013410 0.000000 1.651520 
# 
# From -- ./inp_files/60671.got.cif
#   From: 2010.05.17/outbox.cif.g08.bks.cpg/sg15_31_cif.got.tgz:60671.got - 2010.06.03 18:47:42.
