data_PCOD9268056
_publ_section_title
;
Structure prediction by ZEFSAII (Michael W. Deem and Ramdas Pophale) SiO2 
 PCOD9268056
Probable space group: C 2/C
;
_chemical_formula_sum "Si O2"
_cell_formula_units_Z 64
_cell_length_a 22.028480
_cell_length_b 8.901110
_cell_length_c 18.891367
_cell_angle_alpha 90.000000
_cell_angle_beta 120.831720
_cell_angle_gamma 90.000000
_cell_volume 3180.691549
_symmetry_space_group_name_H-M "C 2/C"
_symmetry_group_IT_number 15
_symmetry_cell_setting 'monoclinic'
loop_
_space_group_symop_operation_xyz
x,y,z
-x,y,1/2-z
-x,-y,-z
x,-y,1/2+z
1/2+x,1/2+y,z
1/2-x,1/2+y,1/2-z
1/2-x,1/2-y,-z
1/2+x,1/2-y,1/2+z
loop_
_atom_site_type_symbol
_atom_site_label
_atom_site_fract_x
_atom_site_fract_y
_atom_site_fract_z
Si Si1 0.804375 0.403310 0.973343
Si Si2 0.168234 0.416224 0.342307
Si Si3 0.910784 0.902976 0.325341
Si Si4 0.954463 0.565256 0.536938
Si Si5 0.961517 0.396155 0.795150
Si Si6 0.179737 0.924190 0.090569
Si Si7 0.353905 0.580361 0.160141
Si Si8 0.945622 0.913463 0.574195
O O1 0.806327 0.235320 0.941464
O O2 0.724548 0.460232 0.915827
O O3 0.823866 0.402567 0.067903
O O4 0.872174 0.481793 0.978559
O O5 0.102998 0.510248 0.275283
O O6 0.241773 0.489536 0.360637
O O7 0.155650 0.244611 0.310219
O O8 0.934661 0.732640 0.330398
O O9 0.852458 0.910126 0.351327
O O10 0.879405 0.963305 0.233210
O O11 0.980555 0.000679 0.383755
O O12 0.955753 0.746832 0.546643
O O13 0.000000 0.500000 0.500000
O O14 0.986061 0.500293 0.628639
O O15 0.000000 0.325870 0.750000
O O16 0.116526 0.996066 0.007171
O O17 0.412180 0.596256 0.132883
#
# Coordination Sequence:
#
# PCOD9268056 Si02
#       8
#     8   8   8   8   8   8   8   8
#     4  10  19  41  69  91 117 160 219 260 303 379
#     4  11  20  40  72  88 114 162 222 263 300 369
#     4  12  27  38  57  96 137 165 199 259 320 375
#     4  11  23  39  67  98 122 159 210 263 317 363
#     4  12  23  40  59  92 131 163 203 261 315 367
#     4  10  21  39  64  93 120 160 210 264 312 360
#     4  11  20  40  68  93 114 167 220 253 304 381
#     4  11  20  42  66  87 125 168 212 248 306 392
#
# _framework density 20.121410000000001
#
# number of rings (size 3 to 8) (size 9 to 14) (size 15 to 20)
#    0.000    1.000    5.000    4.500    0.000    3.000 
#    0.000    3.125    0.000    0.000    0.000    0.000 
#    0.000    0.000    0.000    0.000    0.000    0.000 
#
# Total GULP energy -178628.919370 kJ/mol
# GULP energy per Si atom -5582.153730 kJ/mol
# Density = 2.007561 g / cm^3
# Si number density = 20.121410 Si / 1000 Ang^3
#
#
#
# Elastic Constant Matrix: (Units=GPa)
#
#
# Indices 1 2 3 4 5 6 
#
# 1 139.4546 13.5496 22.7976 0.0000 0.6288 0.0000
# 2 13.5496 42.8019 15.2057 0.0000 10.5635 0.0000
# 3 22.7976 15.2057 54.6995 0.0000 8.4415 0.0000
# 4 0.0000 0.0000 0.0000 12.4637 0.0000 -5.4271
# 5 0.6288 10.5635 8.4415 0.0000 33.3799 0.0000
# 6 0.0000 0.0000 0.0000 -5.4271 0.0000 11.3423
#
#
#
# Elastic Compliance Matrix: (Units=1/GPa)
#
#
# Indices 1 2 3 4 5 6 
#
# 1 0.007815 -0.001704 -0.002959 0.000000 0.001140 0.000000
# 2 -0.001704 0.027791 -0.005893 0.000000 -0.007272 0.000000
# 3 -0.002959 -0.005893 0.021704 0.000000 -0.003568 0.000000
# 4 0.000000 0.000000 0.000000 0.101348 0.000000 0.048493
# 5 0.001140 -0.007272 -0.003568 0.000000 0.033140 0.000000
# 6 0.000000 0.000000 0.000000 0.048493 0.000000 0.111368
#
#
# Mechanical properties :
#
#
# Convention : Reuss Voigt Hill
#
# Bulk Modulus (GPa) = 27.62649 37.78465 32.70557
# Shear Modulus (GPa) = 14.86565 23.79739 19.33152
#
# Velocity S-wave (km/s) = 2.72103 3.44276 3.10295
# Velocity P-wave (km/s) = 4.86125 5.88409 5.39696
#
# Compressibility (1/GPa) = 0.03619714
#
# Stress axis : x y z
#
# Youngs Moduli (GPa) = 127.95874 35.98252 46.07453
#
# Poissons Ratio (x) = 0.06132 0.13635
# Poissons Ratio (y) = 0.21805 0.27152
# Poissons Ratio (z) = 0.37868 0.21205
#
# Static dielectric constant tensor:
#      x y z
#    x 1.744700 0.000000 0.012510 
#    y 0.000000 1.697270 0.000000 
#    z 0.012510 0.000000 1.720910 
# 
# From -- ./inp_files/251912.got.cif
#   From: 2010.05.17/outbox.cif.g08.bks.cpg/sg15_126_cif.got.tgz:251912.got - 2010.06.03 18:47:42.
