data_PCOD9268079
_publ_section_title
;
Structure prediction by ZEFSAII (Michael W. Deem and Ramdas Pophale) SiO2 
 PCOD9268079
Probable space group: C 2/C
;
_chemical_formula_sum "Si O2"
_cell_formula_units_Z 44
_cell_length_a 7.784450
_cell_length_b 11.692700
_cell_length_c 16.864586
_cell_angle_alpha 90.000000
_cell_angle_beta 88.702993
_cell_angle_gamma 90.000000
_cell_volume 1534.642218
_symmetry_space_group_name_H-M "C 2/C"
_symmetry_group_IT_number 15
_symmetry_cell_setting 'monoclinic'
loop_
_space_group_symop_operation_xyz
x,y,z
-x,y,1/2-z
-x,-y,-z
x,-y,1/2+z
1/2+x,1/2+y,z
1/2-x,1/2+y,1/2-z
1/2-x,1/2-y,-z
1/2+x,1/2-y,1/2+z
loop_
_atom_site_type_symbol
_atom_site_label
_atom_site_fract_x
_atom_site_fract_y
_atom_site_fract_z
Si Si1 0.444779 0.589577 0.389112
Si Si2 0.000000 0.525832 0.750000
Si Si3 0.746926 0.212314 0.128083
Si Si4 0.231000 0.215293 0.796822
Si Si5 0.931570 0.786008 0.042087
Si Si6 0.103265 0.542505 0.917789
O O1 0.250000 0.750000 0.500000
O O2 0.637162 0.600799 0.353916
O O3 0.342713 0.682957 0.335928
O O4 0.494794 0.626730 0.477411
O O5 0.840858 0.609367 0.766186
O O6 0.973674 0.480066 0.660635
O O7 0.663048 0.238941 0.214150
O O8 0.596420 0.209641 0.064794
O O9 0.877024 0.320022 0.101213
O O10 0.122845 0.169275 0.871791
O O11 0.698883 0.495974 0.092103
O O12 0.000000 0.500000 0.000000
#
# Coordination Sequence:
#
# PCOD9268079 Si02
#       6
#     8   4   8   8   8   8
#     4  11  22  42  70 107 141 192 257 304 380 469
#     4  10  20  46  70 104 150 194 240 320 388 448
#     4  11  23  45  71 103 150 198 246 320 386 451
#     4  10  19  41  73  95 139 195 240 300 390 460
#     4  10  23  40  69 102 138 193 250 303 383 463
#     4  11  25  43  74 110 152 197 252 319 385 466
#
# _framework density 28.671178999999999
#
# number of rings (size 3 to 8) (size 9 to 14) (size 15 to 20)
#    0.000    1.455    3.636    2.182    5.091    0.727 
#    6.545   10.909    0.000    0.000    0.000    0.000 
#    0.000    0.000    0.000    0.000    0.000    0.000 
#
# Total GULP energy -122577.840667 kJ/mol
# GULP energy per Si atom -5571.720030 kJ/mol
# Density = 2.860592 g / cm^3
# Si number density = 28.671179 Si / 1000 Ang^3
#
#
#
# Elastic Constant Matrix: (Units=GPa)
#
#
# Indices 1 2 3 4 5 6 
#
# 1 108.8686 47.0812 42.6794 0.0000 20.0980 0.0000
# 2 47.0812 107.3118 24.7676 0.0000 8.9672 0.0000
# 3 42.6794 24.7676 264.7773 0.0000 10.2847 0.0000
# 4 0.0000 0.0000 0.0000 27.4905 0.0000 -4.2188
# 5 20.0980 8.9672 10.2847 0.0000 79.6567 0.0000
# 6 0.0000 0.0000 0.0000 -4.2188 0.0000 41.3689
#
#
#
# Elastic Compliance Matrix: (Units=1/GPa)
#
#
# Indices 1 2 3 4 5 6 
#
# 1 0.012287 -0.004862 -0.001434 0.000000 -0.002368 0.000000
# 2 -0.004862 0.011522 -0.000293 0.000000 -0.000033 0.000000
# 3 -0.001434 -0.000293 0.004040 0.000000 -0.000127 0.000000
# 4 0.000000 0.000000 0.000000 0.036955 0.000000 0.003769
# 5 -0.002368 -0.000033 -0.000127 0.000000 0.013171 0.000000
# 6 0.000000 0.000000 0.000000 0.003769 0.000000 0.024557
#
#
# Mechanical properties :
#
#
# Convention : Reuss Voigt Hill
#
# Bulk Modulus (GPa) = 68.15622 78.89045 73.52334
# Shear Modulus (GPa) = 41.45919 54.13183 47.79551
#
# Velocity S-wave (km/s) = 3.80679 4.34985 4.08735
# Velocity P-wave (km/s) = 6.56852 7.26661 6.92637
#
# Compressibility (1/GPa) = 0.01467218
#
# Stress axis : x y z
#
# Youngs Moduli (GPa) = 81.38548 86.78993 247.51289
#
# Poissons Ratio (x) = 0.42198 0.35488
# Poissons Ratio (y) = 0.39570 0.07248
# Poissons Ratio (z) = 0.11669 0.02541
#
# Static dielectric constant tensor:
#      x y z
#    x 2.231700 0.000000 -0.016310 
#    y 0.000000 2.566300 0.000000 
#    z -0.016310 0.000000 2.230290 
# 
# From -- ./inp_files/188820.got.cif
#   From: 2010.05.17/outbox.cif.g08.bks.cpg/sg15_95_cif.got.tgz:188820.got - 2010.06.03 18:47:42.
