data_PCOD9268273
_publ_section_title
;
Structure prediction by ZEFSAII (Michael W. Deem and Ramdas Pophale) SiO2 
 PCOD9268273
Probable space group: C 2/C
;
_chemical_formula_sum "Si O2"
_cell_formula_units_Z 44
_cell_length_a 14.832528
_cell_length_b 34.811741
_cell_length_c 5.163114
_cell_angle_alpha 90.000000
_cell_angle_beta 110.371086
_cell_angle_gamma 90.000000
_cell_volume 2499.219209
_symmetry_space_group_name_H-M "C 2/C"
_symmetry_group_IT_number 15
_symmetry_cell_setting 'monoclinic'
loop_
_space_group_symop_operation_xyz
x,y,z
-x,y,1/2-z
-x,-y,-z
x,-y,1/2+z
1/2+x,1/2+y,z
1/2-x,1/2+y,1/2-z
1/2-x,1/2-y,-z
1/2+x,1/2-y,1/2+z
loop_
_atom_site_type_symbol
_atom_site_label
_atom_site_fract_x
_atom_site_fract_y
_atom_site_fract_z
Si Si1 0.138214 0.212793 0.012338
Si Si2 0.000000 0.848466 0.250000
Si Si3 0.891340 0.890829 0.524104
Si Si4 0.438172 0.202661 0.949151
Si Si5 0.733518 0.318209 0.082725
Si Si6 0.116941 0.977561 0.871171
O O1 0.099042 0.255526 0.994689
O O2 0.219835 0.206785 0.309863
O O3 0.052456 0.182400 0.989277
O O4 0.175622 0.201556 0.763979
O O5 0.916434 0.877112 0.258531
O O6 0.814243 0.859245 0.529443
O O7 0.857293 0.933924 0.534105
O O8 0.000000 0.887487 0.750000
O O9 0.500000 0.207144 0.750000
O O10 0.342915 0.179111 0.781530
O O11 0.500000 0.186531 0.250000
O O12 0.000000 0.977962 0.750000
O O13 0.148812 0.993023 0.625463
#
# Coordination Sequence:
#
# PCOD9268273 Si02
#       6
#     8   4   8   8   8   8
#     4  11  21  36  53  74 103 134 177 223 258 307
#     4  10  20  30  50  72 104 138 178 198 262 284
#     4  10  20  32  52  73 107 135 169 211 252 300
#     4  12  24  38  56  73 104 138 178 226 272 303
#     4  11  23  37  54  80 100 136 181 218 261 315
#     4   9  19  30  46  70 101 136 166 192 242 307
#
# _framework density 17.605498999999998
#
# number of rings (size 3 to 8) (size 9 to 14) (size 15 to 20)
#    0.000    1.455    2.727    3.273    8.909    0.000 
#    0.000    0.000    0.000    0.000    0.000    0.000 
#    0.000    4.364    0.000    0.000    0.000    0.000 
#
# Total GULP energy -122679.670868 kJ/mol
# GULP energy per Si atom -5576.348676 kJ/mol
# Density = 1.756543 g / cm^3
# Si number density = 17.605499 Si / 1000 Ang^3
#
#
#
# Elastic Constant Matrix: (Units=GPa)
#
#
# Indices 1 2 3 4 5 6 
#
# 1 40.9594 20.5736 13.4873 0.0000 9.0715 0.0000
# 2 20.5736 96.1998 22.9296 0.0000 9.9999 0.0000
# 3 13.4873 22.9296 93.4198 0.0000 13.0793 0.0000
# 4 0.0000 0.0000 0.0000 21.2287 0.0000 1.9328
# 5 9.0715 9.9999 13.0793 0.0000 32.0616 0.0000
# 6 0.0000 0.0000 0.0000 1.9328 0.0000 9.7183
#
#
#
# Elastic Compliance Matrix: (Units=1/GPa)
#
#
# Indices 1 2 3 4 5 6 
#
# 1 0.028939 -0.005086 -0.002127 0.000000 -0.005734 0.000000
# 2 -0.005086 0.012124 -0.002029 0.000000 -0.001514 0.000000
# 3 -0.002127 -0.002029 0.012023 0.000000 -0.003670 0.000000
# 4 0.000000 0.000000 0.000000 0.047975 0.000000 -0.009541
# 5 -0.005734 -0.001514 -0.003670 0.000000 0.034782 0.000000
# 6 0.000000 0.000000 0.000000 -0.009541 0.000000 0.104796
#
#
# Mechanical properties :
#
#
# Convention : Reuss Voigt Hill
#
# Bulk Modulus (GPa) = 28.90016 38.28445 33.59230
# Shear Modulus (GPa) = 18.47349 24.17430 21.32390
#
# Velocity S-wave (km/s) = 3.24281 3.70957 3.48402
# Velocity P-wave (km/s) = 5.52016 6.33568 5.94193
#
# Compressibility (1/GPa) = 0.03460189
#
# Stress axis : x y z
#
# Youngs Moduli (GPa) = 34.55497 82.48172 83.17119
#
# Poissons Ratio (x) = 0.41951 0.17690
# Poissons Ratio (y) = 0.17575 0.16879
# Poissons Ratio (z) = 0.07349 0.16739
#
# Static dielectric constant tensor:
#      x y z
#    x 1.665900 0.000000 -0.042790 
#    y 0.000000 1.587270 0.000000 
#    z -0.042790 0.000000 1.715110 
# 
# From -- ./inp_files/8887.got.cif
#   From: 2010.05.17/outbox.cif.g08.bks.cpg/sg15_5_cif.got.tgz:8887.got - 2010.06.03 18:47:42.
