data_PCOD9268603
_publ_section_title
;
Structure prediction by ZEFSAII (Michael W. Deem and Ramdas Pophale) SiO2 
 PCOD9268603
Probable space group: C 2/C
;
_chemical_formula_sum "Si O2"
_cell_formula_units_Z 60
_cell_length_a 20.548574
_cell_length_b 18.234831
_cell_length_c 12.918469
_cell_angle_alpha 90.000000
_cell_angle_beta 52.457296
_cell_angle_gamma 90.000000
_cell_volume 3838.067117
_symmetry_space_group_name_H-M "C 2/C"
_symmetry_group_IT_number 15
_symmetry_cell_setting 'monoclinic'
loop_
_space_group_symop_operation_xyz
x,y,z
-x,y,1/2-z
-x,-y,-z
x,-y,1/2+z
1/2+x,1/2+y,z
1/2-x,1/2+y,1/2-z
1/2-x,1/2-y,-z
1/2+x,1/2-y,1/2+z
loop_
_atom_site_type_symbol
_atom_site_label
_atom_site_fract_x
_atom_site_fract_y
_atom_site_fract_z
Si Si1 0.919992 0.484237 0.893479
Si Si2 0.195469 0.441778 0.675121
Si Si3 0.591910 0.200971 0.346403
Si Si4 0.992415 0.358844 0.370651
Si Si5 0.754804 0.203951 0.835573
Si Si6 0.644630 0.916811 0.341713
Si Si7 0.830485 0.839748 0.481931
Si Si8 0.000000 0.216497 0.750000
O O1 0.841475 0.470942 0.897478
O O2 0.936006 0.568473 0.910028
O O3 0.000000 0.462537 0.750000
O O4 0.910315 0.436079 0.004942
O O5 0.137388 0.373805 0.766051
O O6 0.186130 0.508237 0.763674
O O7 0.287054 0.410182 0.574004
O O8 0.542600 0.186914 0.499564
O O9 0.665017 0.259447 0.291905
O O10 0.536971 0.232634 0.305647
O O11 0.000000 0.322733 0.250000
O O12 0.081957 0.388149 0.316304
O O13 0.710177 0.143770 0.810435
O O14 0.783701 0.170961 0.917647
O O15 0.692940 0.269517 0.925418
O O16 0.926387 0.833423 0.365622
#
# Coordination Sequence:
#
# PCOD9268603 Si02
#       8
#     8   8   8   8   8   8   8   4
#     4  11  20  30  45  78 109 132 163 205 259 312
#     4  11  20  31  52  77 110 132 170 213 263 311
#     4  10  21  33  52  78 105 139 171 221 256 309
#     4  11  21  32  46  76 114 139 171 201 257 321
#     4   9  19  33  50  74 104 135 176 208 265 305
#     4  12  20  32  52  75 105 145 166 209 262 316
#     4   9  18  34  49  77 104 132 168 224 260 310
#     4  10  20  32  58  78 100 132 176 222 276 292
#
# _framework density 15.632868999999999
#
# number of rings (size 3 to 8) (size 9 to 14) (size 15 to 20)
#    0.000    1.600    5.333    2.800    2.800    0.000 
#    0.000    0.667    0.000    3.200    1.733    0.000 
#    0.000    0.000    0.000    0.000    0.000    0.000 
#
# Total GULP energy -167337.254912 kJ/mol
# GULP energy per Si atom -5577.908497 kJ/mol
# Density = 1.559729 g / cm^3
# Si number density = 15.632869 Si / 1000 Ang^3
#
#
#
# Elastic Constant Matrix: (Units=GPa)
#
#
# Indices 1 2 3 4 5 6 
#
# 1 73.2917 44.9790 50.9758 0.0000 -5.1308 0.0000
# 2 44.9790 74.6361 47.6523 0.0000 -6.3979 0.0000
# 3 50.9758 47.6523 107.3582 0.0000 -7.9166 0.0000
# 4 0.0000 0.0000 0.0000 26.0386 0.0000 1.1162
# 5 -5.1308 -6.3979 -7.9166 0.0000 28.5072 0.0000
# 6 0.0000 0.0000 0.0000 1.1162 0.0000 27.4572
#
#
#
# Elastic Compliance Matrix: (Units=1/GPa)
#
#
# Indices 1 2 3 4 5 6 
#
# 1 0.025161 -0.010507 -0.007272 0.000000 0.000151 0.000000
# 2 -0.010507 0.023189 -0.005165 0.000000 0.001879 0.000000
# 3 -0.007272 -0.005165 0.015189 0.000000 0.001750 0.000000
# 4 0.000000 0.000000 0.000000 0.038472 0.000000 -0.001564
# 5 0.000151 0.001879 0.001750 0.000000 0.036014 0.000000
# 6 0.000000 0.000000 0.000000 -0.001564 0.000000 0.036484
#
#
# Mechanical properties :
#
#
# Convention : Reuss Voigt Hill
#
# Bulk Modulus (GPa) = 56.65594 60.27783 58.46689
# Shear Modulus (GPa) = 22.09646 23.84586 22.97116
#
# Velocity S-wave (km/s) = 3.76368 3.90983 3.83745
# Velocity P-wave (km/s) = 7.43016 7.68274 7.55751
#
# Compressibility (1/GPa) = 0.01765040
#
# Stress axis : x y z
#
# Youngs Moduli (GPa) = 39.74457 43.12328 65.83619
#
# Poissons Ratio (x) = 0.45310 0.47876
# Poissons Ratio (y) = 0.41760 0.34007
# Poissons Ratio (z) = 0.28902 0.22275
#
# Static dielectric constant tensor:
#      x y z
#    x 1.513620 0.000000 0.000830 
#    y 0.000000 1.516390 0.000000 
#    z 0.000830 0.000000 1.543890 
# 
# From -- ./inp_files/106683.got.cif
#   From: 2010.05.17/outbox.cif.g08.bks.cpg/sg15_54_cif.got.tgz:106683.got - 2010.06.03 18:47:42.
