data_PCOD9268907
_publ_section_title
;
Structure prediction by ZEFSAII (Michael W. Deem and Ramdas Pophale) SiO2 
 PCOD9268907
Probable space group: C 2/C
;
_chemical_formula_sum "Si O2"
_cell_formula_units_Z 48
_cell_length_a 29.752013
_cell_length_b 5.092177
_cell_length_c 16.297933
_cell_angle_alpha 90.000000
_cell_angle_beta 132.086852
_cell_angle_gamma 90.000000
_cell_volume 1832.450146
_symmetry_space_group_name_H-M "C 2/C"
_symmetry_group_IT_number 15
_symmetry_cell_setting 'monoclinic'
loop_
_space_group_symop_operation_xyz
x,y,z
-x,y,1/2-z
-x,-y,-z
x,-y,1/2+z
1/2+x,1/2+y,z
1/2-x,1/2+y,1/2-z
1/2-x,1/2-y,-z
1/2+x,1/2-y,1/2+z
loop_
_atom_site_type_symbol
_atom_site_label
_atom_site_fract_x
_atom_site_fract_y
_atom_site_fract_z
Si Si1 0.540795 0.394029 0.665394
Si Si2 0.027925 0.384657 0.877290
Si Si3 0.133665 0.518581 0.724752
Si Si4 0.707022 0.838204 0.682410
Si Si5 0.618853 0.290480 0.374341
Si Si6 0.230828 0.084009 0.553041
O O1 0.503098 0.659769 0.604948
O O2 0.579630 0.454435 0.796857
O O3 0.491744 0.165348 0.614771
O O4 0.593050 0.279329 0.669670
O O5 0.095264 0.314149 0.932232
O O6 0.000000 0.367182 0.750000
O O7 0.142365 0.366214 0.650404
O O8 0.112524 0.384732 0.783906
O O9 0.205437 0.539801 0.825933
O O10 0.750254 0.601615 0.772001
O O11 0.692828 0.742255 0.573311
O O12 0.689097 0.352012 0.470534
O O13 0.250000 0.250000 0.500000
#
# Coordination Sequence:
#
# PCOD9268907 Si02
#       6
#     8   8   8   8   8   8
#     4  11  20  35  58  90 117 158 204 255 291 362
#     4  10  20  33  55  88 119 155 205 252 299 344
#     4  11  22  38  63  91 128 162 205 241 319 368
#     4  10  24  42  60  85 127 170 202 240 303 387
#     4  11  22  35  63  92 124 159 204 266 304 353
#     4  11  22  39  63  96 129 157 203 259 315 366
#
# _framework density 26.194434000000001
#
# number of rings (size 3 to 8) (size 9 to 14) (size 15 to 20)
#    0.000    1.333    5.000    3.000    2.333    1.333 
#    0.000    0.000    0.000    2.000    0.000    0.000 
#    0.000    0.000    0.000    0.000    0.000    0.000 
#
# Total GULP energy -133975.031489 kJ/mol
# GULP energy per Si atom -5582.292979 kJ/mol
# Density = 2.613481 g / cm^3
# Si number density = 26.194434 Si / 1000 Ang^3
#
#
#
# Elastic Constant Matrix: (Units=GPa)
#
#
# Indices 1 2 3 4 5 6 
#
# 1 126.8048 41.5418 15.4482 -0.0018 3.2389 0.0003
# 2 41.5418 132.6838 6.9191 -0.0031 2.0373 0.0012
# 3 15.4482 6.9191 49.4080 -0.0005 4.5961 0.0002
# 4 -0.0018 -0.0031 -0.0005 16.0448 0.0001 3.1050
# 5 3.2389 2.0373 4.5961 0.0001 42.3228 0.0000
# 6 0.0003 0.0012 0.0002 3.1050 0.0000 48.6768
#
#
#
# Elastic Compliance Matrix: (Units=1/GPa)
#
#
# Indices 1 2 3 4 5 6 
#
# 1 0.009078 -0.002711 -0.002431 0.000000 -0.000300 0.000000
# 2 -0.002711 0.008404 -0.000314 0.000001 -0.000163 0.000000
# 3 -0.002431 -0.000314 0.021240 0.000000 -0.002105 0.000000
# 4 0.000000 0.000001 0.000000 0.063104 0.000000 -0.004025
# 5 -0.000300 -0.000163 -0.002105 0.000000 0.023887 0.000000
# 6 0.000000 0.000000 0.000000 -0.004025 0.000000 0.020800
#
#
# Mechanical properties :
#
#
# Convention : Reuss Voigt Hill
#
# Bulk Modulus (GPa) = 35.95809 48.52386 42.24098
# Shear Modulus (GPa) = 29.99471 37.74136 33.86804
#
# Velocity S-wave (km/s) = 3.38757 3.79993 3.59966
# Velocity P-wave (km/s) = 5.39055 6.14958 5.78253
#
# Compressibility (1/GPa) = 0.02781015
#
# Stress axis : x y z
#
# Youngs Moduli (GPa) = 110.15596 118.98606 47.08199
#
# Poissons Ratio (x) = 0.32255 0.11445
# Poissons Ratio (y) = 0.29862 0.01479
# Poissons Ratio (z) = 0.26777 0.03739
#
# Static dielectric constant tensor:
#      x y z
#    x 2.126400 0.000000 0.189940 
#    y 0.000000 2.106620 0.000000 
#    z 0.189940 0.000000 1.767430 
# 
# From -- ./inp_files/221020.got.cif
#   From: 2010.05.17/outbox.cif.g08.bks.cpg/sg15_111_cif.got.tgz:221020.got - 2010.06.03 18:47:42.
