data_PCOD9268081
_publ_section_title
;
Structure prediction by ZEFSAII (Michael W. Deem and Ramdas Pophale) SiO2 
 PCOD9268081
Probable space group: C 2/C
;
_chemical_formula_sum "Si O2"
_cell_formula_units_Z 44
_cell_length_a 7.193029
_cell_length_b 12.732408
_cell_length_c 20.539729
_cell_angle_alpha 90.000000
_cell_angle_beta 86.516027
_cell_angle_gamma 90.000000
_cell_volume 1877.645831
_symmetry_space_group_name_H-M "C 2/C"
_symmetry_group_IT_number 15
_symmetry_cell_setting 'monoclinic'
loop_
_space_group_symop_operation_xyz
x,y,z
-x,y,1/2-z
-x,-y,-z
x,-y,1/2+z
1/2+x,1/2+y,z
1/2-x,1/2+y,1/2-z
1/2-x,1/2-y,-z
1/2+x,1/2-y,1/2+z
loop_
_atom_site_type_symbol
_atom_site_label
_atom_site_fract_x
_atom_site_fract_y
_atom_site_fract_z
Si Si1 0.023152 0.084980 0.148353
Si Si2 0.121697 0.519147 0.102103
Si Si3 0.653888 0.592221 0.003673
Si Si4 0.225818 0.401682 0.327249
Si Si5 0.898022 0.755011 0.437561
Si Si6 0.500000 0.232581 0.750000
O O1 0.820049 0.038781 0.134222
O O2 0.015043 0.191790 0.188140
O O3 0.133856 0.996864 0.185026
O O4 0.140229 0.109033 0.080452
O O5 0.166939 0.454699 0.035202
O O6 0.063294 0.638075 0.087474
O O7 0.967877 0.453757 0.144110
O O8 0.578373 0.689561 0.963949
O O9 0.500000 0.500000 0.000000
O O10 0.311074 0.326492 0.381778
O O11 0.177584 0.338456 0.263197
O O12 0.750000 0.750000 0.500000
#
# Coordination Sequence:
#
# PCOD9268081 Si02
#       6
#     8   8   8   8   8   4
#     4  11  24  49  70 100 146 179 230 296 341 410
#     4  11  24  44  72 107 139 181 227 286 363 419
#     4  10  19  41  74 104 143 177 215 295 360 408
#     4  12  27  45  71 103 136 187 238 283 344 422
#     4  12  20  41  69 102 146 175 221 287 349 419
#     4  12  28  48  72  94 138 196 242 286 342 408
#
# _framework density 23.433599000000001
#
# number of rings (size 3 to 8) (size 9 to 14) (size 15 to 20)
#    0.000    0.727    9.091    0.000    2.545    4.364 
#    0.000    4.545    0.000    0.000    0.000    0.000 
#    0.000    0.000    0.000    0.000    0.000    0.000 
#
# Total GULP energy -123221.087271 kJ/mol
# GULP energy per Si atom -5600.958512 kJ/mol
# Density = 2.338026 g / cm^3
# Si number density = 23.433599 Si / 1000 Ang^3
#
#
#
# Elastic Constant Matrix: (Units=GPa)
#
#
# Indices 1 2 3 4 5 6 
#
# 1 114.8773 44.8302 32.3899 0.0000 17.2098 0.0000
# 2 44.8302 122.5641 31.3376 0.0000 14.3336 0.0000
# 3 32.3899 31.3376 74.7127 0.0000 20.7155 0.0000
# 4 0.0000 0.0000 0.0000 44.6505 0.0000 9.1482
# 5 17.2098 14.3336 20.7155 0.0000 36.7078 0.0000
# 6 0.0000 0.0000 0.0000 9.1482 0.0000 35.5303
#
#
#
# Elastic Compliance Matrix: (Units=1/GPa)
#
#
# Indices 1 2 3 4 5 6 
#
# 1 0.011051 -0.003033 -0.002858 0.000000 -0.002384 0.000000
# 2 -0.003033 0.010058 -0.002619 0.000000 -0.001028 0.000000
# 3 -0.002858 -0.002619 0.017862 0.000000 -0.007718 0.000000
# 4 0.000000 0.000000 0.000000 0.023643 0.000000 -0.006088
# 5 -0.002384 -0.001028 -0.007718 0.000000 0.033116 0.000000
# 6 0.000000 0.000000 0.000000 -0.006088 0.000000 0.029712
#
#
# Mechanical properties :
#
#
# Convention : Reuss Voigt Hill
#
# Bulk Modulus (GPa) = 45.55403 58.80771 52.18087
# Shear Modulus (GPa) = 33.38213 36.95082 35.16648
#
# Velocity S-wave (km/s) = 3.77840 3.97524 3.87807
# Velocity P-wave (km/s) = 6.20620 6.79853 6.50911
#
# Compressibility (1/GPa) = 0.02195196
#
# Stress axis : x y z
#
# Youngs Moduli (GPa) = 90.48602 99.42232 55.98475
#
# Poissons Ratio (x) = 0.30152 0.16000
# Poissons Ratio (y) = 0.27442 0.14663
# Poissons Ratio (z) = 0.25861 0.26040
#
# Static dielectric constant tensor:
#      x y z
#    x 1.906530 0.000000 0.063700 
#    y 0.000000 1.885920 0.000000 
#    z 0.063700 0.000000 1.928730 
# 
# From -- ./inp_files/230267.got.cif
#   From: 2010.05.17/outbox.cif.g08.bks.cpg/sg15_116_cif.got.tgz:230267.got - 2010.06.03 18:47:42.
