data_PCOD9268923
_publ_section_title
;
Structure prediction by ZEFSAII (Michael W. Deem and Ramdas Pophale) SiO2 
 PCOD9268923
Probable space group: C 2/C
;
_chemical_formula_sum "Si O2"
_cell_formula_units_Z 64
_cell_length_a 14.886412
_cell_length_b 18.646613
_cell_length_c 14.697466
_cell_angle_alpha 90.000000
_cell_angle_beta 55.650514
_cell_angle_gamma 90.000000
_cell_volume 3368.279096
_symmetry_space_group_name_H-M "C 2/C"
_symmetry_group_IT_number 15
_symmetry_cell_setting 'monoclinic'
loop_
_space_group_symop_operation_xyz
x,y,z
-x,y,1/2-z
-x,-y,-z
x,-y,1/2+z
1/2+x,1/2+y,z
1/2-x,1/2+y,1/2-z
1/2-x,1/2-y,-z
1/2+x,1/2-y,1/2+z
loop_
_atom_site_type_symbol
_atom_site_label
_atom_site_fract_x
_atom_site_fract_y
_atom_site_fract_z
Si Si1 0.571303 0.169214 0.516017
Si Si2 0.610419 0.677261 0.235958
Si Si3 0.519235 0.322772 0.510438
Si Si4 0.270046 0.813438 0.404487
Si Si5 0.087769 0.429568 0.272125
Si Si6 0.657212 0.486148 0.656645
Si Si7 0.881201 0.528628 0.093649
Si Si8 0.003716 0.957813 0.402017
O O1 0.518981 0.237311 0.497445
O O2 0.663913 0.190543 0.537600
O O3 0.480187 0.125297 0.624481
O O4 0.618453 0.113686 0.416355
O O5 0.500000 0.704771 0.250000
O O6 0.695489 0.742147 0.172787
O O7 0.638022 0.599727 0.177397
O O8 0.642053 0.330888 0.480599
O O9 0.597582 0.517884 0.602844
O O10 0.506371 0.375006 0.432227
O O11 0.427788 0.337379 0.638959
O O12 0.322378 0.881928 0.326551
O O13 0.139085 0.494899 0.297151
O O14 0.000000 0.456595 0.250000
O O15 0.785915 0.498409 0.582369
O O16 0.603592 0.521228 0.777985
O O17 0.000000 0.500000 0.000000
O O18 0.000000 0.000000 0.500000
#
# Coordination Sequence:
#
# PCOD9268923 Si02
#       8
#     8   8   8   8   8   8   8   8
#     4  10  20  33  56  83 117 153 199 249 308 362
#     4  12  20  36  56  88 126 152 196 261 320 373
#     4  12  22  35  57  88 122 154 202 246 307 382
#     4  11  21  32  57  89 118 156 188 255 324 360
#     4   9  18  38  56  83 117 148 192 250 308 362
#     4  11  23  41  62  89 130 165 206 255 313 372
#     4  10  22  39  61  89 119 161 205 257 310 371
#     4  11  23  38  60  92 123 168 204 248 309 379
#
# _framework density 19.000800999999999
#
# number of rings (size 3 to 8) (size 9 to 14) (size 15 to 20)
#    0.000    1.250    5.000    2.250    3.500    0.000 
#    2.250    0.000    2.750    3.000    0.000    0.000 
#    0.000    0.000    0.000    0.000    0.000    0.000 
#
# Total GULP energy -178536.020337 kJ/mol
# GULP energy per Si atom -5579.250636 kJ/mol
# Density = 1.895755 g / cm^3
# Si number density = 19.000801 Si / 1000 Ang^3
#
#
#
# Elastic Constant Matrix: (Units=GPa)
#
#
# Indices 1 2 3 4 5 6 
#
# 1 95.3719 60.4852 42.9463 0.0000 -2.6078 0.0000
# 2 60.4852 111.5163 32.2557 0.0000 21.5226 0.0000
# 3 42.9463 32.2557 76.8711 0.0000 5.3015 0.0000
# 4 0.0000 0.0000 0.0000 32.8256 0.0000 15.6524
# 5 -2.6078 21.5226 5.3015 0.0000 30.4846 0.0000
# 6 0.0000 0.0000 0.0000 15.6524 0.0000 25.6124
#
#
#
# Elastic Compliance Matrix: (Units=1/GPa)
#
#
# Indices 1 2 3 4 5 6 
#
# 1 0.021931 -0.011791 -0.008105 0.000000 0.011611 0.000000
# 2 -0.011791 0.018020 -0.000027 0.000000 -0.013726 0.000000
# 3 -0.008105 -0.000027 0.017808 0.000000 -0.003771 0.000000
# 4 0.000000 0.000000 0.000000 0.042992 0.000000 -0.026274
# 5 0.011611 -0.013726 -0.003771 0.000000 0.044144 0.000000
# 6 0.000000 0.000000 0.000000 -0.026274 0.000000 0.055100
#
#
# Mechanical properties :
#
#
# Convention : Reuss Voigt Hill
#
# Bulk Modulus (GPa) = 55.82932 61.68153 58.75543
# Shear Modulus (GPa) = 20.34069 27.65598 23.99834
#
# Velocity S-wave (km/s) = 3.27543 3.81926 3.55775
# Velocity P-wave (km/s) = 6.61445 7.20986 6.91856
#
# Compressibility (1/GPa) = 0.01791173
#
# Stress axis : x y z
#
# Youngs Moduli (GPa) = 45.59822 55.49457 56.15320
#
# Poissons Ratio (x) = 0.65436 0.45513
# Poissons Ratio (y) = 0.53767 0.00152
# Poissons Ratio (z) = 0.36958 0.00150
#
# Static dielectric constant tensor:
#      x y z
#    x 1.664450 0.000000 -0.012920 
#    y 0.000000 1.707390 0.000000 
#    z -0.012920 0.000000 1.783510 
# 
# From -- ./inp_files/211530.got.cif
#   From: 2010.05.17/outbox.cif.g08.bks.cpg/sg15_106_cif.got.tgz:211530.got - 2010.06.03 18:47:42.
