data_PCOD9268173
_publ_section_title
;
Structure prediction by ZEFSAII (Michael W. Deem and Ramdas Pophale) SiO2 
 PCOD9268173
Probable space group: C 2/C
;
_chemical_formula_sum "Si O2"
_cell_formula_units_Z 40
_cell_length_a 8.297241
_cell_length_b 17.206269
_cell_length_c 12.388650
_cell_angle_alpha 90.000000
_cell_angle_beta 85.555977
_cell_angle_gamma 90.000000
_cell_volume 1763.342717
_symmetry_space_group_name_H-M "C 2/C"
_symmetry_group_IT_number 15
_symmetry_cell_setting 'monoclinic'
loop_
_space_group_symop_operation_xyz
x,y,z
-x,y,1/2-z
-x,-y,-z
x,-y,1/2+z
1/2+x,1/2+y,z
1/2-x,1/2+y,1/2-z
1/2-x,1/2-y,-z
1/2+x,1/2-y,1/2+z
loop_
_atom_site_type_symbol
_atom_site_label
_atom_site_fract_x
_atom_site_fract_y
_atom_site_fract_z
Si Si1 0.500000 0.889674 0.750000
Si Si2 0.598342 0.028012 0.598432
Si Si3 0.029192 0.061511 0.870811
Si Si4 0.971754 0.117401 0.091900
Si Si5 0.716989 0.298647 0.704736
Si Si6 0.500000 0.842784 0.250000
O O1 0.395649 0.830416 0.684468
O O2 0.598482 0.951544 0.673620
O O3 0.784036 0.057831 0.596703
O O4 0.492879 0.098498 0.651165
O O5 0.500000 0.000000 0.500000
O O6 0.000000 0.089130 0.750000
O O7 0.980472 0.970312 0.875987
O O8 0.931555 0.108521 0.967831
O O9 0.850310 0.154745 0.185590
O O10 0.124177 0.172729 0.103470
O O11 0.657012 0.211855 0.729761
#
# Coordination Sequence:
#
# PCOD9268173 Si02
#       6
#     4   8   8   8   8   4
#     4  11  20  38  68  95 130 176 234 267 334 400
#     4  11  23  41  67 102 129 175 228 286 329 397
#     4  11  19  35  63  99 132 171 227 277 333 394
#     4   9  18  33  61  92 127 174 218 270 333 394
#     4  10  19  43  65  95 133 185 217 280 341 401
#     4   9  24  44  68  93 142 166 222 283 342 400
#
# _framework density 22.684187000000001
#
# number of rings (size 3 to 8) (size 9 to 14) (size 15 to 20)
#    0.000    2.000    4.000    1.200    0.000    4.800 
#    1.800   10.000    0.000    0.000    0.000    0.000 
#    0.000    0.000    0.000    0.000    0.000    0.000 
#
# Total GULP energy -111390.543008 kJ/mol
# GULP energy per Si atom -5569.527150 kJ/mol
# Density = 2.263256 g / cm^3
# Si number density = 22.684187 Si / 1000 Ang^3
#
#
#
# Elastic Constant Matrix: (Units=GPa)
#
#
# Indices 1 2 3 4 5 6 
#
# 1 27.5657 20.8118 -8.8420 0.0000 10.7442 0.0000
# 2 20.8118 138.6138 39.7081 0.0000 1.6774 0.0000
# 3 -8.8420 39.7081 139.3071 0.0000 -3.0111 0.0000
# 4 0.0000 0.0000 0.0000 25.6928 0.0000 -8.6334
# 5 10.7442 1.6774 -3.0111 0.0000 15.8857 0.0000
# 6 0.0000 0.0000 0.0000 -8.6334 0.0000 17.8310
#
#
#
# Elastic Compliance Matrix: (Units=1/GPa)
#
#
# Indices 1 2 3 4 5 6 
#
# 1 0.061446 -0.010480 0.006038 0.000000 -0.039308 0.000000
# 2 -0.010480 0.009668 -0.003303 0.000000 0.005441 0.000000
# 3 0.006038 -0.003303 0.008457 0.000000 -0.002132 0.000000
# 4 0.000000 0.000000 0.000000 0.046484 0.000000 0.022506
# 5 -0.039308 0.005441 -0.002132 0.000000 0.088557 0.000000
# 6 0.000000 0.000000 0.000000 0.022506 0.000000 0.066979
#
#
# Mechanical properties :
#
#
# Convention : Reuss Voigt Hill
#
# Bulk Modulus (GPa) = 15.60528 45.42694 30.51611
# Shear Modulus (GPa) = 15.70143 28.80250 22.25197
#
# Velocity S-wave (km/s) = 2.63378 3.56717 3.13540
# Velocity P-wave (km/s) = 4.01788 6.08569 5.15650
#
# Compressibility (1/GPa) = 0.06408088
#
# Stress axis : x y z
#
# Youngs Moduli (GPa) = 16.27436 103.43211 118.24358
#
# Poissons Ratio (x) = 1.08392 -0.71390
# Poissons Ratio (y) = 0.17055 0.39060
# Poissons Ratio (z) = -0.09826 0.34168
#
# Static dielectric constant tensor:
#      x y z
#    x 2.216600 0.000000 -0.021180 
#    y 0.000000 1.813080 0.000000 
#    z -0.021180 0.000000 1.893860 
# 
# From -- ./inp_files/76956.got.cif
#   From: 2010.05.17/outbox.cif.g08.bks.cpg/sg15_39_cif.got.tgz:76956.got - 2010.06.03 18:47:42.
