data_PCOD9268377
_publ_section_title
;
Structure prediction by ZEFSAII (Michael W. Deem and Ramdas Pophale) SiO2 
 PCOD9268377
Probable space group: C 2/C
;
_chemical_formula_sum "Si O2"
_cell_formula_units_Z 60
_cell_length_a 21.222796
_cell_length_b 22.363234
_cell_length_c 9.040627
_cell_angle_alpha 90.000000
_cell_angle_beta 36.747389
_cell_angle_gamma 90.000000
_cell_volume 2567.119667
_symmetry_space_group_name_H-M "C 2/C"
_symmetry_group_IT_number 15
_symmetry_cell_setting 'monoclinic'
loop_
_space_group_symop_operation_xyz
x,y,z
-x,y,1/2-z
-x,-y,-z
x,-y,1/2+z
1/2+x,1/2+y,z
1/2-x,1/2+y,1/2-z
1/2-x,1/2-y,-z
1/2+x,1/2-y,1/2+z
loop_
_atom_site_type_symbol
_atom_site_label
_atom_site_fract_x
_atom_site_fract_y
_atom_site_fract_z
Si Si1 0.789830 0.274220 0.190691
Si Si2 0.198980 0.871046 0.198070
Si Si3 0.107086 0.048280 0.637106
Si Si4 0.593647 0.932264 0.783593
Si Si5 0.398968 0.414493 0.837386
Si Si6 0.333606 0.046591 0.043365
Si Si7 0.760746 0.840257 0.908752
Si Si8 0.500000 0.845601 0.750000
O O1 0.702400 0.302518 0.244586
O O2 0.780221 0.203821 0.234451
O O3 0.775705 0.302830 0.380362
O O4 0.900645 0.301562 0.932622
O O5 0.116441 0.900029 0.241674
O O6 0.192326 0.906430 0.366785
O O7 0.307740 0.887440 0.916301
O O8 0.214405 0.043381 0.338312
O O9 0.000000 0.056358 0.750000
O O10 0.099152 0.982022 0.722437
O O11 0.587766 0.949065 0.965437
O O12 0.501636 0.893394 0.882576
O O13 0.631823 0.990995 0.622322
O O14 0.500000 0.400774 0.750000
O O15 0.368673 0.370767 0.762672
O O16 0.321687 0.108032 0.975522
#
# Coordination Sequence:
#
# PCOD9268377 Si02
#       8
#     8   8   8   8   8   8   8   4
#     4   9  21  43  67  85 121 174 217 278 317 384
#     4   9  18  36  55  83 120 165 208 253 324 379
#     4  10  21  33  56  91 132 167 203 260 320 399
#     4  10  22  39  62  95 128 168 206 275 339 385
#     4  10  20  31  55  87 125 159 204 256 310 389
#     4  11  22  39  62  95 131 168 213 259 337 409
#     4  10  21  41  64  89 124 174 218 257 333 391
#     4  10  22  44  68  94 130 160 226 280 332 374
#
# _framework density 23.372499000000001
#
# number of rings (size 3 to 8) (size 9 to 14) (size 15 to 20)
#    0.000    2.133    1.333    1.600    5.600    1.600 
#    1.200   10.000    0.000    0.000    0.000    0.000 
#    0.000    0.000    0.000    0.000    0.000    0.000 
#
# Total GULP energy -167508.619231 kJ/mol
# GULP energy per Si atom -5583.620641 kJ/mol
# Density = 2.331930 g / cm^3
# Si number density = 23.372499 Si / 1000 Ang^3
#
#
#
# Elastic Constant Matrix: (Units=GPa)
#
#
# Indices 1 2 3 4 5 6 
#
# 1 83.8009 47.5415 7.1888 0.0000 6.0863 0.0000
# 2 47.5415 115.8003 21.7788 0.0000 5.9819 0.0000
# 3 7.1888 21.7788 65.7990 0.0000 2.3031 0.0000
# 4 0.0000 0.0000 0.0000 14.2362 0.0000 9.3683
# 5 6.0863 5.9819 2.3031 0.0000 22.7443 0.0000
# 6 0.0000 0.0000 0.0000 9.3683 0.0000 36.7446
#
#
#
# Elastic Compliance Matrix: (Units=1/GPa)
#
#
# Indices 1 2 3 4 5 6 
#
# 1 0.015715 -0.006412 0.000495 0.000000 -0.002569 0.000000
# 2 -0.006412 0.011928 -0.003209 0.000000 -0.001096 0.000000
# 3 0.000495 -0.003209 0.016239 0.000000 -0.000933 0.000000
# 4 0.000000 0.000000 0.000000 0.084405 0.000000 -0.021520
# 5 -0.002569 -0.001096 -0.000933 0.000000 0.045037 0.000000
# 6 0.000000 0.000000 0.000000 -0.021520 0.000000 0.032701
#
#
# Mechanical properties :
#
#
# Convention : Reuss Voigt Hill
#
# Bulk Modulus (GPa) = 39.01730 46.49093 42.75411
# Shear Modulus (GPa) = 21.47576 27.33774 24.40675
#
# Velocity S-wave (km/s) = 3.03454 3.42373 3.23499
# Velocity P-wave (km/s) = 5.38589 5.96353 5.68206
#
# Compressibility (1/GPa) = 0.02562966
#
# Stress axis : x y z
#
# Youngs Moduli (GPa) = 63.63418 83.83461 61.58191
#
# Poissons Ratio (x) = 0.53756 -0.03051
# Poissons Ratio (y) = 0.40803 0.19763
# Poissons Ratio (z) = -0.03152 0.26904
#
# Static dielectric constant tensor:
#      x y z
#    x 1.915080 0.000000 -0.013120 
#    y 0.000000 1.915600 0.000000 
#    z -0.013120 0.000000 1.965280 
# 
# From -- ./inp_files/58085.got.cif
#   From: 2010.05.17/outbox.cif.g08.bks.cpg/sg15_30_cif.got.tgz:58085.got - 2010.06.03 18:47:42.
