data_PCOD9268431
_publ_section_title
;
Structure prediction by ZEFSAII (Michael W. Deem and Ramdas Pophale) SiO2 
 PCOD9268431
Probable space group: C 2/C
;
_chemical_formula_sum "Si O2"
_cell_formula_units_Z 52
_cell_length_a 16.450301
_cell_length_b 24.219587
_cell_length_c 5.649247
_cell_angle_alpha 90.000000
_cell_angle_beta 122.299606
_cell_angle_gamma 90.000000
_cell_volume 1902.498368
_symmetry_space_group_name_H-M "C 2/C"
_symmetry_group_IT_number 15
_symmetry_cell_setting 'monoclinic'
loop_
_space_group_symop_operation_xyz
x,y,z
-x,y,1/2-z
-x,-y,-z
x,-y,1/2+z
1/2+x,1/2+y,z
1/2-x,1/2+y,1/2-z
1/2-x,1/2-y,-z
1/2+x,1/2-y,1/2+z
loop_
_atom_site_type_symbol
_atom_site_label
_atom_site_fract_x
_atom_site_fract_y
_atom_site_fract_z
Si Si1 0.885684 0.087051 0.551993
Si Si2 0.382702 0.591707 0.046127
Si Si3 0.779859 0.324541 0.263707
Si Si4 0.370637 0.857683 0.891670
Si Si5 0.105838 0.783651 0.533025
Si Si6 0.109351 0.483689 0.447901
Si Si7 0.000000 0.271707 0.250000
O O1 0.854631 0.063514 0.755282
O O2 0.868976 0.153498 0.494672
O O3 0.000000 0.079827 0.750000
O O4 0.851937 0.065165 0.246896
O O5 0.325512 0.649001 0.926644
O O6 0.500000 0.598686 0.250000
O O7 0.820922 0.356480 0.557955
O O8 0.808749 0.260991 0.373726
O O9 0.822990 0.336820 0.067268
O O10 0.397136 0.919791 0.991837
O O11 0.457067 0.814533 0.995284
O O12 0.000000 0.776436 0.250000
O O13 0.077549 0.767181 0.754504
O O14 0.153001 0.511229 0.752186
O O15 0.000000 0.506793 0.250000
#
# Coordination Sequence:
#
# PCOD9268431 Si02
#       7
#     8   8   8   8   8   8   4
#     4   9  20  32  54  69  96 134 177 226 280 328
#     4  10  21  39  52  74  98 134 175 236 285 323
#     4  11  23  34  55  76 105 138 181 220 274 318
#     4  11  21  36  53  81 109 145 178 213 252 304
#     4  10  20  32  48  73 101 139 180 220 268 320
#     4  10  20  34  54  80 114 153 182 200 236 301
#     4  10  20  32  50  70 114 142 176 224 250 306
#
# _framework density 27.332481000000001
#
# number of rings (size 3 to 8) (size 9 to 14) (size 15 to 20)
#    0.000    1.846    2.308    1.846    5.385    1.231 
#    0.000    0.000    0.000    0.000    0.000    0.000 
#    0.000   12.308    0.000    0.000    0.000    0.000 
#
# Total GULP energy -145001.760375 kJ/mol
# GULP energy per Si atom -5576.990784 kJ/mol
# Density = 2.727027 g / cm^3
# Si number density = 27.332481 Si / 1000 Ang^3
#
#
#
# Elastic Constant Matrix: (Units=GPa)
#
#
# Indices 1 2 3 4 5 6 
#
# 1 64.2289 23.9689 52.0372 0.0000 -32.1523 0.0000
# 2 23.9689 120.9424 51.1709 0.0000 -9.4929 0.0000
# 3 52.0372 51.1709 256.3589 0.0000 -40.9977 0.0000
# 4 0.0000 0.0000 0.0000 17.8059 0.0000 6.1282
# 5 -32.1523 -9.4929 -40.9977 0.0000 66.3653 0.0000
# 6 0.0000 0.0000 0.0000 6.1282 0.0000 -10.1672
#
#
#
# Elastic Compliance Matrix: (Units=1/GPa)
#
#
# Indices 1 2 3 4 5 6 
#
# 1 0.023458 -0.002767 -0.002724 0.000000 0.009286 0.000000
# 2 -0.002767 0.009360 -0.001450 0.000000 -0.000898 0.000000
# 3 -0.002724 -0.001450 0.004992 0.000000 0.001557 0.000000
# 4 0.000000 0.000000 0.000000 0.046512 0.000000 0.028035
# 5 0.009286 -0.000898 0.001557 0.000000 0.020400 0.000000
# 6 0.000000 0.000000 0.000000 0.028035 0.000000 -0.081457
#
#
# Mechanical properties :
#
#
# Convention : Reuss Voigt Hill
#
# Bulk Modulus (GPa) = 41.79518 77.32046 59.55782
# Shear Modulus (GPa) = 110.80667 35.75767 73.28217
#
# Velocity S-wave (km/s) = 6.37403 3.62090 5.18359
# Velocity P-wave (km/s) = 8.33641 6.76989 7.59365
#
# Compressibility (1/GPa) = 0.02392621
#
# Stress axis : x y z
#
# Youngs Moduli (GPa) = 42.63024 106.83811 200.31438
#
# Poissons Ratio (x) = 0.29567 0.54568
# Poissons Ratio (y) = 0.11798 0.29048
# Poissons Ratio (z) = 0.11613 0.15493
#
# Static dielectric constant tensor:
#      x y z
#    x 2.225900 0.000000 0.014370 
#    y 0.000000 2.053000 0.000000 
#    z 0.014370 0.000000 2.413960 
# 
# From -- ./inp_files/12081.got.cif
#   From: 2010.05.17/outbox.cif.g08.bks.cpg/sg15_7_cif.got.tgz:12081.got - 2010.06.03 18:47:42.
