data_PCOD9268582
_publ_section_title
;
Structure prediction by ZEFSAII (Michael W. Deem and Ramdas Pophale) SiO2 
 PCOD9268582
Probable space group: C 2/C
;
_chemical_formula_sum "Si O2"
_cell_formula_units_Z 40
_cell_length_a 24.247307
_cell_length_b 5.016316
_cell_length_c 19.215542
_cell_angle_alpha 90.000000
_cell_angle_beta 59.885141
_cell_angle_gamma 90.000000
_cell_volume 2021.751871
_symmetry_space_group_name_H-M "C 2/C"
_symmetry_group_IT_number 15
_symmetry_cell_setting 'monoclinic'
loop_
_space_group_symop_operation_xyz
x,y,z
-x,y,1/2-z
-x,-y,-z
x,-y,1/2+z
1/2+x,1/2+y,z
1/2-x,1/2+y,1/2-z
1/2-x,1/2-y,-z
1/2+x,1/2-y,1/2+z
loop_
_atom_site_type_symbol
_atom_site_label
_atom_site_fract_x
_atom_site_fract_y
_atom_site_fract_z
Si Si1 0.271284 0.246422 0.278045
Si Si2 0.406653 0.090141 0.149227
Si Si3 0.297896 0.697032 0.032181
Si Si4 0.879055 0.685792 0.002719
Si Si5 0.988583 0.930380 0.588531
O O1 0.267702 0.532188 0.243231
O O2 0.343350 0.138722 0.233543
O O3 0.238695 0.262626 0.373251
O O4 0.461942 0.296158 0.136647
O O5 0.387851 0.158942 0.080857
O O6 0.565627 0.206306 0.869241
O O7 0.250000 0.750000 0.000000
O O8 0.323985 0.397564 0.020712
O O9 0.357851 0.897463 0.989673
O O10 0.944865 0.800980 0.930468
O O11 0.000000 0.000000 0.500000
#
# Coordination Sequence:
#
# PCOD9268582 Si02
#       5
#     8   8   8   8   8
#     4  12  22  38  60  86 120 154 193 249 295 343
#     4  11  19  34  58  87 118 145 193 243 297 340
#     4  12  24  39  59  86 119 160 194 235 295 354
#     4  11  20  37  58  83 121 149 196 240 288 349
#     4  10  20  32  56  89 116 149 186 246 298 337
#
# _framework density 19.784821999999998
#
# number of rings (size 3 to 8) (size 9 to 14) (size 15 to 20)
#    0.000    0.800    4.000    7.800    0.000    0.000 
#    0.000    0.000    0.000    7.200    0.000    0.000 
#    0.000    0.000    0.000    0.000    0.000    0.000 
#
# Total GULP energy -111775.734082 kJ/mol
# GULP energy per Si atom -5588.786704 kJ/mol
# Density = 1.973979 g / cm^3
# Si number density = 19.784822 Si / 1000 Ang^3
#
#
#
# Elastic Constant Matrix: (Units=GPa)
#
#
# Indices 1 2 3 4 5 6 
#
# 1 42.5903 -9.3813 21.3585 -0.0208 -6.9997 -0.0379
# 2 -9.3813 82.2497 1.8181 -0.0049 3.4076 -0.0611
# 3 21.3585 1.8181 39.3405 0.0134 -8.9021 -0.0172
# 4 -0.0208 -0.0049 0.0134 19.4827 0.0092 -22.7174
# 5 -6.9997 3.4076 -8.9021 0.0092 29.8845 0.0091
# 6 -0.0379 -0.0611 -0.0172 -22.7174 0.0091 37.6179
#
#
#
# Elastic Compliance Matrix: (Units=1/GPa)
#
#
# Indices 1 2 3 4 5 6 
#
# 1 0.033803 0.004170 -0.018080 0.000290 0.002056 0.000208
# 2 0.004170 0.012763 -0.003176 0.000129 -0.001425 0.000102
# 3 -0.018080 -0.003176 0.036999 -0.000198 0.007149 -0.000128
# 4 0.000290 0.000129 -0.000198 0.173505 -0.000091 0.104780
# 5 0.002056 -0.001425 0.007149 -0.000091 0.036236 -0.000061
# 6 0.000208 0.000102 -0.000128 0.104780 -0.000061 0.089860
#
#
# Mechanical properties :
#
#
# Convention : Reuss Voigt Hill
#
# Bulk Modulus (GPa) = 20.24539 21.30790 20.77665
# Shear Modulus (GPa) = 11.52600 27.42269 19.47435
#
# Velocity S-wave (km/s) = 2.41626 3.72700 3.14077
# Velocity P-wave (km/s) = 4.24729 5.41424 4.86587
#
# Compressibility (1/GPa) = 0.04939396
#
# Stress axis : x y z
#
# Youngs Moduli (GPa) = 29.58311 78.35108 27.02754
#
# Poissons Ratio (x) = -0.32674 0.48865
# Poissons Ratio (y) = -0.12337 0.08585
# Poissons Ratio (z) = 0.53485 0.24886
#
# Static dielectric constant tensor:
#      x y z
#    x 1.716960 -0.000020 -0.040020 
#    y -0.000020 1.695750 -0.000050 
#    z -0.040020 -0.000050 1.666450 
# 
# From -- ./inp_files/220805.got.cif
#   From: 2010.05.17/outbox.cif.g08.bks.cpg/sg15_111_cif.got.tgz:220805.got - 2010.06.03 18:47:42.
