data_PCOD9268994
_publ_section_title
;
Structure prediction by ZEFSAII (Michael W. Deem and Ramdas Pophale) SiO2 
 PCOD9268994
Probable space group: C 2/C
;
_chemical_formula_sum "Si O2"
_cell_formula_units_Z 44
_cell_length_a 11.097361
_cell_length_b 23.381526
_cell_length_c 9.378529
_cell_angle_alpha 90.000000
_cell_angle_beta 117.678349
_cell_angle_gamma 90.000000
_cell_volume 2155.012550
_symmetry_space_group_name_H-M "C 2/C"
_symmetry_group_IT_number 15
_symmetry_cell_setting 'monoclinic'
loop_
_space_group_symop_operation_xyz
x,y,z
-x,y,1/2-z
-x,-y,-z
x,-y,1/2+z
1/2+x,1/2+y,z
1/2-x,1/2+y,1/2-z
1/2-x,1/2-y,-z
1/2+x,1/2-y,1/2+z
loop_
_atom_site_type_symbol
_atom_site_label
_atom_site_fract_x
_atom_site_fract_y
_atom_site_fract_z
Si Si1 0.382670 0.603485 0.496100
Si Si2 0.351710 0.797308 0.117271
Si Si3 0.000000 0.548119 0.250000
Si Si4 0.260629 0.481232 0.445465
Si Si5 0.696000 0.380881 0.234113
Si Si6 0.299304 0.108832 0.357204
O O1 0.364179 0.534089 0.484608
O O2 0.303934 0.621473 0.596039
O O3 0.538533 0.620895 0.597857
O O4 0.312908 0.629247 0.318181
O O5 0.500000 0.776979 0.250000
O O6 0.280955 0.830906 0.208601
O O7 0.250000 0.750000 0.000000
O O8 0.360820 0.844671 0.997055
O O9 0.113808 0.509406 0.385289
O O10 0.081490 0.583273 0.175629
O O11 0.255314 0.441870 0.301592
O O12 0.277207 0.438490 0.587012
#
# Coordination Sequence:
#
# PCOD9268994 Si02
#       6
#     8   8   4   8   8   8
#     4  10  20  38  62  96 136 169 204 249 308 370
#     4  11  28  48  72  90 118 161 216 274 330 382
#     4  10  20  34  58  92 138 164 210 242 310 372
#     4  10  20  33  58  93 136 178 207 239 299 377
#     4  10  23  39  64  92 134 166 213 257 309 371
#     4  10  23  37  65  91 130 168 213 257 306 377
#
# _framework density 20.417513
#
# number of rings (size 3 to 8) (size 9 to 14) (size 15 to 20)
#    0.000    1.818    0.000    3.273   12.727    3.636 
#    0.000    2.727    0.000    0.000    0.000    0.000 
#    0.000    0.000    0.000    0.000    0.000    0.000 
#
# Total GULP energy -122908.884410 kJ/mol
# GULP energy per Si atom -5586.767473 kJ/mol
# Density = 2.037104 g / cm^3
# Si number density = 20.417513 Si / 1000 Ang^3
#
#
#
# Elastic Constant Matrix: (Units=GPa)
#
#
# Indices 1 2 3 4 5 6 
#
# 1 65.4161 17.7206 23.9283 0.0000 6.1137 0.0000
# 2 17.7206 47.2835 17.8121 0.0000 3.1721 0.0000
# 3 23.9283 17.8121 112.9776 0.0000 8.5484 0.0000
# 4 0.0000 0.0000 0.0000 3.7571 0.0000 8.5546
# 5 6.1137 3.1721 8.5484 0.0000 33.1797 0.0000
# 6 0.0000 0.0000 0.0000 8.5546 0.0000 19.0894
#
#
#
# Elastic Compliance Matrix: (Units=1/GPa)
#
#
# Indices 1 2 3 4 5 6 
#
# 1 0.018003 -0.005561 -0.002780 0.000000 -0.002069 0.000000
# 2 -0.005561 0.024254 -0.002599 0.000000 -0.000624 0.000000
# 3 -0.002780 -0.002599 0.009987 0.000000 -0.001812 0.000000
# 4 0.000000 0.000000 0.000000-13.065987 0.000000 5.855294
# 5 -0.002069 -0.000624 -0.001812 0.000000 0.031047 0.000000
# 6 0.000000 0.000000 0.000000 5.855294 0.000000 -2.571563
#
#
# Mechanical properties :
#
#
# Convention : Reuss Voigt Hill
#
# Bulk Modulus (GPa) = 32.93270 38.28880 35.61075
# Shear Modulus (GPa) = -0.32212 22.28630 10.98209
#
# Velocity S-wave (km/s) = -0.39763 3.30741 2.32173
# Velocity P-wave (km/s) = 3.99423 5.77745 4.96653
#
# Compressibility (1/GPa) = 0.03036496
#
# Stress axis : x y z
#
# Youngs Moduli (GPa) = 55.54496 41.23010 100.13107
#
# Poissons Ratio (x) = 0.22929 0.27833
# Poissons Ratio (y) = 0.30890 0.26022
# Poissons Ratio (z) = 0.15440 0.10715
#
# Static dielectric constant tensor:
#      x y z
#    x 1.719330 0.000000 0.006360 
#    y 0.000000 1.727510 0.000000 
#    z 0.006360 0.000000 1.758080 
# 
# From -- ./inp_files/32447.got.cif
#   From: 2010.05.17/outbox.cif.g08.bks.cpg/sg15_17_cif.got.tgz:32447.got - 2010.06.03 18:47:42.
