data_PCOD9268512
_publ_section_title
;
Structure prediction by ZEFSAII (Michael W. Deem and Ramdas Pophale) SiO2 
 PCOD9268512
Probable space group: C 2/C
;
_chemical_formula_sum "Si O2"
_cell_formula_units_Z 64
_cell_length_a 18.443650
_cell_length_b 22.522956
_cell_length_c 9.476703
_cell_angle_alpha 90.000000
_cell_angle_beta 64.684133
_cell_angle_gamma 90.000000
_cell_volume 3558.612875
_symmetry_space_group_name_H-M "C 2/C"
_symmetry_group_IT_number 15
_symmetry_cell_setting 'monoclinic'
loop_
_space_group_symop_operation_xyz
x,y,z
-x,y,1/2-z
-x,-y,-z
x,-y,1/2+z
1/2+x,1/2+y,z
1/2-x,1/2+y,1/2-z
1/2-x,1/2-y,-z
1/2+x,1/2-y,1/2+z
loop_
_atom_site_type_symbol
_atom_site_label
_atom_site_fract_x
_atom_site_fract_y
_atom_site_fract_z
Si Si1 0.438661 0.985785 0.673418
Si Si2 0.655113 0.644130 0.285986
Si Si3 0.843987 0.865254 0.056351
Si Si4 0.333056 0.119437 0.142498
Si Si5 0.165697 0.603811 0.699620
Si Si6 0.501821 0.562248 0.419111
Si Si7 0.088823 0.259796 0.982158
Si Si8 0.404775 0.770866 0.180774
O O1 0.500000 0.975853 0.750000
O O2 0.384561 0.929457 0.679868
O O3 0.500000 0.000000 0.500000
O O4 0.381032 0.043079 0.734151
O O5 0.657595 0.640865 0.112876
O O6 0.740312 0.619516 0.265471
O O7 0.578483 0.604033 0.390924
O O8 0.645793 0.714026 0.329489
O O9 0.863915 0.799775 0.097007
O O10 0.920272 0.904650 0.028742
O O11 0.758762 0.893001 0.167636
O O12 0.336746 0.109581 0.969323
O O13 0.371133 0.184414 0.125862
O O14 0.125038 0.661371 0.808020
O O15 0.500000 0.554616 0.250000
O O16 0.500000 0.500000 0.500000
O O17 0.094818 0.264516 0.148384
O O18 0.993069 0.260997 0.043083
#
# Coordination Sequence:
#
# PCOD9268512 Si02
#       8
#     8   8   8   8   8   8   8   8
#     4  12  24  40  55  77 111 147 187 224 271 326
#     4   9  17  31  51  81 110 137 176 225 275 318
#     4   9  17  31  51  81 110 137 178 226 270 317
#     4  10  20  33  53  79 108 141 181 225 271 324
#     4  10  20  32  53  80 109 141 181 225 270 320
#     4  10  20  34  53  77 111 144 176 216 267 321
#     4   9  15  27  50  78 109 138 172 223 277 317
#     4   9  15  26  49  79 110 137 171 225 278 313
#
# _framework density 17.984535999999999
#
# number of rings (size 3 to 8) (size 9 to 14) (size 15 to 20)
#    0.000    2.250    2.500    1.500    3.500    3.000 
#    0.000    0.000    0.000    0.750    0.000    4.375 
#    0.000    0.000    0.000    0.000    0.000    0.000 
#
# Total GULP energy -178244.696285 kJ/mol
# GULP energy per Si atom -5570.146759 kJ/mol
# Density = 1.794360 g / cm^3
# Si number density = 17.984536 Si / 1000 Ang^3
#
#
#
# Elastic Constant Matrix: (Units=GPa)
#
#
# Indices 1 2 3 4 5 6 
#
# 1 135.9639 96.5803 47.0073 0.0000 -41.7097 0.0000
# 2 96.5803 177.8583 35.7181 0.0000 -26.5893 0.0000
# 3 47.0073 35.7181 29.7850 0.0000 -17.6053 0.0000
# 4 0.0000 0.0000 0.0000 20.1626 0.0000 -3.7565
# 5 -41.7097 -26.5893 -17.6053 0.0000 26.7755 0.0000
# 6 0.0000 0.0000 0.0000 -3.7565 0.0000 27.2294
#
#
#
# Elastic Compliance Matrix: (Units=1/GPa)
#
#
# Indices 1 2 3 4 5 6 
#
# 1 0.024726 -0.006600 -0.019982 0.000000 0.018825 0.000000
# 2 -0.006600 0.009269 -0.002185 0.000000 -0.002513 0.000000
# 3 -0.019982 -0.002185 0.078595 0.000000 0.018380 0.000000
# 4 0.000000 0.000000 0.000000 0.050905 0.000000 0.007023
# 5 0.018825 -0.002513 0.018380 0.000000 0.076263 0.000000
# 6 0.000000 0.000000 0.000000 0.007023 0.000000 0.037694
#
#
# Mechanical properties :
#
#
# Convention : Reuss Voigt Hill
#
# Bulk Modulus (GPa) = 18.16320 78.02428 48.09374
# Shear Modulus (GPa) = 14.15073 25.78694 19.96884
#
# Velocity S-wave (km/s) = 2.80809 3.79072 3.33578
# Velocity P-wave (km/s) = 4.54259 7.91439 6.45262
#
# Compressibility (1/GPa) = 0.05505637
#
# Stress axis : x y z
#
# Youngs Moduli (GPa) = 40.44252 107.88148 12.72351
#
# Poissons Ratio (x) = 0.71198 0.25424
# Poissons Ratio (y) = 0.26691 0.02780
# Poissons Ratio (z) = 0.80813 0.23574
#
# Static dielectric constant tensor:
#      x y z
#    x 1.617840 0.000000 -0.011840 
#    y 0.000000 1.610220 0.000000 
#    z -0.011840 0.000000 1.601200 
# 
# From -- ./inp_files/107299.got.cif
#   From: 2010.05.17/outbox.cif.g08.bks.cpg/sg15_54_cif.got.tgz:107299.got - 2010.06.03 18:47:42.
