data_PCOD9268581
_publ_section_title
;
Structure prediction by ZEFSAII (Michael W. Deem and Ramdas Pophale) SiO2 
 PCOD9268581
Probable space group: C 2/C
;
_chemical_formula_sum "Si O2"
_cell_formula_units_Z 40
_cell_length_a 18.989141
_cell_length_b 4.980558
_cell_length_c 21.868520
_cell_angle_alpha 90.000000
_cell_angle_beta 72.913489
_cell_angle_gamma 90.000000
_cell_volume 1976.960568
_symmetry_space_group_name_H-M "C 2/C"
_symmetry_group_IT_number 15
_symmetry_cell_setting 'monoclinic'
loop_
_space_group_symop_operation_xyz
x,y,z
-x,y,1/2-z
-x,-y,-z
x,-y,1/2+z
1/2+x,1/2+y,z
1/2-x,1/2+y,1/2-z
1/2-x,1/2-y,-z
1/2+x,1/2-y,1/2+z
loop_
_atom_site_type_symbol
_atom_site_label
_atom_site_fract_x
_atom_site_fract_y
_atom_site_fract_z
Si Si1 0.299073 0.521280 0.727138
Si Si2 0.867340 0.562303 0.381390
Si Si3 0.418935 0.545156 0.297359
Si Si4 0.693283 0.309675 0.908171
Si Si5 0.670201 0.795979 0.988758
O O1 0.257553 0.803221 0.730253
O O2 0.365256 0.555638 0.757362
O O3 0.323500 0.396354 0.656387
O O4 0.888813 0.328533 0.328941
O O5 0.781191 0.641113 0.395195
O O6 0.877047 0.434264 0.446001
O O7 0.912890 0.827289 0.353190
O O8 0.500000 0.571219 0.250000
O O9 0.651142 0.508283 0.965622
O O10 0.678073 0.006404 0.931539
O O11 0.750000 0.750000 0.000000
#
# Coordination Sequence:
#
# PCOD9268581 Si02
#       5
#     8   8   8   8   8
#     4  12  22  38  60  86 120 154 191 247 292 338
#     4  11  20  37  58  83 121 149 196 240 287 346
#     4  12  24  39  59  86 119 160 194 234 293 353
#     4  11  19  34  58  87 118 144 193 242 297 337
#     4  10  20  32  56  89 116 148 186 247 295 335
#
# _framework density 20.233077000000002
#
# number of rings (size 3 to 8) (size 9 to 14) (size 15 to 20)
#    0.000    0.800    4.000    7.800    0.000    0.000 
#    0.000    0.000    0.000    7.200    0.000    0.000 
#    0.000    0.000    0.000    0.000    0.000    0.000 
#
# Total GULP energy -111786.792560 kJ/mol
# GULP energy per Si atom -5589.339628 kJ/mol
# Density = 2.018703 g / cm^3
# Si number density = 20.233077 Si / 1000 Ang^3
#
#
#
# Elastic Constant Matrix: (Units=GPa)
#
#
# Indices 1 2 3 4 5 6 
#
# 1 34.7241 -5.8735 8.9476 0.0010 -10.3080 -0.0056
# 2 -5.8735 78.8025 -12.2525 0.0004 -8.1104 -0.0074
# 3 8.9476 -12.2525 64.5144 0.0021 4.0617 0.0068
# 4 0.0010 0.0004 0.0021 47.2224 0.0014 4.0812
# 5 -10.3080 -8.1104 4.0617 0.0014 25.0726 0.0006
# 6 -0.0056 -0.0074 0.0068 4.0812 0.0006 1.0968
#
#
#
# Elastic Compliance Matrix: (Units=1/GPa)
#
#
# Indices 1 2 3 4 5 6 
#
# 1 0.035732 0.003553 -0.005333 -0.000031 0.016704 0.000343
# 2 0.003553 0.013811 0.001775 -0.000013 0.005641 0.000146
# 3 -0.005333 0.001775 0.016851 0.000014 -0.004348 -0.000169
# 4 -0.000031 -0.000013 0.000014 0.031215 -0.000018 -0.116155
# 5 0.016704 0.005641 -0.004348 -0.000018 0.049281 0.000191
# 6 0.000343 0.000146 -0.000169 -0.116155 0.000191 1.343982
#
#
# Mechanical properties :
#
#
# Convention : Reuss Voigt Hill
#
# Bulk Modulus (GPa) = 15.06340 17.74269 16.40304
# Shear Modulus (GPa) = 3.30467 27.15965 15.23216
#
# Velocity S-wave (km/s) = 1.27939 3.66777 2.74676
# Velocity P-wave (km/s) = 3.10541 5.16961 4.26430
#
# Compressibility (1/GPa) = 0.06638610
#
# Stress axis : x y z
#
# Youngs Moduli (GPa) = 27.98598 72.40403 59.34413
#
# Poissons Ratio (x) = -0.25728 0.31646
# Poissons Ratio (y) = -0.09944 -0.10534
# Poissons Ratio (z) = 0.14924 -0.12852
#
# Static dielectric constant tensor:
#      x y z
#    x 1.676330 0.000000 0.003100 
#    y 0.000000 1.714940 0.000000 
#    z 0.003100 0.000000 1.770860 
# 
# From -- ./inp_files/246196.got.cif
#   From: 2010.05.17/outbox.cif.g08.bks.cpg/sg15_124_cif.got.tgz:246196.got - 2010.06.03 18:47:42.
