data_PCOD9268781
_publ_section_title
;
Structure prediction by ZEFSAII (Michael W. Deem and Ramdas Pophale) SiO2 
 PCOD9268781
Probable space group: C 2/C
;
_chemical_formula_sum "Si O2"
_cell_formula_units_Z 60
_cell_length_a 31.770594
_cell_length_b 18.584675
_cell_length_c 8.797264
_cell_angle_alpha 90.000000
_cell_angle_beta 32.489367
_cell_angle_gamma 90.000000
_cell_volume 2790.088102
_symmetry_space_group_name_H-M "C 2/C"
_symmetry_group_IT_number 15
_symmetry_cell_setting 'monoclinic'
loop_
_space_group_symop_operation_xyz
x,y,z
-x,y,1/2-z
-x,-y,-z
x,-y,1/2+z
1/2+x,1/2+y,z
1/2-x,1/2+y,1/2-z
1/2-x,1/2-y,-z
1/2+x,1/2-y,1/2+z
loop_
_atom_site_type_symbol
_atom_site_label
_atom_site_fract_x
_atom_site_fract_y
_atom_site_fract_z
Si Si1 0.568378 0.395341 0.749755
Si Si2 0.472835 0.101148 0.184156
Si Si3 0.707487 0.566093 0.407945
Si Si4 0.884540 0.536061 0.912512
Si Si5 0.500000 0.285601 0.750000
Si Si6 0.392056 0.534365 0.071510
Si Si7 0.393002 0.842334 0.643294
Si Si8 0.221625 0.171756 0.640428
O O1 0.503814 0.340050 0.881465
O O2 0.569206 0.468036 0.642669
O O3 0.560524 0.417929 0.949606
O O4 0.650361 0.353520 0.464417
O O5 0.500000 0.143087 0.250000
O O6 0.449478 0.148349 0.113537
O O7 0.402657 0.043867 0.414790
O O8 0.549298 0.054163 0.911643
O O9 0.657778 0.575257 0.406142
O O10 0.668429 0.503425 0.627445
O O11 0.706365 0.632535 0.526446
O O12 0.798292 0.546235 0.107981
O O13 0.899808 0.593974 0.999583
O O14 0.576194 0.233560 0.518200
O O15 0.303514 0.851892 0.967283
O O16 0.250000 0.250000 0.500000
#
# Coordination Sequence:
#
# PCOD9268781 Si02
#       8
#     8   8   8   8   4   8   8   8
#     4  10  22  39  68  87 116 148 194 251 300 354
#     4  11  22  31  49  80 117 154 198 234 276 325
#     4   9  20  32  60  82 116 146 189 242 291 344
#     4  10  20  33  52  79 112 160 192 233 275 339
#     4  12  22  40  64  82 112 164 196 230 302 358
#     4   9  20  40  57  94 112 140 198 254 301 336
#     4  11  22  39  56  78 120 158 198 230 280 364
#     4  10  20  38  60  85 112 157 193 229 290 359
#
# _framework density 21.504695999999999
#
# number of rings (size 3 to 8) (size 9 to 14) (size 15 to 20)
#    0.000    1.867    2.667    1.600    9.333    0.533 
#    0.000    2.000    0.000    0.000    0.000    0.000 
#    0.000    0.000    0.000    0.000    0.000    0.000 
#
# Total GULP energy -167236.040769 kJ/mol
# GULP energy per Si atom -5574.534692 kJ/mol
# Density = 2.145575 g / cm^3
# Si number density = 21.504696 Si / 1000 Ang^3
#
#
#
# Elastic Constant Matrix: (Units=GPa)
#
#
# Indices 1 2 3 4 5 6 
#
# 1 134.4093 32.8913 15.4570 0.0000 10.9235 0.0000
# 2 32.8913 85.1051 10.3373 0.0000 5.4940 0.0000
# 3 15.4570 10.3373 64.7777 0.0000 -4.3043 0.0000
# 4 0.0000 0.0000 0.0000 8.4344 0.0000 -3.5222
# 5 10.9235 5.4940 -4.3043 0.0000 19.1934 0.0000
# 6 0.0000 0.0000 0.0000 -3.5222 0.0000 32.6920
#
#
#
# Elastic Compliance Matrix: (Units=1/GPa)
#
#
# Indices 1 2 3 4 5 6 
#
# 1 0.008731 -0.002843 -0.001935 0.000000 -0.004589 0.000000
# 2 -0.002843 0.013206 -0.001596 0.000000 -0.002520 0.000000
# 3 -0.001935 -0.001596 0.016503 0.000000 0.005259 0.000000
# 4 0.000000 0.000000 0.000000 0.124148 0.000000 0.013376
# 5 -0.004589 -0.002520 0.005259 0.000000 0.056614 0.000000
# 6 0.000000 0.000000 0.000000 0.013376 0.000000 0.032030
#
#
# Mechanical properties :
#
#
# Convention : Reuss Voigt Hill
#
# Bulk Modulus (GPa) = 38.92313 44.62925 41.77619
# Shear Modulus (GPa) = 18.34568 27.10440 22.72504
#
# Velocity S-wave (km/s) = 2.92396 3.55405 3.25429
# Velocity P-wave (km/s) = 5.43493 6.13515 5.79563
#
# Compressibility (1/GPa) = 0.02569167
#
# Stress axis : x y z
#
# Youngs Moduli (GPa) = 114.53237 75.72560 60.59412
#
# Poissons Ratio (x) = 0.21530 0.11723
# Poissons Ratio (y) = 0.32563 0.09673
# Poissons Ratio (z) = 0.22158 0.12089
#
# Static dielectric constant tensor:
#      x y z
#    x 1.833180 0.000000 -0.062740 
#    y 0.000000 1.834900 0.000000 
#    z -0.062740 0.000000 1.848000 
# 
# From -- ./inp_files/70763.got.cif
#   From: 2010.05.17/outbox.cif.g08.bks.cpg/sg15_36_cif.got.tgz:70763.got - 2010.06.03 18:47:42.
