data_PCOD9268453
_publ_section_title
;
Structure prediction by ZEFSAII (Michael W. Deem and Ramdas Pophale) SiO2 
 PCOD9268453
Probable space group: C 2/C
;
_chemical_formula_sum "Si O2"
_cell_formula_units_Z 56
_cell_length_a 15.119244
_cell_length_b 21.793517
_cell_length_c 13.980186
_cell_angle_alpha 90.000000
_cell_angle_beta 141.527161
_cell_angle_gamma 90.000000
_cell_volume 2865.899558
_symmetry_space_group_name_H-M "C 2/C"
_symmetry_group_IT_number 15
_symmetry_cell_setting 'monoclinic'
loop_
_space_group_symop_operation_xyz
x,y,z
-x,y,1/2-z
-x,-y,-z
x,-y,1/2+z
1/2+x,1/2+y,z
1/2-x,1/2+y,1/2-z
1/2-x,1/2-y,-z
1/2+x,1/2-y,1/2+z
loop_
_atom_site_type_symbol
_atom_site_label
_atom_site_fract_x
_atom_site_fract_y
_atom_site_fract_z
Si Si1 0.341553 0.215078 0.657177
Si Si2 0.840260 0.101434 0.619784
Si Si3 0.133070 0.579494 0.791119
Si Si4 0.858393 0.443430 0.696024
Si Si5 0.880597 0.746212 0.908970
Si Si6 0.090948 0.764771 0.243109
Si Si7 0.424207 0.899408 0.474560
O O1 0.500000 0.211103 0.750000
O O2 0.250000 0.250000 0.500000
O O3 0.288298 0.144579 0.626444
O O4 0.357513 0.246916 0.775142
O O5 0.763505 0.097561 0.452931
O O6 0.863505 0.171323 0.671004
O O7 0.718120 0.077038 0.590001
O O8 0.000000 0.073805 0.750000
O O9 0.202329 0.512748 0.859913
O O10 0.079207 0.580456 0.637268
O O11 0.000000 0.579216 0.750000
O O12 0.000000 0.440685 0.750000
O O13 0.928802 0.421748 0.854110
O O14 0.734848 0.767430 0.834193
O O15 0.912975 0.674665 0.962635
O O16 0.006252 0.778860 0.073415
O O17 0.000000 0.732122 0.250000
#
# Coordination Sequence:
#
# PCOD9268453 Si02
#       7
#     8   8   8   8   8   8   8
#     4  10  20  36  55  76 101 130 165 209 252 293
#     4   9  19  34  49  72 106 136 162 200 248 300
#     4   9  18  33  54  78  98 124 167 213 247 286
#     4   9  17  32  54  75  97 129 167 206 247 292
#     4  10  20  32  50  75 101 132 169 204 248 300
#     4  10  20  33  49  73 104 136 167 204 246 297
#     4   9  18  32  53  75  98 127 167 210 248 288
#
# _framework density 19.540112000000001
#
# number of rings (size 3 to 8) (size 9 to 14) (size 15 to 20)
#    0.000    2.571    0.000    1.714    0.000    5.143 
#    0.000    1.429    0.000    0.000    0.000    0.000 
#    0.000    0.000    0.000    0.000    0.000    0.000 
#
# Total GULP energy -155873.586788 kJ/mol
# GULP energy per Si atom -5566.913814 kJ/mol
# Density = 1.949564 g / cm^3
# Si number density = 19.540112 Si / 1000 Ang^3
#
#
#
# Elastic Constant Matrix: (Units=GPa)
#
#
# Indices 1 2 3 4 5 6 
#
# 1 74.7190 20.0676 35.8301 0.0000 -7.1161 0.0000
# 2 20.0676 68.8885 62.8234 0.0000 -15.8526 0.0000
# 3 35.8301 62.8234 151.3851 0.0000 -8.0180 0.0000
# 4 0.0000 0.0000 0.0000 17.1523 0.0000 -4.2268
# 5 -7.1161 -15.8526 -8.0180 0.0000 29.0666 0.0000
# 6 0.0000 0.0000 0.0000 -4.2268 0.0000 7.4147
#
#
#
# Elastic Compliance Matrix: (Units=1/GPa)
#
#
# Indices 1 2 3 4 5 6 
#
# 1 0.015370 -0.001201 -0.003019 0.000000 0.002275 0.000000
# 2 -0.001201 0.026875 -0.010258 0.000000 0.011534 0.000000
# 3 -0.003019 -0.010258 0.011408 0.000000 -0.003187 0.000000
# 4 0.000000 0.000000 0.000000 0.067830 0.000000 0.038667
# 5 0.002275 0.011534 -0.003187 0.000000 0.040372 0.000000
# 6 0.000000 0.000000 0.000000 0.038667 0.000000 0.156910
#
#
# Mechanical properties :
#
#
# Convention : Reuss Voigt Hill
#
# Bulk Modulus (GPa) = 40.48819 59.15944 49.82381
# Shear Modulus (GPa) = 14.04680 22.47815 18.26247
#
# Velocity S-wave (km/s) = 2.68408 3.39537 3.06046
# Velocity P-wave (km/s) = 5.51101 6.76114 6.16783
#
# Compressibility (1/GPa) = 0.02469856
#
# Stress axis : x y z
#
# Youngs Moduli (GPa) = 65.06005 37.20986 87.65525
#
# Poissons Ratio (x) = 0.04467 0.26465
# Poissons Ratio (y) = 0.07810 0.89914
# Poissons Ratio (z) = 0.19643 0.38169
#
# Static dielectric constant tensor:
#      x y z
#    x 1.678600 0.000000 -0.004340 
#    y 0.000000 1.796260 0.000000 
#    z -0.004340 0.000000 1.694740 
# 
# From -- ./inp_files/42726.got.cif
#   From: 2010.05.17/outbox.cif.g08.bks.cpg/sg15_22_cif.got.tgz:42726.got - 2010.06.03 18:47:42.
