data_PCOD9268814
_publ_section_title
;
Structure prediction by ZEFSAII (Michael W. Deem and Ramdas Pophale) SiO2 
 PCOD9268814
Probable space group: C 2/C
;
_chemical_formula_sum "Si O2"
_cell_formula_units_Z 40
_cell_length_a 8.154426
_cell_length_b 9.098888
_cell_length_c 23.695310
_cell_angle_alpha 90.000000
_cell_angle_beta 84.149022
_cell_angle_gamma 90.000000
_cell_volume 1748.943164
_symmetry_space_group_name_H-M "C 2/C"
_symmetry_group_IT_number 15
_symmetry_cell_setting 'monoclinic'
loop_
_space_group_symop_operation_xyz
x,y,z
-x,y,1/2-z
-x,-y,-z
x,-y,1/2+z
1/2+x,1/2+y,z
1/2-x,1/2+y,1/2-z
1/2-x,1/2-y,-z
1/2+x,1/2-y,1/2+z
loop_
_atom_site_type_symbol
_atom_site_label
_atom_site_fract_x
_atom_site_fract_y
_atom_site_fract_z
Si Si1 0.565574 0.420163 0.584636
Si Si2 0.660114 0.140286 0.785793
Si Si3 0.654842 0.517235 0.312154
Si Si4 0.938599 0.424177 0.389145
Si Si5 0.250301 0.579055 0.014264
O O1 0.515122 0.490024 0.646656
O O2 0.582267 0.245672 0.592327
O O3 0.713508 0.489861 0.544097
O O4 0.405529 0.444723 0.550558
O O5 0.500000 0.131052 0.750000
O O6 0.685415 0.311470 0.797895
O O7 0.604287 0.063284 0.846100
O O8 0.810872 0.071372 0.746127
O O9 0.794001 0.462377 0.350395
O O10 0.906564 0.525064 0.444521
O O11 0.250000 0.750000 0.000000
#
# Coordination Sequence:
#
# PCOD9268814 Si02
#       5
#     8   8   8   8   8
#     4   9  19  36  53  73 104 135 166 207 251 297
#     4   9  18  34  53  73  98 130 167 207 251 296
#     4   9  18  34  54  74 100 133 167 206 251 297
#     4   9  18  35  53  72 104 137 164 204 254 299
#     4  10  20  33  53  79 101 130 172 209 247 297
#
# _framework density 22.870954999999999
#
# number of rings (size 3 to 8) (size 9 to 14) (size 15 to 20)
#    0.000    2.800    0.000    0.600    0.000    2.400 
#    0.000   21.000    0.000    0.000    0.000    0.000 
#    0.000    0.000    0.000    0.000    0.000    0.000 
#
# Total GULP energy -111717.323885 kJ/mol
# GULP energy per Si atom -5585.866194 kJ/mol
# Density = 2.281890 g / cm^3
# Si number density = 22.870955 Si / 1000 Ang^3
#
#
#
# Elastic Constant Matrix: (Units=GPa)
#
#
# Indices 1 2 3 4 5 6 
#
# 1 84.7351 32.8839 62.7549 0.0000 -18.5106 0.0000
# 2 32.8839 71.5607 99.1314 0.0000 -42.9142 0.0000
# 3 62.7549 99.1314 224.0310 0.0000 -51.0141 0.0000
# 4 0.0000 0.0000 0.0000 57.4743 0.0000 -3.3499
# 5 -18.5106 -42.9142 -51.0141 0.0000 46.9260 0.0000
# 6 0.0000 0.0000 0.0000 -3.3499 0.0000 26.2638
#
#
#
# Elastic Compliance Matrix: (Units=1/GPa)
#
#
# Indices 1 2 3 4 5 6 
#
# 1 0.015106 -0.002537 -0.003030 0.000000 0.000344 0.000000
# 2 -0.002537 0.063012 -0.018975 0.000000 0.035996 0.000000
# 3 -0.003030 -0.018975 0.012605 0.000000 -0.004844 0.000000
# 4 0.000000 0.000000 0.000000 0.017529 0.000000 0.002236
# 5 0.000344 0.035996 -0.004844 0.000000 0.049098 0.000000
# 6 0.000000 0.000000 0.000000 0.002236 0.000000 0.038360
#
#
# Mechanical properties :
#
#
# Convention : Reuss Voigt Hill
#
# Bulk Modulus (GPa) = 24.01637 85.54079 54.77858
# Shear Modulus (GPa) = 19.32929 38.50327 28.91628
#
# Velocity S-wave (km/s) = 2.91029 4.10750 3.55959
# Velocity P-wave (km/s) = 4.67083 7.74455 6.39511
#
# Compressibility (1/GPa) = 0.04163826
#
# Stress axis : x y z
#
# Youngs Moduli (GPa) = 66.20099 15.87008 79.33045
#
# Poissons Ratio (x) = 0.04027 0.24039
# Poissons Ratio (y) = 0.16798 1.50526
# Poissons Ratio (z) = 0.20060 0.30113
#
# Static dielectric constant tensor:
#      x y z
#    x 1.840940 0.000000 -0.009280 
#    y 0.000000 1.768100 0.000000 
#    z -0.009280 0.000000 1.901150 
# 
# From -- ./inp_files/262429.got.cif
#   From: 2010.05.17/outbox.cif.g08.bks.cpg/sg15_132_cif.got.tgz:262429.got - 2010.06.03 18:47:42.
