data_PCOD9268741
_publ_section_title
;
Structure prediction by ZEFSAII (Michael W. Deem and Ramdas Pophale) SiO2 
 PCOD9268741
Probable space group: C 2/C
;
_chemical_formula_sum "Si O2"
_cell_formula_units_Z 48
_cell_length_a 5.345453
_cell_length_b 21.520006
_cell_length_c 16.217514
_cell_angle_alpha 90.000000
_cell_angle_beta 82.193963
_cell_angle_gamma 90.000000
_cell_volume 1848.281211
_symmetry_space_group_name_H-M "C 2/C"
_symmetry_group_IT_number 15
_symmetry_cell_setting 'monoclinic'
loop_
_space_group_symop_operation_xyz
x,y,z
-x,y,1/2-z
-x,-y,-z
x,-y,1/2+z
1/2+x,1/2+y,z
1/2-x,1/2+y,1/2-z
1/2-x,1/2-y,-z
1/2+x,1/2-y,1/2+z
loop_
_atom_site_type_symbol
_atom_site_label
_atom_site_fract_x
_atom_site_fract_y
_atom_site_fract_z
Si Si1 0.766415 0.363103 0.205219
Si Si2 0.268009 0.987507 0.706472
Si Si3 0.645150 0.898703 0.479322
Si Si4 0.046909 0.804468 0.654103
Si Si5 0.633723 0.429726 0.543577
Si Si6 0.411125 0.221517 0.417625
O O1 0.500000 0.339850 0.250000
O O2 0.770024 0.438434 0.217546
O O3 0.769747 0.361647 0.105663
O O4 0.000000 0.338987 0.250000
O O5 0.500000 0.961442 0.750000
O O6 0.253738 0.971113 0.611139
O O7 0.000000 0.964082 0.750000
O O8 0.368082 0.924981 0.469966
O O9 0.580396 0.850665 0.555295
O O10 0.872458 0.940678 0.505549
O O11 0.070337 0.864384 0.593198
O O12 0.298404 0.764643 0.618782
O O13 0.000000 0.823531 0.750000
O O14 0.784167 0.770308 0.647158
O O15 0.250000 0.250000 0.500000
#
# Coordination Sequence:
#
# PCOD9268741 Si02
#       6
#     8   8   8   8   8   8
#     4  10  21  37  54  74 105 142 181 222 259 307
#     4  10  20  33  51  77 109 143 175 213 262 308
#     4  10  21  36  55  78 103 140 180 217 271 318
#     4  10  20  35  57  83 110 139 174 217 267 322
#     4  10  20  33  54  81 108 138 173 217 266 322
#     4  10  21  38  57  79 111 143 174 221 273 320
#
# _framework density 25.970072999999999
#
# number of rings (size 3 to 8) (size 9 to 14) (size 15 to 20)
#    0.000    2.000    0.000    3.500    0.000    4.000 
#    0.000    2.500    0.000    0.000    0.000    0.000 
#    0.000    0.000    0.000    0.000    0.000    0.000 
#
# Total GULP energy -134003.392282 kJ/mol
# GULP energy per Si atom -5583.474678 kJ/mol
# Density = 2.591096 g / cm^3
# Si number density = 25.970073 Si / 1000 Ang^3
#
#
#
# Elastic Constant Matrix: (Units=GPa)
#
#
# Indices 1 2 3 4 5 6 
#
# 1 189.2149 27.1891 52.9007 0.0000 9.1741 0.0000
# 2 27.1891 40.2611 4.9081 0.0000 9.2736 0.0000
# 3 52.9007 4.9081 108.7014 0.0000 2.7510 0.0000
# 4 0.0000 0.0000 0.0000 31.3949 0.0000 1.8776
# 5 9.1741 9.2736 2.7510 0.0000 52.2607 0.0000
# 6 0.0000 0.0000 0.0000 1.8776 0.0000 103.5377
#
#
#
# Elastic Compliance Matrix: (Units=1/GPa)
#
#
# Indices 1 2 3 4 5 6 
#
# 1 0.006756 -0.004118 -0.003095 0.000000 -0.000292 0.000000
# 2 -0.004118 0.028528 0.000827 0.000000 -0.004383 0.000000
# 3 -0.003095 0.000827 0.010672 0.000000 -0.000165 0.000000
# 4 0.000000 0.000000 0.000000 0.031887 0.000000 -0.000578
# 5 -0.000292 -0.004383 -0.000165 0.000000 0.019973 0.000000
# 6 0.000000 0.000000 0.000000 -0.000578 0.000000 0.009669
#
#
# Mechanical properties :
#
#
# Convention : Reuss Voigt Hill
#
# Bulk Modulus (GPa) = 30.13436 56.46369 43.29902
# Shear Modulus (GPa) = 38.07577 54.31728 46.19653
#
# Velocity S-wave (km/s) = 3.83318 4.57829 4.22220
# Velocity P-wave (km/s) = 5.58746 7.05242 6.36225
#
# Compressibility (1/GPa) = 0.03318471
#
# Stress axis : x y z
#
# Youngs Moduli (GPa) = 148.01486 35.05388 93.69989
#
# Poissons Ratio (x) = 0.14435 0.28996
# Poissons Ratio (y) = 0.60951 -0.07748
# Poissons Ratio (z) = 0.45804 -0.02899
#
# Static dielectric constant tensor:
#      x y z
#    x 1.986490 0.000000 0.157200 
#    y 0.000000 2.180170 0.000000 
#    z 0.157200 0.000000 1.636940 
# 
# From -- ./inp_files/130056.got.cif
#   From: 2010.05.17/outbox.cif.g08.bks.cpg/sg15_66_cif.got.tgz:130056.got - 2010.06.03 18:47:42.
