data_PCOD9268692
_publ_section_title
;
Structure prediction by ZEFSAII (Michael W. Deem and Ramdas Pophale) SiO2 
 PCOD9268692
Probable space group: C 2/C
;
_chemical_formula_sum "Si O2"
_cell_formula_units_Z 56
_cell_length_a 27.551791
_cell_length_b 13.067632
_cell_length_c 24.539105
_cell_angle_alpha 90.000000
_cell_angle_beta 19.044821
_cell_angle_gamma 90.000000
_cell_volume 2882.921285
_symmetry_space_group_name_H-M "C 2/C"
_symmetry_group_IT_number 15
_symmetry_cell_setting 'monoclinic'
loop_
_space_group_symop_operation_xyz
x,y,z
-x,y,1/2-z
-x,-y,-z
x,-y,1/2+z
1/2+x,1/2+y,z
1/2-x,1/2+y,1/2-z
1/2-x,1/2-y,-z
1/2+x,1/2-y,1/2+z
loop_
_atom_site_type_symbol
_atom_site_label
_atom_site_fract_x
_atom_site_fract_y
_atom_site_fract_z
Si Si1 0.016447 0.196450 0.294224
Si Si2 0.027943 0.559914 0.781651
Si Si3 0.781176 0.920409 0.835919
Si Si4 0.247471 0.414986 0.129591
Si Si5 0.963887 0.041902 0.978132
Si Si6 0.956985 0.616435 0.560081
Si Si7 0.772091 0.792250 0.731173
O O1 0.048225 0.316556 0.256977
O O2 0.861298 0.171571 0.489020
O O3 0.000000 0.157196 0.250000
O O4 0.143008 0.140297 0.194547
O O5 0.000000 0.522450 0.750000
O O6 0.178144 0.523646 0.652307
O O7 0.880994 0.544398 0.973701
O O8 0.785077 0.846784 0.777791
O O9 0.884052 0.018867 0.714700
O O10 0.339819 0.479296 0.075768
O O11 0.100315 0.377370 0.317122
O O12 0.887668 0.149963 0.069552
O O13 0.000000 0.000000 0.000000
O O14 0.102596 0.684420 0.396204
O O15 0.000000 0.500000 0.500000
O O16 0.817896 0.673660 0.679809
#
# Coordination Sequence:
#
# PCOD9268692 Si02
#       7
#     8   8   8   8   8   8   8
#     4  10  20  33  48  73 113 160 205 240 287 359
#     4  11  20  31  49  80 115 154 200 245 297 357
#     4  10  20  33  53  76 112 160 202 235 291 353
#     4  11  21  35  55  77 115 156 199 241 287 351
#     4   9  21  38  54  77 110 153 203 243 281 348
#     4  12  25  39  60  89 119 156 201 243 292 362
#     4  11  23  38  57  82 116 157 193 241 299 345
#
# _framework density 19.42474
#
# number of rings (size 3 to 8) (size 9 to 14) (size 15 to 20)
#    0.000    1.429    2.857    3.429    6.000    2.286 
#    0.000    0.000    0.000    0.000    0.000    0.000 
#    0.000   19.429    0.000    0.000    0.000    0.000 
#
# Total GULP energy -156166.167959 kJ/mol
# GULP energy per Si atom -5577.363141 kJ/mol
# Density = 1.938053 g / cm^3
# Si number density = 19.424740 Si / 1000 Ang^3
#
#
#
# Elastic Constant Matrix: (Units=GPa)
#
#
# Indices 1 2 3 4 5 6 
#
# 1 97.4454 14.1529 24.2473 0.0002 -15.5922 -0.0002
# 2 14.1529 52.6414 30.8336 -0.0025 1.9847 0.0006
# 3 24.2473 30.8336 82.3692 -0.0012 -16.5654 0.0003
# 4 0.0002 -0.0025 -0.0012 26.5763 0.0008 0.6719
# 5 -15.5922 1.9847 -16.5654 0.0008 32.0110 0.0002
# 6 -0.0002 0.0006 0.0003 0.6719 0.0002 17.3918
#
#
#
# Elastic Compliance Matrix: (Units=1/GPa)
#
#
# Indices 1 2 3 4 5 6 
#
# 1 0.011821 -0.002481 -0.001520 -0.000001 0.005125 0.000000
# 2 -0.002481 0.026318 -0.010819 0.000002 -0.008439 -0.000001
# 3 -0.001520 -0.010819 0.018555 0.000000 0.009532 0.000000
# 4 -0.000001 0.000002 0.000000 0.037664 -0.000002 -0.001455
# 5 0.005125 -0.008439 0.009532 -0.000002 0.039192 0.000000
# 6 0.000000 -0.000001 0.000000 -0.001455 0.000000 0.057554
#
#
# Mechanical properties :
#
#
# Convention : Reuss Voigt Hill
#
# Bulk Modulus (GPa) = 36.96272 41.21372 39.08822
# Shear Modulus (GPa) = 21.76161 26.07730 23.91946
#
# Velocity S-wave (km/s) = 3.35072 3.66796 3.51293
# Velocity P-wave (km/s) = 5.83436 6.26113 6.05151
#
# Compressibility (1/GPa) = 0.02705429
#
# Stress axis : x y z
#
# Youngs Moduli (GPa) = 84.59665 37.99615 53.89408
#
# Poissons Ratio (x) = 0.09426 0.08194
# Poissons Ratio (y) = 0.20986 0.58307
# Poissons Ratio (z) = 0.12863 0.41107
#
# Static dielectric constant tensor:
#      x y z
#    x 1.790210 0.000000 -0.043700 
#    y 0.000000 1.687540 0.000000 
#    z -0.043700 0.000000 1.739040 
# 
# From -- ./inp_files/283606.got.cif
#   From: 2010.05.17/outbox.cif.g08.bks.cpg/sg15_142_cif.got.tgz:283606.got - 2010.06.03 18:47:42.
