data_PCOD9268889
_publ_section_title
;
Structure prediction by ZEFSAII (Michael W. Deem and Ramdas Pophale) SiO2 
 PCOD9268889
Probable space group: C 2/C
;
_chemical_formula_sum "Si O2"
_cell_formula_units_Z 64
_cell_length_a 12.594846
_cell_length_b 26.971021
_cell_length_c 20.842733
_cell_angle_alpha 90.000000
_cell_angle_beta 29.035102
_cell_angle_gamma 90.000000
_cell_volume 3436.337385
_symmetry_space_group_name_H-M "C 2/C"
_symmetry_group_IT_number 15
_symmetry_cell_setting 'monoclinic'
loop_
_space_group_symop_operation_xyz
x,y,z
-x,y,1/2-z
-x,-y,-z
x,-y,1/2+z
1/2+x,1/2+y,z
1/2-x,1/2+y,1/2-z
1/2-x,1/2-y,-z
1/2+x,1/2-y,1/2+z
loop_
_atom_site_type_symbol
_atom_site_label
_atom_site_fract_x
_atom_site_fract_y
_atom_site_fract_z
Si Si1 0.864181 0.542462 0.157833
Si Si2 0.553395 0.310881 0.088210
Si Si3 0.457381 0.932855 0.468465
Si Si4 0.102929 0.134164 0.434066
Si Si5 0.071539 0.905323 0.281062
Si Si6 0.119958 0.941581 0.533548
Si Si7 0.550887 0.786531 0.796313
Si Si8 0.252712 0.450382 0.550212
O O1 0.622828 0.545107 0.313464
O O2 0.938551 0.487320 0.098831
O O3 0.041647 0.558458 0.117093
O O4 0.876439 0.571682 0.084208
O O5 0.522812 0.351066 0.159424
O O6 0.414775 0.262164 0.178706
O O7 0.501106 0.334130 0.046276
O O8 0.815529 0.304405 0.945887
O O9 0.670430 0.899661 0.347665
O O10 0.269886 0.928018 0.515003
O O11 0.265247 0.170534 0.308083
O O12 0.235234 0.088917 0.398696
O O13 0.919027 0.105577 0.491028
O O14 0.000000 0.926622 0.250000
O O15 0.959899 0.937962 0.395240
O O16 0.222989 0.991180 0.446110
O O17 0.500000 0.770402 0.750000
#
# Coordination Sequence:
#
# PCOD9268889 Si02
#       8
#     8   8   8   8   8   8   8   8
#     4  10  20  33  55  75 113 159 200 240 269 318
#     4   9  20  34  55  85 115 138 187 243 307 337
#     4  10  21  35  51  82 116 155 200 235 276 329
#     4  10  22  35  57  83 119 152 189 230 298 361
#     4  11  19  33  56  83 114 150 190 243 289 337
#     4  11  22  35  54  81 123 164 193 231 275 345
#     4   9  18  36  57  84 113 142 182 253 302 343
#     4  10  21  35  52  85 117 156 198 236 280 337
#
# _framework density 18.624479999999998
#
# number of rings (size 3 to 8) (size 9 to 14) (size 15 to 20)
#    0.000    2.000    2.500    1.125    7.000    0.000 
#    0.000    2.500    0.000    0.750    0.000    3.500 
#    0.000    0.000    0.000    0.000    0.000    0.000 
#
# Total GULP energy -178394.059475 kJ/mol
# GULP energy per Si atom -5574.814359 kJ/mol
# Density = 1.858209 g / cm^3
# Si number density = 18.624480 Si / 1000 Ang^3
#
#
#
# Elastic Constant Matrix: (Units=GPa)
#
#
# Indices 1 2 3 4 5 6 
#
# 1 72.6493 37.6178 30.6695 -0.0052 -10.4292 -0.0059
# 2 37.6178 87.5048 26.3161 -0.0061 9.0063 0.0013
# 3 30.6695 26.3161 50.2267 -0.0320 -3.0171 0.0191
# 4 -0.0052 -0.0061 -0.0320 11.9810 -0.0008 9.9958
# 5 -10.4292 9.0063 -3.0171 -0.0008 24.3992 0.0021
# 6 -0.0059 0.0013 0.0191 9.9958 0.0021 22.4959
#
#
#
# Elastic Compliance Matrix: (Units=1/GPa)
#
#
# Indices 1 2 3 4 5 6 
#
# 1 0.024032 -0.008801 -0.009320 -0.000047 0.012369 0.000034
# 2 -0.008801 0.017698 -0.004550 -0.000014 -0.010857 0.000008
# 3 -0.009320 -0.004550 0.028055 0.000144 0.001165 -0.000090
# 4 -0.000047 -0.000014 0.000144 0.132637 0.000012 -0.058936
# 5 0.012369 -0.010857 0.001165 0.000012 0.050423 -0.000007
# 6 0.000034 0.000008 -0.000090 -0.058936 -0.000007 0.070640
#
#
# Mechanical properties :
#
#
# Convention : Reuss Voigt Hill
#
# Bulk Modulus (GPa) = 40.91513 44.39863 42.65688
# Shear Modulus (GPa) = 13.26340 19.49372 16.37856
#
# Velocity S-wave (km/s) = 2.67151 3.23874 2.96870
# Velocity P-wave (km/s) = 5.61534 6.15439 5.89104
#
# Compressibility (1/GPa) = 0.02444084
#
# Stress axis : x y z
#
# Youngs Moduli (GPa) = 41.61059 56.50492 35.64404
#
# Poissons Ratio (x) = 0.49732 0.33221
# Poissons Ratio (y) = 0.36623 0.16220
# Poissons Ratio (z) = 0.38782 0.25712
#
# Static dielectric constant tensor:
#      x y z
#    x 1.668140 0.000000 0.014950 
#    y 0.000000 1.711280 0.000010 
#    z 0.014950 0.000010 1.664420 
# 
# From -- ./inp_files/241002.got.cif
#   From: 2010.05.17/outbox.cif.g08.bks.cpg/sg15_121_cif.got.tgz:241002.got - 2010.06.03 18:47:42.
