data_PCOD9268007
_publ_section_title
;
Structure prediction by ZEFSAII (Michael W. Deem and Ramdas Pophale) SiO2 
 PCOD9268007
Probable space group: C 2/C
;
_chemical_formula_sum "Si O2"
_cell_formula_units_Z 52
_cell_length_a 26.037395
_cell_length_b 5.546291
_cell_length_c 19.717476
_cell_angle_alpha 90.000000
_cell_angle_beta 115.155718
_cell_angle_gamma 90.000000
_cell_volume 2577.358721
_symmetry_space_group_name_H-M "C 2/C"
_symmetry_group_IT_number 15
_symmetry_cell_setting 'monoclinic'
loop_
_space_group_symop_operation_xyz
x,y,z
-x,y,1/2-z
-x,-y,-z
x,-y,1/2+z
1/2+x,1/2+y,z
1/2-x,1/2+y,1/2-z
1/2-x,1/2-y,-z
1/2+x,1/2-y,1/2+z
loop_
_atom_site_type_symbol
_atom_site_label
_atom_site_fract_x
_atom_site_fract_y
_atom_site_fract_z
Si Si1 0.159317 0.164461 0.418425
Si Si2 0.500000 0.861258 0.750000
Si Si3 0.125070 0.801789 0.519638
Si Si4 0.563603 0.595588 0.265333
Si Si5 0.771123 0.444031 0.457582
Si Si6 0.012615 0.576388 0.415090
Si Si7 0.051258 0.085878 0.102232
O O1 0.108790 0.222244 0.338694
O O2 0.189477 0.370827 0.478872
O O3 0.134840 0.978015 0.460898
O O4 0.211920 0.062185 0.402916
O O5 0.443651 0.686275 0.721067
O O6 0.496801 0.945958 0.670564
O O7 0.185998 0.683486 0.569663
O O8 0.078502 0.604040 0.470749
O O9 0.098231 0.927326 0.570234
O O10 0.500000 0.682427 0.250000
O O11 0.574638 0.615105 0.191912
O O12 0.750000 0.250000 0.500000
O O13 0.985084 0.332453 0.429594
O O14 0.984930 0.838350 0.417510
#
# Coordination Sequence:
#
# PCOD9268007 Si02
#       7
#     8   4   8   8   8   8   8
#     4  10  19  41  66  86 125 157 218 262 306 373
#     4   8  18  34  56  88 120 160 208 248 304 372
#     4  11  22  36  63  89 125 164 213 256 314 367
#     4   9  19  38  60  93 122 165 203 254 315 377
#     4   9  22  37  62  92 110 163 211 265 305 360
#     4  11  23  37  59  93 132 166 206 254 315 374
#     4  11  25  38  58  95 134 166 202 255 323 379
#
# _framework density 20.175695000000001
#
# number of rings (size 3 to 8) (size 9 to 14) (size 15 to 20)
#    0.462    1.538    1.538    0.923    7.538    0.000 
#    2.769    0.000   10.154    0.000    0.000    0.000 
#    0.000    0.000    0.000    0.000    0.000    0.000 
#
# Total GULP energy -144852.011320 kJ/mol
# GULP energy per Si atom -5571.231205 kJ/mol
# Density = 2.012977 g / cm^3
# Si number density = 20.175695 Si / 1000 Ang^3
#
#
#
# Elastic Constant Matrix: (Units=GPa)
#
#
# Indices 1 2 3 4 5 6 
#
# 1 151.3984 43.2976 54.2621 0.0000 -2.9564 0.0001
# 2 43.2976 76.3199 21.6175 -0.0006 -5.2491 0.0007
# 3 54.2621 21.6175 90.4814 0.0000 -5.7938 0.0001
# 4 0.0000 -0.0006 0.0000 19.8442 0.0000 -0.8609
# 5 -2.9564 -5.2491 -5.7938 0.0000 33.9319 -0.0001
# 6 0.0001 0.0007 0.0001 -0.8609 -0.0001 29.5944
#
#
#
# Elastic Compliance Matrix: (Units=1/GPa)
#
#
# Indices 1 2 3 4 5 6 
#
# 1 0.009453 -0.004063 -0.004738 0.000000 -0.000614 0.000000
# 2 -0.004063 0.015889 -0.001238 0.000000 0.001892 0.000000
# 3 -0.004738 -0.001238 0.014307 0.000000 0.001839 0.000000
# 4 0.000000 0.000000 0.000000 0.050456 0.000000 0.001468
# 5 -0.000614 0.001892 0.001839 0.000000 0.030024 0.000000
# 6 0.000000 0.000000 0.000000 0.001468 0.000000 0.033833
#
#
# Mechanical properties :
#
#
# Convention : Reuss Voigt Hill
#
# Bulk Modulus (GPa) = 51.09717 61.83936 56.46827
# Shear Modulus (GPa) = 27.69115 29.94227 28.81671
#
# Velocity S-wave (km/s) = 3.70875 3.85655 3.78337
# Velocity P-wave (km/s) = 6.61217 7.10968 6.86544
#
# Compressibility (1/GPa) = 0.01957056
#
# Stress axis : x y z
#
# Youngs Moduli (GPa) = 105.78537 62.93766 69.89731
#
# Poissons Ratio (x) = 0.25573 0.33115
# Poissons Ratio (y) = 0.42983 0.08655
# Poissons Ratio (z) = 0.50117 0.07793
#
# Static dielectric constant tensor:
#      x y z
#    x 1.740540 0.000000 0.007610 
#    y 0.000000 1.981270 0.000000 
#    z 0.007610 0.000000 1.710300 
# 
# From -- ./inp_files/256389.got.cif
#   From: 2010.05.17/outbox.cif.g08.bks.cpg/sg15_129_cif.got.tgz:256389.got - 2010.06.03 18:47:42.
