data_PCOD9268086
_publ_section_title
;
Structure prediction by ZEFSAII (Michael W. Deem and Ramdas Pophale) SiO2 
 PCOD9268086
Probable space group: C 2/C
;
_chemical_formula_sum "Si O2"
_cell_formula_units_Z 36
_cell_length_a 15.050372
_cell_length_b 11.919063
_cell_length_c 7.518189
_cell_angle_alpha 90.000000
_cell_angle_beta 86.888907
_cell_angle_gamma 90.000000
_cell_volume 1346.672668
_symmetry_space_group_name_H-M "C 2/C"
_symmetry_group_IT_number 15
_symmetry_cell_setting 'monoclinic'
loop_
_space_group_symop_operation_xyz
x,y,z
-x,y,1/2-z
-x,-y,-z
x,-y,1/2+z
1/2+x,1/2+y,z
1/2-x,1/2+y,1/2-z
1/2-x,1/2-y,-z
1/2+x,1/2-y,1/2+z
loop_
_atom_site_type_symbol
_atom_site_label
_atom_site_fract_x
_atom_site_fract_y
_atom_site_fract_z
Si Si1 0.000000 0.823635 0.750000
Si Si2 0.838265 0.822279 0.150648
Si Si3 0.861892 0.052581 0.019711
Si Si4 0.158269 0.606915 0.137891
Si Si5 0.132625 0.642998 0.729547
O O1 0.942003 0.897094 0.623475
O O2 0.933986 0.731819 0.846010
O O3 0.863619 0.891698 0.327275
O O4 0.863672 0.696206 0.206677
O O5 0.730831 0.822987 0.157085
O O6 0.865665 0.917967 0.006404
O O7 0.765404 0.086161 0.113638
O O8 0.116834 0.485605 0.180041
O O9 0.131494 0.650070 0.944988
#
# Coordination Sequence:
#
# PCOD9268086 Si02
#       5
#     4   8   8   8   8
#     4  12  20  38  58  92 116 154 176 254 284 342
#     4  10  19  42  59  86 110 162 188 237 269 366
#     4  10  21  36  64  83 120 147 197 229 299 320
#     4  10  19  42  59  86 110 162 188 237 269 366
#     4  10  21  36  64  83 120 147 197 229 299 320
#
# _framework density 26.732555000000001
#
# number of rings (size 3 to 8) (size 9 to 14) (size 15 to 20)
#    0.000    1.778    4.444    1.333    0.000    1.778 
#    4.000    5.556    0.000    0.000    0.000    0.000 
#    0.000    0.000    0.000    0.000    0.000    0.000 
#
# Total GULP energy -100927.105522 kJ/mol
# GULP energy per Si atom -5607.061418 kJ/mol
# Density = 2.667171 g / cm^3
# Si number density = 26.732555 Si / 1000 Ang^3
#
#
#
# Elastic Constant Matrix: (Units=GPa)
#
#
# Indices 1 2 3 4 5 6 
#
# 1 79.5728 33.0623 19.1077 0.0000 33.3607 0.0000
# 2 33.0623 235.4961 12.5770 0.0000 0.0569 0.0000
# 3 19.1077 12.5770 85.7217 0.0000 3.2996 0.0000
# 4 0.0000 0.0000 0.0000 38.9729 0.0000 1.2227
# 5 33.3607 0.0569 3.2996 0.0000 25.3990 0.0000
# 6 0.0000 0.0000 0.0000 1.2227 0.0000 44.9971
#
#
#
# Elastic Compliance Matrix: (Units=1/GPa)
#
#
# Indices 1 2 3 4 5 6 
#
# 1 0.034325 -0.004526 -0.005279 0.000000 -0.044389 0.000000
# 2 -0.004526 0.004877 0.000065 0.000000 0.005926 0.000000
# 3 -0.005279 0.000065 0.012629 0.000000 0.005292 0.000000
# 4 0.000000 0.000000 0.000000 0.025681 0.000000 -0.000698
# 5 -0.044389 0.005926 0.005292 0.000000 0.096975 0.000000
# 6 0.000000 0.000000 0.000000 -0.000698 0.000000 0.022243
#
#
# Mechanical properties :
#
#
# Convention : Reuss Voigt Hill
#
# Bulk Modulus (GPa) = 30.90996 58.92052 44.91524
# Shear Modulus (GPa) = 22.02712 44.27670 33.15191
#
# Velocity S-wave (km/s) = 2.87362 4.07416 3.52537
# Velocity P-wave (km/s) = 4.75374 6.64984 5.78007
#
# Compressibility (1/GPa) = 0.03235204
#
# Stress axis : x y z
#
# Youngs Moduli (GPa) = 29.13286 205.04716 79.18304
#
# Poissons Ratio (x) = 0.92814 0.41797
# Poissons Ratio (y) = 0.13187 -0.00517
# Poissons Ratio (z) = 0.15378 -0.01340
#
# Static dielectric constant tensor:
#      x y z
#    x 2.288310 0.000000 -0.217160 
#    y 0.000000 2.080570 0.000000 
#    z -0.217160 0.000000 2.220690 
# 
# From -- ./inp_files/45892.got.cif
#   From: 2010.05.17/outbox.cif.g08.bks.cpg/sg15_23_cif.got.tgz:45892.got - 2010.06.03 18:47:42.
