data_PCOD9268462
_publ_section_title
;
Structure prediction by ZEFSAII (Michael W. Deem and Ramdas Pophale) SiO2 
 PCOD9268462
Probable space group: C 2/C
;
_chemical_formula_sum "Si O2"
_cell_formula_units_Z 48
_cell_length_a 23.046653
_cell_length_b 5.849246
_cell_length_c 16.909802
_cell_angle_alpha 90.000000
_cell_angle_beta 65.594761
_cell_angle_gamma 90.000000
_cell_volume 2075.849199
_symmetry_space_group_name_H-M "C 2/C"
_symmetry_group_IT_number 15
_symmetry_cell_setting 'monoclinic'
loop_
_space_group_symop_operation_xyz
x,y,z
-x,y,1/2-z
-x,-y,-z
x,-y,1/2+z
1/2+x,1/2+y,z
1/2-x,1/2+y,1/2-z
1/2-x,1/2-y,-z
1/2+x,1/2-y,1/2+z
loop_
_atom_site_type_symbol
_atom_site_label
_atom_site_fract_x
_atom_site_fract_y
_atom_site_fract_z
Si Si1 0.004996 0.573394 0.120717
Si Si2 0.609005 0.574490 0.789124
Si Si3 0.300812 0.447491 0.994221
Si Si4 0.204574 0.326175 0.641179
Si Si5 0.444675 0.685603 0.044032
Si Si6 0.103353 0.287735 0.151524
O O1 0.041337 0.425710 0.164149
O O2 0.950743 0.750230 0.178122
O O3 0.969464 0.393142 0.084273
O O4 0.060936 0.703133 0.039377
O O5 0.675955 0.701477 0.734106
O O6 0.606933 0.442336 0.873439
O O7 0.596637 0.398607 0.724105
O O8 0.299529 0.637897 0.926113
O O9 0.369202 0.329637 0.944420
O O10 0.250000 0.250000 0.000000
O O11 0.274203 0.563676 0.088799
O O12 0.155106 0.529439 0.652104
O O13 0.500000 0.500000 0.000000
#
# Coordination Sequence:
#
# PCOD9268462 Si02
#       6
#     8   8   8   8   8   8
#     4  10  21  36  51  76 118 150 184 232 279 344
#     4  10  20  32  50  77 111 148 192 235 282 338
#     4   8  16  31  48  74 114 136 174 225 283 341
#     4   9  17  30  50  77 113 135 182 230 281 338
#     4   9  20  36  51  70 111 149 197 220 273 338
#     4  10  20  32  53  82 115 143 182 233 293 334
#
# _framework density 23.123066000000001
#
# number of rings (size 3 to 8) (size 9 to 14) (size 15 to 20)
#    0.000    2.667    0.000    1.000    0.000    9.333 
#    0.000    0.000    0.000    0.000    0.000    0.000 
# 1190.000    0.000    0.000    0.000    0.000    0.000 
#
# Total GULP energy -133913.813613 kJ/mol
# GULP energy per Si atom -5579.742234 kJ/mol
# Density = 2.307044 g / cm^3
# Si number density = 23.123066 Si / 1000 Ang^3
#
#
#
# Elastic Constant Matrix: (Units=GPa)
#
#
# Indices 1 2 3 4 5 6 
#
# 1 55.6586 34.2062 43.2783 -0.0016 -6.6056 -0.0036
# 2 34.2062 145.9381 73.1485 -0.0044 -15.5399 -0.0057
# 3 43.2783 73.1485 192.6716 -0.0005 -46.3983 -0.0013
# 4 -0.0016 -0.0044 -0.0005 66.4545 -0.0004 -13.8276
# 5 -6.6056 -15.5399 -46.3983 -0.0004 16.6660 -0.0008
# 6 -0.0036 -0.0057 -0.0013 -13.8276 -0.0008 18.9046
#
#
#
# Elastic Compliance Matrix: (Units=1/GPa)
#
#
# Indices 1 2 3 4 5 6 
#
# 1 0.024383 -0.003393 -0.007960 0.000001 -0.015660 0.000003
# 2 -0.003393 0.008991 -0.002902 0.000001 -0.001040 0.000003
# 3 -0.007960 -0.002902 0.020234 0.000000 0.050472 0.000001
# 4 0.000001 0.000001 0.000000 0.017749 0.000003 0.012982
# 5 -0.015660 -0.001040 0.050472 0.000003 0.193340 0.000011
# 6 0.000003 0.000003 0.000001 0.012982 0.000011 0.062393
#
#
# Mechanical properties :
#
#
# Convention : Reuss Voigt Hill
#
# Bulk Modulus (GPa) = 39.84261 77.28162 58.56211
# Shear Modulus (GPa) = 13.73754 36.64736 25.19245
#
# Velocity S-wave (km/s) = 2.44007 3.98538 3.30433
# Velocity P-wave (km/s) = 5.02063 7.39406 6.31976
#
# Compressibility (1/GPa) = 0.02509876
#
# Stress axis : x y z
#
# Youngs Moduli (GPa) = 41.01270 111.21955 49.42106
#
# Poissons Ratio (x) = 0.37734 0.39339
# Poissons Ratio (y) = 0.13915 0.14342
# Poissons Ratio (z) = 0.32646 0.32275
#
# Static dielectric constant tensor:
#      x y z
#    x 1.879250 0.000000 -0.007640 
#    y 0.000000 1.863110 0.000000 
#    z -0.007640 0.000000 1.988330 
# 
# From -- ./inp_files/220830.got.cif
#   From: 2010.05.17/outbox.cif.g08.bks.cpg/sg15_111_cif.got.tgz:220830.got - 2010.06.03 18:47:42.
