data_PCOD9268037
_publ_section_title
;
Structure prediction by ZEFSAII (Michael W. Deem and Ramdas Pophale) SiO2 
 PCOD9268037
Probable space group: C 2/C
;
_chemical_formula_sum "Si O2"
_cell_formula_units_Z 52
_cell_length_a 5.289202
_cell_length_b 20.643268
_cell_length_c 21.827498
_cell_angle_alpha 90.000000
_cell_angle_beta 125.753834
_cell_angle_gamma 90.000000
_cell_volume 1934.103694
_symmetry_space_group_name_H-M "C 2/C"
_symmetry_group_IT_number 15
_symmetry_cell_setting 'monoclinic'
loop_
_space_group_symop_operation_xyz
x,y,z
-x,y,1/2-z
-x,-y,-z
x,-y,1/2+z
1/2+x,1/2+y,z
1/2-x,1/2+y,1/2-z
1/2-x,1/2-y,-z
1/2+x,1/2-y,1/2+z
loop_
_atom_site_type_symbol
_atom_site_label
_atom_site_fract_x
_atom_site_fract_y
_atom_site_fract_z
Si Si1 0.015563 0.322694 0.093252
Si Si2 0.325950 0.911812 0.489871
Si Si3 0.500000 0.592685 0.750000
Si Si4 0.646516 0.971122 0.642481
Si Si5 0.623645 0.698904 0.050699
Si Si6 0.736192 0.892485 0.331365
Si Si7 0.783327 0.108194 0.327896
O O1 0.974684 0.344789 0.158055
O O2 0.001529 0.384115 0.045176
O O3 0.232642 0.268093 0.091955
O O4 0.674067 0.290180 0.034203
O O5 0.473692 0.967780 0.552347
O O6 0.321100 0.850892 0.537044
O O7 0.976875 0.924623 0.413170
O O8 0.271356 0.539197 0.684404
O O9 0.552761 0.634773 0.694902
O O10 0.402861 0.943865 0.657147
O O11 0.952360 0.926556 0.674533
O O12 0.564690 0.658583 0.104391
O O13 0.500000 0.928692 0.250000
O O14 0.500000 0.139830 0.250000
#
# Coordination Sequence:
#
# PCOD9268037 Si02
#       7
#     8   8   4   8   8   8   8
#     4  10  19  41  67  96 133 186 232 291 354 438
#     4  10  21  43  68  99 139 179 235 306 348 442
#     4  12  26  46  68  98 138 194 238 308 368 418
#     4  11  24  41  74 101 136 184 240 298 372 418
#     4   9  20  35  68 100 135 179 231 283 372 425
#     4  11  26  45  66  93 139 187 242 296 354 431
#     4  11  20  41  63 107 141 177 227 302 356 438
#
# _framework density 26.885840999999999
#
# number of rings (size 3 to 8) (size 9 to 14) (size 15 to 20)
#    0.000    1.538    3.077    1.385    2.154    0.615 
#    2.769    1.538    0.000    0.000    0.000    0.000 
#    0.000    0.000    0.000    0.000    0.000    0.000 
#
# Total GULP energy -144949.245080 kJ/mol
# GULP energy per Si atom -5574.970965 kJ/mol
# Density = 2.682465 g / cm^3
# Si number density = 26.885841 Si / 1000 Ang^3
#
#
#
# Elastic Constant Matrix: (Units=GPa)
#
#
# Indices 1 2 3 4 5 6 
#
# 1 114.3812 21.3121 31.3879 0.0000 -37.5264 0.0000
# 2 21.3121 124.9024 64.6212 0.0000 -23.5815 0.0000
# 3 31.3879 64.6212 224.5643 0.0000 -11.7689 0.0000
# 4 0.0000 0.0000 0.0000 -4.2382 0.0000 -17.2230
# 5 -37.5264 -23.5815 -11.7689 0.0000 67.8291 0.0000
# 6 0.0000 0.0000 0.0000 -17.2230 0.0000 15.6886
#
#
#
# Elastic Compliance Matrix: (Units=1/GPa)
#
#
# Indices 1 2 3 4 5 6 
#
# 1 0.011011 -0.000165 -0.001186 0.000000 0.005829 0.000000
# 2 -0.000165 0.009979 -0.002696 0.000000 0.002910 0.000000
# 3 -0.001186 -0.002696 0.005360 0.000000 -0.000664 0.000000
# 4 0.000000 0.000000 0.000000 -0.043205 0.000000 -0.047430
# 5 0.005829 0.002910 -0.000664 0.000000 0.018864 0.000000
# 6 0.000000 0.000000 0.000000 -0.047430 0.000000 0.011672
#
#
# Mechanical properties :
#
#
# Convention : Reuss Voigt Hill
#
# Bulk Modulus (GPa) = 54.77603 77.61003 66.19303
# Shear Modulus (GPa) = 179.46782 38.95767 109.21275
#
# Velocity S-wave (km/s) = 8.17904 3.81071 6.38037
# Velocity P-wave (km/s) = 10.46964 6.94918 8.88551
#
# Compressibility (1/GPa) = 0.01825616
#
# Stress axis : x y z
#
# Youngs Moduli (GPa) = 90.81627 100.21427 186.57124
#
# Poissons Ratio (x) = 0.01650 0.22131
# Poissons Ratio (y) = 0.01495 0.50298
# Poissons Ratio (z) = 0.10773 0.27017
#
# Static dielectric constant tensor:
#      x y z
#    x 9.220180 0.000000 2.904950 
#    y 0.000000 2.160520 0.000000 
#    z 2.904950 0.000000 3.317800 
# 
# From -- ./inp_files/228217.got.cif
#   From: 2010.05.17/outbox.cif.g08.bks.cpg/sg15_115_cif.got.tgz:228217.got - 2010.06.03 18:47:42.
