data_PCOD9268149
_publ_section_title
;
Structure prediction by ZEFSAII (Michael W. Deem and Ramdas Pophale) SiO2 
 PCOD9268149
Probable space group: C 2/C
;
_chemical_formula_sum "Si O2"
_cell_formula_units_Z 60
_cell_length_a 21.182082
_cell_length_b 7.919731
_cell_length_c 25.505075
_cell_angle_alpha 90.000000
_cell_angle_beta 142.912770
_cell_angle_gamma 90.000000
_cell_volume 2580.148777
_symmetry_space_group_name_H-M "C 2/C"
_symmetry_group_IT_number 15
_symmetry_cell_setting 'monoclinic'
loop_
_space_group_symop_operation_xyz
x,y,z
-x,y,1/2-z
-x,-y,-z
x,-y,1/2+z
1/2+x,1/2+y,z
1/2-x,1/2+y,1/2-z
1/2-x,1/2-y,-z
1/2+x,1/2-y,1/2+z
loop_
_atom_site_type_symbol
_atom_site_label
_atom_site_fract_x
_atom_site_fract_y
_atom_site_fract_z
Si Si1 0.705186 0.895106 0.402868
Si Si2 0.154094 0.325633 0.678775
Si Si3 0.102382 0.242570 0.526773
Si Si4 0.369787 0.214638 0.857862
Si Si5 0.827539 0.016293 0.082511
Si Si6 0.015901 0.199362 0.863686
Si Si7 0.169799 0.626206 0.548343
Si Si8 0.000000 0.579358 0.250000
O O1 0.809216 0.880065 0.436942
O O2 0.739868 0.990301 0.478741
O O3 0.673372 0.705648 0.397545
O O4 0.605319 0.974467 0.310077
O O5 0.114571 0.255381 0.597105
O O6 0.278461 0.310313 0.767028
O O7 0.123106 0.523034 0.659683
O O8 0.097420 0.215639 0.685657
O O9 0.127727 0.432648 0.523092
O O10 0.984100 0.201995 0.432334
O O11 0.337155 0.195871 0.897462
O O12 0.937206 0.972630 0.128360
O O13 0.785750 0.891697 0.100280
O O14 0.018370 0.316812 0.814606
O O15 0.095853 0.268178 0.960847
#
# Coordination Sequence:
#
# PCOD9268149 Si02
#       8
#     8   8   8   8   8   8   8   4
#     4  10  24  45  70  98 136 181 232 280 354 421
#     4  11  25  43  68 104 134 182 238 287 352 409
#     4  10  21  45  72  95 135 190 224 285 348 420
#     4  11  23  44  70  95 138 181 233 292 346 418
#     4  10  23  43  68  97 131 184 227 274 354 420
#     4  12  24  42  69 100 141 173 231 295 349 408
#     4  10  19  42  70  91 128 183 226 274 348 411
#     4  12  28  42  68 106 140 174 232 304 342 422
#
# _framework density 23.254472
#
# number of rings (size 3 to 8) (size 9 to 14) (size 15 to 20)
#    0.000    1.333    4.000    1.200    3.733    1.600 
#    4.800    1.333    0.000    0.000    0.000    0.000 
#    0.000    0.000    0.000    0.000    0.000    0.000 
#
# Total GULP energy -167967.102393 kJ/mol
# GULP energy per Si atom -5598.903413 kJ/mol
# Density = 2.320154 g / cm^3
# Si number density = 23.254472 Si / 1000 Ang^3
#
#
#
# Elastic Constant Matrix: (Units=GPa)
#
#
# Indices 1 2 3 4 5 6 
#
# 1 122.0784 31.4077 25.8328 0.0000 25.0934 0.0001
# 2 31.4077 28.6862 26.7762 -0.0001 11.7685 0.0002
# 3 25.8328 26.7762 98.9332 0.0000 33.6507 0.0000
# 4 0.0000 -0.0001 0.0000 20.0196 0.0000 5.6008
# 5 25.0934 11.7685 33.6507 0.0000 32.0056 0.0000
# 6 0.0001 0.0002 0.0000 5.6008 0.0000 14.3617
#
#
#
# Elastic Compliance Matrix: (Units=1/GPa)
#
#
# Indices 1 2 3 4 5 6 
#
# 1 0.012688 -0.013416 0.003150 0.000000 -0.008327 0.000000
# 2 -0.013416 0.061591 -0.014074 0.000000 0.002669 -0.000001
# 3 0.003150 -0.014074 0.018952 0.000000 -0.017221 0.000000
# 4 0.000000 0.000000 0.000000 0.056068 0.000000 -0.021866
# 5 -0.008327 0.002669 -0.017221 0.000000 0.054898 0.000000
# 6 0.000000 -0.000001 0.000000 -0.021866 0.000000 0.078157
#
#
# Mechanical properties :
#
#
# Convention : Reuss Voigt Hill
#
# Bulk Modulus (GPa) = 22.44642 46.41458 34.43050
# Shear Modulus (GPa) = 14.45568 24.32278 19.38923
#
# Velocity S-wave (km/s) = 2.49596 3.23761 2.89067
# Velocity P-wave (km/s) = 4.24027 5.82914 5.09700
#
# Compressibility (1/GPa) = 0.04455053
#
# Stress axis : x y z
#
# Youngs Moduli (GPa) = 78.81386 16.23610 52.76532
#
# Poissons Ratio (x) = 0.21783 -0.16623
# Poissons Ratio (y) = 1.05739 0.74264
# Poissons Ratio (z) = -0.24829 0.22851
#
# Static dielectric constant tensor:
#      x y z
#    x 1.899610 0.000000 0.022190 
#    y 0.000000 1.877590 0.000000 
#    z 0.022190 0.000000 1.834060 
# 
# From -- ./inp_files/279716.got.cif
#   From: 2010.05.17/outbox.cif.g08.bks.cpg/sg15_140_cif.got.tgz:279716.got - 2010.06.03 18:47:42.
