data_PCOD9268132
_publ_section_title
;
Structure prediction by ZEFSAII (Michael W. Deem and Ramdas Pophale) SiO2 
 PCOD9268132
Probable space group: C 2/C
;
_chemical_formula_sum "Si O2"
_cell_formula_units_Z 48
_cell_length_a 13.527117
_cell_length_b 9.971520
_cell_length_c 23.428722
_cell_angle_alpha 90.000000
_cell_angle_beta 41.831451
_cell_angle_gamma 90.000000
_cell_volume 2107.671891
_symmetry_space_group_name_H-M "C 2/C"
_symmetry_group_IT_number 15
_symmetry_cell_setting 'monoclinic'
loop_
_space_group_symop_operation_xyz
x,y,z
-x,y,1/2-z
-x,-y,-z
x,-y,1/2+z
1/2+x,1/2+y,z
1/2-x,1/2+y,1/2-z
1/2-x,1/2-y,-z
1/2+x,1/2-y,1/2+z
loop_
_atom_site_type_symbol
_atom_site_label
_atom_site_fract_x
_atom_site_fract_y
_atom_site_fract_z
Si Si1 0.107782 0.794337 0.522646
Si Si2 0.021222 0.517036 0.557256
Si Si3 0.500000 0.936256 0.750000
Si Si4 0.631435 0.542011 0.580870
Si Si5 0.064634 0.276848 0.835538
Si Si6 0.267543 0.826335 0.335224
Si Si7 0.500000 0.591657 0.250000
O O1 0.250000 0.750000 0.500000
O O2 0.995261 0.673004 0.582307
O O3 0.154533 0.800953 0.436493
O O4 0.062716 0.938788 0.564541
O O5 0.192729 0.480990 0.496180
O O6 0.000000 0.500000 0.500000
O O7 0.923909 0.411250 0.632228
O O8 0.548099 0.836560 0.779859
O O9 0.637725 0.042294 0.687233
O O10 0.584395 0.692569 0.589225
O O11 0.563881 0.496891 0.670913
O O12 0.187402 0.175062 0.808150
O O13 0.373088 0.696638 0.286948
#
# Coordination Sequence:
#
# PCOD9268132 Si02
#       7
#     8   8   4   8   8   8   4
#     4  10  19  42  67  99 128 184 234 282 349 414
#     4  11  21  43  68 100 134 181 234 293 348 425
#     4  11  27  48  70 104 156 188 242 310 356 436
#     4  11  24  40  69  99 141 178 233 300 349 428
#     4  12  26  46  68 108 141 187 238 296 369 420
#     4  11  24  44  72  99 141 190 239 291 357 431
#     4  11  21  42  66 100 132 184 238 284 346 436
#
# _framework density 22.773944
#
# number of rings (size 3 to 8) (size 9 to 14) (size 15 to 20)
#    0.000    1.000    5.000    3.000    4.667    0.667 
#    6.000    0.000    0.000    0.000    0.000    0.000 
#    0.000    0.000    0.000    0.000    0.000    0.000 
#
# Total GULP energy -133982.894366 kJ/mol
# GULP energy per Si atom -5582.620599 kJ/mol
# Density = 2.272211 g / cm^3
# Si number density = 22.773944 Si / 1000 Ang^3
#
#
#
# Elastic Constant Matrix: (Units=GPa)
#
#
# Indices 1 2 3 4 5 6 
#
# 1 105.1215 18.4612 11.7434 0.0000 18.3958 0.0000
# 2 18.4612 106.5379 12.1033 0.0000 0.5164 0.0000
# 3 11.7434 12.1033 42.7716 0.0000 1.3233 0.0000
# 4 0.0000 0.0000 0.0000 35.3796 0.0000 10.4704
# 5 18.3958 0.5164 1.3233 0.0000 27.6542 0.0000
# 6 0.0000 0.0000 0.0000 10.4704 0.0000 20.6820
#
#
#
# Elastic Compliance Matrix: (Units=1/GPa)
#
#
# Indices 1 2 3 4 5 6 
#
# 1 0.011373 -0.001659 -0.002424 0.000000 -0.007419 0.000000
# 2 -0.001659 0.009940 -0.002389 0.000000 0.001033 0.000000
# 3 -0.002424 -0.002389 0.024707 0.000000 0.000474 0.000000
# 4 0.000000 0.000000 0.000000 0.033246 0.000000 -0.016831
# 5 -0.007419 0.001033 0.000474 0.000000 0.041054 0.000000
# 6 0.000000 0.000000 0.000000 -0.016831 0.000000 0.056872
#
#
# Mechanical properties :
#
#
# Convention : Reuss Voigt Hill
#
# Bulk Modulus (GPa) = 30.23348 37.67187 33.95268
# Shear Modulus (GPa) = 24.85564 30.88471 27.87017
#
# Velocity S-wave (km/s) = 3.30723 3.68658 3.50204
# Velocity P-wave (km/s) = 5.28091 5.89056 5.59405
#
# Compressibility (1/GPa) = 0.03307592
#
# Stress axis : x y z
#
# Youngs Moduli (GPa) = 87.92610 100.60044 40.47470
#
# Poissons Ratio (x) = 0.16695 0.09809
# Poissons Ratio (y) = 0.14591 0.09670
# Poissons Ratio (z) = 0.21309 0.24035
#
# Static dielectric constant tensor:
#      x y z
#    x 1.893030 0.000000 -0.025050 
#    y 0.000000 1.889100 0.000000 
#    z -0.025050 0.000000 1.841400 
# 
# From -- ./inp_files/295423.got.cif
#   From: 2010.05.17/outbox.cif.g08.bks.cpg/sg15_148_cif.got.tgz:295423.got - 2010.06.03 18:47:42.
