data_PCOD9268793
_publ_section_title
;
Structure prediction by ZEFSAII (Michael W. Deem and Ramdas Pophale) SiO2 
 PCOD9268793
Probable space group: C 2/C
;
_chemical_formula_sum "Si O2"
_cell_formula_units_Z 52
_cell_length_a 6.521591
_cell_length_b 18.191777
_cell_length_c 23.907528
_cell_angle_alpha 90.000000
_cell_angle_beta 70.450173
_cell_angle_gamma 90.000000
_cell_volume 2672.858561
_symmetry_space_group_name_H-M "C 2/C"
_symmetry_group_IT_number 15
_symmetry_cell_setting 'monoclinic'
loop_
_space_group_symop_operation_xyz
x,y,z
-x,y,1/2-z
-x,-y,-z
x,-y,1/2+z
1/2+x,1/2+y,z
1/2-x,1/2+y,1/2-z
1/2-x,1/2-y,-z
1/2+x,1/2-y,1/2+z
loop_
_atom_site_type_symbol
_atom_site_label
_atom_site_fract_x
_atom_site_fract_y
_atom_site_fract_z
Si Si1 0.000000 0.685324 0.750000
Si Si2 0.350720 0.139170 0.982770
Si Si3 0.440599 0.404240 0.194894
Si Si4 0.866714 0.964364 0.083987
Si Si5 0.583767 0.707275 0.438145
Si Si6 0.287279 0.919321 0.979722
Si Si7 0.695948 0.743447 0.689350
O O1 0.206849 0.635264 0.718159
O O2 0.086779 0.732636 0.793812
O O3 0.266467 0.103089 0.932649
O O4 0.498165 0.210160 0.956154
O O5 0.142623 0.162057 0.038961
O O6 0.491876 0.083375 0.006344
O O7 0.500000 0.437826 0.250000
O O8 0.419100 0.456679 0.144211
O O9 0.611987 0.336252 0.173805
O O10 0.734302 0.035913 0.076214
O O11 0.102166 0.957789 0.033680
O O12 0.720630 0.664966 0.472921
O O13 0.733558 0.708022 0.369443
O O14 0.500000 0.766639 0.750000
#
# Coordination Sequence:
#
# PCOD9268793 Si02
#       7
#     4   8   8   8   8   8   8
#     4   8  16  30  48  76 100 130 186 224 266 310
#     4  10  20  33  54  82 110 144 181 227 284 330
#     4   9  18  32  53  80 104 138 179 230 269 315
#     4  10  20  35  55  79 109 143 186 223 273 341
#     4  10  20  33  52  81 112 141 183 228 279 341
#     4  10  21  35  53  79 113 145 177 226 283 331
#     4   9  18  31  52  78 105 142 183 230 277 320
#
# _framework density 19.454826000000001
#
# number of rings (size 3 to 8) (size 9 to 14) (size 15 to 20)
#    0.000    2.769    0.000    2.769    0.000    6.154 
#    0.000    0.000    3.385    0.000    0.000    0.000 
#    0.000    0.000    0.000    0.000    0.000    0.000 
#
# Total GULP energy -144776.992687 kJ/mol
# GULP energy per Si atom -5568.345873 kJ/mol
# Density = 1.941055 g / cm^3
# Si number density = 19.454826 Si / 1000 Ang^3
#
#
#
# Elastic Constant Matrix: (Units=GPa)
#
#
# Indices 1 2 3 4 5 6 
#
# 1 105.6769 24.2417 50.1980 0.0000 29.2237 0.0000
# 2 24.2417 59.1556 20.0349 0.0000 10.4045 0.0000
# 3 50.1980 20.0349 97.7575 0.0000 16.4208 0.0000
# 4 0.0000 0.0000 0.0000 18.1462 0.0000 -2.5669
# 5 29.2237 10.4045 16.4208 0.0000 28.8439 0.0000
# 6 0.0000 0.0000 0.0000 -2.5669 0.0000 9.2642
#
#
#
# Elastic Compliance Matrix: (Units=1/GPa)
#
#
# Indices 1 2 3 4 5 6 
#
# 1 0.016124 -0.002531 -0.005717 0.000000 -0.012169 0.000000
# 2 -0.002531 0.019212 -0.002106 0.000000 -0.003167 0.000000
# 3 -0.005717 -0.002106 0.013817 0.000000 -0.001314 0.000000
# 4 0.000000 0.000000 0.000000 0.057356 0.000000 0.015892
# 5 -0.012169 -0.003167 -0.001314 0.000000 0.048889 0.000000
# 6 0.000000 0.000000 0.000000 0.015892 0.000000 0.112346
#
#
# Mechanical properties :
#
#
# Convention : Reuss Voigt Hill
#
# Bulk Modulus (GPa) = 35.15428 50.17102 42.66265
# Shear Modulus (GPa) = 16.78223 22.45854 19.62038
#
# Velocity S-wave (km/s) = 2.94024 3.40132 3.17915
# Velocity P-wave (km/s) = 5.44386 6.42416 5.95422
#
# Compressibility (1/GPa) = 0.02844604
#
# Stress axis : x y z
#
# Youngs Moduli (GPa) = 62.01856 52.05087 72.37279
#
# Poissons Ratio (x) = 0.13175 0.41375
# Poissons Ratio (y) = 0.15698 0.15240
# Poissons Ratio (z) = 0.35455 0.10961
#
# Static dielectric constant tensor:
#      x y z
#    x 1.681690 0.000000 0.012770 
#    y 0.000000 1.736670 0.000000 
#    z 0.012770 0.000000 1.732290 
# 
# From -- ./inp_files/227474.got.cif
#   From: 2010.05.17/outbox.cif.g08.bks.cpg/sg15_114_cif.got.tgz:227474.got - 2010.06.03 18:47:42.
