data_PCOD9268288
_publ_section_title
;
Structure prediction by ZEFSAII (Michael W. Deem and Ramdas Pophale) SiO2 
 PCOD9268288
Probable space group: C 2/C
;
_chemical_formula_sum "Si O2"
_cell_formula_units_Z 64
_cell_length_a 23.818269
_cell_length_b 23.045801
_cell_length_c 12.464169
_cell_angle_alpha 90.000000
_cell_angle_beta 152.347885
_cell_angle_gamma 90.000000
_cell_volume 3175.255614
_symmetry_space_group_name_H-M "C 2/C"
_symmetry_group_IT_number 15
_symmetry_cell_setting 'monoclinic'
loop_
_space_group_symop_operation_xyz
x,y,z
-x,y,1/2-z
-x,-y,-z
x,-y,1/2+z
1/2+x,1/2+y,z
1/2-x,1/2+y,1/2-z
1/2-x,1/2-y,-z
1/2+x,1/2-y,1/2+z
loop_
_atom_site_type_symbol
_atom_site_label
_atom_site_fract_x
_atom_site_fract_y
_atom_site_fract_z
Si Si1 0.293543 0.246166 0.195971
Si Si2 0.251651 0.563307 0.213639
Si Si3 0.066952 0.438028 0.597405
Si Si4 0.408054 0.849296 0.190544
Si Si5 0.632100 0.954461 0.944534
Si Si6 0.112685 0.166529 0.017301
Si Si7 0.078686 0.744094 0.643091
Si Si8 0.127934 0.664906 0.526469
O O1 0.437436 0.242493 0.437190
O O2 0.250000 0.250000 0.000000
O O3 0.229404 0.193677 0.152815
O O4 0.239216 0.303645 0.157820
O O5 0.172806 0.557071 0.188724
O O6 0.373152 0.597380 0.448121
O O7 0.190285 0.608585 0.027550
O O8 0.237026 0.501405 0.132011
O O9 0.119291 0.425905 0.805075
O O10 0.000000 0.500000 0.500000
O O11 0.978581 0.388846 0.398816
O O12 0.500000 0.837403 0.250000
O O13 0.359930 0.786868 0.150104
O O14 0.500000 0.982402 0.750000
O O15 0.647979 0.903531 0.057376
O O16 0.000000 0.182018 0.750000
O O17 0.098651 0.197023 0.109754
O O18 0.111123 0.696314 0.609197
O O19 0.000000 0.674919 0.250000
#
# Coordination Sequence:
#
# PCOD9268288 Si02
#       8
#     8   8   8   8   8   8   8   8
#     4  11  18  33  57  85 119 152 191 247 299 340
#     4  11  23  37  55  85 120 156 195 240 300 360
#     4  11  19  32  55  83 118 152 180 241 297 355
#     4  10  20  35  56  89 123 154 193 237 306 368
#     4  11  20  32  54  85 120 146 192 238 305 359
#     4  11  24  39  60  90 117 159 209 244 292 360
#     4  11  21  37  60  84 124 152 195 252 297 355
#     4  10  20  30  52  91 116 149 195 245 299 353
#
# _framework density 20.155857999999998
#
# number of rings (size 3 to 8) (size 9 to 14) (size 15 to 20)
#    0.000    1.250    5.000    4.125    1.750    0.500 
#    0.000    0.000    0.000    3.000    0.000    0.000 
#    0.000    0.000    0.000    0.000    0.000    0.000 
#
# Total GULP energy -178479.268882 kJ/mol
# GULP energy per Si atom -5577.477153 kJ/mol
# Density = 2.010998 g / cm^3
# Si number density = 20.155858 Si / 1000 Ang^3
#
#
#
# Elastic Constant Matrix: (Units=GPa)
#
#
# Indices 1 2 3 4 5 6 
#
# 1 90.6249 31.2591 21.4493 0.0000 6.0161 0.0000
# 2 31.2591 111.2930 20.1729 0.0000 5.7445 0.0000
# 3 21.4493 20.1729 37.5183 0.0000 -0.3748 0.0000
# 4 0.0000 0.0000 0.0000 61.2596 0.0000 -66.4922
# 5 6.0161 5.7445 -0.3748 0.0000 18.6300 0.0000
# 6 0.0000 0.0000 0.0000 -66.4922 0.0000 179.6082
#
#
#
# Elastic Compliance Matrix: (Units=1/GPa)
#
#
# Indices 1 2 3 4 5 6 
#
# 1 0.013683 -0.002463 -0.006536 0.000000 -0.003791 0.000000
# 2 -0.002463 0.010591 -0.004312 0.000000 -0.002557 0.000000
# 3 -0.006536 -0.004312 0.032750 0.000000 0.004099 0.000000
# 4 0.000000 0.000000 0.000000 0.027290 0.000000 0.010103
# 5 -0.003791 -0.002557 0.004099 0.000000 0.055772 0.000000
# 6 0.000000 0.000000 0.000000 0.010103 0.000000 0.009308
#
#
# Mechanical properties :
#
#
# Convention : Reuss Voigt Hill
#
# Bulk Modulus (GPa) = 32.89320 42.79987 37.84654
# Shear Modulus (GPa) = 26.86040 63.00322 44.93181
#
# Velocity S-wave (km/s) = 3.65449 5.59695 4.72658
# Velocity P-wave (km/s) = 5.84482 7.94030 6.97174
#
# Compressibility (1/GPa) = 0.03040142
#
# Stress axis : x y z
#
# Youngs Moduli (GPa) = 73.08589 94.42380 30.53458
#
# Poissons Ratio (x) = 0.23253 0.19958
# Poissons Ratio (y) = 0.17999 0.13166
# Poissons Ratio (z) = 0.47769 0.40715
#
# Static dielectric constant tensor:
#      x y z
#    x 1.742440 0.000000 -0.040480 
#    y 0.000000 1.773990 0.000000 
#    z -0.040480 0.000000 1.789290 
# 
# From -- ./inp_files/120255.got.cif
#   From: 2010.05.17/outbox.cif.g08.bks.cpg/sg15_61_cif.got.tgz:120255.got - 2010.06.03 18:47:42.
