data_PCOD9268278
_publ_section_title
;
Structure prediction by ZEFSAII (Michael W. Deem and Ramdas Pophale) SiO2 
 PCOD9268278
Probable space group: C 2/C
;
_chemical_formula_sum "Si O2"
_cell_formula_units_Z 60
_cell_length_a 23.152236
_cell_length_b 20.219486
_cell_length_c 11.217776
_cell_angle_alpha 90.000000
_cell_angle_beta 140.735705
_cell_angle_gamma 90.000000
_cell_volume 3323.562826
_symmetry_space_group_name_H-M "C 2/C"
_symmetry_group_IT_number 15
_symmetry_cell_setting 'monoclinic'
loop_
_space_group_symop_operation_xyz
x,y,z
-x,y,1/2-z
-x,-y,-z
x,-y,1/2+z
1/2+x,1/2+y,z
1/2-x,1/2+y,1/2-z
1/2-x,1/2-y,-z
1/2+x,1/2-y,1/2+z
loop_
_atom_site_type_symbol
_atom_site_label
_atom_site_fract_x
_atom_site_fract_y
_atom_site_fract_z
Si Si1 0.774831 0.140211 0.081694
Si Si2 0.942774 0.067379 0.912736
Si Si3 0.500000 0.553421 0.250000
Si Si4 0.883926 0.256893 0.165331
Si Si5 0.073678 0.187125 0.771889
Si Si6 0.410906 0.775475 0.937880
Si Si7 0.185634 0.997717 0.447529
Si Si8 0.250311 0.125241 0.179589
O O1 0.860381 0.187092 0.188069
O O2 0.777643 0.070551 0.019026
O O3 0.771486 0.124477 0.215676
O O4 0.689260 0.187271 0.915502
O O5 0.968005 0.120481 0.853664
O O6 0.841665 0.041942 0.717559
O O7 0.965177 0.094034 0.079907
O O8 0.000000 0.000000 0.000000
O O9 0.588448 0.509579 0.358672
O O10 0.982197 0.283210 0.362310
O O11 0.875610 0.246848 0.008879
O O12 0.094784 0.232475 0.691240
O O13 0.000000 0.213188 0.750000
O O14 0.168559 0.166647 0.986266
O O15 0.347549 0.839474 0.817316
O O16 0.246399 0.948313 0.620497
#
# Coordination Sequence:
#
# PCOD9268278 Si02
#       8
#     8   8   4   8   8   8   8   8
#     4  10  20  38  59  87 117 145 192 238 292 340
#     4   9  21  30  46  78 113 146 180 214 276 350
#     4  10  20  30  50  82 114 146 178 222 280 352
#     4   9  21  37  62  87 109 148 192 246 285 332
#     4  11  23  34  56  80 114 153 184 229 287 339
#     4  10  21  39  59  82 114 150 196 234 280 336
#     4  10  21  32  55  80 120 149 184 230 286 343
#     4  10  22  38  56  83 117 155 190 230 279 346
#
# _framework density 18.052914999999999
#
# number of rings (size 3 to 8) (size 9 to 14) (size 15 to 20)
#    0.000    2.133    0.000    2.000   17.733    0.000 
#    0.000    0.667    0.000    0.000    0.000    0.000 
#    0.000    0.000    0.000    0.000    0.000    0.000 
#
# Total GULP energy -167209.057839 kJ/mol
# GULP energy per Si atom -5573.635261 kJ/mol
# Density = 1.801183 g / cm^3
# Si number density = 18.052915 Si / 1000 Ang^3
#
#
#
# Elastic Constant Matrix: (Units=GPa)
#
#
# Indices 1 2 3 4 5 6 
#
# 1 83.6519 63.5188 36.2058 0.0000 2.3544 0.0000
# 2 63.5188 125.1549 53.9145 0.0000 -1.0781 0.0000
# 3 36.2058 53.9145 78.3241 0.0000 -1.4147 0.0000
# 4 0.0000 0.0000 0.0000 32.2036 0.0000 -0.9477
# 5 2.3544 -1.0781 -1.4147 0.0000 25.0359 0.0000
# 6 0.0000 0.0000 0.0000 -0.9477 0.0000 26.7485
#
#
#
# Elastic Compliance Matrix: (Units=1/GPa)
#
#
# Indices 1 2 3 4 5 6 
#
# 1 0.020152 -0.008837 -0.003277 0.000000 -0.002461 0.000000
# 2 -0.008837 0.015234 -0.006381 0.000000 0.001127 0.000000
# 3 -0.003277 -0.006381 0.018694 0.000000 0.001090 0.000000
# 4 0.000000 0.000000 0.000000 0.031085 0.000000 0.001101
# 5 -0.002461 0.001127 0.001090 0.000000 0.040284 0.000000
# 6 0.000000 0.000000 0.000000 0.001101 0.000000 0.037424
#
#
# Mechanical properties :
#
#
# Convention : Reuss Voigt Hill
#
# Bulk Modulus (GPa) = 58.51245 66.04544 62.27895
# Shear Modulus (GPa) = 24.32392 25.69705 25.01049
#
# Velocity S-wave (km/s) = 3.67463 3.77693 3.72613
# Velocity P-wave (km/s) = 7.10534 7.46217 7.28594
#
# Compressibility (1/GPa) = 0.01709038
#
# Stress axis : x y z
#
# Youngs Moduli (GPa) = 49.62256 65.64448 53.49326
#
# Poissons Ratio (x) = 0.58012 0.17528
# Poissons Ratio (y) = 0.43853 0.34132
# Poissons Ratio (z) = 0.16260 0.41885
#
# Static dielectric constant tensor:
#      x y z
#    x 1.682280 0.000000 -0.037040 
#    y 0.000000 1.628040 0.000000 
#    z -0.037040 0.000000 1.652870 
# 
# From -- ./inp_files/119472.got.cif
#   From: 2010.05.17/outbox.cif.g08.bks.cpg/sg15_60_cif.got.tgz:119472.got - 2010.06.03 18:47:42.
