data_PCOD9268557
_publ_section_title
;
Structure prediction by ZEFSAII (Michael W. Deem and Ramdas Pophale) SiO2 
 PCOD9268557
Probable space group: C 2/C
;
_chemical_formula_sum "Si O2"
_cell_formula_units_Z 48
_cell_length_a 10.039042
_cell_length_b 22.502641
_cell_length_c 7.880158
_cell_angle_alpha 90.000000
_cell_angle_beta 93.598821
_cell_angle_gamma 90.000000
_cell_volume 1776.656310
_symmetry_space_group_name_H-M "C 2/C"
_symmetry_group_IT_number 15
_symmetry_cell_setting 'monoclinic'
loop_
_space_group_symop_operation_xyz
x,y,z
-x,y,1/2-z
-x,-y,-z
x,-y,1/2+z
1/2+x,1/2+y,z
1/2-x,1/2+y,1/2-z
1/2-x,1/2-y,-z
1/2+x,1/2-y,1/2+z
loop_
_atom_site_type_symbol
_atom_site_label
_atom_site_fract_x
_atom_site_fract_y
_atom_site_fract_z
Si Si1 0.289780 0.990900 0.350794
Si Si2 0.279656 0.609940 0.435488
Si Si3 0.500000 0.196236 0.750000
Si Si4 0.500000 0.452522 0.750000
Si Si5 0.759337 0.268904 0.697699
Si Si6 0.361539 0.096461 0.551988
Si Si7 0.639276 0.657348 0.702990
O O1 0.293393 0.950962 0.523156
O O2 0.350863 0.948961 0.211620
O O3 0.365383 0.052246 0.394961
O O4 0.129996 0.007791 0.315953
O O5 0.426644 0.590040 0.381353
O O6 0.226376 0.660569 0.305015
O O7 0.279783 0.640877 0.620339
O O8 0.622625 0.241391 0.756241
O O9 0.466616 0.149062 0.595356
O O10 0.750000 0.250000 0.500000
O O11 0.865421 0.228650 0.806815
O O12 0.216293 0.128506 0.554714
O O13 0.500000 0.632172 0.750000
#
# Coordination Sequence:
#
# PCOD9268557 Si02
#       7
#     8   8   4   4   8   8   8
#     4  11  22  37  57  92 124 162 204 252 320 372
#     4  10  20  32  55  82 121 152 201 255 307 366
#     4  10  21  42  66  88 122 173 212 254 308 374
#     4  12  21  32  56  90 122 159 198 264 316 372
#     4   9  19  38  60  86 116 165 209 254 308 369
#     4  10  22  37  61  90 125 165 206 254 304 378
#     4   9  18  34  59  85 116 159 203 255 313 370
#
# _framework density 27.017042
#
# number of rings (size 3 to 8) (size 9 to 14) (size 15 to 20)
#    0.000    2.000    1.667    3.000    4.667    0.667 
#    0.000    3.333    1.833   12.000    0.000    0.000 
#    0.000    0.000    0.000    0.000    0.000    0.000 
#
# Total GULP energy -133891.711455 kJ/mol
# GULP energy per Si atom -5578.821311 kJ/mol
# Density = 2.695555 g / cm^3
# Si number density = 27.017042 Si / 1000 Ang^3
#
#
#
# Elastic Constant Matrix: (Units=GPa)
#
#
# Indices 1 2 3 4 5 6 
#
# 1 76.0993 8.1584 -18.4616 0.0000 2.4369 0.0000
# 2 8.1584 170.9162 29.0886 0.0000 9.0707 0.0000
# 3 -18.4616 29.0886 81.6122 0.0000 -10.9550 0.0000
# 4 0.0000 0.0000 0.0000 21.5919 0.0000 -8.6548
# 5 2.4369 9.0707 -10.9550 0.0000 15.9743 0.0000
# 6 0.0000 0.0000 0.0000 -8.6548 0.0000 11.4128
#
#
#
# Elastic Compliance Matrix: (Units=1/GPa)
#
#
# Indices 1 2 3 4 5 6 
#
# 1 0.014193 -0.001408 0.003887 0.000000 0.001300 0.000000
# 2 -0.001408 0.006854 -0.003585 0.000000 -0.006136 0.000000
# 3 0.003887 -0.003585 0.016084 0.000000 0.012473 0.000000
# 4 0.000000 0.000000 0.000000 0.066540 0.000000 0.050459
# 5 0.001300 -0.006136 0.012473 0.000000 0.074440 0.000000
# 6 0.000000 0.000000 0.000000 0.050459 0.000000 0.125886
#
#
# Mechanical properties :
#
#
# Convention : Reuss Voigt Hill
#
# Bulk Modulus (GPa) = 28.63747 40.68870 34.66309
# Shear Modulus (GPa) = 15.73074 30.45195 23.09134
#
# Velocity S-wave (km/s) = 2.41561 3.36093 2.92669
# Velocity P-wave (km/s) = 4.28987 5.49129 4.92733
#
# Compressibility (1/GPa) = 0.03491929
#
# Stress axis : x y z
#
# Youngs Moduli (GPa) = 70.45712 145.90486 62.17187
#
# Poissons Ratio (x) = 0.20543 -0.24166
# Poissons Ratio (y) = 0.09920 0.22288
# Poissons Ratio (z) = -0.27387 0.52306
#
# Static dielectric constant tensor:
#      x y z
#    x 2.210460 0.000000 0.049850 
#    y 0.000000 2.340220 0.000000 
#    z 0.049850 0.000000 2.145370 
# 
# From -- ./inp_files/32090.got.cif
#   From: 2010.05.17/outbox.cif.g08.bks.cpg/sg15_17_cif.got.tgz:32090.got - 2010.06.03 18:47:42.
