data_PCOD9268411
_publ_section_title
;
Structure prediction by ZEFSAII (Michael W. Deem and Ramdas Pophale) SiO2 
 PCOD9268411
Probable space group: C 2/C
;
_chemical_formula_sum "Si O2"
_cell_formula_units_Z 56
_cell_length_a 25.397686
_cell_length_b 15.707314
_cell_length_c 20.794176
_cell_angle_alpha 90.000000
_cell_angle_beta 20.314902
_cell_angle_gamma 90.000000
_cell_volume 2879.996481
_symmetry_space_group_name_H-M "C 2/C"
_symmetry_group_IT_number 15
_symmetry_cell_setting 'monoclinic'
loop_
_space_group_symop_operation_xyz
x,y,z
-x,y,1/2-z
-x,-y,-z
x,-y,1/2+z
1/2+x,1/2+y,z
1/2-x,1/2+y,1/2-z
1/2-x,1/2-y,-z
1/2+x,1/2-y,1/2+z
loop_
_atom_site_type_symbol
_atom_site_label
_atom_site_fract_x
_atom_site_fract_y
_atom_site_fract_z
Si Si1 0.893598 0.347424 0.931813
Si Si2 0.546532 0.744752 0.975496
Si Si3 0.878740 0.475043 0.056088
Si Si4 0.612222 0.424443 0.894770
Si Si5 0.742461 0.032382 0.139867
Si Si6 0.161514 0.707744 0.206506
Si Si7 0.269578 0.139135 0.801279
O O1 0.000000 0.365629 0.750000
O O2 0.995088 0.295002 0.866908
O O3 0.850006 0.431458 0.020471
O O4 0.753753 0.287686 0.075624
O O5 0.642548 0.784029 0.805749
O O6 0.646658 0.706842 0.918139
O O7 0.459515 0.664470 0.042952
O O8 0.423004 0.811531 0.141595
O O9 0.779980 0.560187 0.172823
O O10 0.807120 0.414638 0.193086
O O11 0.058902 0.477072 0.862512
O O12 0.646201 0.436974 0.930955
O O13 0.500000 0.500000 0.000000
O O14 0.737938 0.116642 0.100649
O O15 0.781681 0.932121 0.088116
#
# Coordination Sequence:
#
# PCOD9268411 Si02
#       7
#     8   8   8   8   8   8   8
#     4  11  21  35  52  72  96 132 182 210 239 281
#     4  12  20  30  48  70 101 131 167 194 241 297
#     4  10  20  33  46  67 100 134 165 202 246 286
#     4  11  18  29  45  68  96 129 166 197 233 297
#     4  10  20  32  46  66 100 135 161 192 250 299
#     4  11  20  35  50  70 102 138 163 208 247 286
#     4  11  20  31  45  72  97 133 165 192 238 303
#
# _framework density 19.444469000000002
#
# number of rings (size 3 to 8) (size 9 to 14) (size 15 to 20)
#    0.000    1.143    7.143    3.857    2.000    0.000 
#    0.000    0.000    0.000    0.000    0.000    0.000 
#    0.000    5.714    0.000    0.000    0.000    0.000 
#
# Total GULP energy -156041.889962 kJ/mol
# GULP energy per Si atom -5572.924642 kJ/mol
# Density = 1.940021 g / cm^3
# Si number density = 19.444469 Si / 1000 Ang^3
#
#
#
# Elastic Constant Matrix: (Units=GPa)
#
#
# Indices 1 2 3 4 5 6 
#
# 1 20.1689 8.9338 7.8297 0.0009 -8.0645 -0.0005
# 2 8.9338 82.8635 9.2872 0.0014 -2.4621 -0.0007
# 3 7.8297 9.2872 29.5181 0.0044 -16.3028 -0.0015
# 4 0.0009 0.0014 0.0044 37.9055 -0.0013 -19.4223
# 5 -8.0645 -2.4621 -16.3028 -0.0013 28.0704 0.0006
# 6 -0.0005 -0.0007 -0.0015 -19.4223 0.0006 19.5154
#
#
#
# Elastic Compliance Matrix: (Units=1/GPa)
#
#
# Indices 1 2 3 4 5 6 
#
# 1 0.059724 -0.005249 -0.007314 0.000001 0.012450 0.000001
# 2 -0.005249 0.013029 -0.004282 0.000000 -0.002852 0.000000
# 3 -0.007314 -0.004282 0.052702 -0.000007 0.028132 -0.000004
# 4 0.000001 0.000000 -0.000007 0.053833 -0.000002 0.053577
# 5 0.012450 -0.002852 0.028132 -0.000002 0.055290 -0.000002
# 6 0.000001 0.000000 -0.000004 0.053577 -0.000002 0.104563
#
#
# Mechanical properties :
#
#
# Convention : Reuss Voigt Hill
#
# Bulk Modulus (GPa) = 10.89756 20.51688 15.70722
# Shear Modulus (GPa) = 12.39400 24.19823 18.29611
#
# Velocity S-wave (km/s) = 2.52743 3.53154 3.07081
# Velocity P-wave (km/s) = 3.75949 5.21570 4.54628
#
# Compressibility (1/GPa) = 0.09176368
#
# Stress axis : x y z
#
# Youngs Moduli (GPa) = 16.74363 76.75061 18.97460
#
# Poissons Ratio (x) = 0.40290 0.13878
# Poissons Ratio (y) = 0.08789 0.08126
# Poissons Ratio (z) = 0.12246 0.32867
#
# Static dielectric constant tensor:
#      x y z
#    x 1.708100 0.000000 -0.025250 
#    y 0.000000 1.746130 0.000000 
#    z -0.025250 0.000000 1.701420 
# 
# From -- ./inp_files/62421.got.cif
#   From: 2010.05.17/outbox.cif.g08.bks.cpg/sg15_32_cif.got.tgz:62421.got - 2010.06.03 18:47:42.
