data_PCOD9268792
_publ_section_title
;
Structure prediction by ZEFSAII (Michael W. Deem and Ramdas Pophale) SiO2 
 PCOD9268792
Probable space group: C 2/C
;
_chemical_formula_sum "Si O2"
_cell_formula_units_Z 40
_cell_length_a 10.796061
_cell_length_b 16.490164
_cell_length_c 9.235852
_cell_angle_alpha 90.000000
_cell_angle_beta 107.912411
_cell_angle_gamma 90.000000
_cell_volume 1564.547499
_symmetry_space_group_name_H-M "C 2/C"
_symmetry_group_IT_number 15
_symmetry_cell_setting 'monoclinic'
loop_
_space_group_symop_operation_xyz
x,y,z
-x,y,1/2-z
-x,-y,-z
x,-y,1/2+z
1/2+x,1/2+y,z
1/2-x,1/2+y,1/2-z
1/2-x,1/2-y,-z
1/2+x,1/2-y,1/2+z
loop_
_atom_site_type_symbol
_atom_site_label
_atom_site_fract_x
_atom_site_fract_y
_atom_site_fract_z
Si Si1 0.713954 0.936215 0.824141
Si Si2 0.337348 0.348541 0.437657
Si Si3 0.883202 0.000798 0.128380
Si Si4 0.597494 0.176353 0.080666
Si Si5 0.394051 0.104833 0.819824
O O1 0.827307 0.950488 0.746241
O O2 0.647534 0.852778 0.754702
O O3 0.625580 0.013417 0.745808
O O4 0.773736 0.949759 0.004037
O O5 0.411469 0.428473 0.520019
O O6 0.428009 0.271228 0.449220
O O7 0.222183 0.337610 0.517567
O O8 0.247507 0.358175 0.262627
O O9 0.000000 0.954434 0.250000
O O10 0.475209 0.119721 0.994135
O O11 0.500000 0.145947 0.750000
#
# Coordination Sequence:
#
# PCOD9268792 Si02
#       5
#     8   8   8   8   8
#     4  10  20  33  52  81 110 140 185 223 265 328
#     4   8  17  29  46  75 104 135 180 217 258 318
#     4  10  20  35  54  78 110 144 178 225 273 317
#     4   9  16  28  48  74 105 139 172 218 267 308
#     4   9  17  31  50  75 109 141 172 220 270 316
#
# _framework density 25.566496999999998
#
# number of rings (size 3 to 8) (size 9 to 14) (size 15 to 20)
#    0.000    2.800    0.000    2.400    0.000    5.600 
#    0.000    0.000    0.000    4.800    0.000   16.800 
#    0.000    0.000    0.000    0.000    0.000    0.000 
#
# Total GULP energy -111477.728456 kJ/mol
# GULP energy per Si atom -5573.886423 kJ/mol
# Density = 2.550831 g / cm^3
# Si number density = 25.566497 Si / 1000 Ang^3
#
#
#
# Elastic Constant Matrix: (Units=GPa)
#
#
# Indices 1 2 3 4 5 6 
#
# 1 34.0679 12.7934 52.2027 0.0000 16.0019 0.0000
# 2 12.7934 97.5609 61.7675 0.0000 29.7383 0.0000
# 3 52.2027 61.7675 182.2299 0.0000 24.7791 0.0000
# 4 0.0000 0.0000 0.0000 18.0682 0.0000 -3.6012
# 5 16.0019 29.7383 24.7791 0.0000 47.7284 0.0000
# 6 0.0000 0.0000 0.0000 -3.6012 0.0000 20.9027
#
#
#
# Elastic Compliance Matrix: (Units=1/GPa)
#
#
# Indices 1 2 3 4 5 6 
#
# 1 0.062284 0.008620 -0.018500 0.000000 -0.016648 0.000000
# 2 0.008620 0.016263 -0.006683 0.000000 -0.009553 0.000000
# 3 -0.018500 -0.006683 0.012527 0.000000 0.003863 0.000000
# 4 0.000000 0.000000 0.000000 0.057314 0.000000 0.009874
# 5 -0.016648 -0.009553 0.003863 0.000000 0.030481 0.000000
# 6 0.000000 0.000000 0.000000 0.009874 0.000000 0.049542
#
#
# Mechanical properties :
#
#
# Convention : Reuss Voigt Hill
#
# Bulk Modulus (GPa) = 17.25686 63.04288 40.14987
# Shear Modulus (GPa) = 17.80301 29.81287 23.80794
#
# Velocity S-wave (km/s) = 2.64169 3.41851 3.05489
# Velocity P-wave (km/s) = 4.00863 6.34772 5.30861
#
# Compressibility (1/GPa) = 0.05794798
#
# Stress axis : x y z
#
# Youngs Moduli (GPa) = 16.05552 61.49104 79.82693
#
# Poissons Ratio (x) = -0.53005 1.47682
# Poissons Ratio (y) = -0.13840 0.53345
# Poissons Ratio (z) = 0.29703 0.41092
#
# Static dielectric constant tensor:
#      x y z
#    x 2.194540 0.000000 -0.020950 
#    y 0.000000 2.001250 0.000000 
#    z -0.020950 0.000000 2.064190 
# 
# From -- ./inp_files/97962.got.cif
#   From: 2010.05.17/outbox.cif.g08.bks.cpg/sg15_49_cif.got.tgz:97962.got - 2010.06.03 18:47:42.
