data_PCOD9268391
_publ_section_title
;
Structure prediction by ZEFSAII (Michael W. Deem and Ramdas Pophale) SiO2 
 PCOD9268391
Probable space group: C 2/C
;
_chemical_formula_sum "Si O2"
_cell_formula_units_Z 56
_cell_length_a 8.619642
_cell_length_b 14.116248
_cell_length_c 27.519201
_cell_angle_alpha 90.000000
_cell_angle_beta 43.018078
_cell_angle_gamma 90.000000
_cell_volume 2284.412658
_symmetry_space_group_name_H-M "C 2/C"
_symmetry_group_IT_number 15
_symmetry_cell_setting 'monoclinic'
loop_
_space_group_symop_operation_xyz
x,y,z
-x,y,1/2-z
-x,-y,-z
x,-y,1/2+z
1/2+x,1/2+y,z
1/2-x,1/2+y,1/2-z
1/2-x,1/2-y,-z
1/2+x,1/2-y,1/2+z
loop_
_atom_site_type_symbol
_atom_site_label
_atom_site_fract_x
_atom_site_fract_y
_atom_site_fract_z
Si Si1 0.201748 0.347054 0.668300
Si Si2 0.690065 0.655793 0.097310
Si Si3 0.554047 0.083354 0.950536
Si Si4 0.425256 0.162808 0.817263
Si Si5 0.057710 0.867899 0.076683
Si Si6 0.745518 0.378190 0.186682
Si Si7 0.064765 0.640166 0.087208
O O1 0.453205 0.382532 0.628515
O O2 0.212947 0.230856 0.674035
O O3 0.124183 0.370332 0.630611
O O4 0.000000 0.380308 0.750000
O O5 0.626364 0.758757 0.130864
O O6 0.827189 0.612065 0.113161
O O7 0.878540 0.660684 0.011355
O O8 0.814813 0.102637 0.903915
O O9 0.559762 0.076767 0.892092
O O10 0.500000 0.000000 0.000000
O O11 0.500000 0.210434 0.750000
O O12 0.649208 0.113754 0.784253
O O13 0.200831 0.100332 0.865916
O O14 0.055153 0.753818 0.080572
O O15 0.220570 0.895425 0.994364
O O16 0.500000 0.422609 0.250000
#
# Coordination Sequence:
#
# PCOD9268391 Si02
#       7
#     8   8   8   8   8   8   8
#     4  10  20  31  57  89 118 146 176 239 305 354
#     4   9  22  33  55  88 112 148 190 231 291 352
#     4  11  22  40  59  78 113 162 201 235 274 331
#     4  10  20  32  59  90 117 145 174 243 312 346
#     4   9  18  33  52  80 108 145 188 230 283 345
#     4  10  21  35  58  88 116 145 190 233 291 357
#     4   9  17  32  53  79 116 140 177 240 300 336
#
# _framework density 24.513959
#
# number of rings (size 3 to 8) (size 9 to 14) (size 15 to 20)
#    0.000    2.286    1.429    1.714   12.000    1.143 
#    0.000    1.429    0.000    0.857    0.000    0.000 
#    0.000    0.000    0.000    0.000    0.000    0.000 
#
# Total GULP energy -155945.737953 kJ/mol
# GULP energy per Si atom -5569.490641 kJ/mol
# Density = 2.445816 g / cm^3
# Si number density = 24.513959 Si / 1000 Ang^3
#
#
#
# Elastic Constant Matrix: (Units=GPa)
#
#
# Indices 1 2 3 4 5 6 
#
# 1 187.5696 1.8817 74.7107 -0.0001 -18.7730 -0.0002
# 2 1.8817 26.6012 2.6098 0.0001 2.6563 -0.0001
# 3 74.7107 2.6098 138.3611 0.0001 -1.2519 0.0000
# 4 -0.0001 0.0001 0.0001 13.1043 0.0000 3.1387
# 5 -18.7730 2.6563 -1.2519 0.0000 54.0881 0.0002
# 6 -0.0002 -0.0001 0.0000 3.1387 0.0002 13.7895
#
#
#
# Elastic Compliance Matrix: (Units=1/GPa)
#
#
# Indices 1 2 3 4 5 6 
#
# 1 0.007087 -0.000367 -0.003798 0.000000 0.002390 0.000000
# 2 -0.000367 0.037870 -0.000534 0.000000 -0.002000 0.000000
# 3 -0.003798 -0.000534 0.009279 0.000000 -0.001077 0.000000
# 4 0.000000 0.000000 0.000000 0.080711 0.000000 -0.018371
# 5 0.002390 -0.002000 -0.001077 0.000000 0.019391 0.000000
# 6 0.000000 0.000000 0.000000 -0.018371 0.000000 0.076700
#
#
# Mechanical properties :
#
#
# Convention : Reuss Voigt Hill
#
# Bulk Modulus (GPa) = 22.30307 56.77069 39.53688
# Shear Modulus (GPa) = 19.57841 34.41838 26.99840
#
# Velocity S-wave (km/s) = 2.82913 3.75111 3.32226
# Velocity P-wave (km/s) = 4.44858 6.47841 5.55696
#
# Compressibility (1/GPa) = 0.04483687
#
# Stress axis : x y z
#
# Youngs Moduli (GPa) = 141.10100 26.40589 107.77325
#
# Poissons Ratio (x) = 0.00970 0.40935
# Poissons Ratio (y) = 0.05183 0.05756
# Poissons Ratio (z) = 0.53594 0.01410
#
# Static dielectric constant tensor:
#      x y z
#    x 2.093310 0.000000 -0.086710 
#    y 0.000000 2.089000 0.000000 
#    z -0.086710 0.000000 1.986840 
# 
# From -- ./inp_files/190932.got.cif
#   From: 2010.05.17/outbox.cif.g08.bks.cpg/sg15_96_cif.got.tgz:190932.got - 2010.06.03 18:47:42.
