data_PCOD9268068
_publ_section_title
;
Structure prediction by ZEFSAII (Michael W. Deem and Ramdas Pophale) SiO2 
 PCOD9268068
Probable space group: C 2/C
;
_chemical_formula_sum "Si O2"
_cell_formula_units_Z 48
_cell_length_a 13.128721
_cell_length_b 6.672379
_cell_length_c 22.365014
_cell_angle_alpha 90.000000
_cell_angle_beta 70.161221
_cell_angle_gamma 90.000000
_cell_volume 1842.896542
_symmetry_space_group_name_H-M "C 2/C"
_symmetry_group_IT_number 15
_symmetry_cell_setting 'monoclinic'
loop_
_space_group_symop_operation_xyz
x,y,z
-x,y,1/2-z
-x,-y,-z
x,-y,1/2+z
1/2+x,1/2+y,z
1/2-x,1/2+y,1/2-z
1/2-x,1/2-y,-z
1/2+x,1/2-y,1/2+z
loop_
_atom_site_type_symbol
_atom_site_label
_atom_site_fract_x
_atom_site_fract_y
_atom_site_fract_z
Si Si1 0.143815 0.023519 0.330540
Si Si2 0.041885 0.603672 0.127239
Si Si3 0.547034 0.525861 0.056197
Si Si4 0.842892 0.191369 0.791051
Si Si5 0.818103 0.606368 0.121732
Si Si6 0.212175 0.514354 0.002592
O O1 0.107754 0.914537 0.276709
O O2 0.189394 0.845067 0.364621
O O3 0.044818 0.128605 0.384795
O O4 0.239053 0.174204 0.294390
O O5 0.045393 0.809871 0.088469
O O6 0.084608 0.661854 0.183664
O O7 0.917207 0.542853 0.145455
O O8 0.131362 0.477168 0.073629
O O9 0.670700 0.591696 0.023759
O O10 0.500000 0.500000 0.000000
O O11 0.791599 0.011993 0.840927
O O12 0.845137 0.536353 0.048995
O O13 0.250000 0.750000 0.000000
#
# Coordination Sequence:
#
# PCOD9268068 Si02
#       6
#     8   8   8   8   8   8
#     4  11  26  44  73 105 139 194 242 300 369 445
#     4  10  23  42  74 103 142 189 234 298 367 435
#     4  10  21  39  67 102 140 182 235 293 362 424
#     4  12  23  49  73 100 151 183 245 307 362 438
#     4  11  23  45  70 104 142 190 237 293 369 435
#     4  10  19  41  70  99 140 189 226 295 366 416
#
# _framework density 26.045957000000001
#
# number of rings (size 3 to 8) (size 9 to 14) (size 15 to 20)
#    0.000    1.333    5.000    1.500    2.333    2.667 
#    3.000    4.167    0.000    0.000    0.000    0.000 
#    0.000    0.000    0.000    0.000    0.000    0.000 
#
# Total GULP energy -134282.627398 kJ/mol
# GULP energy per Si atom -5595.109475 kJ/mol
# Density = 2.598668 g / cm^3
# Si number density = 26.045957 Si / 1000 Ang^3
#
#
#
# Elastic Constant Matrix: (Units=GPa)
#
#
# Indices 1 2 3 4 5 6 
#
# 1 135.6315 -9.4566 47.6566 0.0000 -4.3682 0.0000
# 2 -9.4566 77.7821 -10.0971 0.0000 -9.0936 0.0000
# 3 47.6566 -10.0971 166.4529 0.0000 -3.2337 0.0000
# 4 0.0000 0.0000 0.0000 40.0361 0.0000 1.0450
# 5 -4.3682 -9.0936 -3.2337 0.0000 55.0575 0.0000
# 6 0.0000 0.0000 0.0000 1.0450 0.0000 40.0805
#
#
#
# Elastic Compliance Matrix: (Units=1/GPa)
#
#
# Indices 1 2 3 4 5 6 
#
# 1 0.008258 0.000781 -0.002304 0.000000 0.000649 0.000000
# 2 0.000781 0.013301 0.000628 0.000000 0.002296 0.000000
# 3 -0.002304 0.000628 0.006712 0.000000 0.000315 0.000000
# 4 0.000000 0.000000 0.000000 0.024994 0.000000 -0.000652
# 5 0.000649 0.002296 0.000315 0.000000 0.018612 0.000000
# 6 0.000000 0.000000 0.000000 -0.000652 0.000000 0.024967
#
#
# Mechanical properties :
#
#
# Convention : Reuss Voigt Hill
#
# Bulk Modulus (GPa) = 37.76515 48.45247 43.10881
# Shear Modulus (GPa) = 46.52812 50.48573 48.50693
#
# Velocity S-wave (km/s) = 4.23115 4.40743 4.32019
# Velocity P-wave (km/s) = 6.19686 6.67410 6.43990
#
# Compressibility (1/GPa) = 0.02647944
#
# Stress axis : x y z
#
# Youngs Moduli (GPa) = 121.09593 75.18092 148.99437
#
# Poissons Ratio (x) = -0.05869 0.34333
# Poissons Ratio (y) = -0.09454 -0.09356
# Poissons Ratio (z) = 0.27905 -0.04721
#
# Static dielectric constant tensor:
#      x y z
#    x 2.105770 0.000000 -0.054080 
#    y 0.000000 2.207690 0.000000 
#    z -0.054080 0.000000 2.130880 
# 
# From -- ./inp_files/267671.got.cif
#   From: 2010.05.17/outbox.cif.g08.bks.cpg/sg15_134_cif.got.tgz:267671.got - 2010.06.03 18:47:42.
