data_PCOD9268677
_publ_section_title
;
Structure prediction by ZEFSAII (Michael W. Deem and Ramdas Pophale) SiO2 
 PCOD9268677
Probable space group: C 2/C
;
_chemical_formula_sum "Si O2"
_cell_formula_units_Z 56
_cell_length_a 16.266305
_cell_length_b 21.872336
_cell_length_c 19.276402
_cell_angle_alpha 90.000000
_cell_angle_beta 24.817902
_cell_angle_gamma 90.000000
_cell_volume 2878.630746
_symmetry_space_group_name_H-M "C 2/C"
_symmetry_group_IT_number 15
_symmetry_cell_setting 'monoclinic'
loop_
_space_group_symop_operation_xyz
x,y,z
-x,y,1/2-z
-x,-y,-z
x,-y,1/2+z
1/2+x,1/2+y,z
1/2-x,1/2+y,1/2-z
1/2-x,1/2-y,-z
1/2+x,1/2-y,1/2+z
loop_
_atom_site_type_symbol
_atom_site_label
_atom_site_fract_x
_atom_site_fract_y
_atom_site_fract_z
Si Si1 0.044804 0.340911 0.056954
Si Si2 0.078559 0.118075 0.460625
Si Si3 0.113002 0.160189 0.103741
Si Si4 0.076561 0.952256 0.817622
Si Si5 0.317845 0.047648 0.693797
Si Si6 0.317578 0.023016 0.339330
Si Si7 0.654848 0.281676 0.419597
O O1 0.984542 0.401284 0.061344
O O2 0.850860 0.307921 0.235238
O O3 0.179172 0.355099 0.020741
O O4 0.145371 0.291037 0.930468
O O5 0.107603 0.084746 0.364891
O O6 0.254508 0.093220 0.372706
O O7 0.880924 0.086669 0.641313
O O8 0.025197 0.187789 0.485012
O O9 0.000000 0.198500 0.250000
O O10 0.975378 0.100905 0.196441
O O11 0.141921 0.193710 0.008763
O O12 0.254527 0.001308 0.680806
O O13 0.873199 0.989563 0.982391
O O14 0.354012 0.010589 0.737650
O O15 0.500000 0.017354 0.250000
#
# Coordination Sequence:
#
# PCOD9268677 Si02
#       7
#     8   8   8   8   8   8   8
#     4  11  20  32  50  70  92 127 164 195 230 275
#     4   7  14  26  41  63  92 120 150 191 236 271
#     4  11  21  32  46  69  99 128 155 191 234 280
#     4   8  15  28  43  62  94 125 151 189 234 281
#     4   8  15  27  44  67  91 120 154 188 234 281
#     4   9  13  22  44  72  92 112 150 199 236 274
#     4  10  20  33  47  67  96 128 161 195 227 274
#
# _framework density 19.453693999999999
#
# number of rings (size 3 to 8) (size 9 to 14) (size 15 to 20)
#    0.000    2.857    0.000    5.143    0.000    0.000 
#    0.000    0.714    0.000    1.714    0.000   10.000 
#    0.000    0.000    0.000    0.000    0.000    0.000 
#
# Total GULP energy -156067.002613 kJ/mol
# GULP energy per Si atom -5573.821522 kJ/mol
# Density = 1.940942 g / cm^3
# Si number density = 19.453694 Si / 1000 Ang^3
#
#
#
# Elastic Constant Matrix: (Units=GPa)
#
#
# Indices 1 2 3 4 5 6 
#
# 1 49.5717 35.8323 28.1386 0.0038 -21.2577 0.0036
# 2 35.8323 113.8101 36.8510 0.0135 -22.0584 0.0189
# 3 28.1386 36.8510 55.6899 -0.0193 -13.0759 0.0057
# 4 0.0038 0.0135 -0.0193 31.6432 0.0163 -1.4908
# 5 -21.2577 -22.0584 -13.0759 0.0163 38.0033 -0.0049
# 6 0.0036 0.0189 0.0057 -1.4908 -0.0049 24.1326
#
#
#
# Elastic Compliance Matrix: (Units=1/GPa)
#
#
# Indices 1 2 3 4 5 6 
#
# 1 0.036211 -0.004980 -0.011884 -0.000016 0.013276 0.000003
# 2 -0.004980 0.012550 -0.005148 -0.000010 0.002728 -0.000008
# 3 -0.011884 -0.005148 0.027312 0.000020 -0.000238 0.000001
# 4 -0.000016 -0.000010 0.000020 0.031695 -0.000021 0.001958
# 5 0.013276 0.002728 -0.000238 -0.000021 0.035241 0.000002
# 6 0.000003 -0.000008 0.000001 0.001958 0.000002 0.041559
#
#
# Mechanical properties :
#
#
# Convention : Reuss Voigt Hill
#
# Bulk Modulus (GPa) = 31.20201 46.74620 38.97410
# Shear Modulus (GPa) = 20.89652 26.63913 23.76782
#
# Velocity S-wave (km/s) = 3.28100 3.70450 3.49917
# Velocity P-wave (km/s) = 5.51609 6.50995 6.03352
#
# Compressibility (1/GPa) = 0.03204922
#
# Stress axis : x y z
#
# Youngs Moduli (GPa) = 27.61569 79.68166 36.61406
#
# Poissons Ratio (x) = 0.39679 0.43513
# Poissons Ratio (y) = 0.13752 0.18849
# Poissons Ratio (z) = 0.32819 0.41020
#
# Static dielectric constant tensor:
#      x y z
#    x 1.661460 0.000030 -0.008370 
#    y 0.000030 1.748240 0.000050 
#    z -0.008370 0.000050 1.758890 
# 
# From -- ./inp_files/278204.got.cif
#   From: 2010.05.17/outbox.cif.g08.bks.cpg/sg15_140_cif.got.tgz:278204.got - 2010.06.03 18:47:42.
