data_PCOD9268989
_publ_section_title
;
Structure prediction by ZEFSAII (Michael W. Deem and Ramdas Pophale) SiO2 
 PCOD9268989
Probable space group: C 2/C
;
_chemical_formula_sum "Si O2"
_cell_formula_units_Z 48
_cell_length_a 10.398061
_cell_length_b 18.659806
_cell_length_c 13.184840
_cell_angle_alpha 90.000000
_cell_angle_beta 133.812160
_cell_angle_gamma 90.000000
_cell_volume 1846.030569
_symmetry_space_group_name_H-M "C 2/C"
_symmetry_group_IT_number 15
_symmetry_cell_setting 'monoclinic'
loop_
_space_group_symop_operation_xyz
x,y,z
-x,y,1/2-z
-x,-y,-z
x,-y,1/2+z
1/2+x,1/2+y,z
1/2-x,1/2+y,1/2-z
1/2-x,1/2-y,-z
1/2+x,1/2-y,1/2+z
loop_
_atom_site_type_symbol
_atom_site_label
_atom_site_fract_x
_atom_site_fract_y
_atom_site_fract_z
Si Si1 0.727553 0.474549 0.009487
Si Si2 0.669988 0.329313 0.600944
Si Si3 0.123395 0.667912 0.601952
Si Si4 0.760168 0.152406 0.143363
Si Si5 0.096948 0.919108 0.155130
Si Si6 0.000000 0.280275 0.250000
Si Si7 0.500000 0.066018 0.250000
O O1 0.696848 0.447686 0.108974
O O2 0.920324 0.513694 0.119043
O O3 0.725183 0.412547 0.925376
O O4 0.555790 0.525104 0.899133
O O5 0.706798 0.244963 0.620736
O O6 0.624895 0.353407 0.691341
O O7 0.507657 0.348047 0.439021
O O8 0.832797 0.381139 0.667264
O O9 0.265033 0.604706 0.683793
O O10 0.045844 0.675830 0.674606
O O11 0.947325 0.657494 0.439857
O O12 0.831884 0.227785 0.140511
#
# Coordination Sequence:
#
# PCOD9268989 Si02
#       7
#     8   8   8   8   8   4   4
#     4  10  20  37  59  84 114 157 197 231 288 350
#     4  10  22  39  59  85 117 153 192 245 296 340
#     4  11  20  36  60  90 118 151 197 237 287 347
#     4  11  21  35  60  91 117 146 197 250 283 335
#     4  10  21  38  60  84 122 160 187 233 295 352
#     4  10  20  33  58  89 122 152 182 246 304 330
#     4  10  22  41  60  79 118 164 190 230 300 362
#
# _framework density 26.001736000000001
#
# number of rings (size 3 to 8) (size 9 to 14) (size 15 to 20)
#    0.000    1.667    0.000    6.500    0.000    0.667 
#    0.000   10.833    0.000    0.000    0.000    0.000 
#    0.000    0.000    0.000    0.000    0.000    0.000 
#
# Total GULP energy -134410.569018 kJ/mol
# GULP energy per Si atom -5600.440376 kJ/mol
# Density = 2.594255 g / cm^3
# Si number density = 26.001736 Si / 1000 Ang^3
#
#
#
# Elastic Constant Matrix: (Units=GPa)
#
#
# Indices 1 2 3 4 5 6 
#
# 1 36.2598 13.6974 3.3248 0.0000 2.5712 0.0000
# 2 13.6974 90.8175 27.4748 0.0000 13.3639 0.0000
# 3 3.3248 27.4748 118.6189 0.0000 24.3415 0.0000
# 4 0.0000 0.0000 0.0000 47.1207 0.0000 8.1294
# 5 2.5712 13.3639 24.3415 0.0000 36.0595 0.0000
# 6 0.0000 0.0000 0.0000 8.1294 0.0000 33.3464
#
#
#
# Elastic Compliance Matrix: (Units=1/GPa)
#
#
# Indices 1 2 3 4 5 6 
#
# 1 0.029264 -0.004417 0.000343 0.000000 -0.000681 0.000000
# 2 -0.004417 0.012783 -0.002240 0.000000 -0.002911 0.000000
# 3 0.000343 -0.002240 0.010185 0.000000 -0.006070 0.000000
# 4 0.000000 0.000000 0.000000 0.022154 0.000000 -0.005401
# 5 -0.000681 -0.002911 -0.006070 0.000000 0.032956 0.000000
# 6 0.000000 0.000000 0.000000 -0.005401 0.000000 0.031305
#
#
# Mechanical properties :
#
#
# Convention : Reuss Voigt Hill
#
# Bulk Modulus (GPa) = 25.25012 37.18781 31.21896
# Shear Modulus (GPa) = 30.39928 36.71863 33.55895
#
# Velocity S-wave (km/s) = 3.42296 3.76195 3.59645
# Velocity P-wave (km/s) = 5.03529 5.76219 5.41096
#
# Compressibility (1/GPa) = 0.03960378
#
# Stress axis : x y z
#
# Youngs Moduli (GPa) = 34.17141 78.22768 98.18286
#
# Poissons Ratio (x) = 0.34555 -0.03364
# Poissons Ratio (y) = 0.15094 0.21991
# Poissons Ratio (z) = -0.01171 0.17521
#
# Static dielectric constant tensor:
#      x y z
#    x 2.134770 0.000000 -0.020650 
#    y 0.000000 2.016280 0.000000 
#    z -0.020650 0.000000 2.049630 
# 
# From -- ./inp_files/206747.got.cif
#   From: 2010.05.17/outbox.cif.g08.bks.cpg/sg15_104_cif.got.tgz:206747.got - 2010.06.03 18:47:42.
