data_PCOD9268282
_publ_section_title
;
Structure prediction by ZEFSAII (Michael W. Deem and Ramdas Pophale) SiO2 
 PCOD9268282
Probable space group: C 2/C
;
_chemical_formula_sum "Si O2"
_cell_formula_units_Z 60
_cell_length_a 20.761668
_cell_length_b 14.675005
_cell_length_c 22.795963
_cell_angle_alpha 90.000000
_cell_angle_beta 23.567688
_cell_angle_gamma 90.000000
_cell_volume 2777.002009
_symmetry_space_group_name_H-M "C 2/C"
_symmetry_group_IT_number 15
_symmetry_cell_setting 'monoclinic'
loop_
_space_group_symop_operation_xyz
x,y,z
-x,y,1/2-z
-x,-y,-z
x,-y,1/2+z
1/2+x,1/2+y,z
1/2-x,1/2+y,1/2-z
1/2-x,1/2-y,-z
1/2+x,1/2-y,1/2+z
loop_
_atom_site_type_symbol
_atom_site_label
_atom_site_fract_x
_atom_site_fract_y
_atom_site_fract_z
Si Si1 0.801986 0.367086 0.206144
Si Si2 0.578582 0.718961 0.989933
Si Si3 0.859174 0.064707 0.779952
Si Si4 0.188129 0.893738 0.950175
Si Si5 0.842367 0.565326 0.206090
Si Si6 0.125928 0.688802 0.024574
Si Si7 0.000000 0.349564 0.750000
Si Si8 0.820813 0.130972 0.278456
O O1 0.658372 0.337818 0.370167
O O2 0.725830 0.392430 0.207363
O O3 0.887006 0.460051 0.157590
O O4 0.930433 0.285494 0.095149
O O5 0.724282 0.785427 0.887012
O O6 0.498866 0.658507 0.107501
O O7 0.784280 0.126181 0.892929
O O8 0.044841 0.070769 0.609278
O O9 0.816547 0.959187 0.820676
O O10 0.206493 0.934280 0.870091
O O11 0.162837 0.784957 0.964513
O O12 0.356059 0.907901 0.843217
O O13 0.771571 0.605446 0.205262
O O14 0.985716 0.629874 0.109832
O O15 0.067542 0.707096 0.139216
#
# Coordination Sequence:
#
# PCOD9268282 Si02
#       8
#     8   8   8   8   8   8   4   8
#     4  10  21  34  50  79 117 146 186 231 259 320
#     4  10  20  30  52  70 110 158 180 210 266 316
#     4  11  22  34  54  82 108 145 186 230 270 325
#     4  11  23  36  59  79 107 151 191 228 274 330
#     4  10  21  35  51  78 114 150 183 232 269 308
#     4  11  23  36  59  79 107 151 191 228 274 330
#     4  10  24  44  52  78 112 138 186 252 286 300
#     4  10  21  34  49  80 118 145 185 227 258 322
#
# _framework density 21.606033
#
# number of rings (size 3 to 8) (size 9 to 14) (size 15 to 20)
#    0.000    1.600    0.000    5.200   11.200    4.800 
#    0.000    0.000    0.000    0.000    0.000    0.000 
#    0.000  241.067    0.000    0.000    0.000    0.000 
#
# Total GULP energy -167789.425166 kJ/mol
# GULP energy per Si atom -5592.980839 kJ/mol
# Density = 2.155686 g / cm^3
# Si number density = 21.606033 Si / 1000 Ang^3
#
#
#
# Elastic Constant Matrix: (Units=GPa)
#
#
# Indices 1 2 3 4 5 6 
#
# 1 32.4815 12.8757 11.4957 -0.0009 1.9004 0.0013
# 2 12.8757 98.5843 20.2825 -0.0051 7.5578 0.0026
# 3 11.4957 20.2825 120.1122 0.0028 7.0299 -0.0004
# 4 -0.0009 -0.0051 0.0028 29.8137 -0.0029 4.0991
# 5 1.9004 7.5578 7.0299 -0.0029 21.1246 -0.0011
# 6 0.0013 0.0026 -0.0004 4.0991 -0.0011 8.1190
#
#
#
# Elastic Compliance Matrix: (Units=1/GPa)
#
#
# Indices 1 2 3 4 5 6 
#
# 1 0.033209 -0.003762 -0.002496 0.000001 -0.000811 -0.000005
# 2 -0.003762 0.011156 -0.001336 0.000002 -0.003208 -0.000005
# 3 -0.002496 -0.001336 0.008923 -0.000002 -0.002267 0.000002
# 4 0.000001 0.000002 -0.000002 0.036044 0.000004 -0.018198
# 5 -0.000811 -0.003208 -0.002267 0.000004 0.049313 0.000006
# 6 -0.000005 -0.000005 0.000002 -0.018198 0.000006 0.132356
#
#
# Mechanical properties :
#
#
# Convention : Reuss Voigt Hill
#
# Bulk Modulus (GPa) = 26.24642 37.83177 32.03910
# Shear Modulus (GPa) = 16.72876 25.57972 21.15424
#
# Velocity S-wave (km/s) = 2.78558 3.44454 3.13244
# Velocity P-wave (km/s) = 4.74553 5.77647 5.28619
#
# Compressibility (1/GPa) = 0.03810043
#
# Stress axis : x y z
#
# Youngs Moduli (GPa) = 30.11269 89.64020 112.07392
#
# Poissons Ratio (x) = 0.33719 0.27970
# Poissons Ratio (y) = 0.11327 0.14973
# Poissons Ratio (z) = 0.07515 0.11976
#
# Static dielectric constant tensor:
#      x y z
#    x 1.792970 0.000000 -0.003570 
#    y 0.000000 1.788330 0.000000 
#    z -0.003570 0.000000 1.853320 
# 
# From -- ./inp_files/302340.got.cif
#   From: 2010.05.17/outbox.cif.g08.bks.cpg/sg15_152_cif.got.tgz:302340.got - 2010.06.03 18:47:42.
