data_PCOD9268656
_publ_section_title
;
Structure prediction by ZEFSAII (Michael W. Deem and Ramdas Pophale) SiO2 
 PCOD9268656
Probable space group: C 2/C
;
_chemical_formula_sum "Si O2"
_cell_formula_units_Z 60
_cell_length_a 19.364467
_cell_length_b 20.892823
_cell_length_c 14.036736
_cell_angle_alpha 90.000000
_cell_angle_beta 151.818821
_cell_angle_gamma 90.000000
_cell_volume 2681.952668
_symmetry_space_group_name_H-M "C 2/C"
_symmetry_group_IT_number 15
_symmetry_cell_setting 'monoclinic'
loop_
_space_group_symop_operation_xyz
x,y,z
-x,y,1/2-z
-x,-y,-z
x,-y,1/2+z
1/2+x,1/2+y,z
1/2-x,1/2+y,1/2-z
1/2-x,1/2-y,-z
1/2+x,1/2-y,1/2+z
loop_
_atom_site_type_symbol
_atom_site_label
_atom_site_fract_x
_atom_site_fract_y
_atom_site_fract_z
Si Si1 0.380097 0.242088 0.538538
Si Si2 0.826946 0.879997 0.475136
Si Si3 0.000000 0.585538 0.250000
Si Si4 0.844175 0.506240 0.680065
Si Si5 0.856144 0.567694 0.385001
Si Si6 0.948212 0.069877 0.401029
Si Si7 0.943588 0.657941 0.987041
Si Si8 0.066144 0.793148 0.586893
O O1 0.500000 0.207007 0.750000
O O2 0.342881 0.310646 0.542951
O O3 0.230550 0.208036 0.329595
O O4 0.460272 0.267662 0.541528
O O5 0.757964 0.933493 0.457858
O O6 0.703853 0.866434 0.244011
O O7 0.968631 0.909752 0.595171
O O8 0.136220 0.542012 0.382338
O O9 0.039215 0.625488 0.390587
O O10 0.797885 0.470500 0.721193
O O11 0.007144 0.530959 0.903047
O O12 0.726587 0.569346 0.302428
O O13 0.926643 0.632054 0.424910
O O14 0.979007 0.135786 0.499530
O O15 0.000000 0.000000 0.500000
O O16 0.939153 0.734234 0.992273
#
# Coordination Sequence:
#
# PCOD9268656 Si02
#       8
#     8   8   4   8   8   8   8   8
#     4  10  20  37  60  88 119 157 198 248 302 377
#     4   9  19  36  57  84 123 160 192 248 320 358
#     4  10  20  32  62  92 116 158 220 254 286 340
#     4   9  17  34  53  85 114 154 196 255 295 349
#     4   9  17  32  60  80 113 151 206 245 298 358
#     4  11  20  32  59  91 110 154 202 245 306 386
#     4   9  19  38  62  85 118 165 207 255 293 356
#     4  10  21  37  60  87 121 160 199 247 313 363
#
# _framework density 22.371759000000001
#
# number of rings (size 3 to 8) (size 9 to 14) (size 15 to 20)
#    0.000    2.400    1.333    2.000    0.000    0.000 
#    4.800    0.000   10.267   22.400    6.933    0.000 
#    0.000    0.000    0.000    0.000    0.000    0.000 
#
# Total GULP energy -167451.042095 kJ/mol
# GULP energy per Si atom -5581.701403 kJ/mol
# Density = 2.232084 g / cm^3
# Si number density = 22.371759 Si / 1000 Ang^3
#
#
#
# Elastic Constant Matrix: (Units=GPa)
#
#
# Indices 1 2 3 4 5 6 
#
# 1 110.3775 33.8355 34.5339 0.0000 13.4399 0.0000
# 2 33.8355 166.5964 32.1526 0.0000 -7.3281 0.0000
# 3 34.5339 32.1526 64.8306 0.0000 11.6197 0.0000
# 4 0.0000 0.0000 0.0000 16.7016 0.0000 5.6362
# 5 13.4399 -7.3281 11.6197 0.0000 32.7632 0.0000
# 6 0.0000 0.0000 0.0000 5.6362 0.0000 27.9417
#
#
#
# Elastic Compliance Matrix: (Units=1/GPa)
#
#
# Indices 1 2 3 4 5 6 
#
# 1 0.011420 -0.001559 -0.004707 0.000000 -0.003364 0.000000
# 2 -0.001559 0.007106 -0.003303 0.000000 0.003400 0.000000
# 3 -0.004707 -0.003303 0.020671 0.000000 -0.006139 0.000000
# 4 0.000000 0.000000 0.000000 0.064248 0.000000 -0.012960
# 5 -0.003364 0.003400 -0.006139 0.000000 0.034840 0.000000
# 6 0.000000 0.000000 0.000000 -0.012960 0.000000 0.038403
#
#
# Mechanical properties :
#
#
# Convention : Reuss Voigt Hill
#
# Bulk Modulus (GPa) = 49.85496 60.31649 55.08572
# Shear Modulus (GPa) = 24.68976 31.56678 28.12827
#
# Velocity S-wave (km/s) = 3.32567 3.76042 3.54971
# Velocity P-wave (km/s) = 6.08933 6.77302 6.44026
#
# Compressibility (1/GPa) = 0.02005818
#
# Stress axis : x y z
#
# Youngs Moduli (GPa) = 87.56559 140.72082 48.37730
#
# Poissons Ratio (x) = 0.21937 0.22772
# Poissons Ratio (y) = 0.13650 0.15981
# Poissons Ratio (z) = 0.41218 0.46486
#
# Static dielectric constant tensor:
#      x y z
#    x 1.844780 0.000000 0.038350 
#    y 0.000000 1.915260 0.000000 
#    z 0.038350 0.000000 1.819570 
# 
# From -- ./inp_files/169487.got.cif
#   From: 2010.05.17/outbox.cif.g08.bks.cpg/sg15_85_cif.got.tgz:169487.got - 2010.06.03 18:47:42.
