data_PCOD9268759
_publ_section_title
;
Structure prediction by ZEFSAII (Michael W. Deem and Ramdas Pophale) SiO2 
 PCOD9268759
Probable space group: C 2/C
;
_chemical_formula_sum "Si O2"
_cell_formula_units_Z 56
_cell_length_a 13.598560
_cell_length_b 29.132896
_cell_length_c 9.413034
_cell_angle_alpha 90.000000
_cell_angle_beta 119.383555
_cell_angle_gamma 90.000000
_cell_volume 3249.385011
_symmetry_space_group_name_H-M "C 2/C"
_symmetry_group_IT_number 15
_symmetry_cell_setting 'monoclinic'
loop_
_space_group_symop_operation_xyz
x,y,z
-x,y,1/2-z
-x,-y,-z
x,-y,1/2+z
1/2+x,1/2+y,z
1/2-x,1/2+y,1/2-z
1/2-x,1/2-y,-z
1/2+x,1/2-y,1/2+z
loop_
_atom_site_type_symbol
_atom_site_label
_atom_site_fract_x
_atom_site_fract_y
_atom_site_fract_z
Si Si1 0.623221 0.449550 0.163519
Si Si2 0.745634 0.798808 0.078057
Si Si3 0.146742 0.966181 0.499869
Si Si4 0.575476 0.345879 0.099565
Si Si5 0.673490 0.316186 0.887272
Si Si6 0.377982 0.788163 0.227076
Si Si7 0.183830 0.133346 0.101441
O O1 0.667932 0.464227 0.348138
O O2 0.487726 0.457763 0.071501
O O3 0.637544 0.395264 0.153264
O O4 0.672598 0.484322 0.083180
O O5 0.857863 0.810036 0.253311
O O6 0.646699 0.799785 0.125932
O O7 0.750000 0.750000 0.000000
O O8 0.739665 0.837663 0.952595
O O9 0.202576 0.921006 0.606179
O O10 0.581679 0.330171 0.940302
O O11 0.444733 0.354938 0.042147
O O12 0.645686 0.266155 0.806000
O O13 0.689722 0.349644 0.766743
O O14 0.786266 0.312528 0.061879
O O15 0.500000 0.798150 0.250000
#
# Coordination Sequence:
#
# PCOD9268759 Si02
#       7
#     8   8   8   8   8   8   8
#     4   9  17  30  43  71  99 143 174 206 254 313
#     4  11  21  34  50  75 102 139 187 220 253 308
#     4   9  18  28  46  67 106 136 175 208 250 314
#     4  10  20  33  52  72 109 146 176 213 266 311
#     4  10  21  33  52  75  98 132 182 210 249 322
#     4  10  21  39  52  70 102 136 171 220 265 299
#     4  11  19  34  50  77 106 144 176 217 257 308
#
# _framework density 17.234031000000002
#
# number of rings (size 3 to 8) (size 9 to 14) (size 15 to 20)
#    0.000    2.000    2.857    1.714    2.000    0.000 
#    2.571    0.714    0.000    0.000    0.000    0.000 
#    0.000   18.286    0.000    0.000    0.000    0.000 
#
# Total GULP energy -156096.888979 kJ/mol
# GULP energy per Si atom -5574.888892 kJ/mol
# Density = 1.719481 g / cm^3
# Si number density = 17.234031 Si / 1000 Ang^3
#
#
#
# Elastic Constant Matrix: (Units=GPa)
#
#
# Indices 1 2 3 4 5 6 
#
# 1 65.8876 14.6606 12.5746 0.0000 -13.0902 0.0000
# 2 14.6606 99.9963 48.9331 0.0000 -12.9519 0.0000
# 3 12.5746 48.9331 73.5668 0.0000 -25.7298 0.0000
# 4 0.0000 0.0000 0.0000 25.1862 0.0000 -2.5374
# 5 -13.0902 -12.9519 -25.7298 0.0000 26.0883 0.0000
# 6 0.0000 0.0000 0.0000 -2.5374 0.0000 17.3727
#
#
#
# Elastic Compliance Matrix: (Units=1/GPa)
#
#
# Indices 1 2 3 4 5 6 
#
# 1 0.017167 -0.002174 0.001751 0.000000 0.009261 0.000000
# 2 -0.002174 0.015328 -0.011516 0.000000 -0.004839 0.000000
# 3 0.001751 -0.011516 0.029404 0.000000 0.024161 0.000000
# 4 0.000000 0.000000 0.000000 0.040297 0.000000 0.005886
# 5 0.009261 -0.004839 0.024161 0.000000 0.064405 0.000000
# 6 0.000000 0.000000 0.000000 0.005886 0.000000 0.058421
#
#
# Mechanical properties :
#
#
# Convention : Reuss Voigt Hill
#
# Bulk Modulus (GPa) = 26.30186 43.53191 34.91689
# Shear Modulus (GPa) = 19.11505 24.61495 21.86500
#
# Velocity S-wave (km/s) = 3.33400 3.78335 3.56576
# Velocity P-wave (km/s) = 5.48775 6.66327 6.10387
#
# Compressibility (1/GPa) = 0.03802012
#
# Stress axis : x y z
#
# Youngs Moduli (GPa) = 58.25146 65.24123 34.00895
#
# Poissons Ratio (x) = 0.14184 -0.05955
# Poissons Ratio (y) = 0.12665 0.39165
# Poissons Ratio (z) = -0.10199 0.75132
#
# Static dielectric constant tensor:
#      x y z
#    x 1.604640 0.000000 -0.003980 
#    y 0.000000 1.597430 0.000000 
#    z -0.003980 0.000000 1.607430 
# 
# From -- ./inp_files/35313.got.cif
#   From: 2010.05.17/outbox.cif.g08.bks.cpg/sg15_18_cif.got.tgz:35313.got - 2010.06.03 18:47:42.
