data_PCOD9268934
_publ_section_title
;
Structure prediction by ZEFSAII (Michael W. Deem and Ramdas Pophale) SiO2 
 PCOD9268934
Probable space group: C 2/C
;
_chemical_formula_sum "Si O2"
_cell_formula_units_Z 56
_cell_length_a 18.432152
_cell_length_b 14.715805
_cell_length_c 26.595877
_cell_angle_alpha 90.000000
_cell_angle_beta 160.155711
_cell_angle_gamma 90.000000
_cell_volume 2448.891404
_symmetry_space_group_name_H-M "C 2/C"
_symmetry_group_IT_number 15
_symmetry_cell_setting 'monoclinic'
loop_
_space_group_symop_operation_xyz
x,y,z
-x,y,1/2-z
-x,-y,-z
x,-y,1/2+z
1/2+x,1/2+y,z
1/2-x,1/2+y,1/2-z
1/2-x,1/2-y,-z
1/2+x,1/2-y,1/2+z
loop_
_atom_site_type_symbol
_atom_site_label
_atom_site_fract_x
_atom_site_fract_y
_atom_site_fract_z
Si Si1 0.270535 0.386742 0.580449
Si Si2 0.389527 0.607605 0.872708
Si Si3 0.861306 0.403067 0.707555
Si Si4 0.775917 0.900167 0.115870
Si Si5 0.108200 0.574061 0.607006
Si Si6 0.967117 0.732189 0.108493
Si Si7 0.507651 0.894721 0.194922
O O1 0.500000 0.352287 0.750000
O O2 0.277531 0.496519 0.595421
O O3 0.073073 0.360993 0.488247
O O4 0.190884 0.367400 0.471513
O O5 0.246288 0.540725 0.744314
O O6 0.453014 0.687578 0.875375
O O7 0.228182 0.637465 0.811862
O O8 0.616907 0.569615 0.037663
O O9 0.980311 0.495310 0.801531
O O10 0.000000 0.373677 0.750000
O O11 0.862939 0.317764 0.745332
O O12 0.765432 0.887701 0.168340
O O13 0.000000 0.856513 0.250000
O O14 0.591663 0.846957 0.969086
O O15 0.000000 0.500000 0.500000
O O16 0.750000 0.750000 0.000000
O O17 0.500000 0.873632 0.250000
#
# Coordination Sequence:
#
# PCOD9268934 Si02
#       7
#     8   8   8   8   8   8   8
#     4   9  18  37  61  90 118 153 211 264 315 368
#     4  11  24  39  61  92 131 169 216 266 324 391
#     4  11  23  39  60  94 133 175 212 257 328 396
#     4  10  20  33  56  86 124 164 195 241 317 383
#     4   9  20  36  59  84 118 155 205 258 307 374
#     4  12  24  37  59  92 135 167 207 256 329 394
#     4  10  22  42  64  89 128 172 221 272 322 386
#
# _framework density 22.86749
#
# number of rings (size 3 to 8) (size 9 to 14) (size 15 to 20)
#    0.000    1.714    2.857    1.286    4.000    3.429 
#    2.571    0.000    0.000    1.714    0.000    0.000 
#    0.000    0.000    0.000    0.000    0.000    0.000 
#
# Total GULP energy -156015.613681 kJ/mol
# GULP energy per Si atom -5571.986203 kJ/mol
# Density = 2.281544 g / cm^3
# Si number density = 22.867490 Si / 1000 Ang^3
#
#
#
# Elastic Constant Matrix: (Units=GPa)
#
#
# Indices 1 2 3 4 5 6 
#
# 1 172.7508 3.0797 56.7610 0.0240 -4.5153 0.0027
# 2 3.0797 44.0529 -15.8740 0.0494 2.8525 -0.0155
# 3 56.7610 -15.8740 135.4087 0.0703 -9.6779 -0.0383
# 4 0.0240 0.0494 0.0703 8.5494 0.0270 -8.1633
# 5 -4.5153 2.8525 -9.6779 0.0270 27.0068 0.0233
# 6 0.0027 -0.0155 -0.0383 -8.1633 0.0233 -3.8198
#
#
#
# Elastic Compliance Matrix: (Units=1/GPa)
#
#
# Indices 1 2 3 4 5 6 
#
# 1 0.006817 -0.001582 -0.003027 0.000018 0.000222 0.000004
# 2 -0.001582 0.024132 0.003378 -0.000097 -0.001603 0.000064
# 3 -0.003027 0.003378 0.009225 -0.000060 0.002443 0.000036
# 4 0.000018 -0.000097 -0.000060 0.038469 0.000024 -0.082211
# 5 0.000222 -0.001603 0.002443 0.000024 0.038109 0.000163
# 6 0.000004 0.000064 0.000036 -0.082211 0.000163 -0.086098
#
#
# Mechanical properties :
#
#
# Convention : Reuss Voigt Hill
#
# Bulk Modulus (GPa) = 26.51794 48.90508 37.71151
# Shear Modulus (GPa) = 109.43859 26.89698 68.16778
#
# Velocity S-wave (km/s) = 6.92543 3.43331 5.46577
# Velocity P-wave (km/s) = 8.69312 6.09504 7.50733
#
# Compressibility (1/GPa) = 0.03771033
#
# Stress axis : x y z
#
# Youngs Moduli (GPa) = 146.68409 41.43952 108.40548
#
# Poissons Ratio (x) = 0.06555 0.32818
# Poissons Ratio (y) = 0.23203 -0.36614
# Poissons Ratio (z) = 0.44406 -0.13996
#
# Static dielectric constant tensor:
#      x y z
#    x 1.915480 0.000050 0.035260 
#    y 0.000050 2.024610 -0.000080 
#    z 0.035260 -0.000080 2.014320 
# 
# From -- ./inp_files/299351.got.cif
#   From: 2010.05.17/outbox.cif.g08.bks.cpg/sg15_150_cif.got.tgz:299351.got - 2010.06.03 18:47:42.
