data_PCOD9268353
_publ_section_title
;
Structure prediction by ZEFSAII (Michael W. Deem and Ramdas Pophale) SiO2 
 PCOD9268353
Probable space group: C 2/C
;
_chemical_formula_sum "Si O2"
_cell_formula_units_Z 32
_cell_length_a 20.064718
_cell_length_b 9.287237
_cell_length_c 8.198490
_cell_angle_alpha 90.000000
_cell_angle_beta 115.642106
_cell_angle_gamma 90.000000
_cell_volume 1377.292859
_symmetry_space_group_name_H-M "C 2/C"
_symmetry_group_IT_number 15
_symmetry_cell_setting 'monoclinic'
loop_
_space_group_symop_operation_xyz
x,y,z
-x,y,1/2-z
-x,-y,-z
x,-y,1/2+z
1/2+x,1/2+y,z
1/2-x,1/2+y,1/2-z
1/2-x,1/2-y,-z
1/2+x,1/2-y,1/2+z
loop_
_atom_site_type_symbol
_atom_site_label
_atom_site_fract_x
_atom_site_fract_y
_atom_site_fract_z
Si Si1 0.840441 0.709221 0.429525
Si Si2 0.414958 0.818460 0.686592
Si Si3 0.168352 0.268663 0.219613
Si Si4 0.915895 0.032096 0.869190
O O1 0.881492 0.629903 0.323952
O O2 0.843969 0.654548 0.618290
O O3 0.755334 0.737474 0.294001
O O4 0.879994 0.864897 0.467504
O O5 0.500000 0.862878 0.750000
O O6 0.365102 0.843780 0.475461
O O7 0.413571 0.643785 0.714569
O O8 0.128569 0.114255 0.191427
O O9 0.000000 0.000000 0.000000
#
# Coordination Sequence:
#
# PCOD9268353 Si02
#       4
#     8   8   8   8
#     4   9  23  30  48  77 105 143 165 209 268 306
#     4  10  20  31  51  76 101 136 169 212 260 301
#     4  11  18  35  47  71 118 130 171 213 256 318
#     4  10  20  33  53  81 106 134 171 213 260 306
#
# _framework density 23.233982000000001
#
# number of rings (size 3 to 8) (size 9 to 14) (size 15 to 20)
#    1.500    0.500    2.500    2.250    0.000    3.000 
#    0.000    0.000    0.000    0.000    0.000    7.000 
#    0.000    0.000    0.000    0.000    0.000    0.000 
#
# Total GULP energy -89296.265068 kJ/mol
# GULP energy per Si atom -5581.016567 kJ/mol
# Density = 2.318110 g / cm^3
# Si number density = 23.233982 Si / 1000 Ang^3
#
#
#
# Elastic Constant Matrix: (Units=GPa)
#
#
# Indices 1 2 3 4 5 6 
#
# 1 176.5680 17.5011 53.3700 0.0000 -6.6021 0.0000
# 2 17.5011 79.1119 12.2238 0.0000 4.6418 0.0000
# 3 53.3700 12.2238 90.4576 0.0000 -25.8007 0.0000
# 4 0.0000 0.0000 0.0000 22.5238 0.0000 -19.0529
# 5 -6.6021 4.6418 -25.8007 0.0000 53.3834 0.0000
# 6 0.0000 0.0000 0.0000 -19.0529 0.0000 7.7779
#
#
#
# Elastic Compliance Matrix: (Units=1/GPa)
#
#
# Indices 1 2 3 4 5 6 
#
# 1 0.007020 -0.000809 -0.004367 0.000000 -0.001172 0.000000
# 2 -0.000809 0.013247 -0.001937 0.000000 -0.002188 0.000000
# 3 -0.004367 -0.001937 0.015991 0.000000 0.007357 0.000000
# 4 0.000000 0.000000 0.000000 -0.041410 0.000000 -0.101439
# 5 -0.001172 -0.002188 0.007357 0.000000 0.022333 0.000000
# 6 0.000000 0.000000 0.000000 -0.101439 0.000000 -0.119919
#
#
# Mechanical properties :
#
#
# Convention : Reuss Voigt Hill
#
# Bulk Modulus (GPa) = 45.38660 56.92525 51.15592
# Shear Modulus (GPa) = -61.60057 34.27320 -13.66369
#
# Velocity S-wave (km/s) = -5.15468 3.84491 -2.42769
# Velocity P-wave (km/s) = 3.98128 6.65321 3.76926
#
# Compressibility (1/GPa) = 0.02203294
#
# Stress axis : x y z
#
# Youngs Moduli (GPa) = 142.45422 75.48885 62.53416
#
# Poissons Ratio (x) = 0.06111 0.27306
# Poissons Ratio (y) = 0.11531 0.12110
# Poissons Ratio (z) = 0.62203 0.14619
#
# Static dielectric constant tensor:
#      x y z
#    x 1.955820 0.000000 -0.010580 
#    y 0.000000 1.879890 0.000000 
#    z -0.010580 0.000000 1.920200 
# 
# From -- ./inp_files/38371.got.cif
#   From: 2010.05.17/outbox.cif.g08.bks.cpg/sg15_20_cif.got.tgz:38371.got - 2010.06.03 18:47:42.
