data_PCOD9268305
_publ_section_title
;
Structure prediction by ZEFSAII (Michael W. Deem and Ramdas Pophale) SiO2 
 PCOD9268305
Probable space group: C 2/C
;
_chemical_formula_sum "Si O2"
_cell_formula_units_Z 44
_cell_length_a 14.760934
_cell_length_b 26.161846
_cell_length_c 9.031084
_cell_angle_alpha 90.000000
_cell_angle_beta 27.268355
_cell_angle_gamma 90.000000
_cell_volume 1597.857465
_symmetry_space_group_name_H-M "C 2/C"
_symmetry_group_IT_number 15
_symmetry_cell_setting 'monoclinic'
loop_
_space_group_symop_operation_xyz
x,y,z
-x,y,1/2-z
-x,-y,-z
x,-y,1/2+z
1/2+x,1/2+y,z
1/2-x,1/2+y,1/2-z
1/2-x,1/2-y,-z
1/2+x,1/2-y,1/2+z
loop_
_atom_site_type_symbol
_atom_site_label
_atom_site_fract_x
_atom_site_fract_y
_atom_site_fract_z
Si Si1 0.436422 0.859135 0.140342
Si Si2 0.438075 0.328157 0.618244
Si Si3 0.691594 0.425851 0.766287
Si Si4 0.500000 0.084564 0.250000
Si Si5 0.307861 0.759556 0.745905
Si Si6 0.280672 0.005419 0.390072
O O1 0.609250 0.895577 0.963888
O O2 0.421646 0.882012 0.999047
O O3 0.526961 0.802927 0.001112
O O4 0.233679 0.848907 0.523427
O O5 0.386465 0.294512 0.070355
O O6 0.477036 0.382230 0.482761
O O7 0.353780 0.287490 0.621414
O O8 0.719255 0.454376 0.567466
O O9 0.659465 0.471654 0.929082
O O10 0.324586 0.048110 0.448960
O O11 0.250000 0.750000 0.000000
O O12 0.500000 0.000000 0.000000
#
# Coordination Sequence:
#
# PCOD9268305 Si02
#       6
#     8   8   8   4   8   8
#     4  10  22  38  59  97 140 181 234 288 345 410
#     4  11  23  43  66 101 142 182 230 298 352 422
#     4  10  20  32  58  96 146 184 232 284 345 418
#     4  10  20  30  58  96 140 186 238 286 332 428
#     4  11  24  43  70  96 133 180 232 286 361 432
#     4  11  16  29  53  93 143 185 233 282 342 406
#
# _framework density 27.536874000000001
#
# number of rings (size 3 to 8) (size 9 to 14) (size 15 to 20)
#    0.000    1.455    1.818    6.545    2.545    0.000 
#    0.000    0.000    0.000    0.000    0.000   31.818 
#    0.000    0.000    0.000    0.727    0.000    0.182 
#
# Total GULP energy -123157.620081 kJ/mol
# GULP energy per Si atom -5598.073640 kJ/mol
# Density = 2.747420 g / cm^3
# Si number density = 27.536874 Si / 1000 Ang^3
#
#
#
# Elastic Constant Matrix: (Units=GPa)
#
#
# Indices 1 2 3 4 5 6 
#
# 1 102.5643 72.5277 27.2531 -0.0011 23.9865 0.0002
# 2 72.5277 240.3914 62.6297 -0.0001 4.3436 0.0000
# 3 27.2531 62.6297 119.0630 -0.0021 15.1668 0.0003
# 4 -0.0011 -0.0001 -0.0021 53.4937 0.0011 10.5838
# 5 23.9865 4.3436 15.1668 0.0011 41.0560 -0.0002
# 6 0.0002 0.0000 0.0003 10.5838 -0.0002 61.1133
#
#
#
# Elastic Compliance Matrix: (Units=1/GPa)
#
#
# Indices 1 2 3 4 5 6 
#
# 1 0.014678 -0.004259 -0.000089 0.000000 -0.008092 0.000000
# 2 -0.004259 0.006064 -0.002571 0.000000 0.002797 0.000000
# 3 -0.000089 -0.002571 0.010211 0.000000 -0.003448 0.000000
# 4 0.000000 0.000000 0.000000 0.019357 -0.000001 -0.003352
# 5 -0.008092 0.002797 -0.003448 -0.000001 0.030063 0.000000
# 6 0.000000 0.000000 0.000000 -0.003352 0.000000 0.016944
#
#
# Mechanical properties :
#
#
# Convention : Reuss Voigt Hill
#
# Bulk Modulus (GPa) = 58.42753 87.42664 72.92709
# Shear Modulus (GPa) = 42.78653 51.10649 46.94651
#
# Velocity S-wave (km/s) = 3.94609 4.31272 4.13347
# Velocity P-wave (km/s) = 6.48276 7.52445 7.02294
#
# Compressibility (1/GPa) = 0.01711522
#
# Stress axis : x y z
#
# Youngs Moduli (GPa) = 68.13021 164.90080 97.93373
#
# Poissons Ratio (x) = 0.70233 0.00867
# Poissons Ratio (y) = 0.29017 0.25181
# Poissons Ratio (z) = 0.00603 0.42401
#
# Static dielectric constant tensor:
#      x y z
#    x 2.179470 0.000000 -0.049580 
#    y 0.000000 2.152820 0.000000 
#    z -0.049580 0.000000 2.195470 
# 
# From -- ./inp_files/51987.got.cif
#   From: 2010.05.17/outbox.cif.g08.bks.cpg/sg15_26_cif.got.tgz:51987.got - 2010.06.03 18:47:42.
