data_PCOD9268444
_publ_section_title
;
Structure prediction by ZEFSAII (Michael W. Deem and Ramdas Pophale) SiO2 
 PCOD9268444
Probable space group: C 2/C
;
_chemical_formula_sum "Si O2"
_cell_formula_units_Z 64
_cell_length_a 33.230515
_cell_length_b 8.681568
_cell_length_c 15.029623
_cell_angle_alpha 90.000000
_cell_angle_beta 131.050861
_cell_angle_gamma 90.000000
_cell_volume 3269.849510
_symmetry_space_group_name_H-M "C 2/C"
_symmetry_group_IT_number 15
_symmetry_cell_setting 'monoclinic'
loop_
_space_group_symop_operation_xyz
x,y,z
-x,y,1/2-z
-x,-y,-z
x,-y,1/2+z
1/2+x,1/2+y,z
1/2-x,1/2+y,1/2-z
1/2-x,1/2-y,-z
1/2+x,1/2-y,1/2+z
loop_
_atom_site_type_symbol
_atom_site_label
_atom_site_fract_x
_atom_site_fract_y
_atom_site_fract_z
Si Si1 0.626915 0.439318 0.867551
Si Si2 0.562802 0.496072 0.602677
Si Si3 0.667400 0.895250 0.362365
Si Si4 0.772089 0.954086 0.768596
Si Si5 0.344962 0.004550 0.972393
Si Si6 0.764530 0.899568 0.963282
Si Si7 0.870812 0.173065 0.938157
Si Si8 0.864074 0.729346 0.856248
O O1 0.581625 0.483879 0.732068
O O2 0.655510 0.278599 0.878401
O O3 0.673813 0.563250 0.931950
O O4 0.608958 0.413237 0.942856
O O5 0.500000 0.500000 0.500000
O O6 0.592788 0.632391 0.592958
O O7 0.588215 0.343439 0.595085
O O8 0.643871 0.998597 0.407077
O O9 0.640982 0.899537 0.227136
O O10 0.727491 0.956277 0.438592
O O11 0.718801 0.995725 0.638514
O O12 0.757627 0.891849 0.846187
O O13 0.808918 0.827519 0.773391
O O14 0.811665 0.100324 0.837591
O O15 0.367249 0.851104 0.957827
O O16 0.367125 0.153134 0.956188
O O17 0.750000 0.750000 0.000000
#
# Coordination Sequence:
#
# PCOD9268444 Si02
#       8
#     8   8   8   8   8   8   8   8
#     4   9  21  36  55  79 110 145 187 229 275 344
#     4  10  22  40  62  80 104 146 195 242 291 325
#     4  10  21  33  52  77 113 159 188 214 275 335
#     4  10  20  32  49  79 119 153 185 219 279 335
#     4  11  20  32  55  79 115 155 180 226 281 337
#     4  11  21  31  49  82 116 151 184 222 274 336
#     4   9  21  36  53  82 111 142 192 229 277 342
#     4  10  21  37  53  82 118 151 191 236 271 342
#
# _framework density 19.572766999999999
#
# number of rings (size 3 to 8) (size 9 to 14) (size 15 to 20)
#    0.000    2.000    1.250    1.875   10.500    0.500 
#    0.000    0.625    0.000    0.000    0.000   10.500 
#    0.000    0.000    0.000    0.000    0.000    0.000 
#
# Total GULP energy -178700.579990 kJ/mol
# GULP energy per Si atom -5584.393125 kJ/mol
# Density = 1.952822 g / cm^3
# Si number density = 19.572767 Si / 1000 Ang^3
#
#
#
# Elastic Constant Matrix: (Units=GPa)
#
#
# Indices 1 2 3 4 5 6 
#
# 1 49.8519 2.0702 24.8731 0.0000 -1.4252 0.0000
# 2 2.0702 21.4335 7.1420 0.0000 4.8310 0.0000
# 3 24.8731 7.1420 73.6371 0.0000 0.4307 0.0000
# 4 0.0000 0.0000 0.0000 19.8449 0.0000 -8.9589
# 5 -1.4252 4.8310 0.4307 0.0000 27.3576 0.0000
# 6 0.0000 0.0000 0.0000 -8.9589 0.0000 13.8962
#
#
#
# Elastic Compliance Matrix: (Units=1/GPa)
#
#
# Indices 1 2 3 4 5 6 
#
# 1 0.024178 0.000082 -0.008183 0.000000 0.001374 0.000000
# 2 0.000082 0.050246 -0.004849 0.000000 -0.008792 0.000000
# 3 -0.008183 -0.004849 0.016813 0.000000 0.000165 0.000000
# 4 0.000000 0.000000 0.000000 0.071078 0.000000 0.045824
# 5 0.001374 -0.008792 0.000165 0.000000 0.038175 0.000000
# 6 0.000000 0.000000 0.000000 0.045824 0.000000 0.101505
#
#
# Mechanical properties :
#
#
# Convention : Reuss Voigt Hill
#
# Bulk Modulus (GPa) = 15.30548 23.67701 19.49124
# Shear Modulus (GPa) = 14.29900 19.60887 16.95394
#
# Velocity S-wave (km/s) = 2.70581 3.16863 2.94632
# Velocity P-wave (km/s) = 4.19507 5.05075 4.64267
#
# Compressibility (1/GPa) = 0.06533608
#
# Stress axis : x y z
#
# Youngs Moduli (GPa) = 41.35988 19.90217 59.47620
#
# Poissons Ratio (x) = -0.00162 0.48668
# Poissons Ratio (y) = -0.00338 0.28843
# Poissons Ratio (z) = 0.33844 0.09651
#
# Static dielectric constant tensor:
#      x y z
#    x 1.691840 0.000000 -0.057870 
#    y 0.000000 1.722300 0.000000 
#    z -0.057870 0.000000 1.681410 
# 
# From -- ./inp_files/181187.got.cif
#   From: 2010.05.17/outbox.cif.g08.bks.cpg/sg15_91_cif.got.tgz:181187.got - 2010.06.03 18:47:42.
