data_PCOD9268784
_publ_section_title
;
Structure prediction by ZEFSAII (Michael W. Deem and Ramdas Pophale) SiO2 
 PCOD9268784
Probable space group: C 2/C
;
_chemical_formula_sum "Si O2"
_cell_formula_units_Z 48
_cell_length_a 9.485205
_cell_length_b 13.156224
_cell_length_c 18.822492
_cell_angle_alpha 90.000000
_cell_angle_beta 108.142566
_cell_angle_gamma 90.000000
_cell_volume 2232.075199
_symmetry_space_group_name_H-M "C 2/C"
_symmetry_group_IT_number 15
_symmetry_cell_setting 'monoclinic'
loop_
_space_group_symop_operation_xyz
x,y,z
-x,y,1/2-z
-x,-y,-z
x,-y,1/2+z
1/2+x,1/2+y,z
1/2-x,1/2+y,1/2-z
1/2-x,1/2-y,-z
1/2+x,1/2-y,1/2+z
loop_
_atom_site_type_symbol
_atom_site_label
_atom_site_fract_x
_atom_site_fract_y
_atom_site_fract_z
Si Si1 0.842913 0.387381 0.260193
Si Si2 0.408438 0.770726 0.492063
Si Si3 0.041941 0.951667 0.176915
Si Si4 0.218892 0.536049 0.594376
Si Si5 0.042268 0.810368 0.653757
Si Si6 0.280871 0.798963 0.927935
O O1 0.702170 0.404316 0.186953
O O2 0.814532 0.455687 0.326453
O O3 0.856298 0.272657 0.292171
O O4 0.000000 0.414364 0.250000
O O5 0.250000 0.750000 0.500000
O O6 0.392161 0.886114 0.460267
O O7 0.430232 0.700481 0.426140
O O8 0.552941 0.763477 0.564479
O O9 0.000000 0.917239 0.250000
O O10 0.891608 0.931288 0.109676
O O11 0.062571 0.073986 0.179890
O O12 0.210600 0.421034 0.567522
O O13 0.869802 0.779108 0.639251
O O14 0.250000 0.750000 0.000000
#
# Coordination Sequence:
#
# PCOD9268784 Si02
#       6
#     8   8   8   8   8   8
#     4  10  20  33  53  79 102 133 174 214 257 307
#     4  10  20  33  52  80 106 133 171 219 260 295
#     4   9  18  35  54  73 101 138 171 210 259 307
#     4   9  19  36  54  74 106 138 172 214 257 307
#     4   9  19  36  53  73 104 139 174 206 254 318
#     4   9  18  35  56  75 102 143 175 205 257 316
#
# _framework density 21.504650999999999
#
# number of rings (size 3 to 8) (size 9 to 14) (size 15 to 20)
#    0.000    2.667    0.000    1.000    0.000    2.667 
#    0.000   11.667    0.000    0.000    0.000    0.000 
#    0.000    0.000    0.000    0.000    0.000    0.000 
#
# Total GULP energy -133858.644249 kJ/mol
# GULP energy per Si atom -5577.443510 kJ/mol
# Density = 2.145571 g / cm^3
# Si number density = 21.504651 Si / 1000 Ang^3
#
#
#
# Elastic Constant Matrix: (Units=GPa)
#
#
# Indices 1 2 3 4 5 6 
#
# 1 162.8069 9.8060 25.5136 0.0000 31.9610 0.0000
# 2 9.8060 51.1534 15.0408 0.0000 9.5089 0.0000
# 3 25.5136 15.0408 46.0102 0.0000 21.9427 0.0000
# 4 0.0000 0.0000 0.0000 23.5896 0.0000 3.1821
# 5 31.9610 9.5089 21.9427 0.0000 41.1826 0.0000
# 6 0.0000 0.0000 0.0000 3.1821 0.0000 34.8406
#
#
#
# Elastic Compliance Matrix: (Units=1/GPa)
#
#
# Indices 1 2 3 4 5 6 
#
# 1 0.007358 0.000006 -0.001821 0.000000 -0.004742 0.000000
# 2 0.000006 0.021711 -0.006312 0.000000 -0.001655 0.000000
# 3 -0.001821 -0.006312 0.031423 0.000000 -0.013872 0.000000
# 4 0.000000 0.000000 0.000000 0.042920 0.000000 -0.003920
# 5 -0.004742 -0.001655 -0.013872 0.000000 0.035736 0.000000
# 6 0.000000 0.000000 0.000000 -0.003920 0.000000 0.029060
#
#
# Mechanical properties :
#
#
# Convention : Reuss Voigt Hill
#
# Bulk Modulus (GPa) = 22.60397 40.07681 31.34039
# Shear Modulus (GPa) = 25.09942 33.89656 29.49799
#
# Velocity S-wave (km/s) = 3.42008 3.97450 3.70767
# Velocity P-wave (km/s) = 5.11175 6.30389 5.73886
#
# Compressibility (1/GPa) = 0.04424003
#
# Stress axis : x y z
#
# Youngs Moduli (GPa) = 135.90508 46.05895 31.82370
#
# Poissons Ratio (x) = -0.00029 0.05795
# Poissons Ratio (y) = -0.00086 0.20086
# Poissons Ratio (z) = 0.24747 0.29071
#
# Static dielectric constant tensor:
#      x y z
#    x 1.815630 0.000000 0.022760 
#    y 0.000000 1.754020 0.000000 
#    z 0.022760 0.000000 1.831200 
# 
# From -- ./inp_files/231083.got.cif
#   From: 2010.05.17/outbox.cif.g08.bks.cpg/sg15_116_cif.got.tgz:231083.got - 2010.06.03 18:47:42.
