data_PCOD9268152
_publ_section_title
;
Structure prediction by ZEFSAII (Michael W. Deem and Ramdas Pophale) SiO2 
 PCOD9268152
Probable space group: C 2/C
;
_chemical_formula_sum "Si O2"
_cell_formula_units_Z 60
_cell_length_a 17.098394
_cell_length_b 15.601661
_cell_length_c 13.499076
_cell_angle_alpha 90.000000
_cell_angle_beta 40.651353
_cell_angle_gamma 90.000000
_cell_volume 2345.925799
_symmetry_space_group_name_H-M "C 2/C"
_symmetry_group_IT_number 15
_symmetry_cell_setting 'monoclinic'
loop_
_space_group_symop_operation_xyz
x,y,z
-x,y,1/2-z
-x,-y,-z
x,-y,1/2+z
1/2+x,1/2+y,z
1/2-x,1/2+y,1/2-z
1/2-x,1/2-y,-z
1/2+x,1/2-y,1/2+z
loop_
_atom_site_type_symbol
_atom_site_label
_atom_site_fract_x
_atom_site_fract_y
_atom_site_fract_z
Si Si1 0.379800 0.407395 0.504336
Si Si2 0.037812 0.407122 0.501674
Si Si3 0.941890 0.251243 0.697684
Si Si4 0.805719 0.942127 0.797826
Si Si5 0.248541 0.380042 0.436615
Si Si6 0.000000 0.049680 0.250000
Si Si7 0.370163 0.795338 0.252580
Si Si8 0.360012 0.191881 0.996769
O O1 0.469038 0.325773 0.423568
O O2 0.342814 0.430022 0.649989
O O3 0.272514 0.385832 0.530525
O O4 0.439253 0.489348 0.392073
O O5 0.315322 0.459623 0.320448
O O6 0.116747 0.399627 0.525324
O O7 0.000000 0.500000 0.500000
O O8 0.827602 0.405204 0.558681
O O9 0.812805 0.206259 0.837642
O O10 0.942555 0.332163 0.623295
O O11 0.000000 0.269840 0.750000
O O12 0.896644 0.898663 0.790869
O O13 0.124913 0.372619 0.330250
O O14 0.353668 0.815235 0.383869
O O15 0.251355 0.740853 0.346087
O O16 0.510157 0.767009 0.108736
#
# Coordination Sequence:
#
# PCOD9268152 Si02
#       8
#     8   8   8   8   8   4   8   8
#     4  10  19  42  71 109 159 202 265 328 393 481
#     4  12  27  48  71 114 152 204 262 330 423 486
#     4  10  22  47  74 105 148 197 262 326 388 477
#     4  11  21  39  72 113 152 203 253 331 408 470
#     4  10  24  45  71 109 150 198 262 330 393 485
#     4  10  20  34  62 116 168 198 266 328 394 476
#     4  10  24  47  73 102 154 202 266 324 397 494
#     4  10  23  46  73 108 148 207 261 326 397 492
#
# _framework density 25.576256999999998
#
# number of rings (size 3 to 8) (size 9 to 14) (size 15 to 20)
#    0.000    1.600    3.333    2.000    1.867    6.400 
#   12.000    0.000    0.000    0.000    0.000    0.000 
#    0.000    0.000    0.000    0.000    0.000    0.000 
#
# Total GULP energy -167578.851475 kJ/mol
# GULP energy per Si atom -5585.961716 kJ/mol
# Density = 2.551804 g / cm^3
# Si number density = 25.576257 Si / 1000 Ang^3
#
#
#
# Elastic Constant Matrix: (Units=GPa)
#
#
# Indices 1 2 3 4 5 6 
#
# 1 133.7450 57.2667 49.6111 0.0000 -5.3061 0.0000
# 2 57.2667 137.3901 75.2114 0.0000 -2.8375 0.0000
# 3 49.6111 75.2114 148.7383 0.0000 9.7295 0.0000
# 4 0.0000 0.0000 0.0000 31.4534 0.0000 -8.8220
# 5 -5.3061 -2.8375 9.7295 0.0000 42.5749 0.0000
# 6 0.0000 0.0000 0.0000 -8.8220 0.0000 26.7968
#
#
#
# Elastic Compliance Matrix: (Units=1/GPa)
#
#
# Indices 1 2 3 4 5 6 
#
# 1 0.009444 -0.002951 -0.001748 0.000000 0.001380 0.000000
# 2 -0.002951 0.011134 -0.004741 0.000000 0.001458 0.000000
# 3 -0.001748 -0.004741 0.009886 0.000000 -0.002793 0.000000
# 4 0.000000 0.000000 0.000000 0.035027 0.000000 0.011532
# 5 0.001380 0.001458 -0.002793 0.000000 0.024395 0.000000
# 6 0.000000 0.000000 0.000000 0.011532 0.000000 0.041114
#
#
# Mechanical properties :
#
#
# Convention : Reuss Voigt Hill
#
# Bulk Modulus (GPa) = 86.32617 87.11687 86.72152
# Shear Modulus (GPa) = 32.52185 36.01729 34.26957
#
# Velocity S-wave (km/s) = 3.56977 3.75671 3.66443
# Velocity P-wave (km/s) = 7.12859 7.27686 7.20311
#
# Compressibility (1/GPa) = 0.01158397
#
# Stress axis : x y z
#
# Youngs Moduli (GPa) = 105.89261 89.81411 101.14887
#
# Poissons Ratio (x) = 0.26503 0.17681
# Poissons Ratio (y) = 0.31247 0.47957
# Poissons Ratio (z) = 0.18510 0.42583
#
# Static dielectric constant tensor:
#      x y z
#    x 2.205020 0.000000 -0.127210 
#    y 0.000000 2.094700 0.000000 
#    z -0.127210 0.000000 2.006110 
# 
# From -- ./inp_files/100666.got.cif
#   From: 2010.05.17/outbox.cif.g08.bks.cpg/sg15_51_cif.got.tgz:100666.got - 2010.06.03 18:47:42.
