data_PCOD9268364
_publ_section_title
;
Structure prediction by ZEFSAII (Michael W. Deem and Ramdas Pophale) SiO2 
 PCOD9268364
Probable space group: C 2/C
;
_chemical_formula_sum "Si O2"
_cell_formula_units_Z 44
_cell_length_a 10.445110
_cell_length_b 19.614903
_cell_length_c 10.289871
_cell_angle_alpha 90.000000
_cell_angle_beta 53.357754
_cell_angle_gamma 90.000000
_cell_volume 1691.562043
_symmetry_space_group_name_H-M "C 2/C"
_symmetry_group_IT_number 15
_symmetry_cell_setting 'monoclinic'
loop_
_space_group_symop_operation_xyz
x,y,z
-x,y,1/2-z
-x,-y,-z
x,-y,1/2+z
1/2+x,1/2+y,z
1/2-x,1/2+y,1/2-z
1/2-x,1/2-y,-z
1/2+x,1/2-y,1/2+z
loop_
_atom_site_type_symbol
_atom_site_label
_atom_site_fract_x
_atom_site_fract_y
_atom_site_fract_z
Si Si1 0.447597 0.542640 0.650593
Si Si2 0.167847 0.495390 0.465328
Si Si3 0.991191 0.193878 0.611648
Si Si4 0.842246 0.350401 0.568178
Si Si5 0.362325 0.765969 0.210286
Si Si6 0.000000 0.398928 0.750000
O O1 0.500000 0.504947 0.750000
O O2 0.500000 0.500000 0.500000
O O3 0.264501 0.546051 0.796751
O O4 0.531283 0.614815 0.594018
O O5 0.208113 0.575684 0.456133
O O6 0.000000 0.500000 0.500000
O O7 0.138802 0.449025 0.609439
O O8 0.806576 0.195723 0.678905
O O9 0.000000 0.222956 0.750000
O O10 0.112054 0.231414 0.445676
O O11 0.687388 0.300458 0.672026
O O12 0.924499 0.361509 0.664832
O O13 0.976702 0.313197 0.395225
#
# Coordination Sequence:
#
# PCOD9268364 Si02
#       6
#     8   8   8   8   8   4
#     4  11  25  41  63  96 133 171 217 280 339 391
#     4  10  22  40  62  89 129 173 217 263 324 403
#     4  10  20  31  53  83 123 155 200 251 325 383
#     4  10  22  36  59  89 123 160 213 258 336 391
#     4  10  21  33  54  87 120 165 200 265 321 394
#     4  10  22  34  64  90 128 162 212 268 328 400
#
# _framework density 26.011462999999999
#
# number of rings (size 3 to 8) (size 9 to 14) (size 15 to 20)
#    0.000    1.818    0.000    3.818   17.818    0.000 
#    0.000    0.000    0.000    1.091    9.455    0.000 
#    0.000    0.000    0.000    0.000    0.000    0.000 
#
# Total GULP energy -122693.017922 kJ/mol
# GULP energy per Si atom -5576.955360 kJ/mol
# Density = 2.595226 g / cm^3
# Si number density = 26.011463 Si / 1000 Ang^3
#
#
#
# Elastic Constant Matrix: (Units=GPa)
#
#
# Indices 1 2 3 4 5 6 
#
# 1 44.4248 9.0726 14.0840 0.0000 -10.9559 0.0000
# 2 9.0726 132.3965 52.4749 0.0000 1.2613 0.0000
# 3 14.0840 52.4749 155.1152 0.0000 20.2492 0.0000
# 4 0.0000 0.0000 0.0000 69.5005 0.0000 -49.4097
# 5 -10.9559 1.2613 20.2492 0.0000 40.3178 0.0000
# 6 0.0000 0.0000 0.0000 -49.4097 0.0000 128.5804
#
#
#
# Elastic Compliance Matrix: (Units=1/GPa)
#
#
# Indices 1 2 3 4 5 6 
#
# 1 0.025807 -0.000546 -0.003292 0.000000 0.008683 0.000000
# 2 -0.000546 0.008798 -0.003073 0.000000 0.001120 0.000000
# 3 -0.003292 -0.003073 0.008443 0.000000 -0.005039 0.000000
# 4 0.000000 0.000000 0.000000 0.019797 0.000000 0.007607
# 5 0.008683 0.001120 -0.005039 0.000000 0.029658 0.000000
# 6 0.000000 0.000000 0.000000 0.007607 0.000000 0.010700
#
#
# Mechanical properties :
#
#
# Convention : Reuss Voigt Hill
#
# Bulk Modulus (GPa) = 34.21706 53.68885 43.95296
# Shear Modulus (GPa) = 39.44268 64.76672 52.10470
#
# Velocity S-wave (km/s) = 3.89827 4.99533 4.48050
# Velocity P-wave (km/s) = 5.78318 7.34550 6.61066
#
# Compressibility (1/GPa) = 0.02922519
#
# Stress axis : x y z
#
# Youngs Moduli (GPa) = 38.74991 113.66558 118.44129
#
# Poissons Ratio (x) = 0.06211 0.38989
# Poissons Ratio (y) = 0.02117 0.36394
# Poissons Ratio (z) = 0.12756 0.34927
#
# Static dielectric constant tensor:
#      x y z
#    x 2.165970 0.000000 0.043900 
#    y 0.000000 2.171860 0.000000 
#    z 0.043900 0.000000 2.372250 
# 
# From -- ./inp_files/40628.got.cif
#   From: 2010.05.17/outbox.cif.g08.bks.cpg/sg15_21_cif.got.tgz:40628.got - 2010.06.03 18:47:42.
