data_PCOD9268440
_publ_section_title
;
Structure prediction by ZEFSAII (Michael W. Deem and Ramdas Pophale) SiO2 
 PCOD9268440
Probable space group: C 2/C
;
_chemical_formula_sum "Si O2"
_cell_formula_units_Z 64
_cell_length_a 19.900187
_cell_length_b 22.653991
_cell_length_c 12.464027
_cell_angle_alpha 90.000000
_cell_angle_beta 138.430237
_cell_angle_gamma 90.000000
_cell_volume 3728.393951
_symmetry_space_group_name_H-M "C 2/C"
_symmetry_group_IT_number 15
_symmetry_cell_setting 'monoclinic'
loop_
_space_group_symop_operation_xyz
x,y,z
-x,y,1/2-z
-x,-y,-z
x,-y,1/2+z
1/2+x,1/2+y,z
1/2-x,1/2+y,1/2-z
1/2-x,1/2-y,-z
1/2+x,1/2-y,1/2+z
loop_
_atom_site_type_symbol
_atom_site_label
_atom_site_fract_x
_atom_site_fract_y
_atom_site_fract_z
Si Si1 0.207198 0.486145 0.903023
Si Si2 0.928933 0.971717 0.073897
Si Si3 0.456842 0.585821 0.381068
Si Si4 0.905244 0.318973 0.054847
Si Si5 0.554326 0.923041 0.552843
Si Si6 0.916125 0.817251 0.554114
Si Si7 0.920128 0.464970 0.560709
Si Si8 0.760050 0.884877 0.504733
O O1 0.319602 0.477566 0.995036
O O2 0.195879 0.557455 0.893447
O O3 0.135578 0.450866 0.734070
O O4 0.184434 0.464851 0.998181
O O5 0.000000 0.945084 0.250000
O O6 0.928116 0.934749 0.964711
O O7 0.976442 0.035108 0.097233
O O8 0.526198 0.644161 0.465623
O O9 0.354058 0.593715 0.190808
O O10 0.895244 0.251042 0.007794
O O11 0.000000 0.324000 0.250000
O O12 0.920799 0.361068 0.970851
O O13 0.809197 0.341806 0.007588
O O14 0.449167 0.924217 0.494401
O O15 0.557065 0.970041 0.458938
O O16 0.815183 0.850343 0.474095
O O17 0.000000 0.818675 0.750000
O O18 0.000000 0.452207 0.750000
#
# Coordination Sequence:
#
# PCOD9268440 Si02
#       8
#     8   8   8   8   8   8   8   8
#     4  11  20  31  52  78 109 140 166 217 273 316
#     4  11  20  33  52  82 108 135 176 217 273 322
#     4  10  20  35  55  77 110 142 173 222 266 316
#     4  11  22  34  54  80 109 146 182 214 260 322
#     4  10  20  32  49  76 107 142 173 216 262 316
#     4   9  19  37  55  77 109 142 178 220 262 315
#     4   9  19  32  47  70 107 136 172 212 259 307
#     4  11  19  34  53  81 113 139 172 217 269 319
#
# _framework density 17.165569000000001
#
# number of rings (size 3 to 8) (size 9 to 14) (size 15 to 20)
#    0.000    1.750    3.750    1.875    3.500    0.000 
#    0.000    0.000    0.000    2.250    0.000    2.625 
#    0.000    0.000    0.000    0.000    0.000    0.000 
#
# Total GULP energy -178361.156728 kJ/mol
# GULP energy per Si atom -5573.786148 kJ/mol
# Density = 1.712650 g / cm^3
# Si number density = 17.165569 Si / 1000 Ang^3
#
#
#
# Elastic Constant Matrix: (Units=GPa)
#
#
# Indices 1 2 3 4 5 6 
#
# 1 138.5553 28.1735 29.3111 0.0000 2.4717 0.0000
# 2 28.1735 77.4912 27.4275 0.0000 -3.7476 0.0000
# 3 29.3111 27.4275 45.2555 0.0000 -0.4906 0.0000
# 4 0.0000 0.0000 0.0000 18.2701 0.0000 -4.2891
# 5 2.4717 -3.7476 -0.4906 0.0000 22.0171 0.0000
# 6 0.0000 0.0000 0.0000 -4.2891 0.0000 20.9151
#
#
#
# Elastic Compliance Matrix: (Units=1/GPa)
#
#
# Indices 1 2 3 4 5 6 
#
# 1 0.008528 -0.001533 -0.004608 0.000000 -0.001321 0.000000
# 2 -0.001533 0.016852 -0.009189 0.000000 0.002836 0.000000
# 3 -0.004608 -0.009189 0.030647 0.000000 -0.000364 0.000000
# 4 0.000000 0.000000 0.000000 0.057503 0.000000 0.011792
# 5 -0.001321 0.002836 -0.000364 0.000000 0.046042 0.000000
# 6 0.000000 0.000000 0.000000 0.011792 0.000000 0.050230
#
#
# Mechanical properties :
#
#
# Convention : Reuss Voigt Hill
#
# Bulk Modulus (GPa) = 39.42526 47.90292 43.66409
# Shear Modulus (GPa) = 20.08695 23.99979 22.04337
#
# Velocity S-wave (km/s) = 3.42451 3.74322 3.58741
# Velocity P-wave (km/s) = 6.21722 6.83003 6.53082
#
# Compressibility (1/GPa) = 0.02536445
#
# Stress axis : x y z
#
# Youngs Moduli (GPa) = 117.26748 59.34089 32.62981
#
# Poissons Ratio (x) = 0.09098 0.15037
# Poissons Ratio (y) = 0.17979 0.29985
# Poissons Ratio (z) = 0.54040 0.54531
#
# Static dielectric constant tensor:
#      x y z
#    x 1.617430 0.000000 0.025090 
#    y 0.000000 1.584160 0.000000 
#    z 0.025090 0.000000 1.609020 
# 
# From -- ./inp_files/114280.got.cif
#   From: 2010.05.17/outbox.cif.g08.bks.cpg/sg15_58_cif.got.tgz:114280.got - 2010.06.03 18:47:42.
