data_PCOD9268204
_publ_section_title
;
Structure prediction by ZEFSAII (Michael W. Deem and Ramdas Pophale) SiO2 
 PCOD9268204
Probable space group: C 2/C
;
_chemical_formula_sum "Si O2"
_cell_formula_units_Z 52
_cell_length_a 13.124744
_cell_length_b 11.303654
_cell_length_c 13.306936
_cell_angle_alpha 90.000000
_cell_angle_beta 95.304815
_cell_angle_gamma 90.000000
_cell_volume 1965.729056
_symmetry_space_group_name_H-M "C 2/C"
_symmetry_group_IT_number 15
_symmetry_cell_setting 'monoclinic'
loop_
_space_group_symop_operation_xyz
x,y,z
-x,y,1/2-z
-x,-y,-z
x,-y,1/2+z
1/2+x,1/2+y,z
1/2-x,1/2+y,1/2-z
1/2-x,1/2-y,-z
1/2+x,1/2-y,1/2+z
loop_
_atom_site_type_symbol
_atom_site_label
_atom_site_fract_x
_atom_site_fract_y
_atom_site_fract_z
Si Si1 0.204867 0.065604 0.121179
Si Si2 0.719666 0.563480 0.364917
Si Si3 0.500000 0.936649 0.750000
Si Si4 0.140914 0.369136 0.351825
Si Si5 0.024762 0.153248 0.444566
Si Si6 0.616974 0.746384 0.643784
Si Si7 0.745259 0.312645 0.334083
O O1 0.214639 0.058861 0.243516
O O2 0.262307 0.190810 0.106444
O O3 0.088567 0.103317 0.082950
O O4 0.257022 0.938818 0.093802
O O5 0.606971 0.570188 0.398448
O O6 0.783390 0.684077 0.394336
O O7 0.761704 0.433322 0.396190
O O8 0.552352 0.857664 0.671769
O O9 0.422515 0.017292 0.684029
O O10 0.065019 0.281381 0.404668
O O11 0.167320 0.310531 0.245303
O O12 0.052576 0.166863 0.563649
O O13 0.647075 0.683922 0.751141
#
# Coordination Sequence:
#
# PCOD9268204 Si02
#       7
#     8   8   4   8   8   8   8
#     4  10  21  42  66 107 138 184 245 283 363 447
#     4  10  21  41  69  98 132 190 239 282 364 444
#     4  12  22  46  68  96 134 190 234 288 374 436
#     4  11  22  40  72  98 139 183 245 292 351 450
#     4  12  24  42  74 105 143 185 237 307 370 422
#     4  11  24  43  69 104 136 182 237 296 367 433
#     4  10  19  44  67  94 136 184 235 284 346 446
#
# _framework density 26.453289000000002
#
# number of rings (size 3 to 8) (size 9 to 14) (size 15 to 20)
#    0.000    1.231    7.692    1.846    0.000    0.615 
#    5.538    5.385    3.385    0.000    0.000    0.000 
#    0.000    0.000    0.000    0.000    0.000    0.000 
#
# Total GULP energy -145263.636893 kJ/mol
# GULP energy per Si atom -5587.062957 kJ/mol
# Density = 2.639308 g / cm^3
# Si number density = 26.453289 Si / 1000 Ang^3
#
#
#
# Elastic Constant Matrix: (Units=GPa)
#
#
# Indices 1 2 3 4 5 6 
#
# 1 84.5684 31.1538 23.2807 0.0000 31.1243 0.0000
# 2 31.1538 206.2759 34.9935 0.0000 4.6996 0.0000
# 3 23.2807 34.9935 80.1109 0.0000 8.4613 0.0000
# 4 0.0000 0.0000 0.0000 43.1558 0.0000 2.6289
# 5 31.1243 4.6996 8.4613 0.0000 27.4641 0.0000
# 6 0.0000 0.0000 0.0000 2.6289 0.0000 -5.6494
#
#
#
# Elastic Compliance Matrix: (Units=1/GPa)
#
#
# Indices 1 2 3 4 5 6 
#
# 1 0.022320 -0.002326 -0.002936 0.000000 -0.023992 0.000000
# 2 -0.002326 0.005479 -0.001961 0.000000 0.002303 0.000000
# 3 -0.002936 -0.001961 0.014270 0.000000 -0.000733 0.000000
# 4 0.000000 0.000000 0.000000 0.022533 0.000000 0.010486
# 5 -0.023992 0.002303 -0.000733 0.000000 0.063432 0.000000
# 6 0.000000 0.000000 0.000000 0.010486 0.000000 -0.172130
#
#
# Mechanical properties :
#
#
# Convention : Reuss Voigt Hill
#
# Bulk Modulus (GPa) = 36.20170 61.09015 48.64593
# Shear Modulus (GPa) = -244.59171 31.76259 -106.41456
#
# Velocity S-wave (km/s) = -9.62613 3.46888 -6.34938
# Velocity P-wave (km/s) = 10.48022 6.26002 5.94337
#
# Compressibility (1/GPa) = 0.02762301
#
# Stress axis : x y z
#
# Youngs Moduli (GPa) = 44.80316 182.50300 70.07786
#
# Poissons Ratio (x) = 0.42455 0.20576
# Poissons Ratio (y) = 0.10422 0.13740
# Poissons Ratio (z) = 0.13155 0.35782
#
# Static dielectric constant tensor:
#      x y z
#    x 2.183340 0.000000 0.064420 
#    y 0.000000 2.317510 0.000000 
#    z 0.064420 0.000000 2.164520 
# 
# From -- ./inp_files/152692.got.cif
#   From: 2010.05.17/outbox.cif.g08.bks.cpg/sg15_77_cif.got.tgz:152692.got - 2010.06.03 18:47:42.
