data_PCOD9268537
_publ_section_title
;
Structure prediction by ZEFSAII (Michael W. Deem and Ramdas Pophale) SiO2 
 PCOD9268537
Probable space group: C 2/C
;
_chemical_formula_sum "Si O2"
_cell_formula_units_Z 44
_cell_length_a 23.075699
_cell_length_b 7.848975
_cell_length_c 15.099154
_cell_angle_alpha 90.000000
_cell_angle_beta 144.727483
_cell_angle_gamma 90.000000
_cell_volume 1579.235531
_symmetry_space_group_name_H-M "C 2/C"
_symmetry_group_IT_number 15
_symmetry_cell_setting 'monoclinic'
loop_
_space_group_symop_operation_xyz
x,y,z
-x,y,1/2-z
-x,-y,-z
x,-y,1/2+z
1/2+x,1/2+y,z
1/2-x,1/2+y,1/2-z
1/2-x,1/2-y,-z
1/2+x,1/2-y,1/2+z
loop_
_atom_site_type_symbol
_atom_site_label
_atom_site_fract_x
_atom_site_fract_y
_atom_site_fract_z
Si Si1 0.553716 0.173416 0.112236
Si Si2 0.000000 0.735966 0.250000
Si Si3 0.182363 0.456974 0.039796
Si Si4 0.339437 0.653684 0.163003
Si Si5 0.933721 0.189375 0.061552
Si Si6 0.775418 0.561413 0.702444
O O1 0.558241 0.300650 0.035038
O O2 0.510113 0.251421 0.148744
O O3 0.665092 0.095819 0.263495
O O4 0.500000 0.000000 0.000000
O O5 0.111411 0.666633 0.399276
O O6 0.286556 0.479455 0.118699
O O7 0.109790 0.628187 0.958581
O O8 0.213037 0.429863 0.178560
O O9 0.451609 0.652785 0.267311
O O10 0.333199 0.768440 0.243025
O O11 0.250000 0.750000 0.000000
O O12 0.842050 0.063471 0.969234
#
# Coordination Sequence:
#
# PCOD9268537 Si02
#       6
#     8   4   8   8   8   8
#     4  11  19  37  60  84 112 152 193 242 287 350
#     4  12  18  34  64  82 112 146 200 238 284 350
#     4  10  20  32  54  81 110 151 184 238 296 342
#     4  11  20  32  55  85 110 147 196 238 292 351
#     4  10  20  36  55  81 119 147 191 243 288 350
#     4  10  20  36  53  80 119 146 189 235 297 346
#
# _framework density 27.86158
#
# number of rings (size 3 to 8) (size 9 to 14) (size 15 to 20)
#    0.000    1.455    5.455    2.182    0.000    2.909 
#    0.000    0.909    0.000    2.182    0.000    0.000 
#    0.000    0.000    0.000    0.000    0.000    0.000 
#
# Total GULP energy -122674.830967 kJ/mol
# GULP energy per Si atom -5576.128680 kJ/mol
# Density = 2.779817 g / cm^3
# Si number density = 27.861580 Si / 1000 Ang^3
#
#
#
# Elastic Constant Matrix: (Units=GPa)
#
#
# Indices 1 2 3 4 5 6 
#
# 1 208.8749 27.0875 68.0767 0.0000 35.4421 0.0000
# 2 27.0875 49.7677 27.2603 0.0000 12.3669 0.0000
# 3 68.0767 27.2603 178.6580 0.0000 51.6284 0.0000
# 4 0.0000 0.0000 0.0000 13.9927 0.0000 9.9559
# 5 35.4421 12.3669 51.6284 0.0000 66.3765 0.0000
# 6 0.0000 0.0000 0.0000 9.9559 0.0000 29.5420
#
#
#
# Elastic Compliance Matrix: (Units=1/GPa)
#
#
# Indices 1 2 3 4 5 6 
#
# 1 0.005783 -0.001960 -0.001442 0.000000 -0.001601 0.000000
# 2 -0.001960 0.022780 -0.002328 0.000000 -0.001387 0.000000
# 3 -0.001442 -0.002328 0.007938 0.000000 -0.004971 0.000000
# 4 0.000000 0.000000 0.000000 0.094007 0.000000 -0.031681
# 5 -0.001601 -0.001387 -0.004971 0.000000 0.020045 0.000000
# 6 0.000000 0.000000 0.000000 -0.031681 0.000000 0.044527
#
#
# Mechanical properties :
#
#
# Convention : Reuss Voigt Hill
#
# Bulk Modulus (GPa) = 39.93371 75.79439 57.86405
# Shear Modulus (GPa) = 23.26782 42.97398 33.12090
#
# Velocity S-wave (km/s) = 2.89298 3.93161 3.45159
# Velocity P-wave (km/s) = 5.05204 6.91904 6.05790
#
# Compressibility (1/GPa) = 0.02504150
#
# Stress axis : x y z
#
# Youngs Moduli (GPa) = 172.90838 43.89800 125.96888
#
# Poissons Ratio (x) = 0.08604 0.18163
# Poissons Ratio (y) = 0.33891 0.29329
# Poissons Ratio (z) = 0.24932 0.10221
#
# Static dielectric constant tensor:
#      x y z
#    x 2.184460 0.000000 -0.060100 
#    y 0.000000 2.324960 0.000000 
#    z -0.060100 0.000000 2.243490 
# 
# From -- ./inp_files/173519.got.cif
#   From: 2010.05.17/outbox.cif.g08.bks.cpg/sg15_87_cif.got.tgz:173519.got - 2010.06.03 18:47:42.
