data_PCOD9268979
_publ_section_title
;
Structure prediction by ZEFSAII (Michael W. Deem and Ramdas Pophale) SiO2 
 PCOD9268979
Probable space group: C 2/C
;
_chemical_formula_sum "Si O2"
_cell_formula_units_Z 56
_cell_length_a 18.106456
_cell_length_b 27.717235
_cell_length_c 5.580144
_cell_angle_alpha 90.000000
_cell_angle_beta 62.359491
_cell_angle_gamma 90.000000
_cell_volume 2480.856260
_symmetry_space_group_name_H-M "C 2/C"
_symmetry_group_IT_number 15
_symmetry_cell_setting 'monoclinic'
loop_
_space_group_symop_operation_xyz
x,y,z
-x,y,1/2-z
-x,-y,-z
x,-y,1/2+z
1/2+x,1/2+y,z
1/2-x,1/2+y,1/2-z
1/2-x,1/2-y,-z
1/2+x,1/2-y,1/2+z
loop_
_atom_site_type_symbol
_atom_site_label
_atom_site_fract_x
_atom_site_fract_y
_atom_site_fract_z
Si Si1 0.109418 0.975212 0.938463
Si Si2 0.609555 0.362638 0.944483
Si Si3 0.312318 0.975498 0.627058
Si Si4 0.401449 0.687356 0.545643
Si Si5 0.717482 0.209519 0.727565
Si Si6 0.312348 0.863483 0.603657
Si Si7 0.917970 0.713768 0.226160
O O1 0.087608 0.918960 0.952280
O O2 0.211021 0.978050 0.783860
O O3 0.083066 0.003324 0.736442
O O4 0.581966 0.334952 0.742516
O O5 0.711934 0.359881 0.793084
O O6 0.576963 0.342699 0.248208
O O7 0.334987 0.919255 0.575722
O O8 0.340212 0.002088 0.340021
O O9 0.300845 0.689548 0.715893
O O10 0.431991 0.742443 0.522841
O O11 0.750000 0.250000 0.500000
O O12 0.673950 0.164271 0.666756
O O13 0.650916 0.235452 0.991353
O O14 0.369468 0.832011 0.693928
O O15 0.000000 0.701937 0.250000
#
# Coordination Sequence:
#
# PCOD9268979 Si02
#       7
#     8   8   8   8   8   8   8
#     4   9  16  28  47  80 118 146 181 242 303 343
#     4  10  20  33  58  83 116 159 201 238 293 363
#     4   9  19  32  53  81 113 150 196 249 305 357
#     4  11  21  37  57  84 117 158 203 239 294 366
#     4  11  21  39  62  86 118 159 206 254 294 372
#     4  10  21  35  58  84 115 158 201 253 302 359
#     4  12  25  39  58  87 124 159 203 258 307 359
#
# _framework density 22.572852000000001
#
# number of rings (size 3 to 8) (size 9 to 14) (size 15 to 20)
#    0.000    1.714    2.857    3.000    2.000    4.000 
#    0.000    0.000    0.000    0.857    0.000    0.000 
#    0.000   11.429    0.000    2.286    0.000    1.714 
#
# Total GULP energy -156531.541240 kJ/mol
# GULP energy per Si atom -5590.412187 kJ/mol
# Density = 2.252147 g / cm^3
# Si number density = 22.572852 Si / 1000 Ang^3
#
#
#
# Elastic Constant Matrix: (Units=GPa)
#
#
# Indices 1 2 3 4 5 6 
#
# 1 116.0097 51.1620 47.7583 0.0000 30.8225 0.0000
# 2 51.1620 197.7454 95.5589 0.0000 38.8493 0.0000
# 3 47.7583 95.5589 176.9044 0.0000 26.0872 0.0000
# 4 0.0000 0.0000 0.0000 33.1476 0.0000 16.8517
# 5 30.8225 38.8493 26.0872 0.0000 34.3087 0.0000
# 6 0.0000 0.0000 0.0000 16.8517 0.0000 16.7427
#
#
#
# Elastic Compliance Matrix: (Units=1/GPa)
#
#
# Indices 1 2 3 4 5 6 
#
# 1 0.011868 -0.000569 -0.001599 0.000000 -0.008802 0.000000
# 2 -0.000569 0.007963 -0.003259 0.000000 -0.006028 0.000000
# 3 -0.001599 -0.003259 0.007984 0.000000 -0.000944 0.000000
# 4 0.000000 0.000000 0.000000 0.061781 0.000000 -0.062183
# 5 -0.008802 -0.006028 -0.000944 0.000000 0.044599 0.000000
# 6 0.000000 0.000000 0.000000 -0.062183 0.000000 0.122316
#
#
# Mechanical properties :
#
#
# Convention : Reuss Voigt Hill
#
# Bulk Modulus (GPa) = 58.95474 97.73534 78.34504
# Shear Modulus (GPa) = 18.31382 36.58515 27.44949
#
# Velocity S-wave (km/s) = 2.85146 4.03023 3.49096
# Velocity P-wave (km/s) = 6.08402 8.06528 7.14367
#
# Compressibility (1/GPa) = 0.01696217
#
# Stress axis : x y z
#
# Youngs Moduli (GPa) = 84.26358 125.57422 125.24914
#
# Poissons Ratio (x) = 0.07140 0.20023
# Poissons Ratio (y) = 0.04791 0.40821
# Poissons Ratio (z) = 0.13471 0.40926
#
# Static dielectric constant tensor:
#      x y z
#    x 1.869960 0.000000 0.010090 
#    y 0.000000 1.791380 0.000000 
#    z 0.010090 0.000000 1.912220 
# 
# From -- ./inp_files/11495.got.cif
#   From: 2010.05.17/outbox.cif.g08.bks.cpg/sg15_6_cif.got.tgz:11495.got - 2010.06.03 18:47:42.
