data_PCOD9268065
_publ_section_title
;
Structure prediction by ZEFSAII (Michael W. Deem and Ramdas Pophale) SiO2 
 PCOD9268065
Probable space group: C 2/C
;
_chemical_formula_sum "Si O2"
_cell_formula_units_Z 64
_cell_length_a 11.443108
_cell_length_b 15.423267
_cell_length_c 17.032713
_cell_angle_alpha 90.000000
_cell_angle_beta 86.388889
_cell_angle_gamma 90.000000
_cell_volume 3000.136868
_symmetry_space_group_name_H-M "C 2/C"
_symmetry_group_IT_number 15
_symmetry_cell_setting 'monoclinic'
loop_
_space_group_symop_operation_xyz
x,y,z
-x,y,1/2-z
-x,-y,-z
x,-y,1/2+z
1/2+x,1/2+y,z
1/2-x,1/2+y,1/2-z
1/2-x,1/2-y,-z
1/2+x,1/2-y,1/2+z
loop_
_atom_site_type_symbol
_atom_site_label
_atom_site_fract_x
_atom_site_fract_y
_atom_site_fract_z
Si Si1 0.515753 0.837966 0.605902
Si Si2 0.610183 0.174994 0.924822
Si Si3 0.809696 0.482415 0.604536
Si Si4 0.865443 0.994961 0.034882
Si Si5 0.386623 0.729121 0.403756
Si Si6 0.266511 0.656676 0.134811
Si Si7 0.879834 0.081393 0.281100
Si Si8 0.639584 0.313050 0.409275
O O1 0.576758 0.827871 0.518038
O O2 0.412032 0.909543 0.603873
O O3 0.628236 0.859898 0.653295
O O4 0.456695 0.745989 0.628977
O O5 0.492864 0.206180 0.887159
O O6 0.706552 0.247682 0.900235
O O7 0.640599 0.078275 0.900839
O O8 0.727566 0.472049 0.530391
O O9 0.725013 0.476272 0.682841
O O10 0.862573 0.916214 0.097457
O O11 0.821751 0.085253 0.073413
O O12 0.000000 0.000000 0.000000
O O13 0.408254 0.643993 0.352721
O O14 0.380359 0.705423 0.496359
O O15 0.265432 0.773178 0.385195
O O16 0.332309 0.640991 0.213381
O O17 0.000000 0.036791 0.250000
#
# Coordination Sequence:
#
# PCOD9268065 Si02
#       8
#     8   8   8   8   8   8   8   8
#     4  11  23  42  70 106 136 172 222 295 342 405
#     4  11  23  42  72 100 136 177 226 288 340 402
#     4  12  25  44  73 101 138 179 233 286 345 402
#     4  12  23  40  68 105 135 180 234 292 329 402
#     4  10  19  41  70  95 127 177 227 275 339 405
#     4  12  27  42  66 102 146 181 221 283 355 412
#     4  12  24  49  66  93 139 188 226 283 347 419
#     4  10  20  38  71 102 129 166 235 283 336 387
#
# _framework density 21.332360999999999
#
# number of rings (size 3 to 8) (size 9 to 14) (size 15 to 20)
#    0.000    0.750    5.000    4.500    3.500    0.500 
#    2.250    1.250    0.000    0.000    0.000    0.000 
#    0.000    0.000    0.000    0.000    0.000    0.000 
#
# Total GULP energy -178860.887710 kJ/mol
# GULP energy per Si atom -5589.402741 kJ/mol
# Density = 2.128381 g / cm^3
# Si number density = 21.332361 Si / 1000 Ang^3
#
#
#
# Elastic Constant Matrix: (Units=GPa)
#
#
# Indices 1 2 3 4 5 6 
#
# 1 135.9931 22.8198 8.3886 0.0000 -0.8344 0.0000
# 2 22.8198 93.6349 -8.6826 0.0000 -3.4600 0.0000
# 3 8.3886 -8.6826 27.6531 0.0000 -2.4490 0.0000
# 4 0.0000 0.0000 0.0000 9.4529 0.0000 -3.4362
# 5 -0.8344 -3.4600 -2.4490 0.0000 18.5905 0.0000
# 6 0.0000 0.0000 0.0000 -3.4362 0.0000 38.6855
#
#
#
# Elastic Compliance Matrix: (Units=1/GPa)
#
#
# Indices 1 2 3 4 5 6 
#
# 1 0.007920 -0.002240 -0.003148 0.000000 -0.000476 0.000000
# 2 -0.002240 0.011752 0.004608 0.000000 0.002694 0.000000
# 3 -0.003148 0.004608 0.039084 0.000000 0.005865 0.000000
# 4 0.000000 0.000000 0.000000 0.109317 0.000000 0.009710
# 5 -0.000476 0.002694 0.005865 0.000000 0.055043 0.000000
# 6 0.000000 0.000000 0.000000 0.009710 0.000000 0.026712
#
#
# Mechanical properties :
#
#
# Convention : Reuss Voigt Hill
#
# Bulk Modulus (GPa) = 17.48347 33.59251 25.53799
# Shear Modulus (GPa) = 18.48745 28.99615 23.74180
#
# Velocity S-wave (km/s) = 2.94707 3.69081 3.33971
# Velocity P-wave (km/s) = 4.44902 5.82616 5.18353
#
# Compressibility (1/GPa) = 0.05719689
#
# Stress axis : x y z
#
# Youngs Moduli (GPa) = 126.25591 85.08837 25.58622
#
# Poissons Ratio (x) = 0.19058 0.08055
# Poissons Ratio (y) = 0.28279 -0.11790
# Poissons Ratio (z) = 0.39746 -0.39210
#
# Static dielectric constant tensor:
#      x y z
#    x 1.812520 0.000000 0.008760 
#    y 0.000000 1.767350 0.000000 
#    z 0.008760 0.000000 1.801300 
# 
# From -- ./inp_files/198350.got.cif
#   From: 2010.05.17/outbox.cif.g08.bks.cpg/sg15_100_cif.got.tgz:198350.got - 2010.06.03 18:47:42.
