data_PCOD9268077
_publ_section_title
;
Structure prediction by ZEFSAII (Michael W. Deem and Ramdas Pophale) SiO2 
 PCOD9268077
Probable space group: C 2/C
;
_chemical_formula_sum "Si O2"
_cell_formula_units_Z 40
_cell_length_a 10.570749
_cell_length_b 13.002990
_cell_length_c 20.998152
_cell_angle_alpha 90.000000
_cell_angle_beta 36.155275
_cell_angle_gamma 90.000000
_cell_volume 1702.801787
_symmetry_space_group_name_H-M "C 2/C"
_symmetry_group_IT_number 15
_symmetry_cell_setting 'monoclinic'
loop_
_space_group_symop_operation_xyz
x,y,z
-x,y,1/2-z
-x,-y,-z
x,-y,1/2+z
1/2+x,1/2+y,z
1/2-x,1/2+y,1/2-z
1/2-x,1/2-y,-z
1/2+x,1/2-y,1/2+z
loop_
_atom_site_type_symbol
_atom_site_label
_atom_site_fract_x
_atom_site_fract_y
_atom_site_fract_z
Si Si1 0.394679 0.350901 0.457324
Si Si2 0.836571 0.679052 0.706476
Si Si3 0.527011 0.019351 0.062871
Si Si4 0.749422 0.136262 0.157061
Si Si5 0.110327 0.883604 0.767871
O O1 0.250000 0.250000 0.500000
O O2 0.631468 0.344627 0.333007
O O3 0.376896 0.368815 0.539975
O O4 0.263570 0.443210 0.478926
O O5 0.960514 0.580129 0.631053
O O6 0.750402 0.745116 0.681047
O O7 0.972266 0.766722 0.688719
O O8 0.361294 0.109784 0.148294
O O9 0.500000 0.000000 0.000000
O O10 0.500000 0.103436 0.250000
O O11 0.869767 0.079996 0.166724
O O12 0.000000 0.931580 0.750000
#
# Coordination Sequence:
#
# PCOD9268077 Si02
#       5
#     8   8   8   8   8
#     4  12  20  43  75 101 136 190 243 293 347 426
#     4  10  25  42  70 106 140 183 240 296 352 423
#     4  12  26  40  73 108 139 187 247 290 353 428
#     4  10  19  41  72  94 133 187 243 273 350 420
#     4  10  24  45  67  99 151 176 222 300 363 412
#
# _framework density 23.490697999999998
#
# number of rings (size 3 to 8) (size 9 to 14) (size 15 to 20)
#    1.200    0.000    6.000    1.200    2.800    0.000 
#    3.600    5.000    0.000    0.000    0.000    0.000 
#    0.000    0.000    0.000    0.000    0.000    0.000 
#
# Total GULP energy -111551.012675 kJ/mol
# GULP energy per Si atom -5577.550634 kJ/mol
# Density = 2.343723 g / cm^3
# Si number density = 23.490698 Si / 1000 Ang^3
#
#
#
# Elastic Constant Matrix: (Units=GPa)
#
#
# Indices 1 2 3 4 5 6 
#
# 1 131.6089 8.9346 26.7743 -0.0002 39.1682 0.0001
# 2 8.9346 85.7455 8.7587 -0.0001 3.2175 0.0000
# 3 26.7743 8.7587 77.6295 -0.0003 37.8330 0.0000
# 4 -0.0002 -0.0001 -0.0003 32.6092 0.0000 -6.6457
# 5 39.1682 3.2175 37.8330 0.0000 52.1839 0.0000
# 6 0.0001 0.0000 0.0000 -6.6457 0.0000 22.7535
#
#
#
# Elastic Compliance Matrix: (Units=1/GPa)
#
#
# Indices 1 2 3 4 5 6 
#
# 1 0.009840 -0.000781 0.000418 0.000000 -0.007641 0.000000
# 2 -0.000781 0.011865 -0.001544 0.000000 0.000974 0.000000
# 3 0.000418 -0.001544 0.020131 0.000000 -0.014814 0.000000
# 4 0.000000 0.000000 0.000000 0.032607 0.000000 0.009524
# 5 -0.007641 0.000974 -0.014814 0.000000 0.035578 0.000000
# 6 0.000000 0.000000 0.000000 0.009524 0.000000 0.046731
#
#
# Mechanical properties :
#
#
# Convention : Reuss Voigt Hill
#
# Bulk Modulus (GPa) = 26.30075 42.65768 34.47922
# Shear Modulus (GPa) = 28.86160 38.21042 33.53601
#
# Velocity S-wave (km/s) = 3.50900 4.03751 3.78250
# Velocity P-wave (km/s) = 5.25718 6.31935 5.81258
#
# Compressibility (1/GPa) = 0.03802173
#
# Stress axis : x y z
#
# Youngs Moduli (GPa) = 101.62340 84.28159 49.67424
#
# Poissons Ratio (x) = 0.06585 -0.02077
# Poissons Ratio (y) = 0.07940 0.07670
# Poissons Ratio (z) = -0.04248 0.13013
#
# Static dielectric constant tensor:
#      x y z
#    x 1.880570 0.000000 0.012130 
#    y 0.000000 2.138260 0.000000 
#    z 0.012130 0.000000 1.863880 
# 
# From -- ./inp_files/238207.got.cif
#   From: 2010.05.17/outbox.cif.g08.bks.cpg/sg15_120_cif.got.tgz:238207.got - 2010.06.03 18:47:42.
