data_PCOD9268021
_publ_section_title
;
Structure prediction by ZEFSAII (Michael W. Deem and Ramdas Pophale) SiO2 
 PCOD9268021
Probable space group: C 2/C
;
_chemical_formula_sum "Si O2"
_cell_formula_units_Z 36
_cell_length_a 5.060468
_cell_length_b 25.562772
_cell_length_c 13.151165
_cell_angle_alpha 90.000000
_cell_angle_beta 93.869818
_cell_angle_gamma 90.000000
_cell_volume 1697.350453
_symmetry_space_group_name_H-M "C 2/C"
_symmetry_group_IT_number 15
_symmetry_cell_setting 'monoclinic'
loop_
_space_group_symop_operation_xyz
x,y,z
-x,y,1/2-z
-x,-y,-z
x,-y,1/2+z
1/2+x,1/2+y,z
1/2-x,1/2+y,1/2-z
1/2-x,1/2-y,-z
1/2+x,1/2-y,1/2+z
loop_
_atom_site_type_symbol
_atom_site_label
_atom_site_fract_x
_atom_site_fract_y
_atom_site_fract_z
Si Si1 0.000000 0.485129 0.250000
Si Si2 0.500000 0.829965 0.750000
Si Si3 0.690661 0.427995 0.659936
Si Si4 0.558272 0.636654 0.971333
Si Si5 0.500000 0.410007 0.250000
Si Si6 0.583302 0.200576 0.035202
O O1 0.087336 0.527004 0.338108
O O2 0.244760 0.447134 0.239487
O O3 0.285807 0.871014 0.702023
O O4 0.420511 0.795763 0.843303
O O5 0.500000 0.444445 0.750000
O O6 0.616861 0.414336 0.542476
O O7 0.517158 0.623936 0.852629
O O8 0.277946 0.654101 0.009317
O O9 0.789426 0.681512 0.991306
O O10 0.750000 0.250000 0.000000
#
# Coordination Sequence:
#
# PCOD9268021 Si02
#       6
#     4   4   8   8   4   8
#     4  11  24  40  66  95 128 173 230 268 314 395
#     4   9  20  37  66  96 130 160 212 281 326 373
#     4  10  19  41  66  94 122 167 231 276 314 364
#     4  11  25  43  67  92 138 174 211 272 333 386
#     4  12  26  45  58  97 142 181 206 253 346 406
#     4  11  23  42  69 101 125 168 221 270 326 389
#
# _framework density 21.209527999999999
#
# number of rings (size 3 to 8) (size 9 to 14) (size 15 to 20)
#    0.000    1.333    3.333    2.000    0.000    2.667 
#    0.000    4.444    0.000    0.000    0.000    0.000 
#    0.000    0.000    0.000    0.000    0.000    0.000 
#
# Total GULP energy -100237.760878 kJ/mol
# GULP energy per Si atom -5568.764493 kJ/mol
# Density = 2.116125 g / cm^3
# Si number density = 21.209528 Si / 1000 Ang^3
#
#
#
# Elastic Constant Matrix: (Units=GPa)
#
#
# Indices 1 2 3 4 5 6 
#
# 1 99.7346 6.6392 31.1922 0.0000 -12.1457 0.0000
# 2 6.6392 42.3802 39.1934 0.0000 -9.4783 0.0000
# 3 31.1922 39.1934 196.6832 0.0000 -7.1742 0.0000
# 4 0.0000 0.0000 0.0000 -0.4230 0.0000 -15.1299
# 5 -12.1457 -9.4783 -7.1742 0.0000 20.3256 0.0000
# 6 0.0000 0.0000 0.0000 -15.1299 0.0000 39.9581
#
#
#
# Elastic Compliance Matrix: (Units=1/GPa)
#
#
# Indices 1 2 3 4 5 6 
#
# 1 0.011333 0.001444 -0.001837 0.000000 0.006797 0.000000
# 2 0.001444 0.032091 -0.006125 0.000000 0.013665 0.000000
# 3 -0.001837 -0.006125 0.006536 0.000000 -0.001647 0.000000
# 4 0.000000 0.000000 0.000000 -0.162554 0.000000 -0.061550
# 5 0.006797 0.013665 -0.001647 0.000000 0.059052 0.000000
# 6 0.000000 0.000000 0.000000 -0.061550 0.000000 0.001721
#
#
# Mechanical properties :
#
#
# Convention : Reuss Voigt Hill
#
# Bulk Modulus (GPa) = 27.08397 54.76085 40.92241
# Shear Modulus (GPa) = -188.84456 29.42368 -79.71044
#
# Velocity S-wave (km/s) = -9.44621 3.72867 -6.13710
# Velocity P-wave (km/s) = 10.30423 6.66426 5.55719
#
# Compressibility (1/GPa) = 0.03692221
#
# Stress axis : x y z
#
# Youngs Moduli (GPa) = 88.23982 31.16172 152.99486
#
# Poissons Ratio (x) = -0.04498 0.28106
# Poissons Ratio (y) = -0.12738 0.93713
# Poissons Ratio (z) = 0.16210 0.19087
#
# Static dielectric constant tensor:
#      x y z
#    x 1.881590 0.000000 0.031220 
#    y 0.000000 1.788120 0.000000 
#    z 0.031220 0.000000 1.780000 
# 
# From -- ./inp_files/72515.got.cif
#   From: 2010.05.17/outbox.cif.g08.bks.cpg/sg15_37_cif.got.tgz:72515.got - 2010.06.03 18:47:42.
