data_PCOD9268005
_publ_section_title
;
Structure prediction by ZEFSAII (Michael W. Deem and Ramdas Pophale) SiO2 
 PCOD9268005
Probable space group: C 2/C
;
_chemical_formula_sum "Si O2"
_cell_formula_units_Z 40
_cell_length_a 7.817927
_cell_length_b 12.909828
_cell_length_c 17.616538
_cell_angle_alpha 90.000000
_cell_angle_beta 102.496166
_cell_angle_gamma 90.000000
_cell_volume 1735.883547
_symmetry_space_group_name_H-M "C 2/C"
_symmetry_group_IT_number 15
_symmetry_cell_setting 'monoclinic'
loop_
_space_group_symop_operation_xyz
x,y,z
-x,y,1/2-z
-x,-y,-z
x,-y,1/2+z
1/2+x,1/2+y,z
1/2-x,1/2+y,1/2-z
1/2-x,1/2-y,-z
1/2+x,1/2-y,1/2+z
loop_
_atom_site_type_symbol
_atom_site_label
_atom_site_fract_x
_atom_site_fract_y
_atom_site_fract_z
Si Si1 0.891677 0.128679 0.569045
Si Si2 0.842463 0.912067 0.287910
Si Si3 0.698875 0.308969 0.758674
Si Si4 0.138734 0.510595 0.145387
Si Si5 0.791012 0.365702 0.599720
O O1 0.868851 0.250468 0.588609
O O2 0.859844 0.118438 0.476861
O O3 0.074645 0.085045 0.620248
O O4 0.732888 0.065716 0.595100
O O5 0.819620 0.790749 0.270449
O O6 0.000000 0.953967 0.250000
O O7 0.671746 0.958764 0.231243
O O8 0.500000 0.277127 0.750000
O O9 0.756253 0.382405 0.832914
O O10 0.721740 0.362534 0.678997
O O11 0.942275 0.546919 0.108851
#
# Coordination Sequence:
#
# PCOD9268005 Si02
#       5
#     8   8   8   8   8
#     4  10  21  41  71 103 144 180 233 299 361 419
#     4  10  19  41  65  98 137 177 234 288 341 418
#     4  12  23  39  63  99 138 184 241 283 340 426
#     4  11  21  40  70  98 132 189 236 285 354 426
#     4  11  22  41  70 102 143 188 229 297 363 411
#
# _framework density 23.043021
#
# number of rings (size 3 to 8) (size 9 to 14) (size 15 to 20)
#    0.000    1.200    6.000    3.000    0.000    1.600 
#    0.000    5.000    0.000    0.000    0.000    0.000 
#    0.000    0.000    0.000    0.000    0.000    0.000 
#
# Total GULP energy -111657.992427 kJ/mol
# GULP energy per Si atom -5582.899621 kJ/mol
# Density = 2.299057 g / cm^3
# Si number density = 23.043021 Si / 1000 Ang^3
#
#
#
# Elastic Constant Matrix: (Units=GPa)
#
#
# Indices 1 2 3 4 5 6 
#
# 1 59.9768 -4.7121 2.3126 0.0000 5.1924 0.0000
# 2 -4.7121 76.9545 14.5369 0.0000 0.2913 0.0000
# 3 2.3126 14.5369 128.8401 0.0000 16.5028 0.0000
# 4 0.0000 0.0000 0.0000 34.9705 0.0000 10.4676
# 5 5.1924 0.2913 16.5028 0.0000 31.1305 0.0000
# 6 0.0000 0.0000 0.0000 10.4676 0.0000 32.1626
#
#
#
# Elastic Compliance Matrix: (Units=1/GPa)
#
#
# Indices 1 2 3 4 5 6 
#
# 1 0.017003 0.001064 -0.000065 0.000000 -0.002811 0.000000
# 2 0.001064 0.013359 -0.001596 0.000000 0.000544 0.000000
# 3 -0.000065 -0.001596 0.008518 0.000000 -0.004490 0.000000
# 4 0.000000 0.000000 0.000000 0.031682 0.000000 -0.010311
# 5 -0.002811 0.000544 -0.004490 0.000000 0.034967 0.000000
# 6 0.000000 0.000000 0.000000 -0.010311 0.000000 0.034448
#
#
# Mechanical properties :
#
#
# Convention : Reuss Voigt Hill
#
# Bulk Modulus (GPa) = 26.53538 32.22736 29.38137
# Shear Modulus (GPa) = 32.52403 36.56164 34.54283
#
# Velocity S-wave (km/s) = 3.76100 3.98762 3.87597
# Velocity P-wave (km/s) = 5.51369 5.93444 5.72793
#
# Compressibility (1/GPa) = 0.03768553
#
# Stress axis : x y z
#
# Youngs Moduli (GPa) = 58.81447 74.85426 117.40010
#
# Poissons Ratio (x) = -0.07965 0.00765
# Poissons Ratio (y) = -0.06258 0.18738
# Poissons Ratio (z) = 0.00383 0.11947
#
# Static dielectric constant tensor:
#      x y z
#    x 1.862560 0.000000 -0.000570 
#    y 0.000000 1.928990 0.000000 
#    z -0.000570 0.000000 1.854350 
# 
# From -- ./inp_files/230018.got.cif
#   From: 2010.05.17/outbox.cif.g08.bks.cpg/sg15_116_cif.got.tgz:230018.got - 2010.06.03 18:47:42.
