data_PCOD9268534
_publ_section_title
;
Structure prediction by ZEFSAII (Michael W. Deem and Ramdas Pophale) SiO2 
 PCOD9268534
Probable space group: C 2/C
;
_chemical_formula_sum "Si O2"
_cell_formula_units_Z 52
_cell_length_a 23.678984
_cell_length_b 5.280065
_cell_length_c 18.666721
_cell_angle_alpha 90.000000
_cell_angle_beta 112.969630
_cell_angle_gamma 90.000000
_cell_volume 2148.790595
_symmetry_space_group_name_H-M "C 2/C"
_symmetry_group_IT_number 15
_symmetry_cell_setting 'monoclinic'
loop_
_space_group_symop_operation_xyz
x,y,z
-x,y,1/2-z
-x,-y,-z
x,-y,1/2+z
1/2+x,1/2+y,z
1/2-x,1/2+y,1/2-z
1/2-x,1/2-y,-z
1/2+x,1/2-y,1/2+z
loop_
_atom_site_type_symbol
_atom_site_label
_atom_site_fract_x
_atom_site_fract_y
_atom_site_fract_z
Si Si1 0.030033 0.595830 0.127531
Si Si2 0.500000 0.819840 0.250000
Si Si3 0.667315 0.184819 0.337100
Si Si4 0.259956 0.690172 0.089004
Si Si5 0.571025 0.453834 0.378893
Si Si6 0.552685 0.299547 0.001559
Si Si7 0.287772 0.720238 0.787518
O O1 0.037796 0.459643 0.206231
O O2 0.995506 0.846860 0.134999
O O3 0.980518 0.418242 0.061195
O O4 0.075575 0.672097 0.086203
O O5 0.554136 0.665843 0.314472
O O6 0.715426 0.403690 0.387809
O O7 0.610242 0.243092 0.359658
O O8 0.660569 0.238615 0.248469
O O9 0.691010 0.902715 0.361916
O O10 0.207901 0.732605 0.124767
O O11 0.250000 0.750000 0.000000
O O12 0.596539 0.559291 0.466746
O O13 0.500000 0.500000 0.000000
O O14 0.262004 0.435518 0.762155
#
# Coordination Sequence:
#
# PCOD9268534 Si02
#       7
#     8   4   8   8   8   8   8
#     4   9  17  32  54  73 105 152 198 238 285 345
#     4  10  20  32  54  80 112 156 200 244 294 342
#     4  10  21  35  62  89 118 154 194 238 291 362
#     4  10  20  37  63  87 117 153 193 240 295 355
#     4  10  20  33  55  83 115 149 200 240 293 348
#     4   8  16  31  53  75 100 149 198 233 284 348
#     4   8  16  33  56  83 110 151 183 223 293 360
#
# _framework density 24.199659
#
# number of rings (size 3 to 8) (size 9 to 14) (size 15 to 20)
#    0.000    2.769    0.000    0.923    4.308    0.000 
#    0.000    0.000   23.692    0.000    0.000    0.000 
#    0.000    0.000    0.000    0.000    0.000    0.000 
#
# Total GULP energy -144866.563304 kJ/mol
# GULP energy per Si atom -5571.790896 kJ/mol
# Density = 2.414458 g / cm^3
# Si number density = 24.199659 Si / 1000 Ang^3
#
#
#
# Elastic Constant Matrix: (Units=GPa)
#
#
# Indices 1 2 3 4 5 6 
#
# 1 62.9679 6.5337 29.3923 0.0000 -29.5659 0.0000
# 2 6.5337 90.7387 25.9919 -0.0003 0.9073 0.0010
# 3 29.3923 25.9919 193.7337 -0.0001 -36.5954 0.0002
# 4 0.0000 -0.0003 -0.0001 47.2139 0.0000 -20.8810
# 5 -29.5659 0.9073 -36.5954 0.0000 33.8115 0.0000
# 6 0.0000 0.0010 0.0002 -20.8810 0.0000 15.9145
#
#
#
# Elastic Compliance Matrix: (Units=1/GPa)
#
#
# Indices 1 2 3 4 5 6 
#
# 1 0.027498 -0.002489 0.000901 0.000000 0.025087 0.000001
# 2 -0.002489 0.011854 -0.002117 -0.000001 -0.004786 -0.000002
# 3 0.000901 -0.002117 0.006874 0.000000 0.008284 0.000000
# 4 0.000000 -0.000001 0.000000 0.050463 0.000000 0.066211
# 5 0.025087 -0.004786 0.008284 0.000000 0.060608 0.000001
# 6 0.000001 -0.000002 0.000000 0.066211 0.000001 0.149709
#
#
# Mechanical properties :
#
#
# Convention : Reuss Voigt Hill
#
# Bulk Modulus (GPa) = 25.76208 52.36402 39.06305
# Shear Modulus (GPa) = 15.27398 38.42283 26.84840
#
# Velocity S-wave (km/s) = 2.51503 3.98897 3.33446
# Velocity P-wave (km/s) = 4.37065 6.54990 5.56793
#
# Compressibility (1/GPa) = 0.03881674
#
# Stress axis : x y z
#
# Youngs Moduli (GPa) = 36.36586 84.35922 145.47707
#
# Poissons Ratio (x) = 0.20997 -0.13106
# Poissons Ratio (y) = 0.09051 0.30794
# Poissons Ratio (z) = -0.03276 0.17857
#
# Static dielectric constant tensor:
#      x y z
#    x 2.080990 0.000000 -0.045090 
#    y 0.000000 1.966510 0.000000 
#    z -0.045090 0.000000 2.146850 
# 
# From -- ./inp_files/220938.got.cif
#   From: 2010.05.17/outbox.cif.g08.bks.cpg/sg15_111_cif.got.tgz:220938.got - 2010.06.03 18:47:42.
