data_PCOD9268178
_publ_section_title
;
Structure prediction by ZEFSAII (Michael W. Deem and Ramdas Pophale) SiO2 
 PCOD9268178
Probable space group: C 2/C
;
_chemical_formula_sum "Si O2"
_cell_formula_units_Z 64
_cell_length_a 9.510708
_cell_length_b 15.457448
_cell_length_c 29.640538
_cell_angle_alpha 90.000000
_cell_angle_beta 131.123077
_cell_angle_gamma 90.000000
_cell_volume 3282.493403
_symmetry_space_group_name_H-M "C 2/C"
_symmetry_group_IT_number 15
_symmetry_cell_setting 'monoclinic'
loop_
_space_group_symop_operation_xyz
x,y,z
-x,y,1/2-z
-x,-y,-z
x,-y,1/2+z
1/2+x,1/2+y,z
1/2-x,1/2+y,1/2-z
1/2-x,1/2-y,-z
1/2+x,1/2-y,1/2+z
loop_
_atom_site_type_symbol
_atom_site_label
_atom_site_fract_x
_atom_site_fract_y
_atom_site_fract_z
Si Si1 0.709462 0.983343 0.061506
Si Si2 0.160573 0.245352 0.687018
Si Si3 0.404241 0.776507 0.323620
Si Si4 0.635542 0.083211 0.818155
Si Si5 0.471770 0.465179 0.443397
Si Si6 0.270379 0.789297 0.396711
Si Si7 0.552540 0.268949 0.481884
Si Si8 0.264301 0.650291 0.125986
O O1 0.724353 0.886061 0.082475
O O2 0.857900 0.994845 0.052381
O O3 0.758427 0.050815 0.111361
O O4 0.500000 0.000000 0.000000
O O5 0.242132 0.245707 0.754130
O O6 0.239976 0.157079 0.680874
O O7 0.238369 0.323377 0.672719
O O8 0.938539 0.245237 0.640592
O O9 0.509767 0.861882 0.326776
O O10 0.329201 0.789482 0.357551
O O11 0.551445 0.698320 0.352460
O O12 0.500000 0.046308 0.750000
O O13 0.775714 0.020862 0.875325
O O14 0.500000 0.500000 0.500000
O O15 0.482595 0.361509 0.451273
O O16 0.411526 0.734296 0.457279
O O17 0.750000 0.250000 0.500000
O O18 0.407658 0.196696 0.435783
#
# Coordination Sequence:
#
# PCOD9268178 Si02
#       8
#     8   8   8   8   8   8   8   8
#     4  12  25  40  60 100 134 163 212 277 328 386
#     4  10  19  43  67  87 123 173 216 256 324 393
#     4  10  23  38  67  97 118 163 226 265 309 393
#     4   9  18  40  67  88 121 170 213 259 321 394
#     4  12  25  40  66  96 131 168 217 270 330 387
#     4  12  23  39  67  95 133 164 218 269 323 386
#     4  12  20  41  64  88 122 177 203 252 329 393
#     4  11  21  40  67  89 129 165 213 260 325 386
#
# _framework density 19.497373
#
# number of rings (size 3 to 8) (size 9 to 14) (size 15 to 20)
#    0.000    1.000    7.500    1.500    3.500    0.500 
#    0.000    2.500    2.750    0.000    0.000    0.000 
#    0.000    0.000    0.000    0.000    0.000    0.000 
#
# Total GULP energy -178781.945913 kJ/mol
# GULP energy per Si atom -5586.935810 kJ/mol
# Density = 1.945300 g / cm^3
# Si number density = 19.497373 Si / 1000 Ang^3
#
#
#
# Elastic Constant Matrix: (Units=GPa)
#
#
# Indices 1 2 3 4 5 6 
#
# 1 71.1338 2.3285 35.4145 0.0000 -23.8635 0.0000
# 2 2.3285 33.9877 11.3346 0.0000 3.4331 0.0000
# 3 35.4145 11.3346 141.7469 0.0000 -15.0742 0.0000
# 4 0.0000 0.0000 0.0000 30.1281 0.0000 -1.9291
# 5 -23.8635 3.4331 -15.0742 0.0000 35.9646 0.0000
# 6 0.0000 0.0000 0.0000 -1.9291 0.0000 14.0630
#
#
#
# Elastic Compliance Matrix: (Units=1/GPa)
#
#
# Indices 1 2 3 4 5 6 
#
# 1 0.019849 -0.001351 -0.003597 0.000000 0.011792 0.000000
# 2 -0.001351 0.030904 -0.002661 0.000000 -0.004962 0.000000
# 3 -0.003597 -0.002661 0.008310 0.000000 0.001350 0.000000
# 4 0.000000 0.000000 0.000000 0.033486 0.000000 0.004593
# 5 0.011792 -0.004962 0.001350 0.000000 0.036669 0.000000
# 6 0.000000 0.000000 0.000000 0.004593 0.000000 0.071739
#
#
# Mechanical properties :
#
#
# Convention : Reuss Voigt Hill
#
# Bulk Modulus (GPa) = 22.80853 38.33595 30.57224
# Shear Modulus (GPa) = 21.66477 29.21720 25.44099
#
# Velocity S-wave (km/s) = 3.33703 3.87527 3.61618
# Velocity P-wave (km/s) = 5.15474 6.30305 5.75759
#
# Compressibility (1/GPa) = 0.04384326
#
# Stress axis : x y z
#
# Youngs Moduli (GPa) = 50.38083 32.35854 120.33788
#
# Poissons Ratio (x) = 0.04373 0.43286
# Poissons Ratio (y) = 0.06808 0.32025
# Poissons Ratio (z) = 0.18122 0.08611
#
# Static dielectric constant tensor:
#      x y z
#    x 1.653030 0.000000 -0.013080 
#    y 0.000000 1.681060 0.000000 
#    z -0.013080 0.000000 1.691750 
# 
# From -- ./inp_files/308305.got.cif
#   From: 2010.05.17/outbox.cif.g08.bks.cpg/sg15_155_cif.got.tgz:308305.got - 2010.06.03 18:47:42.
