data_PCOD9268380
_publ_section_title
;
Structure prediction by ZEFSAII (Michael W. Deem and Ramdas Pophale) SiO2 
 PCOD9268380
Probable space group: C 2/C
;
_chemical_formula_sum "Si O2"
_cell_formula_units_Z 52
_cell_length_a 21.109627
_cell_length_b 17.847408
_cell_length_c 5.844356
_cell_angle_alpha 90.000000
_cell_angle_beta 86.790617
_cell_angle_gamma 90.000000
_cell_volume 2198.420149
_symmetry_space_group_name_H-M "C 2/C"
_symmetry_group_IT_number 15
_symmetry_cell_setting 'monoclinic'
loop_
_space_group_symop_operation_xyz
x,y,z
-x,y,1/2-z
-x,-y,-z
x,-y,1/2+z
1/2+x,1/2+y,z
1/2-x,1/2+y,1/2-z
1/2-x,1/2-y,-z
1/2+x,1/2-y,1/2+z
loop_
_atom_site_type_symbol
_atom_site_label
_atom_site_fract_x
_atom_site_fract_y
_atom_site_fract_z
Si Si1 0.939801 0.182042 0.641165
Si Si2 0.579154 0.976868 0.846726
Si Si3 0.777156 0.695125 0.308897
Si Si4 0.227588 0.469444 0.296564
Si Si5 0.194974 0.157007 0.937517
Si Si6 0.910303 0.332197 0.892217
Si Si7 0.000000 0.290339 0.250000
O O1 0.877988 0.134709 0.587150
O O2 0.920186 0.245359 0.830968
O O3 0.000000 0.142703 0.750000
O O4 0.961657 0.233531 0.423738
O O5 0.570785 0.887160 0.817101
O O6 0.555389 0.002487 0.602244
O O7 0.652244 0.009191 0.823109
O O8 0.750000 0.750000 0.500000
O O9 0.805718 0.753164 0.113427
O O10 0.835612 0.652400 0.410222
O O11 0.724231 0.649379 0.184348
O O12 0.249871 0.493195 0.547379
O O13 0.257029 0.387255 0.237617
O O14 0.950185 0.340160 0.114812
#
# Coordination Sequence:
#
# PCOD9268380 Si02
#       7
#     8   8   8   8   8   8   4
#     4   9  20  39  60  89 113 152 198 253 316 357
#     4  10  22  36  57  82 117 165 203 241 293 356
#     4  10  20  31  55  90 117 149 189 255 319 365
#     4  10  22  39  58  86 123 167 202 241 299 369
#     4  10  21  35  57  88 121 151 202 251 307 373
#     4  10  21  36  56  83 118 152 201 251 298 363
#     4  10  20  38  62  80 112 156 200 254 312 362
#
# _framework density 23.653352000000002
#
# number of rings (size 3 to 8) (size 9 to 14) (size 15 to 20)
#    0.000    2.154    0.000    2.769    8.615    0.000 
#    0.000    0.769    0.000    0.923    0.000    0.000 
#    0.000    0.000    0.000    0.000    0.000    0.000 
#
# Total GULP energy -144939.242882 kJ/mol
# GULP energy per Si atom -5574.586265 kJ/mol
# Density = 2.359952 g / cm^3
# Si number density = 23.653352 Si / 1000 Ang^3
#
#
#
# Elastic Constant Matrix: (Units=GPa)
#
#
# Indices 1 2 3 4 5 6 
#
# 1 144.6820 18.6879 69.4886 0.0000 29.2279 0.0000
# 2 18.6879 53.9373 30.5674 0.0000 6.8428 0.0000
# 3 69.4886 30.5674 172.2094 0.0000 10.4598 0.0000
# 4 0.0000 0.0000 0.0000 32.5630 0.0000 -8.7120
# 5 29.2279 6.8428 10.4598 0.0000 37.5223 0.0000
# 6 0.0000 0.0000 0.0000 -8.7120 0.0000 17.1478
#
#
#
# Elastic Compliance Matrix: (Units=1/GPa)
#
#
# Indices 1 2 3 4 5 6 
#
# 1 0.010050 -0.000625 -0.003536 0.000000 -0.006729 0.000000
# 2 -0.000625 0.020943 -0.003319 0.000000 -0.002407 0.000000
# 3 -0.003536 -0.003319 0.007750 0.000000 0.001199 0.000000
# 4 0.000000 0.000000 0.000000 0.035541 0.000000 0.018057
# 5 -0.006729 -0.002407 0.001199 0.000000 0.031997 0.000000
# 6 0.000000 0.000000 0.000000 0.018057 0.000000 0.067490
#
#
# Mechanical properties :
#
#
# Convention : Reuss Voigt Hill
#
# Bulk Modulus (GPa) = 42.04541 67.59072 54.81806
# Shear Modulus (GPa) = 25.42496 34.25229 29.83862
#
# Velocity S-wave (km/s) = 3.28212 3.80951 3.55561
# Velocity P-wave (km/s) = 5.67251 6.92729 6.33106
#
# Compressibility (1/GPa) = 0.02378381
#
# Stress axis : x y z
#
# Youngs Moduli (GPa) = 99.50420 47.74885 129.03408
#
# Poissons Ratio (x) = 0.02983 0.45622
# Poissons Ratio (y) = 0.06215 0.42828
# Poissons Ratio (z) = 0.35181 0.15848
#
# Static dielectric constant tensor:
#      x y z
#    x 2.009240 0.000000 0.002820 
#    y 0.000000 1.926380 0.000000 
#    z 0.002820 0.000000 1.997420 
# 
# From -- ./inp_files/13401.got.cif
#   From: 2010.05.17/outbox.cif.g08.bks.cpg/sg15_7_cif.got.tgz:13401.got - 2010.06.03 18:47:42.
