data_PCOD9268378
_publ_section_title
;
Structure prediction by ZEFSAII (Michael W. Deem and Ramdas Pophale) SiO2 
 PCOD9268378
Probable space group: C 2/C
;
_chemical_formula_sum "Si O2"
_cell_formula_units_Z 52
_cell_length_a 5.654094
_cell_length_b 22.679459
_cell_length_c 21.479154
_cell_angle_alpha 90.000000
_cell_angle_beta 93.713314
_cell_angle_gamma 90.000000
_cell_volume 2748.528020
_symmetry_space_group_name_H-M "C 2/C"
_symmetry_group_IT_number 15
_symmetry_cell_setting 'monoclinic'
loop_
_space_group_symop_operation_xyz
x,y,z
-x,y,1/2-z
-x,-y,-z
x,-y,1/2+z
1/2+x,1/2+y,z
1/2-x,1/2+y,1/2-z
1/2-x,1/2-y,-z
1/2+x,1/2-y,1/2+z
loop_
_atom_site_type_symbol
_atom_site_label
_atom_site_fract_x
_atom_site_fract_y
_atom_site_fract_z
Si Si1 0.493976 0.570905 0.578491
Si Si2 0.500000 0.920375 0.750000
Si Si3 0.189836 0.528601 0.457916
Si Si4 0.860152 0.994736 0.684148
Si Si5 0.184742 0.110197 0.140193
Si Si6 0.522276 0.708975 0.570348
Si Si7 0.021736 0.230262 0.079011
O O1 0.376522 0.556994 0.509633
O O2 0.718872 0.527365 0.580085
O O3 0.340895 0.546659 0.633848
O O4 0.541949 0.639584 0.584373
O O5 0.623491 0.964654 0.704110
O O6 0.678683 0.881417 0.792877
O O7 0.142993 0.582538 0.410113
O O8 0.000000 0.500000 0.500000
O O9 0.000000 0.011868 0.750000
O O10 0.998812 0.941543 0.652201
O O11 0.059933 0.168229 0.113683
O O12 0.270299 0.733799 0.592154
O O13 0.501677 0.718301 0.495409
O O14 0.771232 0.739807 0.594153
#
# Coordination Sequence:
#
# PCOD9268378 Si02
#       7
#     8   4   8   8   8   8   8
#     4  10  20  35  54  86 119 153 197 244 307 368
#     4  10  20  36  60  86 112 158 198 260 314 360
#     4  10  20  31  55  88 120 150 189 249 304 368
#     4   9  20  37  57  84 114 150 201 251 311 360
#     4  10  20  36  57  87 115 156 200 253 302 360
#     4  10  22  38  58  88 123 163 196 243 302 364
#     4  10  22  38  59  86 122 161 203 243 294 366
#
# _framework density 18.919218999999998
#
# number of rings (size 3 to 8) (size 9 to 14) (size 15 to 20)
#    0.000    2.154    1.538    0.923    4.308    1.231 
#    0.000    0.000    1.692    0.000    0.000    0.000 
#    0.000    0.000    0.000    0.000    0.000    0.000 
#
# Total GULP energy -144812.954773 kJ/mol
# GULP energy per Si atom -5569.729030 kJ/mol
# Density = 1.887616 g / cm^3
# Si number density = 18.919219 Si / 1000 Ang^3
#
#
#
# Elastic Constant Matrix: (Units=GPa)
#
#
# Indices 1 2 3 4 5 6 
#
# 1 95.7388 57.3444 27.5289 0.0000 -2.5701 0.0000
# 2 57.3444 130.9323 49.0871 0.0000 11.7645 0.0000
# 3 27.5289 49.0871 59.1556 0.0000 -3.4435 0.0000
# 4 0.0000 0.0000 0.0000 21.1651 0.0000 8.0242
# 5 -2.5701 11.7645 -3.4435 0.0000 25.4481 0.0000
# 6 0.0000 0.0000 0.0000 8.0242 0.0000 10.4381
#
#
#
# Elastic Compliance Matrix: (Units=1/GPa)
#
#
# Indices 1 2 3 4 5 6 
#
# 1 0.014738 -0.006322 -0.001366 0.000000 0.004226 0.000000
# 2 -0.006322 0.014947 -0.009979 0.000000 -0.008899 0.000000
# 3 -0.001366 -0.009979 0.026289 0.000000 0.008032 0.000000
# 4 0.000000 0.000000 0.000000 0.066682 0.000000 -0.051261
# 5 0.004226 -0.008899 0.008032 0.000000 0.044923 0.000000
# 6 0.000000 0.000000 0.000000 -0.051261 0.000000 0.135210
#
#
# Mechanical properties :
#
#
# Convention : Reuss Voigt Hill
#
# Bulk Modulus (GPa) = 48.45282 61.52750 54.99016
# Shear Modulus (GPa) = 14.49257 21.53467 18.01362
#
# Velocity S-wave (km/s) = 2.77072 3.37745 3.08901
# Velocity P-wave (km/s) = 5.99181 6.91385 6.46928
#
# Compressibility (1/GPa) = 0.02063863
#
# Stress axis : x y z
#
# Youngs Moduli (GPa) = 67.85009 66.90144 38.03945
#
# Poissons Ratio (x) = 0.42298 0.05197
# Poissons Ratio (y) = 0.42898 0.37960
# Poissons Ratio (z) = 0.09270 0.66761
#
# Static dielectric constant tensor:
#      x y z
#    x 1.754990 0.000000 -0.002360 
#    y 0.000000 1.639750 0.000000 
#    z -0.002360 0.000000 1.696400 
# 
# From -- ./inp_files/227477.got.cif
#   From: 2010.05.17/outbox.cif.g08.bks.cpg/sg15_114_cif.got.tgz:227477.got - 2010.06.03 18:47:42.
