data_PCOD9268470
_publ_section_title
;
Structure prediction by ZEFSAII (Michael W. Deem and Ramdas Pophale) SiO2 
 PCOD9268470
Probable space group: C 2/C
;
_chemical_formula_sum "Si O2"
_cell_formula_units_Z 60
_cell_length_a 29.069062
_cell_length_b 17.375786
_cell_length_c 11.464547
_cell_angle_alpha 90.000000
_cell_angle_beta 25.918730
_cell_angle_gamma 90.000000
_cell_volume 2531.098464
_symmetry_space_group_name_H-M "C 2/C"
_symmetry_group_IT_number 15
_symmetry_cell_setting 'monoclinic'
loop_
_space_group_symop_operation_xyz
x,y,z
-x,y,1/2-z
-x,-y,-z
x,-y,1/2+z
1/2+x,1/2+y,z
1/2-x,1/2+y,1/2-z
1/2-x,1/2-y,-z
1/2+x,1/2-y,1/2+z
loop_
_atom_site_type_symbol
_atom_site_label
_atom_site_fract_x
_atom_site_fract_y
_atom_site_fract_z
Si Si1 0.306990 0.904355 0.293926
Si Si2 0.000000 0.503833 0.750000
Si Si3 0.695976 0.549887 0.498737
Si Si4 0.652997 0.885582 0.029891
Si Si5 0.467338 0.737073 0.199577
Si Si6 0.475314 0.349127 0.167170
Si Si7 0.675113 0.175240 0.153014
Si Si8 0.884004 0.298277 0.954882
O O1 0.327577 0.888945 0.379213
O O2 0.210959 0.960954 0.491246
O O3 0.303388 0.823528 0.236260
O O4 0.408016 0.951168 0.013019
O O5 0.055607 0.560048 0.715378
O O6 0.577022 0.576817 0.769092
O O7 0.767005 0.602374 0.422809
O O8 0.748155 0.574304 0.257527
O O9 0.628503 0.796215 0.057481
O O10 0.500000 0.696770 0.250000
O O11 0.460067 0.690853 0.090305
O O12 0.564498 0.795973 0.956061
O O13 0.500000 0.364695 0.250000
O O14 0.384211 0.285331 0.397850
O O15 0.644810 0.150605 0.090419
O O16 0.750000 0.250000 0.000000
O O17 0.000000 0.303021 0.750000
#
# Coordination Sequence:
#
# PCOD9268470 Si02
#       8
#     8   4   8   8   8   8   8   8
#     4  11  22  33  56  90 125 159 198 245 306 382
#     4  10  20  32  50  82 130 166 180 226 298 390
#     4  11  23  38  58  88 126 166 201 253 310 376
#     4  11  21  35  53  90 125 159 197 246 303 369
#     4  11  19  34  60  92 126 156 205 254 306 371
#     4  10  22  42  66  87 121 170 211 258 313 373
#     4  11  20  37  57  82 123 166 203 238 297 378
#     4  10  20  35  59  89 119 156 197 243 309 380
#
# _framework density 23.705121999999999
#
# number of rings (size 3 to 8) (size 9 to 14) (size 15 to 20)
#    0.000    1.333    5.333    3.600    3.733    0.000 
#    0.000    4.000    0.000    0.800    0.000    0.000 
#    0.000    0.000    0.000    0.000    0.000    0.000 
#
# Total GULP energy -167234.206825 kJ/mol
# GULP energy per Si atom -5574.473561 kJ/mol
# Density = 2.365117 g / cm^3
# Si number density = 23.705122 Si / 1000 Ang^3
#
#
#
# Elastic Constant Matrix: (Units=GPa)
#
#
# Indices 1 2 3 4 5 6 
#
# 1 148.1066 9.4192 16.1052 0.0000 38.6472 0.0000
# 2 9.4192 54.3785 4.9743 0.0000 -6.4888 0.0000
# 3 16.1052 4.9743 19.7505 0.0000 2.2339 0.0000
# 4 0.0000 0.0000 0.0000 19.8543 0.0000 -17.1969
# 5 38.6472 -6.4888 2.2339 0.0000 31.4826 0.0000
# 6 0.0000 0.0000 0.0000 -17.1969 0.0000 13.1913
#
#
#
# Elastic Compliance Matrix: (Units=1/GPa)
#
#
# Indices 1 2 3 4 5 6 
#
# 1 0.011374 -0.003019 -0.006920 0.000000 -0.014094 0.000000
# 2 -0.003019 0.020206 -0.003546 0.000000 0.008122 0.000000
# 3 -0.006920 -0.003546 0.056745 0.000000 0.003738 0.000000
# 4 0.000000 0.000000 0.000000 -0.389941 0.000000 -0.508347
# 5 -0.014094 0.008122 0.003738 0.000000 0.050473 0.000000
# 6 0.000000 0.000000 0.000000 -0.508347 0.000000 -0.586900
#
#
# Mechanical properties :
#
#
# Convention : Reuss Voigt Hill
#
# Bulk Modulus (GPa) = 16.29869 31.47034 23.88452
# Shear Modulus (GPa) = -6.32414 25.68811 9.68198
#
# Velocity S-wave (km/s) = -1.63512 3.29546 2.02317
# Velocity P-wave (km/s) = 1.82365 5.27111 3.94400
#
# Compressibility (1/GPa) = 0.06135461
#
# Stress axis : x y z
#
# Youngs Moduli (GPa) = 87.91985 49.49007 17.62273
#
# Poissons Ratio (x) = 0.14940 0.12195
# Poissons Ratio (y) = 0.26542 0.06249
# Poissons Ratio (z) = 0.60843 0.17549
#
# Static dielectric constant tensor:
#      x y z
#    x 1.961000 0.000000 0.029070 
#    y 0.000000 1.918570 0.000000 
#    z 0.029070 0.000000 1.995570 
# 
# From -- ./inp_files/127218.got.cif
#   From: 2010.05.17/outbox.cif.g08.bks.cpg/sg15_64_cif.got.tgz:127218.got - 2010.06.03 18:47:42.
