data_PCOD9268148
_publ_section_title
;
Structure prediction by ZEFSAII (Michael W. Deem and Ramdas Pophale) SiO2 
 PCOD9268148
Probable space group: C 2/C
;
_chemical_formula_sum "Si O2"
_cell_formula_units_Z 40
_cell_length_a 11.726249
_cell_length_b 19.029417
_cell_length_c 16.478317
_cell_angle_alpha 90.000000
_cell_angle_beta 151.228407
_cell_angle_gamma 90.000000
_cell_volume 1769.826060
_symmetry_space_group_name_H-M "C 2/C"
_symmetry_group_IT_number 15
_symmetry_cell_setting 'monoclinic'
loop_
_space_group_symop_operation_xyz
x,y,z
-x,y,1/2-z
-x,-y,-z
x,-y,1/2+z
1/2+x,1/2+y,z
1/2-x,1/2+y,1/2-z
1/2-x,1/2-y,-z
1/2+x,1/2-y,1/2+z
loop_
_atom_site_type_symbol
_atom_site_label
_atom_site_fract_x
_atom_site_fract_y
_atom_site_fract_z
Si Si1 0.038081 0.125042 0.414248
Si Si2 0.656080 0.351277 0.268045
Si Si3 0.000000 0.224611 0.250000
Si Si4 0.520131 0.267405 0.031459
Si Si5 0.500000 0.041277 0.750000
Si Si6 0.703133 0.495848 0.198105
O O1 0.277341 0.090481 0.595559
O O2 0.112443 0.173892 0.386925
O O3 0.914739 0.173799 0.404992
O O4 0.859803 0.061318 0.284014
O O5 0.500000 0.365633 0.250000
O O6 0.520281 0.299137 0.121034
O O7 0.888841 0.306524 0.438497
O O8 0.702131 0.422959 0.246452
O O9 0.790913 0.262967 0.167414
O O10 0.557648 0.997632 0.705079
O O11 0.500000 0.500000 0.000000
#
# Coordination Sequence:
#
# PCOD9268148 Si02
#       6
#     8   8   4   8   4   8
#     4  11  23  42  67 103 134 174 235 282 356 405
#     4  12  26  46  70 101 145 187 235 282 347 423
#     4  12  25  40  72 108 135 174 234 300 341 416
#     4  12  24  46  71 103 141 184 231 290 350 413
#     4  10  19  42  70  90 131 178 224 284 341 414
#     4  10  22  43  68  97 132 181 225 283 346 406
#
# _framework density 22.601092000000001
#
# number of rings (size 3 to 8) (size 9 to 14) (size 15 to 20)
#    0.000    0.800    6.000    3.000    1.400    0.000 
#    9.000    2.000    0.000    0.000    0.000    0.000 
#    0.000    0.000    0.000    0.000    0.000    0.000 
#
# Total GULP energy -111692.661738 kJ/mol
# GULP energy per Si atom -5584.633087 kJ/mol
# Density = 2.254965 g / cm^3
# Si number density = 22.601092 Si / 1000 Ang^3
#
#
#
# Elastic Constant Matrix: (Units=GPa)
#
#
# Indices 1 2 3 4 5 6 
#
# 1 136.9432 36.4389 19.1416 -0.0049 4.9581 0.0057
# 2 36.4389 113.2334 28.4987 -0.0033 17.4082 0.0065
# 3 19.1416 28.4987 27.6032 -0.0020 2.7373 0.0032
# 4 -0.0049 -0.0033 -0.0020 28.8155 -0.0016 1.3585
# 5 4.9581 17.4082 2.7373 -0.0016 32.4106 0.0012
# 6 0.0057 0.0065 0.0032 1.3585 0.0012 0.1201
#
#
#
# Elastic Compliance Matrix: (Units=1/GPa)
#
#
# Indices 1 2 3 4 5 6 
#
# 1 0.008309 -0.001646 -0.004059 0.000022 -0.000044 -0.000441
# 2 -0.001646 0.013280 -0.011988 0.000026 -0.005869 -0.000556
# 3 -0.004059 -0.011988 0.051147 0.000058 0.002740 -0.001208
# 4 0.000022 0.000026 0.000058 0.074332 0.000014 -0.840550
# 5 -0.000044 -0.005869 0.002740 0.000014 0.033782 -0.000259
# 6 -0.000441 -0.000556 -0.001208 -0.840550 -0.000259 17.828773
#
#
# Mechanical properties :
#
#
# Convention : Reuss Voigt Hill
#
# Bulk Modulus (GPa) = 26.77193 49.54870 38.16032
# Shear Modulus (GPa) = 0.27689 25.18264 12.72976
#
# Velocity S-wave (km/s) = 0.35040 3.34162 2.37584
# Velocity P-wave (km/s) = 3.46913 6.07118 4.94440
#
# Compressibility (1/GPa) = 0.03735256
#
# Stress axis : x y z
#
# Youngs Moduli (GPa) = 120.35014 75.29962 19.55138
#
# Poissons Ratio (x) = 0.12391 0.07935
# Poissons Ratio (y) = 0.19804 0.23438
# Poissons Ratio (z) = 0.48845 0.90269
#
# Static dielectric constant tensor:
#      x y z
#    x 1.914490 0.000000 -0.042540 
#    y 0.000000 1.900440 0.000000 
#    z -0.042540 0.000000 1.938020 
# 
# From -- ./inp_files/88282.got.cif
#   From: 2010.05.17/outbox.cif.g08.bks.cpg/sg15_45_cif.got.tgz:88282.got - 2010.06.03 18:47:42.
