data_PCOD9268894
_publ_section_title
;
Structure prediction by ZEFSAII (Michael W. Deem and Ramdas Pophale) SiO2 
 PCOD9268894
Probable space group: C 2/C
;
_chemical_formula_sum "Si O2"
_cell_formula_units_Z 60
_cell_length_a 12.427878
_cell_length_b 13.178650
_cell_length_c 24.628057
_cell_angle_alpha 90.000000
_cell_angle_beta 115.760398
_cell_angle_gamma 90.000000
_cell_volume 3632.782061
_symmetry_space_group_name_H-M "C 2/C"
_symmetry_group_IT_number 15
_symmetry_cell_setting 'monoclinic'
loop_
_space_group_symop_operation_xyz
x,y,z
-x,y,1/2-z
-x,-y,-z
x,-y,1/2+z
1/2+x,1/2+y,z
1/2-x,1/2+y,1/2-z
1/2-x,1/2-y,-z
1/2+x,1/2-y,1/2+z
loop_
_atom_site_type_symbol
_atom_site_label
_atom_site_fract_x
_atom_site_fract_y
_atom_site_fract_z
Si Si1 0.516032 0.320116 0.480530
Si Si2 0.449476 0.137059 0.083107
Si Si3 0.277651 0.426973 0.035551
Si Si4 0.769033 0.136688 0.981061
Si Si5 0.500000 0.008170 0.750000
Si Si6 0.892753 0.311672 0.693484
Si Si7 0.331489 0.790928 0.395942
Si Si8 0.021260 0.582295 0.873842
O O1 0.485175 0.216019 0.441591
O O2 0.593187 0.388674 0.456257
O O3 0.395797 0.367402 0.477974
O O4 0.605639 0.287261 0.548652
O O5 0.432166 0.179943 0.139482
O O6 0.504623 0.026353 0.103261
O O7 0.319766 0.119352 0.027832
O O8 0.237074 0.376529 0.083150
O O9 0.268777 0.548262 0.026852
O O10 0.658612 0.109588 0.917168
O O11 0.750000 0.250000 0.000000
O O12 0.495908 0.070236 0.804472
O O13 0.392633 0.926056 0.718039
O O14 0.765442 0.260528 0.664061
O O15 0.000000 0.258829 0.750000
O O16 0.436839 0.838211 0.384199
#
# Coordination Sequence:
#
# PCOD9268894 Si02
#       8
#     8   8   8   8   4   8   8   8
#     4  11  19  34  56  85 115 146 175 227 283 326
#     4   9  17  33  57  81 103 140 191 222 267 322
#     4  10  20  33  55  82 112 144 179 226 280 323
#     4  11  23  35  51  85 122 150 179 214 282 351
#     4   8  20  40  56  74 104 148 194 222 270 328
#     4   9  17  34  58  78 103 133 191 239 261 315
#     4  11  19  34  61  82 109 136 184 235 280 318
#     4  10  21  37  56  81 113 148 183 226 270 339
#
# _framework density 16.516268
#
# number of rings (size 3 to 8) (size 9 to 14) (size 15 to 20)
#    0.400    1.600    4.000    1.200    1.867    1.600 
#    2.400    0.000    0.000    0.000    0.000    0.000 
#    0.000    0.000    0.000    0.000    0.000    0.000 
#
# Total GULP energy -167060.575192 kJ/mol
# GULP energy per Si atom -5568.685840 kJ/mol
# Density = 1.647868 g / cm^3
# Si number density = 16.516268 Si / 1000 Ang^3
#
#
#
# Elastic Constant Matrix: (Units=GPa)
#
#
# Indices 1 2 3 4 5 6 
#
# 1 71.8378 20.6237 6.2385 0.0000 9.3138 0.0000
# 2 20.6237 59.6309 20.3907 0.0000 0.3609 0.0000
# 3 6.2385 20.3907 52.9882 0.0000 0.6331 0.0000
# 4 0.0000 0.0000 0.0000 20.2792 0.0000 -2.6958
# 5 9.3138 0.3609 0.6331 0.0000 14.4260 0.0000
# 6 0.0000 0.0000 0.0000 -2.6958 0.0000 21.8961
#
#
#
# Elastic Compliance Matrix: (Units=1/GPa)
#
#
# Indices 1 2 3 4 5 6 
#
# 1 0.017000 -0.005958 0.000421 0.000000 -0.010845 0.000000
# 2 -0.005958 0.021399 -0.007577 0.000000 0.003644 0.000000
# 3 0.000421 -0.007577 0.021751 0.000000 -0.001037 0.000000
# 4 0.000000 0.000000 0.000000 0.050132 0.000000 0.006172
# 5 -0.010845 0.003644 -0.001037 0.000000 0.076275 0.000000
# 6 0.000000 0.000000 0.000000 0.006172 0.000000 0.046430
#
#
# Mechanical properties :
#
#
# Convention : Reuss Voigt Hill
#
# Bulk Modulus (GPa) = 29.47925 30.99587 30.23756
# Shear Modulus (GPa) = 18.48272 20.46719 19.47495
#
# Velocity S-wave (km/s) = 3.34887 3.52407 3.43758
# Velocity P-wave (km/s) = 5.73067 5.94696 5.83982
#
# Compressibility (1/GPa) = 0.03392217
#
# Stress axis : x y z
#
# Youngs Moduli (GPa) = 58.82281 46.73064 45.97557
#
# Poissons Ratio (x) = 0.27841 -0.01934
# Poissons Ratio (y) = 0.35046 0.34835
# Poissons Ratio (z) = -0.02475 0.35407
#
# Static dielectric constant tensor:
#      x y z
#    x 1.546180 0.000000 0.005770 
#    y 0.000000 1.595180 0.000000 
#    z 0.005770 0.000000 1.546220 
# 
# From -- ./inp_files/292283.got.cif
#   From: 2010.05.17/outbox.cif.g08.bks.cpg/sg15_147_cif.got.tgz:292283.got - 2010.06.03 18:47:42.
