data_PCOD9268890
_publ_section_title
;
Structure prediction by ZEFSAII (Michael W. Deem and Ramdas Pophale) SiO2 
 PCOD9268890
Probable space group: C 2/C
;
_chemical_formula_sum "Si O2"
_cell_formula_units_Z 56
_cell_length_a 5.945797
_cell_length_b 24.279615
_cell_length_c 24.086912
_cell_angle_alpha 90.000000
_cell_angle_beta 68.704743
_cell_angle_gamma 90.000000
_cell_volume 3239.806116
_symmetry_space_group_name_H-M "C 2/C"
_symmetry_group_IT_number 15
_symmetry_cell_setting 'monoclinic'
loop_
_space_group_symop_operation_xyz
x,y,z
-x,y,1/2-z
-x,-y,-z
x,-y,1/2+z
1/2+x,1/2+y,z
1/2-x,1/2+y,1/2-z
1/2-x,1/2-y,-z
1/2+x,1/2-y,1/2+z
loop_
_atom_site_type_symbol
_atom_site_label
_atom_site_fract_x
_atom_site_fract_y
_atom_site_fract_z
Si Si1 0.204830 0.816920 0.780345
Si Si2 0.103819 0.911971 0.009956
Si Si3 0.380223 0.290194 0.905490
Si Si4 0.069503 0.978034 0.578735
Si Si5 0.341136 0.931414 0.812102
Si Si6 0.981361 0.790543 0.478362
Si Si7 0.588250 0.898238 0.897258
O O1 0.500000 0.805849 0.750000
O O2 0.191842 0.882323 0.796283
O O3 0.000000 0.806649 0.750000
O O4 0.101831 0.784646 0.843395
O O5 0.037837 0.853017 0.041147
O O6 0.116366 0.960900 0.053192
O O7 0.354803 0.899839 0.956928
O O8 0.940783 0.937787 0.974619
O O9 0.239009 0.344433 0.898259
O O10 0.192978 0.240187 0.926374
O O11 0.460617 0.298545 0.961623
O O12 0.269893 0.953591 0.600902
O O13 0.822505 0.970353 0.635264
O O14 0.500000 0.958954 0.750000
O O15 0.510783 0.899435 0.840577
O O16 0.750000 0.750000 0.500000
#
# Coordination Sequence:
#
# PCOD9268890 Si02
#       7
#     8   8   8   8   8   8   8
#     4  11  23  37  60  87 123 157 193 249 302 358
#     4  10  20  35  51  83 110 152 192 227 297 344
#     4  11  21  35  55  87 114 154 191 243 301 350
#     4  10  20  33  55  76 116 146 186 240 283 352
#     4  10  21  32  53  85 111 148 185 239 298 346
#     4  11  22  34  57  81 120 154 191 245 291 359
#     4  11  18  34  54  81 121 146 187 239 294 356
#
# _framework density 17.284986
#
# number of rings (size 3 to 8) (size 9 to 14) (size 15 to 20)
#    0.000    1.429    4.286    3.000    2.000    0.000 
#    0.000    0.000    0.000    0.857    0.000    0.000 
#    0.000    0.000    0.000    0.000    0.000    0.000 
#
# Total GULP energy -155991.371613 kJ/mol
# GULP energy per Si atom -5571.120415 kJ/mol
# Density = 1.724564 g / cm^3
# Si number density = 17.284986 Si / 1000 Ang^3
#
#
#
# Elastic Constant Matrix: (Units=GPa)
#
#
# Indices 1 2 3 4 5 6 
#
# 1 70.9016 27.6641 25.6669 0.0000 -3.5488 0.0000
# 2 27.6641 107.4138 32.8800 0.0000 -10.4317 0.0000
# 3 25.6669 32.8800 92.2609 0.0000 -12.5932 0.0000
# 4 0.0000 0.0000 0.0000 16.8277 0.0000 1.4160
# 5 -3.5488 -10.4317 -12.5932 0.0000 20.5451 0.0000
# 6 0.0000 0.0000 0.0000 1.4160 0.0000 6.9375
#
#
#
# Elastic Compliance Matrix: (Units=1/GPa)
#
#
# Indices 1 2 3 4 5 6 
#
# 1 0.016636 -0.003281 -0.003595 0.000000 -0.000996 0.000000
# 2 -0.003281 0.011306 -0.002630 0.000000 0.003562 0.000000
# 3 -0.003595 -0.002630 0.013651 0.000000 0.006411 0.000000
# 4 0.000000 0.000000 0.000000 0.060464 0.000000 -0.012341
# 5 -0.000996 0.003562 0.006411 0.000000 0.054240 0.000000
# 6 0.000000 0.000000 0.000000 -0.012341 0.000000 0.146663
#
#
# Mechanical properties :
#
#
# Convention : Reuss Voigt Hill
#
# Bulk Modulus (GPa) = 44.28476 49.22204 46.75340
# Shear Modulus (GPa) = 15.17458 21.15307 18.16383
#
# Velocity S-wave (km/s) = 2.96616 3.50206 3.24519
# Velocity P-wave (km/s) = 6.11611 6.70008 6.41474
#
# Compressibility (1/GPa) = 0.02258113
#
# Stress axis : x y z
#
# Youngs Moduli (GPa) = 60.11202 88.45024 73.25267
#
# Poissons Ratio (x) = 0.29019 0.26332
# Poissons Ratio (y) = 0.19721 0.19268
# Poissons Ratio (z) = 0.21609 0.23265
#
# Static dielectric constant tensor:
#      x y z
#    x 1.677050 0.000000 -0.021150 
#    y 0.000000 1.570590 0.000000 
#    z -0.021150 0.000000 1.602760 
# 
# From -- ./inp_files/227911.got.cif
#   From: 2010.05.17/outbox.cif.g08.bks.cpg/sg15_114_cif.got.tgz:227911.got - 2010.06.03 18:47:42.
