data_PCOD9268143
_publ_section_title
;
Structure prediction by ZEFSAII (Michael W. Deem and Ramdas Pophale) SiO2 
 PCOD9268143
Probable space group: C 2/C
;
_chemical_formula_sum "Si O2"
_cell_formula_units_Z 52
_cell_length_a 12.372325
_cell_length_b 16.250549
_cell_length_c 13.235127
_cell_angle_alpha 90.000000
_cell_angle_beta 109.710947
_cell_angle_gamma 90.000000
_cell_volume 2505.096662
_symmetry_space_group_name_H-M "C 2/C"
_symmetry_group_IT_number 15
_symmetry_cell_setting 'monoclinic'
loop_
_space_group_symop_operation_xyz
x,y,z
-x,y,1/2-z
-x,-y,-z
x,-y,1/2+z
1/2+x,1/2+y,z
1/2-x,1/2+y,1/2-z
1/2-x,1/2-y,-z
1/2+x,1/2-y,1/2+z
loop_
_atom_site_type_symbol
_atom_site_label
_atom_site_fract_x
_atom_site_fract_y
_atom_site_fract_z
Si Si1 0.000000 0.194526 0.750000
Si Si2 0.230191 0.171043 0.922108
Si Si3 0.384213 0.985158 0.531205
Si Si4 0.500000 0.948396 0.250000
Si Si5 0.500000 0.646179 0.250000
Si Si6 0.072317 0.703368 0.636254
Si Si7 0.799132 0.127234 0.057722
Si Si8 0.117818 0.248210 0.583217
O O1 0.900128 0.150960 0.650679
O O2 0.930058 0.240859 0.818132
O O3 0.294444 0.200036 0.842442
O O4 0.250000 0.250000 0.000000
O O5 0.310077 0.096240 0.985272
O O6 0.500000 0.000000 0.500000
O O7 0.419795 0.992918 0.659240
O O8 0.296128 0.059322 0.487286
O O9 0.450231 0.881620 0.312727
O O10 0.450627 0.711878 0.313924
O O11 0.402916 0.597045 0.160760
O O12 0.985583 0.709501 0.514033
O O13 0.732839 0.199133 0.098651
O O14 0.849780 0.164127 0.968520
#
# Coordination Sequence:
#
# PCOD9268143 Si02
#       8
#     4   8   8   4   4   8   8   8
#     4  12  26  40  72 102 148 200 222 298 372 414
#     4  12  26  46  66 100 147 184 233 291 358 434
#     4  12  26  46  70 103 137 178 241 302 348 428
#     4  11  22  43  76  98 132 180 230 301 357 396
#     4   9  20  35  70 100 130 178 224 283 345 412
#     4  10  19  42  69 102 133 176 235 286 342 420
#     4  10  21  40  68 101 138 179 240 289 339 436
#     4  10  20  40  71 104 137 185 241 286 350 426
#
# _framework density 20.757681999999999
#
# number of rings (size 3 to 8) (size 9 to 14) (size 15 to 20)
#    0.000    1.231    4.615    0.923    4.308    1.231 
#    2.769    0.769    0.000    0.000    0.000    0.000 
#    0.000    0.000    0.000    0.000    0.000    0.000 
#
# Total GULP energy -144768.037745 kJ/mol
# GULP energy per Si atom -5568.001452 kJ/mol
# Density = 2.071044 g / cm^3
# Si number density = 20.757682 Si / 1000 Ang^3
#
#
#
# Elastic Constant Matrix: (Units=GPa)
#
#
# Indices 1 2 3 4 5 6 
#
# 1 108.9949 35.9516 55.8431 0.0000 12.0207 0.0000
# 2 35.9516 75.6981 47.3279 0.0000 8.3741 0.0000
# 3 55.8431 47.3279 140.6305 0.0000 23.9250 0.0000
# 4 0.0000 0.0000 0.0000 47.0165 0.0000 8.9112
# 5 12.0207 8.3741 23.9250 0.0000 53.3873 0.0000
# 6 0.0000 0.0000 0.0000 8.9112 0.0000 24.8526
#
#
#
# Elastic Compliance Matrix: (Units=1/GPa)
#
#
# Indices 1 2 3 4 5 6 
#
# 1 0.012229 -0.003507 -0.003573 0.000000 -0.000602 0.000000
# 2 -0.003507 0.017737 -0.004587 0.000000 0.000063 0.000000
# 3 -0.003573 -0.004587 0.010624 0.000000 -0.003237 0.000000
# 4 0.000000 0.000000 0.000000 0.022820 0.000000 -0.008182
# 5 -0.000602 0.000063 -0.003237 0.000000 0.020307 0.000000
# 6 0.000000 0.000000 0.000000 -0.008182 0.000000 0.043171
#
#
# Mechanical properties :
#
#
# Convention : Reuss Voigt Hill
#
# Bulk Modulus (GPa) = 57.95550 67.06319 62.50934
# Shear Modulus (GPa) = 32.05630 37.46466 34.76048
#
# Velocity S-wave (km/s) = 3.93403 4.25297 4.09661
# Velocity P-wave (km/s) = 6.97253 7.51630 7.24952
#
# Compressibility (1/GPa) = 0.01725462
#
# Stress axis : x y z
#
# Youngs Moduli (GPa) = 81.77502 56.37876 94.12431
#
# Poissons Ratio (x) = 0.19773 0.33632
# Poissons Ratio (y) = 0.28680 0.43178
# Poissons Ratio (z) = 0.29219 0.25863
#
# Static dielectric constant tensor:
#      x y z
#    x 1.776930 0.000000 -0.026780 
#    y 0.000000 1.834660 0.000000 
#    z -0.026780 0.000000 1.832050 
# 
# From -- ./inp_files/144361.got.cif
#   From: 2010.05.17/outbox.cif.g08.bks.cpg/sg15_73_cif.got.tgz:144361.got - 2010.06.03 18:47:42.
