data_PCOD9268915
_publ_section_title
;
Structure prediction by ZEFSAII (Michael W. Deem and Ramdas Pophale) SiO2 
 PCOD9268915
Probable space group: C 2/C
;
_chemical_formula_sum "Si O2"
_cell_formula_units_Z 60
_cell_length_a 11.517943
_cell_length_b 31.734846
_cell_length_c 10.387543
_cell_angle_alpha 90.000000
_cell_angle_beta 65.423441
_cell_angle_gamma 90.000000
_cell_volume 3452.885155
_symmetry_space_group_name_H-M "C 2/C"
_symmetry_group_IT_number 15
_symmetry_cell_setting 'monoclinic'
loop_
_space_group_symop_operation_xyz
x,y,z
-x,y,1/2-z
-x,-y,-z
x,-y,1/2+z
1/2+x,1/2+y,z
1/2-x,1/2+y,1/2-z
1/2-x,1/2-y,-z
1/2+x,1/2-y,1/2+z
loop_
_atom_site_type_symbol
_atom_site_label
_atom_site_fract_x
_atom_site_fract_y
_atom_site_fract_z
Si Si1 0.651714 0.539812 0.026175
Si Si2 0.730059 0.374227 0.806881
Si Si3 0.485374 0.318306 0.911355
Si Si4 0.000000 0.323940 0.250000
Si Si5 0.736421 0.868667 0.014940
Si Si6 0.655041 0.534203 0.325607
Si Si7 0.865322 0.260699 0.116781
Si Si8 0.355493 0.795588 0.843612
O O1 0.682325 0.527236 0.160752
O O2 0.497217 0.543912 0.094570
O O3 0.719372 0.584344 0.965807
O O4 0.684876 0.504674 0.905055
O O5 0.591088 0.353485 0.897130
O O6 0.757202 0.369316 0.642737
O O7 0.726243 0.423464 0.837333
O O8 0.829426 0.344651 0.832794
O O9 0.500000 0.312026 0.750000
O O10 0.524003 0.274177 0.956634
O O11 0.346371 0.335794 0.006722
O O12 0.100309 0.352860 0.126713
O O13 0.083560 0.293246 0.302427
O O14 0.741947 0.231216 0.200723
O O15 0.830406 0.285130 0.003438
O O16 0.500000 0.784336 0.750000
#
# Coordination Sequence:
#
# PCOD9268915 Si02
#       8
#     8   8   8   4   8   8   8   8
#     4   9  17  32  55  86 112 143 176 237 285 329
#     4   9  17  34  58  79 101 147 186 222 270 337
#     4   9  16  32  55  80 102 136 189 231 267 317
#     4  12  24  36  52  84 112 150 188 232 278 332
#     4  10  20  33  56  80 113 143 182 233 277 324
#     4   9  16  31  58  85 112 135 187 228 285 337
#     4  10  22  36  52  80 108 144 189 231 281 324
#     4  10  21  37  54  74 111 146 184 231 276 331
#
# _framework density 17.376771999999999
#
# number of rings (size 3 to 8) (size 9 to 14) (size 15 to 20)
#    0.000    2.400    2.000    0.800    1.867    0.533 
#    2.400    0.000    1.467    1.600    0.000    0.000 
#    0.000    0.000    0.000    0.000    0.000    0.000 
#
# Total GULP energy -167169.912338 kJ/mol
# GULP energy per Si atom -5572.330411 kJ/mol
# Density = 1.733722 g / cm^3
# Si number density = 17.376772 Si / 1000 Ang^3
#
#
#
# Elastic Constant Matrix: (Units=GPa)
#
#
# Indices 1 2 3 4 5 6 
#
# 1 65.7681 46.6561 26.3998 0.0000 -3.2582 0.0000
# 2 46.6561 135.6157 44.7789 0.0000 8.5216 0.0000
# 3 26.3998 44.7789 43.4921 0.0000 -11.2926 0.0000
# 4 0.0000 0.0000 0.0000 19.7265 0.0000 8.4376
# 5 -3.2582 8.5216 -11.2926 0.0000 27.2518 0.0000
# 6 0.0000 0.0000 0.0000 8.4376 0.0000 33.4067
#
#
#
# Elastic Compliance Matrix: (Units=1/GPa)
#
#
# Indices 1 2 3 4 5 6 
#
# 1 0.021990 -0.004981 -0.007992 0.000000 0.000875 0.000000
# 2 -0.004981 0.014861 -0.015283 0.000000 -0.011575 0.000000
# 3 -0.007992 -0.015283 0.049945 0.000000 0.024520 0.000000
# 4 0.000000 0.000000 0.000000 0.056833 0.000000 -0.014354
# 5 0.000875 -0.011575 0.024520 0.000000 0.050579 0.000000
# 6 0.000000 0.000000 0.000000 -0.014354 0.000000 0.033560
#
#
# Mechanical properties :
#
#
# Convention : Reuss Voigt Hill
#
# Bulk Modulus (GPa) = 33.02053 53.39395 43.20724
# Shear Modulus (GPa) = 16.98512 24.54640 20.76576
#
# Velocity S-wave (km/s) = 3.12983 3.76253 3.46067
# Velocity P-wave (km/s) = 5.66613 7.04765 6.39431
#
# Compressibility (1/GPa) = 0.03028419
#
# Stress axis : x y z
#
# Youngs Moduli (GPa) = 45.47478 67.29019 20.02201
#
# Poissons Ratio (x) = 0.33520 0.16002
# Poissons Ratio (y) = 0.22653 0.30599
# Poissons Ratio (z) = 0.36344 1.02836
#
# Static dielectric constant tensor:
#      x y z
#    x 1.601730 0.000000 -0.000130 
#    y 0.000000 1.591560 0.000000 
#    z -0.000130 0.000000 1.588040 
# 
# From -- ./inp_files/92052.got.cif
#   From: 2010.05.17/outbox.cif.g08.bks.cpg/sg15_47_cif.got.tgz:92052.got - 2010.06.03 18:47:42.
