data_PCOD9268817
_publ_section_title
;
Structure prediction by ZEFSAII (Michael W. Deem and Ramdas Pophale) SiO2 
 PCOD9268817
Probable space group: C 2/C
;
_chemical_formula_sum "Si O2"
_cell_formula_units_Z 48
_cell_length_a 14.358250
_cell_length_b 14.440891
_cell_length_c 14.135033
_cell_angle_alpha 90.000000
_cell_angle_beta 119.419973
_cell_angle_gamma 90.000000
_cell_volume 2552.887865
_symmetry_space_group_name_H-M "C 2/C"
_symmetry_group_IT_number 15
_symmetry_cell_setting 'monoclinic'
loop_
_space_group_symop_operation_xyz
x,y,z
-x,y,1/2-z
-x,-y,-z
x,-y,1/2+z
1/2+x,1/2+y,z
1/2-x,1/2+y,1/2-z
1/2-x,1/2-y,-z
1/2+x,1/2-y,1/2+z
loop_
_atom_site_type_symbol
_atom_site_label
_atom_site_fract_x
_atom_site_fract_y
_atom_site_fract_z
Si Si1 0.253179 0.471172 0.922876
Si Si2 0.888002 0.455727 0.472764
Si Si3 0.290817 0.416890 0.256814
Si Si4 0.040315 0.270941 0.917561
Si Si5 0.328828 0.784535 0.705124
Si Si6 0.980265 0.064743 0.579223
O O1 0.267575 0.552149 0.853263
O O2 0.239269 0.374804 0.856764
O O3 0.153381 0.483570 0.943340
O O4 0.357753 0.458814 0.041624
O O5 0.794036 0.470108 0.350515
O O6 0.907143 0.345610 0.489668
O O7 0.000000 0.500000 0.500000
O O8 0.281409 0.306778 0.231234
O O9 0.416206 0.442799 0.301771
O O10 0.119373 0.252377 0.868787
O O11 0.016842 0.172073 0.949875
O O12 0.930899 0.312267 0.820080
O O13 0.000000 0.000000 0.500000
#
# Coordination Sequence:
#
# PCOD9268817 Si02
#       6
#     8   8   8   8   8   8
#     4  10  20  35  54  79 110 139 175 222 264 311
#     4  11  22  34  53  80 109 143 179 216 262 315
#     4  10  20  33  53  80 108 139 175 219 268 314
#     4   9  17  31  52  79 105 132 174 219 260 312
#     4   9  17  31  54  79 104 135 171 216 265 313
#     4   9  18  32  52  77 105 136 174 222 267 307
#
# _framework density 18.802236000000001
#
# number of rings (size 3 to 8) (size 9 to 14) (size 15 to 20)
#    0.000    2.333    0.000    3.000    0.000    6.667 
#    0.000    0.000    0.000   18.000    0.000   18.667 
#    0.000    0.000    0.000    0.000    0.000    0.000 
#
# Total GULP energy -133679.201486 kJ/mol
# GULP energy per Si atom -5569.966729 kJ/mol
# Density = 1.875944 g / cm^3
# Si number density = 18.802236 Si / 1000 Ang^3
#
#
#
# Elastic Constant Matrix: (Units=GPa)
#
#
# Indices 1 2 3 4 5 6 
#
# 1 109.3179 44.4306 46.3563 0.0000 11.5559 0.0000
# 2 44.4306 69.5897 39.4476 0.0000 -3.2977 0.0000
# 3 46.3563 39.4476 100.3871 0.0000 20.2186 0.0000
# 4 0.0000 0.0000 0.0000 26.9847 0.0000 0.5689
# 5 11.5559 -3.2977 20.2186 0.0000 22.3004 0.0000
# 6 0.0000 0.0000 0.0000 0.5689 0.0000 30.3884
#
#
#
# Elastic Compliance Matrix: (Units=1/GPa)
#
#
# Indices 1 2 3 4 5 6 
#
# 1 0.013985 -0.008181 -0.001884 0.000000 -0.006748 0.000000
# 2 -0.008181 0.025992 -0.009866 0.000000 0.017027 0.000000
# 3 -0.001884 -0.009866 0.018113 0.000000 -0.016905 0.000000
# 4 0.000000 0.000000 0.000000 0.037073 0.000000 -0.000694
# 5 -0.006748 0.017027 -0.016905 0.000000 0.066184 0.000000
# 6 0.000000 0.000000 0.000000 -0.000694 0.000000 0.032920
#
#
# Mechanical properties :
#
#
# Convention : Reuss Voigt Hill
#
# Bulk Modulus (GPa) = 54.85644 59.97375 57.41509
# Shear Modulus (GPa) = 20.81565 25.87204 23.34385
#
# Velocity S-wave (km/s) = 3.33090 3.71348 3.52738
# Velocity P-wave (km/s) = 6.63566 7.09598 6.86968
#
# Compressibility (1/GPa) = 0.01822940
#
# Stress axis : x y z
#
# Youngs Moduli (GPa) = 71.50601 38.47286 55.20913
#
# Poissons Ratio (x) = 0.31473 0.10402
# Poissons Ratio (y) = 0.58496 0.54467
# Poissons Ratio (z) = 0.13472 0.37956
#
# Static dielectric constant tensor:
#      x y z
#    x 1.700800 0.000000 0.052400 
#    y 0.000000 1.639900 0.000000 
#    z 0.052400 0.000000 1.689240 
# 
# From -- ./inp_files/97174.got.cif
#   From: 2010.05.17/outbox.cif.g08.bks.cpg/sg15_49_cif.got.tgz:97174.got - 2010.06.03 18:47:42.
