data_PCOD9268531
_publ_section_title
;
Structure prediction by ZEFSAII (Michael W. Deem and Ramdas Pophale) SiO2 
 PCOD9268531
Probable space group: C 2/C
;
_chemical_formula_sum "Si O2"
_cell_formula_units_Z 64
_cell_length_a 5.370079
_cell_length_b 26.724129
_cell_length_c 22.638678
_cell_angle_alpha 90.000000
_cell_angle_beta 78.897146
_cell_angle_gamma 90.000000
_cell_volume 3188.082886
_symmetry_space_group_name_H-M "C 2/C"
_symmetry_group_IT_number 15
_symmetry_cell_setting 'monoclinic'
loop_
_space_group_symop_operation_xyz
x,y,z
-x,y,1/2-z
-x,-y,-z
x,-y,1/2+z
1/2+x,1/2+y,z
1/2-x,1/2+y,1/2-z
1/2-x,1/2-y,-z
1/2+x,1/2-y,1/2+z
loop_
_atom_site_type_symbol
_atom_site_label
_atom_site_fract_x
_atom_site_fract_y
_atom_site_fract_z
Si Si1 0.301755 0.331442 0.989761
Si Si2 0.772909 0.477179 0.229386
Si Si3 0.227476 0.444179 0.400397
Si Si4 0.106110 0.255577 0.444179
Si Si5 0.057473 0.019491 0.432290
Si Si6 0.558301 0.658416 0.597631
Si Si7 0.268605 0.363541 0.220620
Si Si8 0.467073 0.070981 0.036892
O O1 0.484088 0.353482 0.032802
O O2 0.128977 0.292624 0.034133
O O3 0.479224 0.298448 0.937957
O O4 0.109711 0.371100 0.969886
O O5 0.500000 0.502008 0.250000
O O6 0.851202 0.466777 0.158393
O O7 0.742454 0.423244 0.264365
O O8 0.000000 0.505769 0.250000
O O9 0.509540 0.468518 0.397704
O O10 0.250367 0.385062 0.391662
O O11 0.052182 0.449577 0.467159
O O12 0.250000 0.250000 0.500000
O O13 0.312869 0.287601 0.399009
O O14 0.307690 0.053435 0.429089
O O15 0.801500 0.049634 0.428335
O O16 0.000000 0.000000 0.500000
O O17 0.323258 0.649360 0.650809
O O18 0.500000 0.344390 0.250000
O O19 0.000000 0.341838 0.250000
#
# Coordination Sequence:
#
# PCOD9268531 Si02
#       8
#     8   8   8   8   8   8   8   8
#     4  10  20  32  54  74 106 142 195 236 288 336
#     4  10  21  32  46  73 104 141 193 219 258 329
#     4  11  20  35  53  73 110 155 188 232 277 333
#     4   9  20  34  48  79 100 141 194 231 274 353
#     4  10  22  35  48  76 102 141 200 229 269 338
#     4  11  20  33  54  73 109 157 188 227 288 332
#     4  10  21  34  46  74 108 139 196 219 254 335
#     4  11  22  35  52  74 102 148 190 240 280 326
#
# _framework density 20.074759
#
# number of rings (size 3 to 8) (size 9 to 14) (size 15 to 20)
#    0.000    1.750    3.750    3.000    7.000    3.000 
#    0.000    0.000    0.000    0.000    0.000    0.000 
#    0.000    0.000   12.750    1.500    1.000    1.625 
#
# Total GULP energy -178186.192602 kJ/mol
# GULP energy per Si atom -5568.318519 kJ/mol
# Density = 2.002907 g / cm^3
# Si number density = 20.074759 Si / 1000 Ang^3
#
#
#
# Elastic Constant Matrix: (Units=GPa)
#
#
# Indices 1 2 3 4 5 6 
#
# 1 142.8107 33.2012 17.3849 0.0000 -0.4394 0.0000
# 2 33.2012 75.7956 26.4338 0.0000 -2.5043 0.0000
# 3 17.3849 26.4338 56.9253 0.0000 -6.5737 0.0000
# 4 0.0000 0.0000 0.0000 7.4256 0.0000 -8.2686
# 5 -0.4394 -2.5043 -6.5737 0.0000 30.3773 0.0000
# 6 0.0000 0.0000 0.0000 -8.2686 0.0000 24.4449
#
#
#
# Elastic Compliance Matrix: (Units=1/GPa)
#
#
# Indices 1 2 3 4 5 6 
#
# 1 0.007843 -0.003100 -0.000997 0.000000 -0.000358 0.000000
# 2 -0.003100 0.016970 -0.006951 0.000000 -0.000150 0.000000
# 3 -0.000997 -0.006951 0.021570 0.000000 0.004080 0.000000
# 4 0.000000 0.000000 0.000000 0.216041 0.000000 0.073076
# 5 -0.000358 -0.000150 0.004080 0.000000 0.033785 0.000000
# 6 0.000000 0.000000 0.000000 0.073076 0.000000 0.065627
#
#
# Mechanical properties :
#
#
# Convention : Reuss Voigt Hill
#
# Bulk Modulus (GPa) = 41.17248 47.73015 44.45131
# Shear Modulus (GPa) = 12.75419 25.68369 19.21894
#
# Velocity S-wave (km/s) = 2.52332 3.58075 3.09749
# Velocity P-wave (km/s) = 5.38921 6.39715 5.91469
#
# Compressibility (1/GPa) = 0.02428807
#
# Stress axis : x y z
#
# Youngs Moduli (GPa) = 127.49918 58.92622 46.35969
#
# Poissons Ratio (x) = 0.18265 0.04623
# Poissons Ratio (y) = 0.39520 0.32225
# Poissons Ratio (z) = 0.12715 0.40960
#
# Static dielectric constant tensor:
#      x y z
#    x 1.920550 0.000000 0.143630 
#    y 0.000000 1.817560 0.000000 
#    z 0.143630 0.000000 1.428730 
# 
# From -- ./inp_files/261923.got.cif
#   From: 2010.05.17/outbox.cif.g08.bks.cpg/sg15_131_cif.got.tgz:261923.got - 2010.06.03 18:47:42.
