data_PCOD9268002
_publ_section_title
;
Structure prediction by ZEFSAII (Michael W. Deem and Ramdas Pophale) SiO2 
 PCOD9268002
Probable space group: C 2/C
;
_chemical_formula_sum "Si O2"
_cell_formula_units_Z 56
_cell_length_a 17.817702
_cell_length_b 10.802555
_cell_length_c 17.959697
_cell_angle_alpha 90.000000
_cell_angle_beta 54.998777
_cell_angle_gamma 90.000000
_cell_volume 2831.621563
_symmetry_space_group_name_H-M "C 2/C"
_symmetry_group_IT_number 15
_symmetry_cell_setting 'monoclinic'
loop_
_space_group_symop_operation_xyz
x,y,z
-x,y,1/2-z
-x,-y,-z
x,-y,1/2+z
1/2+x,1/2+y,z
1/2-x,1/2+y,1/2-z
1/2-x,1/2-y,-z
1/2+x,1/2-y,1/2+z
loop_
_atom_site_type_symbol
_atom_site_label
_atom_site_fract_x
_atom_site_fract_y
_atom_site_fract_z
Si Si1 0.723346 0.167254 0.301701
Si Si2 0.377681 0.978847 0.369176
Si Si3 0.948824 0.594933 0.176413
Si Si4 0.833971 0.002099 0.992037
Si Si5 0.336578 0.449178 0.163438
Si Si6 0.006679 0.876178 0.160873
Si Si7 0.324592 0.291312 0.896719
O O1 0.621766 0.107971 0.351637
O O2 0.713064 0.315805 0.289644
O O3 0.770940 0.164477 0.354743
O O4 0.783106 0.074161 0.216877
O O5 0.275615 0.013975 0.454352
O O6 0.381034 0.832455 0.350683
O O7 0.396528 0.044438 0.279456
O O8 0.458060 0.016166 0.380160
O O9 0.977348 0.733952 0.177873
O O10 0.873620 0.902257 0.910728
O O11 0.848614 0.955252 0.067590
O O12 0.894193 0.118471 0.934769
O O13 0.432764 0.446073 0.151642
O O14 0.000000 0.919353 0.250000
O O15 0.250000 0.250000 0.000000
#
# Coordination Sequence:
#
# PCOD9268002 Si02
#       7
#     8   8   8   8   8   8   8
#     4  11  20  42  68  98 133 182 222 277 339 400
#     4  10  19  41  65  93 131 178 211 275 345 397
#     4  10  21  39  65  94 132 166 221 278 334 385
#     4  11  22  42  64  94 131 175 220 275 339 399
#     4  11  23  40  69  93 136 178 223 283 336 402
#     4  11  23  41  63  95 128 170 219 281 332 403
#     4  10  20  39  66  91 129 175 216 272 332 406
#
# _framework density 19.776654000000001
#
# number of rings (size 3 to 8) (size 9 to 14) (size 15 to 20)
#    0.000    1.429    5.714    1.286    0.000    0.571 
#   10.286    5.714    0.000    0.000    0.000    0.000 
#    0.000    0.000    0.000    0.000    0.000    0.000 
#
# Total GULP energy -155992.588031 kJ/mol
# GULP energy per Si atom -5571.163858 kJ/mol
# Density = 1.973164 g / cm^3
# Si number density = 19.776654 Si / 1000 Ang^3
#
#
#
# Elastic Constant Matrix: (Units=GPa)
#
#
# Indices 1 2 3 4 5 6 
#
# 1 53.4557 -15.7774 68.7392 0.0000 2.2338 0.0000
# 2 -15.7774 52.4810 64.2563 0.0000 -5.6140 0.0000
# 3 68.7392 64.2563 68.6471 0.0000 -0.3411 0.0000
# 4 0.0000 0.0000 0.0000 -30.2353 0.0000 16.4341
# 5 2.2338 -5.6140 -0.3411 0.0000 32.8976 0.0000
# 6 0.0000 0.0000 0.0000 16.4341 0.0000 29.0431
#
#
#
# Elastic Compliance Matrix: (Units=1/GPa)
#
#
# Indices 1 2 3 4 5 6 
#
# 1 0.001369 -0.012814 0.010612 0.000000 -0.002170 0.000000
# 2 -0.012814 0.002504 0.010494 0.000000 0.001406 0.000000
# 3 0.010612 0.010494 -0.005877 0.000000 0.001009 0.000000
# 4 0.000000 0.000000 0.000000 -0.025294 0.000000 0.014313
# 5 -0.002170 0.001406 0.001009 0.000000 0.030795 0.000000
# 6 0.000000 0.000000 0.000000 0.014313 0.000000 0.026333
#
#
# Mechanical properties :
#
#
# Convention : Reuss Voigt Hill
#
# Bulk Modulus (GPa) = 68.58055 45.44666 57.01360
# Shear Modulus (GPa) = 276.15400 10.16547 143.15973
#
# Velocity S-wave (km/s) = 11.82960 2.26965 8.51736
# Velocity P-wave (km/s) = 14.87746 5.46793 11.20797
#
# Compressibility (1/GPa) = 0.01458139
#
# Stress axis : x y z
#
# Youngs Moduli (GPa) = 730.29183 399.31565 -170.15704
#
# Poissons Ratio (x) = 5.11675 1.80575
# Poissons Ratio (y) = 9.35782 1.78561
# Poissons Ratio (z) = -7.75006 -4.19037
#
# Static dielectric constant tensor:
#      x y z
#    x 1.757020 0.000000 -0.016880 
#    y 0.000000 1.815250 0.000000 
#    z -0.016880 0.000000 1.674240 
# 
# From -- ./inp_files/161259.got.cif
#   From: 2010.05.17/outbox.cif.g08.bks.cpg/sg15_81_cif.got.tgz:161259.got - 2010.06.03 18:47:42.
