data_PCOD9268950
_publ_section_title
;
Structure prediction by ZEFSAII (Michael W. Deem and Ramdas Pophale) SiO2 
 PCOD9268950
Probable space group: C 2/C
;
_chemical_formula_sum "Si O2"
_cell_formula_units_Z 44
_cell_length_a 28.300360
_cell_length_b 9.162822
_cell_length_c 21.556414
_cell_angle_alpha 90.000000
_cell_angle_beta 18.092809
_cell_angle_gamma 90.000000
_cell_volume 1735.958073
_symmetry_space_group_name_H-M "C 2/C"
_symmetry_group_IT_number 15
_symmetry_cell_setting 'monoclinic'
loop_
_space_group_symop_operation_xyz
x,y,z
-x,y,1/2-z
-x,-y,-z
x,-y,1/2+z
1/2+x,1/2+y,z
1/2-x,1/2+y,1/2-z
1/2-x,1/2-y,-z
1/2+x,1/2-y,1/2+z
loop_
_atom_site_type_symbol
_atom_site_label
_atom_site_fract_x
_atom_site_fract_y
_atom_site_fract_z
Si Si1 0.865934 0.631567 0.282162
Si Si2 0.416157 0.236652 0.589081
Si Si3 0.663744 0.122523 0.993728
Si Si4 0.744994 0.500111 0.240597
Si Si5 0.449267 0.822652 0.179853
Si Si6 0.000000 0.353334 0.250000
O O1 0.731385 0.747742 0.449965
O O2 0.832031 0.459612 0.329992
O O3 0.943397 0.653829 0.117540
O O4 0.002656 0.660386 0.161003
O O5 0.381924 0.379938 0.591597
O O6 0.419089 0.275100 0.657794
O O7 0.281952 0.116989 0.746604
O O8 0.776743 0.091412 0.795246
O O9 0.633982 0.970183 0.066341
O O10 0.894166 0.595527 0.035992
O O11 0.466763 0.767945 0.228093
#
# Coordination Sequence:
#
# PCOD9268950 Si02
#       6
#     8   8   8   8   8   4
#     4   9  19  32  56  81 117 146 186 238 296 337
#     4  10  20  33  57  80 118 148 184 237 291 350
#     4   9  19  35  54  83 113 151 194 235 285 336
#     4   9  20  34  52  83 113 142 190 233 294 339
#     4   9  19  34  55  75 112 156 188 225 297 340
#     4   8  18  38  56  78 110 158 198 230 268 358
#
# _framework density 25.346235
#
# number of rings (size 3 to 8) (size 9 to 14) (size 15 to 20)
#    0.000    3.636    0.000    2.182   10.182    3.636 
#    0.000    3.636    0.000    0.000    0.000    5.091 
#    0.000    0.000    0.000    0.000    0.000    0.000 
#
# Total GULP energy -122740.248580 kJ/mol
# GULP energy per Si atom -5579.102208 kJ/mol
# Density = 2.528855 g / cm^3
# Si number density = 25.346235 Si / 1000 Ang^3
#
#
#
# Elastic Constant Matrix: (Units=GPa)
#
#
# Indices 1 2 3 4 5 6 
#
# 1 151.5123 16.4417 19.2156 -0.0005 24.3208 0.0000
# 2 16.4417 40.2315 7.2763 -0.0013 -8.0709 -0.0001
# 3 19.2156 7.2763 34.1867 -0.0008 5.5588 0.0001
# 4 -0.0005 -0.0013 -0.0008 27.2304 0.0002 -2.5801
# 5 24.3208 -8.0709 5.5588 0.0002 30.2470 0.0000
# 6 0.0000 -0.0001 0.0001 -2.5801 0.0000 22.5988
#
#
#
# Elastic Compliance Matrix: (Units=1/GPa)
#
#
# Indices 1 2 3 4 5 6 
#
# 1 0.008675 -0.004618 -0.002638 0.000000 -0.007723 0.000000
# 2 -0.004618 0.030419 -0.005981 0.000001 0.012929 0.000000
# 3 -0.002638 -0.005981 0.032905 0.000001 -0.005522 0.000000
# 4 0.000000 0.000001 0.000001 0.037125 0.000000 0.004238
# 5 -0.007723 0.012929 -0.005522 0.000000 0.043736 0.000000
# 6 0.000000 0.000000 0.000000 0.004238 0.000000 0.044734
#
#
# Mechanical properties :
#
#
# Convention : Reuss Voigt Hill
#
# Bulk Modulus (GPa) = 21.96548 34.64417 28.30483
# Shear Modulus (GPa) = 20.89934 28.21504 24.55719
#
# Velocity S-wave (km/s) = 2.87462 3.34006 3.11604
# Velocity P-wave (km/s) = 4.43880 5.34535 4.91303
#
# Compressibility (1/GPa) = 0.04552598
#
# Stress axis : x y z
#
# Youngs Moduli (GPa) = 115.26758 32.87453 30.39084
#
# Poissons Ratio (x) = 0.15181 0.08016
# Poissons Ratio (y) = 0.53228 0.18177
# Poissons Ratio (z) = 0.30404 0.19662
#
# Static dielectric constant tensor:
#      x y z
#    x 2.089470 0.000000 -0.028360 
#    y 0.000000 1.994350 0.000000 
#    z -0.028360 0.000000 2.100930 
# 
# From -- ./inp_files/252462.got.cif
#   From: 2010.05.17/outbox.cif.g08.bks.cpg/sg15_127_cif.got.tgz:252462.got - 2010.06.03 18:47:42.
