data_PCOD9268000
_publ_section_title
;
Structure prediction by ZEFSAII (Michael W. Deem and Ramdas Pophale) SiO2 
 PCOD9268000
Probable space group: C 2/C
;
_chemical_formula_sum "Si O2"
_cell_formula_units_Z 64
_cell_length_a 19.135914
_cell_length_b 9.438292
_cell_length_c 19.173513
_cell_angle_alpha 90.000000
_cell_angle_beta 119.830912
_cell_angle_gamma 90.000000
_cell_volume 3004.086230
_symmetry_space_group_name_H-M "C 2/C"
_symmetry_group_IT_number 15
_symmetry_cell_setting 'monoclinic'
loop_
_space_group_symop_operation_xyz
x,y,z
-x,y,1/2-z
-x,-y,-z
x,-y,1/2+z
1/2+x,1/2+y,z
1/2-x,1/2+y,1/2-z
1/2-x,1/2-y,-z
1/2+x,1/2-y,1/2+z
loop_
_atom_site_type_symbol
_atom_site_label
_atom_site_fract_x
_atom_site_fract_y
_atom_site_fract_z
Si Si1 0.144658 0.165904 0.500023
Si Si2 0.330832 0.655598 0.830984
Si Si3 0.766687 0.529515 0.464246
Si Si4 0.929981 0.591091 0.883890
Si Si5 0.929605 0.366161 0.544417
Si Si6 0.243906 0.444111 0.693754
Si Si7 0.010865 0.172269 0.174929
Si Si8 0.520216 0.663258 0.681531
O O1 0.129106 0.133095 0.573413
O O2 0.189289 0.317870 0.521196
O O3 0.202989 0.049295 0.494102
O O4 0.068270 0.184016 0.412528
O O5 0.293410 0.515188 0.779806
O O6 0.262843 0.775497 0.805538
O O7 0.395955 0.715809 0.808921
O O8 0.838519 0.418580 0.511544
O O9 0.725473 0.508476 0.367939
O O10 0.847509 0.503494 0.847419
O O11 0.005511 0.488884 0.902986
O O12 0.926669 0.720785 0.829088
O O13 0.943277 0.650595 0.968538
O O14 0.951654 0.226281 0.597650
O O15 0.000000 0.213610 0.250000
O O16 0.029243 0.005917 0.183277
O O17 0.500000 0.706584 0.750000
#
# Coordination Sequence:
#
# PCOD9268000 Si02
#       8
#     8   8   8   8   8   8   8   8
#     4  10  21  41  64  95 127 167 216 263 323 380
#     4  11  24  43  65  93 131 173 215 262 325 387
#     4   9  20  38  67  93 126 168 208 275 318 377
#     4  10  20  39  67  93 120 163 221 270 315 390
#     4  10  19  41  65  92 126 166 215 265 332 382
#     4  10  23  40  65  95 128 169 212 267 323 382
#     4  11  25  40  64  95 125 170 220 273 319 388
#     4  11  26  42  61  90 135 175 204 276 331 375
#
# _framework density 21.304314999999999
#
# number of rings (size 3 to 8) (size 9 to 14) (size 15 to 20)
#    0.000    1.750    2.500    0.750    5.250    5.500 
#    2.250    0.625    0.000    0.000    0.000    0.000 
#    0.000    0.000    0.000    0.000    0.000    0.000 
#
# Total GULP energy -178787.986660 kJ/mol
# GULP energy per Si atom -5587.124583 kJ/mol
# Density = 2.125583 g / cm^3
# Si number density = 21.304315 Si / 1000 Ang^3
#
#
#
# Elastic Constant Matrix: (Units=GPa)
#
#
# Indices 1 2 3 4 5 6 
#
# 1 67.2659 9.1401 30.4090 0.0000 -16.7651 0.0000
# 2 9.1401 48.0760 19.3875 0.0000 -17.4352 0.0000
# 3 30.4090 19.3875 116.7241 0.0000 -12.4264 0.0000
# 4 0.0000 0.0000 0.0000 34.3240 0.0000 -0.0508
# 5 -16.7651 -17.4352 -12.4264 0.0000 25.1993 0.0000
# 6 0.0000 0.0000 0.0000 -0.0508 0.0000 25.2626
#
#
#
# Elastic Compliance Matrix: (Units=1/GPa)
#
#
# Indices 1 2 3 4 5 6 
#
# 1 0.019581 0.002588 -0.004173 0.000000 0.012760 0.000000
# 2 0.002588 0.028946 -0.003342 0.000000 0.020101 0.000000
# 3 -0.004173 -0.003342 0.010203 0.000000 -0.000057 0.000000
# 4 0.000000 0.000000 0.000000 0.029134 0.000000 0.000059
# 5 0.012760 0.020101 -0.000057 0.000000 0.062052 0.000000
# 6 0.000000 0.000000 0.000000 0.000059 0.000000 0.039584
#
#
# Mechanical properties :
#
#
# Convention : Reuss Voigt Hill
#
# Bulk Modulus (GPa) = 20.45980 38.88213 29.67096
# Shear Modulus (GPa) = 23.18591 28.49914 25.84252
#
# Velocity S-wave (km/s) = 3.30255 3.66145 3.48662
# Velocity P-wave (km/s) = 4.91598 6.01377 5.49237
#
# Compressibility (1/GPa) = 0.04887632
#
# Stress axis : x y z
#
# Youngs Moduli (GPa) = 51.06881 34.54717 98.00725
#
# Poissons Ratio (x) = -0.08939 0.40895
# Poissons Ratio (y) = -0.13214 0.32754
# Poissons Ratio (z) = 0.21309 0.11546
#
# Static dielectric constant tensor:
#      x y z
#    x 1.797190 0.000000 0.017110 
#    y 0.000000 1.769990 0.000000 
#    z 0.017110 0.000000 1.763360 
# 
# From -- ./inp_files/251908.got.cif
#   From: 2010.05.17/outbox.cif.g08.bks.cpg/sg15_126_cif.got.tgz:251908.got - 2010.06.03 18:47:42.
