data_PCOD9268379
_publ_section_title
;
Structure prediction by ZEFSAII (Michael W. Deem and Ramdas Pophale) SiO2 
 PCOD9268379
Probable space group: C 2/C
;
_chemical_formula_sum "Si O2"
_cell_formula_units_Z 52
_cell_length_a 28.155071
_cell_length_b 22.294322
_cell_length_c 5.569915
_cell_angle_alpha 90.000000
_cell_angle_beta 48.814570
_cell_angle_gamma 90.000000
_cell_volume 2631.197896
_symmetry_space_group_name_H-M "C 2/C"
_symmetry_group_IT_number 15
_symmetry_cell_setting 'monoclinic'
loop_
_space_group_symop_operation_xyz
x,y,z
-x,y,1/2-z
-x,-y,-z
x,-y,1/2+z
1/2+x,1/2+y,z
1/2-x,1/2+y,1/2-z
1/2-x,1/2-y,-z
1/2+x,1/2-y,1/2+z
loop_
_atom_site_type_symbol
_atom_site_label
_atom_site_fract_x
_atom_site_fract_y
_atom_site_fract_z
Si Si1 0.294002 0.722396 0.558177
Si Si2 0.068240 0.273613 0.896669
Si Si3 0.097603 0.158983 0.099147
Si Si4 0.785811 0.532389 0.263129
Si Si5 0.320690 0.833840 0.761958
Si Si6 0.000000 0.791539 0.250000
Si Si7 0.367044 0.531627 0.719071
O O1 0.250000 0.750000 0.500000
O O2 0.349359 0.672404 0.372266
O O3 0.327293 0.783237 0.537837
O O4 0.243206 0.688896 0.897002
O O5 0.118465 0.325819 0.770348
O O6 0.051772 0.253291 0.685082
O O7 0.100081 0.213961 0.904249
O O8 0.000000 0.284709 0.250000
O O9 0.030150 0.166935 0.447918
O O10 0.108482 0.097465 0.928297
O O11 0.804642 0.497936 0.446921
O O12 0.811374 0.599860 0.196478
O O13 0.709351 0.534074 0.521731
O O14 0.386063 0.491340 0.421974
#
# Coordination Sequence:
#
# PCOD9268379 Si02
#       7
#     8   8   8   8   8   4   8
#     4  10  20  31  55  89 115 145 185 248 302 350
#     4   9  20  37  57  83 113 146 192 238 306 348
#     4  10  20  36  54  81 114 151 192 245 291 348
#     4  10  22  39  58  86 122 162 195 236 292 357
#     4  10  20  35  55  87 116 147 194 241 296 354
#     4  10  20  36  58  78 108 154 192 240 304 352
#     4  10  22  37  57  82 116 159 199 238 288 344
#
# _framework density 19.762861999999998
#
# number of rings (size 3 to 8) (size 9 to 14) (size 15 to 20)
#    0.000    2.154    1.538    0.923    4.308    1.231 
#    0.000    0.769    0.000    0.923    0.000    0.000 
#    0.000    0.000    0.000    0.000    0.000    0.000 
#
# Total GULP energy -144827.874355 kJ/mol
# GULP energy per Si atom -5570.302860 kJ/mol
# Density = 1.971788 g / cm^3
# Si number density = 19.762862 Si / 1000 Ang^3
#
#
#
# Elastic Constant Matrix: (Units=GPa)
#
#
# Indices 1 2 3 4 5 6 
#
# 1 69.0999 10.1052 3.2560 0.0000 5.9814 0.0000
# 2 10.1052 72.0921 2.5597 0.0000 -2.2678 0.0000
# 3 3.2560 2.5597 40.5618 0.0000 -1.4060 0.0000
# 4 0.0000 0.0000 0.0000 18.5331 0.0000 -2.0491
# 5 5.9814 -2.2678 -1.4060 0.0000 21.5032 0.0000
# 6 0.0000 0.0000 0.0000 -2.0491 0.0000 20.6275
#
#
#
# Elastic Compliance Matrix: (Units=1/GPa)
#
#
# Indices 1 2 3 4 5 6 
#
# 1 0.015252 -0.002237 -0.001241 0.000000 -0.004560 0.000000
# 2 -0.002237 0.014273 -0.000649 0.000000 0.002085 0.000000
# 3 -0.001241 -0.000649 0.024860 0.000000 0.001902 0.000000
# 4 0.000000 0.000000 0.000000 0.054557 0.000000 0.005419
# 5 -0.004560 0.002085 0.001902 0.000000 0.048117 0.000000
# 6 0.000000 0.000000 0.000000 0.005419 0.000000 0.049017
#
#
# Mechanical properties :
#
#
# Convention : Reuss Voigt Hill
#
# Bulk Modulus (GPa) = 21.67734 23.73285 22.70509
# Shear Modulus (GPa) = 21.76669 23.18829 22.47749
#
# Velocity S-wave (km/s) = 3.32233 3.42910 3.37614
# Velocity P-wave (km/s) = 5.07047 5.26433 5.16831
#
# Compressibility (1/GPa) = 0.04613112
#
# Stress axis : x y z
#
# Youngs Moduli (GPa) = 65.56447 70.06046 40.22481
#
# Poissons Ratio (x) = 0.15674 0.04993
# Poissons Ratio (y) = 0.14669 0.02610
# Poissons Ratio (z) = 0.08138 0.04546
#
# Static dielectric constant tensor:
#      x y z
#    x 1.840580 0.000000 0.018040 
#    y 0.000000 1.680140 0.000000 
#    z 0.018040 0.000000 1.759410 
# 
# From -- ./inp_files/13331.got.cif
#   From: 2010.05.17/outbox.cif.g08.bks.cpg/sg15_7_cif.got.tgz:13331.got - 2010.06.03 18:47:42.
