data_PCOD9268674
_publ_section_title
;
Structure prediction by ZEFSAII (Michael W. Deem and Ramdas Pophale) SiO2 
 PCOD9268674
Probable space group: C 2/C
;
_chemical_formula_sum "Si O2"
_cell_formula_units_Z 60
_cell_length_a 31.266783
_cell_length_b 8.549382
_cell_length_c 28.111130
_cell_angle_alpha 90.000000
_cell_angle_beta 162.861569
_cell_angle_gamma 90.000000
_cell_volume 2214.363343
_symmetry_space_group_name_H-M "C 2/C"
_symmetry_group_IT_number 15
_symmetry_cell_setting 'monoclinic'
loop_
_space_group_symop_operation_xyz
x,y,z
-x,y,1/2-z
-x,-y,-z
x,-y,1/2+z
1/2+x,1/2+y,z
1/2-x,1/2+y,1/2-z
1/2-x,1/2-y,-z
1/2+x,1/2-y,1/2+z
loop_
_atom_site_type_symbol
_atom_site_label
_atom_site_fract_x
_atom_site_fract_y
_atom_site_fract_z
Si Si1 0.915312 0.453265 0.503535
Si Si2 0.802681 0.137974 0.122047
Si Si3 0.285278 0.047262 0.220978
Si Si4 0.854379 0.092630 0.334467
Si Si5 0.973011 0.194458 0.063244
Si Si6 0.244128 0.990953 0.071389
Si Si7 0.500000 0.447258 0.750000
Si Si8 0.960265 0.603555 0.155116
O O1 0.759482 0.480734 0.313933
O O2 0.946014 0.632409 0.553924
O O3 0.928814 0.346511 0.565217
O O4 0.039619 0.430306 0.595467
O O5 0.735350 0.302969 0.066801
O O6 0.927621 0.100202 0.293781
O O7 0.890145 0.151452 0.165641
O O8 0.680761 0.006714 0.987469
O O9 0.258739 0.074662 0.136942
O O10 0.223001 0.145011 0.199170
O O11 0.173834 0.895954 0.106672
O O12 0.921108 0.218384 0.369276
O O13 0.000000 0.000000 0.500000
O O14 0.385577 0.021593 0.191240
O O15 0.100793 0.043895 0.892431
O O16 0.000000 0.672528 0.250000
#
# Coordination Sequence:
#
# PCOD9268674 Si02
#       8
#     8   8   8   8   8   8   4   8
#     4  11  20  33  52  70  95 131 177 210 241 291
#     4  12  20  29  42  65  97 129 172 212 232 265
#     4  10  20  33  46  67  93 126 172 207 256 291
#     4  10  22  35  51  67  93 128 170 210 259 298
#     4  11  19  33  50  70  92 128 172 217 240 288
#     4  11  21  28  41  62  91 131 165 208 232 279
#     4  12  22  26  42  62  94 132 174 208 236 264
#     4  11  21  29  42  67  98 128 167 207 236 266
#
# _framework density 27.095824
#
# number of rings (size 3 to 8) (size 9 to 14) (size 15 to 20)
#    0.000    1.067    6.667    3.200    1.867    0.000 
#    0.000    0.000    0.000    0.000    0.000    0.000 
#    0.000    0.000    0.000    1.200   24.267   24.933 
#
# Total GULP energy -167382.711087 kJ/mol
# GULP energy per Si atom -5579.423703 kJ/mol
# Density = 2.703415 g / cm^3
# Si number density = 27.095824 Si / 1000 Ang^3
#
#
#
# Elastic Constant Matrix: (Units=GPa)
#
#
# Indices 1 2 3 4 5 6 
#
# 1 208.0393 25.9202 54.9608 0.0015 17.2533 0.0005
# 2 25.9202 33.6781 15.1787 0.0027 12.3884 0.0017
# 3 54.9608 15.1787 207.5492 0.0049 0.9810 0.0030
# 4 0.0015 0.0027 0.0049 8.0082 0.0026 0.6735
# 5 17.2533 12.3884 0.9810 0.0026 57.6797 0.0014
# 6 0.0005 0.0017 0.0030 0.6735 0.0014 8.5436
#
#
#
# Elastic Compliance Matrix: (Units=1/GPa)
#
#
# Indices 1 2 3 4 5 6 
#
# 1 0.005639 -0.003442 -0.001237 0.000001 -0.000927 0.000001
# 2 -0.003442 0.035503 -0.001654 -0.000008 -0.006568 -0.000005
# 3 -0.001237 -0.001654 0.005264 -0.000003 0.000636 -0.000001
# 4 0.000001 -0.000008 -0.000003 0.125706 -0.000004 -0.009909
# 5 -0.000927 -0.006568 0.000636 -0.000004 0.019014 -0.000002
# 6 0.000001 -0.000005 -0.000001 -0.009909 -0.000002 0.117827
#
#
# Mechanical properties :
#
#
# Convention : Reuss Voigt Hill
#
# Bulk Modulus (GPa) = 29.63827 71.26510 50.45169
# Shear Modulus (GPa) = 15.02106 38.39343 26.70725
#
# Velocity S-wave (km/s) = 2.35706 3.76832 3.14293
# Velocity P-wave (km/s) = 4.28599 6.72993 5.64188
#
# Compressibility (1/GPa) = 0.03374016
#
# Stress axis : x y z
#
# Youngs Moduli (GPa) = 177.32655 28.16646 189.97954
#
# Poissons Ratio (x) = 0.09694 0.23505
# Poissons Ratio (y) = 0.61032 0.31423
# Poissons Ratio (z) = 0.21940 0.04659
#
# Static dielectric constant tensor:
#      x y z
#    x 2.153970 0.000000 -0.062470 
#    y 0.000000 2.171040 0.000000 
#    z -0.062470 0.000000 2.141110 
# 
# From -- ./inp_files/304327.got.cif
#   From: 2010.05.17/outbox.cif.g08.bks.cpg/sg15_153_cif.got.tgz:304327.got - 2010.06.03 18:47:42.
