data_PCOD9268312
_publ_section_title
;
Structure prediction by ZEFSAII (Michael W. Deem and Ramdas Pophale) SiO2 
 PCOD9268312
Probable space group: C 2/C
;
_chemical_formula_sum "Si O2"
_cell_formula_units_Z 64
_cell_length_a 22.924809
_cell_length_b 25.282668
_cell_length_c 8.100332
_cell_angle_alpha 90.000000
_cell_angle_beta 119.813254
_cell_angle_gamma 90.000000
_cell_volume 4073.580021
_symmetry_space_group_name_H-M "C 2/C"
_symmetry_group_IT_number 15
_symmetry_cell_setting 'monoclinic'
loop_
_space_group_symop_operation_xyz
x,y,z
-x,y,1/2-z
-x,-y,-z
x,-y,1/2+z
1/2+x,1/2+y,z
1/2-x,1/2+y,1/2-z
1/2-x,1/2-y,-z
1/2+x,1/2-y,1/2+z
loop_
_atom_site_type_symbol
_atom_site_label
_atom_site_fract_x
_atom_site_fract_y
_atom_site_fract_z
Si Si1 0.157596 0.994803 0.263111
Si Si2 0.075131 0.938516 0.423199
Si Si3 0.426820 0.345252 0.574463
Si Si4 0.156247 0.257142 0.519578
Si Si5 0.425989 0.325781 0.184135
Si Si6 0.299395 0.582282 0.959723
Si Si7 0.326337 0.769469 0.587888
Si Si8 0.789956 0.317572 0.208941
O O1 0.203155 0.043198 0.388732
O O2 0.130673 0.958797 0.372483
O O3 0.193979 0.956893 0.186057
O O4 0.091196 0.024163 0.098963
O O5 0.085257 0.875522 0.452858
O O6 0.000000 0.945393 0.250000
O O7 0.500000 0.357134 0.750000
O O8 0.403130 0.285659 0.585708
O O9 0.426206 0.347414 0.373236
O O10 0.369708 0.385104 0.558632
O O11 0.150423 0.283562 0.693131
O O12 0.165076 0.296803 0.379662
O O13 0.224328 0.221227 0.620181
O O14 0.500000 0.304096 0.250000
O O15 0.370687 0.280724 0.094674
O O16 0.240188 0.624449 0.862103
O O17 0.250000 0.750000 0.500000
O O18 0.325414 0.810995 0.436748
#
# Coordination Sequence:
#
# PCOD9268312 Si02
#       8
#     8   8   8   8   8   8   8   8
#     4  10  21  33  44  59  90 118 167 218 250 269
#     4  10  20  31  44  60  84 124 168 204 242 284
#     4  10  20  31  47  65  99 129 163 199 236 287
#     4   8  17  31  45  73  89 117 159 197 238 291
#     4  10  21  32  45  71  96 125 168 201 248 293
#     4  10  21  35  46  67  89 127 167 208 249 283
#     4   9  18  31  50  68  93 122 158 203 241 298
#     4   9  17  32  51  66  90 116 162 198 243 299
#
# _framework density 15.710997000000001
#
# number of rings (size 3 to 8) (size 9 to 14) (size 15 to 20)
#    0.000    2.500    1.250    1.125    5.250    5.000 
#    2.250    0.000    0.000    0.000    0.000    0.000 
#    0.000    0.000    0.000    3.375    0.500    0.000 
#
# Total GULP energy -178268.797862 kJ/mol
# GULP energy per Si atom -5570.899933 kJ/mol
# Density = 1.567524 g / cm^3
# Si number density = 15.710997 Si / 1000 Ang^3
#
#
#
# Elastic Constant Matrix: (Units=GPa)
#
#
# Indices 1 2 3 4 5 6 
#
# 1 44.6321 34.4703 10.5880 0.0000 -2.4538 0.0000
# 2 34.4703 84.9624 41.1687 0.0000 -2.4277 0.0000
# 3 10.5880 41.1687 44.3244 0.0000 -7.1991 0.0000
# 4 0.0000 0.0000 0.0000 5.3054 0.0000 -8.8459
# 5 -2.4538 -2.4277 -7.1991 0.0000 15.6898 0.0000
# 6 0.0000 0.0000 0.0000 -8.8459 0.0000 17.5508
#
#
#
# Elastic Compliance Matrix: (Units=1/GPa)
#
#
# Indices 1 2 3 4 5 6 
#
# 1 0.035106 -0.019185 0.010635 0.000000 0.007402 0.000000
# 2 -0.019185 0.032474 -0.027284 0.000000 -0.010494 0.000000
# 3 0.010635 -0.027284 0.048565 0.000000 0.019725 0.000000
# 4 0.000000 0.000000 0.000000 1.180790 0.000000 0.595139
# 5 0.007402 -0.010494 0.019725 0.000000 0.072320 0.000000
# 6 0.000000 0.000000 0.000000 0.595139 0.000000 0.356938
#
#
# Mechanical properties :
#
#
# Convention : Reuss Voigt Hill
#
# Bulk Modulus (GPa) = 22.48262 38.48589 30.48426
# Shear Modulus (GPa) = 2.75834 13.55534 8.15684
#
# Velocity S-wave (km/s) = 1.32646 2.94052 2.28102
# Velocity P-wave (km/s) = 4.08499 6.00651 5.13641
#
# Compressibility (1/GPa) = 0.04447880
#
# Stress axis : x y z
#
# Youngs Moduli (GPa) = 28.48502 30.79396 20.59081
#
# Poissons Ratio (x) = 0.59078 -0.21899
# Poissons Ratio (y) = 0.54648 0.56179
# Poissons Ratio (z) = -0.30294 0.84017
#
# Static dielectric constant tensor:
#      x y z
#    x -0.035340 0.000000 0.419880 
#    y 0.000000 1.515270 0.000000 
#    z 0.419880 0.000000 1.435990 
# 
# From -- ./inp_files/63844.got.cif
#   From: 2010.05.17/outbox.cif.g08.bks.cpg/sg15_32_cif.got.tgz:63844.got - 2010.06.03 18:47:42.
