data_PCOD9268859
_publ_section_title
;
Structure prediction by ZEFSAII (Michael W. Deem and Ramdas Pophale) SiO2 
 PCOD9268859
Probable space group: C 2/C
;
_chemical_formula_sum "Si O2"
_cell_formula_units_Z 56
_cell_length_a 11.262855
_cell_length_b 16.105689
_cell_length_c 15.267621
_cell_angle_alpha 90.000000
_cell_angle_beta 107.415274
_cell_angle_gamma 90.000000
_cell_volume 2642.534345
_symmetry_space_group_name_H-M "C 2/C"
_symmetry_group_IT_number 15
_symmetry_cell_setting 'monoclinic'
loop_
_space_group_symop_operation_xyz
x,y,z
-x,y,1/2-z
-x,-y,-z
x,-y,1/2+z
1/2+x,1/2+y,z
1/2-x,1/2+y,1/2-z
1/2-x,1/2-y,-z
1/2+x,1/2-y,1/2+z
loop_
_atom_site_type_symbol
_atom_site_label
_atom_site_fract_x
_atom_site_fract_y
_atom_site_fract_z
Si Si1 0.614570 0.178093 0.456902
Si Si2 0.003390 0.838248 0.990128
Si Si3 0.341073 0.897446 0.356915
Si Si4 0.414338 0.078131 0.320204
Si Si5 0.561122 0.227409 0.849805
Si Si6 0.277430 0.600101 0.846195
Si Si7 0.727676 0.591841 0.148364
O O1 0.582517 0.270574 0.478803
O O2 0.683486 0.127690 0.549279
O O3 0.481898 0.137084 0.403582
O O4 0.695913 0.160082 0.389728
O O5 0.913003 0.896124 0.912626
O O6 0.083225 0.788807 0.934959
O O7 0.092041 0.881882 0.079347
O O8 0.448620 0.833415 0.353196
O O9 0.230215 0.893449 0.261482
O O10 0.399061 0.988292 0.358996
O O11 0.500000 0.073723 0.250000
O O12 0.277641 0.106338 0.257706
O O13 0.500000 0.269273 0.750000
O O14 0.677853 0.168544 0.855710
O O15 0.238254 0.505219 0.861023
#
# Coordination Sequence:
#
# PCOD9268859 Si02
#       7
#     8   8   8   8   8   8   8
#     4  10  20  33  54  81 106 136 178 224 263 308
#     4  11  22  35  54  81 111 143 173 213 268 318
#     4   9  17  32  55  81 107 137 177 222 263 308
#     4   9  17  31  53  78 104 138 179 222 265 309
#     4   9  18  34  56  80 107 136 176 225 265 303
#     4  10  20  37  57  77 106 145 179 212 262 320
#     4  10  21  38  55  76 109 145 177 214 261 318
#
# _framework density 21.191777999999999
#
# number of rings (size 3 to 8) (size 9 to 14) (size 15 to 20)
#    0.000    2.286    0.000    4.714    0.000    4.571 
#    0.000    5.000    0.000    0.000    0.000    0.000 
#    0.000    0.000    0.000    0.000    0.000    0.000 
#
# Total GULP energy -156108.903374 kJ/mol
# GULP energy per Si atom -5575.317978 kJ/mol
# Density = 2.114354 g / cm^3
# Si number density = 21.191778 Si / 1000 Ang^3
#
#
#
# Elastic Constant Matrix: (Units=GPa)
#
#
# Indices 1 2 3 4 5 6 
#
# 1 15.3687 7.5534 13.2485 0.0000 13.7773 0.0000
# 2 7.5534 56.5882 43.1755 0.0000 11.1906 0.0000
# 3 13.2485 43.1755 116.4376 0.0000 37.1843 0.0000
# 4 0.0000 0.0000 0.0000 37.9067 0.0000 13.4563
# 5 13.7773 11.1906 37.1843 0.0000 38.8082 0.0000
# 6 0.0000 0.0000 0.0000 13.4563 0.0000 0.5577
#
#
#
# Elastic Compliance Matrix: (Units=1/GPa)
#
#
# Indices 1 2 3 4 5 6 
#
# 1 0.098395 -0.008690 0.003432 0.000000 -0.035714 0.000000
# 2 -0.008690 0.025564 -0.010261 0.000000 0.005545 0.000000
# 3 0.003432 -0.010261 0.016494 0.000000 -0.014063 0.000000
# 4 0.000000 0.000000 0.000000 -0.003487 0.000000 0.084138
# 5 -0.035714 0.005545 -0.014063 0.000000 0.050322 0.000000
# 6 0.000000 0.000000 0.000000 0.084138 0.000000 -0.237019
#
#
# Mechanical properties :
#
#
# Convention : Reuss Voigt Hill
#
# Bulk Modulus (GPa) = 9.13958 35.14995 22.14477
# Shear Modulus (GPa) = 281.23699 23.74900 152.49299
#
# Velocity S-wave (km/s) = 11.53250 3.35127 8.49204
# Velocity P-wave (km/s) = 13.47789 5.62115 10.32596
#
# Compressibility (1/GPa) = 0.10941422
#
# Stress axis : x y z
#
# Youngs Moduli (GPa) = 10.16311 39.11744 60.62878
#
# Poissons Ratio (x) = 0.33992 -0.20806
# Poissons Ratio (y) = 0.08831 0.62214
# Poissons Ratio (z) = -0.03488 0.40140
#
# Static dielectric constant tensor:
#      x y z
#    x 1.815330 0.000000 -0.005990 
#    y 0.000000 1.741570 0.000000 
#    z -0.005990 0.000000 1.815330 
# 
# From -- ./inp_files/199290.got.cif
#   From: 2010.05.17/outbox.cif.g08.bks.cpg/sg15_100_cif.got.tgz:199290.got - 2010.06.03 18:47:42.
