data_PCOD9268260
_publ_section_title
;
Structure prediction by ZEFSAII (Michael W. Deem and Ramdas Pophale) SiO2 
 PCOD9268260
Probable space group: C 2/C
;
_chemical_formula_sum "Si O2"
_cell_formula_units_Z 60
_cell_length_a 21.339750
_cell_length_b 13.638370
_cell_length_c 8.658062
_cell_angle_alpha 90.000000
_cell_angle_beta 104.594263
_cell_angle_gamma 90.000000
_cell_volume 2438.533177
_symmetry_space_group_name_H-M "C 2/C"
_symmetry_group_IT_number 15
_symmetry_cell_setting 'monoclinic'
loop_
_space_group_symop_operation_xyz
x,y,z
-x,y,1/2-z
-x,-y,-z
x,-y,1/2+z
1/2+x,1/2+y,z
1/2-x,1/2+y,1/2-z
1/2-x,1/2-y,-z
1/2+x,1/2-y,1/2+z
loop_
_atom_site_type_symbol
_atom_site_label
_atom_site_fract_x
_atom_site_fract_y
_atom_site_fract_z
Si Si1 0.724857 0.908222 0.360885
Si Si2 0.379482 0.858288 0.009176
Si Si3 0.427286 0.187715 0.221684
Si Si4 0.024069 0.111573 0.607071
Si Si5 0.398784 0.929721 0.430321
Si Si6 0.500000 0.139324 0.750000
Si Si7 0.692587 0.465533 0.358754
Si Si8 0.894867 0.931630 0.920491
O O1 0.688035 0.832062 0.451865
O O2 0.664092 0.934900 0.215287
O O3 0.780914 0.899174 0.266040
O O4 0.751853 0.988732 0.497895
O O5 0.381427 0.851373 0.827217
O O6 0.397208 0.974364 0.036251
O O7 0.440691 0.805256 0.127214
O O8 0.500000 0.141521 0.250000
O O9 0.443379 0.293623 0.300973
O O10 0.395963 0.165472 0.038502
O O11 0.960111 0.132526 0.465924
O O12 0.000000 0.057085 0.750000
O O13 0.073716 0.041203 0.553078
O O14 0.461967 0.917888 0.362626
O O15 0.646060 0.412154 0.451184
O O16 0.653362 0.555769 0.253417
#
# Coordination Sequence:
#
# PCOD9268260 Si02
#       8
#     8   8   8   8   8   4   8   8
#     4  10  21  34  57  92 134 163 234 274 314 373
#     4  11  21  34  54  90 132 176 226 278 315 393
#     4  11  23  37  60  94 137 178 217 263 354 405
#     4  10  21  40  65 103 134 164 204 281 356 433
#     4  11  21  34  56  88 129 179 221 287 311 390
#     4  10  20  30  46  76 124 164 228 258 326 352
#     4  10  20  37  63 102 123 172 223 287 314 402
#     4  10  20  39  72  98 132 161 216 275 358 406
#
# _framework density 24.604953999999999
#
# number of rings (size 3 to 8) (size 9 to 14) (size 15 to 20)
#    0.000    1.600    4.000    2.000    1.867    0.000 
#    0.000    1.333    0.000    6.400    0.000    0.000 
#    0.000    0.000    0.000    0.000    0.000    0.000 
#
# Total GULP energy -167203.308286 kJ/mol
# GULP energy per Si atom -5573.443610 kJ/mol
# Density = 2.454895 g / cm^3
# Si number density = 24.604954 Si / 1000 Ang^3
#
#
#
# Elastic Constant Matrix: (Units=GPa)
#
#
# Indices 1 2 3 4 5 6 
#
# 1 136.2384 17.0113 50.7107 0.0000 -4.8500 0.0000
# 2 17.0113 54.9282 27.4476 0.0000 -0.8906 0.0000
# 3 50.7107 27.4476 144.9260 0.0000 -1.9926 0.0000
# 4 0.0000 0.0000 0.0000 -34.4597 0.0000 -12.8399
# 5 -4.8500 -0.8906 -1.9926 0.0000 61.4227 0.0000
# 6 0.0000 0.0000 0.0000 -12.8399 0.0000 13.6250
#
#
#
# Elastic Compliance Matrix: (Units=1/GPa)
#
#
# Indices 1 2 3 4 5 6 
#
# 1 0.008538 -0.001266 -0.002740 0.000000 0.000567 0.000000
# 2 -0.001266 0.020298 -0.003400 0.000000 0.000084 0.000000
# 3 -0.002740 -0.003400 0.008503 0.000000 0.000010 0.000000
# 4 0.000000 0.000000 0.000000 -0.021478 0.000000 -0.020240
# 5 0.000567 0.000084 0.000010 0.000000 0.016327 0.000000
# 6 0.000000 0.000000 0.000000 -0.020240 0.000000 0.054320
#
#
# Mechanical properties :
#
#
# Convention : Reuss Voigt Hill
#
# Bulk Modulus (GPa) = 44.39116 58.49244 51.44180
# Shear Modulus (GPa) = 45.94317 24.17913 35.06115
#
# Velocity S-wave (km/s) = 4.32584 3.13820 3.77896
# Velocity P-wave (km/s) = 6.55982 6.07908 6.32402
#
# Compressibility (1/GPa) = 0.02252701
#
# Stress axis : x y z
#
# Youngs Moduli (GPa) = 117.12032 49.26580 117.60652
#
# Poissons Ratio (x) = 0.06237 0.32225
# Poissons Ratio (y) = 0.14826 0.39988
# Poissons Ratio (z) = 0.32092 0.16751
#
# Static dielectric constant tensor:
#      x y z
#    x 2.067540 0.000000 -0.014330 
#    y 0.000000 2.003550 0.000000 
#    z -0.014330 0.000000 1.990020 
# 
# From -- ./inp_files/56658.got.cif
#   From: 2010.05.17/outbox.cif.g08.bks.cpg/sg15_29_cif.got.tgz:56658.got - 2010.06.03 18:47:42.
