data_PCOD9268090
_publ_section_title
;
Structure prediction by ZEFSAII (Michael W. Deem and Ramdas Pophale) SiO2 
 PCOD9268090
Probable space group: C 2/C
;
_chemical_formula_sum "Si O2"
_cell_formula_units_Z 60
_cell_length_a 15.046010
_cell_length_b 22.532099
_cell_length_c 9.640440
_cell_angle_alpha 90.000000
_cell_angle_beta 76.782398
_cell_angle_gamma 90.000000
_cell_volume 3181.703400
_symmetry_space_group_name_H-M "C 2/C"
_symmetry_group_IT_number 15
_symmetry_cell_setting 'monoclinic'
loop_
_space_group_symop_operation_xyz
x,y,z
-x,y,1/2-z
-x,-y,-z
x,-y,1/2+z
1/2+x,1/2+y,z
1/2-x,1/2+y,1/2-z
1/2-x,1/2-y,-z
1/2+x,1/2-y,1/2+z
loop_
_atom_site_type_symbol
_atom_site_label
_atom_site_fract_x
_atom_site_fract_y
_atom_site_fract_z
Si Si1 0.868886 0.978225 0.548763
Si Si2 0.101670 0.695749 0.260664
Si Si3 0.286319 0.358805 0.621509
Si Si4 0.693147 0.387347 0.398682
Si Si5 0.500000 0.496052 0.250000
Si Si6 0.666462 0.797903 0.046289
Si Si7 0.098020 0.817269 0.664847
Si Si8 0.895902 0.166724 0.817419
O O1 0.792374 0.928806 0.594750
O O2 0.930504 0.967198 0.388957
O O3 0.826815 0.044315 0.559353
O O4 0.933138 0.972383 0.662744
O O5 0.184091 0.665324 0.147250
O O6 0.120732 0.686102 0.416740
O O7 0.111034 0.766154 0.234396
O O8 0.000000 0.678161 0.250000
O O9 0.324446 0.340210 0.758126
O O10 0.359877 0.332884 0.486669
O O11 0.789216 0.356478 0.402690
O O12 0.619445 0.348399 0.511230
O O13 0.671155 0.374465 0.247393
O O14 0.600506 0.754271 0.155005
O O15 0.750000 0.750000 0.000000
O O16 0.000000 0.837279 0.750000
O O17 0.000000 0.148220 0.750000
#
# Coordination Sequence:
#
# PCOD9268090 Si02
#       8
#     8   8   8   8   4   8   8   8
#     4  11  25  37  58  89 126 166 204 240 300 373
#     4  11  23  43  64  88 119 162 210 264 309 350
#     4  12  24  38  60  91 128 163 209 245 305 369
#     4  11  21  39  61  81 128 166 197 246 299 364
#     4  10  24  38  54  86 132 160 204 238 292 374
#     4  10  19  42  61  86 118 155 207 251 307 355
#     4  11  22  35  64  93 120 162 203 247 301 380
#     4  11  23  36  59  93 130 160 191 255 312 367
#
# _framework density 18.857824000000001
#
# number of rings (size 3 to 8) (size 9 to 14) (size 15 to 20)
#    0.000    1.067    5.333    2.800   13.067    0.000 
#    0.000    0.000    0.000    1.600    0.000    0.000 
#    0.000    0.000    0.000    0.000    0.000    0.000 
#
# Total GULP energy -167350.507609 kJ/mol
# GULP energy per Si atom -5578.350254 kJ/mol
# Density = 1.881490 g / cm^3
# Si number density = 18.857824 Si / 1000 Ang^3
#
#
#
# Elastic Constant Matrix: (Units=GPa)
#
#
# Indices 1 2 3 4 5 6 
#
# 1 98.6905 42.3045 20.7819 0.0000 4.7062 0.0000
# 2 42.3045 119.1551 21.1990 0.0000 -2.3791 0.0000
# 3 20.7819 21.1990 75.8505 0.0000 8.1210 0.0000
# 4 0.0000 0.0000 0.0000 22.4553 0.0000 -2.2810
# 5 4.7062 -2.3791 8.1210 0.0000 30.7241 0.0000
# 6 0.0000 0.0000 0.0000 -2.2810 0.0000 5.6666
#
#
#
# Elastic Compliance Matrix: (Units=1/GPa)
#
#
# Indices 1 2 3 4 5 6 
#
# 1 0.012392 -0.004062 -0.002082 0.000000 -0.001662 0.000000
# 2 -0.004062 0.010220 -0.001950 0.000000 0.001929 0.000000
# 3 -0.002082 -0.001950 0.014697 0.000000 -0.003717 0.000000
# 4 0.000000 0.000000 0.000000 0.046431 0.000000 0.018690
# 5 -0.001662 0.001929 -0.003717 0.000000 0.033934 0.000000
# 6 0.000000 0.000000 0.000000 0.018690 0.000000 0.183996
#
#
# Mechanical properties :
#
#
# Convention : Reuss Voigt Hill
#
# Bulk Modulus (GPa) = 47.34638 51.36297 49.35467
# Shear Modulus (GPa) = 15.38938 25.72990 20.55964
#
# Velocity S-wave (km/s) = 2.85980 3.69781 3.30547
# Velocity P-wave (km/s) = 6.00551 6.74743 6.38725
#
# Compressibility (1/GPa) = 0.02112094
#
# Stress axis : x y z
#
# Youngs Moduli (GPa) = 80.69922 97.84624 68.04054
#
# Poissons Ratio (x) = 0.39748 0.14165
# Poissons Ratio (y) = 0.32783 0.13267
# Poissons Ratio (z) = 0.16800 0.19079
#
# Static dielectric constant tensor:
#      x y z
#    x 1.671070 0.000000 -0.005980 
#    y 0.000000 1.687030 0.000000 
#    z -0.005980 0.000000 1.690770 
# 
# From -- ./inp_files/42178.got.cif
#   From: 2010.05.17/outbox.cif.g08.bks.cpg/sg15_22_cif.got.tgz:42178.got - 2010.06.03 18:47:42.
