data_PCOD9268085
_publ_section_title
;
Structure prediction by ZEFSAII (Michael W. Deem and Ramdas Pophale) SiO2 
 PCOD9268085
Probable space group: C 2/C
;
_chemical_formula_sum "Si O2"
_cell_formula_units_Z 48
_cell_length_a 19.166729
_cell_length_b 11.798747
_cell_length_c 9.497787
_cell_angle_alpha 90.000000
_cell_angle_beta 96.886395
_cell_angle_gamma 90.000000
_cell_volume 2132.366698
_symmetry_space_group_name_H-M "C 2/C"
_symmetry_group_IT_number 15
_symmetry_cell_setting 'monoclinic'
loop_
_space_group_symop_operation_xyz
x,y,z
-x,y,1/2-z
-x,-y,-z
x,-y,1/2+z
1/2+x,1/2+y,z
1/2-x,1/2+y,1/2-z
1/2-x,1/2-y,-z
1/2+x,1/2-y,1/2+z
loop_
_atom_site_type_symbol
_atom_site_label
_atom_site_fract_x
_atom_site_fract_y
_atom_site_fract_z
Si Si1 0.808248 0.910187 0.519640
Si Si2 0.547559 0.853854 0.629731
Si Si3 0.292936 0.229287 0.297828
Si Si4 0.942534 0.777842 0.631897
Si Si5 0.874754 0.566310 0.774925
Si Si6 0.288349 0.900823 0.535904
O O1 0.759003 0.852977 0.627598
O O2 0.785928 0.850796 0.367418
O O3 0.887407 0.872962 0.569913
O O4 0.786766 0.039685 0.504203
O O5 0.500000 0.821924 0.750000
O O6 0.627065 0.806825 0.653200
O O7 0.519589 0.791028 0.484990
O O8 0.561877 0.988508 0.646339
O O9 0.282544 0.209795 0.131203
O O10 0.899990 0.678356 0.701769
O O11 0.000000 0.827104 0.750000
O O12 0.834464 0.487239 0.649372
O O13 0.828237 0.600717 0.897857
#
# Coordination Sequence:
#
# PCOD9268085 Si02
#       6
#     8   8   8   8   8   8
#     4  10  19  42  59  81 133 157 199 254 307 352
#     4  10  20  33  53  82 124 159 194 238 301 371
#     4   9  19  34  62  86 110 166 194 244 308 350
#     4  11  24  36  57  86 120 172 200 246 304 366
#     4  11  20  34  56  90 122 158 199 239 305 381
#     4  11  19  36  64  90 121 157 202 249 306 363
#
# _framework density 22.510200000000001
#
# number of rings (size 3 to 8) (size 9 to 14) (size 15 to 20)
#    0.000    1.667    5.000    2.500    4.667    1.333 
#    0.000    3.333    0.000    1.000    0.000    1.167 
#    0.000    6.667    0.000    0.000    0.000    0.000 
#
# Total GULP energy -134141.493808 kJ/mol
# GULP energy per Si atom -5589.228909 kJ/mol
# Density = 2.245897 g / cm^3
# Si number density = 22.510200 Si / 1000 Ang^3
#
#
#
# Elastic Constant Matrix: (Units=GPa)
#
#
# Indices 1 2 3 4 5 6 
#
# 1 56.0771 6.6486 29.8408 0.0000 0.6816 0.0000
# 2 6.6486 42.1424 15.1690 0.0000 -3.9754 0.0000
# 3 29.8408 15.1690 156.6914 0.0000 -18.2891 0.0000
# 4 0.0000 0.0000 0.0000 -871.5058 0.0000 448.1692
# 5 0.6816 -3.9754 -18.2891 0.0000 46.6560 0.0000
# 6 0.0000 0.0000 0.0000 448.1692 0.0000 -199.3901
#
#
#
# Elastic Compliance Matrix: (Units=1/GPa)
#
#
# Indices 1 2 3 4 5 6 
#
# 1 0.020154 -0.001971 -0.003879 0.000000 -0.001983 0.000000
# 2 -0.001971 0.024845 -0.001865 0.000000 0.001415 0.000000
# 3 -0.003879 -0.001865 0.007639 0.000000 0.002892 0.000000
# 4 0.000000 0.000000 0.000000 0.007361 0.000000 0.016546
# 5 -0.001983 0.001415 0.002892 0.000000 0.022717 0.000000
# 6 0.000000 0.000000 0.000000 0.016546 0.000000 0.032175
#
#
# Mechanical properties :
#
#
# Convention : Reuss Voigt Hill
#
# Bulk Modulus (GPa) = 26.87492 39.80309 33.33901
# Shear Modulus (GPa) = 35.03289 -191.29781 -78.13246
#
# Velocity S-wave (km/s) = 3.94929 -9.22861 -5.89789
# Velocity P-wave (km/s) = 5.72370 9.78957 5.61582
#
# Compressibility (1/GPa) = 0.03720941
#
# Stress axis : x y z
#
# Youngs Moduli (GPa) = 49.61681 40.25013 130.91077
#
# Poissons Ratio (x) = 0.07931 0.50780
# Poissons Ratio (y) = 0.09777 0.24412
# Poissons Ratio (z) = 0.19246 0.07506
#
# Static dielectric constant tensor:
#      x y z
#    x 1.841390 0.000000 0.069750 
#    y 0.000000 1.838840 0.000000 
#    z 0.069750 0.000000 1.888050 
# 
# From -- ./inp_files/47473.got.cif
#   From: 2010.05.17/outbox.cif.g08.bks.cpg/sg15_24_cif.got.tgz:47473.got - 2010.06.03 18:47:42.
