data_PCOD9268111
_publ_section_title
;
Structure prediction by ZEFSAII (Michael W. Deem and Ramdas Pophale) SiO2 
 PCOD9268111
Probable space group: C 2/C
;
_chemical_formula_sum "Si O2"
_cell_formula_units_Z 48
_cell_length_a 10.124457
_cell_length_b 10.999391
_cell_length_c 18.276500
_cell_angle_alpha 90.000000
_cell_angle_beta 73.158453
_cell_angle_gamma 90.000000
_cell_volume 1948.027622
_symmetry_space_group_name_H-M "C 2/C"
_symmetry_group_IT_number 15
_symmetry_cell_setting 'monoclinic'
loop_
_space_group_symop_operation_xyz
x,y,z
-x,y,1/2-z
-x,-y,-z
x,-y,1/2+z
1/2+x,1/2+y,z
1/2-x,1/2+y,1/2-z
1/2-x,1/2-y,-z
1/2+x,1/2-y,1/2+z
loop_
_atom_site_type_symbol
_atom_site_label
_atom_site_fract_x
_atom_site_fract_y
_atom_site_fract_z
Si Si1 0.077088 0.119689 0.018072
Si Si2 0.872347 0.820614 0.145974
Si Si3 0.417356 0.538522 0.327574
Si Si4 0.220538 0.796255 0.923565
Si Si5 0.189977 0.384478 0.303296
Si Si6 0.973872 0.570897 0.340442
O O1 0.136739 0.094351 0.088078
O O2 0.943209 0.199377 0.055241
O O3 0.159339 0.163645 0.934748
O O4 0.000000 0.000000 0.000000
O O5 0.735759 0.833882 0.217378
O O6 0.950244 0.691182 0.139819
O O7 0.979720 0.926561 0.160835
O O8 0.500000 0.609085 0.250000
O O9 0.284020 0.501049 0.303740
O O10 0.253063 0.706819 0.852365
O O11 0.315083 0.913452 0.891421
O O12 0.250000 0.750000 0.000000
O O13 0.039805 0.438453 0.344422
O O14 0.000000 0.584243 0.250000
#
# Coordination Sequence:
#
# PCOD9268111 Si02
#       6
#     8   8   8   8   8   8
#     4  10  21  37  68  97 124 180 232 277 345 409
#     4  10  19  42  65  93 131 176 227 278 344 410
#     4   9  18  36  61  92 128 175 224 277 340 413
#     4  12  23  43  69  96 135 176 226 289 340 413
#     4  11  24  41  68 101 133 178 234 279 345 428
#     4  12  24  42  70 102 133 184 228 281 352 412
#
# _framework density 24.640308999999998
#
# number of rings (size 3 to 8) (size 9 to 14) (size 15 to 20)
#    0.000    1.333    5.000    1.500    7.000    0.667 
#    0.000    3.333    0.000    0.000    0.000    0.000 
#    0.000    0.000    0.000    0.000    0.000    0.000 
#
# Total GULP energy -133822.502102 kJ/mol
# GULP energy per Si atom -5575.937588 kJ/mol
# Density = 2.458423 g / cm^3
# Si number density = 24.640309 Si / 1000 Ang^3
#
#
#
# Elastic Constant Matrix: (Units=GPa)
#
#
# Indices 1 2 3 4 5 6 
#
# 1 36.8393 17.0566 18.8183 0.0000 -21.2928 0.0000
# 2 17.0566 50.2988 18.4866 0.0000 -6.9076 0.0000
# 3 18.8183 18.4866 165.5612 0.0000 2.3641 0.0000
# 4 0.0000 0.0000 0.0000 17.1265 0.0000 -12.6549
# 5 -21.2928 -6.9076 2.3641 0.0000 26.3941 0.0000
# 6 0.0000 0.0000 0.0000 -12.6549 0.0000 41.8516
#
#
#
# Elastic Compliance Matrix: (Units=1/GPa)
#
#
# Indices 1 2 3 4 5 6 
#
# 1 0.065449 -0.012853 -0.006718 0.000000 0.050037 0.000000
# 2 -0.012853 0.024130 -0.001177 0.000000 -0.003948 0.000000
# 3 -0.006718 -0.001177 0.007026 0.000000 -0.006357 0.000000
# 4 0.000000 0.000000 0.000000 0.075188 0.000000 0.022735
# 5 0.050037 -0.003948 -0.006357 0.000000 0.077790 0.000000
# 6 0.000000 0.000000 0.000000 0.022735 0.000000 0.030769
#
#
# Mechanical properties :
#
#
# Convention : Reuss Voigt Hill
#
# Bulk Modulus (GPa) = 18.14628 40.15803 29.15216
# Shear Modulus (GPa) = 14.69646 30.29695 22.49671
#
# Velocity S-wave (km/s) = 2.44486 3.51032 3.02487
# Velocity P-wave (km/s) = 3.91794 5.72389 4.90475
#
# Compressibility (1/GPa) = 0.05510770
#
# Stress axis : x y z
#
# Youngs Moduli (GPa) = 15.27910 41.44200 142.33010
#
# Poissons Ratio (x) = 0.53266 0.95624
# Poissons Ratio (y) = 0.19638 0.16753
# Poissons Ratio (z) = 0.10265 0.04878
#
# Static dielectric constant tensor:
#      x y z
#    x 1.958330 0.000000 -0.004190 
#    y 0.000000 1.849740 0.000000 
#    z -0.004190 0.000000 1.837740 
# 
# From -- ./inp_files/196516.got.cif
#   From: 2010.05.17/outbox.cif.g08.bks.cpg/sg15_99_cif.got.tgz:196516.got - 2010.06.03 18:47:42.
