data_PCOD9268807
_publ_section_title
;
Structure prediction by ZEFSAII (Michael W. Deem and Ramdas Pophale) SiO2 
 PCOD9268807
Probable space group: C 2/C
;
_chemical_formula_sum "Si O2"
_cell_formula_units_Z 56
_cell_length_a 27.605828
_cell_length_b 15.419968
_cell_length_c 5.449153
_cell_angle_alpha 90.000000
_cell_angle_beta 71.625036
_cell_angle_gamma 90.000000
_cell_volume 2201.333292
_symmetry_space_group_name_H-M "C 2/C"
_symmetry_group_IT_number 15
_symmetry_cell_setting 'monoclinic'
loop_
_space_group_symop_operation_xyz
x,y,z
-x,y,1/2-z
-x,-y,-z
x,-y,1/2+z
1/2+x,1/2+y,z
1/2-x,1/2+y,1/2-z
1/2-x,1/2-y,-z
1/2+x,1/2-y,1/2+z
loop_
_atom_site_type_symbol
_atom_site_label
_atom_site_fract_x
_atom_site_fract_y
_atom_site_fract_z
Si Si1 0.211015 0.711699 0.865611
Si Si2 0.690118 0.643161 0.927570
Si Si3 0.056004 0.838479 0.136428
Si Si4 0.082798 0.456006 0.204979
Si Si5 0.161842 0.105226 0.454943
Si Si6 0.196863 0.473637 0.536314
Si Si7 0.912517 0.747187 0.921941
O O1 0.251942 0.673244 0.605839
O O2 0.184124 0.627072 0.015500
O O3 0.250000 0.750000 0.000000
O O4 0.173222 0.790106 0.874518
O O5 0.672719 0.575782 0.161716
O O6 0.646415 0.717800 0.958094
O O7 0.692264 0.598553 0.657621
O O8 0.102338 0.905003 0.101149
O O9 0.062595 0.771170 0.354501
O O10 0.000000 0.876600 0.250000
O O11 0.064218 0.797420 0.852027
O O12 0.062671 0.489284 0.501663
O O13 0.079915 0.354115 0.149885
O O14 0.143551 0.474854 0.131675
O O15 0.223374 0.488666 0.752817
#
# Coordination Sequence:
#
# PCOD9268807 Si02
#       7
#     8   8   8   8   8   8   8
#     4  10  21  35  55  79 104 132 173 223 254 309
#     4   9  19  30  50  73 100 119 162 208 257 295
#     4  10  20  33  53  72  94 125 171 216 270 311
#     4  10  21  32  51  69  93 126 171 203 262 300
#     4   9  19  30  49  72  96 126 161 205 264 299
#     4  10  24  34  51  74 104 137 178 206 264 306
#     4  10  20  34  54  72  96 128 170 213 263 302
#
# _framework density 25.439128
#
# number of rings (size 3 to 8) (size 9 to 14) (size 15 to 20)
#    0.000    2.286    0.000    1.714   20.000    2.286 
#    0.000    0.000    0.000    8.571    0.000    0.000 
#    0.000    0.000    0.000    0.000    0.000  567.143 
#
# Total GULP energy -156281.377107 kJ/mol
# GULP energy per Si atom -5581.477754 kJ/mol
# Density = 2.538123 g / cm^3
# Si number density = 25.439128 Si / 1000 Ang^3
#
#
#
# Elastic Constant Matrix: (Units=GPa)
#
#
# Indices 1 2 3 4 5 6 
#
# 1 72.1939 -20.8070 21.4392 0.0000 -5.6683 0.0000
# 2 -20.8070 66.2846 -20.2961 0.0000 3.6324 0.0000
# 3 21.4392 -20.2961 138.9881 0.0000 33.8723 0.0000
# 4 0.0000 0.0000 0.0000 -1.9020 0.0000 0.8940
# 5 -5.6683 3.6324 33.8723 0.0000 50.1977 0.0000
# 6 0.0000 0.0000 0.0000 0.8940 0.0000 11.5002
#
#
#
# Elastic Compliance Matrix: (Units=1/GPa)
#
#
# Indices 1 2 3 4 5 6 
#
# 1 0.016082 0.004035 -0.002708 0.000000 0.003351 0.000000
# 2 0.004035 0.017255 0.002502 0.000000 -0.002481 0.000000
# 3 -0.002708 0.002502 0.009690 0.000000 -0.007026 0.000000
# 4 0.000000 0.000000 0.000000 -0.507224 0.000000 0.039429
# 5 0.003351 -0.002481 -0.007026 0.000000 0.025220 0.000000
# 6 0.000000 0.000000 0.000000 0.039429 0.000000 0.083890
#
#
# Mechanical properties :
#
#
# Convention : Reuss Voigt Hill
#
# Bulk Modulus (GPa) = 19.72947 26.45987 23.09467
# Shear Modulus (GPa) = -14.45714 31.76788 8.65537
#
# Velocity S-wave (km/s) = -2.38650 3.53764 1.84656
# Velocity P-wave (km/s) = 0.42258 5.20676 3.69384
#
# Compressibility (1/GPa) = 0.05068559
#
# Stress axis : x y z
#
# Youngs Moduli (GPa) = 62.18144 57.95342 103.19776
#
# Poissons Ratio (x) = -0.23386 0.27948
# Poissons Ratio (y) = -0.25092 -0.25820
# Poissons Ratio (z) = 0.16840 -0.14500
#
# Static dielectric constant tensor:
#      x y z
#    x 2.033750 0.000000 0.064090 
#    y 0.000000 2.193850 0.000000 
#    z 0.064090 0.000000 2.339540 
# 
# From -- ./inp_files/18414.got.cif
#   From: 2010.05.17/outbox.cif.g08.bks.cpg/sg15_10_cif.got.tgz:18414.got - 2010.06.03 18:47:42.
