data_PCOD9268199
_publ_section_title
;
Structure prediction by ZEFSAII (Michael W. Deem and Ramdas Pophale) SiO2 
 PCOD9268199
Probable space group: C 2/C
;
_chemical_formula_sum "Si O2"
_cell_formula_units_Z 36
_cell_length_a 14.146796
_cell_length_b 8.777390
_cell_length_c 24.590007
_cell_angle_alpha 90.000000
_cell_angle_beta 151.984194
_cell_angle_gamma 90.000000
_cell_volume 1434.222990
_symmetry_space_group_name_H-M "C 2/C"
_symmetry_group_IT_number 15
_symmetry_cell_setting 'monoclinic'
loop_
_space_group_symop_operation_xyz
x,y,z
-x,y,1/2-z
-x,-y,-z
x,-y,1/2+z
1/2+x,1/2+y,z
1/2-x,1/2+y,1/2-z
1/2-x,1/2-y,-z
1/2+x,1/2-y,1/2+z
loop_
_atom_site_type_symbol
_atom_site_label
_atom_site_fract_x
_atom_site_fract_y
_atom_site_fract_z
Si Si1 0.382667 0.149227 0.789118
Si Si2 0.458125 0.857731 0.666820
Si Si3 0.541686 0.638547 0.979175
Si Si4 0.500000 0.655148 0.250000
Si Si5 0.760069 0.617539 0.842765
O O1 0.401565 0.966639 0.795618
O O2 0.521060 0.239205 0.815371
O O3 0.399574 0.164628 0.862201
O O4 0.158590 0.179331 0.653635
O O5 0.500000 0.913483 0.750000
O O6 0.230614 0.896883 0.536087
O O7 0.545795 0.689155 0.713928
O O8 0.639131 0.782914 0.059055
O O9 0.500000 0.500000 0.000000
O O10 0.309842 0.545641 0.169317
#
# Coordination Sequence:
#
# PCOD9268199 Si02
#       5
#     8   8   8   4   8
#     4  12  24  43  72 102 139 187 230 293 356 409
#     4  10  19  44  64  90 137 176 226 283 332 415
#     4  11  21  43  73  95 131 193 234 270 358 429
#     4  12  24  44  66 102 154 166 232 310 330 410
#     4  11  24  45  66  99 145 178 230 296 345 412
#
# _framework density 25.1007
#
# number of rings (size 3 to 8) (size 9 to 14) (size 15 to 20)
#    0.000    0.889    8.889    1.333    0.000    1.778 
#    4.000    2.222    0.000    0.000    0.000    0.000 
#    0.000    0.000    0.000    0.000    0.000    0.000 
#
# Total GULP energy -100299.988618 kJ/mol
# GULP energy per Si atom -5572.221590 kJ/mol
# Density = 2.504357 g / cm^3
# Si number density = 25.100700 Si / 1000 Ang^3
#
#
#
# Elastic Constant Matrix: (Units=GPa)
#
#
# Indices 1 2 3 4 5 6 
#
# 1 98.9406 21.4737 6.5455 0.0000 -13.9300 0.0000
# 2 21.4737 76.9190 6.7470 0.0000 -6.8214 0.0000
# 3 6.5455 6.7470 78.8293 0.0002 12.7693 0.0000
# 4 0.0000 0.0000 0.0002 25.0477 0.0000 18.7084
# 5 -13.9300 -6.8214 12.7693 0.0000 24.5703 0.0000
# 6 0.0000 0.0000 0.0000 18.7084 0.0000 38.4025
#
#
#
# Elastic Compliance Matrix: (Units=1/GPa)
#
#
# Indices 1 2 3 4 5 6 
#
# 1 0.011753 -0.002499 -0.001888 0.000000 0.006951 0.000000
# 2 -0.002499 0.014126 -0.001537 0.000000 0.003304 0.000000
# 3 -0.001888 -0.001537 0.014431 0.000000 -0.008997 0.000000
# 4 0.000000 0.000000 0.000000 0.062761 0.000000 -0.030575
# 5 0.006951 0.003304 -0.008997 0.000000 0.050233 0.000000
# 6 0.000000 0.000000 0.000000 -0.030575 0.000000 0.040935
#
#
# Mechanical properties :
#
#
# Convention : Reuss Voigt Hill
#
# Bulk Modulus (GPa) = 35.13330 36.02459 35.57894
# Shear Modulus (GPa) = 23.19387 32.26559 27.72973
#
# Velocity S-wave (km/s) = 3.04309 3.58920 3.32737
# Velocity P-wave (km/s) = 5.13561 5.61780 5.38211
#
# Compressibility (1/GPa) = 0.02846303
#
# Stress axis : x y z
#
# Youngs Moduli (GPa) = 85.08500 70.79073 69.29365
#
# Poissons Ratio (x) = 0.17691 0.13082
# Poissons Ratio (y) = 0.21264 0.10648
# Poissons Ratio (z) = 0.16063 0.10878
#
# Static dielectric constant tensor:
#      x y z
#    x 2.150190 0.000000 0.079570 
#    y 0.000000 1.982630 0.000000 
#    z 0.079570 0.000000 2.013320 
# 
# From -- ./inp_files/150394.got.cif
#   From: 2010.05.17/outbox.cif.g08.bks.cpg/sg15_76_cif.got.tgz:150394.got - 2010.06.03 18:47:42.
