data_PCOD9268746
_publ_section_title
;
Structure prediction by ZEFSAII (Michael W. Deem and Ramdas Pophale) SiO2 
 PCOD9268746
Probable space group: C 2/C
;
_chemical_formula_sum "Si O2"
_cell_formula_units_Z 48
_cell_length_a 5.285157
_cell_length_b 23.755370
_cell_length_c 17.007403
_cell_angle_alpha 90.000000
_cell_angle_beta 87.852112
_cell_angle_gamma 90.000000
_cell_volume 2133.793854
_symmetry_space_group_name_H-M "C 2/C"
_symmetry_group_IT_number 15
_symmetry_cell_setting 'monoclinic'
loop_
_space_group_symop_operation_xyz
x,y,z
-x,y,1/2-z
-x,-y,-z
x,-y,1/2+z
1/2+x,1/2+y,z
1/2-x,1/2+y,1/2-z
1/2-x,1/2-y,-z
1/2+x,1/2-y,1/2+z
loop_
_atom_site_type_symbol
_atom_site_label
_atom_site_fract_x
_atom_site_fract_y
_atom_site_fract_z
Si Si1 0.225236 0.893865 0.662184
Si Si2 0.978910 0.688309 0.939218
Si Si3 0.775702 0.008353 0.897186
Si Si4 0.273857 0.847736 0.837998
Si Si5 0.987003 0.238847 0.899974
Si Si6 0.771461 0.436819 0.440062
O O1 0.246994 0.868193 0.748974
O O2 0.506092 0.884851 0.625258
O O3 0.000445 0.860035 0.621805
O O4 0.163142 0.959296 0.665073
O O5 0.771960 0.717589 0.883950
O O6 0.860320 0.626891 0.953090
O O7 0.271020 0.690986 0.908320
O O8 0.993055 0.725624 0.018623
O O9 0.502255 0.035564 0.888922
O O10 0.001256 0.052997 0.902223
O O11 0.756005 0.971889 0.978452
O O12 0.370153 0.784524 0.842316
#
# Coordination Sequence:
#
# PCOD9268746 Si02
#       6
#     8   8   8   8   8   8
#     4  10  20  34  54  81 106 136 178 231 279 316
#     4  10  20  33  51  78 111 146 177 214 275 336
#     4  10  20  33  52  78 110 143 179 222 269 330
#     4  10  20  34  54  81 106 136 178 231 279 316
#     4  10  20  33  52  78 110 143 179 222 269 330
#     4  10  20  33  51  78 111 146 177 214 275 336
#
# _framework density 22.495142999999999
#
# number of rings (size 3 to 8) (size 9 to 14) (size 15 to 20)
#    0.000    2.000    0.000    4.000    0.000    5.333 
#    0.000    0.000    0.000    0.000    0.000   93.333 
#    0.000    0.000    0.000    0.000    0.000    0.000 
#
# Total GULP energy -133875.201066 kJ/mol
# GULP energy per Si atom -5578.133378 kJ/mol
# Density = 2.244394 g / cm^3
# Si number density = 22.495143 Si / 1000 Ang^3
#
#
#
# Elastic Constant Matrix: (Units=GPa)
#
#
# Indices 1 2 3 4 5 6 
#
# 1 180.0238 60.5346 27.4729 0.0000 29.1241 0.0000
# 2 60.5346 114.0908 17.7394 0.0000 15.1561 0.0000
# 3 27.4729 17.7394 35.4170 0.0000 7.5435 0.0000
# 4 0.0000 0.0000 0.0000 23.9187 0.0000 9.1484
# 5 29.1241 15.1561 7.5435 0.0000 13.2899 0.0000
# 6 0.0000 0.0000 0.0000 9.1484 0.0000 48.5293
#
#
#
# Elastic Compliance Matrix: (Units=1/GPa)
#
#
# Indices 1 2 3 4 5 6 
#
# 1 0.009418 -0.002412 -0.002602 0.000000 -0.016411 0.000000
# 2 -0.002412 0.011242 -0.002451 0.000000 -0.006143 0.000000
# 3 -0.002602 -0.002451 0.033752 0.000000 -0.010661 0.000000
# 4 0.000000 0.000000 0.000000 0.045057 0.000000 -0.008494
# 5 -0.016411 -0.006143 -0.010661 0.000000 0.124266 0.000000
# 6 0.000000 0.000000 0.000000 -0.008494 0.000000 0.022207
#
#
# Mechanical properties :
#
#
# Convention : Reuss Voigt Hill
#
# Bulk Modulus (GPa) = 25.32872 60.11393 42.72132
# Shear Modulus (GPa) = 18.24596 32.06656 25.15626
#
# Velocity S-wave (km/s) = 2.85108 3.77966 3.34772
# Velocity P-wave (km/s) = 4.70344 6.76970 5.82886
#
# Compressibility (1/GPa) = 0.03948088
#
# Stress axis : x y z
#
# Youngs Moduli (GPa) = 106.17902 88.95155 29.62818
#
# Poissons Ratio (x) = 0.21459 0.07709
# Poissons Ratio (y) = 0.25615 0.07262
# Poissons Ratio (z) = 0.27626 0.21804
#
# Static dielectric constant tensor:
#      x y z
#    x 1.994630 0.000000 -0.081110 
#    y 0.000000 1.863000 0.000000 
#    z -0.081110 0.000000 1.939980 
# 
# From -- ./inp_files/227371.got.cif
#   From: 2010.05.17/outbox.cif.g08.bks.cpg/sg15_114_cif.got.tgz:227371.got - 2010.06.03 18:47:42.
