data_PCOD9268274
_publ_section_title
;
Structure prediction by ZEFSAII (Michael W. Deem and Ramdas Pophale) SiO2 
 PCOD9268274
Probable space group: C 2/C
;
_chemical_formula_sum "Si O2"
_cell_formula_units_Z 28
_cell_length_a 17.693756
_cell_length_b 18.747643
_cell_length_c 17.835702
_cell_angle_alpha 90.000000
_cell_angle_beta 16.281840
_cell_angle_gamma 90.000000
_cell_volume 1658.734256
_symmetry_space_group_name_H-M "C 2/C"
_symmetry_group_IT_number 15
_symmetry_cell_setting 'monoclinic'
loop_
_space_group_symop_operation_xyz
x,y,z
-x,y,1/2-z
-x,-y,-z
x,-y,1/2+z
1/2+x,1/2+y,z
1/2-x,1/2+y,1/2-z
1/2-x,1/2-y,-z
1/2+x,1/2-y,1/2+z
loop_
_atom_site_type_symbol
_atom_site_label
_atom_site_fract_x
_atom_site_fract_y
_atom_site_fract_z
Si Si1 0.485544 0.207576 0.429947
Si Si2 0.000000 0.663489 0.250000
Si Si3 0.903936 0.958707 0.417536
Si Si4 0.984874 0.545577 0.439538
O O1 0.714551 0.265623 0.225760
O O2 0.437285 0.204868 0.385714
O O3 0.572793 0.127784 0.368374
O O4 0.748521 0.612035 0.468415
O O5 0.000000 0.998416 0.250000
O O6 0.178586 0.947588 0.201713
O O7 0.678103 0.986861 0.690548
O O8 0.000000 0.500000 0.500000
#
# Coordination Sequence:
#
# PCOD9268274 Si02
#       4
#     8   4   8   8
#     4  11  21  31  49  74 105 140 174 203 245 307
#     4  10  20  30  50  74 112 136 174 194 248 294
#     4  11  18  34  53  74 103 140 177 216 238 305
#     4  11  23  36  51  72 108 146 176 214 258 299
#
# _framework density 16.880341000000001
#
# number of rings (size 3 to 8) (size 9 to 14) (size 15 to 20)
#    0.000    1.143    5.714    5.143    0.000    0.000 
#    0.000    0.000    0.000    0.000    0.000    0.000 
#    0.000   22.857    0.000    0.000    0.000    0.000 
#
# Total GULP energy -78019.388362 kJ/mol
# GULP energy per Si atom -5572.813454 kJ/mol
# Density = 1.684192 g / cm^3
# Si number density = 16.880341 Si / 1000 Ang^3
#
#
#
# Elastic Constant Matrix: (Units=GPa)
#
#
# Indices 1 2 3 4 5 6 
#
# 1 63.7748 33.7360 41.6534 -0.0148 4.9800 0.0568
# 2 33.7360 49.0675 9.4747 -0.1208 9.3648 0.1118
# 3 41.6534 9.4747 122.0133 -0.0966 -1.4317 0.1483
# 4 -0.0148 -0.1208 -0.0966 15.4639 0.0836 9.2198
# 5 4.9800 9.3648 -1.4317 0.0836 26.7159 -0.0787
# 6 0.0568 0.1118 0.1483 9.2198 -0.0787 26.3484
#
#
#
# Elastic Compliance Matrix: (Units=1/GPa)
#
#
# Indices 1 2 3 4 5 6 
#
# 1 0.033010 -0.020967 -0.009633 -0.000304 0.000682 0.000180
# 2 -0.020967 0.035557 0.004300 0.000533 -0.008328 -0.000341
# 3 -0.009633 0.004300 0.011161 0.000156 0.000886 -0.000112
# 4 -0.000304 0.000533 0.000156 0.081727 -0.000462 -0.028602
# 5 0.000682 -0.008328 0.000886 -0.000462 0.040273 0.000311
# 6 0.000180 -0.000341 -0.000112 -0.028602 0.000311 0.047964
#
#
# Mechanical properties :
#
#
# Convention : Reuss Voigt Hill
#
# Bulk Modulus (GPa) = 36.86334 44.95374 40.90854
# Shear Modulus (GPa) = 16.05993 23.70506 19.88250
#
# Velocity S-wave (km/s) = 3.08782 3.75146 3.43570
# Velocity P-wave (km/s) = 5.88203 6.74191 6.32659
#
# Compressibility (1/GPa) = 0.02712722
#
# Stress axis : x y z
#
# Youngs Moduli (GPa) = 30.29419 28.12405 89.59562
#
# Poissons Ratio (x) = 0.58967 0.86310
# Poissons Ratio (y) = 0.63517 -0.38524
# Poissons Ratio (z) = 0.29183 -0.12093
#
# Static dielectric constant tensor:
#      x y z
#    x 1.576130 0.000000 0.017270 
#    y 0.000000 1.560750 0.000170 
#    z 0.017270 0.000170 1.648840 
# 
# From -- ./inp_files/13004.got.cif
#   From: 2010.05.17/outbox.cif.g08.bks.cpg/sg15_7_cif.got.tgz:13004.got - 2010.06.03 18:47:42.
