data_PCOD9268469
_publ_section_title
;
Structure prediction by ZEFSAII (Michael W. Deem and Ramdas Pophale) SiO2 
 PCOD9268469
Probable space group: C 2/C
;
_chemical_formula_sum "Si O2"
_cell_formula_units_Z 56
_cell_length_a 24.699375
_cell_length_b 14.814470
_cell_length_c 9.832860
_cell_angle_alpha 90.000000
_cell_angle_beta 58.352019
_cell_angle_gamma 90.000000
_cell_volume 3062.868605
_symmetry_space_group_name_H-M "C 2/C"
_symmetry_group_IT_number 15
_symmetry_cell_setting 'monoclinic'
loop_
_space_group_symop_operation_xyz
x,y,z
-x,y,1/2-z
-x,-y,-z
x,-y,1/2+z
1/2+x,1/2+y,z
1/2-x,1/2+y,1/2-z
1/2-x,1/2-y,-z
1/2+x,1/2-y,1/2+z
loop_
_atom_site_type_symbol
_atom_site_label
_atom_site_fract_x
_atom_site_fract_y
_atom_site_fract_z
Si Si1 0.691482 0.028700 0.354755
Si Si2 0.689281 0.773395 0.990213
Si Si3 0.738475 0.899930 0.528708
Si Si4 0.943029 0.316473 0.222307
Si Si5 0.933630 0.486810 0.662388
Si Si6 0.029037 0.710023 0.348919
Si Si7 0.335679 0.720941 0.771351
O O1 0.694229 0.123828 0.429457
O O2 0.738211 0.037336 0.162710
O O3 0.623439 0.016597 0.370558
O O4 0.707706 0.951843 0.441708
O O5 0.622640 0.766398 0.159010
O O6 0.750000 0.750000 0.000000
O O7 0.686016 0.715309 0.856562
O O8 0.695889 0.812643 0.625614
O O9 0.806420 0.860874 0.395059
O O10 0.927127 0.423446 0.259942
O O11 0.000000 0.294010 0.250000
O O12 0.973713 0.300560 0.033975
O O13 0.941543 0.389778 0.721584
O O14 0.000000 0.500000 0.500000
O O15 0.088785 0.766678 0.323473
O O16 0.000000 0.747997 0.250000
#
# Coordination Sequence:
#
# PCOD9268469 Si02
#       7
#     8   8   8   8   8   8   8
#     4  11  22  39  56  89 115 161 202 237 293 360
#     4  11  23  37  59  88 121 158 203 248 294 353
#     4  10  23  37  61  77 121 156 195 249 294 340
#     4  11  21  36  55  82 121 160 200 238 281 356
#     4  10  20  32  50  82 121 155 193 227 270 351
#     4  11  22  35  56  83 118 163 197 231 300 353
#     4  10  22  41  54  84 123 157 198 252 297 338
#
# _framework density 18.283512999999999
#
# number of rings (size 3 to 8) (size 9 to 14) (size 15 to 20)
#    0.000    1.429    4.286    2.143    8.000    2.286 
#    0.000    0.000    0.000    0.000    0.000    5.000 
#    0.000    0.000    0.000    0.000    0.000    0.000 
#
# Total GULP energy -156284.913179 kJ/mol
# GULP energy per Si atom -5581.604042 kJ/mol
# Density = 1.824190 g / cm^3
# Si number density = 18.283513 Si / 1000 Ang^3
#
#
#
# Elastic Constant Matrix: (Units=GPa)
#
#
# Indices 1 2 3 4 5 6 
#
# 1 126.5275 23.4045 57.7243 0.0000 1.2734 0.0000
# 2 23.4045 19.7486 26.9658 0.0000 -4.6241 0.0000
# 3 57.7243 26.9658 130.9619 0.0000 -2.4825 0.0000
# 4 0.0000 0.0000 0.0000 20.8240 0.0000 0.2162
# 5 1.2734 -4.6241 -2.4825 0.0000 32.3695 0.0000
# 6 0.0000 0.0000 0.0000 0.2162 0.0000 28.6111
#
#
#
# Elastic Compliance Matrix: (Units=1/GPa)
#
#
# Indices 1 2 3 4 5 6 
#
# 1 0.011026 -0.009532 -0.002936 0.000000 -0.002021 0.000000
# 2 -0.009532 0.081378 -0.012345 0.000000 0.011053 0.000000
# 3 -0.002936 -0.012345 0.011457 0.000000 -0.000769 0.000000
# 4 0.000000 0.000000 0.000000 0.048025 0.000000 -0.000363
# 5 -0.002021 0.011053 -0.000769 0.000000 0.032493 0.000000
# 6 0.000000 0.000000 0.000000 -0.000363 0.000000 0.034954
#
#
# Mechanical properties :
#
#
# Convention : Reuss Voigt Hill
#
# Bulk Modulus (GPa) = 18.43812 54.82524 36.63168
# Shear Modulus (GPa) = 17.41931 27.63716 22.52823
#
# Velocity S-wave (km/s) = 3.08999 3.89213 3.51402
# Velocity P-wave (km/s) = 4.77882 7.08869 6.04511
#
# Compressibility (1/GPa) = 0.05423547
#
# Stress axis : x y z
#
# Youngs Moduli (GPa) = 90.69263 12.28835 87.28197
#
# Poissons Ratio (x) = 0.11713 0.25623
# Poissons Ratio (y) = 0.86449 1.07751
# Poissons Ratio (z) = 0.26624 0.15170
#
# Static dielectric constant tensor:
#      x y z
#    x 1.611940 0.000000 -0.008290 
#    y 0.000000 1.646780 0.000000 
#    z -0.008290 0.000000 1.678870 
# 
# From -- ./inp_files/61482.got.cif
#   From: 2010.05.17/outbox.cif.g08.bks.cpg/sg15_31_cif.got.tgz:61482.got - 2010.06.03 18:47:42.
