data_PCOD9268396
_publ_section_title
;
Structure prediction by ZEFSAII (Michael W. Deem and Ramdas Pophale) SiO2 
 PCOD9268396
Probable space group: C 2/C
;
_chemical_formula_sum "Si O2"
_cell_formula_units_Z 60
_cell_length_a 20.775881
_cell_length_b 16.448901
_cell_length_c 8.989423
_cell_angle_alpha 90.000000
_cell_angle_beta 57.586819
_cell_angle_gamma 90.000000
_cell_volume 2593.438089
_symmetry_space_group_name_H-M "C 2/C"
_symmetry_group_IT_number 15
_symmetry_cell_setting 'monoclinic'
loop_
_space_group_symop_operation_xyz
x,y,z
-x,y,1/2-z
-x,-y,-z
x,-y,1/2+z
1/2+x,1/2+y,z
1/2-x,1/2+y,1/2-z
1/2-x,1/2-y,-z
1/2+x,1/2-y,1/2+z
loop_
_atom_site_type_symbol
_atom_site_label
_atom_site_fract_x
_atom_site_fract_y
_atom_site_fract_z
Si Si1 0.117128 0.875029 0.662164
Si Si2 0.137038 0.697334 0.562683
Si Si3 0.953566 0.667981 0.124899
Si Si4 0.552830 0.934872 0.327716
Si Si5 0.748300 0.557491 0.184164
Si Si6 0.000000 0.808657 0.250000
Si Si7 0.967694 0.909899 0.020497
Si Si8 0.321799 0.934850 0.890735
O O1 0.156185 0.787820 0.586956
O O2 0.168372 0.932792 0.701136
O O3 0.038107 0.864688 0.849716
O O4 0.099066 0.908697 0.519323
O O5 0.084318 0.698860 0.480610
O O6 0.089054 0.653150 0.748556
O O7 0.202046 0.632887 0.440906
O O8 0.009383 0.737551 0.114151
O O9 0.879554 0.642173 0.317593
O O10 0.000717 0.585353 0.033693
O O11 0.500000 0.952221 0.250000
O O12 0.622867 0.995551 0.244999
O O13 0.787831 0.473235 0.082271
O O14 0.754357 0.571062 0.353032
O O15 0.047718 0.870072 0.297973
O O16 0.000000 0.000000 0.000000
#
# Coordination Sequence:
#
# PCOD9268396 Si02
#       8
#     8   8   8   8   8   4   8   8
#     4  11  22  43  68  82 117 156 207 256 305 365
#     4   9  18  38  60  90 117 164 207 238 290 363
#     4  10  20  31  59  92 133 155 193 249 302 347
#     4   9  18  32  59  89 129 173 207 233 285 360
#     4  10  23  39  62  85 127 165 209 241 290 368
#     4  12  22  38  64  98 122 146 188 266 324 354
#     4  11  26  44  66  92 112 147 202 266 323 367
#     4  10  22  38  54  91 129 173 206 235 289 361
#
# _framework density 23.135313
#
# number of rings (size 3 to 8) (size 9 to 14) (size 15 to 20)
#    0.000    1.867    1.333    3.200    8.400    0.000 
#    0.000    0.000    0.000    1.600    0.000    0.000 
#    0.000    0.000    0.000    0.000    0.000    0.000 
#
# Total GULP energy -167089.081263 kJ/mol
# GULP energy per Si atom -5569.636042 kJ/mol
# Density = 2.308266 g / cm^3
# Si number density = 23.135313 Si / 1000 Ang^3
#
#
#
# Elastic Constant Matrix: (Units=GPa)
#
#
# Indices 1 2 3 4 5 6 
#
# 1 91.5299 3.4638 15.5441 0.0000 31.0327 0.0000
# 2 3.4638 72.7245 4.4492 0.0000 16.5595 0.0000
# 3 15.5441 4.4492 34.8005 0.0000 16.3139 0.0000
# 4 0.0000 0.0000 0.0000 29.5180 0.0000 14.9893
# 5 31.0327 16.5595 16.3139 0.0000 24.8646 0.0000
# 6 0.0000 0.0000 0.0000 14.9893 0.0000 27.9928
#
#
#
# Elastic Compliance Matrix: (Units=1/GPa)
#
#
# Indices 1 2 3 4 5 6 
#
# 1 0.021673 0.006679 0.006111 0.000000 -0.035507 0.000000
# 2 0.006679 0.018728 0.006321 0.000000 -0.024956 0.000000
# 3 0.006111 0.006321 0.044404 0.000000 -0.040970 0.000000
# 4 0.000000 0.000000 0.000000 0.046530 0.000000 -0.024915
# 5 -0.035507 -0.024956 -0.040970 0.000000 0.128034 0.000000
# 6 0.000000 0.000000 0.000000 -0.024915 0.000000 0.049065
#
#
# Mechanical properties :
#
#
# Convention : Reuss Voigt Hill
#
# Bulk Modulus (GPa) = 8.12829 27.32988 17.72909
# Shear Modulus (GPa) = 16.06573 28.18160 22.12367
#
# Velocity S-wave (km/s) = 2.63805 3.49394 3.09572
# Velocity P-wave (km/s) = 3.57772 5.30241 4.52303
#
# Compressibility (1/GPa) = 0.12302706
#
# Stress axis : x y z
#
# Youngs Moduli (GPa) = 46.13944 53.39538 22.52064
#
# Poissons Ratio (x) = -0.35662 -0.13761
# Poissons Ratio (y) = -0.30816 -0.14236
# Poissons Ratio (z) = -0.28194 -0.33753
#
# Static dielectric constant tensor:
#      x y z
#    x 1.924270 0.000000 0.002170 
#    y 0.000000 1.916260 0.000000 
#    z 0.002170 0.000000 1.929980 
# 
# From -- ./inp_files/56553.got.cif
#   From: 2010.05.17/outbox.cif.g08.bks.cpg/sg15_29_cif.got.tgz:56553.got - 2010.06.03 18:47:42.
