data_PCOD9268283
_publ_section_title
;
Structure prediction by ZEFSAII (Michael W. Deem and Ramdas Pophale) SiO2 
 PCOD9268283
Probable space group: C 2/C
;
_chemical_formula_sum "Si O2"
_cell_formula_units_Z 56
_cell_length_a 5.230991
_cell_length_b 22.699948
_cell_length_c 22.078531
_cell_angle_alpha 90.000000
_cell_angle_beta 67.409048
_cell_angle_gamma 90.000000
_cell_volume 2420.517090
_symmetry_space_group_name_H-M "C 2/C"
_symmetry_group_IT_number 15
_symmetry_cell_setting 'monoclinic'
loop_
_space_group_symop_operation_xyz
x,y,z
-x,y,1/2-z
-x,-y,-z
x,-y,1/2+z
1/2+x,1/2+y,z
1/2-x,1/2+y,1/2-z
1/2-x,1/2-y,-z
1/2+x,1/2-y,1/2+z
loop_
_atom_site_type_symbol
_atom_site_label
_atom_site_fract_x
_atom_site_fract_y
_atom_site_fract_z
Si Si1 0.000000 0.027381 0.250000
Si Si2 0.750573 0.030960 0.608202
Si Si3 0.816832 0.058542 0.468092
Si Si4 0.000000 0.448334 0.250000
Si Si5 0.082009 0.821427 0.963210
Si Si6 0.160586 0.254722 0.918322
Si Si7 0.588589 0.085546 0.366038
Si Si8 0.821756 0.704381 0.207986
O O1 0.240168 0.985765 0.251348
O O2 0.105575 0.067419 0.185876
O O3 0.681055 0.051800 0.546438
O O4 0.642874 0.073833 0.672300
O O5 0.595096 0.969629 0.635789
O O6 0.061194 0.004006 0.567700
O O7 0.618178 0.084859 0.435352
O O8 0.052075 0.109253 0.454662
O O9 0.383097 0.794955 0.950922
O O10 0.929890 0.787688 0.921145
O O11 0.892675 0.803183 0.037786
O O12 0.180823 0.247329 0.844906
O O13 0.538752 0.145757 0.334310
O O14 0.500000 0.692383 0.250000
O O15 0.000000 0.720518 0.250000
#
# Coordination Sequence:
#
# PCOD9268283 Si02
#       8
#     4   8   8   4   8   8   8   8
#     4  10  20  30  52  72 111 150 183 224 302 340
#     4  10  23  35  58  81 127 158 208 246 307 348
#     4  11  21  38  56  91 114 165 203 259 289 363
#     4  10  20  38  50  78 105 160 191 240 286 356
#     4  10  21  38  64  85 118 158 198 252 303 367
#     4  10  21  40  60  90 120 153 197 248 315 365
#     4  11  21  34  53  84 124 155 194 248 304 365
#     4  12  25  35  60  93 125 156 195 248 316 380
#
# _framework density 23.135549999999999
#
# number of rings (size 3 to 8) (size 9 to 14) (size 15 to 20)
#    0.000    1.429    3.571    2.143    6.000    0.000 
#    0.000    0.000    1.571    0.000    1.857    0.000 
#    0.000    0.000    0.000    0.000    0.000    0.000 
#
# Total GULP energy -155994.490591 kJ/mol
# GULP energy per Si atom -5571.231807 kJ/mol
# Density = 2.308289 g / cm^3
# Si number density = 23.135550 Si / 1000 Ang^3
#
#
#
# Elastic Constant Matrix: (Units=GPa)
#
#
# Indices 1 2 3 4 5 6 
#
# 1 102.6847 6.0312 13.9143 0.0000 23.4157 0.0000
# 2 6.0312 14.8907 -3.9854 0.0000 0.6904 0.0000
# 3 13.9143 -3.9854 163.5301 0.0000 26.0473 0.0000
# 4 0.0000 0.0000 0.0000 26.5679 0.0000 3.8396
# 5 23.4157 0.6904 26.0473 0.0000 40.4729 0.0000
# 6 0.0000 0.0000 0.0000 3.8396 0.0000 17.4782
#
#
#
# Elastic Compliance Matrix: (Units=1/GPa)
#
#
# Indices 1 2 3 4 5 6 
#
# 1 0.011494 -0.004363 -0.000041 0.000000 -0.006549 0.000000
# 2 -0.004363 0.069474 0.002063 0.000000 0.000012 0.000000
# 3 -0.000041 0.002063 0.006875 0.000000 -0.004436 0.000000
# 4 0.000000 0.000000 0.000000 0.038874 0.000000 -0.008540
# 5 -0.006549 0.000012 -0.004436 0.000000 0.031352 0.000000
# 6 0.000000 0.000000 0.000000 -0.008540 0.000000 0.059090
#
#
# Mechanical properties :
#
#
# Convention : Reuss Voigt Hill
#
# Bulk Modulus (GPa) = 12.02490 34.78066 23.40278
# Shear Modulus (GPa) = 20.03510 34.58015 27.30763
#
# Velocity S-wave (km/s) = 2.94596 3.87030 3.43932
# Velocity P-wave (km/s) = 4.09639 5.91932 5.09013
#
# Compressibility (1/GPa) = 0.08316075
#
# Stress axis : x y z
#
# Youngs Moduli (GPa) = 87.00395 14.39380 145.44480
#
# Poissons Ratio (x) = 0.06280 0.00599
# Poissons Ratio (y) = 0.37957 -0.29998
# Poissons Ratio (z) = 0.00358 -0.02969
#
# Static dielectric constant tensor:
#      x y z
#    x 1.819610 0.000000 -0.079170 
#    y 0.000000 1.872720 0.000000 
#    z -0.079170 0.000000 2.025280 
# 
# From -- ./inp_files/228117.got.cif
#   From: 2010.05.17/outbox.cif.g08.bks.cpg/sg15_115_cif.got.tgz:228117.got - 2010.06.03 18:47:42.
