data_PCOD9268702
_publ_section_title
;
Structure prediction by ZEFSAII (Michael W. Deem and Ramdas Pophale) SiO2 
 PCOD9268702
Probable space group: C 2/C
;
_chemical_formula_sum "Si O2"
_cell_formula_units_Z 52
_cell_length_a 28.527332
_cell_length_b 5.389178
_cell_length_c 12.789400
_cell_angle_alpha 90.000000
_cell_angle_beta 66.681085
_cell_angle_gamma 90.000000
_cell_volume 1805.618053
_symmetry_space_group_name_H-M "C 2/C"
_symmetry_group_IT_number 15
_symmetry_cell_setting 'monoclinic'
loop_
_space_group_symop_operation_xyz
x,y,z
-x,y,1/2-z
-x,-y,-z
x,-y,1/2+z
1/2+x,1/2+y,z
1/2-x,1/2+y,1/2-z
1/2-x,1/2-y,-z
1/2+x,1/2-y,1/2+z
loop_
_atom_site_type_symbol
_atom_site_label
_atom_site_fract_x
_atom_site_fract_y
_atom_site_fract_z
Si Si1 0.059082 0.422041 0.003169
Si Si2 0.852281 0.436157 0.426319
Si Si3 0.000000 0.770492 0.750000
Si Si4 0.229705 0.558232 0.137845
Si Si5 0.688049 0.557976 0.281914
Si Si6 0.571768 0.580358 0.433858
Si Si7 0.595677 0.431712 0.161448
O O1 0.119623 0.432595 0.985481
O O2 0.051466 0.648665 0.933266
O O3 0.029745 0.395558 0.139211
O O4 0.045467 0.181110 0.948974
O O5 0.793135 0.508584 0.458078
O O6 0.881446 0.659445 0.337124
O O7 0.864155 0.159414 0.375647
O O8 0.044431 0.950760 0.757460
O O9 0.288654 0.542022 0.120359
O O10 0.209869 0.821320 0.199805
O O11 0.205461 0.324277 0.222030
O O12 0.627643 0.545451 0.338504
O O13 0.578280 0.592472 0.555522
#
# Coordination Sequence:
#
# PCOD9268702 Si02
#       7
#     8   8   4   8   8   8   8
#     4   9  18  29  50  73  96 122 149 192 240 283
#     4   9  17  31  45  71  98 119 156 193 235 281
#     4   8  16  30  48  78  98 118 156 186 232 292
#     4  10  20  33  50  69  92 127 167 199 226 270
#     4  10  20  33  50  69  92 127 167 199 226 270
#     4   9  17  31  45  71  98 119 156 193 235 281
#     4   9  18  29  50  73  96 122 149 192 240 283
#
# _framework density 28.799005000000001
#
# number of rings (size 3 to 8) (size 9 to 14) (size 15 to 20)
#    0.000    3.077    0.000    1.846    0.000    9.846 
#    0.000    6.154    0.000    0.000    0.000  114.154 
#    0.000    0.000    0.000    0.000    0.000    0.000 
#
# Total GULP energy -145455.931402 kJ/mol
# GULP energy per Si atom -5594.458900 kJ/mol
# Density = 2.873346 g / cm^3
# Si number density = 28.799005 Si / 1000 Ang^3
#
#
#
# Elastic Constant Matrix: (Units=GPa)
#
#
# Indices 1 2 3 4 5 6 
#
# 1 138.5916 10.4386 -8.7716 0.0000 -1.1632 0.0000
# 2 10.4386 258.5868 38.5342 0.0000 -13.3771 0.0000
# 3 -8.7716 38.5342 58.7283 0.0000 -3.8450 0.0000
# 4 0.0000 0.0000 0.0000 29.3826 0.0000 0.5096
# 5 -1.1632 -13.3771 -3.8450 0.0000 44.7388 0.0000
# 6 0.0000 0.0000 0.0000 0.5096 0.0000 30.4410
#
#
#
# Elastic Compliance Matrix: (Units=1/GPa)
#
#
# Indices 1 2 3 4 5 6 
#
# 1 0.007346 -0.000502 0.001437 0.000000 0.000164 0.000000
# 2 -0.000502 0.004370 -0.002874 0.000000 0.001047 0.000000
# 3 0.001437 -0.002874 0.019182 0.000000 0.000827 0.000000
# 4 0.000000 0.000000 0.000000 0.034044 0.000000 -0.000570
# 5 0.000164 0.001047 0.000827 0.000000 0.022740 0.000000
# 6 0.000000 0.000000 0.000000 -0.000570 0.000000 0.032860
#
#
# Mechanical properties :
#
#
# Convention : Reuss Voigt Hill
#
# Bulk Modulus (GPa) = 37.00915 59.58990 48.29953
# Shear Modulus (GPa) = 37.47420 48.62616 43.05018
#
# Velocity S-wave (km/s) = 3.61117 4.11355 3.87052
# Velocity P-wave (km/s) = 5.50147 6.58015 6.06484
#
# Compressibility (1/GPa) = 0.02702034
#
# Stress axis : x y z
#
# Youngs Moduli (GPa) = 136.13544 228.84215 52.13237
#
# Poissons Ratio (x) = 0.11493 -0.07494
# Poissons Ratio (y) = 0.06837 0.14981
# Poissons Ratio (z) = -0.19568 0.65763
#
# Static dielectric constant tensor:
#      x y z
#    x 2.351220 0.000000 0.143340 
#    y 0.000000 2.274150 0.000000 
#    z 0.143340 0.000000 2.302350 
# 
# From -- ./inp_files/223574.got.cif
#   From: 2010.05.17/outbox.cif.g08.bks.cpg/sg15_112_cif.got.tgz:223574.got - 2010.06.03 18:47:42.
