data_PCOD9268713
_publ_section_title
;
Structure prediction by ZEFSAII (Michael W. Deem and Ramdas Pophale) SiO2 
 PCOD9268713
Probable space group: C 2/C
;
_chemical_formula_sum "Si O2"
_cell_formula_units_Z 48
_cell_length_a 5.016075
_cell_length_b 30.156767
_cell_length_c 17.591752
_cell_angle_alpha 90.000000
_cell_angle_beta 114.106118
_cell_angle_gamma 90.000000
_cell_volume 2429.008536
_symmetry_space_group_name_H-M "C 2/C"
_symmetry_group_IT_number 15
_symmetry_cell_setting 'monoclinic'
loop_
_space_group_symop_operation_xyz
x,y,z
-x,y,1/2-z
-x,-y,-z
x,-y,1/2+z
1/2+x,1/2+y,z
1/2-x,1/2+y,1/2-z
1/2-x,1/2-y,-z
1/2+x,1/2-y,1/2+z
loop_
_atom_site_type_symbol
_atom_site_label
_atom_site_fract_x
_atom_site_fract_y
_atom_site_fract_z
Si Si1 0.233860 0.962238 0.048273
Si Si2 0.382996 0.441538 0.153415
Si Si3 0.135477 0.752722 0.350365
Si Si4 0.094969 0.131527 0.474151
Si Si5 0.729984 0.847357 0.075552
Si Si6 0.367935 0.302844 0.650262
O O1 0.585770 0.967569 0.093348
O O2 0.171791 0.920386 0.986213
O O3 0.136810 0.948907 0.121829
O O4 0.000000 0.000000 0.000000
O O5 0.500000 0.453281 0.250000
O O6 0.310863 0.389019 0.138454
O O7 0.127215 0.801100 0.385326
O O8 0.459839 0.734794 0.376245
O O9 0.000000 0.755289 0.250000
O O10 0.956750 0.715879 0.376555
O O11 0.381768 0.156346 0.539545
O O12 0.069455 0.152168 0.387955
O O13 0.832477 0.139360 0.502462
O O14 0.500000 0.306450 0.750000
#
# Coordination Sequence:
#
# PCOD9268713 Si02
#       6
#     8   8   8   8   8   8
#     4  10  21  38  59  83 112 144 180 228 283 336
#     4  10  20  36  59  85 114 144 178 224 279 336
#     4  10  20  33  50  74 107 144 179 218 263 310
#     4  10  21  35  53  77 103 139 180 221 276 325
#     4  10  20  33  53  80 108 139 177 221 269 326
#     4  10  21  35  50  71 104 144 183 222 262 311
#
# _framework density 19.761150000000001
#
# number of rings (size 3 to 8) (size 9 to 14) (size 15 to 20)
#    0.000    2.000    0.000    3.500    0.000    4.000 
#    0.000    5.833    0.000    8.000    0.000    0.000 
#    0.000    0.000    0.000    0.000    0.000    0.000 
#
# Total GULP energy -133860.501158 kJ/mol
# GULP energy per Si atom -5577.520882 kJ/mol
# Density = 1.971617 g / cm^3
# Si number density = 19.761150 Si / 1000 Ang^3
#
#
#
# Elastic Constant Matrix: (Units=GPa)
#
#
# Indices 1 2 3 4 5 6 
#
# 1 81.8132 5.4466 5.4536 0.0000 0.3947 0.0000
# 2 5.4466 71.6950 29.9532 0.0000 1.4974 0.0000
# 3 5.4536 29.9532 35.7907 0.0000 -1.5421 0.0000
# 4 0.0000 0.0000 0.0000 12.6619 0.0000 1.1867
# 5 0.3947 1.4974 -1.5421 0.0000 20.7641 0.0000
# 6 0.0000 0.0000 0.0000 1.1867 0.0000 27.3200
#
#
#
# Elastic Compliance Matrix: (Units=1/GPa)
#
#
# Indices 1 2 3 4 5 6 
#
# 1 0.012353 -0.000213 -0.001719 0.000000 -0.000347 0.000000
# 2 -0.000213 0.021625 -0.018190 0.000000 -0.002906 0.000000
# 3 -0.001719 -0.018190 0.043623 0.000000 0.004584 0.000000
# 4 0.000000 0.000000 0.000000 0.079300 0.000000 -0.003445
# 5 -0.000347 -0.002906 0.004584 0.000000 0.048717 0.000000
# 6 0.000000 0.000000 0.000000 -0.003445 0.000000 0.036753
#
#
# Mechanical properties :
#
#
# Convention : Reuss Voigt Hill
#
# Bulk Modulus (GPa) = 26.76919 30.11175 28.44047
# Shear Modulus (GPa) = 16.94528 22.04555 19.49541
#
# Velocity S-wave (km/s) = 2.93149 3.34368 3.14435
# Velocity P-wave (km/s) = 5.00340 5.49344 5.25414
#
# Compressibility (1/GPa) = 0.03735637
#
# Stress axis : x y z
#
# Youngs Moduli (GPa) = 80.94927 46.24373 22.92357
#
# Poissons Ratio (x) = 0.00985 0.03941
# Poissons Ratio (y) = 0.01725 0.41699
# Poissons Ratio (z) = 0.13915 0.84119
#
# Static dielectric constant tensor:
#      x y z
#    x 1.687320 0.000000 0.014420 
#    y 0.000000 1.690150 0.000000 
#    z 0.014420 0.000000 1.703130 
# 
# From -- ./inp_files/185984.got.cif
#   From: 2010.05.17/outbox.cif.g08.bks.cpg/sg15_93_cif.got.tgz:185984.got - 2010.06.03 18:47:42.
