data_PCOD9268707
_publ_section_title
;
Structure prediction by ZEFSAII (Michael W. Deem and Ramdas Pophale) SiO2 
 PCOD9268707
Probable space group: C 2/C
;
_chemical_formula_sum "Si O2"
_cell_formula_units_Z 40
_cell_length_a 9.696583
_cell_length_b 7.680176
_cell_length_c 22.557170
_cell_angle_alpha 90.000000
_cell_angle_beta 122.486891
_cell_angle_gamma 90.000000
_cell_volume 1416.990643
_symmetry_space_group_name_H-M "C 2/C"
_symmetry_group_IT_number 15
_symmetry_cell_setting 'monoclinic'
loop_
_space_group_symop_operation_xyz
x,y,z
-x,y,1/2-z
-x,-y,-z
x,-y,1/2+z
1/2+x,1/2+y,z
1/2-x,1/2+y,1/2-z
1/2-x,1/2-y,-z
1/2+x,1/2-y,1/2+z
loop_
_atom_site_type_symbol
_atom_site_label
_atom_site_fract_x
_atom_site_fract_y
_atom_site_fract_z
Si Si1 0.912971 0.244482 0.590518
Si Si2 0.317483 0.350727 0.192009
Si Si3 0.715754 0.242513 0.791839
Si Si4 0.983477 0.291827 0.007204
Si Si5 0.381456 0.154508 0.606560
O O1 0.800291 0.170352 0.617128
O O2 0.903834 0.451957 0.596555
O O3 0.097154 0.186615 0.651077
O O4 0.904750 0.202227 0.518271
O O5 0.500000 0.283023 0.250000
O O6 0.306889 0.554843 0.200774
O O7 0.203631 0.278204 0.218209
O O8 0.609056 0.159971 0.819892
O O9 0.799695 0.231700 0.947200
O O10 0.986487 0.252818 0.078191
O O11 0.000000 0.500000 0.000000
#
# Coordination Sequence:
#
# PCOD9268707 Si02
#       5
#     8   8   8   8   8
#     4   9  18  33  51  72  99 130 166 207 248 294
#     4  10  21  35  51  73 101 132 166 206 252 299
#     4  10  20  33  50  73  99 129 166 206 250 300
#     4   8  15  29  52  76 100 134 168 201 249 299
#     4   9  16  30  53  75  99 133 168 205 249 295
#
# _framework density 28.228839000000001
#
# number of rings (size 3 to 8) (size 9 to 14) (size 15 to 20)
#    0.000    2.800    0.000    1.200    0.000    1.600 
#    0.000    1.000    0.000   40.800    0.000    0.000 
#    0.000    0.000    0.000    0.000    0.000    0.000 
#
# Total GULP energy -111810.692896 kJ/mol
# GULP energy per Si atom -5590.534645 kJ/mol
# Density = 2.816459 g / cm^3
# Si number density = 28.228839 Si / 1000 Ang^3
#
#
#
# Elastic Constant Matrix: (Units=GPa)
#
#
# Indices 1 2 3 4 5 6 
#
# 1 249.9382 2.9701 84.4358 0.0000 -83.7601 0.0000
# 2 2.9701 32.1339 25.2134 0.0000 -27.9017 0.0000
# 3 84.4358 25.2134 313.8781 0.0000 -84.2067 0.0000
# 4 0.0000 0.0000 0.0000 39.5217 0.0000 -14.1036
# 5 -83.7601 -27.9017 -84.2067 0.0000 82.0997 0.0000
# 6 0.0000 0.0000 0.0000 -14.1036 0.0000 37.0561
#
#
#
# Elastic Compliance Matrix: (Units=1/GPa)
#
#
# Indices 1 2 3 4 5 6 
#
# 1 0.007371 0.008323 0.000172 0.000000 0.010526 0.000000
# 2 0.008323 0.053644 0.000857 0.000000 0.027601 0.000000
# 3 0.000172 0.000857 0.004409 0.000000 0.004989 0.000000
# 4 0.000000 0.000000 0.000000 0.029279 0.000000 0.011144
# 5 0.010526 0.027601 0.004989 0.000000 0.037416 0.000000
# 6 0.000000 0.000000 0.000000 0.011144 0.000000 0.031227
#
#
# Mechanical properties :
#
#
# Convention : Reuss Voigt Hill
#
# Bulk Modulus (GPa) = 11.88667 91.24318 51.56492
# Shear Modulus (GPa) = 28.95416 63.95755 46.45586
#
# Velocity S-wave (km/s) = 3.20612 4.76508 4.06111
# Velocity P-wave (km/s) = 4.23386 7.91628 6.34796
#
# Compressibility (1/GPa) = 0.08412786
#
# Stress axis : x y z
#
# Youngs Moduli (GPa) = 135.66258 18.64144 226.79127
#
# Poissons Ratio (x) = -0.15515 -0.03908
# Poissons Ratio (y) = -1.12909 -0.19428
# Poissons Ratio (z) = -0.02337 -0.01597
#
# Static dielectric constant tensor:
#      x y z
#    x 2.361040 0.000000 0.495600 
#    y 0.000000 2.059180 0.000000 
#    z 0.495600 0.000000 4.168170 
# 
# From -- ./inp_files/235827.got.cif
#   From: 2010.05.17/outbox.cif.g08.bks.cpg/sg15_118_cif.got.tgz:235827.got - 2010.06.03 18:47:42.
