data_PCOD9268905
_publ_section_title
;
Structure prediction by ZEFSAII (Michael W. Deem and Ramdas Pophale) SiO2 
 PCOD9268905
Probable space group: C 2/C
;
_chemical_formula_sum "Si O2"
_cell_formula_units_Z 48
_cell_length_a 8.862840
_cell_length_b 13.369934
_cell_length_c 15.640721
_cell_angle_alpha 90.000000
_cell_angle_beta 83.847050
_cell_angle_gamma 90.000000
_cell_volume 1842.679796
_symmetry_space_group_name_H-M "C 2/C"
_symmetry_group_IT_number 15
_symmetry_cell_setting 'monoclinic'
loop_
_space_group_symop_operation_xyz
x,y,z
-x,y,1/2-z
-x,-y,-z
x,-y,1/2+z
1/2+x,1/2+y,z
1/2-x,1/2+y,1/2-z
1/2-x,1/2-y,-z
1/2+x,1/2-y,1/2+z
loop_
_atom_site_type_symbol
_atom_site_label
_atom_site_fract_x
_atom_site_fract_y
_atom_site_fract_z
Si Si1 0.500000 0.585969 0.250000
Si Si2 0.596864 0.264289 0.386253
Si Si3 0.500000 0.094134 0.750000
Si Si4 0.685270 0.608894 0.719014
Si Si5 0.084123 0.170675 0.072619
Si Si6 0.952377 0.436186 0.887353
Si Si7 0.744459 0.534500 0.545601
O O1 0.357802 0.509551 0.268388
O O2 0.487782 0.648117 0.163460
O O3 0.606726 0.342493 0.307117
O O4 0.771344 0.233469 0.400110
O O5 0.531473 0.280493 0.486897
O O6 0.510376 0.169587 0.352277
O O7 0.417538 0.020302 0.820969
O O8 0.358762 0.146801 0.716924
O O9 0.672370 0.612475 0.616204
O O10 0.137761 0.060544 0.038319
O O11 0.101543 0.484541 0.924147
O O12 0.806732 0.420949 0.954968
#
# Coordination Sequence:
#
# PCOD9268905 Si02
#       7
#     4   8   4   8   8   8   8
#     4  10  22  40  58  80 114 154 184 224 282 340
#     4  10  20  33  55  87 114 141 184 241 280 316
#     4  10  20  36  58  80 108 154 190 218 272 348
#     4  10  21  36  58  83 111 147 187 229 277 330
#     4   9  19  35  55  79 111 148 188 227 274 334
#     4   9  17  31  53  79 108 139 181 229 270 315
#     4   8  16  33  53  75 105 146 185 217 264 333
#
# _framework density 26.049018
#
# number of rings (size 3 to 8) (size 9 to 14) (size 15 to 20)
#    0.000    2.667    0.000    2.000    0.000    7.333 
#    0.000    0.000    0.000    6.000    0.000    0.000 
#    0.000    0.000    0.000    0.000    0.000    0.000 
#
# Total GULP energy -133884.047390 kJ/mol
# GULP energy per Si atom -5578.501975 kJ/mol
# Density = 2.598973 g / cm^3
# Si number density = 26.049018 Si / 1000 Ang^3
#
#
#
# Elastic Constant Matrix: (Units=GPa)
#
#
# Indices 1 2 3 4 5 6 
#
# 1 32.1360 -5.9587 19.4444 0.0000 -9.2491 0.0000
# 2 -5.9587 72.7394 44.3835 0.0000 -0.3695 0.0000
# 3 19.4444 44.3835 170.7636 0.0000 -28.4767 0.0000
# 4 0.0000 0.0000 0.0000 -31.0458 0.0000 -21.0789
# 5 -9.2491 -0.3695 -28.4767 0.0000 40.7200 0.0000
# 6 0.0000 0.0000 0.0000 -21.0789 0.0000 5.1686
#
#
#
# Elastic Compliance Matrix: (Units=1/GPa)
#
#
# Indices 1 2 3 4 5 6 
#
# 1 0.036629 0.006023 -0.004913 0.000000 0.004939 0.000000
# 2 0.006023 0.017705 -0.005697 0.000000 -0.002455 0.000000
# 3 -0.004913 -0.005697 0.008718 0.000000 0.004929 0.000000
# 4 0.000000 0.000000 0.000000 -0.008546 0.000000 -0.034854
# 5 0.004939 -0.002455 0.004929 0.000000 0.029105 0.000000
# 6 0.000000 0.000000 0.000000 -0.034854 0.000000 0.051334
#
#
# Mechanical properties :
#
#
# Convention : Reuss Voigt Hill
#
# Bulk Modulus (GPa) = 18.56025 43.48641 31.02333
# Shear Modulus (GPa) = 30.84970 17.48654 24.16812
#
# Velocity S-wave (km/s) = 3.44509 2.59374 3.04928
# Velocity P-wave (km/s) = 4.79223 5.06955 4.93284
#
# Compressibility (1/GPa) = 0.05387858
#
# Stress axis : x y z
#
# Youngs Moduli (GPa) = 27.30110 56.48188 114.70281
#
# Poissons Ratio (x) = -0.34020 0.56350
# Poissons Ratio (y) = -0.16444 0.65346
# Poissons Ratio (z) = 0.13412 0.32178
#
# Static dielectric constant tensor:
#      x y z
#    x 2.203160 0.000000 -0.005310 
#    y 0.000000 2.029010 0.000000 
#    z -0.005310 0.000000 2.027210 
# 
# From -- ./inp_files/196543.got.cif
#   From: 2010.05.17/outbox.cif.g08.bks.cpg/sg15_99_cif.got.tgz:196543.got - 2010.06.03 18:47:42.
