data_PCOD9268959
_publ_section_title
;
Structure prediction by ZEFSAII (Michael W. Deem and Ramdas Pophale) SiO2 
 PCOD9268959
Probable space group: C 2/C
;
_chemical_formula_sum "Si O2"
_cell_formula_units_Z 64
_cell_length_a 14.589591
_cell_length_b 21.000188
_cell_length_c 12.357796
_cell_angle_alpha 90.000000
_cell_angle_beta 65.376968
_cell_angle_gamma 90.000000
_cell_volume 3441.945783
_symmetry_space_group_name_H-M "C 2/C"
_symmetry_group_IT_number 15
_symmetry_cell_setting 'monoclinic'
loop_
_space_group_symop_operation_xyz
x,y,z
-x,y,1/2-z
-x,-y,-z
x,-y,1/2+z
1/2+x,1/2+y,z
1/2-x,1/2+y,1/2-z
1/2-x,1/2-y,-z
1/2+x,1/2-y,1/2+z
loop_
_atom_site_type_symbol
_atom_site_label
_atom_site_fract_x
_atom_site_fract_y
_atom_site_fract_z
Si Si1 0.773514 0.689300 0.803263
Si Si2 0.929838 0.073102 0.178861
Si Si3 0.257465 0.510745 0.692146
Si Si4 0.389260 0.892532 0.433755
Si Si5 0.397742 0.042534 0.366987
Si Si6 0.288006 0.335475 0.854028
Si Si7 0.882526 0.886647 0.023062
Si Si8 0.617442 0.108473 0.896809
O O1 0.844812 0.650962 0.856683
O O2 0.770268 0.762026 0.839142
O O3 0.661285 0.659063 0.862872
O O4 0.821196 0.671778 0.664767
O O5 0.856542 0.133051 0.229369
O O6 0.000000 0.065343 0.250000
O O7 0.853967 0.014218 0.208929
O O8 0.005507 0.086921 0.042828
O O9 0.196096 0.453442 0.668414
O O10 0.308302 0.553107 0.572366
O O11 0.179301 0.552446 0.801884
O O12 0.314435 0.873903 0.568728
O O13 0.505107 0.880388 0.406654
O O14 0.392263 0.967878 0.405782
O O15 0.500000 0.052586 0.250000
O O16 0.389745 0.086196 0.476184
O O17 0.355154 0.346824 0.929089
#
# Coordination Sequence:
#
# PCOD9268959 Si02
#       8
#     8   8   8   8   8   8   8   8
#     4  10  20  36  56  85 119 155 190 251 300 348
#     4  10  22  35  54  83 114 156 199 239 290 357
#     4  11  21  37  57  82 123 158 189 247 297 355
#     4  11  18  34  54  86 119 153 185 242 303 355
#     4  12  22  35  56  87 122 157 193 236 296 367
#     4  10  20  33  57  85 118 149 197 242 298 352
#     4   9  18  34  51  79 114 152 187 237 292 352
#     4  11  23  34  56  84 122 153 192 240 301 357
#
# _framework density 18.594134
#
# number of rings (size 3 to 8) (size 9 to 14) (size 15 to 20)
#    0.000    1.500    5.000    3.375    3.500    4.000 
#    0.000    0.000    0.000    0.750    0.000    0.000 
#    0.000    0.000    0.000    0.000    0.000    0.000 
#
# Total GULP energy -178188.700277 kJ/mol
# GULP energy per Si atom -5568.396884 kJ/mol
# Density = 1.855181 g / cm^3
# Si number density = 18.594134 Si / 1000 Ang^3
#
#
#
# Elastic Constant Matrix: (Units=GPa)
#
#
# Indices 1 2 3 4 5 6 
#
# 1 88.3991 27.4606 45.8910 0.0000 -27.3724 0.0000
# 2 27.4606 46.1432 28.3851 0.0000 -2.1938 0.0000
# 3 45.8910 28.3851 107.0194 0.0000 -28.9344 0.0000
# 4 0.0000 0.0000 0.0000 24.4136 0.0000 -3.1723
# 5 -27.3724 -2.1938 -28.9344 0.0000 30.9672 0.0000
# 6 0.0000 0.0000 0.0000 -3.1723 0.0000 9.8707
#
#
#
# Elastic Compliance Matrix: (Units=1/GPa)
#
#
# Indices 1 2 3 4 5 6 
#
# 1 0.020186 -0.010187 -0.001773 0.000000 0.015464 0.000000
# 2 -0.010187 0.031939 -0.007929 0.000000 -0.014150 0.000000
# 3 -0.001773 -0.007929 0.015563 0.000000 0.012413 0.000000
# 4 0.000000 0.000000 0.000000 0.042746 0.000000 0.013738
# 5 0.015464 -0.014150 0.012413 0.000000 0.056557 0.000000
# 6 0.000000 0.000000 0.000000 0.013738 0.000000 0.105725
#
#
# Mechanical properties :
#
#
# Convention : Reuss Voigt Hill
#
# Bulk Modulus (GPa) = 35.82859 49.44835 42.63847
# Shear Modulus (GPa) = 15.53776 22.37194 18.95485
#
# Velocity S-wave (km/s) = 2.89386 3.47244 3.19627
# Velocity P-wave (km/s) = 5.52055 6.53669 6.04999
#
# Compressibility (1/GPa) = 0.02791067
#
# Stress axis : x y z
#
# Youngs Moduli (GPa) = 49.54004 31.30993 64.25378
#
# Poissons Ratio (x) = 0.31896 0.11391
# Poissons Ratio (y) = 0.50467 0.50944
# Poissons Ratio (z) = 0.08783 0.24824
#
# Static dielectric constant tensor:
#      x y z
#    x 1.692870 0.000000 0.004520 
#    y 0.000000 1.667020 0.000000 
#    z 0.004520 0.000000 1.721120 
# 
# From -- ./inp_files/99769.got.cif
#   From: 2010.05.17/outbox.cif.g08.bks.cpg/sg15_50_cif.got.tgz:99769.got - 2010.06.03 18:47:42.
