data_PCOD9268076
_publ_section_title
;
Structure prediction by ZEFSAII (Michael W. Deem and Ramdas Pophale) SiO2 
 PCOD9268076
Probable space group: C 2/C
;
_chemical_formula_sum "Si O2"
_cell_formula_units_Z 56
_cell_length_a 16.508568
_cell_length_b 8.306257
_cell_length_c 22.427751
_cell_angle_alpha 90.000000
_cell_angle_beta 128.511418
_cell_angle_gamma 90.000000
_cell_volume 2406.445367
_symmetry_space_group_name_H-M "C 2/C"
_symmetry_group_IT_number 15
_symmetry_cell_setting 'monoclinic'
loop_
_space_group_symop_operation_xyz
x,y,z
-x,y,1/2-z
-x,-y,-z
x,-y,1/2+z
1/2+x,1/2+y,z
1/2-x,1/2+y,1/2-z
1/2-x,1/2-y,-z
1/2+x,1/2-y,1/2+z
loop_
_atom_site_type_symbol
_atom_site_label
_atom_site_fract_x
_atom_site_fract_y
_atom_site_fract_z
Si Si1 0.250000 0.750000 0.500000
Si Si2 0.171927 0.482690 0.183416
Si Si3 0.208814 0.290680 0.311590
Si Si4 0.000000 0.848843 0.750000
Si Si5 0.517644 0.177623 0.423530
Si Si6 0.715901 0.467586 0.565098
Si Si7 0.943648 0.783359 0.935318
Si Si8 0.438451 0.507223 0.102715
O O1 0.359455 0.839917 0.524433
O O2 0.215852 0.689406 0.413504
O O3 0.226872 0.425044 0.268964
O O4 0.232774 0.626988 0.179099
O O5 0.147232 0.325399 0.133377
O O6 0.055810 0.549653 0.140365
O O7 0.087520 0.253202 0.257511
O O8 0.237708 0.371627 0.387929
O O9 0.942875 0.950902 0.673071
O O10 0.495084 0.192065 0.484070
O O11 0.495416 0.350104 0.382784
O O12 0.614545 0.428584 0.557116
O O13 0.675968 0.462407 0.476403
O O14 0.018188 0.849108 0.918173
#
# Coordination Sequence:
#
# PCOD9268076 Si02
#       8
#     4   8   8   4   8   8   8   8
#     4   8  20  40  66 106 136 172 234 280 360 424
#     4  12  25  43  70  99 145 186 246 292 359 425
#     4  12  28  45  69 106 142 196 237 302 354 430
#     4  12  28  44  66 102 154 178 240 304 364 414
#     4  10  22  40  73 105 137 186 235 297 357 436
#     4  10  22  43  73  99 145 184 239 291 363 433
#     4  10  19  41  72 101 135 176 242 292 347 438
#     4  10  21  44  67  99 137 187 228 295 364 431
#
# _framework density 23.270835999999999
#
# number of rings (size 3 to 8) (size 9 to 14) (size 15 to 20)
#    0.000    1.714    1.429    4.714    4.000    5.143 
#    5.143    0.000    0.000    0.000    0.000    0.000 
#    0.000    0.000    0.000    0.000    0.000    0.000 
#
# Total GULP energy -155936.348917 kJ/mol
# GULP energy per Si atom -5569.155318 kJ/mol
# Density = 2.321787 g / cm^3
# Si number density = 23.270836 Si / 1000 Ang^3
#
#
#
# Elastic Constant Matrix: (Units=GPa)
#
#
# Indices 1 2 3 4 5 6 
#
# 1 84.7605 28.1595 15.5570 0.0000 3.3406 0.0000
# 2 28.1595 77.1732 36.4678 0.0000 -4.8263 0.0000
# 3 15.5570 36.4678 87.7782 0.0000 -8.8644 0.0000
# 4 0.0000 0.0000 0.0000 51.9245 0.0000 -2.1701
# 5 3.3406 -4.8263 -8.8644 0.0000 35.2910 0.0000
# 6 0.0000 0.0000 0.0000 -2.1701 0.0000 -14.5111
#
#
#
# Elastic Compliance Matrix: (Units=1/GPa)
#
#
# Indices 1 2 3 4 5 6 
#
# 1 0.013588 -0.004792 -0.000629 0.000000 -0.002100 0.000000
# 2 -0.004792 0.017823 -0.006426 0.000000 0.001277 0.000000
# 3 -0.000629 -0.006426 0.014458 0.000000 0.002812 0.000000
# 4 0.000000 0.000000 0.000000 0.019139 0.000000 -0.002862
# 5 -0.002100 0.001277 0.002812 0.000000 0.029416 0.000000
# 6 0.000000 0.000000 0.000000 -0.002862 0.000000 -0.068485
#
#
# Mechanical properties :
#
#
# Convention : Reuss Voigt Hill
#
# Bulk Modulus (GPa) = 45.09928 45.56451 45.33189
# Shear Modulus (GPa) = 87.67921 25.84271 56.76096
#
# Velocity S-wave (km/s) = 6.14488 3.33606 4.94413
# Velocity P-wave (km/s) = 8.35274 5.87041 7.21907
#
# Compressibility (1/GPa) = 0.02217330
#
# Stress axis : x y z
#
# Youngs Moduli (GPa) = 73.59292 56.10712 69.16691
#
# Poissons Ratio (x) = 0.26887 0.04354
# Poissons Ratio (y) = 0.35266 0.44449
# Poissons Ratio (z) = 0.04632 0.36057
#
# Static dielectric constant tensor:
#      x y z
#    x 2.261750 0.000000 0.107890 
#    y 0.000000 2.646050 0.000000 
#    z 0.107890 0.000000 1.993580 
# 
# From -- ./inp_files/276659.got.cif
#   From: 2010.05.17/outbox.cif.g08.bks.cpg/sg15_139_cif.got.tgz:276659.got - 2010.06.03 18:47:42.
