data_PCOD9268699
_publ_section_title
;
Structure prediction by ZEFSAII (Michael W. Deem and Ramdas Pophale) SiO2 
 PCOD9268699
Probable space group: C 2/C
;
_chemical_formula_sum "Si O2"
_cell_formula_units_Z 48
_cell_length_a 12.125526
_cell_length_b 12.888281
_cell_length_c 13.789092
_cell_angle_alpha 90.000000
_cell_angle_beta 62.097147
_cell_angle_gamma 90.000000
_cell_volume 1904.394461
_symmetry_space_group_name_H-M "C 2/C"
_symmetry_group_IT_number 15
_symmetry_cell_setting 'monoclinic'
loop_
_space_group_symop_operation_xyz
x,y,z
-x,y,1/2-z
-x,-y,-z
x,-y,1/2+z
1/2+x,1/2+y,z
1/2-x,1/2+y,1/2-z
1/2-x,1/2-y,-z
1/2+x,1/2-y,1/2+z
loop_
_atom_site_type_symbol
_atom_site_label
_atom_site_fract_x
_atom_site_fract_y
_atom_site_fract_z
Si Si1 0.000000 0.553703 0.250000
Si Si2 0.551074 0.722848 0.512978
Si Si3 0.047816 0.404341 0.383636
Si Si4 0.664665 0.765241 0.673418
Si Si5 0.000000 0.251570 0.250000
Si Si6 0.531289 0.428301 0.601301
Si Si7 0.181380 0.036578 0.692569
O O1 0.036438 0.484525 0.141749
O O2 0.886634 0.627350 0.266085
O O3 0.494727 0.827824 0.487323
O O4 0.581410 0.745235 0.611434
O O5 0.691362 0.719960 0.411535
O O6 0.484933 0.617753 0.500174
O O7 0.169700 0.464407 0.369513
O O8 0.085142 0.325088 0.280595
O O9 0.652628 0.656014 0.732348
O O10 0.067040 0.176207 0.146902
O O11 0.628730 0.510685 0.605914
O O12 0.398031 0.465317 0.701382
#
# Coordination Sequence:
#
# PCOD9268699 Si02
#       7
#     4   8   8   8   4   8   8
#     4  11  20  31  52  76  98 123 160 207 244 274
#     4   9  19  35  52  69  98 133 163 193 239 295
#     4   9  17  30  48  70  94 125 161 198 237 285
#     4  10  20  33  49  74 102 128 157 200 247 285
#     4   7  14  27  44  66  90 121 158 191 236 288
#     4   9  16  30  50  70  93 126 163 198 233 286
#     4   9  17  29  47  71  97 123 159 197 238 287
#
# _framework density 25.204861999999999
#
# number of rings (size 3 to 8) (size 9 to 14) (size 15 to 20)
#    0.000    3.000    0.000    2.000    0.000    2.667 
#    0.000    0.000    0.000    1.000    0.000    0.000 
#    0.000    0.000    0.000    0.000    0.000    0.000 
#
# Total GULP energy -133760.480419 kJ/mol
# GULP energy per Si atom -5573.353351 kJ/mol
# Density = 2.514749 g / cm^3
# Si number density = 25.204862 Si / 1000 Ang^3
#
#
#
# Elastic Constant Matrix: (Units=GPa)
#
#
# Indices 1 2 3 4 5 6 
#
# 1 68.4729 17.7368 0.9536 0.0000 21.3194 0.0000
# 2 17.7368 115.3495 9.3496 0.0000 9.6795 0.0000
# 3 0.9536 9.3496 41.9508 0.0000 21.1083 0.0000
# 4 0.0000 0.0000 0.0000 26.1440 0.0000 12.1049
# 5 21.3194 9.6795 21.1083 0.0000 35.9684 0.0000
# 6 0.0000 0.0000 0.0000 12.1049 0.0000 36.9972
#
#
#
# Elastic Compliance Matrix: (Units=1/GPa)
#
#
# Indices 1 2 3 4 5 6 
#
# 1 0.020116 -0.002407 0.008163 0.000000 -0.016067 0.000000
# 2 -0.002407 0.009193 -0.002082 0.000000 0.000174 0.000000
# 3 0.008163 -0.002082 0.037276 0.000000 -0.026154 0.000000
# 4 0.000000 0.000000 0.000000 0.045079 0.000000 -0.014749
# 5 -0.016067 0.000174 -0.026154 0.000000 0.052627 0.000000
# 6 0.000000 0.000000 0.000000 -0.014749 0.000000 0.031855
#
#
# Mechanical properties :
#
#
# Convention : Reuss Voigt Hill
#
# Bulk Modulus (GPa) = 13.52543 31.31703 22.42123
# Shear Modulus (GPa) = 23.42568 33.00416 28.21492
#
# Velocity S-wave (km/s) = 3.05193 3.62254 3.34941
# Velocity P-wave (km/s) = 4.21864 5.47257 4.88600
#
# Compressibility (1/GPa) = 0.07393479
#
# Stress axis : x y z
#
# Youngs Moduli (GPa) = 49.71061 108.77252 26.82724
#
# Poissons Ratio (x) = 0.26178 -0.21900
# Poissons Ratio (y) = 0.11964 0.05585
# Poissons Ratio (z) = -0.40580 0.22646
#
# Static dielectric constant tensor:
#      x y z
#    x 1.995770 0.000000 0.048570 
#    y 0.000000 2.084660 0.000000 
#    z 0.048570 0.000000 2.050010 
# 
# From -- ./inp_files/203512.got.cif
#   From: 2010.05.17/outbox.cif.g08.bks.cpg/sg15_102_cif.got.tgz:203512.got - 2010.06.03 18:47:42.
