data_PCOD9268200
_publ_section_title
;
Structure prediction by ZEFSAII (Michael W. Deem and Ramdas Pophale) SiO2 
 PCOD9268200
Probable space group: C 2/C
;
_chemical_formula_sum "Si O2"
_cell_formula_units_Z 48
_cell_length_a 10.679638
_cell_length_b 13.804354
_cell_length_c 14.191693
_cell_angle_alpha 90.000000
_cell_angle_beta 76.483418
_cell_angle_gamma 90.000000
_cell_volume 2034.267912
_symmetry_space_group_name_H-M "C 2/C"
_symmetry_group_IT_number 15
_symmetry_cell_setting 'monoclinic'
loop_
_space_group_symop_operation_xyz
x,y,z
-x,y,1/2-z
-x,-y,-z
x,-y,1/2+z
1/2+x,1/2+y,z
1/2-x,1/2+y,1/2-z
1/2-x,1/2-y,-z
1/2+x,1/2-y,1/2+z
loop_
_atom_site_type_symbol
_atom_site_label
_atom_site_fract_x
_atom_site_fract_y
_atom_site_fract_z
Si Si1 0.270193 0.352014 0.587745
Si Si2 0.720489 0.513681 0.259572
Si Si3 0.471277 0.777386 0.943568
Si Si4 0.314035 0.289528 0.225594
Si Si5 0.408200 0.191862 0.887412
Si Si6 0.000000 0.515549 0.750000
Si Si7 0.000000 0.853354 0.750000
O O1 0.313978 0.452026 0.627802
O O2 0.376599 0.306628 0.500590
O O3 0.132342 0.361466 0.559959
O O4 0.233349 0.277340 0.679911
O O5 0.695186 0.401998 0.243616
O O6 0.873521 0.535933 0.230791
O O7 0.624470 0.579442 0.216719
O O8 0.548459 0.740635 0.839771
O O9 0.574641 0.807243 0.004525
O O10 0.219180 0.285856 0.150675
O O11 0.453312 0.089143 0.839343
O O12 0.501722 0.278741 0.836216
#
# Coordination Sequence:
#
# PCOD9268200 Si02
#       7
#     8   8   8   8   8   4   4
#     4  11  24  43  64  96 137 170 211 282 327 385
#     4  11  23  40  67 100 128 176 223 268 329 397
#     4  11  23  40  67  95 131 171 222 266 333 386
#     4  11  24  43  69  95 129 179 220 266 333 396
#     4  10  19  44  64  91 130 174 216 273 321 389
#     4   9  22  40  69  92 134 174 223 266 337 392
#     4  11  20  38  69  92 130 176 217 270 331 378
#
# _framework density 23.595711999999999
#
# number of rings (size 3 to 8) (size 9 to 14) (size 15 to 20)
#    0.000    1.333    3.333    3.000    4.667    0.667 
#    0.000    3.333    7.333    0.000    0.000    0.000 
#    0.000    0.000    0.000    0.000    0.000    0.000 
#
# Total GULP energy -133996.041109 kJ/mol
# GULP energy per Si atom -5583.168380 kJ/mol
# Density = 2.354201 g / cm^3
# Si number density = 23.595712 Si / 1000 Ang^3
#
#
#
# Elastic Constant Matrix: (Units=GPa)
#
#
# Indices 1 2 3 4 5 6 
#
# 1 114.3590 18.7458 23.4349 0.0000 -9.3389 0.0000
# 2 18.7458 98.1650 10.8989 0.0000 -6.6360 0.0000
# 3 23.4349 10.8989 88.3135 0.0000 -1.6894 0.0000
# 4 0.0000 0.0000 0.0000 17.4949 0.0000 2.1644
# 5 -9.3389 -6.6360 -1.6894 0.0000 46.7840 0.0000
# 6 0.0000 0.0000 0.0000 2.1644 0.0000 25.3465
#
#
#
# Elastic Compliance Matrix: (Units=1/GPa)
#
#
# Indices 1 2 3 4 5 6 
#
# 1 0.009595 -0.001463 -0.002335 0.000000 0.001624 0.000000
# 2 -0.001463 0.010647 -0.000903 0.000000 0.001185 0.000000
# 3 -0.002335 -0.000903 0.012051 0.000000 -0.000159 0.000000
# 4 0.000000 0.000000 0.000000 0.057770 0.000000 -0.004933
# 5 0.001624 0.001185 -0.000159 0.000000 0.021861 0.000000
# 6 0.000000 0.000000 0.000000 -0.004933 0.000000 0.039874
#
#
# Mechanical properties :
#
#
# Convention : Reuss Voigt Hill
#
# Bulk Modulus (GPa) = 43.68436 45.22185 44.45310
# Shear Modulus (GPa) = 29.61544 34.44228 32.02886
#
# Velocity S-wave (km/s) = 3.54661 3.82473 3.68829
# Velocity P-wave (km/s) = 5.94350 6.22186 6.08427
#
# Compressibility (1/GPa) = 0.02289149
#
# Stress axis : x y z
#
# Youngs Moduli (GPa) = 104.21822 93.92524 82.97945
#
# Poissons Ratio (x) = 0.13745 0.19372
# Poissons Ratio (y) = 0.15251 0.07492
# Poissons Ratio (z) = 0.24330 0.08481
#
# Static dielectric constant tensor:
#      x y z
#    x 2.045950 0.000000 0.047920 
#    y 0.000000 1.866910 0.000000 
#    z 0.047920 0.000000 1.906200 
# 
# From -- ./inp_files/143492.got.cif
#   From: 2010.05.17/outbox.cif.g08.bks.cpg/sg15_72_cif.got.tgz:143492.got - 2010.06.03 18:47:42.
