data_PCOD9268355
_publ_section_title
;
Structure prediction by ZEFSAII (Michael W. Deem and Ramdas Pophale) SiO2 
 PCOD9268355
Probable space group: C 2/C
;
_chemical_formula_sum "Si O2"
_cell_formula_units_Z 56
_cell_length_a 12.538446
_cell_length_b 20.857909
_cell_length_c 12.408077
_cell_angle_alpha 90.000000
_cell_angle_beta 45.060028
_cell_angle_gamma 90.000000
_cell_volume 2296.986762
_symmetry_space_group_name_H-M "C 2/C"
_symmetry_group_IT_number 15
_symmetry_cell_setting 'monoclinic'
loop_
_space_group_symop_operation_xyz
x,y,z
-x,y,1/2-z
-x,-y,-z
x,-y,1/2+z
1/2+x,1/2+y,z
1/2-x,1/2+y,1/2-z
1/2-x,1/2-y,-z
1/2+x,1/2-y,1/2+z
loop_
_atom_site_type_symbol
_atom_site_label
_atom_site_fract_x
_atom_site_fract_y
_atom_site_fract_z
Si Si1 0.468534 0.400757 0.432092
Si Si2 0.215045 0.637308 0.884651
Si Si3 0.401848 0.274192 0.558278
Si Si4 0.967069 0.961436 0.661608
Si Si5 0.647393 0.994330 0.469597
Si Si6 0.715797 0.771744 0.902469
Si Si7 0.469652 0.117191 0.884377
O O1 0.610124 0.374244 0.263550
O O2 0.361415 0.339089 0.523313
O O3 0.502766 0.420046 0.532155
O O4 0.435583 0.472283 0.410483
O O5 0.164840 0.709245 0.945838
O O6 0.162966 0.578567 0.997529
O O7 0.125131 0.618696 0.838626
O O8 0.582214 0.269229 0.442160
O O9 0.346229 0.273749 0.721630
O O10 0.000000 0.926472 0.750000
O O11 0.793931 0.985365 0.794545
O O12 0.500000 0.000000 0.500000
O O13 0.611906 0.049796 0.580230
O O14 0.750000 0.750000 0.000000
O O15 0.645797 0.842470 0.962277
O O16 0.500000 0.150687 0.750000
#
# Coordination Sequence:
#
# PCOD9268355 Si02
#       7
#     8   8   8   8   8   8   8
#     4  10  21  38  59  86 118 153 198 242 303 362
#     4   9  19  36  52  77 111 148 195 239 290 344
#     4  11  20  34  55  76 111 156 187 234 298 354
#     4  10  22  38  63  89 116 155 199 252 300 354
#     4   9  19  37  57  78 112 155 193 244 290 344
#     4  11  21  32  47  81 116 152 189 232 289 365
#     4  10  20  31  51  78 112 151 192 231 288 354
#
# _framework density 24.379767000000001
#
# number of rings (size 3 to 8) (size 9 to 14) (size 15 to 20)
#    0.000    2.000    1.429    3.000    2.000    1.143 
#    0.000    0.000    0.000    4.286    0.000    0.000 
#    0.000    0.000    0.000    0.000    0.000    0.000 
#
# Total GULP energy -156331.514099 kJ/mol
# GULP energy per Si atom -5583.268361 kJ/mol
# Density = 2.432428 g / cm^3
# Si number density = 24.379767 Si / 1000 Ang^3
#
#
#
# Elastic Constant Matrix: (Units=GPa)
#
#
# Indices 1 2 3 4 5 6 
#
# 1 68.0526 4.3096 3.3427 0.0000 -10.0759 0.0000
# 2 4.3096 152.5115 24.6138 0.0000 -3.3457 0.0000
# 3 3.3427 24.6138 56.6107 -0.0001 -6.8812 0.0000
# 4 0.0000 0.0000 -0.0001 36.8691 0.0000 3.0381
# 5 -10.0759 -3.3457 -6.8812 0.0000 20.3193 0.0000
# 6 0.0000 0.0000 0.0000 3.0381 0.0000 23.2669
#
#
#
# Elastic Compliance Matrix: (Units=1/GPa)
#
#
# Indices 1 2 3 4 5 6 
#
# 1 0.015872 -0.000300 0.000150 0.000000 0.007872 0.000000
# 2 -0.000300 0.007058 -0.003053 0.000000 -0.000021 0.000000
# 3 0.000150 -0.003053 0.019744 0.000000 0.006258 0.000000
# 4 0.000000 0.000000 0.000000 0.027418 0.000000 -0.003580
# 5 0.007872 -0.000021 0.006258 0.000000 0.055234 0.000000
# 6 0.000000 0.000000 0.000000 -0.003580 0.000000 0.043447
#
#
# Mechanical properties :
#
#
# Convention : Reuss Voigt Hill
#
# Bulk Modulus (GPa) = 27.57358 37.96745 32.77052
# Shear Modulus (GPa) = 26.69980 32.41832 29.55906
#
# Velocity S-wave (km/s) = 3.31291 3.65049 3.48579
# Velocity P-wave (km/s) = 5.09592 5.77713 5.44719
#
# Compressibility (1/GPa) = 0.03626660
#
# Stress axis : x y z
#
# Youngs Moduli (GPa) = 63.00542 141.68928 50.64853
#
# Poissons Ratio (x) = 0.04251 -0.00760
# Poissons Ratio (y) = 0.01890 0.15465
# Poissons Ratio (z) = -0.00946 0.43264
#
# Static dielectric constant tensor:
#      x y z
#    x 2.041440 0.000000 -0.070930 
#    y 0.000000 2.087910 0.000000 
#    z -0.070930 0.000000 1.905300 
# 
# From -- ./inp_files/156163.got.cif
#   From: 2010.05.17/outbox.cif.g08.bks.cpg/sg15_79_cif.got.tgz:156163.got - 2010.06.03 18:47:42.
