data_PCOD9268519
_publ_section_title
;
Structure prediction by ZEFSAII (Michael W. Deem and Ramdas Pophale) SiO2 
 PCOD9268519
Probable space group: C 2/C
;
_chemical_formula_sum "Si O2"
_cell_formula_units_Z 44
_cell_length_a 19.782202
_cell_length_b 13.388424
_cell_length_c 15.060122
_cell_angle_alpha 90.000000
_cell_angle_beta 154.267397
_cell_angle_gamma 90.000000
_cell_volume 1731.785687
_symmetry_space_group_name_H-M "C 2/C"
_symmetry_group_IT_number 15
_symmetry_cell_setting 'monoclinic'
loop_
_space_group_symop_operation_xyz
x,y,z
-x,y,1/2-z
-x,-y,-z
x,-y,1/2+z
1/2+x,1/2+y,z
1/2-x,1/2+y,1/2-z
1/2-x,1/2-y,-z
1/2+x,1/2-y,1/2+z
loop_
_atom_site_type_symbol
_atom_site_label
_atom_site_fract_x
_atom_site_fract_y
_atom_site_fract_z
Si Si1 0.000000 0.517778 0.250000
Si Si2 0.016087 0.105421 0.584805
Si Si3 0.955832 0.591350 0.881295
Si Si4 0.610131 0.430283 0.960473
Si Si5 0.287265 0.373279 0.020718
Si Si6 0.218058 0.266277 0.761343
O O1 0.000533 0.448373 0.337012
O O2 0.854389 0.591256 0.085093
O O3 0.986150 0.985519 0.571642
O O4 0.861601 0.172756 0.385767
O O5 0.160493 0.150820 0.699052
O O6 0.066387 0.140479 0.743734
O O7 0.774333 0.626478 0.670217
O O8 0.000000 0.500000 0.000000
O O9 0.067928 0.679535 0.043365
O O10 0.500000 0.387543 0.750000
O O11 0.685376 0.527693 0.004733
O O12 0.240549 0.293708 0.892308
#
# Coordination Sequence:
#
# PCOD9268519 Si02
#       6
#     4   8   8   8   8   8
#     4  10  20  34  58  84 116 148 200 238 290 336
#     4  10  20  32  53  84 118 152 183 232 290 352
#     4  11  19  37  59  85 114 158 193 239 292 344
#     4   8  16  34  55  82 114 147 185 235 292 339
#     4   9  18  31  52  84 116 149 180 229 295 345
#     4  11  21  34  57  83 120 153 188 233 291 355
#
# _framework density 25.407302000000001
#
# number of rings (size 3 to 8) (size 9 to 14) (size 15 to 20)
#    0.000    2.182    5.455    2.182    2.545    0.000 
#    0.000    0.909   12.000    1.091    0.000    0.000 
#    0.000    0.000    0.000    0.000    0.000    0.000 
#
# Total GULP energy -122519.677838 kJ/mol
# GULP energy per Si atom -5569.076265 kJ/mol
# Density = 2.534947 g / cm^3
# Si number density = 25.407302 Si / 1000 Ang^3
#
#
#
# Elastic Constant Matrix: (Units=GPa)
#
#
# Indices 1 2 3 4 5 6 
#
# 1 46.6206 -10.6950 -0.3416 0.0001 3.2968 0.0001
# 2 -10.6950 36.6116 13.5852 0.0002 -16.4171 0.0001
# 3 -0.3416 13.5852 157.7833 0.0002 -2.1882 0.0001
# 4 0.0001 0.0002 0.0002 -8.8462 0.0002 3.8307
# 5 3.2968 -16.4171 -2.1882 0.0002 36.8599 0.0001
# 6 0.0001 0.0001 0.0001 3.8307 0.0001 12.3690
#
#
#
# Elastic Compliance Matrix: (Units=1/GPa)
#
#
# Indices 1 2 3 4 5 6 
#
# 1 0.023082 0.007518 -0.000580 0.000000 0.001250 0.000000
# 2 0.007518 0.037796 -0.003016 0.000001 0.015983 -0.000001
# 3 -0.000580 -0.003016 0.006584 0.000000 -0.000901 0.000000
# 4 0.000000 0.000001 0.000000 -0.099676 0.000001 0.030870
# 5 0.001250 0.015983 -0.000901 0.000001 0.034083 -0.000001
# 6 0.000000 -0.000001 0.000000 0.030870 -0.000001 0.071287
#
#
# Mechanical properties :
#
#
# Convention : Reuss Voigt Hill
#
# Bulk Modulus (GPa) = 13.27925 27.34586 20.31255
# Shear Modulus (GPa) = 55.30125 23.97433 39.63779
#
# Velocity S-wave (km/s) = 4.67045 3.07514 3.95409
# Velocity P-wave (km/s) = 5.85851 4.83684 5.37201
#
# Compressibility (1/GPa) = 0.07530547
#
# Stress axis : x y z
#
# Youngs Moduli (GPa) = 43.32409 26.45781 151.88872
#
# Poissons Ratio (x) = -0.19892 0.08810
# Poissons Ratio (y) = -0.32572 0.45815
# Poissons Ratio (z) = 0.02513 0.07981
#
# Static dielectric constant tensor:
#      x y z
#    x 2.232560 0.000000 0.070720 
#    y 0.000000 2.063800 0.000000 
#    z 0.070720 0.000000 2.113370 
# 
# From -- ./inp_files/219916.got.cif
#   From: 2010.05.17/outbox.cif.g08.bks.cpg/sg15_110_cif.got.tgz:219916.got - 2010.06.03 18:47:42.
