data_PCOD9268998
_publ_section_title
;
Structure prediction by ZEFSAII (Michael W. Deem and Ramdas Pophale) SiO2 
 PCOD9268998
Probable space group: C 2/C
;
_chemical_formula_sum "Si O2"
_cell_formula_units_Z 48
_cell_length_a 8.576927
_cell_length_b 14.417707
_cell_length_c 29.811295
_cell_angle_alpha 90.000000
_cell_angle_beta 147.437111
_cell_angle_gamma 90.000000
_cell_volume 1984.141424
_symmetry_space_group_name_H-M "C 2/C"
_symmetry_group_IT_number 15
_symmetry_cell_setting 'monoclinic'
loop_
_space_group_symop_operation_xyz
x,y,z
-x,y,1/2-z
-x,-y,-z
x,-y,1/2+z
1/2+x,1/2+y,z
1/2-x,1/2+y,1/2-z
1/2-x,1/2-y,-z
1/2+x,1/2-y,1/2+z
loop_
_atom_site_type_symbol
_atom_site_label
_atom_site_fract_x
_atom_site_fract_y
_atom_site_fract_z
Si Si1 0.846940 0.522452 0.668137
Si Si2 0.259466 0.277141 0.383384
Si Si3 0.684674 0.056555 0.510548
Si Si4 0.229953 0.263934 0.931596
Si Si5 0.164573 0.490805 0.157443
Si Si6 0.188705 0.267448 0.152749
O O1 0.903052 0.633569 0.676054
O O2 0.503948 0.512997 0.585071
O O3 0.000000 0.488973 0.750000
O O4 0.990349 0.480665 0.659417
O O5 0.524568 0.315552 0.479361
O O6 0.411225 0.226891 0.377538
O O7 0.049934 0.229598 0.369375
O O8 0.709253 0.157533 0.538804
O O9 0.500000 0.000000 0.500000
O O10 0.496895 0.044368 0.420690
O O11 0.292516 0.270255 0.893802
O O12 0.500000 0.508365 0.250000
O O13 0.139818 0.379888 0.140089
O O14 0.500000 0.252022 0.250000
#
# Coordination Sequence:
#
# PCOD9268998 Si02
#       6
#     8   8   8   8   8   8
#     4  10  21  35  59  85 107 142 192 239 277 330
#     4   9  21  34  56  82 109 141 182 235 277 331
#     4  11  20  34  57  82 113 150 184 226 283 334
#     4  10  20  37  55  81 113 145 183 229 283 327
#     4  10  20  35  55  84 112 145 189 233 276 335
#     4  10  20  33  59  86 108 143 188 235 276 326
#
# _framework density 24.191822999999999
#
# number of rings (size 3 to 8) (size 9 to 14) (size 15 to 20)
#    0.000    2.000    1.667    2.000   11.667    0.000 
#    0.000    0.833    3.667    1.000    0.000    0.000 
#    0.000    0.000    0.000    0.000    0.000    0.000 
#
# Total GULP energy -134051.294101 kJ/mol
# GULP energy per Si atom -5585.470588 kJ/mol
# Density = 2.413676 g / cm^3
# Si number density = 24.191823 Si / 1000 Ang^3
#
#
#
# Elastic Constant Matrix: (Units=GPa)
#
#
# Indices 1 2 3 4 5 6 
#
# 1 235.0408 23.4279 65.8969 0.0000 -12.7468 0.0000
# 2 23.4279 46.3080 19.3294 0.0000 0.3420 0.0000
# 3 65.8969 19.3294 98.1843 -0.0002 -9.4295 0.0001
# 4 0.0000 0.0000 -0.0002 30.4347 0.0000 -2.1746
# 5 -12.7468 0.3420 -9.4295 0.0000 56.3843 0.0001
# 6 0.0000 0.0000 0.0001 -2.1746 0.0001 18.6691
#
#
#
# Elastic Compliance Matrix: (Units=1/GPa)
#
#
# Indices 1 2 3 4 5 6 
#
# 1 0.005337 -0.001348 -0.003252 0.000000 0.000671 0.000000
# 2 -0.001348 0.023917 -0.003910 0.000000 -0.001104 0.000000
# 3 -0.003252 -0.003910 0.013282 0.000000 0.001510 0.000000
# 4 0.000000 0.000000 0.000000 0.033133 0.000000 0.003859
# 5 0.000671 -0.001104 0.001510 0.000000 0.018146 0.000000
# 6 0.000000 0.000000 0.000000 0.003859 0.000000 0.054014
#
#
# Mechanical properties :
#
#
# Convention : Reuss Voigt Hill
#
# Bulk Modulus (GPa) = 39.19044 66.31573 52.75309
# Shear Modulus (GPa) = 28.84262 39.15621 33.99941
#
# Velocity S-wave (km/s) = 3.45664 4.02751 3.75295
# Velocity P-wave (km/s) = 5.67152 7.00712 6.37440
#
# Compressibility (1/GPa) = 0.02551643
#
# Stress axis : x y z
#
# Youngs Moduli (GPa) = 187.36731 41.81213 75.28707
#
# Poissons Ratio (x) = 0.05634 0.24486
# Poissons Ratio (y) = 0.25248 0.29437
# Poissons Ratio (z) = 0.60938 0.16348
#
# Static dielectric constant tensor:
#      x y z
#    x 1.957900 0.000000 0.029400 
#    y 0.000000 2.002860 0.000000 
#    z 0.029400 0.000000 1.840990 
# 
# From -- ./inp_files/79378.got.cif
#   From: 2010.05.17/outbox.cif.g08.bks.cpg/sg15_40_cif.got.tgz:79378.got - 2010.06.03 18:47:42.
