data_PCOD9268679
_publ_section_title
;
Structure prediction by ZEFSAII (Michael W. Deem and Ramdas Pophale) SiO2 
 PCOD9268679
Probable space group: C 2/C
;
_chemical_formula_sum "Si O2"
_cell_formula_units_Z 64
_cell_length_a 25.569984
_cell_length_b 15.678582
_cell_length_c 9.594030
_cell_angle_alpha 90.000000
_cell_angle_beta 73.812296
_cell_angle_gamma 90.000000
_cell_volume 3693.766602
_symmetry_space_group_name_H-M "C 2/C"
_symmetry_group_IT_number 15
_symmetry_cell_setting 'monoclinic'
loop_
_space_group_symop_operation_xyz
x,y,z
-x,y,1/2-z
-x,-y,-z
x,-y,1/2+z
1/2+x,1/2+y,z
1/2-x,1/2+y,1/2-z
1/2-x,1/2-y,-z
1/2+x,1/2-y,1/2+z
loop_
_atom_site_type_symbol
_atom_site_label
_atom_site_fract_x
_atom_site_fract_y
_atom_site_fract_z
Si Si1 0.628734 0.667400 0.118209
Si Si2 0.274342 0.441457 0.816891
Si Si3 0.324447 0.770431 0.855740
Si Si4 0.551051 0.383627 0.903540
Si Si5 0.266319 0.394872 0.504526
Si Si6 0.429003 0.422314 0.077612
Si Si7 0.202561 0.704958 0.444826
Si Si8 0.061293 0.210164 0.683314
O O1 0.675514 0.616118 0.165896
O O2 0.574936 0.662152 0.251159
O O3 0.617362 0.617020 0.984000
O O4 0.648785 0.761839 0.062980
O O5 0.274535 0.436982 0.649809
O O6 0.220442 0.392958 0.915970
O O7 0.275722 0.535245 0.879289
O O8 0.293074 0.849932 0.948014
O O9 0.302822 0.764676 0.712257
O O10 0.389585 0.772904 0.814665
O O11 0.306580 0.684609 0.949217
O O12 0.577676 0.477467 0.895482
O O13 0.486809 0.404072 0.958519
O O14 0.565356 0.325653 0.024822
O O15 0.432579 0.371792 0.219584
O O16 0.250000 0.750000 0.500000
O O17 0.000000 0.244286 0.750000
#
# Coordination Sequence:
#
# PCOD9268679 Si02
#       8
#     8   8   8   8   8   8   8   8
#     4  11  20  31  54  71 103 144 175 218 264 308
#     4  10  23  36  52  82 104 137 182 220 269 330
#     4  10  20  39  56  78 112 145 177 221 273 320
#     4  10  21  32  45  76 105 135 188 211 257 311
#     4  10  23  37  58  79 110 142 179 223 272 327
#     4  10  20  33  47  69 107 145 173 222 252 310
#     4   9  20  36  52  77 107 138 179 224 269 315
#     4  10  20  34  53  75 104 141 181 216 261 323
#
# _framework density 17.326487
#
# number of rings (size 3 to 8) (size 9 to 14) (size 15 to 20)
#    0.000    2.000    1.250    1.875    8.750    3.000 
#    0.000    0.000    0.000    0.000    0.000    5.250 
#    0.000    0.000    0.000    0.000    0.000    0.125 
#
# Total GULP energy -178481.418137 kJ/mol
# GULP energy per Si atom -5577.544317 kJ/mol
# Density = 1.728705 g / cm^3
# Si number density = 17.326487 Si / 1000 Ang^3
#
#
#
# Elastic Constant Matrix: (Units=GPa)
#
#
# Indices 1 2 3 4 5 6 
#
# 1 59.2170 3.7344 7.8906 0.0000 8.7330 0.0000
# 2 3.7344 34.0307 14.8534 0.0000 3.2536 0.0000
# 3 7.8906 14.8534 70.3803 0.0000 5.3442 0.0000
# 4 0.0000 0.0000 0.0000 21.5522 0.0000 -4.7056
# 5 8.7330 3.2536 5.3442 0.0000 23.2295 0.0000
# 6 0.0000 0.0000 0.0000 -4.7056 0.0000 14.6160
#
#
#
# Elastic Compliance Matrix: (Units=1/GPa)
#
#
# Indices 1 2 3 4 5 6 
#
# 1 0.018058 -0.000772 -0.001379 0.000000 -0.006364 0.000000
# 2 -0.000772 0.032608 -0.006586 0.000000 -0.002762 0.000000
# 3 -0.001379 -0.006586 0.015922 0.000000 -0.002222 0.000000
# 4 0.000000 0.000000 0.000000 0.049907 0.000000 0.016068
# 5 -0.006364 -0.002762 -0.002222 0.000000 0.046339 0.000000
# 6 0.000000 0.000000 0.000000 0.016068 0.000000 0.073591
#
#
# Mechanical properties :
#
#
# Convention : Reuss Voigt Hill
#
# Bulk Modulus (GPa) = 20.35972 24.06500 22.21236
# Shear Modulus (GPa) = 18.50008 21.02283 19.76145
#
# Velocity S-wave (km/s) = 3.27116 3.48707 3.38084
# Velocity P-wave (km/s) = 5.10328 5.48928 5.29980
#
# Compressibility (1/GPa) = 0.04911660
#
# Stress axis : x y z
#
# Youngs Moduli (GPa) = 55.37760 30.66694 62.80744
#
# Poissons Ratio (x) = 0.02366 0.08658
# Poissons Ratio (y) = 0.04273 0.41363
# Poissons Ratio (z) = 0.07634 0.20196
#
# Static dielectric constant tensor:
#      x y z
#    x 1.642710 0.000000 -0.016020 
#    y 0.000000 1.559370 0.000000 
#    z -0.016020 0.000000 1.608200 
# 
# From -- ./inp_files/66227.got.cif
#   From: 2010.05.17/outbox.cif.g08.bks.cpg/sg15_34_cif.got.tgz:66227.got - 2010.06.03 18:47:42.
