data_PCOD9268827
_publ_section_title
;
Structure prediction by ZEFSAII (Michael W. Deem and Ramdas Pophale) SiO2 
 PCOD9268827
Probable space group: C 2/C
;
_chemical_formula_sum "Si O2"
_cell_formula_units_Z 56
_cell_length_a 10.340796
_cell_length_b 30.088120
_cell_length_c 8.558173
_cell_angle_alpha 90.000000
_cell_angle_beta 68.497685
_cell_angle_gamma 90.000000
_cell_volume 2477.428184
_symmetry_space_group_name_H-M "C 2/C"
_symmetry_group_IT_number 15
_symmetry_cell_setting 'monoclinic'
loop_
_space_group_symop_operation_xyz
x,y,z
-x,y,1/2-z
-x,-y,-z
x,-y,1/2+z
1/2+x,1/2+y,z
1/2-x,1/2+y,1/2-z
1/2-x,1/2-y,-z
1/2+x,1/2-y,1/2+z
loop_
_atom_site_type_symbol
_atom_site_label
_atom_site_fract_x
_atom_site_fract_y
_atom_site_fract_z
Si Si1 0.565323 0.338439 0.397708
Si Si2 0.688331 0.702228 0.347511
Si Si3 0.534325 0.433426 0.410598
Si Si4 0.925723 0.642507 0.111279
Si Si5 0.606979 0.038153 0.396554
Si Si6 0.173389 0.303955 0.365520
Si Si7 0.221382 0.997029 0.925565
O O1 0.500000 0.333145 0.250000
O O2 0.473534 0.307352 0.547551
O O3 0.544094 0.386415 0.485539
O O4 0.726822 0.331637 0.292591
O O5 0.777607 0.667735 0.202802
O O6 0.762363 0.697927 0.486217
O O7 0.689176 0.753553 0.297967
O O8 0.500000 0.421988 0.250000
O O9 0.408360 0.463982 0.520760
O O10 0.676240 0.460396 0.345651
O O11 0.919522 0.590370 0.062606
O O12 0.000000 0.641439 0.250000
O O13 0.024544 0.672629 0.956551
O O14 0.650114 0.030304 0.198342
O O15 0.500000 0.000000 0.500000
O O16 0.744495 0.021392 0.428198
#
# Coordination Sequence:
#
# PCOD9268827 Si02
#       7
#     8   8   8   8   8   8   8
#     4   9  17  27  48  75 105 142 182 234 288 340
#     4   9  16  30  48  78 112 148 189 241 296 351
#     4  10  20  37  61  83 113 148 197 254 296 347
#     4  10  20  33  53  81 118 159 195 243 301 356
#     4  12  25  39  58  84 124 164 203 244 296 361
#     4   9  17  28  49  79 114 145 188 240 298 355
#     4  11  23  40  59  84 114 157 202 249 297 349
#
# _framework density 22.604085999999999
#
# number of rings (size 3 to 8) (size 9 to 14) (size 15 to 20)
#    0.000    2.000    1.429    3.000    2.000    5.714 
#    0.000    0.000    0.000    0.000    0.000    6.000 
#    0.000    0.000    0.000    0.000    0.000    0.000 
#
# Total GULP energy -155954.178939 kJ/mol
# GULP energy per Si atom -5569.792105 kJ/mol
# Density = 2.255264 g / cm^3
# Si number density = 22.604086 Si / 1000 Ang^3
#
#
#
# Elastic Constant Matrix: (Units=GPa)
#
#
# Indices 1 2 3 4 5 6 
#
# 1 30.2484 21.0122 23.1200 0.0000 -22.6218 0.0000
# 2 21.0122 117.0599 33.3215 0.0000 -12.3075 0.0000
# 3 23.1200 33.3215 60.6939 0.0000 -32.1892 0.0000
# 4 0.0000 0.0000 0.0000 32.5132 0.0000 -11.7219
# 5 -22.6218 -12.3075 -32.1892 0.0000 29.9725 0.0000
# 6 0.0000 0.0000 0.0000 -11.7219 0.0000 21.4949
#
#
#
# Elastic Compliance Matrix: (Units=1/GPa)
#
#
# Indices 1 2 3 4 5 6 
#
# 1 0.087184 -0.011404 0.012697 0.000000 0.074755 0.000000
# 2 -0.011404 0.011851 -0.009632 0.000000 -0.014086 0.000000
# 3 0.012697 -0.009632 0.046263 0.000000 0.055311 0.000000
# 4 0.000000 0.000000 0.000000 0.038284 0.000000 0.020877
# 5 0.074755 -0.014086 0.055311 0.000000 0.143403 0.000000
# 6 0.000000 0.000000 0.000000 0.020877 0.000000 0.057908
#
#
# Mechanical properties :
#
#
# Convention : Reuss Voigt Hill
#
# Bulk Modulus (GPa) = 7.77502 40.32329 24.04916
# Shear Modulus (GPa) = 11.25003 25.49935 18.37469
#
# Velocity S-wave (km/s) = 2.23334 3.36234 2.85422
# Velocity P-wave (km/s) = 3.17766 5.74034 4.63945
#
# Compressibility (1/GPa) = 0.12861696
#
# Stress axis : x y z
#
# Youngs Moduli (GPa) = 11.47006 84.38392 21.61578
#
# Poissons Ratio (x) = 0.96231 -0.27445
# Poissons Ratio (y) = 0.13080 0.20821
# Poissons Ratio (z) = -0.14563 0.81283
#
# Static dielectric constant tensor:
#      x y z
#    x 1.912510 0.000000 -0.022240 
#    y 0.000000 1.887960 0.000000 
#    z -0.022240 0.000000 1.807280 
# 
# From -- ./inp_files/35555.got.cif
#   From: 2010.05.17/outbox.cif.g08.bks.cpg/sg15_18_cif.got.tgz:35555.got - 2010.06.03 18:47:42.
