data_PCOD9268756
_publ_section_title
;
Structure prediction by ZEFSAII (Michael W. Deem and Ramdas Pophale) SiO2 
 PCOD9268756
Probable space group: C 2/C
;
_chemical_formula_sum "Si O2"
_cell_formula_units_Z 64
_cell_length_a 16.731350
_cell_length_b 13.906802
_cell_length_c 23.760402
_cell_angle_alpha 90.000000
_cell_angle_beta 27.240479
_cell_angle_gamma 90.000000
_cell_volume 2530.566713
_symmetry_space_group_name_H-M "C 2/C"
_symmetry_group_IT_number 15
_symmetry_cell_setting 'monoclinic'
loop_
_space_group_symop_operation_xyz
x,y,z
-x,y,1/2-z
-x,-y,-z
x,-y,1/2+z
1/2+x,1/2+y,z
1/2-x,1/2+y,1/2-z
1/2-x,1/2-y,-z
1/2+x,1/2-y,1/2+z
loop_
_atom_site_type_symbol
_atom_site_label
_atom_site_fract_x
_atom_site_fract_y
_atom_site_fract_z
Si Si1 0.604967 0.900976 0.929684
Si Si2 0.424862 0.274902 0.856440
Si Si3 0.094692 0.671015 0.845855
Si Si4 0.490775 0.483697 0.696882
Si Si5 0.612902 0.765793 0.756859
Si Si6 0.211191 0.486118 0.704719
Si Si7 0.425524 0.465395 0.475027
Si Si8 0.116152 0.251499 0.503430
O O1 0.799420 0.942354 0.801941
O O2 0.511592 0.834127 0.941576
O O3 0.567698 0.841223 0.010065
O O4 0.500000 0.000000 0.000000
O O5 0.500000 0.234260 0.750000
O O6 0.569247 0.248538 0.812998
O O7 0.401980 0.387328 0.860424
O O8 0.250000 0.250000 0.000000
O O9 0.253686 0.705126 0.786082
O O10 0.120524 0.569478 0.797329
O O11 0.500000 0.539084 0.750000
O O12 0.575858 0.534073 0.590807
O O13 0.629095 0.881352 0.752912
O O14 0.692486 0.740112 0.645374
O O15 0.428062 0.747663 0.902682
O O16 0.259090 0.511617 0.609965
O O17 0.402971 0.478264 0.612857
O O18 0.441415 0.354208 0.483328
#
# Coordination Sequence:
#
# PCOD9268756 Si02
#       8
#     8   8   8   8   8   8   8   8
#     4  11  23  39  64  97 131 172 224 282 337 399
#     4  11  25  41  60  89 128 180 223 258 325 408
#     4  11  20  35  59  81 122 163 205 260 326 379
#     4  11  24  42  63  92 138 178 223 272 339 424
#     4  10  20  33  51  85 121 152 197 255 325 376
#     4  10  20  33  55  92 119 160 206 276 324 383
#     4  10  20  35  58  88 125 165 215 262 337 385
#     4  10  20  34  56  88 123 158 206 273 322 383
#
# _framework density 25.290776999999999
#
# number of rings (size 3 to 8) (size 9 to 14) (size 15 to 20)
#    0.000    1.500    1.250    5.250    3.500    2.000 
#    0.000    0.000    0.000    0.750    0.000    0.000 
#    0.000    0.000    0.000    0.000    0.000    0.000 
#
# Total GULP energy -178616.834805 kJ/mol
# GULP energy per Si atom -5581.776088 kJ/mol
# Density = 2.523321 g / cm^3
# Si number density = 25.290777 Si / 1000 Ang^3
#
#
#
# Elastic Constant Matrix: (Units=GPa)
#
#
# Indices 1 2 3 4 5 6 
#
# 1 72.4645 9.0239 65.5014 0.0020 40.7408 -0.0005
# 2 9.0239 79.2942 11.6864 0.0029 9.4602 0.0006
# 3 65.5014 11.6864 188.4912 0.0026 40.9506 0.0003
# 4 0.0020 0.0029 0.0026 29.2451 0.0013 10.2739
# 5 40.7408 9.4602 40.9506 0.0013 62.5500 0.0017
# 6 -0.0005 0.0006 0.0003 10.2739 0.0017 12.1359
#
#
#
# Elastic Compliance Matrix: (Units=1/GPa)
#
#
# Indices 1 2 3 4 5 6 
#
# 1 0.027343 -0.000543 -0.006548 -0.000003 -0.013440 0.000005
# 2 -0.000543 0.012885 -0.000307 -0.000001 -0.001394 0.000001
# 3 -0.006548 -0.000307 0.007768 0.000000 -0.000774 0.000000
# 4 -0.000003 -0.000001 0.000000 0.048668 0.000002 -0.041201
# 5 -0.013440 -0.001394 -0.000774 0.000002 0.025459 -0.000006
# 6 0.000005 0.000001 0.000000 -0.041201 -0.000006 0.117279
#
#
# Mechanical properties :
#
#
# Convention : Reuss Voigt Hill
#
# Bulk Modulus (GPa) = 30.12207 56.96369 43.54288
# Shear Modulus (GPa) = 18.84913 37.72207 28.28560
#
# Velocity S-wave (km/s) = 2.73297 3.86623 3.34790
# Velocity P-wave (km/s) = 4.67921 6.51941 5.67440
#
# Compressibility (1/GPa) = 0.03319825
#
# Stress axis : x y z
#
# Youngs Moduli (GPa) = 36.57297 77.61171 128.73321
#
# Poissons Ratio (x) = 0.04215 0.84295
# Poissons Ratio (y) = 0.01986 0.03956
# Poissons Ratio (z) = 0.23948 0.02385
#
# Static dielectric constant tensor:
#      x y z
#    x 2.057820 0.000000 0.081540 
#    y 0.000000 1.943610 0.000010 
#    z 0.081540 0.000010 2.167350 
# 
# From -- ./inp_files/277630.got.cif
#   From: 2010.05.17/outbox.cif.g08.bks.cpg/sg15_139_cif.got.tgz:277630.got - 2010.06.03 18:47:42.
