data_PCOD9268301
_publ_section_title
;
Structure prediction by ZEFSAII (Michael W. Deem and Ramdas Pophale) SiO2 
 PCOD9268301
Probable space group: C 2/C
;
_chemical_formula_sum "Si O2"
_cell_formula_units_Z 44
_cell_length_a 30.103900
_cell_length_b 7.798713
_cell_length_c 12.641222
_cell_angle_alpha 90.000000
_cell_angle_beta 35.474389
_cell_angle_gamma 90.000000
_cell_volume 1722.330568
_symmetry_space_group_name_H-M "C 2/C"
_symmetry_group_IT_number 15
_symmetry_cell_setting 'monoclinic'
loop_
_space_group_symop_operation_xyz
x,y,z
-x,y,1/2-z
-x,-y,-z
x,-y,1/2+z
1/2+x,1/2+y,z
1/2-x,1/2+y,1/2-z
1/2-x,1/2-y,-z
1/2+x,1/2-y,1/2+z
loop_
_atom_site_type_symbol
_atom_site_label
_atom_site_fract_x
_atom_site_fract_y
_atom_site_fract_z
Si Si1 0.787944 0.100365 0.072463
Si Si2 0.136817 0.291768 0.764406
Si Si3 0.859399 0.080164 0.132401
Si Si4 0.519328 0.141214 0.828896
Si Si5 0.665707 0.256659 0.611897
Si Si6 0.500000 0.518378 0.250000
O O1 0.703805 0.093260 0.184506
O O2 0.788072 0.135826 0.197786
O O3 0.836387 0.231243 0.904410
O O4 0.824557 0.912829 0.987967
O O5 0.146694 0.114389 0.813523
O O6 0.052837 0.371076 0.950920
O O7 0.879697 0.186811 0.195192
O O8 0.929199 0.094600 0.917531
O O9 0.500000 0.065476 0.750000
O O10 0.609503 0.110096 0.677024
O O11 0.517339 0.348271 0.810453
O O12 0.750000 0.250000 0.500000
#
# Coordination Sequence:
#
# PCOD9268301 Si02
#       6
#     8   8   8   8   8   4
#     4  10  20  36  54  80 114 144 179 231 278 337
#     4   9  20  35  55  80 106 153 180 215 292 343
#     4  10  20  30  58  80 114 137 181 237 277 329
#     4   9  18  35  55  76 114 143 180 226 277 332
#     4  11  23  35  54  88 109 144 191 237 269 328
#     4   8  16  30  50  82  98 136 176 216 294 312
#
# _framework density 25.546782
#
# number of rings (size 3 to 8) (size 9 to 14) (size 15 to 20)
#    0.545    1.818    1.818    0.000    7.636    2.182 
#    0.000    0.909    0.000    0.000    2.364    0.000 
#    0.000    0.000    0.000    0.000    0.000    0.000 
#
# Total GULP energy -122638.047001 kJ/mol
# GULP energy per Si atom -5574.456682 kJ/mol
# Density = 2.548864 g / cm^3
# Si number density = 25.546782 Si / 1000 Ang^3
#
#
#
# Elastic Constant Matrix: (Units=GPa)
#
#
# Indices 1 2 3 4 5 6 
#
# 1 124.2603 15.8451 21.5835 0.0000 -4.9446 0.0000
# 2 15.8451 47.0367 16.5609 -0.0001 -7.3864 0.0001
# 3 21.5835 16.5609 89.4191 0.0000 -27.2479 0.0000
# 4 0.0000 -0.0001 0.0000 19.6078 0.0000 -7.7901
# 5 -4.9446 -7.3864 -27.2479 0.0000 44.9056 0.0000
# 6 0.0000 0.0001 0.0000 -7.7901 0.0000 17.9516
#
#
#
# Elastic Compliance Matrix: (Units=1/GPa)
#
#
# Indices 1 2 3 4 5 6 
#
# 1 0.008642 -0.002357 -0.001813 0.000000 -0.000536 0.000000
# 2 -0.002357 0.023464 -0.003288 0.000000 0.001605 0.000000
# 3 -0.001813 -0.003288 0.014727 0.000000 0.008196 0.000000
# 4 0.000000 0.000000 0.000000 0.061625 0.000000 0.026742
# 5 -0.000536 0.001605 0.008196 0.000000 0.027447 0.000000
# 6 0.000000 0.000000 0.000000 0.026742 0.000000 0.067310
#
#
# Mechanical properties :
#
#
# Convention : Reuss Voigt Hill
#
# Bulk Modulus (GPa) = 31.33044 40.96611 36.14827
# Shear Modulus (GPa) = 21.85619 30.27476 26.06548
#
# Velocity S-wave (km/s) = 2.92813 3.44622 3.19768
# Velocity P-wave (km/s) = 4.87057 5.64852 5.27391
#
# Compressibility (1/GPa) = 0.03191784
#
# Stress axis : x y z
#
# Youngs Moduli (GPa) = 115.71776 42.61929 67.90186
#
# Poissons Ratio (x) = 0.10046 0.12309
# Poissons Ratio (y) = 0.27275 0.22323
# Poissons Ratio (z) = 0.20976 0.14011
#
# Static dielectric constant tensor:
#      x y z
#    x 2.210280 0.000000 -0.084960 
#    y 0.000000 2.065090 0.000000 
#    z -0.084960 0.000000 2.093580 
# 
# From -- ./inp_files/122581.got.cif
#   From: 2010.05.17/outbox.cif.g08.bks.cpg/sg15_62_cif.got.tgz:122581.got - 2010.06.03 18:47:42.
