data_PCOD9268866
_publ_section_title
;
Structure prediction by ZEFSAII (Michael W. Deem and Ramdas Pophale) SiO2 
 PCOD9268866
Probable space group: C 2/C
;
_chemical_formula_sum "Si O2"
_cell_formula_units_Z 44
_cell_length_a 5.159930
_cell_length_b 22.765492
_cell_length_c 20.743212
_cell_angle_alpha 90.000000
_cell_angle_beta 88.262416
_cell_angle_gamma 90.000000
_cell_volume 2435.550369
_symmetry_space_group_name_H-M "C 2/C"
_symmetry_group_IT_number 15
_symmetry_cell_setting 'monoclinic'
loop_
_space_group_symop_operation_xyz
x,y,z
-x,y,1/2-z
-x,-y,-z
x,-y,1/2+z
1/2+x,1/2+y,z
1/2-x,1/2+y,1/2-z
1/2-x,1/2-y,-z
1/2+x,1/2-y,1/2+z
loop_
_atom_site_type_symbol
_atom_site_label
_atom_site_fract_x
_atom_site_fract_y
_atom_site_fract_z
Si Si1 0.276425 0.522734 0.417311
Si Si2 0.232240 0.575050 0.030224
Si Si3 0.000000 0.159873 0.750000
Si Si4 0.300202 0.827215 0.368723
Si Si5 0.278083 0.304662 0.452049
Si Si6 0.613826 0.931026 0.317078
O O1 0.533111 0.560851 0.423470
O O2 0.262385 0.473892 0.474060
O O3 0.240806 0.483993 0.354183
O O4 0.033453 0.564526 0.430856
O O5 0.232469 0.637006 0.994698
O O6 0.197670 0.191217 0.798102
O O7 0.174803 0.118359 0.703027
O O8 0.556939 0.799418 0.398432
O O9 0.389892 0.895909 0.358640
O O10 0.060157 0.814114 0.417715
O O11 0.250000 0.250000 0.500000
O O12 0.500000 0.951202 0.250000
#
# Coordination Sequence:
#
# PCOD9268866 Si02
#       6
#     8   8   4   8   8   8
#     4  10  20  33  54  82 117 143 181 226 281 356
#     4  10  21  33  54  81 112 154 180 222 285 334
#     4  10  20  36  60  86 120 146 182 244 302 342
#     4  11  21  37  57  88 119 142 193 237 296 349
#     4  12  24  39  58  85 120 156 198 245 288 342
#     4  10  21  33  58  88 120 147 184 240 302 347
#
# _framework density 18.065733000000002
#
# number of rings (size 3 to 8) (size 9 to 14) (size 15 to 20)
#    0.000    1.455    3.636    1.636   10.182    0.000 
#    0.000    0.000    0.000    0.000   14.182    0.000 
#    0.000    0.000    0.000    0.000    0.000    0.000 
#
# Total GULP energy -122689.739322 kJ/mol
# GULP energy per Si atom -5576.806333 kJ/mol
# Density = 1.802461 g / cm^3
# Si number density = 18.065733 Si / 1000 Ang^3
#
#
#
# Elastic Constant Matrix: (Units=GPa)
#
#
# Indices 1 2 3 4 5 6 
#
# 1 120.9715 35.6824 33.6561 0.0000 11.0815 0.0000
# 2 35.6824 35.3282 7.2397 0.0000 -7.7282 0.0000
# 3 33.6561 7.2397 61.6774 0.0000 15.4706 0.0000
# 4 0.0000 0.0000 0.0000 27.3827 0.0000 3.5118
# 5 11.0815 -7.7282 15.4706 0.0000 39.8389 0.0000
# 6 0.0000 0.0000 0.0000 3.5118 0.0000 10.7967
#
#
#
# Elastic Compliance Matrix: (Units=1/GPa)
#
#
# Indices 1 2 3 4 5 6 
#
# 1 0.014392 -0.014611 -0.004900 0.000000 -0.004934 0.000000
# 2 -0.014611 0.046137 -0.000783 0.000000 0.013318 0.000000
# 3 -0.004900 -0.000783 0.020691 0.000000 -0.006824 0.000000
# 4 0.000000 0.000000 0.000000 0.038109 0.000000 -0.012395
# 5 -0.004934 0.013318 -0.006824 0.000000 0.031707 0.000000
# 6 0.000000 0.000000 0.000000 -0.012395 0.000000 0.096652
#
#
# Mechanical properties :
#
#
# Convention : Reuss Voigt Hill
#
# Bulk Modulus (GPa) = 24.61210 41.23707 32.92458
# Shear Modulus (GPa) = 16.56608 25.03026 20.79817
#
# Velocity S-wave (km/s) = 3.03147 3.72628 3.39669
# Velocity P-wave (km/s) = 5.08982 6.43345 5.80067
#
# Compressibility (1/GPa) = 0.04063042
#
# Stress axis : x y z
#
# Youngs Moduli (GPa) = 69.48534 21.67438 48.33015
#
# Poissons Ratio (x) = 0.31668 0.23684
# Poissons Ratio (y) = 1.01525 0.03786
# Poissons Ratio (z) = 0.34051 0.01698
#
# Static dielectric constant tensor:
#      x y z
#    x 1.676610 0.000000 0.022700 
#    y 0.000000 1.575160 0.000000 
#    z 0.022700 0.000000 1.643390 
# 
# From -- ./inp_files/227173.got.cif
#   From: 2010.05.17/outbox.cif.g08.bks.cpg/sg15_114_cif.got.tgz:227173.got - 2010.06.03 18:47:42.
