data_PCOD9268615
_publ_section_title
;
Structure prediction by ZEFSAII (Michael W. Deem and Ramdas Pophale) SiO2 
 PCOD9268615
Probable space group: C 2/C
;
_chemical_formula_sum "Si O2"
_cell_formula_units_Z 64
_cell_length_a 27.186274
_cell_length_b 9.145846
_cell_length_c 22.633749
_cell_angle_alpha 90.000000
_cell_angle_beta 150.589796
_cell_angle_gamma 90.000000
_cell_volume 2763.526662
_symmetry_space_group_name_H-M "C 2/C"
_symmetry_group_IT_number 15
_symmetry_cell_setting 'monoclinic'
loop_
_space_group_symop_operation_xyz
x,y,z
-x,y,1/2-z
-x,-y,-z
x,-y,1/2+z
1/2+x,1/2+y,z
1/2-x,1/2+y,1/2-z
1/2-x,1/2-y,-z
1/2+x,1/2-y,1/2+z
loop_
_atom_site_type_symbol
_atom_site_label
_atom_site_fract_x
_atom_site_fract_y
_atom_site_fract_z
Si Si1 0.654394 0.991274 0.550425
Si Si2 0.025248 0.749348 0.041591
Si Si3 0.866912 0.737335 0.123677
Si Si4 0.303921 0.948207 0.030389
Si Si5 0.893977 0.124700 0.108709
Si Si6 0.979803 0.754896 0.122633
Si Si7 0.861297 0.854257 0.443626
Si Si8 0.346428 0.954543 0.320104
O O1 0.722380 0.997744 0.563832
O O2 0.637508 0.821353 0.545399
O O3 0.557125 0.087776 0.431097
O O4 0.691855 0.052151 0.651857
O O5 0.077358 0.865136 0.052903
O O6 0.104042 0.614943 0.138450
O O7 0.984422 0.814197 0.060654
O O8 0.935260 0.665604 0.912647
O O9 0.882378 0.562167 0.138719
O O10 0.910128 0.794364 0.106515
O O11 0.915431 0.783751 0.235615
O O12 0.750000 0.750000 0.000000
O O13 0.359801 0.793946 0.082552
O O14 0.202712 0.948308 0.962195
O O15 0.000000 0.097613 0.250000
O O16 0.903725 0.088533 0.049706
O O17 0.748429 0.914704 0.318748
#
# Coordination Sequence:
#
# PCOD9268615 Si02
#       8
#     8   8   8   8   8   8   8   8
#     4   8  17  35  54  83 114 145 195 247 294 345
#     4   9  19  34  55  84 112 157 190 249 290 352
#     4  10  21  36  58  87 116 154 199 251 299 357
#     4   9  20  36  58  84 113 158 198 248 299 361
#     4  10  22  37  57  89 120 157 197 246 314 360
#     4   9  19  35  58  83 112 150 205 242 292 354
#     4  10  20  32  58  88 116 152 196 250 300 356
#     4   9  18  34  55  83 117 146 199 244 296 354
#
# _framework density 23.158812999999999
#
# number of rings (size 3 to 8) (size 9 to 14) (size 15 to 20)
#    0.000    2.750    0.000    0.750    7.000    6.000 
#    2.250    0.000    0.000    3.750    0.000    0.000 
#    0.000    0.000    0.000    0.000    0.000    0.000 
#
# Total GULP energy -178375.027139 kJ/mol
# GULP energy per Si atom -5574.219598 kJ/mol
# Density = 2.310610 g / cm^3
# Si number density = 23.158813 Si / 1000 Ang^3
#
#
#
# Elastic Constant Matrix: (Units=GPa)
#
#
# Indices 1 2 3 4 5 6 
#
# 1 131.8697 17.4175 45.0530 0.0000 -11.2198 0.0000
# 2 17.4175 65.4298 24.2589 0.0000 2.7365 0.0000
# 3 45.0530 24.2589 141.6119 0.0000 -12.5632 0.0000
# 4 0.0000 0.0000 0.0000 4.9759 0.0000 -1.2058
# 5 -11.2198 2.7365 -12.5632 0.0000 25.9059 0.0000
# 6 0.0000 0.0000 0.0000 -1.2058 0.0000 33.4619
#
#
#
# Elastic Compliance Matrix: (Units=1/GPa)
#
#
# Indices 1 2 3 4 5 6 
#
# 1 0.008820 -0.001627 -0.002271 0.000000 0.002890 0.000000
# 2 -0.001627 0.016881 -0.002712 0.000000 -0.003803 0.000000
# 3 -0.002271 -0.002712 0.008555 0.000000 0.003452 0.000000
# 4 0.000000 0.000000 0.000000 0.202740 0.000000 0.007305
# 5 0.002890 -0.003803 0.003452 0.000000 0.041929 0.000000
# 6 0.000000 0.000000 0.000000 0.007305 0.000000 0.030148
#
#
# Mechanical properties :
#
#
# Convention : Reuss Voigt Hill
#
# Bulk Modulus (GPa) = 47.53520 56.93002 52.23261
# Shear Modulus (GPa) = 15.18359 29.68089 22.43224
#
# Velocity S-wave (km/s) = 2.56330 3.58386 3.11565
# Velocity P-wave (km/s) = 5.41581 6.46229 5.96206
#
# Compressibility (1/GPa) = 0.02103704
#
# Stress axis : x y z
#
# Youngs Moduli (GPa) = 113.38025 59.23817 116.89422
#
# Poissons Ratio (x) = 0.09637 0.26545
# Poissons Ratio (y) = 0.18445 0.31697
# Poissons Ratio (z) = 0.25747 0.16063
#
# Static dielectric constant tensor:
#      x y z
#    x 1.916600 0.000000 0.001120 
#    y 0.000000 1.997510 0.000000 
#    z 0.001120 0.000000 1.823130 
# 
# From -- ./inp_files/257528.got.cif
#   From: 2010.05.17/outbox.cif.g08.bks.cpg/sg15_129_cif.got.tgz:257528.got - 2010.06.03 18:47:42.
