data_PCOD9268459
_publ_section_title
;
Structure prediction by ZEFSAII (Michael W. Deem and Ramdas Pophale) SiO2 
 PCOD9268459
Probable space group: C 2/C
;
_chemical_formula_sum "Si O2"
_cell_formula_units_Z 52
_cell_length_a 6.157352
_cell_length_b 31.907970
_cell_length_c 15.295214
_cell_angle_alpha 90.000000
_cell_angle_beta 72.593060
_cell_angle_gamma 90.000000
_cell_volume 2867.411303
_symmetry_space_group_name_H-M "C 2/C"
_symmetry_group_IT_number 15
_symmetry_cell_setting 'monoclinic'
loop_
_space_group_symop_operation_xyz
x,y,z
-x,y,1/2-z
-x,-y,-z
x,-y,1/2+z
1/2+x,1/2+y,z
1/2-x,1/2+y,1/2-z
1/2-x,1/2-y,-z
1/2+x,1/2-y,1/2+z
loop_
_atom_site_type_symbol
_atom_site_label
_atom_site_fract_x
_atom_site_fract_y
_atom_site_fract_z
Si Si1 0.269364 0.542329 0.810411
Si Si2 0.439877 0.783428 0.504998
Si Si3 0.638755 0.001188 0.074052
Si Si4 0.304885 0.652775 0.568324
Si Si5 0.574519 0.273646 0.139060
Si Si6 0.000000 0.388140 0.250000
Si Si7 0.453626 0.566142 0.976285
O O1 0.500000 0.521595 0.750000
O O2 0.326920 0.560432 0.898963
O O3 0.059577 0.510852 0.836240
O O4 0.200480 0.581847 0.760168
O O5 0.250000 0.750000 0.500000
O O6 0.318264 0.827424 0.501174
O O7 0.512098 0.769061 0.593438
O O8 0.657921 0.779966 0.414298
O O9 0.824278 0.963900 0.051498
O O10 0.500000 0.000000 0.000000
O O11 0.778390 0.044290 0.064876
O O12 0.446765 0.688106 0.604276
O O13 0.462868 0.613452 0.524389
O O14 0.107355 0.637703 0.658243
O O15 0.500000 0.273022 0.250000
#
# Coordination Sequence:
#
# PCOD9268459 Si02
#       7
#     8   8   8   8   8   4   8
#     4  11  19  31  47  75 117 146 196 235 293 361
#     4   9  21  38  53  84 126 150 194 236 289 362
#     4   9  19  34  48  69 112 148 186 235 283 351
#     4  11  21  31  53  83 122 151 190 243 295 351
#     4  10  21  37  59  84 125 159 190 234 299 362
#     4  12  22  30  50  88 122 154 182 240 306 354
#     4  10  20  32  50  76 113 147 197 233 294 345
#
# _framework density 18.134824999999999
#
# number of rings (size 3 to 8) (size 9 to 14) (size 15 to 20)
#    0.000    1.846    3.077    0.923    4.308    1.846 
#    0.000    0.000    0.000    0.000    0.000    0.000 
#  466.154    0.000    0.000    0.000    0.000    0.000 
#
# Total GULP energy -144866.282151 kJ/mol
# GULP energy per Si atom -5571.780083 kJ/mol
# Density = 1.809355 g / cm^3
# Si number density = 18.134825 Si / 1000 Ang^3
#
#
#
# Elastic Constant Matrix: (Units=GPa)
#
#
# Indices 1 2 3 4 5 6 
#
# 1 104.8459 49.0899 41.7514 0.0000 -12.5904 0.0000
# 2 49.0899 112.6167 55.8635 0.0000 -5.4005 0.0000
# 3 41.7514 55.8635 65.3021 0.0000 -8.5214 0.0000
# 4 0.0000 0.0000 0.0000 17.7778 0.0000 -17.1008
# 5 -12.5904 -5.4005 -8.5214 0.0000 42.9511 0.0000
# 6 0.0000 0.0000 0.0000 -17.1008 0.0000 -5.2589
#
#
#
# Elastic Compliance Matrix: (Units=1/GPa)
#
#
# Indices 1 2 3 4 5 6 
#
# 1 0.013507 -0.002857 -0.005874 0.000000 0.002435 0.000000
# 2 -0.002857 0.016050 -0.012062 0.000000 -0.001213 0.000000
# 3 -0.005874 -0.012062 0.029735 0.000000 0.002661 0.000000
# 4 0.000000 0.000000 0.000000 0.013627 0.000000 -0.044311
# 5 0.002435 -0.001213 0.002661 0.000000 0.024371 0.000000
# 6 0.000000 0.000000 0.000000 -0.044311 0.000000 -0.046065
#
#
# Mechanical properties :
#
#
# Convention : Reuss Voigt Hill
#
# Bulk Modulus (GPa) = 56.47785 64.01937 60.24861
# Shear Modulus (GPa) = 50.65190 20.16465 35.40828
#
# Velocity S-wave (km/s) = 5.29069 3.33818 4.42351
# Velocity P-wave (km/s) = 8.27845 7.08777 7.70614
#
# Compressibility (1/GPa) = 0.01770606
#
# Stress axis : x y z
#
# Youngs Moduli (GPa) = 74.03543 62.30411 33.63091
#
# Poissons Ratio (x) = 0.17802 0.19754
# Poissons Ratio (y) = 0.21154 0.40565
# Poissons Ratio (z) = 0.43487 0.75150
#
# Static dielectric constant tensor:
#      x y z
#    x 1.654410 0.000000 0.023830 
#    y 0.000000 1.635070 0.000000 
#    z 0.023830 0.000000 2.002370 
# 
# From -- ./inp_files/130686.got.cif
#   From: 2010.05.17/outbox.cif.g08.bks.cpg/sg15_66_cif.got.tgz:130686.got - 2010.06.03 18:47:42.
