data_PCOD9268976
_publ_section_title
;
Structure prediction by ZEFSAII (Michael W. Deem and Ramdas Pophale) SiO2 
 PCOD9268976
Probable space group: C 2/C
;
_chemical_formula_sum "Si O2"
_cell_formula_units_Z 64
_cell_length_a 14.711907
_cell_length_b 13.779191
_cell_length_c 26.751609
_cell_angle_alpha 90.000000
_cell_angle_beta 141.434744
_cell_angle_gamma 90.000000
_cell_volume 3380.751720
_symmetry_space_group_name_H-M "C 2/C"
_symmetry_group_IT_number 15
_symmetry_cell_setting 'monoclinic'
loop_
_space_group_symop_operation_xyz
x,y,z
-x,y,1/2-z
-x,-y,-z
x,-y,1/2+z
1/2+x,1/2+y,z
1/2-x,1/2+y,1/2-z
1/2-x,1/2-y,-z
1/2+x,1/2-y,1/2+z
loop_
_atom_site_type_symbol
_atom_site_label
_atom_site_fract_x
_atom_site_fract_y
_atom_site_fract_z
Si Si1 0.208509 0.023110 0.626675
Si Si2 0.576829 0.617292 0.229353
Si Si3 0.983669 0.144504 0.033918
Si Si4 0.601661 0.954815 0.621289
Si Si5 0.812339 0.909389 0.550384
Si Si6 0.075592 0.661064 0.728183
Si Si7 0.024428 0.641374 0.985817
Si Si8 0.111345 0.499067 0.891843
O O1 0.107756 0.097002 0.551044
O O2 0.291101 0.086589 0.704086
O O3 0.324668 0.980835 0.635645
O O4 0.107772 0.934108 0.600544
O O5 0.500000 0.622706 0.250000
O O6 0.728991 0.563211 0.298134
O O7 0.455831 0.566961 0.143142
O O8 0.606508 0.729237 0.225218
O O9 0.872722 0.157927 0.032206
O O10 0.037997 0.251100 0.044791
O O11 0.540756 0.887286 0.550744
O O12 0.568100 0.061930 0.584559
O O13 0.515284 0.938666 0.636021
O O14 0.688126 0.866852 0.532948
O O15 0.740180 0.996575 0.487872
O O16 0.000000 0.668170 0.750000
O O17 0.959619 0.606836 0.643353
#
# Coordination Sequence:
#
# PCOD9268976 Si02
#       8
#     8   8   8   8   8   8   8   8
#     4   9  19  36  54  83 109 141 180 231 268 322
#     4  11  21  33  55  83 112 140 181 233 275 318
#     4  10  20  33  58  82 110 139 184 227 275 321
#     4  10  21  35  53  81 111 148 178 219 272 329
#     4  10  21  32  55  84 109 137 181 234 277 322
#     4   9  19  33  55  80 108 138 175 229 281 311
#     4  10  20  36  56  79 114 145 179 222 275 327
#     4   9  20  36  54  78 110 146 183 216 274 326
#
# _framework density 18.930702
#
# number of rings (size 3 to 8) (size 9 to 14) (size 15 to 20)
#    0.000    2.250    1.250    1.125   10.500    0.000 
#    0.000    0.625    0.000    6.750    0.000    0.000 
#    0.000    0.000    0.000    0.000    0.000    0.000 
#
# Total GULP energy -178321.029988 kJ/mol
# GULP energy per Si atom -5572.532187 kJ/mol
# Density = 1.888761 g / cm^3
# Si number density = 18.930702 Si / 1000 Ang^3
#
#
#
# Elastic Constant Matrix: (Units=GPa)
#
#
# Indices 1 2 3 4 5 6 
#
# 1 76.5242 27.0748 11.9941 0.0000 10.4150 0.0000
# 2 27.0748 74.4506 35.0629 0.0000 19.5950 0.0000
# 3 11.9941 35.0629 99.3674 0.0000 23.3163 0.0000
# 4 0.0000 0.0000 0.0000 7.9168 0.0000 2.8008
# 5 10.4150 19.5950 23.3163 0.0000 26.5152 0.0000
# 6 0.0000 0.0000 0.0000 2.8008 0.0000 12.3829
#
#
#
# Elastic Compliance Matrix: (Units=1/GPa)
#
#
# Indices 1 2 3 4 5 6 
#
# 1 0.015139 -0.005071 0.000602 0.000000 -0.002729 0.000000
# 2 -0.005071 0.019576 -0.004244 0.000000 -0.008743 0.000000
# 3 0.000602 -0.004244 0.013618 0.000000 -0.009075 0.000000
# 4 0.000000 0.000000 0.000000 0.137300 0.000000 -0.031055
# 5 -0.002729 -0.008743 -0.009075 0.000000 0.053228 0.000000
# 6 0.000000 0.000000 0.000000 -0.031055 0.000000 0.087781
#
#
# Mechanical properties :
#
#
# Convention : Reuss Voigt Hill
#
# Bulk Modulus (GPa) = 32.35476 44.28952 38.32214
# Shear Modulus (GPa) = 14.10963 21.11034 17.60998
#
# Velocity S-wave (km/s) = 2.73304 3.34299 3.05328
# Velocity P-wave (km/s) = 5.20457 6.19251 5.71991
#
# Compressibility (1/GPa) = 0.03090735
#
# Stress axis : x y z
#
# Youngs Moduli (GPa) = 66.05516 51.08406 73.43232
#
# Poissons Ratio (x) = 0.25904 -0.04422
# Poissons Ratio (y) = 0.33496 0.31164
# Poissons Ratio (z) = -0.03978 0.21679
#
# Static dielectric constant tensor:
#      x y z
#    x 1.702050 0.000000 -0.014910 
#    y 0.000000 1.644730 0.000000 
#    z -0.014910 0.000000 1.703970 
# 
# From -- ./inp_files/296434.got.cif
#   From: 2010.05.17/outbox.cif.g08.bks.cpg/sg15_149_cif.got.tgz:296434.got - 2010.06.03 18:47:42.
