data_PCOD9268008
_publ_section_title
;
Structure prediction by ZEFSAII (Michael W. Deem and Ramdas Pophale) SiO2 
 PCOD9268008
Probable space group: C 2/C
;
_chemical_formula_sum "Si O2"
_cell_formula_units_Z 56
_cell_length_a 16.261048
_cell_length_b 15.303598
_cell_length_c 12.062441
_cell_angle_alpha 90.000000
_cell_angle_beta 114.669413
_cell_angle_gamma 90.000000
_cell_volume 2727.801009
_symmetry_space_group_name_H-M "C 2/C"
_symmetry_group_IT_number 15
_symmetry_cell_setting 'monoclinic'
loop_
_space_group_symop_operation_xyz
x,y,z
-x,y,1/2-z
-x,-y,-z
x,-y,1/2+z
1/2+x,1/2+y,z
1/2-x,1/2+y,1/2-z
1/2-x,1/2-y,-z
1/2+x,1/2-y,1/2+z
loop_
_atom_site_type_symbol
_atom_site_label
_atom_site_fract_x
_atom_site_fract_y
_atom_site_fract_z
Si Si1 0.680522 0.600842 0.715837
Si Si2 0.642005 0.958658 0.057953
Si Si3 0.642650 0.232430 0.321966
Si Si4 0.092227 0.921100 0.731510
Si Si5 0.786069 0.039349 0.004402
Si Si6 0.530824 0.924760 0.660073
Si Si7 0.344584 0.651980 0.462102
O O1 0.772536 0.589686 0.839971
O O2 0.641024 0.691944 0.729835
O O3 0.611779 0.520946 0.702610
O O4 0.706161 0.593233 0.602655
O O5 0.601292 0.023538 0.125196
O O6 0.557501 0.905009 0.963744
O O7 0.685399 0.012091 0.981019
O O8 0.579492 0.157060 0.241501
O O9 0.617938 0.282013 0.423203
O O10 0.742519 0.188687 0.387028
O O11 0.105793 0.861637 0.628958
O O12 0.000000 0.912173 0.750000
O O13 0.171082 0.910320 0.867407
O O14 0.836619 0.946023 0.009629
O O15 0.500000 0.980134 0.750000
#
# Coordination Sequence:
#
# PCOD9268008 Si02
#       7
#     8   8   8   8   8   8   8
#     4  10  21  37  63  91 121 167 209 256 319 381
#     4  10  20  40  62  89 124 167 211 266 306 380
#     4  11  21  39  60  94 123 163 209 267 320 373
#     4  10  21  39  60  90 125 165 214 258 307 384
#     4  10  19  41  66  87 117 172 217 248 311 395
#     4  11  23  36  61  94 126 158 215 266 316 366
#     4  10  21  37  64  87 125 171 207 257 320 373
#
# _framework density 20.529357000000001
#
# number of rings (size 3 to 8) (size 9 to 14) (size 15 to 20)
#    0.000    1.714    2.857    4.286    2.000    2.857 
#    2.571    2.857    0.000    0.857    0.000    0.000 
#    0.000    0.000    0.000    0.000    0.000    0.000 
#
# Total GULP energy -156256.764282 kJ/mol
# GULP energy per Si atom -5580.598724 kJ/mol
# Density = 2.048263 g / cm^3
# Si number density = 20.529357 Si / 1000 Ang^3
#
#
#
# Elastic Constant Matrix: (Units=GPa)
#
#
# Indices 1 2 3 4 5 6 
#
# 1 107.0734 19.9525 36.7963 0.0000 -23.9218 0.0000
# 2 19.9525 50.2921 40.4521 0.0000 -8.0348 0.0000
# 3 36.7963 40.4521 94.2501 0.0000 -31.1390 0.0000
# 4 0.0000 0.0000 0.0000 35.7510 0.0000 -6.1282
# 5 -23.9218 -8.0348 -31.1390 0.0000 43.0399 0.0000
# 6 0.0000 0.0000 0.0000 -6.1282 0.0000 15.2994
#
#
#
# Elastic Compliance Matrix: (Units=1/GPa)
#
#
# Indices 1 2 3 4 5 6 
#
# 1 0.011451 -0.002169 -0.002064 0.000000 0.004466 0.000000
# 2 -0.002169 0.031600 -0.014672 0.000000 -0.005922 0.000000
# 3 -0.002064 -0.014672 0.021590 0.000000 0.011734 0.000000
# 4 0.000000 0.000000 0.000000 0.030033 0.000000 0.012030
# 5 0.004466 -0.005922 0.011734 0.000000 0.033101 0.000000
# 6 0.000000 0.000000 0.000000 0.012030 0.000000 0.070180
#
#
# Mechanical properties :
#
#
# Convention : Reuss Voigt Hill
#
# Bulk Modulus (GPa) = 37.27208 49.55748 43.41478
# Shear Modulus (GPa) = 20.43246 29.11239 24.77242
#
# Velocity S-wave (km/s) = 3.15823 3.76983 3.47750
# Velocity P-wave (km/s) = 5.61196 6.56819 6.10881
#
# Compressibility (1/GPa) = 0.02682973
#
# Stress axis : x y z
#
# Youngs Moduli (GPa) = 87.33103 31.64568 46.31806
#
# Poissons Ratio (x) = 0.06865 0.09559
# Poissons Ratio (y) = 0.18945 0.67959
# Poissons Ratio (z) = 0.18024 0.46431
#
# Static dielectric constant tensor:
#      x y z
#    x 1.796460 0.000000 0.010920 
#    y 0.000000 1.721870 0.000000 
#    z 0.010920 0.000000 1.762290 
# 
# From -- ./inp_files/105795.got.cif
#   From: 2010.05.17/outbox.cif.g08.bks.cpg/sg15_53_cif.got.tgz:105795.got - 2010.06.03 18:47:42.
