data_PCOD9268297
_publ_section_title
;
Structure prediction by ZEFSAII (Michael W. Deem and Ramdas Pophale) SiO2 
 PCOD9268297
Probable space group: C 2/C
;
_chemical_formula_sum "Si O2"
_cell_formula_units_Z 40
_cell_length_a 17.879942
_cell_length_b 19.681700
_cell_length_c 10.479434
_cell_angle_alpha 90.000000
_cell_angle_beta 149.294126
_cell_angle_gamma 90.000000
_cell_volume 1883.101697
_symmetry_space_group_name_H-M "C 2/C"
_symmetry_group_IT_number 15
_symmetry_cell_setting 'monoclinic'
loop_
_space_group_symop_operation_xyz
x,y,z
-x,y,1/2-z
-x,-y,-z
x,-y,1/2+z
1/2+x,1/2+y,z
1/2-x,1/2+y,1/2-z
1/2-x,1/2-y,-z
1/2+x,1/2-y,1/2+z
loop_
_atom_site_type_symbol
_atom_site_label
_atom_site_fract_x
_atom_site_fract_y
_atom_site_fract_z
Si Si1 0.328457 0.818784 0.373711
Si Si2 0.665848 0.114970 0.052745
Si Si3 0.402718 0.234483 0.361263
Si Si4 0.379449 0.673396 0.156550
Si Si5 0.595495 0.025178 0.518600
O O1 0.491389 0.789407 0.597224
O O2 0.336918 0.900119 0.369990
O O3 0.229443 0.788964 0.343045
O O4 0.235218 0.796223 0.112334
O O5 0.783894 0.135066 0.120507
O O6 0.500000 0.115901 0.750000
O O7 0.660973 0.167884 0.162186
O O8 0.699967 0.038859 0.148568
O O9 0.518610 0.271220 0.626037
O O10 0.500000 0.631830 0.250000
O O11 0.500000 0.030889 0.250000
O O12 0.500000 0.000000 0.500000
#
# Coordination Sequence:
#
# PCOD9268297 Si02
#       5
#     8   8   8   8   8
#     4  11  20  34  54  89 117 154 198 247 299 351
#     4  11  18  32  56  83 114 153 197 249 288 343
#     4  11  19  30  58  86 120 151 198 247 301 344
#     4  10  20  30  54  91 123 149 195 252 303 345
#     4  11  23  40  64  90 118 159 205 248 296 358
#
# _framework density 21.241551999999999
#
# number of rings (size 3 to 8) (size 9 to 14) (size 15 to 20)
#    0.000    1.200    6.000    3.600    0.000    0.000 
#    0.000    5.000    0.000    0.000    0.000    0.000 
#    0.000    0.000    0.000    0.000    0.000    0.000 
#
# Total GULP energy -111548.534445 kJ/mol
# GULP energy per Si atom -5577.426722 kJ/mol
# Density = 2.119321 g / cm^3
# Si number density = 21.241552 Si / 1000 Ang^3
#
#
#
# Elastic Constant Matrix: (Units=GPa)
#
#
# Indices 1 2 3 4 5 6 
#
# 1 154.4302 50.5550 39.8858 0.0000 47.9062 0.0000
# 2 50.5550 150.9259 31.8311 0.0000 33.3808 0.0000
# 3 39.8858 31.8311 84.9518 0.0000 24.7640 0.0000
# 4 0.0000 0.0000 0.0000 14.9559 0.0000 7.8810
# 5 47.9062 33.3808 24.7640 0.0000 50.3998 0.0000
# 6 0.0000 0.0000 0.0000 7.8810 0.0000 16.5399
#
#
#
# Elastic Compliance Matrix: (Units=1/GPa)
#
#
# Indices 1 2 3 4 5 6 
#
# 1 0.009676 -0.001184 -0.001922 0.000000 -0.007469 0.000000
# 2 -0.001184 0.008110 -0.001453 0.000000 -0.003532 0.000000
# 3 -0.001922 -0.001453 0.014479 0.000000 -0.004325 0.000000
# 4 0.000000 0.000000 0.000000 0.089280 0.000000 -0.042541
# 5 -0.007469 -0.003532 -0.004325 0.000000 0.031405 0.000000
# 6 0.000000 0.000000 0.000000 -0.042541 0.000000 0.080730
#
#
# Mechanical properties :
#
#
# Convention : Reuss Voigt Hill
#
# Bulk Modulus (GPa) = 43.20307 70.53907 56.87107
# Shear Modulus (GPa) = 19.95882 34.24817 27.10350
#
# Velocity S-wave (km/s) = 3.06864 4.01973 3.57594
# Velocity P-wave (km/s) = 5.73920 7.40435 6.62431
#
# Compressibility (1/GPa) = 0.02314650
#
# Stress axis : x y z
#
# Youngs Moduli (GPa) = 103.34351 123.30394 69.06493
#
# Poissons Ratio (x) = 0.14598 0.13277
# Poissons Ratio (y) = 0.12235 0.10038
# Poissons Ratio (z) = 0.19866 0.17920
#
# Static dielectric constant tensor:
#      x y z
#    x 1.867660 0.000000 -0.014400 
#    y 0.000000 1.809390 0.000000 
#    z -0.014400 0.000000 1.794950 
# 
# From -- ./inp_files/88635.got.cif
#   From: 2010.05.17/outbox.cif.g08.bks.cpg/sg15_45_cif.got.tgz:88635.got - 2010.06.03 18:47:42.
