data_PCOD9268285
_publ_section_title
;
Structure prediction by ZEFSAII (Michael W. Deem and Ramdas Pophale) SiO2 
 PCOD9268285
Probable space group: C 2/C
;
_chemical_formula_sum "Si O2"
_cell_formula_units_Z 48
_cell_length_a 17.906541
_cell_length_b 8.052237
_cell_length_c 13.495523
_cell_angle_alpha 90.000000
_cell_angle_beta 111.741043
_cell_angle_gamma 90.000000
_cell_volume 1807.472606
_symmetry_space_group_name_H-M "C 2/C"
_symmetry_group_IT_number 15
_symmetry_cell_setting 'monoclinic'
loop_
_space_group_symop_operation_xyz
x,y,z
-x,y,1/2-z
-x,-y,-z
x,-y,1/2+z
1/2+x,1/2+y,z
1/2-x,1/2+y,1/2-z
1/2-x,1/2-y,-z
1/2+x,1/2-y,1/2+z
loop_
_atom_site_type_symbol
_atom_site_label
_atom_site_fract_x
_atom_site_fract_y
_atom_site_fract_z
Si Si1 0.085576 0.285153 0.249002
Si Si2 0.089517 0.089562 0.758632
Si Si3 0.134006 0.977970 0.051906
Si Si4 0.626290 0.878598 0.561557
Si Si5 0.056606 0.299417 0.997417
Si Si6 0.695043 0.903402 0.805274
O O1 0.072104 0.282968 0.123485
O O2 0.148897 0.426181 0.303355
O O3 0.000000 0.335582 0.250000
O O4 0.105104 0.100730 0.296645
O O5 0.101551 0.067355 0.645764
O O6 0.150775 0.235713 0.817313
O O7 0.000000 0.136739 0.750000
O O8 0.141998 0.792663 0.012451
O O9 0.076848 0.113006 0.972505
O O10 0.217030 0.073578 0.108860
O O11 0.535224 0.857302 0.563046
O O12 0.690528 0.893897 0.681909
O O13 0.615972 0.050261 0.497000
#
# Coordination Sequence:
#
# PCOD9268285 Si02
#       6
#     8   8   8   8   8   8
#     4   9  18  32  52  76 102 137 176 215 255 318
#     4   9  19  32  48  75 106 138 169 210 262 312
#     4  10  20  30  53  80 104 130 175 224 260 297
#     4   9  19  31  49  76 106 136 167 218 261 311
#     4   9  18  33  50  75 104 137 174 209 261 314
#     4  10  20  30  52  82 105 130 174 226 262 296
#
# _framework density 26.556419999999999
#
# number of rings (size 3 to 8) (size 9 to 14) (size 15 to 20)
#    0.000    2.667    0.000    1.000   14.000    0.000 
#    0.000    0.000    0.000    1.000    8.667   32.667 
#    0.000    0.000    0.000    0.000    0.000    0.000 
#
# Total GULP energy -134306.042129 kJ/mol
# GULP energy per Si atom -5596.085089 kJ/mol
# Density = 2.649598 g / cm^3
# Si number density = 26.556420 Si / 1000 Ang^3
#
#
#
# Elastic Constant Matrix: (Units=GPa)
#
#
# Indices 1 2 3 4 5 6 
#
# 1 87.6699 32.6941 28.4728 0.0000 19.9262 0.0000
# 2 32.6941 162.4536 25.5223 0.0000 27.4911 0.0000
# 3 28.4728 25.5223 75.3693 0.0000 6.6662 0.0000
# 4 0.0000 0.0000 0.0000 18.5310 0.0000 0.3695
# 5 19.9262 27.4911 6.6662 0.0000 45.6811 0.0000
# 6 0.0000 0.0000 0.0000 0.3695 0.0000 38.1937
#
#
#
# Elastic Compliance Matrix: (Units=1/GPa)
#
#
# Indices 1 2 3 4 5 6 
#
# 1 0.014509 -0.001382 -0.004586 0.000000 -0.004827 0.000000
# 2 -0.001382 0.007290 -0.001633 0.000000 -0.003546 0.000000
# 3 -0.004586 -0.001633 0.015489 0.000000 0.000723 0.000000
# 4 0.000000 0.000000 0.000000 0.053974 0.000000 -0.000522
# 5 -0.004827 -0.003546 0.000723 0.000000 0.026025 0.000000
# 6 0.000000 0.000000 0.000000 -0.000522 0.000000 0.026187
#
#
# Mechanical properties :
#
#
# Convention : Reuss Voigt Hill
#
# Bulk Modulus (GPa) = 45.27746 55.43012 50.35379
# Shear Modulus (GPa) = 30.11332 36.40141 33.25737
#
# Velocity S-wave (km/s) = 3.37105 3.70634 3.54266
# Velocity P-wave (km/s) = 5.67790 6.26369 5.97798
#
# Compressibility (1/GPa) = 0.02208604
#
# Stress axis : x y z
#
# Youngs Moduli (GPa) = 68.92473 137.16584 64.56007
#
# Poissons Ratio (x) = 0.18963 0.29607
# Poissons Ratio (y) = 0.09529 0.10542
# Poissons Ratio (z) = 0.31608 0.22397
#
# Static dielectric constant tensor:
#      x y z
#    x 2.114810 0.000000 -0.030180 
#    y 0.000000 2.151990 0.000000 
#    z -0.030180 0.000000 2.094430 
# 
# From -- ./inp_files/208670.got.cif
#   From: 2010.05.17/outbox.cif.g08.bks.cpg/sg15_105_cif.got.tgz:208670.got - 2010.06.03 18:47:42.
