data_PCOD9268338
_publ_section_title
;
Structure prediction by ZEFSAII (Michael W. Deem and Ramdas Pophale) SiO2 
 PCOD9268338
Probable space group: C 2/C
;
_chemical_formula_sum "Si O2"
_cell_formula_units_Z 40
_cell_length_a 25.881797
_cell_length_b 17.214124
_cell_length_c 11.322779
_cell_angle_alpha 90.000000
_cell_angle_beta 20.281523
_cell_angle_gamma 90.000000
_cell_volume 1748.648479
_symmetry_space_group_name_H-M "C 2/C"
_symmetry_group_IT_number 15
_symmetry_cell_setting 'monoclinic'
loop_
_space_group_symop_operation_xyz
x,y,z
-x,y,1/2-z
-x,-y,-z
x,-y,1/2+z
1/2+x,1/2+y,z
1/2-x,1/2+y,1/2-z
1/2-x,1/2-y,-z
1/2+x,1/2-y,1/2+z
loop_
_atom_site_type_symbol
_atom_site_label
_atom_site_fract_x
_atom_site_fract_y
_atom_site_fract_z
Si Si1 0.316734 0.778199 0.560856
Si Si2 0.309944 0.629320 0.735245
Si Si3 0.925297 0.801407 0.604309
Si Si4 0.268442 0.386108 0.574402
Si Si5 0.361194 0.436972 0.896692
O O1 0.332547 0.714078 0.630067
O O2 0.160324 0.771118 0.825860
O O3 0.422148 0.755663 0.224157
O O4 0.326465 0.859628 0.609112
O O5 0.210391 0.626721 0.065473
O O6 0.468360 0.588994 0.434375
O O7 0.260160 0.583261 0.726276
O O8 0.836122 0.879271 0.840660
O O9 0.090197 0.828110 0.221799
O O10 0.334457 0.472874 0.435868
#
# Coordination Sequence:
#
# PCOD9268338 Si02
#       5
#     8   8   8   8   8
#     4  10  20  31  49  75 118 146 177 215 274 327
#     4   9  18  32  45  78 113 139 174 218 265 328
#     4   9  19  34  47  75 112 144 182 218 269 327
#     4  11  20  31  57  80 113 146 176 222 282 318
#     4   9  19  31  55  79 112 139 171 230 282 317
#
# _framework density 22.87481
#
# number of rings (size 3 to 8) (size 9 to 14) (size 15 to 20)
#    0.000    2.400    0.000    4.800    8.400    0.000 
#    0.000    0.000    0.000    0.000    0.000    5.600 
#  186.000    4.000    0.000    0.000    0.000    0.000 
#
# Total GULP energy -111387.317731 kJ/mol
# GULP energy per Si atom -5569.365887 kJ/mol
# Density = 2.282275 g / cm^3
# Si number density = 22.874810 Si / 1000 Ang^3
#
#
#
# Elastic Constant Matrix: (Units=GPa)
#
#
# Indices 1 2 3 4 5 6 
#
# 1 95.6199 33.3596 39.3737 -0.0001 34.4771 0.0002
# 2 33.3596 114.6553 44.4580 0.0000 16.8008 0.0000
# 3 39.3737 44.4580 55.3789 -0.0003 15.5602 0.0002
# 4 -0.0001 0.0000 -0.0003 37.3531 0.0001 7.3130
# 5 34.4771 16.8008 15.5602 0.0001 32.3477 -0.0001
# 6 0.0002 0.0000 0.0002 7.3130 -0.0001 24.2709
#
#
#
# Elastic Compliance Matrix: (Units=1/GPa)
#
#
# Indices 1 2 3 4 5 6 
#
# 1 0.020840 0.000494 -0.010291 0.000000 -0.017518 0.000000
# 2 0.000494 0.012783 -0.009944 0.000000 -0.002382 0.000000
# 3 -0.010291 -0.009944 0.033329 0.000000 0.000101 0.000000
# 4 0.000000 0.000000 0.000000 0.028450 0.000000 -0.008572
# 5 -0.017518 -0.002382 0.000101 0.000000 0.050774 0.000000
# 6 0.000000 0.000000 0.000000 -0.008572 0.000000 0.043784
#
#
# Mechanical properties :
#
#
# Convention : Reuss Voigt Hill
#
# Bulk Modulus (GPa) = 36.40452 55.55962 45.98207
# Shear Modulus (GPa) = 20.95576 28.69186 24.82381
#
# Velocity S-wave (km/s) = 3.03001 3.54545 3.29782
# Velocity P-wave (km/s) = 5.30947 6.41105 5.88609
#
# Compressibility (1/GPa) = 0.02746912
#
# Stress axis : x y z
#
# Youngs Moduli (GPa) = 47.98560 78.22912 30.00406
#
# Poissons Ratio (x) = -0.03864 0.30878
# Poissons Ratio (y) = -0.02370 0.29836
# Poissons Ratio (z) = 0.49383 0.77790
#
# Static dielectric constant tensor:
#      x y z
#    x 1.908880 0.000000 0.050210 
#    y 0.000000 1.911040 0.000000 
#    z 0.050210 0.000000 1.962040 
# 
# From -- ./inp_files/126589.got.cif
#   From: 2010.05.17/outbox.cif.g08.bks.cpg/sg15_64_cif.got.tgz:126589.got - 2010.06.03 18:47:42.
