data_PCOD9268020
_publ_section_title
;
Structure prediction by ZEFSAII (Michael W. Deem and Ramdas Pophale) SiO2 
 PCOD9268020
Probable space group: C 2/C
;
_chemical_formula_sum "Si O2"
_cell_formula_units_Z 44
_cell_length_a 27.203668
_cell_length_b 16.619658
_cell_length_c 15.300929
_cell_angle_alpha 90.000000
_cell_angle_beta 17.781355
_cell_angle_gamma 90.000000
_cell_volume 2112.592287
_symmetry_space_group_name_H-M "C 2/C"
_symmetry_group_IT_number 15
_symmetry_cell_setting 'monoclinic'
loop_
_space_group_symop_operation_xyz
x,y,z
-x,y,1/2-z
-x,-y,-z
x,-y,1/2+z
1/2+x,1/2+y,z
1/2-x,1/2+y,1/2-z
1/2-x,1/2-y,-z
1/2+x,1/2-y,1/2+z
loop_
_atom_site_type_symbol
_atom_site_label
_atom_site_fract_x
_atom_site_fract_y
_atom_site_fract_z
Si Si1 0.408997 0.511356 0.273803
Si Si2 0.000000 0.390936 0.750000
Si Si3 0.821488 0.268111 0.590120
Si Si4 0.230456 0.924530 0.324157
Si Si5 0.063500 0.127131 0.424998
Si Si6 0.275385 0.725717 0.856253
O O1 0.281415 0.531198 0.563758
O O2 0.367687 0.557842 0.254614
O O3 0.577887 0.546142 0.025730
O O4 0.445000 0.419004 0.192479
O O5 0.105664 0.441209 0.503925
O O6 0.128883 0.334425 0.581245
O O7 0.785204 0.172303 0.638362
O O8 0.696263 0.321323 0.748351
O O9 0.789713 0.283982 0.747541
O O10 0.000000 0.282272 0.250000
O O11 0.948733 0.182708 0.561565
O O12 0.250000 0.750000 0.000000
#
# Coordination Sequence:
#
# PCOD9268020 Si02
#       6
#     8   4   8   8   8   8
#     4  10  21  41  65  91 129 184 208 260 340 410
#     4  10  20  36  60  92 122 166 214 270 306 378
#     4  11  22  40  65 100 128 171 223 282 317 388
#     4  10  19  41  66  93 130 174 218 262 335 387
#     4  11  23  40  65  93 132 173 221 262 337 399
#     4  11  22  38  60  94 132 167 213 269 334 382
#
# _framework density 20.827491999999999
#
# number of rings (size 3 to 8) (size 9 to 14) (size 15 to 20)
#    0.000    1.455    5.455    2.182    0.000    7.273 
#    1.636    0.909    0.000    0.000    0.000    0.000 
#    0.000    0.000    0.000    0.000    0.000    0.000 
#
# Total GULP energy -122801.802422 kJ/mol
# GULP energy per Si atom -5581.900110 kJ/mol
# Density = 2.078009 g / cm^3
# Si number density = 20.827492 Si / 1000 Ang^3
#
#
#
# Elastic Constant Matrix: (Units=GPa)
#
#
# Indices 1 2 3 4 5 6 
#
# 1 109.1181 19.8327 45.1545 0.0025 11.9802 -0.0010
# 2 19.8327 37.9716 8.8347 0.0050 -16.7879 -0.0016
# 3 45.1545 8.8347 114.2072 0.0073 17.6619 -0.0031
# 4 0.0025 0.0050 0.0073 20.9605 0.0003 3.2315
# 5 11.9802 -16.7879 17.6619 0.0003 43.9948 0.0000
# 6 -0.0010 -0.0016 -0.0031 3.2315 0.0000 18.5348
#
#
#
# Elastic Compliance Matrix: (Units=1/GPa)
#
#
# Indices 1 2 3 4 5 6 
#
# 1 0.012669 -0.008016 -0.003606 0.000002 -0.005061 -0.000001
# 2 -0.008016 0.039200 -0.002680 -0.000008 0.018217 0.000004
# 3 -0.003606 -0.002680 0.011084 -0.000003 -0.004490 0.000002
# 4 0.000002 -0.000008 -0.000003 0.049027 -0.000003 -0.008548
# 5 -0.005061 0.018217 -0.004490 -0.000003 0.032862 0.000001
# 6 -0.000001 0.000004 0.000002 -0.008548 0.000001 0.055443
#
#
# Mechanical properties :
#
#
# Convention : Reuss Voigt Hill
#
# Bulk Modulus (GPa) = 29.11396 45.43790 37.27593
# Shear Modulus (GPa) = 20.80402 29.19636 25.00019
#
# Velocity S-wave (km/s) = 3.16392 3.74815 3.46836
# Velocity P-wave (km/s) = 5.23031 6.37143 5.82887
#
# Compressibility (1/GPa) = 0.03434779
#
# Stress axis : x y z
#
# Youngs Moduli (GPa) = 78.93126 25.51041 90.22294
#
# Poissons Ratio (x) = 0.20448 0.32538
# Poissons Ratio (y) = 0.63268 0.24184
# Poissons Ratio (z) = 0.28466 0.06838
#
# Static dielectric constant tensor:
#      x y z
#    x 1.783050 0.000000 0.045520 
#    y 0.000000 1.746930 0.000000 
#    z 0.045520 0.000000 1.733520 
# 
# From -- ./inp_files/174164.got.cif
#   From: 2010.05.17/outbox.cif.g08.bks.cpg/sg15_88_cif.got.tgz:174164.got - 2010.06.03 18:47:42.
