data_PCOD9268229
_publ_section_title
;
Structure prediction by ZEFSAII (Michael W. Deem and Ramdas Pophale) SiO2 
 PCOD9268229
Probable space group: C 2/C
;
_chemical_formula_sum "Si O2"
_cell_formula_units_Z 40
_cell_length_a 13.693285
_cell_length_b 13.747283
_cell_length_c 16.336599
_cell_angle_alpha 90.000000
_cell_angle_beta 142.257733
_cell_angle_gamma 90.000000
_cell_volume 1882.417882
_symmetry_space_group_name_H-M "C 2/C"
_symmetry_group_IT_number 15
_symmetry_cell_setting 'monoclinic'
loop_
_space_group_symop_operation_xyz
x,y,z
-x,y,1/2-z
-x,-y,-z
x,-y,1/2+z
1/2+x,1/2+y,z
1/2-x,1/2+y,1/2-z
1/2-x,1/2-y,-z
1/2+x,1/2-y,1/2+z
loop_
_atom_site_type_symbol
_atom_site_label
_atom_site_fract_x
_atom_site_fract_y
_atom_site_fract_z
Si Si1 0.500000 0.439675 0.750000
Si Si2 0.259316 0.069508 0.120825
Si Si3 0.000000 0.263083 0.750000
Si Si4 0.298770 0.111183 0.540740
Si Si5 0.652898 0.120346 0.743590
Si Si6 0.051481 0.891199 0.157598
O O1 0.358877 0.376929 0.616603
O O2 0.432695 0.512791 0.775501
O O3 0.356614 0.167327 0.180596
O O4 0.298549 0.004539 0.065209
O O5 0.318778 0.996761 0.230477
O O6 0.070264 0.085041 0.996314
O O7 0.961882 0.190474 0.650966
O O8 0.465622 0.138337 0.609520
O O9 0.297750 0.155392 0.631982
O O10 0.780358 0.150466 0.761155
#
# Coordination Sequence:
#
# PCOD9268229 Si02
#       6
#     4   8   4   8   8   8
#     4   9  18  28  42  78 102 127 156 225 250 290
#     4   9  16  32  49  70 102 140 165 202 256 308
#     4  11  18  32  46  80 112 131 160 217 264 296
#     4   8  16  30  52  69  99 129 172 204 254 291
#     4   9  16  32  51  73  98 144 173 203 249 314
#     4  10  20  27  49  77 108 132 171 212 257 301
#
# _framework density 21.249265999999999
#
# number of rings (size 3 to 8) (size 9 to 14) (size 15 to 20)
#    1.200    1.600    2.000    1.200    0.000    0.800 
#    0.000    0.000    0.000    0.000    0.000   11.200 
#    0.000    0.000    0.000    0.000    0.000    0.000 
#
# Total GULP energy -111343.906858 kJ/mol
# GULP energy per Si atom -5567.195343 kJ/mol
# Density = 2.120090 g / cm^3
# Si number density = 21.249266 Si / 1000 Ang^3
#
#
#
# Elastic Constant Matrix: (Units=GPa)
#
#
# Indices 1 2 3 4 5 6 
#
# 1 46.1874 4.6742 7.8187 0.0000 14.7229 0.0000
# 2 4.6742 61.5540 0.3213 0.0000 -4.2867 0.0000
# 3 7.8187 0.3213 104.6817 0.0001 -4.0872 0.0000
# 4 0.0000 0.0000 0.0001 -0.2399 0.0000 12.6214
# 5 14.7229 -4.2867 -4.0872 0.0000 17.5328 0.0000
# 6 0.0000 0.0000 0.0000 12.6214 0.0000 16.6312
#
#
#
# Elastic Compliance Matrix: (Units=1/GPa)
#
#
# Indices 1 2 3 4 5 6 
#
# 1 0.031794 -0.004387 -0.003477 0.000000 -0.028582 0.000000
# 2 -0.004387 0.017134 0.000588 0.000000 0.008010 0.000000
# 3 -0.003477 0.000588 0.010022 0.000000 0.005400 0.000000
# 4 0.000000 0.000000 0.000000 -0.101851 0.000000 0.077295
# 5 -0.028582 0.008010 0.005400 0.000000 0.084255 0.000000
# 6 0.000000 0.000000 0.000000 0.077295 0.000000 0.001469
#
#
# Mechanical properties :
#
#
# Convention : Reuss Voigt Hill
#
# Bulk Modulus (GPa) = 22.52381 26.45015 24.48698
# Shear Modulus (GPa) = 69.27740 20.09208 44.68474
#
# Velocity S-wave (km/s) = 5.71603 3.07830 4.59070
# Velocity P-wave (km/s) = 7.36117 5.01091 6.29667
#
# Compressibility (1/GPa) = 0.04439746
#
# Stress axis : x y z
#
# Youngs Moduli (GPa) = 31.45205 58.36435 99.78532
#
# Poissons Ratio (x) = 0.25603 0.34698
# Poissons Ratio (y) = 0.13797 -0.05865
# Poissons Ratio (z) = 0.10937 -0.03431
#
# Static dielectric constant tensor:
#      x y z
#    x 1.774130 0.000000 -0.017600 
#    y 0.000000 1.767370 0.000000 
#    z -0.017600 0.000000 1.793410 
# 
# From -- ./inp_files/245290.got.cif
#   From: 2010.05.17/outbox.cif.g08.bks.cpg/sg15_123_cif.got.tgz:245290.got - 2010.06.03 18:47:42.
