data_PCOD9268197
_publ_section_title
;
Structure prediction by ZEFSAII (Michael W. Deem and Ramdas Pophale) SiO2 
 PCOD9268197
Probable space group: C 2/C
;
_chemical_formula_sum "Si O2"
_cell_formula_units_Z 44
_cell_length_a 24.549407
_cell_length_b 11.520946
_cell_length_c 14.417726
_cell_angle_alpha 90.000000
_cell_angle_beta 24.077365
_cell_angle_gamma 90.000000
_cell_volume 1663.619260
_symmetry_space_group_name_H-M "C 2/C"
_symmetry_group_IT_number 15
_symmetry_cell_setting 'monoclinic'
loop_
_space_group_symop_operation_xyz
x,y,z
-x,y,1/2-z
-x,-y,-z
x,-y,1/2+z
1/2+x,1/2+y,z
1/2-x,1/2+y,1/2-z
1/2-x,1/2-y,-z
1/2+x,1/2-y,1/2+z
loop_
_atom_site_type_symbol
_atom_site_label
_atom_site_fract_x
_atom_site_fract_y
_atom_site_fract_z
Si Si1 0.168303 0.892247 0.484621
Si Si2 0.269304 0.577611 0.398678
Si Si3 0.000000 0.313888 0.250000
Si Si4 0.181968 0.676331 0.025316
Si Si5 0.939037 0.542335 0.499438
Si Si6 0.200158 0.873740 0.843027
O O1 0.174179 0.896142 0.587526
O O2 0.089950 0.786573 0.560754
O O3 0.129463 0.016867 0.503570
O O4 0.318965 0.877274 0.218185
O O5 0.268004 0.440460 0.378478
O O6 0.343717 0.633666 0.195502
O O7 0.112461 0.621039 0.637823
O O8 0.147020 0.430550 0.904327
O O9 0.181329 0.765940 0.940915
O O10 0.250000 0.750000 0.000000
O O11 0.956655 0.617008 0.222692
O O12 0.000000 0.500000 0.500000
#
# Coordination Sequence:
#
# PCOD9268197 Si02
#       6
#     8   8   4   8   8   8
#     4  10  25  52  76 120 165 225 284 360 439 516
#     4  12  25  46  83 115 160 231 285 345 451 508
#     4  12  28  50  76 108 172 222 286 350 426 528
#     4  12  21  45  86 122 169 220 289 372 427 519
#     4  10  19  43  79 124 163 219 280 351 445 507
#     4  10  25  44  79 127 166 212 289 350 432 521
#
# _framework density 26.448357999999999
#
# number of rings (size 3 to 8) (size 9 to 14) (size 15 to 20)
#    1.091    0.000    5.455    1.636    2.545    0.000 
#    0.000    5.455    4.000    0.000    0.000    1.273 
#    0.000    0.000    0.000    0.000    0.000    0.000 
#
# Total GULP energy -122799.228391 kJ/mol
# GULP energy per Si atom -5581.783109 kJ/mol
# Density = 2.638816 g / cm^3
# Si number density = 26.448358 Si / 1000 Ang^3
#
#
#
# Elastic Constant Matrix: (Units=GPa)
#
#
# Indices 1 2 3 4 5 6 
#
# 1 141.1533 76.6890 65.2125 0.0000 50.2379 0.0000
# 2 76.6890 248.1043 45.4254 0.0000 28.9380 0.0000
# 3 65.2125 45.4254 127.0159 0.0000 18.5784 0.0000
# 4 0.0000 0.0000 0.0000 37.6729 0.0000 15.0957
# 5 50.2379 28.9380 18.5784 0.0000 55.9774 0.0000
# 6 0.0000 0.0000 0.0000 15.0957 0.0000 50.3487
#
#
#
# Elastic Compliance Matrix: (Units=1/GPa)
#
#
# Indices 1 2 3 4 5 6 
#
# 1 0.014156 -0.002311 -0.005001 0.000000 -0.009850 0.000000
# 2 -0.002311 0.004871 -0.000516 0.000000 -0.000273 0.000000
# 3 -0.005001 -0.000516 0.010436 0.000000 0.001291 0.000000
# 4 0.000000 0.000000 0.000000 0.030169 0.000000 -0.009045
# 5 -0.009850 -0.000273 0.001291 0.000000 0.026417 0.000000
# 6 0.000000 0.000000 0.000000 -0.009045 0.000000 0.022573
#
#
# Mechanical properties :
#
#
# Convention : Reuss Voigt Hill
#
# Bulk Modulus (GPa) = 72.41924 98.99191 85.70557
# Shear Modulus (GPa) = 38.79536 50.72957 44.76247
#
# Velocity S-wave (km/s) = 3.83408 4.38432 4.11840
# Velocity P-wave (km/s) = 6.85865 7.94602 7.42228
#
# Compressibility (1/GPa) = 0.01380849
#
# Stress axis : x y z
#
# Youngs Moduli (GPa) = 70.63939 205.28898 95.82112
#
# Poissons Ratio (x) = 0.47447 0.47918
# Poissons Ratio (y) = 0.16326 0.04940
# Poissons Ratio (z) = 0.35325 0.10584
#
# Static dielectric constant tensor:
#      x y z
#    x 1.853560 0.000000 0.097700 
#    y 0.000000 2.155830 0.000000 
#    z 0.097700 0.000000 2.332100 
# 
# From -- ./inp_files/172898.got.cif
#   From: 2010.05.17/outbox.cif.g08.bks.cpg/sg15_87_cif.got.tgz:172898.got - 2010.06.03 18:47:42.
