data_PCOD9268804
_publ_section_title
;
Structure prediction by ZEFSAII (Michael W. Deem and Ramdas Pophale) SiO2 
 PCOD9268804
Probable space group: C 2/C
;
_chemical_formula_sum "Si O2"
_cell_formula_units_Z 64
_cell_length_a 17.971038
_cell_length_b 29.483887
_cell_length_c 7.946355
_cell_angle_alpha 90.000000
_cell_angle_beta 138.394177
_cell_angle_gamma 90.000000
_cell_volume 2795.731034
_symmetry_space_group_name_H-M "C 2/C"
_symmetry_group_IT_number 15
_symmetry_cell_setting 'monoclinic'
loop_
_space_group_symop_operation_xyz
x,y,z
-x,y,1/2-z
-x,-y,-z
x,-y,1/2+z
1/2+x,1/2+y,z
1/2-x,1/2+y,1/2-z
1/2-x,1/2-y,-z
1/2+x,1/2-y,1/2+z
loop_
_atom_site_type_symbol
_atom_site_label
_atom_site_fract_x
_atom_site_fract_y
_atom_site_fract_z
Si Si1 0.378882 0.375943 0.489555
Si Si2 0.652998 0.929895 0.169122
Si Si3 0.117483 0.145779 0.902661
Si Si4 0.345168 0.194809 0.370759
Si Si5 0.773312 0.783358 0.381403
Si Si6 0.874582 0.046599 0.481890
Si Si7 0.282103 0.991089 0.508402
Si Si8 0.068720 0.665661 0.610264
O O1 0.279935 0.409843 0.373651
O O2 0.378833 0.368581 0.287611
O O3 0.351207 0.327597 0.531991
O O4 0.500000 0.392804 0.750000
O O5 0.646398 0.966845 0.304219
O O6 0.577572 0.886433 0.072028
O O7 0.645470 0.959144 0.987871
O O8 0.120191 0.100915 0.026473
O O9 0.000000 0.169179 0.750000
O O10 0.225318 0.175175 0.122663
O O11 0.333567 0.249070 0.357540
O O12 0.441881 0.181001 0.406555
O O13 0.381695 0.174292 0.615947
O O14 0.750000 0.750000 0.500000
O O15 0.652309 0.804818 0.136214
O O16 0.828904 0.014489 0.259043
O O17 0.000000 0.033262 0.750000
O O18 0.773228 0.039140 0.441586
#
# Coordination Sequence:
#
# PCOD9268804 Si02
#       8
#     8   8   8   8   8   8   8   8
#     4  11  25  39  63  91 135 175 217 270 331 395
#     4  10  21  39  59  96 125 174 219 269 332 380
#     4  11  25  39  60  97 135 170 212 275 328 383
#     4  10  21  40  67  95 128 173 220 261 324 394
#     4   9  21  38  66  95 125 166 219 264 324 389
#     4  10  20  33  52  84 123 165 211 260 324 376
#     4  10  20  34  60  84 128 164 218 271 314 400
#     4   9  20  39  68  95 130 173 214 271 321 394
#
# _framework density 22.892046000000001
#
# number of rings (size 3 to 8) (size 9 to 14) (size 15 to 20)
#    0.000    2.000    1.250    1.125   12.250    2.500 
#    0.000    2.500    0.000   13.500    0.000    0.000 
#    0.000    0.000    0.000    0.000    0.000    0.000 
#
# Total GULP energy -178782.102068 kJ/mol
# GULP energy per Si atom -5586.940690 kJ/mol
# Density = 2.283994 g / cm^3
# Si number density = 22.892046 Si / 1000 Ang^3
#
#
#
# Elastic Constant Matrix: (Units=GPa)
#
#
# Indices 1 2 3 4 5 6 
#
# 1 69.9921 51.6274 22.1517 0.0000 24.8294 0.0000
# 2 51.6274 134.1843 13.6059 0.0000 13.7094 0.0000
# 3 22.1517 13.6059 51.6666 0.0000 12.8371 0.0000
# 4 0.0000 0.0000 0.0000 5.7887 0.0000 17.4913
# 5 24.8294 13.7094 12.8371 0.0000 34.6863 0.0000
# 6 0.0000 0.0000 0.0000 17.4913 0.0000 33.7601
#
#
#
# Elastic Compliance Matrix: (Units=1/GPa)
#
#
# Indices 1 2 3 4 5 6 
#
# 1 0.027473 -0.008521 -0.006041 0.000000 -0.014062 0.000000
# 2 -0.008521 0.010504 0.000444 0.000000 0.001784 0.000000
# 3 -0.006041 0.000444 0.022903 0.000000 -0.004327 0.000000
# 4 0.000000 0.000000 0.000000 -0.305468 0.000000 0.158265
# 5 -0.014062 0.001784 -0.004327 0.000000 0.039793 0.000000
# 6 0.000000 0.000000 0.000000 0.158265 0.000000 -0.052377
#
#
# Mechanical properties :
#
#
# Convention : Reuss Voigt Hill
#
# Bulk Modulus (GPa) = 30.63351 47.84588 39.23969
# Shear Modulus (GPa) = -22.92994 26.07753 1.57379
#
# Velocity S-wave (km/s) = -3.16833 3.37879 0.83005
# Velocity P-wave (km/s) = 0.16241 6.01396 4.25406
#
# Compressibility (1/GPa) = 0.03264399
#
# Stress axis : x y z
#
# Youngs Moduli (GPa) = 36.39928 95.20530 43.66203
#
# Poissons Ratio (x) = 0.81124 0.26377
# Poissons Ratio (y) = 0.31016 -0.01939
# Poissons Ratio (z) = 0.21989 -0.04228
#
# Static dielectric constant tensor:
#      x y z
#    x 1.897440 0.000000 -0.066780 
#    y 0.000000 1.868310 0.000000 
#    z -0.066780 0.000000 1.889640 
# 
# From -- ./inp_files/52856.got.cif
#   From: 2010.05.17/outbox.cif.g08.bks.cpg/sg15_27_cif.got.tgz:52856.got - 2010.06.03 18:47:42.
