data_PCOD9268880
_publ_section_title
;
Structure prediction by ZEFSAII (Michael W. Deem and Ramdas Pophale) SiO2 
 PCOD9268880
Probable space group: C 2/C
;
_chemical_formula_sum "Si O2"
_cell_formula_units_Z 60
_cell_length_a 11.934223
_cell_length_b 28.144622
_cell_length_c 8.376810
_cell_angle_alpha 90.000000
_cell_angle_beta 98.587273
_cell_angle_gamma 90.000000
_cell_volume 2782.096000
_symmetry_space_group_name_H-M "C 2/C"
_symmetry_group_IT_number 15
_symmetry_cell_setting 'monoclinic'
loop_
_space_group_symop_operation_xyz
x,y,z
-x,y,1/2-z
-x,-y,-z
x,-y,1/2+z
1/2+x,1/2+y,z
1/2-x,1/2+y,1/2-z
1/2-x,1/2-y,-z
1/2+x,1/2-y,1/2+z
loop_
_atom_site_type_symbol
_atom_site_label
_atom_site_fract_x
_atom_site_fract_y
_atom_site_fract_z
Si Si1 0.008664 0.697127 0.944149
Si Si2 0.764047 0.804276 0.547836
Si Si3 0.291517 0.855851 0.503341
Si Si4 0.000000 0.118098 0.250000
Si Si5 0.902926 0.199874 0.404772
Si Si6 0.623400 0.528307 0.789299
Si Si7 0.196003 0.940333 0.660753
Si Si8 0.877955 0.129092 0.808173
O O1 0.914243 0.664667 0.004181
O O2 0.971705 0.752846 0.961322
O O3 0.000000 0.691221 0.750000
O O4 0.131659 0.682230 0.036012
O O5 0.750000 0.750000 0.500000
O O6 0.843282 0.800208 0.719048
O O7 0.824036 0.835671 0.426146
O O8 0.205542 0.811386 0.512545
O O9 0.282539 0.897898 0.631911
O O10 0.230100 0.875371 0.334339
O O11 0.022915 0.151790 0.100499
O O12 0.111521 0.086736 0.264452
O O13 0.500000 0.504194 0.750000
O O14 0.717571 0.490705 0.750720
O O15 0.607150 0.572649 0.662715
O O16 0.643472 0.544900 0.976343
O O17 0.000000 0.144630 0.750000
#
# Coordination Sequence:
#
# PCOD9268880 Si02
#       8
#     8   8   8   4   8   8   8   8
#     4  12  22  42  62  84 125 161 210 247 297 365
#     4  12  24  39  62  92 115 166 208 248 300 359
#     4  10  23  41  58  86 121 165 195 254 310 353
#     4  10  20  34  58  86 132 156 190 248 312 366
#     4  11  23  38  60  89 124 159 203 255 304 348
#     4  10  20  33  54  86 121 156 195 246 309 369
#     4  10  21  34  57  87 120 160 195 243 315 366
#     4  10  23  37  59  89 125 157 200 248 309 370
#
# _framework density 21.566475000000001
#
# number of rings (size 3 to 8) (size 9 to 14) (size 15 to 20)
#    0.000    1.333    4.000    0.800    9.333    1.600 
#    0.000    0.000    0.000    0.800    0.000    0.000 
#    0.000    0.000    0.000    0.000    0.000    0.000 
#
# Total GULP energy -167015.438617 kJ/mol
# GULP energy per Si atom -5567.181287 kJ/mol
# Density = 2.151739 g / cm^3
# Si number density = 21.566475 Si / 1000 Ang^3
#
#
#
# Elastic Constant Matrix: (Units=GPa)
#
#
# Indices 1 2 3 4 5 6 
#
# 1 133.8684 51.9065 9.8050 0.0000 -22.8307 0.0000
# 2 51.9065 123.5902 23.0400 0.0000 -24.0842 0.0000
# 3 9.8050 23.0400 42.1482 0.0000 -5.8002 0.0000
# 4 0.0000 0.0000 0.0000 18.8842 0.0000 -12.5874
# 5 -22.8307 -24.0842 -5.8002 0.0000 23.1237 0.0000
# 6 0.0000 0.0000 0.0000 -12.5874 0.0000 27.9682
#
#
#
# Elastic Compliance Matrix: (Units=1/GPa)
#
#
# Indices 1 2 3 4 5 6 
#
# 1 0.009682 -0.002799 0.000199 0.000000 0.006694 0.000000
# 2 -0.002799 0.011750 -0.004628 0.000000 0.008313 0.000000
# 3 0.000199 -0.004628 0.026487 0.000000 0.002020 0.000000
# 4 0.000000 0.000000 0.000000 0.075648 0.000000 0.034046
# 5 0.006694 0.008313 0.002020 0.000000 0.059020 0.000000
# 6 0.000000 0.000000 0.000000 0.034046 0.000000 0.051078
#
#
# Mechanical properties :
#
#
# Convention : Reuss Voigt Hill
#
# Bulk Modulus (GPa) = 29.88322 52.12333 41.00327
# Shear Modulus (GPa) = 19.28451 28.31890 23.80171
#
# Velocity S-wave (km/s) = 2.99354 3.62760 3.32572
# Velocity P-wave (km/s) = 5.08280 6.46275 5.81386
#
# Compressibility (1/GPa) = 0.03346360
#
# Stress axis : x y z
#
# Youngs Moduli (GPa) = 103.27950 85.10979 37.75405
#
# Poissons Ratio (x) = 0.23823 -0.00751
# Poissons Ratio (y) = 0.28909 0.17471
# Poissons Ratio (z) = -0.02054 0.39386
#
# Static dielectric constant tensor:
#      x y z
#    x 1.790410 0.000000 -0.107820 
#    y 0.000000 1.788560 0.000000 
#    z -0.107820 0.000000 1.731810 
# 
# From -- ./inp_files/34296.got.cif
#   From: 2010.05.17/outbox.cif.g08.bks.cpg/sg15_18_cif.got.tgz:34296.got - 2010.06.03 18:47:42.
