data_PCOD9268026
_publ_section_title
;
Structure prediction by ZEFSAII (Michael W. Deem and Ramdas Pophale) SiO2 
 PCOD9268026
Probable space group: C 2/C
;
_chemical_formula_sum "Si O2"
_cell_formula_units_Z 52
_cell_length_a 18.392397
_cell_length_b 9.355836
_cell_length_c 28.351459
_cell_angle_alpha 90.000000
_cell_angle_beta 156.280941
_cell_angle_gamma 90.000000
_cell_volume 1962.433405
_symmetry_space_group_name_H-M "C 2/C"
_symmetry_group_IT_number 15
_symmetry_cell_setting 'monoclinic'
loop_
_space_group_symop_operation_xyz
x,y,z
-x,y,1/2-z
-x,-y,-z
x,-y,1/2+z
1/2+x,1/2+y,z
1/2-x,1/2+y,1/2-z
1/2-x,1/2-y,-z
1/2+x,1/2-y,1/2+z
loop_
_atom_site_type_symbol
_atom_site_label
_atom_site_fract_x
_atom_site_fract_y
_atom_site_fract_z
Si Si1 0.500000 0.241537 0.250000
Si Si2 0.547071 0.056189 0.635191
Si Si3 0.134072 0.960666 0.407951
Si Si4 0.485431 0.224237 0.686562
Si Si5 0.630453 0.702701 0.519655
Si Si6 0.872651 0.889402 0.986238
Si Si7 0.390370 0.124538 0.407083
O O1 0.542770 0.344655 0.319345
O O2 0.325696 0.143343 0.151329
O O3 0.582932 0.116451 0.708373
O O4 0.531163 0.200063 0.594860
O O5 0.343817 0.987595 0.516639
O O6 0.671587 0.951020 0.678373
O O7 0.128402 0.900007 0.457433
O O8 0.024747 0.108550 0.334140
O O9 0.500000 0.185143 0.750000
O O10 0.266776 0.187874 0.556719
O O11 0.569984 0.545919 0.496459
O O12 0.717326 0.796017 0.614550
O O13 0.990004 0.756792 0.039140
O O14 0.500000 0.000000 0.500000
#
# Coordination Sequence:
#
# PCOD9268026 Si02
#       7
#     4   8   8   8   8   8   8
#     4  12  26  36  66 108 136 170 228 294 346 398
#     4  10  19  41  66  99 132 176 223 279 345 414
#     4  11  21  41  64 101 135 174 219 290 346 396
#     4  11  21  38  73 101 137 172 233 286 343 413
#     4  10  21  39  67  98 131 181 223 275 350 418
#     4  12  23  42  68 100 138 173 235 285 343 411
#     4  10  23  40  69  93 136 187 227 271 360 428
#
# _framework density 26.497714999999999
#
# number of rings (size 3 to 8) (size 9 to 14) (size 15 to 20)
#    0.000    1.231    5.385    1.846    1.077    0.000 
#    0.000    0.000   10.154    0.000    0.000    0.000 
#    0.000    0.000    0.000    0.000    0.000    0.000 
#
# Total GULP energy -145389.068954 kJ/mol
# GULP energy per Si atom -5591.887267 kJ/mol
# Density = 2.643740 g / cm^3
# Si number density = 26.497715 Si / 1000 Ang^3
#
#
#
# Elastic Constant Matrix: (Units=GPa)
#
#
# Indices 1 2 3 4 5 6 
#
# 1 147.4673 68.7881 24.9239 -0.0002 -29.0203 0.0017
# 2 68.7881 176.0316 34.4457 -0.0007 -18.1888 0.0026
# 3 24.9239 34.4457 80.2887 0.0010 -33.5366 0.0067
# 4 -0.0002 -0.0007 0.0010 32.8179 0.0011 -17.9166
# 5 -29.0203 -18.1888 -33.5366 0.0011 37.8672 0.0016
# 6 0.0017 0.0026 0.0067 -17.9166 0.0016 56.5321
#
#
#
# Elastic Compliance Matrix: (Units=1/GPa)
#
#
# Indices 1 2 3 4 5 6 
#
# 1 0.009408 -0.003229 0.001315 -0.000001 0.006824 -0.000001
# 2 -0.003229 0.007333 -0.002708 0.000000 -0.001350 0.000000
# 3 0.001315 -0.002708 0.020769 -0.000004 0.018101 -0.000004
# 4 -0.000001 0.000000 -0.000004 0.036846 -0.000005 0.011678
# 5 0.006824 -0.001350 0.018101 -0.000005 0.047020 -0.000005
# 6 -0.000001 0.000000 -0.000004 0.011678 -0.000005 0.021390
#
#
# Mechanical properties :
#
#
# Convention : Reuss Voigt Hill
#
# Bulk Modulus (GPa) = 35.37643 73.34479 54.36061
# Shear Modulus (GPa) = 30.97287 43.81876 37.39582
#
# Velocity S-wave (km/s) = 3.42261 4.07096 3.76078
# Velocity P-wave (km/s) = 5.38505 7.05951 6.27835
#
# Compressibility (1/GPa) = 0.02826741
#
# Stress axis : x y z
#
# Youngs Moduli (GPa) = 106.29562 136.37482 48.14767
#
# Poissons Ratio (x) = 0.44029 -0.06331
# Poissons Ratio (y) = 0.34318 0.13037
# Poissons Ratio (z) = -0.13977 0.36925
#
# Static dielectric constant tensor:
#      x y z
#    x 2.098100 0.000000 0.059900 
#    y 0.000000 2.262860 -0.000030 
#    z 0.059900 -0.000030 3.075180 
# 
# From -- ./inp_files/317389.got.cif
#   From: 2010.05.17/outbox.cif.g08.bks.cpg/sg15_159_cif.got.tgz:317389.got - 2010.06.03 18:47:42.
