data_PCOD9268010
_publ_section_title
;
Structure prediction by ZEFSAII (Michael W. Deem and Ramdas Pophale) SiO2 
 PCOD9268010
Probable space group: C 2/C
;
_chemical_formula_sum "Si O2"
_cell_formula_units_Z 40
_cell_length_a 22.637063
_cell_length_b 15.807391
_cell_length_c 16.312082
_cell_angle_alpha 90.000000
_cell_angle_beta 18.882097
_cell_angle_gamma 90.000000
_cell_volume 1888.980249
_symmetry_space_group_name_H-M "C 2/C"
_symmetry_group_IT_number 15
_symmetry_cell_setting 'monoclinic'
loop_
_space_group_symop_operation_xyz
x,y,z
-x,y,1/2-z
-x,-y,-z
x,-y,1/2+z
1/2+x,1/2+y,z
1/2-x,1/2+y,1/2-z
1/2-x,1/2-y,-z
1/2+x,1/2-y,1/2+z
loop_
_atom_site_type_symbol
_atom_site_label
_atom_site_fract_x
_atom_site_fract_y
_atom_site_fract_z
Si Si1 0.243388 0.148035 0.190374
Si Si2 0.104463 0.273437 0.259911
Si Si3 0.677623 0.061379 0.774523
Si Si4 0.031923 0.082434 0.619344
Si Si5 0.205218 0.968301 0.205381
O O1 0.090703 0.192754 0.337053
O O2 0.165840 0.133266 0.382970
O O3 0.304831 0.058601 0.071839
O O4 0.413344 0.209197 0.968572
O O5 0.151661 0.357035 0.251535
O O6 0.250000 0.250000 0.000000
O O7 0.707929 0.080673 0.831968
O O8 0.856964 0.006180 0.514809
O O9 0.500000 0.000000 0.000000
O O10 0.000000 0.120306 0.750000
O O11 0.840478 0.072363 0.821643
O O12 0.000000 0.000000 0.500000
#
# Coordination Sequence:
#
# PCOD9268010 Si02
#       5
#     8   8   8   8   8
#     4  10  23  41  57  94 135 163 210 276 329 389
#     4  12  25  38  64  97 135 172 209 270 342 391
#     4  10  19  41  66  88 132 176 210 265 328 397
#     4  10  22  41  69  88 120 176 226 263 320 399
#     4   8  18  38  63  85 122 172 213 260 323 387
#
# _framework density 21.175446000000001
#
# number of rings (size 3 to 8) (size 9 to 14) (size 15 to 20)
#    0.000    2.400    4.000    0.600   11.200    0.000 
#    0.000    2.000    0.000    0.000    0.000    0.000 
#    0.000    0.000    0.000    0.000    0.000    0.000 
#
# Total GULP energy -111522.290309 kJ/mol
# GULP energy per Si atom -5576.114515 kJ/mol
# Density = 2.112725 g / cm^3
# Si number density = 21.175446 Si / 1000 Ang^3
#
#
#
# Elastic Constant Matrix: (Units=GPa)
#
#
# Indices 1 2 3 4 5 6 
#
# 1 145.8646 27.0639 41.3605 0.0001 -1.0183 -0.0014
# 2 27.0639 59.5149 18.5790 0.0011 9.3054 -0.0008
# 3 41.3605 18.5790 52.7473 -0.0017 0.9763 0.0003
# 4 0.0001 0.0011 -0.0017 29.4864 0.0003 -15.2172
# 5 -1.0183 9.3054 0.9763 0.0003 34.7425 0.0016
# 6 -0.0014 -0.0008 0.0003 -15.2172 0.0016 37.3795
#
#
#
# Elastic Compliance Matrix: (Units=1/GPa)
#
#
# Indices 1 2 3 4 5 6 
#
# 1 0.009089 -0.002324 -0.006328 0.000000 0.001067 0.000000
# 2 -0.002324 0.020335 -0.005240 -0.000001 -0.005367 0.000000
# 3 -0.006328 -0.005240 0.025757 0.000002 0.000494 0.000000
# 4 0.000000 -0.000001 0.000002 0.042934 -0.000001 0.017478
# 5 0.001067 -0.005367 0.000494 -0.000001 0.030238 -0.000002
# 6 0.000000 0.000000 0.000000 0.017478 -0.000002 0.033868
#
#
# Mechanical properties :
#
#
# Convention : Reuss Voigt Hill
#
# Bulk Modulus (GPa) = 36.50308 48.01484 42.25896
# Shear Modulus (GPa) = 25.10836 31.72991 28.41913
#
# Velocity S-wave (km/s) = 3.44718 3.87515 3.66741
# Velocity P-wave (km/s) = 5.75499 6.53808 6.15899
#
# Compressibility (1/GPa) = 0.02739495
#
# Stress axis : x y z
#
# Youngs Moduli (GPa) = 110.02758 49.17710 38.82499
#
# Poissons Ratio (x) = 0.11431 0.24567
# Poissons Ratio (y) = 0.25575 0.20346
# Poissons Ratio (z) = 0.69621 0.25771
#
# Static dielectric constant tensor:
#      x y z
#    x 1.833420 0.000000 -0.024750 
#    y 0.000000 1.855000 0.000010 
#    z -0.024750 0.000010 1.790580 
# 
# From -- ./inp_files/219564.got.cif
#   From: 2010.05.17/outbox.cif.g08.bks.cpg/sg15_110_cif.got.tgz:219564.got - 2010.06.03 18:47:42.
