data_PCOD9268584
_publ_section_title
;
Structure prediction by ZEFSAII (Michael W. Deem and Ramdas Pophale) SiO2 
 PCOD9268584
Probable space group: C 2/C
;
_chemical_formula_sum "Si O2"
_cell_formula_units_Z 52
_cell_length_a 6.967995
_cell_length_b 27.372428
_cell_length_c 16.517609
_cell_angle_alpha 90.000000
_cell_angle_beta 58.128413
_cell_angle_gamma 90.000000
_cell_volume 2675.441880
_symmetry_space_group_name_H-M "C 2/C"
_symmetry_group_IT_number 15
_symmetry_cell_setting 'monoclinic'
loop_
_space_group_symop_operation_xyz
x,y,z
-x,y,1/2-z
-x,-y,-z
x,-y,1/2+z
1/2+x,1/2+y,z
1/2-x,1/2+y,1/2-z
1/2-x,1/2-y,-z
1/2+x,1/2-y,1/2+z
loop_
_atom_site_type_symbol
_atom_site_label
_atom_site_fract_x
_atom_site_fract_y
_atom_site_fract_z
Si Si1 0.360845 0.985601 0.365525
Si Si2 0.732470 0.829201 0.512666
Si Si3 0.000000 0.703290 0.750000
Si Si4 0.291141 0.468686 0.347155
Si Si5 0.125256 0.748892 0.438960
Si Si6 0.251433 0.141443 0.675755
Si Si7 0.575580 0.433789 0.002508
O O1 0.500000 0.981365 0.250000
O O2 0.184249 0.030594 0.411000
O O3 0.557629 0.996359 0.386876
O O4 0.198301 0.940153 0.428994
O O5 0.494827 0.800067 0.570232
O O6 0.715548 0.845266 0.423521
O O7 0.820367 0.879873 0.533349
O O8 0.926474 0.789407 0.487058
O O9 0.197084 0.735052 0.668078
O O10 0.081621 0.668619 0.803319
O O11 0.500000 0.490867 0.250000
O O12 0.243996 0.416520 0.314049
O O13 0.350787 0.454750 0.425394
O O14 0.250000 0.750000 0.500000
O O15 0.000000 0.158816 0.750000
#
# Coordination Sequence:
#
# PCOD9268584 Si02
#       7
#     8   8   4   8   8   8   8
#     4  11  22  37  61  88 122 158 203 244 292 362
#     4  10  22  41  58  84 123 154 198 247 301 360
#     4  12  22  34  60  88 118 146 198 242 304 356
#     4  10  20  34  59  89 119 148 192 248 306 348
#     4  11  23  38  60  87 116 156 197 248 301 359
#     4  10  20  32  56  90 116 144 184 249 303 347
#     4  10  23  40  59  87 120 164 196 245 305 351
#
# _framework density 19.436042
#
# number of rings (size 3 to 8) (size 9 to 14) (size 15 to 20)
#    0.000    1.538    4.615    0.462    3.231    0.000 
#    0.000    1.538    1.692    0.000    0.000    0.000 
#    0.000    0.000    0.000    0.000    0.000    0.000 
#
# Total GULP energy -144761.887323 kJ/mol
# GULP energy per Si atom -5567.764897 kJ/mol
# Density = 1.939180 g / cm^3
# Si number density = 19.436042 Si / 1000 Ang^3
#
#
#
# Elastic Constant Matrix: (Units=GPa)
#
#
# Indices 1 2 3 4 5 6 
#
# 1 85.4150 26.0356 20.8074 0.0000 -16.8063 0.0000
# 2 26.0356 83.4807 18.8761 0.0000 -10.1385 0.0000
# 3 20.8074 18.8761 64.4316 0.0000 -17.6625 0.0000
# 4 0.0000 0.0000 0.0000 23.4393 0.0000 -0.9224
# 5 -16.8063 -10.1385 -17.6625 0.0000 31.3290 0.0000
# 6 0.0000 0.0000 0.0000 -0.9224 0.0000 34.2416
#
#
#
# Elastic Compliance Matrix: (Units=1/GPa)
#
#
# Indices 1 2 3 4 5 6 
#
# 1 0.014306 -0.003317 -0.002175 0.000000 0.005375 0.000000
# 2 -0.003317 0.013753 -0.002632 0.000000 0.001187 0.000000
# 3 -0.002175 -0.002632 0.019446 0.000000 0.008945 0.000000
# 4 0.000000 0.000000 0.000000 0.042709 0.000000 0.001150
# 5 0.005375 0.001187 0.008945 0.000000 0.040230 0.000000
# 6 0.000000 0.000000 0.000000 0.001150 0.000000 0.029235
#
#
# Mechanical properties :
#
#
# Convention : Reuss Voigt Hill
#
# Bulk Modulus (GPa) = 31.99402 40.52949 36.26175
# Shear Modulus (GPa) = 26.83191 28.97585 27.90388
#
# Velocity S-wave (km/s) = 3.71957 3.86532 3.79314
# Velocity P-wave (km/s) = 5.91133 6.38897 6.15479
#
# Compressibility (1/GPa) = 0.03125584
#
# Stress axis : x y z
#
# Youngs Moduli (GPa) = 69.90072 72.71272 51.42500
#
# Poissons Ratio (x) = 0.24120 0.11184
# Poissons Ratio (y) = 0.23187 0.13537
# Poissons Ratio (z) = 0.15202 0.19141
#
# Static dielectric constant tensor:
#      x y z
#    x 1.634350 0.000000 -0.053140 
#    y 0.000000 1.729320 0.000000 
#    z -0.053140 0.000000 1.703390 
# 
# From -- ./inp_files/186061.got.cif
#   From: 2010.05.17/outbox.cif.g08.bks.cpg/sg15_94_cif.got.tgz:186061.got - 2010.06.03 18:47:42.
