data_PCOD9268155
_publ_section_title
;
Structure prediction by ZEFSAII (Michael W. Deem and Ramdas Pophale) SiO2 
 PCOD9268155
Probable space group: C 2/C
;
_chemical_formula_sum "Si O2"
_cell_formula_units_Z 64
_cell_length_a 23.666271
_cell_length_b 18.719372
_cell_length_c 14.321003
_cell_angle_alpha 90.000000
_cell_angle_beta 29.137474
_cell_angle_gamma 90.000000
_cell_volume 3089.159626
_symmetry_space_group_name_H-M "C 2/C"
_symmetry_group_IT_number 15
_symmetry_cell_setting 'monoclinic'
loop_
_space_group_symop_operation_xyz
x,y,z
-x,y,1/2-z
-x,-y,-z
x,-y,1/2+z
1/2+x,1/2+y,z
1/2-x,1/2+y,1/2-z
1/2-x,1/2-y,-z
1/2+x,1/2-y,1/2+z
loop_
_atom_site_type_symbol
_atom_site_label
_atom_site_fract_x
_atom_site_fract_y
_atom_site_fract_z
Si Si1 0.719517 0.675648 0.313698
Si Si2 0.095199 0.462759 0.297684
Si Si3 0.036275 0.025440 0.344147
Si Si4 0.789168 0.012463 0.148673
Si Si5 0.011090 0.680955 0.624348
Si Si6 0.774188 0.536970 0.548362
Si Si7 0.765040 0.202675 0.884881
Si Si8 0.971229 0.819422 0.572728
O O1 0.718070 0.596992 0.362577
O O2 0.702154 0.746163 0.400773
O O3 0.624649 0.674613 0.369367
O O4 0.851638 0.682030 0.090591
O O5 0.210173 0.465635 0.195030
O O6 0.000000 0.500000 0.500000
O O7 0.048846 0.385577 0.338737
O O8 0.122214 0.503467 0.161613
O O9 0.043307 0.110345 0.343144
O O10 0.157893 0.985265 0.158183
O O11 0.000000 0.000000 0.500000
O O12 0.924125 0.006955 0.445837
O O13 0.744483 0.996246 0.320327
O O14 0.000000 0.676312 0.750000
O O15 0.955776 0.751280 0.659992
O O16 0.784650 0.622538 0.537437
O O17 0.900168 0.189033 0.659439
O O18 0.750000 0.250000 0.000000
#
# Coordination Sequence:
#
# PCOD9268155 Si02
#       8
#     8   8   8   8   8   8   8   8
#     4  11  22  43  71  96 139 180 218 294 343 406
#     4  12  27  43  68 101 138 187 239 279 343 421
#     4  10  19  42  72 102 131 177 227 291 341 408
#     4  11  21  43  72 101 141 175 231 292 346 415
#     4  11  27  46  66  99 142 184 235 283 348 421
#     4  11  23  44  72 101 135 185 232 287 348 413
#     4  11  24  41  66 101 141 176 226 277 350 418
#     4  11  23  44  70  99 136 175 229 282 351 408
#
# _framework density 20.717608999999999
#
# number of rings (size 3 to 8) (size 9 to 14) (size 15 to 20)
#    0.000    1.000    6.250    1.500    3.500    1.500 
#    2.250    3.750    0.000    0.000    0.000    0.000 
#    0.000    0.000    0.000    0.000    0.000    0.000 
#
# Total GULP energy -178756.489200 kJ/mol
# GULP energy per Si atom -5586.140287 kJ/mol
# Density = 2.067045 g / cm^3
# Si number density = 20.717609 Si / 1000 Ang^3
#
#
#
# Elastic Constant Matrix: (Units=GPa)
#
#
# Indices 1 2 3 4 5 6 
#
# 1 30.4784 -9.0476 4.9099 0.0000 9.1843 0.0000
# 2 -9.0476 154.6753 18.2461 0.0000 17.6819 0.0000
# 3 4.9099 18.2461 48.4060 0.0000 13.1487 0.0000
# 4 0.0000 0.0000 0.0000 28.1828 0.0000 -2.1856
# 5 9.1843 17.6819 13.1487 0.0000 20.4967 0.0000
# 6 0.0000 0.0000 0.0000 -2.1856 0.0000 49.2547
#
#
#
# Elastic Compliance Matrix: (Units=1/GPa)
#
#
# Indices 1 2 3 4 5 6 
#
# 1 0.041158 0.005002 0.000147 0.000000 -0.022852 0.000000
# 2 0.005002 0.007842 -0.001232 0.000000 -0.008217 0.000000
# 3 0.000147 -0.001232 0.025234 0.000000 -0.015191 0.000000
# 4 0.000000 0.000000 0.000000 0.035605 0.000000 0.001580
# 5 -0.022852 -0.008217 -0.015191 0.000000 0.075862 0.000000
# 6 0.000000 0.000000 0.000000 0.001580 0.000000 0.020373
#
#
# Mechanical properties :
#
#
# Convention : Reuss Voigt Hill
#
# Bulk Modulus (GPa) = 12.18466 29.08627 20.63546
# Shear Modulus (GPa) = 22.16362 34.21693 28.19027
#
# Velocity S-wave (km/s) = 3.27432 4.06838 3.69276
# Velocity P-wave (km/s) = 4.49322 6.01156 5.30697
#
# Compressibility (1/GPa) = 0.08207044
#
# Stress axis : x y z
#
# Youngs Moduli (GPa) = 24.29683 127.51232 39.62849
#
# Poissons Ratio (x) = -0.63788 -0.00583
# Poissons Ratio (y) = -0.12154 0.04880
# Poissons Ratio (z) = -0.00357 0.15703
#
# Static dielectric constant tensor:
#      x y z
#    x 1.766230 0.000000 0.008420 
#    y 0.000000 1.704240 0.000000 
#    z 0.008420 0.000000 1.833300 
# 
# From -- ./inp_files/174229.got.cif
#   From: 2010.05.17/outbox.cif.g08.bks.cpg/sg15_88_cif.got.tgz:174229.got - 2010.06.03 18:47:42.
