data_PCOD9268644
_publ_section_title
;
Structure prediction by ZEFSAII (Michael W. Deem and Ramdas Pophale) SiO2 
 PCOD9268644
Probable space group: C 2/C
;
_chemical_formula_sum "Si O2"
_cell_formula_units_Z 52
_cell_length_a 13.249594
_cell_length_b 21.941662
_cell_length_c 11.875369
_cell_angle_alpha 90.000000
_cell_angle_beta 47.728196
_cell_angle_gamma 90.000000
_cell_volume 2554.634316
_symmetry_space_group_name_H-M "C 2/C"
_symmetry_group_IT_number 15
_symmetry_cell_setting 'monoclinic'
loop_
_space_group_symop_operation_xyz
x,y,z
-x,y,1/2-z
-x,-y,-z
x,-y,1/2+z
1/2+x,1/2+y,z
1/2-x,1/2+y,1/2-z
1/2-x,1/2-y,-z
1/2+x,1/2-y,1/2+z
loop_
_atom_site_type_symbol
_atom_site_label
_atom_site_fract_x
_atom_site_fract_y
_atom_site_fract_z
Si Si1 0.262670 0.068475 0.462318
Si Si2 0.566864 0.435104 0.819841
Si Si3 0.700453 0.458837 0.361308
Si Si4 0.404314 0.118975 0.571899
Si Si5 0.777762 0.770961 0.348842
Si Si6 0.196337 0.644386 0.292613
Si Si7 0.500000 0.362553 0.250000
O O1 0.362018 0.081123 0.491423
O O2 0.311986 0.106978 0.318242
O O3 0.113193 0.095492 0.605646
O O4 0.248139 0.999905 0.430556
O O5 0.500000 0.445914 0.750000
O O6 0.654658 0.492923 0.798561
O O7 0.666969 0.377847 0.749241
O O8 0.440354 0.426472 0.999769
O O9 0.818474 0.414374 0.232629
O O10 0.347077 0.186658 0.593971
O O11 0.565201 0.124878 0.462490
O O12 0.750000 0.750000 0.500000
O O13 0.798932 0.713771 0.252183
O O14 0.908204 0.816035 0.246298
#
# Coordination Sequence:
#
# PCOD9268644 Si02
#       7
#     8   8   8   8   8   8   4
#     4  10  22  35  60  90 130 158 208 248 318 371
#     4  10  23  41  63  86 125 166 220 261 303 370
#     4  10  23  39  64  92 119 169 216 258 309 374
#     4  11  23  38  63  96 134 161 200 262 321 375
#     4  11  21  35  62  93 133 161 200 253 323 380
#     4  11  23  39  60  95 127 168 203 254 319 374
#     4  10  20  32  60  94 124 160 194 256 304 376
#
# _framework density 20.355163999999998
#
# number of rings (size 3 to 8) (size 9 to 14) (size 15 to 20)
#    0.000    1.538    3.077    2.308   14.000    2.462 
#    0.000    5.385    0.000    3.692    0.000    0.000 
#    0.000    0.000    0.000    0.000    0.000    0.000 
#
# Total GULP energy -145315.181744 kJ/mol
# GULP energy per Si atom -5589.045452 kJ/mol
# Density = 2.030883 g / cm^3
# Si number density = 20.355164 Si / 1000 Ang^3
#
#
#
# Elastic Constant Matrix: (Units=GPa)
#
#
# Indices 1 2 3 4 5 6 
#
# 1 54.7952 32.7271 25.0330 0.0000 -7.0705 0.0000
# 2 32.7271 104.6832 70.4832 0.0000 -17.5354 0.0000
# 3 25.0330 70.4832 102.3610 0.0000 -22.9778 0.0000
# 4 0.0000 0.0000 0.0000 24.2146 0.0000 6.8199
# 5 -7.0705 -17.5354 -22.9778 0.0000 22.3358 0.0000
# 6 0.0000 0.0000 0.0000 6.8199 0.0000 23.5044
#
#
#
# Elastic Compliance Matrix: (Units=1/GPa)
#
#
# Indices 1 2 3 4 5 6 
#
# 1 0.022551 -0.006182 -0.000969 0.000000 0.001288 0.000000
# 2 -0.006182 0.019558 -0.011635 0.000000 0.001429 0.000000
# 3 -0.000969 -0.011635 0.020672 0.000000 0.011825 0.000000
# 4 0.000000 0.000000 0.000000 0.044973 0.000000 -0.013049
# 5 0.001288 0.001429 0.011825 0.000000 0.058466 0.000000
# 6 0.000000 0.000000 0.000000 -0.013049 0.000000 0.046331
#
#
# Mechanical properties :
#
#
# Convention : Reuss Voigt Hill
#
# Bulk Modulus (GPa) = 39.66665 57.59177 48.62921
# Shear Modulus (GPa) = 19.34039 22.91738 21.12888
#
# Velocity S-wave (km/s) = 3.08579 3.35905 3.22531
# Velocity P-wave (km/s) = 5.67677 6.58780 6.14918
#
# Compressibility (1/GPa) = 0.02521009
#
# Stress axis : x y z
#
# Youngs Moduli (GPa) = 44.34412 51.12924 48.37373
#
# Poissons Ratio (x) = 0.31607 0.04688
# Poissons Ratio (y) = 0.27412 0.56282
# Poissons Ratio (z) = 0.04298 0.59488
#
# Static dielectric constant tensor:
#      x y z
#    x 1.726270 0.000000 -0.008760 
#    y 0.000000 1.733170 0.000000 
#    z -0.008760 0.000000 1.770560 
# 
# From -- ./inp_files/100630.got.cif
#   From: 2010.05.17/outbox.cif.g08.bks.cpg/sg15_51_cif.got.tgz:100630.got - 2010.06.03 18:47:42.
