data_PCOD9268910
_publ_section_title
;
Structure prediction by ZEFSAII (Michael W. Deem and Ramdas Pophale) SiO2 
 PCOD9268910
Probable space group: C 2/C
;
_chemical_formula_sum "Si O2"
_cell_formula_units_Z 56
_cell_length_a 20.640057
_cell_length_b 30.864892
_cell_length_c 9.781085
_cell_angle_alpha 90.000000
_cell_angle_beta 153.792167
_cell_angle_gamma 90.000000
_cell_volume 2751.818547
_symmetry_space_group_name_H-M "C 2/C"
_symmetry_group_IT_number 15
_symmetry_cell_setting 'monoclinic'
loop_
_space_group_symop_operation_xyz
x,y,z
-x,y,1/2-z
-x,-y,-z
x,-y,1/2+z
1/2+x,1/2+y,z
1/2-x,1/2+y,1/2-z
1/2-x,1/2-y,-z
1/2+x,1/2-y,1/2+z
loop_
_atom_site_type_symbol
_atom_site_label
_atom_site_fract_x
_atom_site_fract_y
_atom_site_fract_z
Si Si1 0.251559 0.452275 0.619856
Si Si2 0.500000 0.107514 0.750000
Si Si3 0.404122 0.631879 0.388737
Si Si4 0.000000 0.754449 0.750000
Si Si5 0.656094 0.684209 0.750872
Si Si6 0.324991 0.470803 0.449199
Si Si7 0.710701 0.183130 0.220693
Si Si8 0.178030 0.873801 0.066253
O O1 0.381289 0.417274 0.892646
O O2 0.286193 0.471647 0.536288
O O3 0.250895 0.490568 0.727324
O O4 0.104637 0.423417 0.358351
O O5 0.396512 0.141247 0.471530
O O6 0.565735 0.644941 0.650218
O O7 0.345632 0.665067 0.389239
O O8 0.305503 0.634969 0.063443
O O9 0.959301 0.783768 0.541777
O O10 0.864605 0.721571 0.507223
O O11 0.741698 0.662482 0.786450
O O12 0.749711 0.700935 0.054646
O O13 0.275739 0.422487 0.311399
O O14 0.500000 0.473486 0.750000
O O15 0.000000 0.872740 0.750000
#
# Coordination Sequence:
#
# PCOD9268910 Si02
#       8
#     8   4   8   4   8   8   8   8
#     4  10  21  36  58  81 122 158 195 246 295 342
#     4   9  22  42  54  80 122 168 198 240 292 351
#     4   9  18  36  56  82 113 150 190 244 294 340
#     4  11  22  38  56  84 122 146 184 242 300 349
#     4  11  19  37  60  84 109 152 191 239 299 354
#     4  10  20  33  55  90 117 149 200 253 294 338
#     4  10  22  36  60  83 113 151 199 238 285 353
#     4   8  16  33  54  77 113 147 180 237 297 333
#
# _framework density 20.350179000000001
#
# number of rings (size 3 to 8) (size 9 to 14) (size 15 to 20)
#    0.000    2.286    2.143    2.143    0.000    5.714 
#    0.000    0.000    0.000   12.000    0.000    0.000 
#    0.000    0.000    0.000    0.000    0.000    0.000 
#
# Total GULP energy -155967.020573 kJ/mol
# GULP energy per Si atom -5570.250735 kJ/mol
# Density = 2.030386 g / cm^3
# Si number density = 20.350179 Si / 1000 Ang^3
#
#
#
# Elastic Constant Matrix: (Units=GPa)
#
#
# Indices 1 2 3 4 5 6 
#
# 1 87.7049 34.8950 36.3561 0.0000 -17.4460 0.0000
# 2 34.8950 101.3198 33.5471 0.0000 -18.0960 0.0000
# 3 36.3561 33.5471 66.1291 0.0000 -20.7615 0.0000
# 4 0.0000 0.0000 0.0000 18.6907 0.0000 -9.9537
# 5 -17.4460 -18.0960 -20.7615 0.0000 27.9861 0.0000
# 6 0.0000 0.0000 0.0000 -9.9537 0.0000 22.6634
#
#
#
# Elastic Compliance Matrix: (Units=1/GPa)
#
#
# Indices 1 2 3 4 5 6 
#
# 1 0.015746 -0.002763 -0.006172 0.000000 0.003451 0.000000
# 2 -0.002763 0.012734 -0.003776 0.000000 0.003710 0.000000
# 3 -0.006172 -0.003776 0.024060 0.000000 0.011560 0.000000
# 4 0.000000 0.000000 0.000000 0.069837 0.000000 0.030672
# 5 0.003451 0.003710 0.011560 0.000000 0.048858 0.000000
# 6 0.000000 0.000000 0.000000 0.030672 0.000000 0.057595
#
#
# Mechanical properties :
#
#
# Convention : Reuss Voigt Hill
#
# Bulk Modulus (GPa) = 36.87565 51.63891 44.25728
# Shear Modulus (GPa) = 18.99037 23.89176 21.44106
#
# Velocity S-wave (km/s) = 3.05811 3.43013 3.24945
# Velocity P-wave (km/s) = 5.53437 6.41233 5.98946
#
# Compressibility (1/GPa) = 0.02711816
#
# Stress axis : x y z
#
# Youngs Moduli (GPa) = 63.50835 78.52777 41.56315
#
# Poissons Ratio (x) = 0.21699 0.25651
# Poissons Ratio (y) = 0.17549 0.15695
# Poissons Ratio (z) = 0.39195 0.29653
#
# Static dielectric constant tensor:
#      x y z
#    x 1.730590 0.000000 -0.022490 
#    y 0.000000 1.751540 0.000000 
#    z -0.022490 0.000000 1.800040 
# 
# From -- ./inp_files/59384.got.cif
#   From: 2010.05.17/outbox.cif.g08.bks.cpg/sg15_30_cif.got.tgz:59384.got - 2010.06.03 18:47:42.
