data_PCOD9268194
_publ_section_title
;
Structure prediction by ZEFSAII (Michael W. Deem and Ramdas Pophale) SiO2 
 PCOD9268194
Probable space group: C 2/C
;
_chemical_formula_sum "Si O2"
_cell_formula_units_Z 64
_cell_length_a 25.831149
_cell_length_b 8.058785
_cell_length_c 15.042053
_cell_angle_alpha 90.000000
_cell_angle_beta 69.516157
_cell_angle_gamma 90.000000
_cell_volume 2933.281907
_symmetry_space_group_name_H-M "C 2/C"
_symmetry_group_IT_number 15
_symmetry_cell_setting 'monoclinic'
loop_
_space_group_symop_operation_xyz
x,y,z
-x,y,1/2-z
-x,-y,-z
x,-y,1/2+z
1/2+x,1/2+y,z
1/2-x,1/2+y,1/2-z
1/2-x,1/2-y,-z
1/2+x,1/2-y,1/2+z
loop_
_atom_site_type_symbol
_atom_site_label
_atom_site_fract_x
_atom_site_fract_y
_atom_site_fract_z
Si Si1 0.878084 0.070966 0.816022
Si Si2 0.302910 0.632831 0.470810
Si Si3 0.606600 0.118077 0.510325
Si Si4 0.668881 0.170684 0.291314
Si Si5 0.725482 0.495512 0.329725
Si Si6 0.068651 0.263863 0.557131
Si Si7 0.965219 0.835403 0.040973
Si Si8 0.112240 0.898529 0.855599
O O1 0.865151 0.236421 0.766366
O O2 0.906946 0.932976 0.734289
O O3 0.909656 0.127077 0.886105
O O4 0.821014 0.982262 0.878724
O O5 0.250000 0.750000 0.500000
O O6 0.353660 0.757266 0.460922
O O7 0.289986 0.505723 0.557711
O O8 0.633629 0.097770 0.394859
O O9 0.547826 0.207609 0.528674
O O10 0.595119 0.941503 0.561280
O O11 0.709419 0.313064 0.305622
O O12 0.711648 0.038458 0.226129
O O13 0.678268 0.613476 0.315868
O O14 0.087052 0.224610 0.443411
O O15 0.001772 0.255370 0.593598
O O16 0.905880 0.920222 0.094538
O O17 0.000000 0.000000 0.000000
#
# Coordination Sequence:
#
# PCOD9268194 Si02
#       8
#     8   8   8   8   8   8   8   8
#     4  11  23  43  62  97 130 177 225 264 332 400
#     4  11  24  37  60  89 132 172 217 269 318 397
#     4  11  23  45  60 101 133 163 224 275 327 386
#     4  10  24  37  65  88 132 171 217 266 320 397
#     4  10  21  39  57  87 126 169 210 258 326 382
#     4  11  24  39  72  95 129 176 214 286 333 384
#     4  10  19  43  72  90 123 178 215 267 337 390
#     4  10  21  43  63  93 128 170 222 262 320 409
#
# _framework density 21.818565
#
# number of rings (size 3 to 8) (size 9 to 14) (size 15 to 20)
#    0.000    1.500    5.000    1.125   10.500    1.000 
#    0.000    0.000    0.000    0.000    0.000    0.000 
#    0.000    0.000    0.000    0.000    0.000    0.000 
#
# Total GULP energy -178141.715260 kJ/mol
# GULP energy per Si atom -5566.928602 kJ/mol
# Density = 2.176890 g / cm^3
# Si number density = 21.818565 Si / 1000 Ang^3
#
#
#
# Elastic Constant Matrix: (Units=GPa)
#
#
# Indices 1 2 3 4 5 6 
#
# 1 79.0272 9.5584 -2.3874 0.0000 8.2768 0.0000
# 2 9.5584 49.6109 11.1292 0.0000 -3.0558 0.0000
# 3 -2.3874 11.1292 63.0844 0.0000 11.6295 0.0000
# 4 0.0000 0.0000 0.0000 23.9236 0.0000 -8.5014
# 5 8.2768 -3.0558 11.6295 0.0000 12.5594 0.0000
# 6 0.0000 0.0000 0.0000 -8.5014 0.0000 38.9297
#
#
#
# Elastic Compliance Matrix: (Units=1/GPa)
#
#
# Indices 1 2 3 4 5 6 
#
# 1 0.014894 -0.004703 0.004116 0.000000 -0.014771 0.000000
# 2 -0.004703 0.023637 -0.007210 0.000000 0.015527 0.000000
# 3 0.004116 -0.007210 0.021829 0.000000 -0.024680 0.000000
# 4 0.000000 0.000000 0.000000 0.045316 0.000000 0.009896
# 5 -0.014771 0.015527 -0.024680 0.000000 0.115986 0.000000
# 6 0.000000 0.000000 0.000000 0.009896 0.000000 0.027848
#
#
# Mechanical properties :
#
#
# Convention : Reuss Voigt Hill
#
# Bulk Modulus (GPa) = 22.33802 25.36922 23.85362
# Shear Modulus (GPa) = 17.85543 26.64404 22.24974
#
# Velocity S-wave (km/s) = 2.86380 3.49831 3.19684
# Velocity P-wave (km/s) = 4.60385 5.28868 4.95810
#
# Compressibility (1/GPa) = 0.04476672
#
# Stress axis : x y z
#
# Youngs Moduli (GPa) = 67.14088 42.30699 45.80998
#
# Poissons Ratio (x) = 0.19896 -0.18857
# Poissons Ratio (y) = 0.31575 0.33030
# Poissons Ratio (z) = -0.27638 0.30504
#
# Static dielectric constant tensor:
#      x y z
#    x 1.864990 0.000000 -0.015930 
#    y 0.000000 1.857060 0.000000 
#    z -0.015930 0.000000 1.894990 
# 
# From -- ./inp_files/176574.got.cif
#   From: 2010.05.17/outbox.cif.g08.bks.cpg/sg15_89_cif.got.tgz:176574.got - 2010.06.03 18:47:42.
