data_PCOD9268857
_publ_section_title
;
Structure prediction by ZEFSAII (Michael W. Deem and Ramdas Pophale) SiO2 
 PCOD9268857
Probable space group: C 2/C
;
_chemical_formula_sum "Si O2"
_cell_formula_units_Z 48
_cell_length_a 24.902395
_cell_length_b 7.207729
_cell_length_c 11.652604
_cell_angle_alpha 90.000000
_cell_angle_beta 105.365172
_cell_angle_gamma 90.000000
_cell_volume 2016.764539
_symmetry_space_group_name_H-M "C 2/C"
_symmetry_group_IT_number 15
_symmetry_cell_setting 'monoclinic'
loop_
_space_group_symop_operation_xyz
x,y,z
-x,y,1/2-z
-x,-y,-z
x,-y,1/2+z
1/2+x,1/2+y,z
1/2-x,1/2+y,1/2-z
1/2-x,1/2-y,-z
1/2+x,1/2-y,1/2+z
loop_
_atom_site_type_symbol
_atom_site_label
_atom_site_fract_x
_atom_site_fract_y
_atom_site_fract_z
Si Si1 0.475583 0.249609 0.860931
Si Si2 0.476016 0.200197 0.363807
Si Si3 0.152149 0.793232 0.714500
Si Si4 0.849683 0.344353 0.764947
Si Si5 0.262416 0.853032 0.890525
Si Si6 0.313168 0.787036 0.502911
O O1 0.500000 0.307526 0.750000
O O2 0.412821 0.323741 0.812143
O O3 0.482001 0.024626 0.864941
O O4 0.495921 0.286700 0.004968
O O5 0.500000 0.259201 0.250000
O O6 0.409281 0.217839 0.345156
O O7 0.157867 0.570132 0.745070
O O8 0.199903 0.895617 0.812909
O O9 0.166965 0.832831 0.590913
O O10 0.795732 0.266585 0.802045
O O11 0.850305 0.279167 0.634389
O O12 0.250000 0.750000 0.000000
O O13 0.307787 0.005402 0.952527
O O14 0.250000 0.750000 0.500000
#
# Coordination Sequence:
#
# PCOD9268857 Si02
#       6
#     8   8   8   8   8   8
#     4   9  18  29  49  76 109 142 181 225 278 329
#     4   9  17  30  48  75 109 145 179 224 283 326
#     4  10  20  34  53  79 114 146 182 228 277 334
#     4  10  20  33  54  80 113 147 183 230 275 336
#     4  11  22  34  54  80 115 147 181 221 283 330
#     4  11  21  36  54  79 113 143 187 223 273 333
#
# _framework density 23.800497
#
# number of rings (size 3 to 8) (size 9 to 14) (size 15 to 20)
#    0.000    2.000    3.333    1.000    2.333    4.000 
#    0.000    0.000    0.000    0.000    0.000    5.833 
#    0.000    0.000    0.000    0.000    0.000    0.000 
#
# Total GULP energy -133697.819669 kJ/mol
# GULP energy per Si atom -5570.742486 kJ/mol
# Density = 2.374633 g / cm^3
# Si number density = 23.800497 Si / 1000 Ang^3
#
#
#
# Elastic Constant Matrix: (Units=GPa)
#
#
# Indices 1 2 3 4 5 6 
#
# 1 137.7756 -10.1827 64.5987 0.0000 3.0925 0.0000
# 2 -10.1827 68.6655 4.2009 0.0000 0.0987 0.0000
# 3 64.5987 4.2009 182.6692 0.0000 0.9103 0.0000
# 4 0.0000 0.0000 0.0000 0.1764 0.0000 -0.9799
# 5 3.0925 0.0987 0.9103 0.0000 36.5077 0.0000
# 6 0.0000 0.0000 0.0000 -0.9799 0.0000 11.6554
#
#
#
# Elastic Compliance Matrix: (Units=1/GPa)
#
#
# Indices 1 2 3 4 5 6 
#
# 1 0.008871 0.001510 -0.003168 0.000000 -0.000676 0.000000
# 2 0.001510 0.014841 -0.000875 0.000000 -0.000146 0.000000
# 3 -0.003168 -0.000875 0.006614 0.000000 0.000106 0.000000
# 4 0.000000 0.000000 0.000000 10.631218 0.000000 0.893768
# 5 -0.000676 -0.000146 0.000106 0.000000 0.027447 0.000000
# 6 0.000000 0.000000 0.000000 0.893768 0.000000 0.160937
#
#
# Mechanical properties :
#
#
# Convention : Reuss Voigt Hill
#
# Bulk Modulus (GPa) = 39.58748 56.26047 47.92397
# Shear Modulus (GPa) = 0.46026 31.70079 16.08053
#
# Velocity S-wave (km/s) = 0.44023 3.65353 2.60212
# Velocity P-wave (km/s) = 4.11431 6.44107 5.40439
#
# Compressibility (1/GPa) = 0.02526051
#
# Stress axis : x y z
#
# Youngs Moduli (GPa) = 112.73321 67.38073 151.18536
#
# Poissons Ratio (x) = -0.10176 0.47900
# Poissons Ratio (y) = -0.17026 0.13224
# Poissons Ratio (z) = 0.35717 0.05894
#
# Static dielectric constant tensor:
#      x y z
#    x 2.124670 0.000000 -1.318940 
#    y 0.000000 1.775310 0.000000 
#    z -1.318940 0.000000 8.713350 
# 
# From -- ./inp_files/110640.got.cif
#   From: 2010.05.17/outbox.cif.g08.bks.cpg/sg15_56_cif.got.tgz:110640.got - 2010.06.03 18:47:42.
