data_PCOD9268205
_publ_section_title
;
Structure prediction by ZEFSAII (Michael W. Deem and Ramdas Pophale) SiO2 
 PCOD9268205
Probable space group: C 2/C
;
_chemical_formula_sum "Si O2"
_cell_formula_units_Z 44
_cell_length_a 8.686998
_cell_length_b 11.984884
_cell_length_c 16.847987
_cell_angle_alpha 90.000000
_cell_angle_beta 74.908105
_cell_angle_gamma 90.000000
_cell_volume 1693.589349
_symmetry_space_group_name_H-M "C 2/C"
_symmetry_group_IT_number 15
_symmetry_cell_setting 'monoclinic'
loop_
_space_group_symop_operation_xyz
x,y,z
-x,y,1/2-z
-x,-y,-z
x,-y,1/2+z
1/2+x,1/2+y,z
1/2-x,1/2+y,1/2-z
1/2-x,1/2-y,-z
1/2+x,1/2-y,1/2+z
loop_
_atom_site_type_symbol
_atom_site_label
_atom_site_fract_x
_atom_site_fract_y
_atom_site_fract_z
Si Si1 0.139441 0.342748 0.552983
Si Si2 0.511416 0.881985 0.155851
Si Si3 0.746731 0.508671 0.595682
Si Si4 0.280424 0.326926 0.701723
Si Si5 0.000000 0.014621 0.750000
Si Si6 0.207384 0.732033 0.384877
O O1 0.250000 0.250000 0.500000
O O2 0.206903 0.448644 0.496388
O O3 0.171492 0.354354 0.641875
O O4 0.964819 0.294132 0.557619
O O5 0.500000 0.912145 0.250000
O O6 0.413884 0.973616 0.120358
O O7 0.407078 0.768571 0.160967
O O8 0.689752 0.841580 0.110949
O O9 0.608877 0.570728 0.666412
O O10 0.698090 0.379799 0.602017
O O11 0.373325 0.436294 0.720577
O O12 0.195680 0.276181 0.790801
#
# Coordination Sequence:
#
# PCOD9268205 Si02
#       6
#     8   8   8   8   4   8
#     4  12  25  39  64 104 137 171 226 290 352 407
#     4  10  20  41  69  92 131 180 229 278 339 407
#     4  11  23  41  68 103 134 173 238 277 345 424
#     4  10  19  44  68  90 130 184 216 274 358 398
#     4  10  22  44  70  96 138 184 228 292 338 416
#     4  10  23  45  68  91 137 187 223 288 334 416
#
# _framework density 25.980324
#
# number of rings (size 3 to 8) (size 9 to 14) (size 15 to 20)
#    0.000    1.455    6.364    1.091    0.000    7.273 
#    0.000    0.000    0.000    0.000    0.000    0.000 
#    0.000    0.000    0.000    0.000    0.000    0.000 
#
# Total GULP energy -123117.122022 kJ/mol
# GULP energy per Si atom -5596.232819 kJ/mol
# Density = 2.592119 g / cm^3
# Si number density = 25.980324 Si / 1000 Ang^3
#
#
#
# Elastic Constant Matrix: (Units=GPa)
#
#
# Indices 1 2 3 4 5 6 
#
# 1 76.2407 23.5578 49.4941 0.0000 -23.3021 0.0000
# 2 23.5578 70.1360 23.9630 0.0000 -1.8778 0.0000
# 3 49.4941 23.9630 105.3125 0.0000 -17.5224 0.0000
# 4 0.0000 0.0000 0.0000 35.7481 0.0000 -5.6043
# 5 -23.3021 -1.8778 -17.5224 0.0000 69.0055 0.0000
# 6 0.0000 0.0000 0.0000 -5.6043 0.0000 35.1538
#
#
#
# Elastic Compliance Matrix: (Units=1/GPa)
#
#
# Indices 1 2 3 4 5 6 
#
# 1 0.021268 -0.004205 -0.008210 0.000000 0.004983 0.000000
# 2 -0.004205 0.016308 -0.001980 0.000000 -0.001479 0.000000
# 3 -0.008210 -0.001980 0.013922 0.000000 0.000709 0.000000
# 4 0.000000 0.000000 0.000000 0.028691 0.000000 0.004574
# 5 0.004983 -0.001479 0.000709 0.000000 0.016314 0.000000
# 6 0.000000 0.000000 0.000000 0.004574 0.000000 0.029176
#
#
# Mechanical properties :
#
#
# Convention : Reuss Voigt Hill
#
# Bulk Modulus (GPa) = 44.03798 49.52432 46.78115
# Shear Modulus (GPa) = 30.85691 38.29310 34.57500
#
# Velocity S-wave (km/s) = 3.45005 3.84334 3.65199
# Velocity P-wave (km/s) = 5.73217 6.22886 5.98567
#
# Compressibility (1/GPa) = 0.02270767
#
# Stress axis : x y z
#
# Youngs Moduli (GPa) = 47.01842 61.32127 71.82662
#
# Poissons Ratio (x) = 0.25788 0.58966
# Poissons Ratio (y) = 0.19773 0.14224
# Poissons Ratio (z) = 0.38600 0.12144
#
# Static dielectric constant tensor:
#      x y z
#    x 2.039340 0.000000 -0.015760 
#    y 0.000000 2.095750 0.000000 
#    z -0.015760 0.000000 2.054270 
# 
# From -- ./inp_files/188734.got.cif
#   From: 2010.05.17/outbox.cif.g08.bks.cpg/sg15_95_cif.got.tgz:188734.got - 2010.06.03 18:47:42.
