data_PCOD9268472
_publ_section_title
;
Structure prediction by ZEFSAII (Michael W. Deem and Ramdas Pophale) SiO2 
 PCOD9268472
Probable space group: C 2/C
;
_chemical_formula_sum "Si O2"
_cell_formula_units_Z 52
_cell_length_a 29.812167
_cell_length_b 15.523748
_cell_length_c 16.092096
_cell_angle_alpha 90.000000
_cell_angle_beta 163.674342
_cell_angle_gamma 90.000000
_cell_volume 2093.428722
_symmetry_space_group_name_H-M "C 2/C"
_symmetry_group_IT_number 15
_symmetry_cell_setting 'monoclinic'
loop_
_space_group_symop_operation_xyz
x,y,z
-x,y,1/2-z
-x,-y,-z
x,-y,1/2+z
1/2+x,1/2+y,z
1/2-x,1/2+y,1/2-z
1/2-x,1/2-y,-z
1/2+x,1/2-y,1/2+z
loop_
_atom_site_type_symbol
_atom_site_label
_atom_site_fract_x
_atom_site_fract_y
_atom_site_fract_z
Si Si1 0.240225 0.366176 0.594790
Si Si2 0.000000 0.342385 0.750000
Si Si3 0.783283 0.324948 0.628599
Si Si4 0.666146 0.743323 0.610983
Si Si5 0.511776 0.448096 0.178081
Si Si6 0.995125 0.115282 0.415483
Si Si7 0.165516 0.545881 0.407411
O O1 0.162177 0.293116 0.515036
O O2 0.143847 0.443703 0.379650
O O3 0.340308 0.422853 0.838972
O O4 0.372900 0.337451 0.761309
O O5 0.849161 0.288017 0.449256
O O6 0.945900 0.404910 0.726495
O O7 0.750000 0.250000 0.500000
O O8 0.865074 0.297511 0.859594
O O9 0.612930 0.361928 0.352596
O O10 0.869270 0.406331 0.740515
O O11 0.553829 0.662964 0.436874
O O12 0.500000 0.477854 0.250000
O O13 0.584511 0.525876 0.254263
O O14 0.156114 0.083965 0.749432
#
# Coordination Sequence:
#
# PCOD9268472 Si02
#       7
#     8   4   8   8   8   8   8
#     4  11  19  34  55  82 116 149 186 234 293 332
#     4  10  20  32  50  84 112 146 184 232 286 324
#     4  12  18  30  50  87 116 143 187 235 279 328
#     4  11  22  31  56  89 116 143 195 240 275 337
#     4  11  19  32  54  81 114 149 189 230 280 344
#     4  10  20  35  52  83 119 150 186 238 290 335
#     4  10  20  32  52  78 121 152 177 230 294 343
#
# _framework density 24.839632999999999
#
# number of rings (size 3 to 8) (size 9 to 14) (size 15 to 20)
#    0.000    1.231    7.692    1.846    2.154    0.000 
#    0.000    0.000    1.692    3.692    0.000    0.000 
#    0.000    0.000    0.000    0.000    0.000    0.000 
#
# Total GULP energy -145121.785111 kJ/mol
# GULP energy per Si atom -5581.607120 kJ/mol
# Density = 2.478310 g / cm^3
# Si number density = 24.839633 Si / 1000 Ang^3
#
#
#
# Elastic Constant Matrix: (Units=GPa)
#
#
# Indices 1 2 3 4 5 6 
#
# 1 158.6262 63.7370 41.9797 0.0000 25.4854 0.0000
# 2 63.7370 134.6810 41.6533 0.0000 14.4039 0.0000
# 3 41.9797 41.6533 34.8062 0.0000 10.7137 0.0000
# 4 0.0000 0.0000 0.0000 31.0285 0.0000 8.8060
# 5 25.4854 14.4039 10.7137 0.0000 38.3607 0.0000
# 6 0.0000 0.0000 0.0000 8.8060 0.0000 45.8502
#
#
#
# Elastic Compliance Matrix: (Units=1/GPa)
#
#
# Indices 1 2 3 4 5 6 
#
# 1 0.009850 -0.001503 -0.009016 0.000000 -0.003462 0.000000
# 2 -0.001503 0.012027 -0.012579 0.000000 -0.000004 0.000000
# 3 -0.009016 -0.012579 0.056192 0.000000 -0.004980 0.000000
# 4 0.000000 0.000000 0.000000 0.034086 0.000000 -0.006547
# 5 -0.003462 -0.000004 -0.004980 0.000000 0.029761 0.000000
# 6 0.000000 0.000000 0.000000 -0.006547 0.000000 0.023068
#
#
# Mechanical properties :
#
#
# Convention : Reuss Voigt Hill
#
# Bulk Modulus (GPa) = 31.37501 69.20594 50.29048
# Shear Modulus (GPa) = 22.54239 35.09744 28.81991
#
# Velocity S-wave (km/s) = 3.01577 3.76302 3.40992
# Velocity P-wave (km/s) = 4.97845 6.84120 5.98276
#
# Compressibility (1/GPa) = 0.03187250
#
# Stress axis : x y z
#
# Youngs Moduli (GPa) = 101.51991 83.14623 17.79621
#
# Poissons Ratio (x) = 0.12496 0.16046
# Poissons Ratio (y) = 0.15257 0.22386
# Poissons Ratio (z) = 0.91534 1.04590
#
# Static dielectric constant tensor:
#      x y z
#    x 2.030400 0.000000 -0.032220 
#    y 0.000000 1.997030 0.000000 
#    z -0.032220 0.000000 2.003090 
# 
# From -- ./inp_files/225532.got.cif
#   From: 2010.05.17/outbox.cif.g08.bks.cpg/sg15_113_cif.got.tgz:225532.got - 2010.06.03 18:47:42.
