data_PCOD9268589
_publ_section_title
;
Structure prediction by ZEFSAII (Michael W. Deem and Ramdas Pophale) SiO2 
 PCOD9268589
Probable space group: C 2/C
;
_chemical_formula_sum "Si O2"
_cell_formula_units_Z 52
_cell_length_a 5.551226
_cell_length_b 23.322162
_cell_length_c 21.574146
_cell_angle_alpha 90.000000
_cell_angle_beta 69.161778
_cell_angle_gamma 90.000000
_cell_volume 2610.428475
_symmetry_space_group_name_H-M "C 2/C"
_symmetry_group_IT_number 15
_symmetry_cell_setting 'monoclinic'
loop_
_space_group_symop_operation_xyz
x,y,z
-x,y,1/2-z
-x,-y,-z
x,-y,1/2+z
1/2+x,1/2+y,z
1/2-x,1/2+y,1/2-z
1/2-x,1/2-y,-z
1/2+x,1/2-y,1/2+z
loop_
_atom_site_type_symbol
_atom_site_label
_atom_site_fract_x
_atom_site_fract_y
_atom_site_fract_z
Si Si1 0.410820 0.191857 0.045226
Si Si2 0.000000 0.852705 0.750000
Si Si3 0.401380 0.022235 0.830229
Si Si4 0.160384 0.797384 0.096632
Si Si5 0.093455 0.914724 0.170266
Si Si6 0.993507 0.603852 0.146130
Si Si7 0.601714 0.300305 0.862756
O O1 0.485825 0.250665 0.075453
O O2 0.440500 0.134827 0.085044
O O3 0.104686 0.195911 0.062743
O O4 0.600745 0.188313 0.970457
O O5 0.754924 0.892668 0.786119
O O6 0.029927 0.809180 0.690297
O O7 0.500000 0.016486 0.750000
O O8 0.611170 0.062270 0.847654
O O9 0.107575 0.043398 0.846969
O O10 0.411724 0.960793 0.862733
O O11 0.063973 0.856152 0.134111
O O12 0.257441 0.759143 0.144857
O O13 0.000000 0.907212 0.250000
O O14 0.207981 0.646317 0.153143
#
# Coordination Sequence:
#
# PCOD9268589 Si02
#       7
#     8   4   8   8   8   8   8
#     4   9  21  38  62  86 114 157 202 252 308 354
#     4  10  20  32  56  94 116 148 192 256 312 354
#     4  10  22  40  61  88 122 163 202 247 304 364
#     4  10  21  40  59  84 120 159 203 247 300 368
#     4  10  24  40  62  89 122 165 202 244 304 364
#     4  10  21  36  60  89 117 151 199 254 303 356
#     4  10  20  34  58  88 117 153 196 252 310 354
#
# _framework density 19.920100000000001
#
# number of rings (size 3 to 8) (size 9 to 14) (size 15 to 20)
#    0.000    2.154    0.000    1.846    9.692    3.692 
#    1.385    1.538    0.000    0.000    0.000    0.000 
#    0.000    0.000    0.000    0.000    0.000    0.000 
#
# Total GULP energy -144758.403363 kJ/mol
# GULP energy per Si atom -5567.630899 kJ/mol
# Density = 1.987476 g / cm^3
# Si number density = 19.920100 Si / 1000 Ang^3
#
#
#
# Elastic Constant Matrix: (Units=GPa)
#
#
# Indices 1 2 3 4 5 6 
#
# 1 66.5081 31.9309 20.0569 0.0000 -12.5587 0.0000
# 2 31.9309 124.7098 28.0114 0.0000 1.6736 0.0000
# 3 20.0569 28.0114 44.4445 0.0000 -9.9866 0.0000
# 4 0.0000 0.0000 0.0000 24.8742 0.0000 -12.3019
# 5 -12.5587 1.6736 -9.9866 0.0000 26.3937 0.0000
# 6 0.0000 0.0000 0.0000 -12.3019 0.0000 196.0956
#
#
#
# Elastic Compliance Matrix: (Units=1/GPa)
#
#
# Indices 1 2 3 4 5 6 
#
# 1 0.019936 -0.004190 -0.004552 0.000000 0.008029 0.000000
# 2 -0.004190 0.010457 -0.005789 0.000000 -0.004847 0.000000
# 3 -0.004552 -0.005789 0.030381 0.000000 0.009696 0.000000
# 4 0.000000 0.000000 0.000000 0.041490 0.000000 0.002603
# 5 0.008029 -0.004847 0.009696 0.000000 0.045685 0.000000
# 6 0.000000 0.000000 0.000000 0.002603 0.000000 0.005263
#
#
# Mechanical properties :
#
#
# Convention : Reuss Voigt Hill
#
# Bulk Modulus (GPa) = 31.53257 43.96232 37.74744
# Shear Modulus (GPa) = 25.92781 59.85026 42.88904
#
# Velocity S-wave (km/s) = 3.61167 5.48729 4.64513
# Velocity P-wave (km/s) = 5.76681 7.89078 6.91088
#
# Compressibility (1/GPa) = 0.03171324
#
# Stress axis : x y z
#
# Youngs Moduli (GPa) = 50.15987 95.63296 32.91497
#
# Poissons Ratio (x) = 0.40069 0.14983
# Poissons Ratio (y) = 0.21016 0.19053
# Poissons Ratio (z) = 0.22833 0.55359
#
# Static dielectric constant tensor:
#      x y z
#    x 1.870770 0.000000 0.017940 
#    y 0.000000 1.676590 0.000000 
#    z 0.017940 0.000000 1.744740 
# 
# From -- ./inp_files/261109.got.cif
#   From: 2010.05.17/outbox.cif.g08.bks.cpg/sg15_131_cif.got.tgz:261109.got - 2010.06.03 18:47:42.
