data_PCOD9268064
_publ_section_title
;
Structure prediction by ZEFSAII (Michael W. Deem and Ramdas Pophale) SiO2 
 PCOD9268064
Probable space group: C 2/C
;
_chemical_formula_sum "Si O2"
_cell_formula_units_Z 60
_cell_length_a 24.283114
_cell_length_b 7.978695
_cell_length_c 15.187678
_cell_angle_alpha 90.000000
_cell_angle_beta 116.913493
_cell_angle_gamma 90.000000
_cell_volume 2623.868018
_symmetry_space_group_name_H-M "C 2/C"
_symmetry_group_IT_number 15
_symmetry_cell_setting 'monoclinic'
loop_
_space_group_symop_operation_xyz
x,y,z
-x,y,1/2-z
-x,-y,-z
x,-y,1/2+z
1/2+x,1/2+y,z
1/2-x,1/2+y,1/2-z
1/2-x,1/2-y,-z
1/2+x,1/2-y,1/2+z
loop_
_atom_site_type_symbol
_atom_site_label
_atom_site_fract_x
_atom_site_fract_y
_atom_site_fract_z
Si Si1 0.308400 0.489516 0.986227
Si Si2 0.435752 0.628578 0.546334
Si Si3 0.008741 0.758136 0.940382
Si Si4 0.416539 0.934235 0.260466
Si Si5 0.754087 0.007244 0.630911
Si Si6 0.631076 0.859973 0.469708
Si Si7 0.715549 0.865937 0.283235
Si Si8 0.500000 0.212879 0.250000
O O1 0.362233 0.378398 0.983389
O O2 0.290558 0.430946 0.071226
O O3 0.338266 0.675583 0.015386
O O4 0.250617 0.518428 0.880502
O O5 0.464569 0.444490 0.552953
O O6 0.468407 0.745314 0.498789
O O7 0.454002 0.681807 0.657033
O O8 0.963589 0.706940 0.828556
O O9 0.070026 0.645674 0.985186
O O10 0.392315 0.905735 0.143999
O O11 0.354731 0.928913 0.273699
O O12 0.457900 0.099911 0.283694
O O13 0.684762 0.975017 0.546090
O O14 0.781051 0.825199 0.679681
O O15 0.750765 0.118367 0.715873
#
# Coordination Sequence:
#
# PCOD9268064 Si02
#       8
#     8   8   8   8   8   8   8   4
#     4  10  21  45  69  92 132 176 229 274 326 406
#     4  10  26  44  67 101 131 173 231 285 326 392
#     4  10  23  44  71  96 128 178 230 272 333 411
#     4  12  23  42  67  97 136 176 216 267 352 408
#     4  11  23  43  68  97 135 174 227 279 327 412
#     4  10  19  41  70  94 125 176 217 267 331 409
#     4  11  25  42  67 101 127 180 225 270 347 399
#     4  12  28  40  62 104 138 168 220 280 342 398
#
# _framework density 22.867003
#
# number of rings (size 3 to 8) (size 9 to 14) (size 15 to 20)
#    0.000    1.333    4.000    0.800    7.467    2.667 
#    4.800    1.333    0.000    0.000    0.000    0.000 
#    0.000    0.000    0.000    0.000    0.000    0.000 
#
# Total GULP energy -167865.001534 kJ/mol
# GULP energy per Si atom -5595.500051 kJ/mol
# Density = 2.281496 g / cm^3
# Si number density = 22.867003 Si / 1000 Ang^3
#
#
#
# Elastic Constant Matrix: (Units=GPa)
#
#
# Indices 1 2 3 4 5 6 
#
# 1 148.0370 18.5758 22.3116 0.0000 -5.7940 0.0000
# 2 18.5758 29.8008 1.8164 0.0000 -2.4279 0.0000
# 3 22.3116 1.8164 67.0172 0.0000 -5.8891 0.0000
# 4 0.0000 0.0000 0.0000 15.5834 0.0000 -3.4647
# 5 -5.7940 -2.4279 -5.8891 0.0000 46.1593 0.0000
# 6 0.0000 0.0000 0.0000 -3.4647 0.0000 14.1242
#
#
#
# Elastic Compliance Matrix: (Units=1/GPa)
#
#
# Indices 1 2 3 4 5 6 
#
# 1 0.007715 -0.004628 -0.002406 0.000000 0.000418 0.000000
# 2 -0.004628 0.036516 0.000676 0.000000 0.001426 0.000000
# 3 -0.002406 0.000676 0.015859 0.000000 0.001757 0.000000
# 4 0.000000 0.000000 0.000000 0.067873 0.000000 0.016649
# 5 0.000418 0.001426 0.001757 0.000000 0.022016 0.000000
# 6 0.000000 0.000000 0.000000 0.016649 0.000000 0.074884
#
#
# Mechanical properties :
#
#
# Convention : Reuss Voigt Hill
#
# Bulk Modulus (GPa) = 21.10885 36.69582 28.90233
# Shear Modulus (GPa) = 19.73404 28.65012 24.19208
#
# Velocity S-wave (km/s) = 2.94086 3.54348 3.25614
# Velocity P-wave (km/s) = 4.55881 5.72922 5.17719
#
# Compressibility (1/GPa) = 0.04737349
#
# Stress axis : x y z
#
# Youngs Moduli (GPa) = 129.62029 27.38524 63.05685
#
# Poissons Ratio (x) = 0.12674 0.15173
# Poissons Ratio (y) = 0.59991 -0.04265
# Poissons Ratio (z) = 0.31190 -0.01852
#
# Static dielectric constant tensor:
#      x y z
#    x 1.864390 0.000000 -0.031900 
#    y 0.000000 1.858100 0.000000 
#    z -0.031900 0.000000 1.797090 
# 
# From -- ./inp_files/172433.got.cif
#   From: 2010.05.17/outbox.cif.g08.bks.cpg/sg15_87_cif.got.tgz:172433.got - 2010.06.03 18:47:42.
