data_PCOD9268196
_publ_section_title
;
Structure prediction by ZEFSAII (Michael W. Deem and Ramdas Pophale) SiO2 
 PCOD9268196
Probable space group: C 2/C
;
_chemical_formula_sum "Si O2"
_cell_formula_units_Z 44
_cell_length_a 9.498025
_cell_length_b 10.726191
_cell_length_c 18.204963
_cell_angle_alpha 90.000000
_cell_angle_beta 65.396110
_cell_angle_gamma 90.000000
_cell_volume 1686.288231
_symmetry_space_group_name_H-M "C 2/C"
_symmetry_group_IT_number 15
_symmetry_cell_setting 'monoclinic'
loop_
_space_group_symop_operation_xyz
x,y,z
-x,y,1/2-z
-x,-y,-z
x,-y,1/2+z
1/2+x,1/2+y,z
1/2-x,1/2+y,1/2-z
1/2-x,1/2-y,-z
1/2+x,1/2-y,1/2+z
loop_
_atom_site_type_symbol
_atom_site_label
_atom_site_fract_x
_atom_site_fract_y
_atom_site_fract_z
Si Si1 0.705279 0.562294 0.118465
Si Si2 0.750000 0.750000 0.500000
Si Si3 0.785811 0.738750 0.755579
Si Si4 0.060664 0.512398 0.075889
Si Si5 0.500000 0.365034 0.250000
Si Si6 0.997019 0.223822 0.072887
Si Si7 0.500000 0.015106 0.750000
O O1 0.682449 0.670674 0.184458
O O2 0.889723 0.540773 0.079733
O O3 0.613539 0.445194 0.172963
O O4 0.622088 0.618599 0.064995
O O5 0.692130 0.896388 0.517184
O O6 0.907935 0.781307 0.515511
O O7 0.607760 0.715838 0.778574
O O8 0.865638 0.788933 0.664594
O O9 0.859793 0.605155 0.756759
O O10 0.070284 0.361557 0.070987
O O11 0.051026 0.549116 0.164389
#
# Coordination Sequence:
#
# PCOD9268196 Si02
#       7
#     8   4   8   8   4   8   4
#     4  12  23  41  74 103 137 180 224 290 356 390
#     4  12  30  46  72  96 142 200 220 276 352 418
#     4  11  22  40  69 109 137 172 226 297 341 400
#     4  11  26  46  69 101 138 181 235 287 337 411
#     4  12  23  37  66 114 140 162 225 291 352 402
#     4  11  24  47  65  98 143 178 232 277 340 419
#     4  10  19  43  72  98 138 172 221 301 338 380
#
# _framework density 26.092808999999999
#
# number of rings (size 3 to 8) (size 9 to 14) (size 15 to 20)
#    0.000    0.727    9.091    0.545    7.636    0.727 
#    0.000    1.818    0.000    0.000    0.000    0.000 
#    0.000    0.000    0.000    0.000    0.000    0.000 
#
# Total GULP energy -122851.802553 kJ/mol
# GULP energy per Si atom -5584.172843 kJ/mol
# Density = 2.603342 g / cm^3
# Si number density = 26.092809 Si / 1000 Ang^3
#
#
#
# Elastic Constant Matrix: (Units=GPa)
#
#
# Indices 1 2 3 4 5 6 
#
# 1 176.0845 49.7466 29.3476 0.0000 10.5467 0.0000
# 2 49.7466 87.5564 12.9132 0.0000 -12.4057 0.0000
# 3 29.3476 12.9132 52.0007 0.0000 3.3856 0.0000
# 4 0.0000 0.0000 0.0000 32.6902 0.0000 -12.2202
# 5 10.5467 -12.4057 3.3856 0.0000 48.4474 0.0000
# 6 0.0000 0.0000 0.0000 -12.2202 0.0000 62.1097
#
#
#
# Elastic Compliance Matrix: (Units=1/GPa)
#
#
# Indices 1 2 3 4 5 6 
#
# 1 0.007515 -0.004174 -0.003042 0.000000 -0.002492 0.000000
# 2 -0.004174 0.014708 -0.001609 0.000000 0.004787 0.000000
# 3 -0.003042 -0.001609 0.021428 0.000000 -0.001247 0.000000
# 4 0.000000 0.000000 0.000000 0.033019 0.000000 0.006496
# 5 -0.002492 0.004787 -0.001247 0.000000 0.022496 0.000000
# 6 0.000000 0.000000 0.000000 0.006496 0.000000 0.017379
#
#
# Mechanical properties :
#
#
# Convention : Reuss Voigt Hill
#
# Bulk Modulus (GPa) = 38.45930 55.51738 46.98834
# Shear Modulus (GPa) = 34.99893 43.55841 39.27867
#
# Velocity S-wave (km/s) = 3.66638 4.09022 3.88409
# Velocity P-wave (km/s) = 5.71792 6.60527 6.17755
#
# Compressibility (1/GPa) = 0.02600151
#
# Stress axis : x y z
#
# Youngs Moduli (GPa) = 133.07413 67.98899 46.66775
#
# Poissons Ratio (x) = 0.28378 0.14197
# Poissons Ratio (y) = 0.55545 0.07507
# Poissons Ratio (z) = 0.40484 0.10936
#
# Static dielectric constant tensor:
#      x y z
#    x 1.983160 0.000000 0.001570 
#    y 0.000000 1.978000 0.000000 
#    z 0.001570 0.000000 2.255760 
# 
# From -- ./inp_files/230171.got.cif
#   From: 2010.05.17/outbox.cif.g08.bks.cpg/sg15_116_cif.got.tgz:230171.got - 2010.06.03 18:47:42.
