data_PCOD9268752
_publ_section_title
;
Structure prediction by ZEFSAII (Michael W. Deem and Ramdas Pophale) SiO2 
 PCOD9268752
Probable space group: C 2/C
;
_chemical_formula_sum "Si O2"
_cell_formula_units_Z 64
_cell_length_a 26.486517
_cell_length_b 11.506087
_cell_length_c 12.314138
_cell_angle_alpha 90.000000
_cell_angle_beta 85.361667
_cell_angle_gamma 90.000000
_cell_volume 3740.519067
_symmetry_space_group_name_H-M "C 2/C"
_symmetry_group_IT_number 15
_symmetry_cell_setting 'monoclinic'
loop_
_space_group_symop_operation_xyz
x,y,z
-x,y,1/2-z
-x,-y,-z
x,-y,1/2+z
1/2+x,1/2+y,z
1/2-x,1/2+y,1/2-z
1/2-x,1/2-y,-z
1/2+x,1/2-y,1/2+z
loop_
_atom_site_type_symbol
_atom_site_label
_atom_site_fract_x
_atom_site_fract_y
_atom_site_fract_z
Si Si1 0.199744 0.454722 0.005000
Si Si2 0.575679 0.403082 0.689679
Si Si3 0.311709 0.581468 0.568892
Si Si4 0.331821 0.745222 0.356934
Si Si5 0.279564 0.208261 0.204709
Si Si6 0.884677 0.102617 0.976863
Si Si7 0.303227 0.202199 0.445373
Si Si8 0.480124 0.600182 0.082562
O O1 0.256400 0.465482 0.045714
O O2 0.168593 0.375503 0.095540
O O3 0.181050 0.585201 0.994739
O O4 0.205151 0.383144 0.891954
O O5 0.618450 0.307189 0.705929
O O6 0.598467 0.514035 0.622033
O O7 0.548528 0.442822 0.804324
O O8 0.531988 0.345689 0.620372
O O9 0.325273 0.665869 0.465936
O O10 0.304868 0.666948 0.671684
O O11 0.353423 0.481271 0.565517
O O12 0.280979 0.726727 0.295994
O O13 0.295118 0.170599 0.320793
O O14 0.845427 0.199142 0.946667
O O15 0.934971 0.157711 0.021519
O O16 0.250000 0.250000 0.500000
O O17 0.500000 0.500000 0.000000
#
# Coordination Sequence:
#
# PCOD9268752 Si02
#       8
#     8   8   8   8   8   8   8   8
#     4   9  18  36  49  72 111 147 187 214 251 322
#     4   9  18  34  57  80 100 139 183 216 277 329
#     4   8  15  33  52  72 102 143 185 209 253 322
#     4   8  16  32  56  75  96 143 190 216 252 317
#     4   9  20  34  53  71 107 154 181 216 260 307
#     4  10  20  33  51  81 115 138 170 226 268 316
#     4  12  24  33  46  83 116 144 183 217 258 320
#     4   9  19  34  53  80 108 132 170 230 284 321
#
# _framework density 17.109926000000002
#
# number of rings (size 3 to 8) (size 9 to 14) (size 15 to 20)
#    0.000    2.750    1.250    1.500    3.500    2.000 
#    0.000    0.000    0.000    0.750    0.000    7.000 
#    0.000    0.000    0.000    0.000    0.000    0.000 
#
# Total GULP energy -178138.914185 kJ/mol
# GULP energy per Si atom -5566.841068 kJ/mol
# Density = 1.707098 g / cm^3
# Si number density = 17.109926 Si / 1000 Ang^3
#
#
#
# Elastic Constant Matrix: (Units=GPa)
#
#
# Indices 1 2 3 4 5 6 
#
# 1 88.1577 39.8447 29.6937 0.0000 -3.7033 0.0000
# 2 39.8447 81.8363 18.0352 0.0000 -2.5737 0.0000
# 3 29.6937 18.0352 60.3421 0.0000 -4.8770 0.0000
# 4 0.0000 0.0000 0.0000 12.3669 0.0000 0.2399
# 5 -3.7033 -2.5737 -4.8770 0.0000 25.1568 0.0000
# 6 0.0000 0.0000 0.0000 0.2399 0.0000 18.8432
#
#
#
# Elastic Compliance Matrix: (Units=1/GPa)
#
#
# Indices 1 2 3 4 5 6 
#
# 1 0.016401 -0.006636 -0.006042 0.000000 0.000564 0.000000
# 2 -0.006636 0.015775 -0.001420 0.000000 0.000362 0.000000
# 3 -0.006042 -0.001420 0.020203 0.000000 0.002882 0.000000
# 4 0.000000 0.000000 0.000000 0.080881 0.000000 -0.001030
# 5 0.000564 0.000362 0.002882 0.000000 0.040429 0.000000
# 6 0.000000 0.000000 0.000000 -0.001030 0.000000 0.053083
#
#
# Mechanical properties :
#
#
# Convention : Reuss Voigt Hill
#
# Bulk Modulus (GPa) = 41.35190 45.05370 43.20280
# Shear Modulus (GPa) = 19.00930 20.79089 19.90009
#
# Velocity S-wave (km/s) = 3.33680 3.48966 3.41409
# Velocity P-wave (km/s) = 6.25032 6.52886 6.39111
#
# Compressibility (1/GPa) = 0.02418269
#
# Stress axis : x y z
#
# Youngs Moduli (GPa) = 60.97008 63.39174 49.49843
#
# Poissons Ratio (x) = 0.42069 0.29906
# Poissons Ratio (y) = 0.40462 0.07029
# Poissons Ratio (z) = 0.36838 0.09001
#
# Static dielectric constant tensor:
#      x y z
#    x 1.617090 0.000000 -0.000740 
#    y 0.000000 1.598850 0.000000 
#    z -0.000740 0.000000 1.611490 
# 
# From -- ./inp_files/117600.got.cif
#   From: 2010.05.17/outbox.cif.g08.bks.cpg/sg15_59_cif.got.tgz:117600.got - 2010.06.03 18:47:42.
