data_PCOD9268493
_publ_section_title
;
Structure prediction by ZEFSAII (Michael W. Deem and Ramdas Pophale) SiO2 
 PCOD9268493
Probable space group: C 2/C
;
_chemical_formula_sum "Si O2"
_cell_formula_units_Z 60
_cell_length_a 18.972009
_cell_length_b 30.886497
_cell_length_c 5.564282
_cell_angle_alpha 90.000000
_cell_angle_beta 62.408251
_cell_angle_gamma 90.000000
_cell_volume 2889.730219
_symmetry_space_group_name_H-M "C 2/C"
_symmetry_group_IT_number 15
_symmetry_cell_setting 'monoclinic'
loop_
_space_group_symop_operation_xyz
x,y,z
-x,y,1/2-z
-x,-y,-z
x,-y,1/2+z
1/2+x,1/2+y,z
1/2-x,1/2+y,1/2-z
1/2-x,1/2-y,-z
1/2+x,1/2-y,1/2+z
loop_
_atom_site_type_symbol
_atom_site_label
_atom_site_fract_x
_atom_site_fract_y
_atom_site_fract_z
Si Si1 0.354473 0.342763 0.068818
Si Si2 0.954347 0.078713 0.565030
Si Si3 0.790005 0.973635 0.394756
Si Si4 0.247170 0.183021 0.165118
Si Si5 0.790265 0.387146 0.989450
Si Si6 0.890703 0.321001 0.057325
Si Si7 0.000000 0.713281 0.750000
Si Si8 0.649045 0.749336 0.764920
O O1 0.427147 0.372946 0.025922
O O2 0.279411 0.374885 0.212096
O O3 0.346452 0.302163 0.260590
O O4 0.337252 0.321524 0.835553
O O5 0.875487 0.050732 0.745609
O O6 0.000000 0.080194 0.750000
O O7 0.000000 0.061677 0.250000
O O8 0.720088 0.937759 0.525893
O O9 0.785325 0.001226 0.647960
O O10 0.263030 0.141338 0.304703
O O11 0.270942 0.228313 0.256033
O O12 0.318235 0.181544 0.859114
O O13 0.872146 0.365199 0.944032
O O14 0.971962 0.316505 0.073598
O O15 0.877973 0.279192 0.911719
O O16 0.075148 0.742303 0.563455
#
# Coordination Sequence:
#
# PCOD9268493 Si02
#       8
#     8   8   8   8   8   8   4   8
#     4  10  22  34  57  78 118 159 207 257 298 348
#     4  11  26  43  61  88 123 167 210 248 308 370
#     4  11  25  42  70  95 120 152 197 261 318 379
#     4   9  19  35  57  79 110 153 199 253 308 353
#     4   9  21  37  59  85 116 146 196 248 314 368
#     4   9  19  35  54  81 118 153 199 245 292 357
#     4  10  20  32  52  78 116 162 202 236 284 346
#     4  10  20  34  51  83 117 156 209 250 293 344
#
# _framework density 20.763185
#
# number of rings (size 3 to 8) (size 9 to 14) (size 15 to 20)
#    0.000    2.133    0.000    1.600   10.267    9.600 
#    0.000    0.000    0.000    0.000    0.000    0.933 
#    0.000    0.000    0.000    0.000    0.000    0.000 
#
# Total GULP energy -167219.263484 kJ/mol
# GULP energy per Si atom -5573.975449 kJ/mol
# Density = 2.071593 g / cm^3
# Si number density = 20.763185 Si / 1000 Ang^3
#
#
#
# Elastic Constant Matrix: (Units=GPa)
#
#
# Indices 1 2 3 4 5 6 
#
# 1 102.6327 50.0066 18.5118 0.0000 32.0873 0.0000
# 2 50.0066 130.2657 33.8536 0.0000 17.1755 0.0000
# 3 18.5118 33.8536 69.9228 0.0000 21.5023 0.0000
# 4 0.0000 0.0000 0.0000 25.0642 0.0000 -3.6855
# 5 32.0873 17.1755 21.5023 0.0000 33.0152 0.0000
# 6 0.0000 0.0000 0.0000 -3.6855 0.0000 26.1794
#
#
#
# Elastic Compliance Matrix: (Units=1/GPa)
#
#
# Indices 1 2 3 4 5 6 
#
# 1 0.016430 -0.005022 0.002737 0.000000 -0.015137 0.000000
# 2 -0.005022 0.010453 -0.004451 0.000000 0.002343 0.000000
# 3 0.002737 -0.004451 0.019804 0.000000 -0.013243 0.000000
# 4 0.000000 0.000000 0.000000 0.040741 0.000000 0.005735
# 5 -0.015137 0.002343 -0.013243 0.000000 0.052407 0.000000
# 6 0.000000 0.000000 0.000000 0.005735 0.000000 0.039005
#
#
# Mechanical properties :
#
#
# Convention : Reuss Voigt Hill
#
# Bulk Modulus (GPa) = 30.10892 56.39613 43.25253
# Shear Modulus (GPa) = 24.58398 30.21504 27.39951
#
# Velocity S-wave (km/s) = 3.44469 3.81888 3.63660
# Velocity P-wave (km/s) = 5.50943 6.83123 6.20562
#
# Compressibility (1/GPa) = 0.03321274
#
# Stress axis : x y z
#
# Youngs Moduli (GPa) = 60.86599 95.67000 50.49398
#
# Poissons Ratio (x) = 0.48049 -0.13820
# Poissons Ratio (y) = 0.30569 0.22477
# Poissons Ratio (z) = -0.16659 0.42587
#
# Static dielectric constant tensor:
#      x y z
#    x 1.789480 0.000000 0.036570 
#    y 0.000000 1.771700 0.000000 
#    z 0.036570 0.000000 1.880150 
# 
# From -- ./inp_files/12147.got.cif
#   From: 2010.05.17/outbox.cif.g08.bks.cpg/sg15_7_cif.got.tgz:12147.got - 2010.06.03 18:47:42.
