data_PCOD9268888
_publ_section_title
;
Structure prediction by ZEFSAII (Michael W. Deem and Ramdas Pophale) SiO2 
 PCOD9268888
Probable space group: C 2/C
;
_chemical_formula_sum "Si O2"
_cell_formula_units_Z 60
_cell_length_a 6.746436
_cell_length_b 20.185859
_cell_length_c 28.783633
_cell_angle_alpha 90.000000
_cell_angle_beta 54.037880
_cell_angle_gamma 90.000000
_cell_volume 3172.731769
_symmetry_space_group_name_H-M "C 2/C"
_symmetry_group_IT_number 15
_symmetry_cell_setting 'monoclinic'
loop_
_space_group_symop_operation_xyz
x,y,z
-x,y,1/2-z
-x,-y,-z
x,-y,1/2+z
1/2+x,1/2+y,z
1/2-x,1/2+y,1/2-z
1/2-x,1/2-y,-z
1/2+x,1/2-y,1/2+z
loop_
_atom_site_type_symbol
_atom_site_label
_atom_site_fract_x
_atom_site_fract_y
_atom_site_fract_z
Si Si1 0.646308 0.517518 0.683071
Si Si2 0.608006 0.706123 0.980973
Si Si3 0.574813 0.218102 0.084576
Si Si4 0.269013 0.607578 0.693614
Si Si5 0.570442 0.882129 0.121262
Si Si6 0.000000 0.336510 0.750000
Si Si7 0.241257 0.129959 0.197030
Si Si8 0.132143 0.214687 0.669788
O O1 0.500000 0.538654 0.750000
O O2 0.465282 0.548450 0.670198
O O3 0.668074 0.438859 0.683552
O O4 0.915030 0.549831 0.641056
O O5 0.560429 0.750985 0.941319
O O6 0.768240 0.642562 0.944167
O O7 0.750000 0.750000 0.000000
O O8 0.333389 0.686209 0.034208
O O9 0.394743 0.171804 0.139227
O O10 0.656398 0.272068 0.111594
O O11 0.233037 0.622088 0.644626
O O12 0.384701 0.670369 0.705557
O O13 0.000000 0.590804 0.750000
O O14 0.354734 0.828891 0.155790
O O15 0.879944 0.381581 0.726856
O O16 0.863182 0.282728 0.802003
O O17 0.000000 0.167022 0.250000
#
# Coordination Sequence:
#
# PCOD9268888 Si02
#       8
#     8   8   8   8   8   4   8   8
#     4  10  22  39  56  87 120 161 207 236 291 366
#     4  11  22  39  62  87 121 156 200 253 309 352
#     4  10  22  38  60  90 120 154 200 243 301 369
#     4  11  20  33  58  87 125 154 194 251 300 351
#     4  11  21  35  61  86 120 156 194 253 303 348
#     4  10  22  34  60  84 128 154 190 238 302 366
#     4  10  24  41  59  86 125 164 198 240 296 359
#     4  10  20  33  54  97 117 147 196 238 307 372
#
# _framework density 18.911148000000001
#
# number of rings (size 3 to 8) (size 9 to 14) (size 15 to 20)
#    0.000    1.600    4.000    0.800    3.733    4.267 
#    0.000    0.667    0.000    1.600    0.000    0.000 
#    0.000    0.000    0.000    0.000    0.000    0.000 
#
# Total GULP energy -167122.103978 kJ/mol
# GULP energy per Si atom -5570.736799 kJ/mol
# Density = 1.886811 g / cm^3
# Si number density = 18.911148 Si / 1000 Ang^3
#
#
#
# Elastic Constant Matrix: (Units=GPa)
#
#
# Indices 1 2 3 4 5 6 
#
# 1 100.2146 31.3859 43.0487 0.0000 7.6000 0.0000
# 2 31.3859 56.2935 26.7206 0.0000 -6.6966 0.0000
# 3 43.0487 26.7206 109.9743 0.0000 -8.6491 0.0000
# 4 0.0000 0.0000 0.0000 22.8236 0.0000 -5.6045
# 5 7.6000 -6.6966 -8.6491 0.0000 41.0856 0.0000
# 6 0.0000 0.0000 0.0000 -5.6045 0.0000 14.2193
#
#
#
# Elastic Compliance Matrix: (Units=1/GPa)
#
#
# Indices 1 2 3 4 5 6 
#
# 1 0.014205 -0.006392 -0.004368 0.000000 -0.004589 0.000000
# 2 -0.006392 0.023169 -0.002783 0.000000 0.004373 0.000000
# 3 -0.004368 -0.002783 0.011701 0.000000 0.002818 0.000000
# 4 0.000000 0.000000 0.000000 0.048509 0.000000 0.019120
# 5 -0.004589 0.004373 0.002818 0.000000 0.026494 0.000000
# 6 0.000000 0.000000 0.000000 0.019120 0.000000 0.077863
#
#
# Mechanical properties :
#
#
# Convention : Reuss Voigt Hill
#
# Bulk Modulus (GPa) = 45.48056 52.08808 48.78432
# Shear Modulus (GPa) = 21.15428 26.64751 23.90090
#
# Velocity S-wave (km/s) = 3.34820 3.75786 3.55893
# Velocity P-wave (km/s) = 6.24892 6.81411 6.53763
#
# Compressibility (1/GPa) = 0.02198741
#
# Stress axis : x y z
#
# Youngs Moduli (GPa) = 70.39751 43.16038 85.46422
#
# Poissons Ratio (x) = 0.27590 0.37333
# Poissons Ratio (y) = 0.45001 0.23788
# Poissons Ratio (z) = 0.30751 0.12013
#
# Static dielectric constant tensor:
#      x y z
#    x 1.718970 0.000000 -0.004140 
#    y 0.000000 1.679880 0.000000 
#    z -0.004140 0.000000 1.709050 
# 
# From -- ./inp_files/286669.got.cif
#   From: 2010.05.17/outbox.cif.g08.bks.cpg/sg15_144_cif.got.tgz:286669.got - 2010.06.03 18:47:42.
