data_PCOD9268013
_publ_section_title
;
Structure prediction by ZEFSAII (Michael W. Deem and Ramdas Pophale) SiO2 
 PCOD9268013
Probable space group: C 2/C
;
_chemical_formula_sum "Si O2"
_cell_formula_units_Z 44
_cell_length_a 19.139746
_cell_length_b 7.132242
_cell_length_c 17.558303
_cell_angle_alpha 90.000000
_cell_angle_beta 70.520219
_cell_angle_gamma 90.000000
_cell_volume 2259.672875
_symmetry_space_group_name_H-M "C 2/C"
_symmetry_group_IT_number 15
_symmetry_cell_setting 'monoclinic'
loop_
_space_group_symop_operation_xyz
x,y,z
-x,y,1/2-z
-x,-y,-z
x,-y,1/2+z
1/2+x,1/2+y,z
1/2-x,1/2+y,1/2-z
1/2-x,1/2-y,-z
1/2+x,1/2-y,1/2+z
loop_
_atom_site_type_symbol
_atom_site_label
_atom_site_fract_x
_atom_site_fract_y
_atom_site_fract_z
Si Si1 0.184086 0.940468 0.607394
Si Si2 0.434570 0.388681 0.722555
Si Si3 0.500000 0.963758 0.250000
Si Si4 0.535941 0.362981 0.425190
Si Si5 0.103311 0.679904 0.108520
Si Si6 0.652447 0.157328 0.482891
O O1 0.135155 0.871978 0.696548
O O2 0.269911 0.890295 0.585720
O O3 0.160758 0.831074 0.538813
O O4 0.162772 0.158464 0.604497
O O5 0.500000 0.483229 0.750000
O O6 0.422111 0.508291 0.652246
O O7 0.470515 0.182720 0.696349
O O8 0.568649 0.083178 0.195819
O O9 0.500000 0.500000 0.500000
O O10 0.467686 0.267736 0.407269
O O11 0.589432 0.215042 0.446368
O O12 0.134474 0.520177 0.042151
#
# Coordination Sequence:
#
# PCOD9268013 Si02
#       6
#     8   8   4   8   8   8
#     4  11  22  43  66  89 133 172 211 267 327 399
#     4  10  19  41  66  90 125 170 217 269 325 386
#     4  10  20  36  66 102 112 164 236 266 306 396
#     4  12  22  40  64  95 131 166 215 278 321 377
#     4  12  20  39  67  93 123 170 221 264 321 388
#     4  11  24  40  63 100 127 169 215 266 332 391
#
# _framework density 19.471844000000001
#
# number of rings (size 3 to 8) (size 9 to 14) (size 15 to 20)
#    0.545    0.364    5.455    3.273    0.000    0.000 
#    0.000    3.636    0.000    0.000    0.000    0.000 
#    0.000    0.000    0.000    0.000    0.000    0.000 
#
# Total GULP energy -122817.621092 kJ/mol
# GULP energy per Si atom -5582.619141 kJ/mol
# Density = 1.942753 g / cm^3
# Si number density = 19.471844 Si / 1000 Ang^3
#
#
#
# Elastic Constant Matrix: (Units=GPa)
#
#
# Indices 1 2 3 4 5 6 
#
# 1 53.7705 8.0878 17.3777 0.0000 -16.1095 0.0001
# 2 8.0878 97.1100 18.6138 0.0002 -8.2534 0.0003
# 3 17.3777 18.6138 80.8833 0.0000 -28.5210 0.0000
# 4 0.0000 0.0002 0.0000 24.1593 0.0000 -12.2276
# 5 -16.1095 -8.2534 -28.5210 0.0000 35.6359 0.0000
# 6 0.0001 0.0003 0.0000 -12.2276 0.0000 20.3046
#
#
#
# Elastic Compliance Matrix: (Units=1/GPa)
#
#
# Indices 1 2 3 4 5 6 
#
# 1 0.021732 -0.000804 -0.001512 0.000000 0.008428 0.000000
# 2 -0.000804 0.010816 -0.002175 0.000000 0.000401 0.000000
# 3 -0.001512 -0.002175 0.017791 0.000000 0.013052 0.000000
# 4 0.000000 0.000000 0.000000 0.059539 0.000000 0.035855
# 5 0.008428 0.000401 0.013052 0.000000 0.042410 0.000000
# 6 0.000000 0.000000 0.000000 0.035855 0.000000 0.070842
#
#
# Mechanical properties :
#
#
# Convention : Reuss Voigt Hill
#
# Bulk Modulus (GPa) = 24.18004 35.54696 29.86350
# Shear Modulus (GPa) = 20.33367 28.53227 24.43297
#
# Velocity S-wave (km/s) = 3.23501 3.83209 3.54614
# Velocity P-wave (km/s) = 5.13796 6.15427 5.66894
#
# Compressibility (1/GPa) = 0.04135643
#
# Stress axis : x y z
#
# Youngs Moduli (GPa) = 46.01485 92.45987 56.20749
#
# Poissons Ratio (x) = 0.07432 0.08501
# Poissons Ratio (y) = 0.03699 0.12225
# Poissons Ratio (z) = 0.06959 0.20110
#
# Static dielectric constant tensor:
#      x y z
#    x 1.669910 0.000000 -0.003550 
#    y 0.000000 1.738470 0.000000 
#    z -0.003550 0.000000 1.712900 
# 
# From -- ./inp_files/212830.got.cif
#   From: 2010.05.17/outbox.cif.g08.bks.cpg/sg15_107_cif.got.tgz:212830.got - 2010.06.03 18:47:42.
