data_PCOD9268552
_publ_section_title
;
Structure prediction by ZEFSAII (Michael W. Deem and Ramdas Pophale) SiO2 
 PCOD9268552
Probable space group: C 2/C
;
_chemical_formula_sum "Si O2"
_cell_formula_units_Z 60
_cell_length_a 26.796520
_cell_length_b 18.273507
_cell_length_c 5.572534
_cell_angle_alpha 90.000000
_cell_angle_beta 83.821223
_cell_angle_gamma 90.000000
_cell_volume 2712.831449
_symmetry_space_group_name_H-M "C 2/C"
_symmetry_group_IT_number 15
_symmetry_cell_setting 'monoclinic'
loop_
_space_group_symop_operation_xyz
x,y,z
-x,y,1/2-z
-x,-y,-z
x,-y,1/2+z
1/2+x,1/2+y,z
1/2-x,1/2+y,1/2-z
1/2-x,1/2-y,-z
1/2+x,1/2-y,1/2+z
loop_
_atom_site_type_symbol
_atom_site_label
_atom_site_fract_x
_atom_site_fract_y
_atom_site_fract_z
Si Si1 0.324032 0.703883 0.353726
Si Si2 0.912327 0.847982 0.100885
Si Si3 0.148589 0.650364 0.930765
Si Si4 0.273403 0.802757 0.785341
Si Si5 0.948163 0.714464 0.399052
Si Si6 0.271168 0.955289 0.274728
Si Si7 0.665817 0.455042 0.185643
Si Si8 0.000000 0.180700 0.250000
O O1 0.371323 0.659370 0.413070
O O2 0.299694 0.750657 0.580374
O O3 0.276783 0.658561 0.282682
O O4 0.343134 0.766496 0.164004
O O5 0.920852 0.769890 0.226547
O O6 0.883899 0.904786 0.284447
O O7 0.965766 0.864791 0.952094
O O8 0.182949 0.645077 0.148554
O O9 0.089652 0.649693 0.009555
O O10 0.179026 0.595047 0.749133
O O11 0.250000 0.750000 0.000000
O O12 0.000000 0.689338 0.250000
O O13 0.964426 0.765482 0.613899
O O14 0.218554 0.913896 0.228812
O O15 0.271495 0.992154 0.537719
O O16 0.665099 0.508449 0.421604
#
# Coordination Sequence:
#
# PCOD9268552 Si02
#       8
#     8   8   8   8   8   8   8   4
#     4  10  20  32  54  93 122 156 194 254 328 383
#     4  11  22  38  66  86 128 165 210 268 320 383
#     4  11  21  36  63  88 125 166 207 251 321 397
#     4   9  20  31  47  89 126 148 194 244 313 385
#     4  10  22  39  62  95 125 158 203 266 339 384
#     4  10  25  44  62  92 132 175 216 258 306 376
#     4  10  25  44  63  91 128 178 220 257 311 374
#     4  10  22  42  58  92 126 156 206 272 340 374
#
# _framework density 22.117114999999998
#
# number of rings (size 3 to 8) (size 9 to 14) (size 15 to 20)
#    0.000    1.867    2.667    0.000    9.333    2.133 
#    0.000    0.667    0.000    0.800    0.000    0.000 
#    0.000    0.000    0.000    0.000    0.000    0.000 
#
# Total GULP energy -167299.848730 kJ/mol
# GULP energy per Si atom -5576.661624 kJ/mol
# Density = 2.206678 g / cm^3
# Si number density = 22.117115 Si / 1000 Ang^3
#
#
#
# Elastic Constant Matrix: (Units=GPa)
#
#
# Indices 1 2 3 4 5 6 
#
# 1 130.3496 17.4403 24.7697 0.0000 -20.1981 0.0000
# 2 17.4403 32.8581 11.7661 0.0000 -4.7986 0.0000
# 3 24.7697 11.7661 83.4442 0.0000 -5.5857 0.0000
# 4 0.0000 0.0000 0.0000 40.4481 0.0000 -8.3961
# 5 -20.1981 -4.7986 -5.5857 0.0000 44.2968 0.0000
# 6 0.0000 0.0000 0.0000 -8.3961 0.0000 31.1951
#
#
#
# Elastic Compliance Matrix: (Units=1/GPa)
#
#
# Indices 1 2 3 4 5 6 
#
# 1 0.009066 -0.003603 -0.001949 0.000000 0.003498 0.000000
# 2 -0.003603 0.033865 -0.003600 0.000000 0.001572 0.000000
# 3 -0.001949 -0.003600 0.013095 0.000000 0.000373 0.000000
# 4 0.000000 0.000000 0.000000 0.026186 0.000000 0.007048
# 5 0.003498 0.001572 0.000373 0.000000 0.024387 0.000000
# 6 0.000000 0.000000 0.000000 0.007048 0.000000 0.033953
#
#
# Mechanical properties :
#
#
# Convention : Reuss Voigt Hill
#
# Bulk Modulus (GPa) = 26.51029 39.40044 32.95536
# Shear Modulus (GPa) = 29.16607 36.03305 32.59956
#
# Velocity S-wave (km/s) = 3.63534 4.04071 3.84337
# Velocity P-wave (km/s) = 5.44365 6.29467 5.88456
#
# Compressibility (1/GPa) = 0.03772121
#
# Stress axis : x y z
#
# Youngs Moduli (GPa) = 110.30049 29.52880 76.36383
#
# Poissons Ratio (x) = 0.10640 0.14883
# Poissons Ratio (y) = 0.39745 0.27494
# Poissons Ratio (z) = 0.21497 0.10631
#
# Static dielectric constant tensor:
#      x y z
#    x 1.890410 0.000000 -0.013540 
#    y 0.000000 1.867380 0.000000 
#    z -0.013540 0.000000 1.951250 
# 
# From -- ./inp_files/17424.got.cif
#   From: 2010.05.17/outbox.cif.g08.bks.cpg/sg15_9_cif.got.tgz:17424.got - 2010.06.03 18:47:42.
