data_PCOD9268233
_publ_section_title
;
Structure prediction by ZEFSAII (Michael W. Deem and Ramdas Pophale) SiO2 
 PCOD9268233
Probable space group: C 2/C
;
_chemical_formula_sum "Si O2"
_cell_formula_units_Z 52
_cell_length_a 20.981122
_cell_length_b 29.435666
_cell_length_c 5.395062
_cell_angle_alpha 90.000000
_cell_angle_beta 74.610758
_cell_angle_gamma 90.000000
_cell_volume 3212.487755
_symmetry_space_group_name_H-M "C 2/C"
_symmetry_group_IT_number 15
_symmetry_cell_setting 'monoclinic'
loop_
_space_group_symop_operation_xyz
x,y,z
-x,y,1/2-z
-x,-y,-z
x,-y,1/2+z
1/2+x,1/2+y,z
1/2-x,1/2+y,1/2-z
1/2-x,1/2-y,-z
1/2+x,1/2-y,1/2+z
loop_
_atom_site_type_symbol
_atom_site_label
_atom_site_fract_x
_atom_site_fract_y
_atom_site_fract_z
Si Si1 0.380523 0.611407 0.626780
Si Si2 0.421803 0.528095 0.837188
Si Si3 0.500000 0.370485 0.750000
Si Si4 0.301752 0.315792 0.932893
Si Si5 0.573650 0.209240 0.112171
Si Si6 0.847918 0.713563 0.976384
Si Si7 0.587181 0.684995 0.543424
O O1 0.374978 0.571744 0.832152
O O2 0.439473 0.595982 0.384931
O O3 0.320880 0.637714 0.555979
O O4 0.418084 0.653169 0.717444
O O5 0.500000 0.541504 0.750000
O O6 0.409598 0.495259 0.613939
O O7 0.458582 0.336493 0.617939
O O8 0.335233 0.268722 0.002084
O O9 0.337228 0.318620 0.629478
O O10 0.224273 0.307323 0.996062
O O11 0.500000 0.191462 0.250000
O O12 0.621230 0.197936 0.294759
O O13 0.605251 0.200786 0.806797
O O14 0.569784 0.263876 0.115207
#
# Coordination Sequence:
#
# PCOD9268233 Si02
#       7
#     8   8   4   8   8   8   8
#     4  11  20  33  49  67  89 124 166 206 251 298
#     4  10  23  36  50  67  94 126 161 207 258 295
#     4  10  20  28  42  70  88 118 156 216 250 278
#     4   9  21  32  49  68  92 126 158 204 251 289
#     4  11  21  32  49  68  93 126 160 198 243 281
#     4  10  21  35  48  69  99 122 160 203 247 290
#     4  10  20  29  47  65  93 118 166 204 248 284
#
# _framework density 16.186831999999999
#
# number of rings (size 3 to 8) (size 9 to 14) (size 15 to 20)
#    0.000    1.846    1.538    2.769   14.000    1.846 
#    0.000    0.000    0.000    0.000    0.000    0.000 
#    0.000    0.000    0.000    0.000    0.000   15.385 
#
# Total GULP energy -144757.019645 kJ/mol
# GULP energy per Si atom -5567.577679 kJ/mol
# Density = 1.614999 g / cm^3
# Si number density = 16.186832 Si / 1000 Ang^3
#
#
#
# Elastic Constant Matrix: (Units=GPa)
#
#
# Indices 1 2 3 4 5 6 
#
# 1 76.9149 17.0086 34.3958 0.0000 -3.9882 0.0000
# 2 17.0086 42.4618 14.1345 0.0000 0.8245 0.0000
# 3 34.3958 14.1345 60.7516 0.0000 5.3462 0.0000
# 4 0.0000 0.0000 0.0000 11.8566 0.0000 7.4524
# 5 -3.9882 0.8245 5.3462 0.0000 26.7704 0.0000
# 6 0.0000 0.0000 0.0000 7.4524 0.0000 13.9295
#
#
#
# Elastic Compliance Matrix: (Units=1/GPa)
#
#
# Indices 1 2 3 4 5 6 
#
# 1 0.018674 -0.004241 -0.010018 0.000000 0.004913 0.000000
# 2 -0.004241 0.026495 -0.003701 0.000000 -0.000709 0.000000
# 3 -0.010018 -0.003701 0.023529 0.000000 -0.006077 0.000000
# 4 0.000000 0.000000 0.000000 0.127073 0.000000 -0.067985
# 5 0.004913 -0.000709 -0.006077 0.000000 0.039322 0.000000
# 6 0.000000 0.000000 0.000000 -0.067985 0.000000 0.108162
#
#
# Mechanical properties :
#
#
# Convention : Reuss Voigt Hill
#
# Bulk Modulus (GPa) = 30.50895 34.57846 32.54371
# Shear Modulus (GPa) = 12.81720 18.15059 15.48389
#
# Velocity S-wave (km/s) = 2.81700 3.35224 3.09621
# Velocity P-wave (km/s) = 5.42859 6.03256 5.73853
#
# Compressibility (1/GPa) = 0.03277726
#
# Stress axis : x y z
#
# Youngs Moduli (GPa) = 53.55017 37.74304 42.50163
#
# Poissons Ratio (x) = 0.16006 0.42580
# Poissons Ratio (y) = 0.22709 0.15730
# Poissons Ratio (z) = 0.53649 0.13969
#
# Static dielectric constant tensor:
#      x y z
#    x 1.559840 0.000000 -0.030570 
#    y 0.000000 1.558520 0.000000 
#    z -0.030570 0.000000 1.740270 
# 
# From -- ./inp_files/11247.got.cif
#   From: 2010.05.17/outbox.cif.g08.bks.cpg/sg15_6_cif.got.tgz:11247.got - 2010.06.03 18:47:42.
