data_PCOD9268328
_publ_section_title
;
Structure prediction by ZEFSAII (Michael W. Deem and Ramdas Pophale) SiO2 
 PCOD9268328
Probable space group: C 2/C
;
_chemical_formula_sum "Si O2"
_cell_formula_units_Z 56
_cell_length_a 18.890058
_cell_length_b 22.137345
_cell_length_c 9.134467
_cell_angle_alpha 90.000000
_cell_angle_beta 37.803566
_cell_angle_gamma 90.000000
_cell_volume 2341.377819
_symmetry_space_group_name_H-M "C 2/C"
_symmetry_group_IT_number 15
_symmetry_cell_setting 'monoclinic'
loop_
_space_group_symop_operation_xyz
x,y,z
-x,y,1/2-z
-x,-y,-z
x,-y,1/2+z
1/2+x,1/2+y,z
1/2-x,1/2+y,1/2-z
1/2-x,1/2-y,-z
1/2+x,1/2-y,1/2+z
loop_
_atom_site_type_symbol
_atom_site_label
_atom_site_fract_x
_atom_site_fract_y
_atom_site_fract_z
Si Si1 0.678635 0.073351 0.679946
Si Si2 0.835355 0.920561 0.409569
Si Si3 0.698208 0.288465 0.952487
Si Si4 0.055791 0.574094 0.318507
Si Si5 0.811029 0.002710 0.210905
Si Si6 0.558212 0.822567 0.015830
Si Si7 0.849274 0.718088 0.746644
O O1 0.738665 0.048045 0.435526
O O2 0.680198 0.145927 0.699376
O O3 0.737588 0.041637 0.724216
O O4 0.544302 0.052918 0.903929
O O5 0.856105 0.849517 0.392604
O O6 0.693787 0.934781 0.619542
O O7 0.871689 0.952900 0.498725
O O8 0.883589 0.957043 0.192948
O O9 0.809051 0.311431 0.677595
O O10 0.636008 0.245162 0.939287
O O11 0.750000 0.250000 0.000000
O O12 0.053031 0.644748 0.367532
O O13 0.000000 0.563891 0.250000
O O14 0.500000 0.855802 0.250000
O O15 0.468862 0.769007 0.137173
O O16 0.750000 0.750000 0.000000
#
# Coordination Sequence:
#
# PCOD9268328 Si02
#       7
#     8   8   8   8   8   8   8
#     4  10  21  32  48  72 104 141 188 218 275 317
#     4  10  21  34  48  74 106 143 190 219 279 316
#     4  11  23  37  59  83 116 151 187 233 285 338
#     4  10  20  31  48  70 109 147 186 229 262 314
#     4  10  20  33  48  68 106 145 182 234 251 329
#     4  10  22  37  54  83 116 149 190 235 281 326
#     4  11  21  37  60  81 112 151 189 232 284 340
#
# _framework density 23.917542000000001
#
# number of rings (size 3 to 8) (size 9 to 14) (size 15 to 20)
#    0.000    1.714    2.857    1.714   12.000    3.429 
#    0.000    0.000    0.000    0.000    0.000    0.000 
#    0.000   80.000    0.000    0.000    0.000    0.000 
#
# Total GULP energy -155982.574743 kJ/mol
# GULP energy per Si atom -5570.806241 kJ/mol
# Density = 2.386310 g / cm^3
# Si number density = 23.917542 Si / 1000 Ang^3
#
#
#
# Elastic Constant Matrix: (Units=GPa)
#
#
# Indices 1 2 3 4 5 6 
#
# 1 103.2089 39.7627 24.0510 0.0000 41.1891 0.0000
# 2 39.7627 170.9137 15.4703 0.0000 29.9193 0.0000
# 3 24.0510 15.4703 53.0886 0.0000 20.9764 0.0000
# 4 0.0000 0.0000 0.0000 33.0610 0.0000 12.4257
# 5 41.1891 29.9193 20.9764 0.0000 44.5510 0.0000
# 6 0.0000 0.0000 0.0000 12.4257 0.0000 39.5205
#
#
#
# Elastic Compliance Matrix: (Units=1/GPa)
#
#
# Indices 1 2 3 4 5 6 
#
# 1 0.015704 -0.001245 -0.001653 0.000000 -0.012905 0.000000
# 2 -0.001245 0.006731 -0.000081 0.000000 -0.003331 0.000000
# 3 -0.001653 -0.000081 0.023322 0.000000 -0.009398 0.000000
# 4 0.000000 0.000000 0.000000 0.034300 0.000000 -0.010784
# 5 -0.012905 -0.003331 -0.009398 0.000000 0.041039 0.000000
# 6 0.000000 0.000000 0.000000 -0.010784 0.000000 0.028694
#
#
# Mechanical properties :
#
#
# Convention : Reuss Voigt Hill
#
# Bulk Modulus (GPa) = 25.12597 53.97548 39.55072
# Shear Modulus (GPa) = 29.58314 39.95499 34.76906
#
# Velocity S-wave (km/s) = 3.52075 4.09165 3.81689
# Velocity P-wave (km/s) = 5.20150 6.70361 5.99975
#
# Compressibility (1/GPa) = 0.03979946
#
# Stress axis : x y z
#
# Youngs Moduli (GPa) = 63.67860 148.56596 42.87724
#
# Poissons Ratio (x) = 0.18494 0.07087
# Poissons Ratio (y) = 0.07927 0.00348
# Poissons Ratio (z) = 0.10525 0.01207
#
# Static dielectric constant tensor:
#      x y z
#    x 2.002990 0.000000 -0.041100 
#    y 0.000000 2.029610 0.000000 
#    z -0.041100 0.000000 2.040260 
# 
# From -- ./inp_files/51452.got.cif
#   From: 2010.05.17/outbox.cif.g08.bks.cpg/sg15_26_cif.got.tgz:51452.got - 2010.06.03 18:47:42.
