data_PCOD9268001
_publ_section_title
;
Structure prediction by ZEFSAII (Michael W. Deem and Ramdas Pophale) SiO2 
 PCOD9268001
Probable space group: C 2/C
;
_chemical_formula_sum "Si O2"
_cell_formula_units_Z 48
_cell_length_a 5.324933
_cell_length_b 23.650937
_cell_length_c 16.876213
_cell_angle_alpha 90.000000
_cell_angle_beta 100.054161
_cell_angle_gamma 90.000000
_cell_volume 2092.745264
_symmetry_space_group_name_H-M "C 2/C"
_symmetry_group_IT_number 15
_symmetry_cell_setting 'monoclinic'
loop_
_space_group_symop_operation_xyz
x,y,z
-x,y,1/2-z
-x,-y,-z
x,-y,1/2+z
1/2+x,1/2+y,z
1/2-x,1/2+y,1/2-z
1/2-x,1/2-y,-z
1/2+x,1/2-y,1/2+z
loop_
_atom_site_type_symbol
_atom_site_label
_atom_site_fract_x
_atom_site_fract_y
_atom_site_fract_z
Si Si1 0.817184 0.078875 0.161885
Si Si2 0.419798 0.656944 0.878842
Si Si3 0.231494 0.822986 0.957061
Si Si4 0.320779 0.549863 0.661656
Si Si5 0.500000 0.152034 0.250000
Si Si6 0.000000 0.620157 0.750000
Si Si7 0.710653 0.228252 0.386117
O O1 0.874170 0.120525 0.092783
O O2 0.568934 0.108462 0.184672
O O3 0.000000 0.081348 0.250000
O O4 0.789218 0.014379 0.133683
O O5 0.554970 0.595767 0.888924
O O6 0.622798 0.707012 0.879451
O O7 0.235437 0.656723 0.792501
O O8 0.258468 0.665619 0.949396
O O9 0.491181 0.801510 0.929352
O O10 0.996700 0.779648 0.932159
O O11 0.500000 0.547311 0.750000
O O12 0.066596 0.578728 0.681087
O O13 0.697837 0.195778 0.300686
#
# Coordination Sequence:
#
# PCOD9268001 Si02
#       7
#     8   8   8   8   4   4   8
#     4  10  19  41  65  92 131 167 226 273 334 394
#     4  11  25  41  65  94 136 171 224 271 335 396
#     4  11  25  43  67  99 133 179 213 277 332 392
#     4   9  21  39  64  92 126 175 217 281 328 386
#     4  10  21  36  66  92 124 171 220 270 320 404
#     4  10  23  42  62  98 128 177 226 276 332 392
#     4  11  25  41  67  99 133 174 217 270 331 395
#
# _framework density 22.936381000000001
#
# number of rings (size 3 to 8) (size 9 to 14) (size 15 to 20)
#    0.000    1.667    1.667    1.500    8.167    0.667 
#    0.000    0.833    0.000    0.000    0.000    0.000 
#    0.000    0.000    0.000    0.000    0.000    0.000 
#
# Total GULP energy -134005.544403 kJ/mol
# GULP energy per Si atom -5583.564350 kJ/mol
# Density = 2.288418 g / cm^3
# Si number density = 22.936381 Si / 1000 Ang^3
#
#
#
# Elastic Constant Matrix: (Units=GPa)
#
#
# Indices 1 2 3 4 5 6 
#
# 1 69.9661 23.2887 10.6298 0.0000 -19.3768 0.0000
# 2 23.2887 180.3833 56.0343 0.0000 -21.6570 0.0000
# 3 10.6298 56.0343 45.0641 0.0000 -12.7295 0.0000
# 4 0.0000 0.0000 0.0000 21.2731 0.0000 -5.6118
# 5 -19.3768 -21.6570 -12.7295 0.0000 16.5236 0.0000
# 6 0.0000 0.0000 0.0000 -5.6118 0.0000 22.1763
#
#
#
# Elastic Compliance Matrix: (Units=1/GPa)
#
#
# Indices 1 2 3 4 5 6 
#
# 1 0.021435 -0.000533 0.003208 0.000000 0.026909 0.000000
# 2 -0.000533 0.009266 -0.010406 0.000000 0.003502 0.000000
# 3 0.003208 -0.010406 0.040368 0.000000 0.021222 0.000000
# 4 0.000000 0.000000 0.000000 0.050370 0.000000 0.012746
# 5 0.026909 0.003502 0.021222 0.000000 0.113014 0.000000
# 6 0.000000 0.000000 0.000000 0.012746 0.000000 0.048319
#
#
# Mechanical properties :
#
#
# Convention : Reuss Voigt Hill
#
# Bulk Modulus (GPa) = 17.98375 52.81324 35.39850
# Shear Modulus (GPa) = 15.78434 25.69197 20.73816
#
# Velocity S-wave (km/s) = 2.62616 3.35048 3.01019
# Velocity P-wave (km/s) = 4.12957 6.16795 5.24866
#
# Compressibility (1/GPa) = 0.05560574
#
# Stress axis : x y z
#
# Youngs Moduli (GPa) = 46.65255 107.92555 24.77216
#
# Poissons Ratio (x) = 0.05755 -0.07947
# Poissons Ratio (y) = 0.02488 0.25778
# Poissons Ratio (z) = -0.14966 1.12309
#
# Static dielectric constant tensor:
#      x y z
#    x 1.950970 0.000000 -0.007350 
#    y 0.000000 1.839610 0.000000 
#    z -0.007350 0.000000 1.888350 
# 
# From -- ./inp_files/185315.got.cif
#   From: 2010.05.17/outbox.cif.g08.bks.cpg/sg15_93_cif.got.tgz:185315.got - 2010.06.03 18:47:42.
