data_PCOD9268816
_publ_section_title
;
Structure prediction by ZEFSAII (Michael W. Deem and Ramdas Pophale) SiO2 
 PCOD9268816
Probable space group: C 2/C
;
_chemical_formula_sum "Si O2"
_cell_formula_units_Z 48
_cell_length_a 17.621590
_cell_length_b 8.492702
_cell_length_c 15.780193
_cell_angle_alpha 90.000000
_cell_angle_beta 91.818242
_cell_angle_gamma 90.000000
_cell_volume 2360.394369
_symmetry_space_group_name_H-M "C 2/C"
_symmetry_group_IT_number 15
_symmetry_cell_setting 'monoclinic'
loop_
_space_group_symop_operation_xyz
x,y,z
-x,y,1/2-z
-x,-y,-z
x,-y,1/2+z
1/2+x,1/2+y,z
1/2-x,1/2+y,1/2-z
1/2-x,1/2-y,-z
1/2+x,1/2-y,1/2+z
loop_
_atom_site_type_symbol
_atom_site_label
_atom_site_fract_x
_atom_site_fract_y
_atom_site_fract_z
Si Si1 0.141134 0.801598 0.011449
Si Si2 0.185817 0.970157 0.742212
Si Si3 0.720305 0.822513 0.361065
Si Si4 0.113379 0.906599 0.397412
Si Si5 0.479743 0.181763 0.005841
Si Si6 0.470925 0.623956 0.337655
O O1 0.157662 0.684279 0.932618
O O2 0.147181 0.976715 0.971013
O O3 0.203321 0.774277 0.085235
O O4 0.056580 0.769634 0.038388
O O5 0.198358 0.807491 0.791480
O O6 0.109979 0.955711 0.683200
O O7 0.256541 0.021586 0.687966
O O8 0.167554 0.093335 0.817666
O O9 0.087471 0.741649 0.435594
O O10 0.037300 0.001248 0.365241
O O11 0.463171 0.252142 0.912437
O O12 0.500000 0.000000 0.000000
O O13 0.500000 0.696468 0.250000
#
# Coordination Sequence:
#
# PCOD9268816 Si02
#       6
#     8   8   8   8   8   8
#     4   9  19  37  54  72 101 144 179 202 254 322
#     4  10  20  33  53  80 105 140 177 214 262 307
#     4  10  20  34  54  75 104 139 175 214 252 313
#     4   9  18  35  57  75 100 139 180 213 255 317
#     4  11  21  33  55  83 107 131 168 226 273 303
#     4   9  18  36  57  75 101 139 180 216 259 315
#
# _framework density 20.335584999999998
#
# number of rings (size 3 to 8) (size 9 to 14) (size 15 to 20)
#    0.000    2.333    0.000    5.000    0.000    2.667 
#    0.000    4.167    0.000    8.000    0.000    0.000 
#    0.000    0.000    0.000    0.000    0.000    0.000 
#
# Total GULP energy -133887.463176 kJ/mol
# GULP energy per Si atom -5578.644299 kJ/mol
# Density = 2.028930 g / cm^3
# Si number density = 20.335585 Si / 1000 Ang^3
#
#
#
# Elastic Constant Matrix: (Units=GPa)
#
#
# Indices 1 2 3 4 5 6 
#
# 1 43.7638 -5.0379 5.2078 0.0000 -1.5581 0.0000
# 2 -5.0379 45.3897 14.1938 0.0000 -2.1804 0.0000
# 3 5.2078 14.1938 54.4061 0.0000 9.0769 0.0000
# 4 0.0000 0.0000 0.0000 14.4408 0.0000 -7.3250
# 5 -1.5581 -2.1804 9.0769 0.0000 26.8013 0.0000
# 6 0.0000 0.0000 0.0000 -7.3250 0.0000 24.7833
#
#
#
# Elastic Compliance Matrix: (Units=1/GPa)
#
#
# Indices 1 2 3 4 5 6 
#
# 1 0.023872 0.003991 -0.003828 0.000000 0.003009 0.000000
# 2 0.003991 0.025136 -0.007758 0.000000 0.004904 0.000000
# 3 -0.003828 -0.007758 0.022166 0.000000 -0.008361 0.000000
# 4 0.000000 0.000000 0.000000 0.081461 0.000000 0.024077
# 5 0.003009 0.004904 -0.008361 0.000000 0.040717 0.000000
# 6 0.000000 0.000000 0.000000 0.024077 0.000000 0.047466
#
#
# Mechanical properties :
#
#
# Convention : Reuss Voigt Hill
#
# Bulk Modulus (GPa) = 17.86231 19.14298 18.50265
# Shear Modulus (GPa) = 18.20372 21.81814 20.01093
#
# Velocity S-wave (km/s) = 2.99518 3.27908 3.14034
# Velocity P-wave (km/s) = 4.55679 4.87549 4.71883
#
# Compressibility (1/GPa) = 0.05598379
#
# Stress axis : x y z
#
# Youngs Moduli (GPa) = 41.88992 39.78352 45.11515
#
# Poissons Ratio (x) = -0.15879 0.17272
# Poissons Ratio (y) = -0.16720 0.35000
# Poissons Ratio (z) = 0.16037 0.30864
#
# Static dielectric constant tensor:
#      x y z
#    x 1.721440 0.000000 -0.022340 
#    y 0.000000 1.719910 0.000000 
#    z -0.022340 0.000000 1.739600 
# 
# From -- ./inp_files/159717.got.cif
#   From: 2010.05.17/outbox.cif.g08.bks.cpg/sg15_80_cif.got.tgz:159717.got - 2010.06.03 18:47:42.
