data_PCOD9268109
_publ_section_title
;
Structure prediction by ZEFSAII (Michael W. Deem and Ramdas Pophale) SiO2 
 PCOD9268109
Probable space group: C 2/C
;
_chemical_formula_sum "Si O2"
_cell_formula_units_Z 28
_cell_length_a 6.910455
_cell_length_b 34.242350
_cell_length_c 7.807662
_cell_angle_alpha 90.000000
_cell_angle_beta 136.741566
_cell_angle_gamma 90.000000
_cell_volume 1266.093358
_symmetry_space_group_name_H-M "C 2/C"
_symmetry_group_IT_number 15
_symmetry_cell_setting 'monoclinic'
loop_
_space_group_symop_operation_xyz
x,y,z
-x,y,1/2-z
-x,-y,-z
x,-y,1/2+z
1/2+x,1/2+y,z
1/2-x,1/2+y,1/2-z
1/2-x,1/2-y,-z
1/2+x,1/2-y,1/2+z
loop_
_atom_site_type_symbol
_atom_site_label
_atom_site_fract_x
_atom_site_fract_y
_atom_site_fract_z
Si Si1 0.668557 0.036531 0.034939
Si Si2 0.000000 0.225571 0.750000
Si Si3 0.101669 0.154421 0.584400
Si Si4 0.393646 0.123716 0.420868
O O1 0.664640 0.077743 0.131040
O O2 0.000000 0.025568 0.250000
O O3 0.500000 0.045517 0.750000
O O4 0.500000 0.000000 0.000000
O O5 0.750000 0.250000 0.500000
O O6 0.878895 0.197517 0.822955
O O7 0.251514 0.143178 0.500573
O O8 0.776016 0.144760 0.338801
O O9 0.276930 0.129025 0.832878
#
# Coordination Sequence:
#
# PCOD9268109 Si02
#       4
#     8   4   8   8
#     4  12  23  43  65  98 144 175 224 287 331 376
#     4  12  26  44  62 100 136 150 200 282 346 392
#     4  10  20  40  69  85 124 169 209 263 319 392
#     4  10  19  42  65  89 122 174 229 251 299 407
#
# _framework density 22.115272000000001
#
# number of rings (size 3 to 8) (size 9 to 14) (size 15 to 20)
#    0.000    1.143    5.714    2.571    0.000    0.000 
#    7.714   17.143    0.000    0.000    0.000    0.000 
#    0.000    0.000    0.000    0.000    0.000    0.000 
#
# Total GULP energy -78049.125835 kJ/mol
# GULP energy per Si atom -5574.937560 kJ/mol
# Density = 2.206494 g / cm^3
# Si number density = 22.115272 Si / 1000 Ang^3
#
#
#
# Elastic Constant Matrix: (Units=GPa)
#
#
# Indices 1 2 3 4 5 6 
#
# 1 78.7240 38.3810 48.5695 0.0000 17.8456 0.0000
# 2 38.3810 156.6480 44.3349 0.0000 10.6228 0.0000
# 3 48.5695 44.3349 211.4117 0.0000 32.8784 0.0000
# 4 0.0000 0.0000 0.0000 45.5457 0.0000 17.8980
# 5 17.8456 10.6228 32.8784 0.0000 58.2946 0.0000
# 6 0.0000 0.0000 0.0000 17.8980 0.0000 30.3404
#
#
#
# Elastic Compliance Matrix: (Units=1/GPa)
#
#
# Indices 1 2 3 4 5 6 
#
# 1 0.016545 -0.003090 -0.002689 0.000000 -0.002985 0.000000
# 2 -0.003090 0.007376 -0.000849 0.000000 0.000081 0.000000
# 3 -0.002689 -0.000849 0.005891 0.000000 -0.002344 0.000000
# 4 0.000000 0.000000 0.000000 0.028582 0.000000 -0.016860
# 5 -0.002985 0.000081 -0.002344 0.000000 0.019376 0.000000
# 6 0.000000 0.000000 0.000000 -0.016860 0.000000 0.042905
#
#
# Mechanical properties :
#
#
# Convention : Reuss Voigt Hill
#
# Bulk Modulus (GPa) = 60.40705 78.81717 69.61211
# Shear Modulus (GPa) = 35.85551 47.86936 41.86244
#
# Velocity S-wave (km/s) = 4.03091 4.65751 4.35549
# Velocity P-wave (km/s) = 7.00273 8.03989 7.53916
#
# Compressibility (1/GPa) = 0.01655436
#
# Stress axis : x y z
#
# Youngs Moduli (GPa) = 60.44210 135.57820 169.76419
#
# Poissons Ratio (x) = 0.41898 0.45644
# Poissons Ratio (y) = 0.18678 0.14420
# Poissons Ratio (z) = 0.16251 0.11516
#
# Static dielectric constant tensor:
#      x y z
#    x 2.031580 0.000000 -0.079030 
#    y 0.000000 1.819140 0.000000 
#    z -0.079030 0.000000 1.888150 
# 
# From -- ./inp_files/24218.got.cif
#   From: 2010.05.17/outbox.cif.g08.bks.cpg/sg15_13_cif.got.tgz:24218.got - 2010.06.03 18:47:42.
