data_PCOD9268089
_publ_section_title
;
Structure prediction by ZEFSAII (Michael W. Deem and Ramdas Pophale) SiO2 
 PCOD9268089
Probable space group: C 2/C
;
_chemical_formula_sum "Si O2"
_cell_formula_units_Z 56
_cell_length_a 19.481561
_cell_length_b 9.040887
_cell_length_c 19.274462
_cell_angle_alpha 90.000000
_cell_angle_beta 137.898451
_cell_angle_gamma 90.000000
_cell_volume 2276.047397
_symmetry_space_group_name_H-M "C 2/C"
_symmetry_group_IT_number 15
_symmetry_cell_setting 'monoclinic'
loop_
_space_group_symop_operation_xyz
x,y,z
-x,y,1/2-z
-x,-y,-z
x,-y,1/2+z
1/2+x,1/2+y,z
1/2-x,1/2+y,1/2-z
1/2-x,1/2-y,-z
1/2+x,1/2-y,1/2+z
loop_
_atom_site_type_symbol
_atom_site_label
_atom_site_fract_x
_atom_site_fract_y
_atom_site_fract_z
Si Si1 0.277612 0.425124 0.723262
Si Si2 0.775620 0.110160 0.847719
Si Si3 0.000000 0.184140 0.250000
Si Si4 0.495940 0.744036 0.979468
Si Si5 0.496813 0.551644 0.634854
Si Si6 0.350787 0.941124 0.127748
Si Si7 0.420755 0.036735 0.521927
Si Si8 0.500000 0.800357 0.750000
O O1 0.291337 0.250286 0.727680
O O2 0.252129 0.470330 0.782578
O O3 0.381762 0.510827 0.781119
O O4 0.180476 0.467374 0.602867
O O5 0.885395 0.173264 0.909166
O O6 0.757183 0.075241 0.914800
O O7 0.090033 0.297275 0.300845
O O8 0.962189 0.084121 0.157418
O O9 0.545332 0.606855 0.972195
O O10 0.518174 0.885161 0.946822
O O11 0.497438 0.831131 0.055054
O O12 0.480432 0.692453 0.671582
O O13 0.373270 0.944317 0.062627
O O14 0.405829 0.090231 0.194755
#
# Coordination Sequence:
#
# PCOD9268089 Si02
#       8
#     8   8   4   8   8   8   8   4
#     4  10  22  39  67  89 128 168 217 271 320 385
#     4  10  22  38  65  94 126 172 218 261 317 397
#     4  10  22  36  64  88 128 160 214 270 316 384
#     4   9  20  38  63  86 124 169 209 261 320 387
#     4  10  19  42  60  92 119 171 213 266 318 383
#     4  11  22  38  63 102 121 170 219 269 318 390
#     4  10  21  39  64  97 124 168 215 270 326 385
#     4  10  22  34  70  84 126 170 218 258 312 412
#
# _framework density 24.604057999999998
#
# number of rings (size 3 to 8) (size 9 to 14) (size 15 to 20)
#    0.000    2.000    2.857    0.000    6.000    3.429 
#    0.000    1.429    6.286    0.000    0.000    0.000 
#    0.000    0.000    0.000    0.000    0.000    0.000 
#
# Total GULP energy -155943.967245 kJ/mol
# GULP energy per Si atom -5569.427402 kJ/mol
# Density = 2.454806 g / cm^3
# Si number density = 24.604058 Si / 1000 Ang^3
#
#
#
# Elastic Constant Matrix: (Units=GPa)
#
#
# Indices 1 2 3 4 5 6 
#
# 1 136.2058 45.8549 39.9022 0.0000 -34.1273 0.0000
# 2 45.8549 115.3564 38.4040 0.0000 -17.8665 0.0000
# 3 39.9022 38.4040 73.2732 0.0000 -18.6651 0.0000
# 4 0.0000 0.0000 0.0000 35.3483 0.0000 -27.6881
# 5 -34.1273 -17.8665 -18.6651 0.0000 43.8843 0.0000
# 6 0.0000 0.0000 0.0000 -27.6881 0.0000 178.8732
#
#
#
# Elastic Compliance Matrix: (Units=1/GPa)
#
#
# Indices 1 2 3 4 5 6 
#
# 1 0.010468 -0.002237 -0.003013 0.000000 0.005948 0.000000
# 2 -0.002237 0.011166 -0.004396 0.000000 0.000937 0.000000
# 3 -0.003013 -0.004396 0.018549 0.000000 0.003757 0.000000
# 4 0.000000 0.000000 0.000000 0.032193 0.000000 0.004983
# 5 0.005948 0.000937 0.003757 0.000000 0.029392 0.000000
# 6 0.000000 0.000000 0.000000 0.004983 0.000000 0.006362
#
#
# Mechanical properties :
#
#
# Convention : Reuss Voigt Hill
#
# Bulk Modulus (GPa) = 47.86369 63.68418 55.77393
# Shear Modulus (GPa) = 37.20618 64.99945 51.10281
#
# Velocity S-wave (km/s) = 3.89292 5.14544 4.56236
# Velocity P-wave (km/s) = 6.30097 7.82563 7.10432
#
# Compressibility (1/GPa) = 0.02089266
#
# Stress axis : x y z
#
# Youngs Moduli (GPa) = 95.53010 89.55382 53.91070
#
# Poissons Ratio (x) = 0.20031 0.16243
# Poissons Ratio (y) = 0.21367 0.23698
# Poissons Ratio (z) = 0.28782 0.39366
#
# Static dielectric constant tensor:
#      x y z
#    x 1.705410 0.000000 -0.111960 
#    y 0.000000 1.956450 0.000000 
#    z -0.111960 0.000000 1.991140 
# 
# From -- ./inp_files/251675.got.cif
#   From: 2010.05.17/outbox.cif.g08.bks.cpg/sg15_126_cif.got.tgz:251675.got - 2010.06.03 18:47:42.
