data_PCOD9268569
_publ_section_title
;
Structure prediction by ZEFSAII (Michael W. Deem and Ramdas Pophale) SiO2 
 PCOD9268569
Probable space group: C 2/C
;
_chemical_formula_sum "Si O2"
_cell_formula_units_Z 52
_cell_length_a 11.537800
_cell_length_b 22.931625
_cell_length_c 15.940327
_cell_angle_alpha 90.000000
_cell_angle_beta 42.932621
_cell_angle_gamma 90.000000
_cell_volume 2872.698606
_symmetry_space_group_name_H-M "C 2/C"
_symmetry_group_IT_number 15
_symmetry_cell_setting 'monoclinic'
loop_
_space_group_symop_operation_xyz
x,y,z
-x,y,1/2-z
-x,-y,-z
x,-y,1/2+z
1/2+x,1/2+y,z
1/2-x,1/2+y,1/2-z
1/2-x,1/2-y,-z
1/2+x,1/2-y,1/2+z
loop_
_atom_site_type_symbol
_atom_site_label
_atom_site_fract_x
_atom_site_fract_y
_atom_site_fract_z
Si Si1 0.863046 0.949673 0.597535
Si Si2 0.679035 0.510622 0.189424
Si Si3 0.116207 0.580339 0.830841
Si Si4 0.500000 0.994619 0.750000
Si Si5 0.869110 0.858454 0.069492
Si Si6 0.695246 0.746389 0.127161
Si Si7 0.720973 0.125099 0.460666
O O1 0.841122 0.959873 0.708450
O O2 0.678308 0.960042 0.654214
O O3 0.945061 0.887253 0.532108
O O4 0.000000 0.000000 0.500000
O O5 0.500000 0.487931 0.250000
O O6 0.809208 0.457789 0.133316
O O7 0.735822 0.562368 0.099186
O O8 0.016579 0.536214 0.821902
O O9 0.265248 0.606960 0.695353
O O10 0.982772 0.629116 0.927825
O O11 0.825837 0.790087 0.103772
O O12 0.792396 0.871418 0.017365
O O13 0.500000 0.764813 0.250000
O O14 0.708978 0.677179 0.134382
O O15 0.750000 0.750000 0.000000
#
# Coordination Sequence:
#
# PCOD9268569 Si02
#       7
#     8   8   8   4   8   8   8
#     4  11  20  36  55  79 111 151 182 231 271 338
#     4  11  22  32  51  81 114 145 177 227 291 321
#     4  11  20  35  55  80 109 156 180 221 274 352
#     4  10  20  32  56  82 106 146 196 208 278 330
#     4  11  19  35  57  76 111 151 184 219 280 338
#     4  10  22  34  55  82 112 150 184 230 287 342
#     4  11  20  35  51  83 121 137 179 235 286 331
#
# _framework density 18.101445999999999
#
# number of rings (size 3 to 8) (size 9 to 14) (size 15 to 20)
#    0.000    1.231    6.154    2.769    2.154    0.000 
#    0.000    0.000    0.000    0.000    2.000    5.385 
#    0.000    0.000    0.000    0.000    0.000    0.000 
#
# Total GULP energy -144974.698028 kJ/mol
# GULP energy per Si atom -5575.949924 kJ/mol
# Density = 1.806025 g / cm^3
# Si number density = 18.101446 Si / 1000 Ang^3
#
#
#
# Elastic Constant Matrix: (Units=GPa)
#
#
# Indices 1 2 3 4 5 6 
#
# 1 68.8944 19.6978 3.2635 -0.0001 -21.5836 0.0001
# 2 19.6978 72.1982 6.7867 0.0000 -12.0088 0.0000
# 3 3.2635 6.7867 56.6036 -0.0004 -17.6674 0.0001
# 4 -0.0001 0.0000 -0.0004 27.9605 0.0002 -4.2273
# 5 -21.5836 -12.0088 -17.6674 0.0002 31.7221 -0.0001
# 6 0.0001 0.0000 0.0001 -4.2273 -0.0001 22.1117
#
#
#
# Elastic Compliance Matrix: (Units=1/GPa)
#
#
# Indices 1 2 3 4 5 6 
#
# 1 0.019763 -0.003373 0.003708 0.000000 0.014235 0.000000
# 2 -0.003373 0.015357 -0.000664 0.000000 0.003149 0.000000
# 3 0.003708 -0.000664 0.022080 0.000000 0.014569 0.000000
# 4 0.000000 0.000000 0.000000 0.036829 0.000000 0.007041
# 5 0.014235 0.003149 0.014569 0.000000 0.050516 0.000000
# 6 0.000000 0.000000 0.000000 0.007041 0.000000 0.046571
#
#
# Mechanical properties :
#
#
# Convention : Reuss Voigt Hill
#
# Bulk Modulus (GPa) = 17.68564 28.57693 23.13128
# Shear Modulus (GPa) = 23.73929 27.55539 25.64734
#
# Velocity S-wave (km/s) = 3.62533 3.90587 3.76821
# Velocity P-wave (km/s) = 5.22643 6.01352 5.63374
#
# Compressibility (1/GPa) = 0.05654306
#
# Stress axis : x y z
#
# Youngs Moduli (GPa) = 50.59866 65.11622 45.29019
#
# Poissons Ratio (x) = 0.21963 -0.16794
# Poissons Ratio (y) = 0.17066 0.03007
# Poissons Ratio (z) = -0.18763 0.04323
#
# Static dielectric constant tensor:
#      x y z
#    x 1.613630 0.000000 -0.022890 
#    y 0.000000 1.712510 0.000000 
#    z -0.022890 0.000000 1.708030 
# 
# From -- ./inp_files/148352.got.cif
#   From: 2010.05.17/outbox.cif.g08.bks.cpg/sg15_75_cif.got.tgz:148352.got - 2010.06.03 18:47:42.
