data_PCOD9268112
_publ_section_title
;
Structure prediction by ZEFSAII (Michael W. Deem and Ramdas Pophale) SiO2 
 PCOD9268112
Probable space group: C 2/C
;
_chemical_formula_sum "Si O2"
_cell_formula_units_Z 64
_cell_length_a 14.670252
_cell_length_b 14.091833
_cell_length_c 18.202082
_cell_angle_alpha 90.000000
_cell_angle_beta 49.408779
_cell_angle_gamma 90.000000
_cell_volume 2857.459888
_symmetry_space_group_name_H-M "C 2/C"
_symmetry_group_IT_number 15
_symmetry_cell_setting 'monoclinic'
loop_
_space_group_symop_operation_xyz
x,y,z
-x,y,1/2-z
-x,-y,-z
x,-y,1/2+z
1/2+x,1/2+y,z
1/2-x,1/2+y,1/2-z
1/2-x,1/2-y,-z
1/2+x,1/2-y,1/2+z
loop_
_atom_site_type_symbol
_atom_site_label
_atom_site_fract_x
_atom_site_fract_y
_atom_site_fract_z
Si Si1 0.472715 0.869158 0.904237
Si Si2 0.414406 0.439657 0.595892
Si Si3 0.020322 0.682326 0.818847
Si Si4 0.373690 0.767110 0.083450
Si Si5 0.659748 0.987079 0.714869
Si Si6 0.829911 0.453449 0.459470
Si Si7 0.576861 0.511771 0.136836
Si Si8 0.878710 0.199650 0.861041
O O1 0.583182 0.900483 0.792149
O O2 0.386587 0.794568 0.906197
O O3 0.413081 0.969583 0.955747
O O4 0.479149 0.815244 0.979125
O O5 0.500000 0.500000 0.500000
O O6 0.376536 0.345421 0.573849
O O7 0.290458 0.490202 0.681964
O O8 0.496441 0.428367 0.623444
O O9 0.098449 0.721678 0.844741
O O10 0.085075 0.581702 0.768256
O O11 0.000000 0.731280 0.750000
O O12 0.891766 0.647553 0.915749
O O13 0.243175 0.802866 0.123612
O O14 0.682092 0.995257 0.615073
O O15 0.707357 0.443156 0.566915
O O16 0.500000 0.509230 0.250000
O O17 0.605148 0.400206 0.104605
O O18 0.000000 0.206123 0.750000
#
# Coordination Sequence:
#
# PCOD9268112 Si02
#       8
#     8   8   8   8   8   8   8   8
#     4  11  21  37  65 101 135 171 229 285 349 410
#     4  12  25  43  65  95 141 183 224 272 363 427
#     4   9  23  44  70  95 132 180 241 284 332 412
#     4  12  25  41  68 105 138 183 232 300 346 414
#     4  10  22  41  71  96 131 188 224 277 346 419
#     4  10  19  42  65  93 132 182 219 287 347 402
#     4  11  25  40  63  96 137 183 220 284 348 416
#     4  11  23  40  64 102 143 175 224 289 351 413
#
# _framework density 22.397516
#
# number of rings (size 3 to 8) (size 9 to 14) (size 15 to 20)
#    0.000    1.250    2.500    4.500    3.500    3.500 
#    2.250    0.625    0.000    0.000    0.000    0.000 
#    0.000    0.000    0.000    0.000    0.000    0.000 
#
# Total GULP energy -178419.239285 kJ/mol
# GULP energy per Si atom -5575.601228 kJ/mol
# Density = 2.234654 g / cm^3
# Si number density = 22.397516 Si / 1000 Ang^3
#
#
#
# Elastic Constant Matrix: (Units=GPa)
#
#
# Indices 1 2 3 4 5 6 
#
# 1 75.6760 12.7903 41.9889 0.0000 -7.9187 0.0000
# 2 12.7903 27.6110 10.7920 0.0000 0.2621 0.0000
# 3 41.9889 10.7920 113.1232 0.0000 -11.7794 0.0000
# 4 0.0000 0.0000 0.0000 13.7041 0.0000 -0.4604
# 5 -7.9187 0.2621 -11.7794 0.0000 45.0037 0.0000
# 6 0.0000 0.0000 0.0000 -0.4604 0.0000 18.8511
#
#
#
# Elastic Compliance Matrix: (Units=1/GPa)
#
#
# Indices 1 2 3 4 5 6 
#
# 1 0.017599 -0.005900 -0.005802 0.000000 0.001613 0.000000
# 2 -0.005900 0.039661 -0.001774 0.000000 -0.001733 0.000000
# 3 -0.005802 -0.001774 0.011367 0.000000 0.001965 0.000000
# 4 0.000000 0.000000 0.000000 0.073031 0.000000 0.001783
# 5 0.001613 -0.001733 0.001965 0.000000 0.023029 0.000000
# 6 0.000000 0.000000 0.000000 0.001783 0.000000 0.053091
#
#
# Mechanical properties :
#
#
# Convention : Reuss Voigt Hill
#
# Bulk Modulus (GPa) = 23.99518 38.61693 31.30605
# Shear Modulus (GPa) = 19.33333 25.56771 22.45052
#
# Velocity S-wave (km/s) = 2.94120 3.38234 3.16945
# Velocity P-wave (km/s) = 4.71919 5.70374 5.23466
#
# Compressibility (1/GPa) = 0.04167503
#
# Stress axis : x y z
#
# Youngs Moduli (GPa) = 56.82068 25.21400 87.97227
#
# Poissons Ratio (x) = 0.14877 0.51039
# Poissons Ratio (y) = 0.33525 0.15607
# Poissons Ratio (z) = 0.32965 0.04473
#
# Static dielectric constant tensor:
#      x y z
#    x 1.895390 0.000000 0.027430 
#    y 0.000000 1.837850 0.000000 
#    z 0.027430 0.000000 1.911200 
# 
# From -- ./inp_files/205706.got.cif
#   From: 2010.05.17/outbox.cif.g08.bks.cpg/sg15_103_cif.got.tgz:205706.got - 2010.06.03 18:47:42.
