data_PCOD9268645
_publ_section_title
;
Structure prediction by ZEFSAII (Michael W. Deem and Ramdas Pophale) SiO2 
 PCOD9268645
Probable space group: C 2/C
;
_chemical_formula_sum "Si O2"
_cell_formula_units_Z 40
_cell_length_a 23.758851
_cell_length_b 17.451781
_cell_length_c 15.927059
_cell_angle_alpha 90.000000
_cell_angle_beta 19.231709
_cell_angle_gamma 90.000000
_cell_volume 2175.255044
_symmetry_space_group_name_H-M "C 2/C"
_symmetry_group_IT_number 15
_symmetry_cell_setting 'monoclinic'
loop_
_space_group_symop_operation_xyz
x,y,z
-x,y,1/2-z
-x,-y,-z
x,-y,1/2+z
1/2+x,1/2+y,z
1/2-x,1/2+y,1/2-z
1/2-x,1/2-y,-z
1/2+x,1/2-y,1/2+z
loop_
_atom_site_type_symbol
_atom_site_label
_atom_site_fract_x
_atom_site_fract_y
_atom_site_fract_z
Si Si1 0.506730 0.842404 0.967136
Si Si2 0.872636 0.094449 0.505546
Si Si3 0.133092 0.911143 0.983622
Si Si4 0.044277 0.841371 0.430112
Si Si5 0.639344 0.813422 0.610407
O O1 0.675840 0.878341 0.770975
O O2 0.512232 0.750544 0.975437
O O3 0.544063 0.858923 0.816302
O O4 0.316445 0.873261 0.250103
O O5 0.951835 0.127579 0.480774
O O6 0.859439 0.002843 0.532709
O O7 0.000000 0.112714 0.250000
O O8 0.000000 0.895336 0.250000
O O9 0.070431 0.877064 0.982591
O O10 0.234182 0.858403 0.127106
O O11 0.500000 0.773098 0.750000
O O12 0.750000 0.750000 0.500000
#
# Coordination Sequence:
#
# PCOD9268645 Si02
#       5
#     8   8   8   8   8
#     4  11  22  38  65  92 119 152 202 257 304 354
#     4  11  25  43  57  83 127 171 204 232 294 371
#     4  11  23  38  62  92 124 157 191 255 315 364
#     4  11  22  38  65  92 119 152 202 257 304 354
#     4  10  20  32  60  96 122 142 187 256 322 350
#
# _framework density 18.388648
#
# number of rings (size 3 to 8) (size 9 to 14) (size 15 to 20)
#    0.000    1.200    4.000    2.400    8.400    0.800 
#    0.000    1.000    0.000    0.000    0.000    0.000 
#    0.000    0.000    0.000    0.000    0.000    0.000 
#
# Total GULP energy -111433.279684 kJ/mol
# GULP energy per Si atom -5571.663984 kJ/mol
# Density = 1.834679 g / cm^3
# Si number density = 18.388648 Si / 1000 Ang^3
#
#
#
# Elastic Constant Matrix: (Units=GPa)
#
#
# Indices 1 2 3 4 5 6 
#
# 1 172.0481 79.7707 137.1309 -0.0001 -25.4728 0.0011
# 2 79.7707 102.0134 26.0032 -0.0032 8.5867 -0.0006
# 3 137.1309 26.0032 37.0952 -0.0040 26.3319 -0.0021
# 4 -0.0001 -0.0032 -0.0040 18.5633 0.0011 -7.2093
# 5 -25.4728 8.5867 26.3319 0.0011 37.3139 0.0005
# 6 0.0011 -0.0006 -0.0021 -7.2093 0.0005 23.4571
#
#
#
# Elastic Compliance Matrix: (Units=1/GPa)
#
#
# Indices 1 2 3 4 5 6 
#
# 1 -0.000813 -0.000844 0.007724 0.000002 -0.005812 0.000002
# 2 -0.000844 0.011856 -0.005704 0.000001 0.000721 0.000000
# 3 0.007724 -0.005704 -0.004552 -0.000003 0.009798 -0.000002
# 4 0.000002 0.000001 -0.000003 0.061171 0.000002 0.018800
# 5 -0.005812 0.000721 0.009798 0.000002 0.015752 0.000001
# 6 0.000002 0.000000 -0.000002 0.018800 0.000001 0.048409
#
#
# Mechanical properties :
#
#
# Convention : Reuss Voigt Hill
#
# Bulk Modulus (GPa) = 113.09495 88.55182 100.82338
# Shear Modulus (GPa) = 37.75969 20.41700 29.08835
#
# Velocity S-wave (km/s) = 4.53639 3.33574 3.98158
# Velocity P-wave (km/s) = 9.43793 7.94333 8.72270
#
# Compressibility (1/GPa) = 0.00884213
#
# Stress axis : x y z
#
# Youngs Moduli (GPa) = -1229.32099 84.34865 -219.66000
#
# Poissons Ratio (x) = 0.07115 1.69665
# Poissons Ratio (y) = -1.03700 -1.25298
# Poissons Ratio (z) = 9.49528 0.48114
#
# Static dielectric constant tensor:
#      x y z
#    x 1.671480 0.000000 -0.001000 
#    y 0.000000 1.632070 0.000000 
#    z -0.001000 0.000000 1.671020 
# 
# From -- ./inp_files/145385.got.cif
#   From: 2010.05.17/outbox.cif.g08.bks.cpg/sg15_73_cif.got.tgz:145385.got - 2010.06.03 18:47:42.
