data_PCOD9268024
_publ_section_title
;
Structure prediction by ZEFSAII (Michael W. Deem and Ramdas Pophale) SiO2 
 PCOD9268024
Probable space group: C 2/C
;
_chemical_formula_sum "Si O2"
_cell_formula_units_Z 40
_cell_length_a 15.983356
_cell_length_b 7.221332
_cell_length_c 21.351376
_cell_angle_alpha 90.000000
_cell_angle_beta 138.252475
_cell_angle_gamma 90.000000
_cell_volume 1640.919178
_symmetry_space_group_name_H-M "C 2/C"
_symmetry_group_IT_number 15
_symmetry_cell_setting 'monoclinic'
loop_
_space_group_symop_operation_xyz
x,y,z
-x,y,1/2-z
-x,-y,-z
x,-y,1/2+z
1/2+x,1/2+y,z
1/2-x,1/2+y,1/2-z
1/2-x,1/2-y,-z
1/2+x,1/2-y,1/2+z
loop_
_atom_site_type_symbol
_atom_site_label
_atom_site_fract_x
_atom_site_fract_y
_atom_site_fract_z
Si Si1 0.750846 0.797202 0.674822
Si Si2 0.046725 0.865574 0.970737
Si Si3 0.895415 0.772328 0.066115
Si Si4 0.874237 0.577600 0.262702
Si Si5 0.323156 0.178289 0.895139
O O1 0.665757 0.732678 0.568330
O O2 0.856100 0.642338 0.743745
O O3 0.676681 0.828660 0.699784
O O4 0.771810 0.010374 0.670018
O O5 0.931365 0.720370 0.904225
O O6 0.070022 0.010426 0.927239
O O7 0.000000 0.000000 0.000000
O O8 0.988250 0.664645 0.164322
O O9 0.750000 0.750000 0.000000
O O10 0.901117 0.665890 0.002389
O O11 0.770694 0.650187 0.155969
#
# Coordination Sequence:
#
# PCOD9268024 Si02
#       5
#     8   8   8   8   8
#     4  12  22  37  70 105 131 168 230 297 346 401
#     4  10  19  41  66  95 131 175 224 286 350 393
#     4  11  25  45  69  96 145 194 227 283 358 433
#     4  12  22  38  70 103 133 175 229 286 355 415
#     4  11  23  41  70 101 136 173 230 301 341 407
#
# _framework density 24.376581999999999
#
# number of rings (size 3 to 8) (size 9 to 14) (size 15 to 20)
#    0.000    0.800   10.000    0.600    0.000    0.800 
#    0.000    1.000    4.400    0.000    0.000    0.000 
#    0.000    0.000    0.000    0.000    0.000    0.000 
#
# Total GULP energy -111441.249335 kJ/mol
# GULP energy per Si atom -5572.062467 kJ/mol
# Density = 2.432110 g / cm^3
# Si number density = 24.376582 Si / 1000 Ang^3
#
#
#
# Elastic Constant Matrix: (Units=GPa)
#
#
# Indices 1 2 3 4 5 6 
#
# 1 35.8519 22.2760 18.7423 0.0000 18.8430 0.0000
# 2 22.2760 147.2462 35.6190 0.0000 8.0159 0.0000
# 3 18.7423 35.6190 139.2344 0.0000 9.1977 0.0000
# 4 0.0000 0.0000 0.0000 42.9548 0.0000 -6.3897
# 5 18.8430 8.0159 9.1977 0.0000 32.5905 0.0000
# 6 0.0000 0.0000 0.0000 -6.3897 0.0000 5.2154
#
#
#
# Elastic Compliance Matrix: (Units=1/GPa)
#
#
# Indices 1 2 3 4 5 6 
#
# 1 0.045180 -0.004732 -0.003283 0.000000 -0.024031 0.000000
# 2 -0.004732 0.007788 -0.001436 0.000000 0.001226 0.000000
# 3 -0.003283 -0.001436 0.007992 0.000000 -0.000004 0.000000
# 4 0.000000 0.000000 0.000000 0.028469 0.000000 0.034879
# 5 -0.024031 0.001226 -0.000004 0.000000 0.044278 0.000000
# 6 0.000000 0.000000 0.000000 0.034879 0.000000 0.234473
#
#
# Mechanical properties :
#
#
# Convention : Reuss Voigt Hill
#
# Bulk Modulus (GPa) = 23.77838 52.84524 38.31181
# Shear Modulus (GPa) = 12.46568 32.53181 22.49875
#
# Velocity S-wave (km/s) = 2.26382 3.65712 3.04133
# Velocity P-wave (km/s) = 4.07541 6.28955 5.29940
#
# Compressibility (1/GPa) = 0.04205502
#
# Stress axis : x y z
#
# Youngs Moduli (GPa) = 22.13383 128.40289 125.12821
#
# Poissons Ratio (x) = 0.60766 0.41086
# Poissons Ratio (y) = 0.10475 0.17972
# Poissons Ratio (z) = 0.07268 0.18442
#
# Static dielectric constant tensor:
#      x y z
#    x 2.046780 0.000000 -0.056860 
#    y 0.000000 2.020580 0.000000 
#    z -0.056860 0.000000 1.969470 
# 
# From -- ./inp_files/272956.got.cif
#   From: 2010.05.17/outbox.cif.g08.bks.cpg/sg15_137_cif.got.tgz:272956.got - 2010.06.03 18:47:42.
