data_PCOD9268972
_publ_section_title
;
Structure prediction by ZEFSAII (Michael W. Deem and Ramdas Pophale) SiO2 
 PCOD9268972
Probable space group: C 2/C
;
_chemical_formula_sum "Si O2"
_cell_formula_units_Z 44
_cell_length_a 7.853790
_cell_length_b 22.397082
_cell_length_c 12.727613
_cell_angle_alpha 90.000000
_cell_angle_beta 117.886934
_cell_angle_gamma 90.000000
_cell_volume 1978.824222
_symmetry_space_group_name_H-M "C 2/C"
_symmetry_group_IT_number 15
_symmetry_cell_setting 'monoclinic'
loop_
_space_group_symop_operation_xyz
x,y,z
-x,y,1/2-z
-x,-y,-z
x,-y,1/2+z
1/2+x,1/2+y,z
1/2-x,1/2+y,1/2-z
1/2-x,1/2-y,-z
1/2+x,1/2-y,1/2+z
loop_
_atom_site_type_symbol
_atom_site_label
_atom_site_fract_x
_atom_site_fract_y
_atom_site_fract_z
Si Si1 0.577858 0.920045 0.998226
Si Si2 0.799027 0.915799 0.737180
Si Si3 0.304782 0.832201 0.635637
Si Si4 0.276461 0.490900 0.410218
Si Si5 0.000000 0.781895 0.250000
Si Si6 0.311853 0.604361 0.761107
O O1 0.706102 0.868707 0.974482
O O2 0.652640 0.982621 0.970359
O O3 0.633747 0.910581 0.134026
O O4 0.639911 0.092172 0.100974
O O5 0.843081 0.856539 0.820697
O O6 0.000000 0.936660 0.750000
O O7 0.728118 0.966032 0.798015
O O8 0.500000 0.855904 0.750000
O O9 0.355271 0.762570 0.646163
O O10 0.500000 0.500000 0.500000
O O11 0.270431 0.425011 0.360661
O O12 0.870313 0.826048 0.282498
O O13 0.500000 0.579078 0.750000
#
# Coordination Sequence:
#
# PCOD9268972 Si02
#       6
#     8   8   8   8   4   8
#     4  10  20  38  60  88 120 157 200 247 298 349
#     4  10  21  37  59  84 112 159 208 243 286 349
#     4   7  15  34  57  85 111 151 193 245 286 342
#     4  11  20  37  57  85 124 150 191 249 307 357
#     4   8  16  34  58  92 122 150 194 244 294 372
#     4  10  20  33  57  97 117 155 196 237 302 367
#
# _framework density 22.235427999999999
#
# number of rings (size 3 to 8) (size 9 to 14) (size 15 to 20)
#    1.091    1.455    1.818    2.182    0.000    1.455 
#    3.273    0.000    0.000    3.273    0.000    0.000 
#    0.000    0.000    0.000    0.000    0.000    0.000 
#
# Total GULP energy -122608.774044 kJ/mol
# GULP energy per Si atom -5573.126093 kJ/mol
# Density = 2.218482 g / cm^3
# Si number density = 22.235428 Si / 1000 Ang^3
#
#
#
# Elastic Constant Matrix: (Units=GPa)
#
#
# Indices 1 2 3 4 5 6 
#
# 1 82.8604 13.8583 15.3441 0.0000 1.2922 0.0000
# 2 13.8583 151.0671 26.5863 0.0000 -10.9786 0.0000
# 3 15.3441 26.5863 81.0964 0.0000 10.4938 0.0000
# 4 0.0000 0.0000 0.0000 18.1666 0.0000 1.7203
# 5 1.2922 -10.9786 10.4938 0.0000 30.8442 0.0000
# 6 0.0000 0.0000 0.0000 1.7203 0.0000 28.7933
#
#
#
# Elastic Compliance Matrix: (Units=1/GPa)
#
#
# Indices 1 2 3 4 5 6 
#
# 1 0.012593 -0.000790 -0.002112 0.000000 -0.000090 0.000000
# 2 -0.000790 0.007441 -0.002758 0.000000 0.003620 0.000000
# 3 -0.002112 -0.002758 0.014384 0.000000 -0.005787 0.000000
# 4 0.000000 0.000000 0.000000 0.055359 0.000000 -0.003308
# 5 -0.000090 0.003620 -0.005787 0.000000 0.035682 0.000000
# 6 0.000000 0.000000 0.000000 -0.003308 0.000000 0.034928
#
#
# Mechanical properties :
#
#
# Convention : Reuss Voigt Hill
#
# Bulk Modulus (GPa) = 43.29622 47.40016 45.34819
# Shear Modulus (GPa) = 27.86972 32.84316 30.35644
#
# Velocity S-wave (km/s) = 3.54417 3.84743 3.69891
# Velocity P-wave (km/s) = 6.02181 6.41098 6.21944
#
# Compressibility (1/GPa) = 0.02309670
#
# Stress axis : x y z
#
# Youngs Moduli (GPa) = 79.40824 134.39894 69.52335
#
# Poissons Ratio (x) = 0.10619 0.14684
# Poissons Ratio (y) = 0.06274 0.19176
# Poissons Ratio (z) = 0.16771 0.37070
#
# Static dielectric constant tensor:
#      x y z
#    x 1.933220 0.000000 -0.053230 
#    y 0.000000 1.876230 0.000000 
#    z -0.053230 0.000000 1.859550 
# 
# From -- ./inp_files/90147.got.cif
#   From: 2010.05.17/outbox.cif.g08.bks.cpg/sg15_46_cif.got.tgz:90147.got - 2010.06.03 18:47:42.
