data_PCOD9268532
_publ_section_title
;
Structure prediction by ZEFSAII (Michael W. Deem and Ramdas Pophale) SiO2 
 PCOD9268532
Probable space group: C 2/C
;
_chemical_formula_sum "Si O2"
_cell_formula_units_Z 64
_cell_length_a 30.358179
_cell_length_b 13.935019
_cell_length_c 9.491631
_cell_angle_alpha 90.000000
_cell_angle_beta 118.903713
_cell_angle_gamma 90.000000
_cell_volume 3515.176569
_symmetry_space_group_name_H-M "C 2/C"
_symmetry_group_IT_number 15
_symmetry_cell_setting 'monoclinic'
loop_
_space_group_symop_operation_xyz
x,y,z
-x,y,1/2-z
-x,-y,-z
x,-y,1/2+z
1/2+x,1/2+y,z
1/2-x,1/2+y,1/2-z
1/2-x,1/2-y,-z
1/2+x,1/2-y,1/2+z
loop_
_atom_site_type_symbol
_atom_site_label
_atom_site_fract_x
_atom_site_fract_y
_atom_site_fract_z
Si Si1 0.534155 0.388374 0.181944
Si Si2 0.219640 0.448571 0.622990
Si Si3 0.667892 0.548541 0.110299
Si Si4 0.461949 0.390405 0.805013
Si Si5 0.691890 0.892303 0.268917
Si Si6 0.359600 0.712329 0.218551
Si Si7 0.210148 0.225650 0.661247
Si Si8 0.358749 0.386213 0.238756
O O1 0.500000 0.342570 0.250000
O O2 0.549419 0.497877 0.249901
O O3 0.587153 0.342813 0.219604
O O4 0.495163 0.394724 0.995637
O O5 0.275705 0.479312 0.756427
O O6 0.212390 0.441344 0.444269
O O7 0.183372 0.525221 0.641198
O O8 0.213237 0.340390 0.669008
O O9 0.655099 0.646136 0.172113
O O10 0.633230 0.467059 0.127956
O O11 0.662649 0.564049 0.935966
O O12 0.500000 0.349237 0.750000
O O13 0.412957 0.326632 0.749202
O O14 0.646283 0.822635 0.243016
O O15 0.735216 0.821269 0.275626
O O16 0.320763 0.698977 0.028822
O O17 0.180477 0.186359 0.750866
#
# Coordination Sequence:
#
# PCOD9268532 Si02
#       8
#     8   8   8   8   8   8   8   8
#     4  10  21  34  48  78 109 140 179 224 271 321
#     4  11  22  38  53  81 117 147 190 229 265 324
#     4  12  21  33  53  80 114 150 189 219 272 326
#     4  10  20  32  54  76 105 141 179 224 268 328
#     4  11  22  37  57  80 111 150 184 229 274 321
#     4  11  20  38  57  78 109 150 186 222 275 330
#     4  11  22  37  55  82 110 148 189 227 268 330
#     4  12  24  32  54  80 110 154 182 226 274 328
#
# _framework density 18.206766999999999
#
# number of rings (size 3 to 8) (size 9 to 14) (size 15 to 20)
#    0.000    1.000    5.000    3.750    3.500    1.500 
#    0.000    0.000    0.000    0.000    0.000    8.750 
#    0.000    0.000    0.000    0.375    0.000    0.000 
#
# Total GULP energy -178691.555888 kJ/mol
# GULP energy per Si atom -5584.111122 kJ/mol
# Density = 1.816533 g / cm^3
# Si number density = 18.206767 Si / 1000 Ang^3
#
#
#
# Elastic Constant Matrix: (Units=GPa)
#
#
# Indices 1 2 3 4 5 6 
#
# 1 87.9161 30.7458 16.8101 0.0000 -14.4247 0.0000
# 2 30.7458 71.2812 7.9739 0.0000 -9.3679 0.0000
# 3 16.8101 7.9739 31.5180 0.0000 -16.0023 0.0000
# 4 0.0000 0.0000 0.0000 19.6064 0.0000 -5.5391
# 5 -14.4247 -9.3679 -16.0023 0.0000 32.4410 0.0000
# 6 0.0000 0.0000 0.0000 -5.5391 0.0000 21.0601
#
#
#
# Elastic Compliance Matrix: (Units=1/GPa)
#
#
# Indices 1 2 3 4 5 6 
#
# 1 0.014664 -0.005427 -0.005247 0.000000 0.002365 0.000000
# 2 -0.005427 0.016693 -0.000142 0.000000 0.002337 0.000000
# 3 -0.005247 -0.000142 0.044502 0.000000 0.019578 0.000000
# 4 0.000000 0.000000 0.000000 0.055098 0.000000 0.014492
# 5 0.002365 0.002337 0.019578 0.000000 0.042209 0.000000
# 6 0.000000 0.000000 0.000000 0.014492 0.000000 0.051295
#
#
# Mechanical properties :
#
#
# Convention : Reuss Voigt Hill
#
# Bulk Modulus (GPa) = 18.44136 33.53054 25.98595
# Shear Modulus (GPa) = 18.92732 23.63387 21.28060
#
# Velocity S-wave (km/s) = 3.22774 3.60680 3.42252
# Velocity P-wave (km/s) = 4.90326 5.98346 5.47009
#
# Compressibility (1/GPa) = 0.05422593
#
# Stress axis : x y z
#
# Youngs Moduli (GPa) = 68.19541 59.90575 22.47074
#
# Poissons Ratio (x) = 0.32512 0.11791
# Poissons Ratio (y) = 0.37011 0.00319
# Poissons Ratio (z) = 0.35784 0.00851
#
# Static dielectric constant tensor:
#      x y z
#    x 1.667690 0.000000 -0.009440 
#    y 0.000000 1.635980 0.000000 
#    z -0.009440 0.000000 1.610580 
# 
# From -- ./inp_files/66264.got.cif
#   From: 2010.05.17/outbox.cif.g08.bks.cpg/sg15_34_cif.got.tgz:66264.got - 2010.06.03 18:47:42.
