data_PCOD9268966
_publ_section_title
;
Structure prediction by ZEFSAII (Michael W. Deem and Ramdas Pophale) SiO2 
 PCOD9268966
Probable space group: C 2/C
;
_chemical_formula_sum "Si O2"
_cell_formula_units_Z 40
_cell_length_a 27.990887
_cell_length_b 10.327425
_cell_length_c 8.498081
_cell_angle_alpha 90.000000
_cell_angle_beta 121.628033
_cell_angle_gamma 90.000000
_cell_volume 2091.698880
_symmetry_space_group_name_H-M "C 2/C"
_symmetry_group_IT_number 15
_symmetry_cell_setting 'monoclinic'
loop_
_space_group_symop_operation_xyz
x,y,z
-x,y,1/2-z
-x,-y,-z
x,-y,1/2+z
1/2+x,1/2+y,z
1/2-x,1/2+y,1/2-z
1/2-x,1/2-y,-z
1/2+x,1/2-y,1/2+z
loop_
_atom_site_type_symbol
_atom_site_label
_atom_site_fract_x
_atom_site_fract_y
_atom_site_fract_z
Si Si1 0.899352 0.807447 0.379158
Si Si2 0.882134 0.073206 0.197810
Si Si3 0.255376 0.608791 0.081765
Si Si4 0.289136 0.857808 0.648332
Si Si5 0.510617 0.353359 0.455193
O O1 0.888985 0.875939 0.531004
O O2 0.851713 0.700102 0.272534
O O3 0.964481 0.767836 0.468773
O O4 0.894196 0.920097 0.237957
O O5 0.819619 0.077574 0.155949
O O6 0.924900 0.159045 0.377796
O O7 0.239329 0.619139 0.233835
O O8 0.250000 0.750000 0.000000
O O9 0.216147 0.495305 0.946425
O O10 0.250000 0.750000 0.500000
O O11 0.500000 0.343457 0.250000
O O12 0.500000 0.500000 0.500000
#
# Coordination Sequence:
#
# PCOD9268966 Si02
#       5
#     8   8   8   8   8
#     4  11  21  37  60  94 128 167 206 263 317 374
#     4  11  20  37  61  89 132 160 211 255 315 372
#     4  12  24  42  62  95 126 171 209 253 320 378
#     4  12  25  41  64  94 131 164 212 264 317 385
#     4  10  20  33  57  91 125 164 208 262 316 367
#
# _framework density 19.123208999999999
#
# number of rings (size 3 to 8) (size 9 to 14) (size 15 to 20)
#    0.000    0.800    4.000    7.800    2.800    0.000 
#    0.000    0.000    0.000    1.200    0.000    0.000 
#    0.000    0.000    0.000    0.000    0.000    0.000 
#
# Total GULP energy -111524.863598 kJ/mol
# GULP energy per Si atom -5576.243180 kJ/mol
# Density = 1.907968 g / cm^3
# Si number density = 19.123209 Si / 1000 Ang^3
#
#
#
# Elastic Constant Matrix: (Units=GPa)
#
#
# Indices 1 2 3 4 5 6 
#
# 1 132.6174 18.8716 46.7446 0.0000 0.1430 0.0000
# 2 18.8716 83.2590 45.9726 0.0000 -7.3350 0.0000
# 3 46.7446 45.9726 107.6831 0.0000 -19.2110 0.0000
# 4 0.0000 0.0000 0.0000 36.8656 0.0000 0.4825
# 5 0.1430 -7.3350 -19.2110 0.0000 46.7164 0.0000
# 6 0.0000 0.0000 0.0000 0.4825 0.0000 23.0309
#
#
#
# Elastic Compliance Matrix: (Units=1/GPa)
#
#
# Indices 1 2 3 4 5 6 
#
# 1 0.009038 0.000178 -0.004316 0.000000 -0.001775 0.000000
# 2 0.000178 0.015723 -0.006852 0.000000 -0.000350 0.000000
# 3 -0.004316 -0.006852 0.014996 0.000000 0.005104 0.000000
# 4 0.000000 0.000000 0.000000 0.027133 0.000000 -0.000568
# 5 -0.001775 -0.000350 0.005104 0.000000 0.023455 0.000000
# 6 0.000000 0.000000 0.000000 -0.000568 0.000000 0.043432
#
#
# Mechanical properties :
#
#
# Convention : Reuss Voigt Hill
#
# Bulk Modulus (GPa) = 56.25224 60.74858 58.50041
# Shear Modulus (GPa) = 30.92446 35.45394 33.18920
#
# Velocity S-wave (km/s) = 4.02570 4.31045 4.17051
# Velocity P-wave (km/s) = 7.14758 7.52391 7.33816
#
# Compressibility (1/GPa) = 0.01777707
#
# Stress axis : x y z
#
# Youngs Moduli (GPa) = 110.63898 63.60054 66.68351
#
# Poissons Ratio (x) = -0.01134 0.28782
# Poissons Ratio (y) = -0.01972 0.45694
# Poissons Ratio (z) = 0.47754 0.43582
#
# Static dielectric constant tensor:
#      x y z
#    x 1.767350 0.000000 0.121370 
#    y 0.000000 1.521520 0.000000 
#    z 0.121370 0.000000 1.770380 
# 
# From -- ./inp_files/68447.got.cif
#   From: 2010.05.17/outbox.cif.g08.bks.cpg/sg15_35_cif.got.tgz:68447.got - 2010.06.03 18:47:42.
