data_PCOD9268943
_publ_section_title
;
Structure prediction by ZEFSAII (Michael W. Deem and Ramdas Pophale) SiO2 
 PCOD9268943
Probable space group: C 2/C
;
_chemical_formula_sum "Si O2"
_cell_formula_units_Z 48
_cell_length_a 5.401020
_cell_length_b 29.837704
_cell_length_c 14.364242
_cell_angle_alpha 90.000000
_cell_angle_beta 92.320759
_cell_angle_gamma 90.000000
_cell_volume 2312.956904
_symmetry_space_group_name_H-M "C 2/C"
_symmetry_group_IT_number 15
_symmetry_cell_setting 'monoclinic'
loop_
_space_group_symop_operation_xyz
x,y,z
-x,y,1/2-z
-x,-y,-z
x,-y,1/2+z
1/2+x,1/2+y,z
1/2-x,1/2+y,1/2-z
1/2-x,1/2-y,-z
1/2+x,1/2-y,1/2+z
loop_
_atom_site_type_symbol
_atom_site_label
_atom_site_fract_x
_atom_site_fract_y
_atom_site_fract_z
Si Si1 0.310827 0.572734 0.613209
Si Si2 0.747850 0.979155 0.696865
Si Si3 0.290486 0.924670 0.992145
Si Si4 0.832375 0.323380 0.984348
Si Si5 0.450493 0.259130 0.083158
Si Si6 0.315917 0.167943 0.833527
O O1 0.271333 0.532628 0.684534
O O2 0.562673 0.565484 0.558575
O O3 0.330996 0.621459 0.661438
O O4 0.059799 0.571865 0.545882
O O5 0.500000 0.968375 0.750000
O O6 0.724354 0.957999 0.594422
O O7 0.000000 0.963015 0.750000
O O8 0.254446 0.873274 0.956267
O O9 0.918156 0.289092 0.904839
O O10 0.630101 0.295494 0.038725
O O11 0.041747 0.330681 0.065695
O O12 0.330913 0.285260 0.167092
O O13 0.250000 0.250000 0.000000
O O14 0.500000 0.165883 0.750000
#
# Coordination Sequence:
#
# PCOD9268943 Si02
#       6
#     8   8   8   8   8   8
#     4  11  22  40  62  96 120 167 205 254 308 384
#     4  12  25  42  63  92 129 163 201 264 314 356
#     4  11  22  41  67  89 120 168 216 247 297 385
#     4   9  19  35  60  83 113 163 202 247 293 363
#     4   9  17  35  57  81 113 153 199 242 306 359
#     4  10  20  33  56  90 125 152 195 257 316 358
#
# _framework density 20.752654
#
# number of rings (size 3 to 8) (size 9 to 14) (size 15 to 20)
#    0.000    1.667    1.667    3.500    0.000    2.000 
#    0.000    0.000   11.000    0.000    0.000    0.000 
#    0.000    0.000    0.000    0.000    0.000    0.000 
#
# Total GULP energy -133943.691210 kJ/mol
# GULP energy per Si atom -5580.987134 kJ/mol
# Density = 2.070542 g / cm^3
# Si number density = 20.752654 Si / 1000 Ang^3
#
#
#
# Elastic Constant Matrix: (Units=GPa)
#
#
# Indices 1 2 3 4 5 6 
#
# 1 109.3457 3.6253 32.2635 0.0000 -0.8063 0.0000
# 2 3.6253 48.3798 6.0015 0.0000 -0.0283 0.0000
# 3 32.2635 6.0015 71.1350 0.0000 -16.3323 0.0000
# 4 0.0000 0.0000 0.0000 13.5979 0.0000 -8.5406
# 5 -0.8063 -0.0283 -16.3323 0.0000 45.5456 0.0000
# 6 0.0000 0.0000 0.0000 -8.5406 0.0000 14.0873
#
#
#
# Elastic Compliance Matrix: (Units=1/GPa)
#
#
# Indices 1 2 3 4 5 6 
#
# 1 0.010677 -0.000154 -0.005216 0.000000 -0.001681 0.000000
# 2 -0.000154 0.020910 -0.001844 0.000000 -0.000651 0.000000
# 3 -0.005216 -0.001844 0.018043 0.000000 0.006377 0.000000
# 4 0.000000 0.000000 0.000000 0.118764 0.000000 0.072002
# 5 -0.001681 -0.000651 0.006377 0.000000 0.024212 0.000000
# 6 0.000000 0.000000 0.000000 0.072002 0.000000 0.114638
#
#
# Mechanical properties :
#
#
# Convention : Reuss Voigt Hill
#
# Bulk Modulus (GPa) = 28.40679 34.73791 31.57235
# Shear Modulus (GPa) = 14.99680 27.11083 21.05382
#
# Velocity S-wave (km/s) = 2.69112 3.61831 3.18860
# Velocity P-wave (km/s) = 4.83468 5.85077 5.36683
#
# Compressibility (1/GPa) = 0.03520285
#
# Stress axis : x y z
#
# Youngs Moduli (GPa) = 93.65995 47.82481 55.42342
#
# Poissons Ratio (x) = 0.00737 0.28907
# Poissons Ratio (y) = 0.01443 0.10218
# Poissons Ratio (z) = 0.48849 0.08817
#
# Static dielectric constant tensor:
#      x y z
#    x 1.741050 0.000000 -0.028750 
#    y 0.000000 1.727160 0.000000 
#    z -0.028750 0.000000 1.689800 
# 
# From -- ./inp_files/130365.got.cif
#   From: 2010.05.17/outbox.cif.g08.bks.cpg/sg15_66_cif.got.tgz:130365.got - 2010.06.03 18:47:42.
