data_PCOD9268448
_publ_section_title
;
Structure prediction by ZEFSAII (Michael W. Deem and Ramdas Pophale) SiO2 
 PCOD9268448
Probable space group: C 2/C
;
_chemical_formula_sum "Si O2"
_cell_formula_units_Z 44
_cell_length_a 13.656614
_cell_length_b 10.238572
_cell_length_c 14.722556
_cell_angle_alpha 90.000000
_cell_angle_beta 115.782061
_cell_angle_gamma 90.000000
_cell_volume 1853.649635
_symmetry_space_group_name_H-M "C 2/C"
_symmetry_group_IT_number 15
_symmetry_cell_setting 'monoclinic'
loop_
_space_group_symop_operation_xyz
x,y,z
-x,y,1/2-z
-x,-y,-z
x,-y,1/2+z
1/2+x,1/2+y,z
1/2-x,1/2+y,1/2-z
1/2-x,1/2-y,-z
1/2+x,1/2-y,1/2+z
loop_
_atom_site_type_symbol
_atom_site_label
_atom_site_fract_x
_atom_site_fract_y
_atom_site_fract_z
Si Si1 0.310781 0.683394 0.132455
Si Si2 0.965422 0.681474 0.063389
Si Si3 0.355716 0.974908 0.378694
Si Si4 0.500000 0.664999 0.750000
Si Si5 0.628021 0.624337 0.526482
Si Si6 0.846807 0.973151 0.803913
O O1 0.214558 0.575569 0.088482
O O2 0.250260 0.817227 0.086387
O O3 0.351214 0.663518 0.251795
O O4 0.394726 0.637214 0.089278
O O5 0.031987 0.545328 0.103647
O O6 0.939741 0.745164 0.150334
O O7 0.050193 0.779132 0.049794
O O8 0.875861 0.647652 0.951716
O O9 0.275878 0.972458 0.260651
O O10 0.418065 0.572691 0.772082
O O11 0.623091 0.488284 0.578781
#
# Coordination Sequence:
#
# PCOD9268448 Si02
#       6
#     8   8   8   4   8   8
#     4   8  17  33  53  74 101 138 172 207 253 308
#     4   9  17  32  52  75  98 136 167 218 253 295
#     4   8  17  33  51  72 101 126 180 215 243 298
#     4  10  20  32  50  72 112 134 166 204 270 306
#     4   9  16  33  56  73 103 140 167 209 265 292
#     4   9  19  34  50  78 104 136 171 212 251 313
#
# _framework density 23.736955999999999
#
# number of rings (size 3 to 8) (size 9 to 14) (size 15 to 20)
#    1.091    2.182    0.000    0.000    0.000    2.182 
#    0.000    5.455    0.000    0.000    0.000    0.000 
#    0.000    0.000    0.000    0.000    0.000    0.000 
#
# Total GULP energy -122468.454819 kJ/mol
# GULP energy per Si atom -5566.747946 kJ/mol
# Density = 2.368293 g / cm^3
# Si number density = 23.736956 Si / 1000 Ang^3
#
#
#
# Elastic Constant Matrix: (Units=GPa)
#
#
# Indices 1 2 3 4 5 6 
#
# 1 29.2875 -5.1682 13.3622 0.0000 -1.6017 0.0000
# 2 -5.1682 36.4888 14.2449 0.0000 -4.5781 0.0000
# 3 13.3622 14.2449 88.1994 0.0000 -2.5189 0.0000
# 4 0.0000 0.0000 0.0000 43.1991 0.0000 -3.4318
# 5 -1.6017 -4.5781 -2.5189 0.0000 36.3074 0.0000
# 6 0.0000 0.0000 0.0000 -3.4318 0.0000 -11.9557
#
#
#
# Elastic Compliance Matrix: (Units=1/GPa)
#
#
# Indices 1 2 3 4 5 6 
#
# 1 0.039111 0.008664 -0.007259 0.000000 0.002314 0.000000
# 2 0.008664 0.031586 -0.006302 0.000000 0.003928 0.000000
# 3 -0.007259 -0.006302 0.013450 0.000000 -0.000182 0.000000
# 4 0.000000 0.000000 0.000000 0.022633 0.000000 -0.006497
# 5 0.002314 0.003928 -0.000182 0.000000 0.028127 0.000000
# 6 0.000000 0.000000 0.000000 -0.006497 0.000000 -0.081777
#
#
# Mechanical properties :
#
#
# Convention : Reuss Voigt Hill
#
# Bulk Modulus (GPa) = 13.44914 22.09483 17.77198
# Shear Modulus (GPa) = 57.00750 22.27926 39.64338
#
# Velocity S-wave (km/s) = 4.90596 3.06696 4.09113
# Velocity P-wave (km/s) = 6.14569 4.67655 5.46075
#
# Compressibility (1/GPa) = 0.07435421
#
# Stress axis : x y z
#
# Youngs Moduli (GPa) = 25.56801 31.65983 74.34828
#
# Poissons Ratio (x) = -0.27429 0.53966
# Poissons Ratio (y) = -0.22151 0.46852
# Poissons Ratio (z) = 0.18559 0.19951
#
# Static dielectric constant tensor:
#      x y z
#    x 1.900030 0.000000 0.028920 
#    y 0.000000 1.927650 0.000000 
#    z 0.028920 0.000000 1.991360 
# 
# From -- ./inp_files/160056.got.cif
#   From: 2010.05.17/outbox.cif.g08.bks.cpg/sg15_81_cif.got.tgz:160056.got - 2010.06.03 18:47:42.
