data_PCOD9268862
_publ_section_title
;
Structure prediction by ZEFSAII (Michael W. Deem and Ramdas Pophale) SiO2 
 PCOD9268862
Probable space group: C 2/C
;
_chemical_formula_sum "Si O2"
_cell_formula_units_Z 52
_cell_length_a 26.406006
_cell_length_b 12.231754
_cell_length_c 9.497622
_cell_angle_alpha 90.000000
_cell_angle_beta 64.893900
_cell_angle_gamma 90.000000
_cell_volume 2777.832951
_symmetry_space_group_name_H-M "C 2/C"
_symmetry_group_IT_number 15
_symmetry_cell_setting 'monoclinic'
loop_
_space_group_symop_operation_xyz
x,y,z
-x,y,1/2-z
-x,-y,-z
x,-y,1/2+z
1/2+x,1/2+y,z
1/2-x,1/2+y,1/2-z
1/2-x,1/2-y,-z
1/2+x,1/2-y,1/2+z
loop_
_atom_site_type_symbol
_atom_site_label
_atom_site_fract_x
_atom_site_fract_y
_atom_site_fract_z
Si Si1 0.887855 0.647611 0.271969
Si Si2 0.812038 0.354972 0.417303
Si Si3 0.730913 0.720981 0.260484
Si Si4 0.793035 0.000449 0.044837
Si Si5 0.178591 0.861219 0.240492
Si Si6 0.500000 0.917832 0.750000
Si Si7 0.393456 0.986952 0.488861
O O1 0.860889 0.761530 0.259233
O O2 0.955003 0.651494 0.214568
O O3 0.868095 0.597677 0.446593
O O4 0.877617 0.557604 0.160610
O O5 0.780156 0.304036 0.589336
O O6 0.816465 0.271806 0.282803
O O7 0.767189 0.446527 0.419032
O O8 0.870170 0.397493 0.407524
O O9 0.716027 0.610684 0.355854
O O10 0.758835 0.809195 0.330846
O O11 0.827523 0.914863 0.098459
O O12 0.822319 0.040056 0.868661
O O13 0.540627 0.991670 0.605602
#
# Coordination Sequence:
#
# PCOD9268862 Si02
#       7
#     8   8   8   8   8   4   8
#     4  10  21  37  58  85 111 146 180 238 289 337
#     4  10  20  33  54  81 119 152 184 230 279 327
#     4  10  20  35  51  80 118 157 186 226 268 341
#     4  11  22  36  53  82 119 154 195 226 265 343
#     4  11  22  37  57  80 117 156 191 229 279 326
#     4   8  22  38  60  82 114 136 190 238 298 336
#     4  10  20  35  59  84 113 146 180 233 294 340
#
# _framework density 18.719628
#
# number of rings (size 3 to 8) (size 9 to 14) (size 15 to 20)
#    0.923    0.923    3.077    1.846    0.000    1.231 
#    0.000    0.000    0.000    0.923    0.000    1.077 
#    0.000    0.000    0.000    0.000    0.000    0.000 
#
# Total GULP energy -144775.580315 kJ/mol
# GULP energy per Si atom -5568.291551 kJ/mol
# Density = 1.867702 g / cm^3
# Si number density = 18.719628 Si / 1000 Ang^3
#
#
#
# Elastic Constant Matrix: (Units=GPa)
#
#
# Indices 1 2 3 4 5 6 
#
# 1 85.3032 34.3205 26.1599 0.0000 20.0640 0.0000
# 2 34.3205 52.0419 27.7345 0.0000 12.8860 0.0000
# 3 26.1599 27.7345 71.5906 0.0000 17.6525 0.0000
# 4 0.0000 0.0000 0.0000 43.9519 0.0000 15.0453
# 5 20.0640 12.8860 17.6525 0.0000 25.2154 0.0000
# 6 0.0000 0.0000 0.0000 15.0453 0.0000 33.7085
#
#
#
# Elastic Compliance Matrix: (Units=1/GPa)
#
#
# Indices 1 2 3 4 5 6 
#
# 1 0.017699 -0.009059 -0.000758 0.000000 -0.008923 0.000000
# 2 -0.009059 0.029924 -0.007601 0.000000 -0.002763 0.000000
# 3 -0.000758 -0.007601 0.019439 0.000000 -0.009121 0.000000
# 4 0.000000 0.000000 0.000000 0.026855 0.000000 -0.011986
# 5 -0.008923 -0.002763 -0.009121 0.000000 0.054556 0.000000
# 6 0.000000 0.000000 0.000000 -0.011986 0.000000 0.035016
#
#
# Mechanical properties :
#
#
# Convention : Reuss Voigt Hill
#
# Bulk Modulus (GPa) = 31.03025 42.81839 36.92432
# Shear Modulus (GPa) = 21.82767 28.62321 25.22544
#
# Velocity S-wave (km/s) = 3.41842 3.91455 3.67487
# Velocity P-wave (km/s) = 5.67390 6.58443 6.14605
#
# Compressibility (1/GPa) = 0.03222661
#
# Stress axis : x y z
#
# Youngs Moduli (GPa) = 56.50147 33.41756 51.44284
#
# Poissons Ratio (x) = 0.30272 0.03898
# Poissons Ratio (y) = 0.51183 0.39104
# Poissons Ratio (z) = 0.04281 0.25402
#
# Static dielectric constant tensor:
#      x y z
#    x 1.639830 0.000000 0.026610 
#    y 0.000000 1.692750 0.000000 
#    z 0.026610 0.000000 1.726890 
# 
# From -- ./inp_files/68852.got.cif
#   From: 2010.05.17/outbox.cif.g08.bks.cpg/sg15_35_cif.got.tgz:68852.got - 2010.06.03 18:47:42.
