data_PCOD9268467
_publ_section_title
;
Structure prediction by ZEFSAII (Michael W. Deem and Ramdas Pophale) SiO2 
 PCOD9268467
Probable space group: C 2/C
;
_chemical_formula_sum "Si O2"
_cell_formula_units_Z 56
_cell_length_a 16.832040
_cell_length_b 28.253032
_cell_length_c 5.685296
_cell_angle_alpha 90.000000
_cell_angle_beta 75.368891
_cell_angle_gamma 90.000000
_cell_volume 2616.003153
_symmetry_space_group_name_H-M "C 2/C"
_symmetry_group_IT_number 15
_symmetry_cell_setting 'monoclinic'
loop_
_space_group_symop_operation_xyz
x,y,z
-x,y,1/2-z
-x,-y,-z
x,-y,1/2+z
1/2+x,1/2+y,z
1/2-x,1/2+y,1/2-z
1/2-x,1/2-y,-z
1/2+x,1/2-y,1/2+z
loop_
_atom_site_type_symbol
_atom_site_label
_atom_site_fract_x
_atom_site_fract_y
_atom_site_fract_z
Si Si1 0.880809 0.156437 0.143827
Si Si2 0.500000 0.804330 0.250000
Si Si3 0.143080 0.741878 0.935615
Si Si4 0.732589 0.317896 0.391531
Si Si5 0.000000 0.896263 0.250000
Si Si6 0.245768 0.400128 0.502702
Si Si7 0.872186 0.339923 0.671831
Si Si8 0.638806 0.527087 0.736337
O O1 0.864558 0.203210 0.997074
O O2 0.855432 0.177564 0.416475
O O3 0.815676 0.114128 0.142736
O O4 0.966075 0.135232 0.991237
O O5 0.429448 0.771624 0.192052
O O6 0.458187 0.837480 0.476170
O O7 0.231807 0.729557 0.755626
O O8 0.129272 0.704122 0.149810
O O9 0.741303 0.360185 0.202474
O O10 0.800896 0.328938 0.537845
O O11 0.926993 0.930256 0.219026
O O12 0.157533 0.387944 0.678713
O O13 0.271351 0.449388 0.368495
O O14 0.627324 0.497778 0.499491
#
# Coordination Sequence:
#
# PCOD9268467 Si02
#       8
#     8   4   8   8   4   8   8   8
#     4  10  21  36  53  78 121 157 209 254 297 359
#     4  10  20  32  50  81 118 162 197 236 292 356
#     4  10  20  34  53  80 116 163 208 246 292 347
#     4   9  19  36  56  78 110 153 207 254 302 353
#     4  10  24  42  56  91 122 170 199 264 316 370
#     4   9  21  38  59  86 110 149 199 260 313 363
#     4   9  19  34  56  79 121 148 203 244 296 366
#     4  11  25  45  71  92 123 159 209 265 328 393
#
# _framework density 21.406701999999999
#
# number of rings (size 3 to 8) (size 9 to 14) (size 15 to 20)
#    0.000    2.286    0.000    1.286    8.000    7.429 
#    5.143    0.000    0.000    0.000    0.000    1.000 
#    0.000    0.000    0.000    0.000    0.000    0.000 
#
# Total GULP energy -156174.769164 kJ/mol
# GULP energy per Si atom -5577.670327 kJ/mol
# Density = 2.135798 g / cm^3
# Si number density = 21.406702 Si / 1000 Ang^3
#
#
#
# Elastic Constant Matrix: (Units=GPa)
#
#
# Indices 1 2 3 4 5 6 
#
# 1 53.1257 29.9417 37.5765 0.0000 -15.8532 0.0000
# 2 29.9417 73.0423 43.2298 0.0000 -18.6661 0.0000
# 3 37.5765 43.2298 134.8786 0.0000 -37.1755 0.0000
# 4 0.0000 0.0000 0.0000 29.0407 0.0000 -17.2228
# 5 -15.8532 -18.6661 -37.1755 0.0000 46.7833 0.0000
# 6 0.0000 0.0000 0.0000 -17.2228 0.0000 32.7208
#
#
#
# Elastic Compliance Matrix: (Units=1/GPa)
#
#
# Indices 1 2 3 4 5 6 
#
# 1 0.027092 -0.007894 -0.004296 0.000000 0.002617 0.000000
# 2 -0.007894 0.019560 -0.003401 0.000000 0.002427 0.000000
# 3 -0.004296 -0.003401 0.011429 0.000000 0.006269 0.000000
# 4 0.000000 0.000000 0.000000 0.050062 0.000000 0.026350
# 5 0.002617 0.002427 0.006269 0.000000 0.028212 0.000000
# 6 0.000000 0.000000 0.000000 0.026350 0.000000 0.044431
#
#
# Mechanical properties :
#
#
# Convention : Reuss Voigt Hill
#
# Bulk Modulus (GPa) = 37.17769 53.61581 45.39675
# Shear Modulus (GPa) = 22.63121 31.72888 27.18005
#
# Velocity S-wave (km/s) = 3.25499 3.85410 3.56715
# Velocity P-wave (km/s) = 5.61530 6.70120 6.18214
#
# Compressibility (1/GPa) = 0.02689785
#
# Stress axis : x y z
#
# Youngs Moduli (GPa) = 36.91096 51.12568 87.49751
#
# Poissons Ratio (x) = 0.40360 0.37592
# Poissons Ratio (y) = 0.29138 0.29757
# Poissons Ratio (z) = 0.15858 0.17388
#
# Static dielectric constant tensor:
#      x y z
#    x 1.842120 0.000000 0.025970 
#    y 0.000000 1.781110 0.000000 
#    z 0.025970 0.000000 1.901190 
# 
# From -- ./inp_files/11525.got.cif
#   From: 2010.05.17/outbox.cif.g08.bks.cpg/sg15_6_cif.got.tgz:11525.got - 2010.06.03 18:47:42.
