data_PCOD9268778
_publ_section_title
;
Structure prediction by ZEFSAII (Michael W. Deem and Ramdas Pophale) SiO2 
 PCOD9268778
Probable space group: C 2/C
;
_chemical_formula_sum "Si O2"
_cell_formula_units_Z 24
_cell_length_a 9.089708
_cell_length_b 14.106935
_cell_length_c 9.353232
_cell_angle_alpha 90.000000
_cell_angle_beta 86.200451
_cell_angle_gamma 90.000000
_cell_volume 1196.709310
_symmetry_space_group_name_H-M "C 2/C"
_symmetry_group_IT_number 15
_symmetry_cell_setting 'monoclinic'
loop_
_space_group_symop_operation_xyz
x,y,z
-x,y,1/2-z
-x,-y,-z
x,-y,1/2+z
1/2+x,1/2+y,z
1/2-x,1/2+y,1/2-z
1/2-x,1/2-y,-z
1/2+x,1/2-y,1/2+z
loop_
_atom_site_type_symbol
_atom_site_label
_atom_site_fract_x
_atom_site_fract_y
_atom_site_fract_z
Si Si1 0.830595 0.887314 0.450310
Si Si2 0.611241 0.399360 0.607814
Si Si3 0.826756 0.288192 0.773728
O O1 0.797409 0.820888 0.317951
O O2 0.732534 0.849543 0.587474
O O3 0.001858 0.872090 0.486206
O O4 0.816272 0.998745 0.425814
O O5 0.500000 0.411281 0.750000
O O6 0.732526 0.323568 0.645577
O O7 0.000000 0.303602 0.750000
#
# Coordination Sequence:
#
# PCOD9268778 Si02
#       3
#     8   8   8
#     4   9  19  36  54  73 101 138 172 200 248 311
#     4   9  18  35  56  74 100 138 170 200 248 310
#     4  10  20  33  52  79 103 127 169 217 252 287
#
# _framework density 20.054995999999999
#
# number of rings (size 3 to 8) (size 9 to 14) (size 15 to 20)
#    0.000    2.667    0.000    1.000    0.000    2.667 
#    0.000    8.333    0.000    0.000    0.000    0.000 
#    0.000    0.000    0.000    0.000    0.000    0.000 
#
# Total GULP energy -66998.744404 kJ/mol
# GULP energy per Si atom -5583.228700 kJ/mol
# Density = 2.000935 g / cm^3
# Si number density = 20.054996 Si / 1000 Ang^3
#
#
#
# Elastic Constant Matrix: (Units=GPa)
#
#
# Indices 1 2 3 4 5 6 
#
# 1 67.9253 46.4096 14.5569 0.0000 -4.6762 0.0000
# 2 46.4096 104.2314 35.4326 0.0000 18.4800 0.0000
# 3 14.5569 35.4326 40.6431 0.0000 11.0742 0.0000
# 4 0.0000 0.0000 0.0000 26.7388 0.0000 2.9948
# 5 -4.6762 18.4800 11.0742 0.0000 33.8921 0.0000
# 6 0.0000 0.0000 0.0000 2.9948 0.0000 17.7162
#
#
#
# Elastic Compliance Matrix: (Units=1/GPa)
#
#
# Indices 1 2 3 4 5 6 
#
# 1 0.023924 -0.012226 -0.000687 0.000000 0.010192 0.000000
# 2 -0.012226 0.020368 -0.010859 0.000000 -0.009244 0.000000
# 3 -0.000687 -0.010859 0.035929 0.000000 -0.005913 0.000000
# 4 0.000000 0.000000 0.000000 0.038121 0.000000 -0.006444
# 5 0.010192 -0.009244 -0.005913 0.000000 0.037884 0.000000
# 6 0.000000 0.000000 0.000000 -0.006444 0.000000 0.057535
#
#
# Mechanical properties :
#
#
# Convention : Reuss Voigt Hill
#
# Bulk Modulus (GPa) = 30.60294 45.06645 37.83470
# Shear Modulus (GPa) = 18.36899 23.42946 20.89923
#
# Velocity S-wave (km/s) = 3.02972 3.42169 3.23165
# Velocity P-wave (km/s) = 5.24705 6.17502 5.72985
#
# Compressibility (1/GPa) = 0.03267659
#
# Stress axis : x y z
#
# Youngs Moduli (GPa) = 41.79887 49.09649 27.83271
#
# Poissons Ratio (x) = 0.60023 0.01913
# Poissons Ratio (y) = 0.51102 0.30224
# Poissons Ratio (z) = 0.02874 0.53315
#
# Static dielectric constant tensor:
#      x y z
#    x 1.680310 0.000000 0.001780 
#    y 0.000000 1.688120 0.000000 
#    z 0.001780 0.000000 1.761530 
# 
# From -- ./inp_files/20999.got.cif
#   From: 2010.05.17/outbox.cif.g08.bks.cpg/sg15_11_cif.got.tgz:20999.got - 2010.06.03 18:47:42.
