data_PCOD9268334
_publ_section_title
;
Structure prediction by ZEFSAII (Michael W. Deem and Ramdas Pophale) SiO2 
 PCOD9268334
Probable space group: C 2/C
;
_chemical_formula_sum "Si O2"
_cell_formula_units_Z 48
_cell_length_a 5.847053
_cell_length_b 32.037233
_cell_length_c 12.220463
_cell_angle_alpha 90.000000
_cell_angle_beta 68.788430
_cell_angle_gamma 90.000000
_cell_volume 2134.088550
_symmetry_space_group_name_H-M "C 2/C"
_symmetry_group_IT_number 15
_symmetry_cell_setting 'monoclinic'
loop_
_space_group_symop_operation_xyz
x,y,z
-x,y,1/2-z
-x,-y,-z
x,-y,1/2+z
1/2+x,1/2+y,z
1/2-x,1/2+y,1/2-z
1/2-x,1/2-y,-z
1/2+x,1/2-y,1/2+z
loop_
_atom_site_type_symbol
_atom_site_label
_atom_site_fract_x
_atom_site_fract_y
_atom_site_fract_z
Si Si1 0.484747 0.220846 0.438321
Si Si2 0.721880 0.796459 0.133410
Si Si3 0.767323 0.012555 0.906692
Si Si4 0.568505 0.909772 0.357668
Si Si5 0.679406 0.644408 0.498508
Si Si6 0.543313 0.433849 0.544421
O O1 0.250000 0.250000 0.500000
O O2 0.612835 0.210307 0.531399
O O3 0.669030 0.251806 0.344004
O O4 0.375161 0.177232 0.416512
O O5 0.500000 0.807917 0.250000
O O6 0.941042 0.829700 0.080697
O O7 0.713090 0.045878 0.820809
O O8 0.909326 0.040158 0.971810
O O9 0.500000 0.000000 0.000000
O O10 0.910033 0.968972 0.872317
O O11 0.500000 0.894712 0.250000
O O12 0.715108 0.878621 0.411350
O O13 0.311802 0.919144 0.461061
O O14 0.609672 0.608832 0.422450
#
# Coordination Sequence:
#
# PCOD9268334 Si02
#       6
#     8   8   8   8   8   8
#     4   9  20  36  53  79 116 143 197 234 285 359
#     4  10  21  37  56  79 118 154 187 237 298 356
#     4   8  16  31  47  68 107 139 185 220 267 338
#     4  10  20  31  48  80 120 146 179 228 291 344
#     4  10  20  32  50  78 115 147 191 241 288 346
#     4   9  17  30  49  72 107 140 189 225 274 330
#
# _framework density 22.492035999999999
#
# number of rings (size 3 to 8) (size 9 to 14) (size 15 to 20)
#    0.000    2.667    0.000    1.000    0.000    9.333 
#    0.000    0.000    0.000    0.000    0.000    0.000 
# 1190.000    0.000    0.000    0.000    0.000    0.000 
#
# Total GULP energy -133853.896207 kJ/mol
# GULP energy per Si atom -5577.245675 kJ/mol
# Density = 2.244084 g / cm^3
# Si number density = 22.492036 Si / 1000 Ang^3
#
#
#
# Elastic Constant Matrix: (Units=GPa)
#
#
# Indices 1 2 3 4 5 6 
#
# 1 140.3781 73.1346 25.9855 0.0000 -0.9368 0.0000
# 2 73.1346 208.0798 25.8227 0.0000 -2.5944 0.0000
# 3 25.9855 25.8227 40.4177 0.0000 -3.4220 0.0000
# 4 0.0000 0.0000 0.0000 -2.9443 0.0000 -12.1052
# 5 -0.9368 -2.5944 -3.4220 0.0000 15.6665 0.0000
# 6 0.0000 0.0000 0.0000 -12.1052 0.0000 72.2206
#
#
#
# Elastic Compliance Matrix: (Units=1/GPa)
#
#
# Indices 1 2 3 4 5 6 
#
# 1 0.009358 -0.002763 -0.004322 0.000000 -0.000842 0.000000
# 2 -0.002763 0.006036 -0.002047 0.000000 0.000387 0.000000
# 3 -0.004322 -0.002047 0.029320 0.000000 0.005807 0.000000
# 4 0.000000 0.000000 0.000000 -0.201076 0.000000 -0.033703
# 5 -0.000842 0.000387 0.005807 0.000000 0.065112 0.000000
# 6 0.000000 0.000000 0.000000 -0.033703 0.000000 0.008197
#
#
# Mechanical properties :
#
#
# Convention : Reuss Voigt Hill
#
# Bulk Modulus (GPa) = 37.80893 70.97348 54.39121
# Shear Modulus (GPa) = -89.33103 34.58409 -27.37347
#
# Velocity S-wave (km/s) = -6.30896 3.92550 -3.49238
# Velocity P-wave (km/s) = 6.01865 7.22284 2.82359
#
# Compressibility (1/GPa) = 0.02644877
#
# Stress axis : x y z
#
# Youngs Moduli (GPa) = 106.86509 165.67650 34.10640
#
# Poissons Ratio (x) = 0.45777 0.14742
# Poissons Ratio (y) = 0.29527 0.06982
# Poissons Ratio (z) = 0.46189 0.33915
#
# Static dielectric constant tensor:
#      x y z
#    x 1.845020 0.000000 -0.024280 
#    y 0.000000 1.941910 0.000000 
#    z -0.024280 0.000000 1.795430 
# 
# From -- ./inp_files/130317.got.cif
#   From: 2010.05.17/outbox.cif.g08.bks.cpg/sg15_66_cif.got.tgz:130317.got - 2010.06.03 18:47:42.
