data_PCOD9268564
_publ_section_title
;
Structure prediction by ZEFSAII (Michael W. Deem and Ramdas Pophale) SiO2 
 PCOD9268564
Probable space group: C 2/C
;
_chemical_formula_sum "Si O2"
_cell_formula_units_Z 56
_cell_length_a 10.109116
_cell_length_b 29.855105
_cell_length_c 10.355526
_cell_angle_alpha 90.000000
_cell_angle_beta 57.846299
_cell_angle_gamma 90.000000
_cell_volume 2646.026936
_symmetry_space_group_name_H-M "C 2/C"
_symmetry_group_IT_number 15
_symmetry_cell_setting 'monoclinic'
loop_
_space_group_symop_operation_xyz
x,y,z
-x,y,1/2-z
-x,-y,-z
x,-y,1/2+z
1/2+x,1/2+y,z
1/2-x,1/2+y,1/2-z
1/2-x,1/2-y,-z
1/2+x,1/2-y,1/2+z
loop_
_atom_site_type_symbol
_atom_site_label
_atom_site_fract_x
_atom_site_fract_y
_atom_site_fract_z
Si Si1 0.174591 0.172590 0.223600
Si Si2 0.684967 0.231734 0.669438
Si Si3 0.123486 0.954548 0.077639
Si Si4 0.674653 0.103946 0.180570
Si Si5 0.340339 0.544595 0.555147
Si Si6 0.895263 0.488865 0.675564
Si Si7 0.823283 0.361061 0.390017
O O1 0.204306 0.224446 0.247446
O O2 0.205890 0.140088 0.326586
O O3 0.000000 0.169385 0.250000
O O4 0.298601 0.157082 0.048902
O O5 0.500000 0.225288 0.750000
O O6 0.750000 0.250000 0.500000
O O7 0.744424 0.181098 0.659151
O O8 0.000000 0.942351 0.250000
O O9 0.020449 0.950825 0.999594
O O10 0.264014 0.920487 0.981476
O O11 0.172338 0.006877 0.049841
O O12 0.500000 0.122293 0.250000
O O13 0.657706 0.062626 0.290243
O O14 0.246833 0.522728 0.724534
O O15 0.268811 0.592651 0.567087
O O16 0.000000 0.494883 0.750000
O O17 0.000000 0.500000 0.500000
O O18 0.000000 0.369689 0.250000
#
# Coordination Sequence:
#
# PCOD9268564 Si02
#       7
#     8   8   8   8   8   8   8
#     4  10  20  36  61  86 119 153 195 250 302 369
#     4   8  16  32  52  83 117 144 176 242 308 353
#     4  10  23  40  55  77 115 158 203 252 299 357
#     4  10  23  39  56  85 119 163 203 248 308 363
#     4  10  22  34  55  81 110 153 201 250 292 358
#     4  10  23  37  55  83 124 162 200 250 306 359
#     4  10  20  32  55  90 116 146 196 244 304 358
#
# _framework density 21.163806000000001
#
# number of rings (size 3 to 8) (size 9 to 14) (size 15 to 20)
#    0.000    2.286    0.000    1.286   10.000    3.429 
#    0.000    0.000    0.000    0.857    0.000   36.000 
#    0.000    0.000    0.000    0.000    0.000    0.000 
#
# Total GULP energy -156147.133956 kJ/mol
# GULP energy per Si atom -5576.683356 kJ/mol
# Density = 2.111564 g / cm^3
# Si number density = 21.163806 Si / 1000 Ang^3
#
#
#
# Elastic Constant Matrix: (Units=GPa)
#
#
# Indices 1 2 3 4 5 6 
#
# 1 52.6372 26.3461 0.4745 0.0000 -13.3925 0.0000
# 2 26.3461 159.8916 9.8269 0.0000 3.1923 0.0000
# 3 0.4745 9.8269 108.5461 0.0000 -12.0458 0.0000
# 4 0.0000 0.0000 0.0000 24.5381 0.0000 -4.9243
# 5 -13.3925 3.1923 -12.0458 0.0000 25.9737 0.0000
# 6 0.0000 0.0000 0.0000 -4.9243 0.0000 13.1647
#
#
#
# Elastic Compliance Matrix: (Units=1/GPa)
#
#
# Indices 1 2 3 4 5 6 
#
# 1 0.024854 -0.004495 0.001878 0.000000 0.014239 0.000000
# 2 -0.004495 0.007132 -0.001034 0.000000 -0.003674 0.000000
# 3 0.001878 -0.001034 0.009931 0.000000 0.005701 0.000000
# 4 0.000000 0.000000 0.000000 0.044060 0.000000 0.016481
# 5 0.014239 -0.003674 0.005701 0.000000 0.048938 0.000000
# 6 0.000000 0.000000 0.000000 0.016481 0.000000 0.082125
#
#
# Mechanical properties :
#
#
# Convention : Reuss Voigt Hill
#
# Bulk Modulus (GPa) = 28.88875 43.81888 36.35382
# Shear Modulus (GPa) = 21.19735 31.69712 26.44723
#
# Velocity S-wave (km/s) = 3.16822 3.87422 3.53887
# Velocity P-wave (km/s) = 5.20223 6.38454 5.82346
#
# Compressibility (1/GPa) = 0.03461555
#
# Stress axis : x y z
#
# Youngs Moduli (GPa) = 40.23570 140.21769 100.69761
#
# Poissons Ratio (x) = 0.63027 -0.18915
# Poissons Ratio (y) = 0.18086 0.10409
# Poissons Ratio (z) = -0.07558 0.14494
#
# Static dielectric constant tensor:
#      x y z
#    x 1.839130 0.000000 0.021200 
#    y 0.000000 1.828050 0.000000 
#    z 0.021200 0.000000 1.785210 
# 
# From -- ./inp_files/91998.got.cif
#   From: 2010.05.17/outbox.cif.g08.bks.cpg/sg15_46_cif.got.tgz:91998.got - 2010.06.03 18:47:42.
