data_PCOD9268103
_publ_section_title
;
Structure prediction by ZEFSAII (Michael W. Deem and Ramdas Pophale) SiO2 
 PCOD9268103
Probable space group: C 2/C
;
_chemical_formula_sum "Si O2"
_cell_formula_units_Z 40
_cell_length_a 27.190250
_cell_length_b 8.654702
_cell_length_c 13.470588
_cell_angle_alpha 90.000000
_cell_angle_beta 28.726923
_cell_angle_gamma 90.000000
_cell_volume 1523.588963
_symmetry_space_group_name_H-M "C 2/C"
_symmetry_group_IT_number 15
_symmetry_cell_setting 'monoclinic'
loop_
_space_group_symop_operation_xyz
x,y,z
-x,y,1/2-z
-x,-y,-z
x,-y,1/2+z
1/2+x,1/2+y,z
1/2-x,1/2+y,1/2-z
1/2-x,1/2-y,-z
1/2+x,1/2-y,1/2+z
loop_
_atom_site_type_symbol
_atom_site_label
_atom_site_fract_x
_atom_site_fract_y
_atom_site_fract_z
Si Si1 0.708909 0.178771 0.444986
Si Si2 0.808222 0.032328 0.082339
Si Si3 0.858087 0.671445 0.227673
Si Si4 0.475077 0.972591 0.680648
Si Si5 0.401352 0.483041 0.606885
O O1 0.694475 0.354957 0.443099
O O2 0.610296 0.107791 0.670242
O O3 0.906192 0.063711 0.981056
O O4 0.725964 0.081742 0.312955
O O5 0.682026 0.635360 0.198542
O O6 0.760143 0.119080 0.072160
O O7 0.918712 0.666617 0.224492
O O8 0.861435 0.840856 0.175614
O O9 0.927113 0.541653 0.048856
O O10 0.500000 0.937058 0.750000
O O11 0.500000 0.500000 0.500000
#
# Coordination Sequence:
#
# PCOD9268103 Si02
#       5
#     8   8   8   8   8
#     4  10  22  39  67  89 134 164 215 265 319 381
#     4  10  19  42  64  94 126 176 209 266 318 390
#     4  11  24  41  70  92 131 169 216 266 329 379
#     4  11  22  40  67  99 121 169 223 264 319 390
#     4  10  21  39  64  93 131 170 209 271 320 375
#
# _framework density 26.253800999999999
#
# number of rings (size 3 to 8) (size 9 to 14) (size 15 to 20)
#    1.200    0.400    4.000    0.000    5.600    1.600 
#    0.000    0.000    0.000    0.000    0.000    0.000 
#    0.000    0.000    0.000    0.000    0.000    0.000 
#
# Total GULP energy -111597.011527 kJ/mol
# GULP energy per Si atom -5579.850576 kJ/mol
# Density = 2.619405 g / cm^3
# Si number density = 26.253801 Si / 1000 Ang^3
#
#
#
# Elastic Constant Matrix: (Units=GPa)
#
#
# Indices 1 2 3 4 5 6 
#
# 1 218.0518 1.1859 30.8995 0.0000 -37.5864 0.0000
# 2 1.1859 51.8839 8.2206 0.0000 -5.4458 0.0000
# 3 30.8995 8.2206 70.5666 0.0000 -5.1614 0.0000
# 4 0.0000 0.0000 0.0000 17.3335 0.0000 -6.6098
# 5 -37.5864 -5.4458 -5.1614 0.0000 39.8203 0.0000
# 6 0.0000 0.0000 0.0000 -6.6098 0.0000 43.8579
#
#
#
# Elastic Compliance Matrix: (Units=1/GPa)
#
#
# Indices 1 2 3 4 5 6 
#
# 1 0.005815 0.000780 -0.002249 0.000000 0.005304 0.000000
# 2 0.000780 0.019973 -0.002438 0.000000 0.003152 0.000000
# 3 -0.002249 -0.002438 0.015406 0.000000 -0.000459 0.000000
# 4 0.000000 0.000000 0.000000 0.061210 0.000000 0.009225
# 5 0.005304 0.003152 -0.000459 0.000000 0.030491 0.000000
# 6 0.000000 0.000000 0.000000 0.009225 0.000000 0.024191
#
#
# Mechanical properties :
#
#
# Convention : Reuss Voigt Hill
#
# Bulk Modulus (GPa) = 29.95761 46.79046 38.37403
# Shear Modulus (GPa) = 28.40492 40.21541 34.31017
#
# Velocity S-wave (km/s) = 3.29285 3.91806 3.61898
# Velocity P-wave (km/s) = 5.08848 6.19107 5.66666
#
# Compressibility (1/GPa) = 0.03338051
#
# Stress axis : x y z
#
# Youngs Moduli (GPa) = 171.97599 50.06742 64.90884
#
# Poissons Ratio (x) = -0.03906 0.14599
# Poissons Ratio (y) = -0.13416 0.15823
# Poissons Ratio (z) = 0.38679 0.12205
#
# Static dielectric constant tensor:
#      x y z
#    x 2.300000 0.000000 0.033930 
#    y 0.000000 1.942950 0.000000 
#    z 0.033930 0.000000 2.106800 
# 
# From -- ./inp_files/176050.got.cif
#   From: 2010.05.17/outbox.cif.g08.bks.cpg/sg15_89_cif.got.tgz:176050.got - 2010.06.03 18:47:42.
