data_PCOD9268386
_publ_section_title
;
Structure prediction by ZEFSAII (Michael W. Deem and Ramdas Pophale) SiO2 
 PCOD9268386
Probable space group: C 2/C
;
_chemical_formula_sum "Si O2"
_cell_formula_units_Z 52
_cell_length_a 5.397587
_cell_length_b 22.412768
_cell_length_c 20.766994
_cell_angle_alpha 90.000000
_cell_angle_beta 80.235824
_cell_angle_gamma 90.000000
_cell_volume 2475.891673
_symmetry_space_group_name_H-M "C 2/C"
_symmetry_group_IT_number 15
_symmetry_cell_setting 'monoclinic'
loop_
_space_group_symop_operation_xyz
x,y,z
-x,y,1/2-z
-x,-y,-z
x,-y,1/2+z
1/2+x,1/2+y,z
1/2-x,1/2+y,1/2-z
1/2-x,1/2-y,-z
1/2+x,1/2-y,1/2+z
loop_
_atom_site_type_symbol
_atom_site_label
_atom_site_fract_x
_atom_site_fract_y
_atom_site_fract_z
Si Si1 0.645322 0.953185 0.366900
Si Si2 0.268511 0.241517 0.922531
Si Si3 0.500000 0.517421 0.250000
Si Si4 0.029889 0.361447 0.938760
Si Si5 0.333820 0.462951 0.958612
Si Si6 0.259569 0.673314 0.923424
Si Si7 0.711846 0.949432 0.652777
O O1 0.706050 0.886271 0.384580
O O2 0.654592 0.989170 0.433626
O O3 0.391084 0.982170 0.349169
O O4 0.855780 0.976438 0.307889
O O5 0.554303 0.219415 0.902783
O O6 0.188419 0.307040 0.902961
O O7 0.046576 0.196687 0.909359
O O8 0.250000 0.250000 0.000000
O O9 0.711516 0.556948 0.276339
O O10 0.954782 0.403985 0.882155
O O11 0.192001 0.402460 0.981139
O O12 0.811550 0.337835 0.997096
O O13 0.525706 0.443061 0.895241
O O14 0.500000 0.500000 0.000000
#
# Coordination Sequence:
#
# PCOD9268386 Si02
#       7
#     8   8   4   8   8   8   8
#     4  10  22  37  58  89 116 156 198 261 305 373
#     4  10  23  37  58  91 130 171 201 236 295 371
#     4  10  22  40  62  86 114 150 214 262 324 362
#     4  10  21  35  57  89 132 158 198 248 301 381
#     4  10  20  31  56  88 125 151 188 240 311 371
#     4  11  23  37  62  93 129 168 202 244 307 378
#     4  10  21  36  58  88 115 158 198 254 319 357
#
# _framework density 21.002535999999999
#
# number of rings (size 3 to 8) (size 9 to 14) (size 15 to 20)
#    0.000    1.846    0.000    4.154   15.077    2.462 
#    0.000    0.000    0.000    0.000   16.000    0.000 
#    0.000    0.000    0.000    0.000    0.000    0.000 
#
# Total GULP energy -144791.050238 kJ/mol
# GULP energy per Si atom -5568.886548 kJ/mol
# Density = 2.095473 g / cm^3
# Si number density = 21.002536 Si / 1000 Ang^3
#
#
#
# Elastic Constant Matrix: (Units=GPa)
#
#
# Indices 1 2 3 4 5 6 
#
# 1 91.4783 23.3964 18.8200 0.0000 22.4644 0.0000
# 2 23.3964 101.2104 25.2444 0.0000 21.8326 0.0000
# 3 18.8200 25.2444 68.7521 0.0000 18.0159 0.0000
# 4 0.0000 0.0000 0.0000 21.3509 0.0000 -1.5639
# 5 22.4644 21.8326 18.0159 0.0000 42.9421 0.0000
# 6 0.0000 0.0000 0.0000 -1.5639 0.0000 26.0113
#
#
#
# Elastic Compliance Matrix: (Units=1/GPa)
#
#
# Indices 1 2 3 4 5 6 
#
# 1 0.012948 -0.001433 -0.001611 0.000000 -0.005369 0.000000
# 2 -0.001433 0.011802 -0.002882 0.000000 -0.004042 0.000000
# 3 -0.001611 -0.002882 0.017347 0.000000 -0.004969 0.000000
# 4 0.000000 0.000000 0.000000 0.047044 0.000000 0.002828
# 5 -0.005369 -0.004042 -0.004969 0.000000 0.030235 0.000000
# 6 0.000000 0.000000 0.000000 0.002828 0.000000 0.038615
#
#
# Mechanical properties :
#
#
# Convention : Reuss Voigt Hill
#
# Bulk Modulus (GPa) = 33.06465 44.04025 38.55245
# Shear Modulus (GPa) = 27.78926 30.99285 29.39106
#
# Velocity S-wave (km/s) = 3.64144 3.84561 3.74492
# Velocity P-wave (km/s) = 5.78425 6.38223 6.09058
#
# Compressibility (1/GPa) = 0.03024378
#
# Stress axis : x y z
#
# Youngs Moduli (GPa) = 77.23191 84.72820 57.64837
#
# Poissons Ratio (x) = 0.12142 0.09289
# Poissons Ratio (y) = 0.11068 0.16616
# Poissons Ratio (z) = 0.12444 0.24421
#
# Static dielectric constant tensor:
#      x y z
#    x 1.864440 0.000000 0.037950 
#    y 0.000000 1.678200 0.000000 
#    z 0.037950 0.000000 1.805060 
# 
# From -- ./inp_files/227525.got.cif
#   From: 2010.05.17/outbox.cif.g08.bks.cpg/sg15_114_cif.got.tgz:227525.got - 2010.06.03 18:47:42.
