data_PCOD9268858
_publ_section_title
;
Structure prediction by ZEFSAII (Michael W. Deem and Ramdas Pophale) SiO2 
 PCOD9268858
Probable space group: C 2/C
;
_chemical_formula_sum "Si O2"
_cell_formula_units_Z 52
_cell_length_a 7.816475
_cell_length_b 12.021890
_cell_length_c 24.502983
_cell_angle_alpha 90.000000
_cell_angle_beta 106.376083
_cell_angle_gamma 90.000000
_cell_volume 2209.106927
_symmetry_space_group_name_H-M "C 2/C"
_symmetry_group_IT_number 15
_symmetry_cell_setting 'monoclinic'
loop_
_space_group_symop_operation_xyz
x,y,z
-x,y,1/2-z
-x,-y,-z
x,-y,1/2+z
1/2+x,1/2+y,z
1/2-x,1/2+y,1/2-z
1/2-x,1/2-y,-z
1/2+x,1/2-y,1/2+z
loop_
_atom_site_type_symbol
_atom_site_label
_atom_site_fract_x
_atom_site_fract_y
_atom_site_fract_z
Si Si1 0.955452 0.110005 0.827443
Si Si2 0.807662 0.054176 0.921740
Si Si3 0.858247 0.154147 0.480192
Si Si4 0.000000 0.765805 0.750000
Si Si5 0.194506 0.581884 0.700921
Si Si6 0.653002 0.270952 0.933065
Si Si7 0.674350 0.144310 0.156238
O O1 0.880920 0.032827 0.868552
O O2 0.928476 0.240014 0.841713
O O3 0.829814 0.079156 0.765179
O O4 0.163874 0.098069 0.834851
O O5 0.662265 0.150349 0.906730
O O6 0.742071 0.950417 0.950711
O O7 0.984742 0.105577 0.967253
O O8 0.750000 0.250000 0.500000
O O9 0.958458 0.192821 0.434168
O O10 0.074521 0.684680 0.709387
O O11 0.148616 0.840478 0.791212
O O12 0.093102 0.468596 0.674240
O O13 0.761036 0.351004 0.901327
O O14 0.750000 0.250000 0.000000
#
# Coordination Sequence:
#
# PCOD9268858 Si02
#       7
#     8   8   8   4   8   8   8
#     4   9  19  36  55  76 104 142 176 209 268 323
#     4   9  19  37  53  73 110 139 171 224 262 311
#     4  10  20  33  54  81 104 138 182 219 265 315
#     4  10  22  34  52  84 106 132 178 216 262 316
#     4  10  20  35  54  76 104 135 172 215 260 315
#     4   9  19  37  56  76 107 143 176 215 267 317
#     4  10  20  37  57  77 107 141 174 221 266 309
#
# _framework density 23.538923
#
# number of rings (size 3 to 8) (size 9 to 14) (size 15 to 20)
#    0.000    2.462    0.000    1.846    0.000    4.308 
#    0.000   16.923    0.000    0.000    0.000    0.000 
#    0.000    0.000    0.000    0.000    0.000    0.000 
#
# Total GULP energy -145126.107735 kJ/mol
# GULP energy per Si atom -5581.773374 kJ/mol
# Density = 2.348535 g / cm^3
# Si number density = 23.538923 Si / 1000 Ang^3
#
#
#
# Elastic Constant Matrix: (Units=GPa)
#
#
# Indices 1 2 3 4 5 6 
#
# 1 23.0169 13.3287 11.9661 0.0000 -8.0600 0.0000
# 2 13.3287 57.4670 12.9587 0.0000 -11.5135 0.0000
# 3 11.9661 12.9587 85.9638 0.0000 -17.0079 0.0000
# 4 0.0000 0.0000 0.0000 29.3785 0.0000 -6.2806
# 5 -8.0600 -11.5135 -17.0079 0.0000 31.3756 0.0000
# 6 0.0000 0.0000 0.0000 -6.2806 0.0000 24.8435
#
#
#
# Elastic Compliance Matrix: (Units=1/GPa)
#
#
# Indices 1 2 3 4 5 6 
#
# 1 0.054332 -0.010015 -0.004502 0.000000 0.007842 0.000000
# 2 -0.010015 0.020838 -0.000833 0.000000 0.004623 0.000000
# 3 -0.004502 -0.000833 0.013549 0.000000 0.005883 0.000000
# 4 0.000000 0.000000 0.000000 0.035983 0.000000 0.009097
# 5 0.007842 0.004623 0.005883 0.000000 0.038771 0.000000
# 6 0.000000 0.000000 0.000000 0.009097 0.000000 0.042552
#
#
# Mechanical properties :
#
#
# Convention : Reuss Voigt Hill
#
# Bulk Modulus (GPa) = 17.23547 26.99497 22.11522
# Shear Modulus (GPa) = 19.52629 25.66579 22.59604
#
# Velocity S-wave (km/s) = 2.88328 3.30564 3.10166
# Velocity P-wave (km/s) = 4.29214 5.10517 4.71621
#
# Compressibility (1/GPa) = 0.05801988
#
# Stress axis : x y z
#
# Youngs Moduli (GPa) = 18.40523 47.98900 73.80722
#
# Poissons Ratio (x) = 0.48063 0.33226
# Poissons Ratio (y) = 0.18434 0.06145
# Poissons Ratio (z) = 0.08286 0.03995
#
# Static dielectric constant tensor:
#      x y z
#    x 1.907360 0.000000 0.021580 
#    y 0.000000 1.933540 0.000000 
#    z 0.021580 0.000000 1.965790 
# 
# From -- ./inp_files/287583.got.cif
#   From: 2010.05.17/outbox.cif.g08.bks.cpg/sg15_144_cif.got.tgz:287583.got - 2010.06.03 18:47:42.
