data_PCOD9268383
_publ_section_title
;
Structure prediction by ZEFSAII (Michael W. Deem and Ramdas Pophale) SiO2 
 PCOD9268383
Probable space group: C 2/C
;
_chemical_formula_sum "Si O2"
_cell_formula_units_Z 56
_cell_length_a 15.609540
_cell_length_b 29.453640
_cell_length_c 5.649573
_cell_angle_alpha 90.000000
_cell_angle_beta 107.333553
_cell_angle_gamma 90.000000
_cell_volume 2479.476449
_symmetry_space_group_name_H-M "C 2/C"
_symmetry_group_IT_number 15
_symmetry_cell_setting 'monoclinic'
loop_
_space_group_symop_operation_xyz
x,y,z
-x,y,1/2-z
-x,-y,-z
x,-y,1/2+z
1/2+x,1/2+y,z
1/2-x,1/2+y,1/2-z
1/2-x,1/2-y,-z
1/2+x,1/2-y,1/2+z
loop_
_atom_site_type_symbol
_atom_site_label
_atom_site_fract_x
_atom_site_fract_y
_atom_site_fract_z
Si Si1 0.697638 0.739323 0.207036
Si Si2 0.883669 0.515181 0.525866
Si Si3 0.535407 0.551987 0.531131
Si Si4 0.268055 0.554699 0.612821
Si Si5 0.135326 0.392386 0.336434
Si Si6 0.085936 0.320027 0.979597
Si Si7 0.244730 0.856694 0.689251
O O1 0.750000 0.750000 0.500000
O O2 0.677164 0.685550 0.161470
O O3 0.750000 0.750000 0.000000
O O4 0.614775 0.773862 0.131551
O O5 0.921653 0.494701 0.316571
O O6 0.782179 0.493072 0.484261
O O7 0.891698 0.569340 0.498456
O O8 0.500000 0.573029 0.750000
O O9 0.500000 0.500000 0.500000
O O10 0.642277 0.549946 0.658864
O O11 0.500000 0.571443 0.250000
O O12 0.189537 0.578580 0.692006
O O13 0.286718 0.593178 0.424327
O O14 0.209444 0.361376 0.519052
O O15 0.067488 0.360918 0.143856
O O16 0.172763 0.338389 0.905270
O O17 0.000000 0.312521 0.750000
#
# Coordination Sequence:
#
# PCOD9268383 Si02
#       7
#     8   8   8   8   8   8   8
#     4  10  20  39  65  92 126 158 206 252 307 382
#     4  10  20  31  56  82 117 155 211 253 295 350
#     4  10  24  35  53  80 118 160 211 260 314 360
#     4  10  22  36  58  86 122 165 214 260 306 371
#     4  10  20  34  60  89 120 161 213 258 302 372
#     4  10  22  40  63  96 128 163 203 265 328 379
#     4  10  20  38  65  92 121 162 212 259 307 378
#
# _framework density 22.585412999999999
#
# number of rings (size 3 to 8) (size 9 to 14) (size 15 to 20)
#    0.000    2.000    2.857    0.000   10.000    0.571 
#    0.000    0.714    0.000    7.714    0.000    0.000 
#    0.000    0.000    0.000    0.000    0.000    0.000 
#
# Total GULP energy -155887.388686 kJ/mol
# GULP energy per Si atom -5567.406739 kJ/mol
# Density = 2.253401 g / cm^3
# Si number density = 22.585413 Si / 1000 Ang^3
#
#
#
# Elastic Constant Matrix: (Units=GPa)
#
#
# Indices 1 2 3 4 5 6 
#
# 1 69.2552 23.7948 44.5675 0.0000 6.0679 0.0000
# 2 23.7948 131.4077 50.4660 0.0000 15.6555 0.0000
# 3 44.5675 50.4660 172.6774 0.0000 21.1447 0.0000
# 4 0.0000 0.0000 0.0000 42.5339 0.0000 4.0112
# 5 6.0679 15.6555 21.1447 0.0000 44.3461 0.0000
# 6 0.0000 0.0000 0.0000 4.0112 0.0000 0.4704
#
#
#
# Elastic Compliance Matrix: (Units=1/GPa)
#
#
# Indices 1 2 3 4 5 6 
#
# 1 0.017619 -0.001636 -0.004083 0.000000 0.000114 0.000000
# 2 -0.001636 0.008885 -0.001930 0.000000 -0.001992 0.000000
# 3 -0.004083 -0.001930 0.007707 0.000000 -0.002435 0.000000
# 4 0.000000 0.000000 0.000000 0.120052 0.000000 -1.023716
# 5 0.000114 -0.001992 -0.002435 0.000000 0.024399 0.000000
# 6 0.000000 0.000000 0.000000 -1.023716 0.000000 10.855377
#
#
# Mechanical properties :
#
#
# Convention : Reuss Voigt Hill
#
# Bulk Modulus (GPa) = 52.87589 67.88854 60.38222
# Shear Modulus (GPa) = 0.45226 34.43753 17.44489
#
# Velocity S-wave (km/s) = 0.44797 3.90906 2.78222
# Velocity P-wave (km/s) = 4.87134 7.10621 6.09213
#
# Compressibility (1/GPa) = 0.01891221
#
# Stress axis : x y z
#
# Youngs Moduli (GPa) = 56.75649 112.55111 129.74603
#
# Poissons Ratio (x) = 0.18411 0.52979
# Poissons Ratio (y) = 0.09284 0.25047
# Poissons Ratio (z) = 0.23175 0.21728
#
# Static dielectric constant tensor:
#      x y z
#    x 1.914750 0.000000 -0.061890 
#    y 0.000000 1.914050 0.000000 
#    z -0.061890 0.000000 1.908520 
# 
# From -- ./inp_files/12208.got.cif
#   From: 2010.05.17/outbox.cif.g08.bks.cpg/sg15_7_cif.got.tgz:12208.got - 2010.06.03 18:47:42.
