data_PCOD9268999
_publ_section_title
;
Structure prediction by ZEFSAII (Michael W. Deem and Ramdas Pophale) SiO2 
 PCOD9268999
Probable space group: C 2/C
;
_chemical_formula_sum "Si O2"
_cell_formula_units_Z 40
_cell_length_a 17.418353
_cell_length_b 10.564843
_cell_length_c 9.993931
_cell_angle_alpha 90.000000
_cell_angle_beta 113.025257
_cell_angle_gamma 90.000000
_cell_volume 1692.587976
_symmetry_space_group_name_H-M "C 2/C"
_symmetry_group_IT_number 15
_symmetry_cell_setting 'monoclinic'
loop_
_space_group_symop_operation_xyz
x,y,z
-x,y,1/2-z
-x,-y,-z
x,-y,1/2+z
1/2+x,1/2+y,z
1/2-x,1/2+y,1/2-z
1/2-x,1/2-y,-z
1/2+x,1/2-y,1/2+z
loop_
_atom_site_type_symbol
_atom_site_label
_atom_site_fract_x
_atom_site_fract_y
_atom_site_fract_z
Si Si1 0.205186 0.655362 0.822798
Si Si2 0.400792 0.354725 0.423720
Si Si3 0.217405 0.449990 0.039913
Si Si4 0.126774 0.210821 0.873790
Si Si5 0.926679 0.850946 0.872223
O O1 0.305208 0.679361 0.893588
O O2 0.189584 0.576211 0.946593
O O3 0.193977 0.569951 0.679395
O O4 0.144018 0.774849 0.758368
O O5 0.418260 0.280743 0.297588
O O6 0.473498 0.336628 0.583723
O O7 0.407470 0.501353 0.381304
O O8 0.180651 0.336712 0.925562
O O9 0.315221 0.415388 0.094917
O O10 0.082121 0.202061 0.983564
#
# Coordination Sequence:
#
# PCOD9268999 Si02
#       5
#     8   8   8   8   8
#     4  10  20  37  62  92 126 160 205 255 308 368
#     4  10  20  33  59  86 117 159 209 256 296 367
#     4   9  18  34  60  88 120 162 201 246 308 368
#     4   9  17  34  57  81 119 161 205 244 297 374
#     4  10  20  36  57  88 119 160 211 252 308 360
#
# _framework density 23.632449000000001
#
# number of rings (size 3 to 8) (size 9 to 14) (size 15 to 20)
#    0.000    2.400    2.000    1.800    0.000    0.000 
#    0.000    7.000    0.000    0.000    0.000    0.000 
#    0.000    0.000    0.000    0.000    0.000    0.000 
#
# Total GULP energy -111519.557777 kJ/mol
# GULP energy per Si atom -5575.977889 kJ/mol
# Density = 2.357866 g / cm^3
# Si number density = 23.632449 Si / 1000 Ang^3
#
#
#
# Elastic Constant Matrix: (Units=GPa)
#
#
# Indices 1 2 3 4 5 6 
#
# 1 75.8862 39.6512 50.6868 0.0000 27.4172 0.0000
# 2 39.6512 83.7540 70.1641 0.0000 14.2551 0.0000
# 3 50.6868 70.1641 166.5007 0.0000 36.1608 0.0000
# 4 0.0000 0.0000 0.0000 -8.8208 0.0000 -31.3419
# 5 27.4172 14.2551 36.1608 0.0000 43.8927 0.0000
# 6 0.0000 0.0000 0.0000 -31.3419 0.0000 2.5311
#
#
#
# Elastic Compliance Matrix: (Units=1/GPa)
#
#
# Indices 1 2 3 4 5 6 
#
# 1 0.021505 -0.007441 -0.001240 0.000000 -0.009994 0.000000
# 2 -0.007441 0.021038 -0.007461 0.000000 0.003962 0.000000
# 3 -0.001240 -0.007461 0.010758 0.000000 -0.005665 0.000000
# 4 0.000000 0.000000 0.000000 -0.002519 0.000000 -0.031197
# 5 -0.009994 0.003962 -0.005665 0.000000 0.032406 0.000000
# 6 0.000000 0.000000 0.000000 -0.031197 0.000000 0.008780
#
#
# Mechanical properties :
#
#
# Convention : Reuss Voigt Hill
#
# Bulk Modulus (GPa) = 47.58041 71.90502 59.74271
# Shear Modulus (GPa) = 38.09288 18.56320 28.32804
#
# Velocity S-wave (km/s) = 4.01919 2.80571 3.46597
# Velocity P-wave (km/s) = 6.45877 6.40222 6.43056
#
# Compressibility (1/GPa) = 0.02101705
#
# Stress axis : x y z
#
# Youngs Moduli (GPa) = 46.50097 47.53213 92.95381
#
# Poissons Ratio (x) = 0.35367 0.11531
# Poissons Ratio (y) = 0.34600 0.69353
# Poissons Ratio (z) = 0.05768 0.35464
#
# Static dielectric constant tensor:
#      x y z
#    x 2.003630 0.000000 0.032600 
#    y 0.000000 1.897110 0.000000 
#    z 0.032600 0.000000 1.938800 
# 
# From -- ./inp_files/103931.got.cif
#   From: 2010.05.17/outbox.cif.g08.bks.cpg/sg15_52_cif.got.tgz:103931.got - 2010.06.03 18:47:42.
