data_PCOD9268099
_publ_section_title
;
Structure prediction by ZEFSAII (Michael W. Deem and Ramdas Pophale) SiO2 
 PCOD9268099
Probable space group: C 2/C
;
_chemical_formula_sum "Si O2"
_cell_formula_units_Z 56
_cell_length_a 26.993897
_cell_length_b 8.076638
_cell_length_c 13.594619
_cell_angle_alpha 90.000000
_cell_angle_beta 59.105162
_cell_angle_gamma 90.000000
_cell_volume 2543.353927
_symmetry_space_group_name_H-M "C 2/C"
_symmetry_group_IT_number 15
_symmetry_cell_setting 'monoclinic'
loop_
_space_group_symop_operation_xyz
x,y,z
-x,y,1/2-z
-x,-y,-z
x,-y,1/2+z
1/2+x,1/2+y,z
1/2-x,1/2+y,1/2-z
1/2-x,1/2-y,-z
1/2+x,1/2-y,1/2+z
loop_
_atom_site_type_symbol
_atom_site_label
_atom_site_fract_x
_atom_site_fract_y
_atom_site_fract_z
Si Si1 0.356427 0.647457 0.490757
Si Si2 0.268979 0.933739 0.349158
Si Si3 0.442804 0.720313 0.080665
Si Si4 0.019416 0.998673 0.623777
Si Si5 0.268493 0.900043 0.048600
Si Si6 0.829203 0.103495 0.287792
Si Si7 0.858972 0.494543 0.602701
O O1 0.299653 0.554814 0.590744
O O2 0.414151 0.546586 0.444198
O O3 0.347420 0.648469 0.381425
O O4 0.366232 0.823550 0.535447
O O5 0.285709 0.748583 0.302244
O O6 0.314054 0.037518 0.238344
O O7 0.280248 0.960136 0.453911
O O8 0.483258 0.666749 0.131341
O O9 0.385688 0.611554 0.164292
O O10 0.414775 0.901362 0.085649
O O11 0.482221 0.648745 0.952463
O O12 0.000000 0.055418 0.750000
O O13 0.323494 0.888721 0.062216
O O14 0.211282 0.944766 0.167920
O O15 0.250000 0.750000 0.000000
#
# Coordination Sequence:
#
# PCOD9268099 Si02
#       7
#     8   8   8   8   8   8   8
#     4  11  21  39  66  88 123 175 209 260 321 374
#     4  10  22  38  60  93 132 167 200 250 331 400
#     4  10  25  43  66  96 122 167 225 266 318 385
#     4  11  24  44  69  90 124 172 223 266 320 380
#     4  11  23  33  57  97 130 162 204 254 317 384
#     4  10  19  42  63  88 129 168 202 254 326 399
#     4  11  24  39  63  96 132 161 211 266 318 387
#
# _framework density 22.018170999999999
#
# number of rings (size 3 to 8) (size 9 to 14) (size 15 to 20)
#    0.000    1.429    4.286    0.857    8.000    0.571 
#    0.000    2.143    0.000    0.000    0.000    0.000 
#    0.000    0.000    0.000    0.000    0.000    0.000 
#
# Total GULP energy -156097.316669 kJ/mol
# GULP energy per Si atom -5574.904167 kJ/mol
# Density = 2.196806 g / cm^3
# Si number density = 22.018171 Si / 1000 Ang^3
#
#
#
# Elastic Constant Matrix: (Units=GPa)
#
#
# Indices 1 2 3 4 5 6 
#
# 1 49.1371 -18.1933 9.9535 0.0000 -12.5767 0.0000
# 2 -18.1933 32.3574 9.7950 0.0000 0.8173 0.0000
# 3 9.9535 9.7950 128.9599 0.0000 6.2517 0.0000
# 4 0.0000 0.0000 0.0000 25.7043 0.0000 4.8428
# 5 -12.5767 0.8173 6.2517 0.0000 30.8467 0.0000
# 6 0.0000 0.0000 0.0000 4.8428 0.0000 27.9456
#
#
#
# Elastic Compliance Matrix: (Units=1/GPa)
#
#
# Indices 1 2 3 4 5 6 
#
# 1 0.031645 0.018824 -0.004518 0.000000 0.013319 0.000000
# 2 0.018824 0.042833 -0.005073 0.000000 0.007568 0.000000
# 3 -0.004518 -0.005073 0.008656 0.000000 -0.003462 0.000000
# 4 0.000000 0.000000 0.000000 0.040217 0.000000 -0.006969
# 5 0.013319 0.007568 -0.003462 0.000000 0.038350 0.000000
# 6 0.000000 0.000000 0.000000 -0.006969 0.000000 0.036992
#
#
# Mechanical properties :
#
#
# Convention : Reuss Voigt Hill
#
# Bulk Modulus (GPa) = 9.84244 23.72942 16.78593
# Shear Modulus (GPa) = 23.35418 30.82593 27.09005
#
# Velocity S-wave (km/s) = 3.26034 3.74575 3.51144
# Velocity P-wave (km/s) = 4.31890 5.43213 4.90719
#
# Compressibility (1/GPa) = 0.10160082
#
# Stress axis : x y z
#
# Youngs Moduli (GPa) = 31.60037 23.34626 115.52401
#
# Poissons Ratio (x) = -0.43947 0.52193
# Poissons Ratio (y) = -0.59485 0.58607
# Poissons Ratio (z) = 0.14277 0.11844
#
# Static dielectric constant tensor:
#      x y z
#    x 1.867410 0.000000 0.073960 
#    y 0.000000 1.926130 0.000000 
#    z 0.073960 0.000000 1.866560 
# 
# From -- ./inp_files/176663.got.cif
#   From: 2010.05.17/outbox.cif.g08.bks.cpg/sg15_89_cif.got.tgz:176663.got - 2010.06.03 18:47:42.
