data_PCOD9268653
_publ_section_title
;
Structure prediction by ZEFSAII (Michael W. Deem and Ramdas Pophale) SiO2 
 PCOD9268653
Probable space group: C 2/C
;
_chemical_formula_sum "Si O2"
_cell_formula_units_Z 52
_cell_length_a 23.295673
_cell_length_b 5.722284
_cell_length_c 13.947546
_cell_angle_alpha 90.000000
_cell_angle_beta 92.669241
_cell_angle_gamma 90.000000
_cell_volume 1857.252773
_symmetry_space_group_name_H-M "C 2/C"
_symmetry_group_IT_number 15
_symmetry_cell_setting 'monoclinic'
loop_
_space_group_symop_operation_xyz
x,y,z
-x,y,1/2-z
-x,-y,-z
x,-y,1/2+z
1/2+x,1/2+y,z
1/2-x,1/2+y,1/2-z
1/2-x,1/2-y,-z
1/2+x,1/2-y,1/2+z
loop_
_atom_site_type_symbol
_atom_site_label
_atom_site_fract_x
_atom_site_fract_y
_atom_site_fract_z
Si Si1 0.979603 0.752371 0.913964
Si Si2 0.888249 0.331557 0.112762
Si Si3 0.374099 0.087329 0.835636
Si Si4 0.240493 0.369974 0.643722
Si Si5 0.500000 0.394433 0.250000
Si Si6 0.726001 0.630783 0.128639
Si Si7 0.904977 0.178926 0.589096
O O1 0.937047 0.542561 0.880211
O O2 0.044806 0.674664 0.912765
O O3 0.972594 0.940878 0.829497
O O4 0.953324 0.837722 0.010784
O O5 0.878704 0.355107 0.224790
O O6 0.750773 0.382142 0.098144
O O7 0.870578 0.065611 0.088297
O O8 0.342020 0.309607 0.883848
O O9 0.328887 0.882016 0.848979
O O10 0.264498 0.373083 0.754187
O O11 0.253983 0.622689 0.599285
O O12 0.555558 0.289630 0.310624
O O13 0.869016 0.583547 0.072268
#
# Coordination Sequence:
#
# PCOD9268653 Si02
#       7
#     8   8   8   8   4   8   8
#     4  11  21  42  56  91 120 158 197 242 289 345
#     4  11  23  41  54  85 119 155 199 232 290 344
#     4  10  20  32  62  84 115 152 192 247 286 343
#     4   8  16  30  51  78 117 135 191 235 291 336
#     4  10  20  38  64  78 122 156 206 228 290 336
#     4   8  16  31  48  83 111 141 183 246 279 348
#     4  11  25  40  59  80 121 165 195 243 285 341
#
# _framework density 27.998345
#
# number of rings (size 3 to 8) (size 9 to 14) (size 15 to 20)
#    0.923    1.231    3.077    2.308    4.308    0.000 
#    5.538    0.000    0.000    0.000    0.000    6.462 
#    0.000    0.000    0.000    0.000    0.000    0.308 
#
# Total GULP energy -145271.851523 kJ/mol
# GULP energy per Si atom -5587.378905 kJ/mol
# Density = 2.793462 g / cm^3
# Si number density = 27.998345 Si / 1000 Ang^3
#
#
#
# Elastic Constant Matrix: (Units=GPa)
#
#
# Indices 1 2 3 4 5 6 
#
# 1 105.5878 38.7704 1.6146 0.0000 -7.7956 0.0000
# 2 38.7704 264.9734 58.6956 0.0000 -20.3282 0.0000
# 3 1.6146 58.6956 125.4626 0.0000 -0.6189 0.0000
# 4 0.0000 0.0000 0.0000 45.6552 0.0000 -3.0807
# 5 -7.7956 -20.3282 -0.6189 0.0000 20.1169 0.0000
# 6 0.0000 0.0000 0.0000 -3.0807 0.0000 44.3640
#
#
#
# Elastic Compliance Matrix: (Units=1/GPa)
#
#
# Indices 1 2 3 4 5 6 
#
# 1 0.010168 -0.001414 0.000543 0.000000 0.002528 0.000000
# 2 -0.001414 0.004793 -0.002203 0.000000 0.004228 0.000000
# 3 0.000543 -0.002203 0.008986 0.000000 -0.001740 0.000000
# 4 0.000000 0.000000 0.000000 0.022006 0.000000 0.001528
# 5 0.002528 0.004228 -0.001740 0.000000 0.054908 0.000000
# 6 0.000000 0.000000 0.000000 0.001528 0.000000 0.022647
#
#
# Mechanical properties :
#
#
# Convention : Reuss Voigt Hill
#
# Bulk Modulus (GPa) = 56.18392 77.13168 66.65780
# Shear Modulus (GPa) = 36.87573 48.49009 42.68291
#
# Velocity S-wave (km/s) = 3.63308 4.16611 3.90869
# Velocity P-wave (km/s) = 6.14080 7.12394 6.65056
#
# Compressibility (1/GPa) = 0.01779869
#
# Stress axis : x y z
#
# Youngs Moduli (GPa) = 98.34381 208.62307 111.28709
#
# Poissons Ratio (x) = 0.29504 -0.06045
# Poissons Ratio (y) = 0.13908 0.24521
# Poissons Ratio (z) = -0.05342 0.45969
#
# Static dielectric constant tensor:
#      x y z
#    x 2.179310 0.000000 0.071200 
#    y 0.000000 2.251720 0.000000 
#    z 0.071200 0.000000 2.124350 
# 
# From -- ./inp_files/166927.got.cif
#   From: 2010.05.17/outbox.cif.g08.bks.cpg/sg15_84_cif.got.tgz:166927.got - 2010.06.03 18:47:42.
