data_PCOD9268801
_publ_section_title
;
Structure prediction by ZEFSAII (Michael W. Deem and Ramdas Pophale) SiO2 
 PCOD9268801
Probable space group: C 2/C
;
_chemical_formula_sum "Si O2"
_cell_formula_units_Z 64
_cell_length_a 27.060159
_cell_length_b 13.274621
_cell_length_c 9.396199
_cell_angle_alpha 90.000000
_cell_angle_beta 120.661977
_cell_angle_gamma 90.000000
_cell_volume 2903.350850
_symmetry_space_group_name_H-M "C 2/C"
_symmetry_group_IT_number 15
_symmetry_cell_setting 'monoclinic'
loop_
_space_group_symop_operation_xyz
x,y,z
-x,y,1/2-z
-x,-y,-z
x,-y,1/2+z
1/2+x,1/2+y,z
1/2-x,1/2+y,1/2-z
1/2-x,1/2-y,-z
1/2+x,1/2-y,1/2+z
loop_
_atom_site_type_symbol
_atom_site_label
_atom_site_fract_x
_atom_site_fract_y
_atom_site_fract_z
Si Si1 0.652117 0.865473 0.800284
Si Si2 0.616393 0.696336 0.573417
Si Si3 0.322048 0.315895 0.979787
Si Si4 0.947386 0.119353 0.591782
Si Si5 0.744337 0.284734 0.148638
Si Si6 0.572382 0.589144 0.259197
Si Si7 0.800047 0.480153 0.360956
Si Si8 0.678380 0.511421 0.822775
O O1 0.602660 0.791772 0.655780
O O2 0.672612 0.935978 0.701081
O O3 0.687490 0.769463 0.914471
O O4 0.656841 0.936536 0.950703
O O5 0.678326 0.718841 0.596333
O O6 0.571359 0.672612 0.381802
O O7 0.633865 0.589535 0.676865
O O8 0.279694 0.290984 0.795368
O O9 0.388199 0.320095 0.027020
O O10 0.308293 0.425376 0.017474
O O11 0.958848 0.102639 0.439310
O O12 0.000000 0.171361 0.750000
O O13 0.940010 0.014818 0.672480
O O14 0.777012 0.389039 0.228353
O O15 0.750000 0.250000 0.000000
O O16 0.638749 0.580996 0.305351
O O17 0.739869 0.509066 0.347589
#
# Coordination Sequence:
#
# PCOD9268801 Si02
#       8
#     8   8   8   8   8   8   8   8
#     4  10  22  38  55  80 119 160 207 256 303 361
#     4  10  20  34  54  80 122 161 200 244 292 370
#     4   9  20  40  57  78 124 161 209 255 308 360
#     4  11  23  40  64  91 123 164 212 263 312 369
#     4  10  20  33  52  83 116 158 203 248 295 367
#     4  11  21  37  59  90 124 163 204 248 306 371
#     4  10  22  34  55  83 115 166 212 245 297 362
#     4   9  19  34  53  77 113 165 203 241 292 355
#
# _framework density 22.043495
#
# number of rings (size 3 to 8) (size 9 to 14) (size 15 to 20)
#    0.000    2.000    1.250    1.875    5.250    4.000 
#    0.000    0.000    0.000    0.000    0.000    3.500 
#    0.000    0.125    0.000    0.000    0.000    0.000 
#
# Total GULP energy -178410.705561 kJ/mol
# GULP energy per Si atom -5575.334549 kJ/mol
# Density = 2.199332 g / cm^3
# Si number density = 22.043495 Si / 1000 Ang^3
#
#
#
# Elastic Constant Matrix: (Units=GPa)
#
#
# Indices 1 2 3 4 5 6 
#
# 1 49.0823 11.6105 31.5331 0.0000 -6.8079 0.0000
# 2 11.6105 69.1261 34.6226 0.0000 -3.9496 0.0000
# 3 31.5331 34.6226 166.6743 0.0000 -17.7182 0.0000
# 4 0.0000 0.0000 0.0000 50.9196 0.0000 -15.6106
# 5 -6.8079 -3.9496 -17.7182 0.0000 25.7612 0.0000
# 6 0.0000 0.0000 0.0000 -15.6106 0.0000 21.0261
#
#
#
# Elastic Compliance Matrix: (Units=1/GPa)
#
#
# Indices 1 2 3 4 5 6 
#
# 1 0.023691 -0.001921 -0.003721 0.000000 0.003407 0.000000
# 2 -0.001921 0.016303 -0.003033 0.000000 -0.000094 0.000000
# 3 -0.003721 -0.003033 0.007746 0.000000 0.003879 0.000000
# 4 0.000000 0.000000 0.000000 0.025426 0.000000 0.018877
# 5 0.003407 -0.000094 0.003879 0.000000 0.042372 0.000000
# 6 0.000000 0.000000 0.000000 0.018877 0.000000 0.061575
#
#
# Mechanical properties :
#
#
# Convention : Reuss Voigt Hill
#
# Bulk Modulus (GPa) = 32.90510 48.93500 40.92005
# Shear Modulus (GPa) = 24.43864 33.34913 28.89388
#
# Velocity S-wave (km/s) = 3.33326 3.89379 3.62438
# Velocity P-wave (km/s) = 5.45655 6.51636 6.00986
#
# Compressibility (1/GPa) = 0.03039042
#
# Stress axis : x y z
#
# Youngs Moduli (GPa) = 42.20925 61.33940 129.09660
#
# Poissons Ratio (x) = 0.11783 0.48036
# Poissons Ratio (y) = 0.08108 0.39156
# Poissons Ratio (z) = 0.15706 0.18605
#
# Static dielectric constant tensor:
#      x y z
#    x 1.889670 0.000000 -0.046700 
#    y 0.000000 1.884890 0.000000 
#    z -0.046700 0.000000 1.961640 
# 
# From -- ./inp_files/69965.got.cif
#   From: 2010.05.17/outbox.cif.g08.bks.cpg/sg15_35_cif.got.tgz:69965.got - 2010.06.03 18:47:42.
