data_PCOD9268836
_publ_section_title
;
Structure prediction by ZEFSAII (Michael W. Deem and Ramdas Pophale) SiO2 
 PCOD9268836
Probable space group: C 2/C
;
_chemical_formula_sum "Si O2"
_cell_formula_units_Z 52
_cell_length_a 20.827413
_cell_length_b 5.747503
_cell_length_c 18.522277
_cell_angle_alpha 90.000000
_cell_angle_beta 112.887254
_cell_angle_gamma 90.000000
_cell_volume 2042.663165
_symmetry_space_group_name_H-M "C 2/C"
_symmetry_group_IT_number 15
_symmetry_cell_setting 'monoclinic'
loop_
_space_group_symop_operation_xyz
x,y,z
-x,y,1/2-z
-x,-y,-z
x,-y,1/2+z
1/2+x,1/2+y,z
1/2-x,1/2+y,1/2-z
1/2-x,1/2-y,-z
1/2+x,1/2-y,1/2+z
loop_
_atom_site_type_symbol
_atom_site_label
_atom_site_fract_x
_atom_site_fract_y
_atom_site_fract_z
Si Si1 0.912319 0.606229 0.980814
Si Si2 0.292827 0.482393 0.957289
Si Si3 0.961764 0.825817 0.872218
Si Si4 0.655518 0.285047 0.149628
Si Si5 0.000000 0.916222 0.250000
Si Si6 0.887571 0.454997 0.743889
Si Si7 0.353838 0.887941 0.081810
O O1 0.972081 0.740084 0.960884
O O2 0.883535 0.398590 0.919146
O O3 0.848484 0.786217 0.962807
O O4 0.917020 0.498327 0.063090
O O5 0.285751 0.619646 0.877617
O O6 0.213852 0.439978 0.947366
O O7 0.327754 0.655554 0.031097
O O8 0.934550 0.599806 0.819163
O O9 0.898666 0.010970 0.854282
O O10 0.008992 0.946833 0.830844
O O11 0.672471 0.157171 0.232166
O O12 0.932702 0.752983 0.230033
O O13 0.871241 0.630018 0.672612
#
# Coordination Sequence:
#
# PCOD9268836 Si02
#       7
#     8   8   8   8   4   8   8
#     4   9  17  34  57  76 111 152 180 224 275 331
#     4   9  18  34  53  78 115 155 182 220 278 331
#     4   9  18  35  58  77 105 148 178 232 289 333
#     4   8  17  34  51  77 108 146 185 223 275 335
#     4  10  20  36  58  78 106 140 194 238 292 334
#     4  10  20  35  54  82 109 143 188 241 282 329
#     4  10  20  33  53  84 112 148 191 225 273 341
#
# _framework density 25.456962999999998
#
# number of rings (size 3 to 8) (size 9 to 14) (size 15 to 20)
#    0.000    2.769    0.000    0.923    0.000    2.462 
#    8.308    0.769    0.000   37.846    0.000    0.000 
#    0.000    0.000    0.000    0.000    0.000    0.000 
#
# Total GULP energy -145042.316161 kJ/mol
# GULP energy per Si atom -5578.550622 kJ/mol
# Density = 2.539902 g / cm^3
# Si number density = 25.456963 Si / 1000 Ang^3
#
#
#
# Elastic Constant Matrix: (Units=GPa)
#
#
# Indices 1 2 3 4 5 6 
#
# 1 107.3854 24.9939 52.2653 0.0000 -36.7665 0.0000
# 2 24.9939 39.9035 18.7215 0.0000 -21.2866 0.0000
# 3 52.2653 18.7215 145.9311 0.0000 -43.4012 0.0000
# 4 0.0000 0.0000 0.0000 29.9467 0.0000 -23.1975
# 5 -36.7665 -21.2866 -43.4012 0.0000 44.6437 0.0000
# 6 0.0000 0.0000 0.0000 -23.1975 0.0000 32.8861
#
#
#
# Elastic Compliance Matrix: (Units=1/GPa)
#
#
# Indices 1 2 3 4 5 6 
#
# 1 0.013805 -0.003613 -0.002267 0.000000 0.007442 0.000000
# 2 -0.003613 0.034597 0.001233 0.000000 0.014720 0.000000
# 3 -0.002267 0.001233 0.010024 0.000000 0.008466 0.000000
# 4 0.000000 0.000000 0.000000 0.073619 0.000000 0.051930
# 5 0.007442 0.014720 0.008466 0.000000 0.043778 0.000000
# 6 0.000000 0.000000 0.000000 0.051930 0.000000 0.067039
#
#
# Mechanical properties :
#
#
# Convention : Reuss Voigt Hill
#
# Bulk Modulus (GPa) = 20.35324 53.90904 37.13114
# Shear Modulus (GPa) = 18.61968 34.64458 26.63213
#
# Velocity S-wave (km/s) = 2.70741 3.69305 3.23795
# Velocity P-wave (km/s) = 4.21734 6.27753 5.34758
#
# Compressibility (1/GPa) = 0.04913224
#
# Stress axis : x y z
#
# Youngs Moduli (GPa) = 72.43925 28.90403 99.75803
#
# Poissons Ratio (x) = 0.10443 0.22619
# Poissons Ratio (y) = 0.26172 -0.12303
# Poissons Ratio (z) = 0.16424 -0.03565
#
# Static dielectric constant tensor:
#      x y z
#    x 2.032340 0.000000 -0.040620 
#    y 0.000000 2.034750 0.000000 
#    z -0.040620 0.000000 2.030810 
# 
# From -- ./inp_files/220910.got.cif
#   From: 2010.05.17/outbox.cif.g08.bks.cpg/sg15_111_cif.got.tgz:220910.got - 2010.06.03 18:47:42.
