data_PCOD9268376
_publ_section_title
;
Structure prediction by ZEFSAII (Michael W. Deem and Ramdas Pophale) SiO2 
 PCOD9268376
Probable space group: C 2/C
;
_chemical_formula_sum "Si O2"
_cell_formula_units_Z 48
_cell_length_a 9.887331
_cell_length_b 26.841451
_cell_length_c 15.879823
_cell_angle_alpha 90.000000
_cell_angle_beta 143.993953
_cell_angle_gamma 90.000000
_cell_volume 2477.493282
_symmetry_space_group_name_H-M "C 2/C"
_symmetry_group_IT_number 15
_symmetry_cell_setting 'monoclinic'
loop_
_space_group_symop_operation_xyz
x,y,z
-x,y,1/2-z
-x,-y,-z
x,-y,1/2+z
1/2+x,1/2+y,z
1/2-x,1/2+y,1/2-z
1/2-x,1/2-y,-z
1/2+x,1/2-y,1/2+z
loop_
_atom_site_type_symbol
_atom_site_label
_atom_site_fract_x
_atom_site_fract_y
_atom_site_fract_z
Si Si1 0.628543 0.948914 0.084843
Si Si2 0.261704 0.121674 0.343905
Si Si3 0.725734 0.223235 0.099144
Si Si4 0.769269 0.326479 0.081542
Si Si5 0.033244 0.925700 0.583929
Si Si6 0.947461 0.964973 0.090710
O O1 0.791526 0.942313 0.085441
O O2 0.790402 0.954633 0.247549
O O3 0.442175 0.905449 0.994906
O O4 0.500000 0.000000 0.000000
O O5 0.334676 0.178907 0.367601
O O6 0.243111 0.090442 0.249215
O O7 0.000000 0.120801 0.250000
O O8 0.634497 0.279471 0.056847
O O9 0.000000 0.230114 0.250000
O O10 0.681443 0.197438 0.985953
O O11 0.000000 0.336785 0.250000
O O12 0.625982 0.376851 0.001536
O O13 0.099728 0.942143 0.523880
O O14 0.921151 0.975019 0.569841
#
# Coordination Sequence:
#
# PCOD9268376 Si02
#       6
#     8   8   8   8   8   8
#     4  11  22  39  60  78 114 156 197 234 284 349
#     4  11  20  36  60  84 115 156 190 232 292 344
#     4   9  18  34  53  85 115 145 196 237 291 347
#     4  10  20  31  55  85 117 149 186 247 295 333
#     4  11  21  38  54  81 120 149 190 240 286 340
#     4  10  25  39  53  87 115 154 199 235 281 341
#
# _framework density 19.374421999999999
#
# number of rings (size 3 to 8) (size 9 to 14) (size 15 to 20)
#    0.000    1.667    5.000    1.000    2.333    0.667 
#    0.000    0.000    0.000    1.000    0.000    0.000 
#    0.000    0.000    0.000    0.000    0.000    0.000 
#
# Total GULP energy -133788.901908 kJ/mol
# GULP energy per Si atom -5574.537579 kJ/mol
# Density = 1.933033 g / cm^3
# Si number density = 19.374422 Si / 1000 Ang^3
#
#
#
# Elastic Constant Matrix: (Units=GPa)
#
#
# Indices 1 2 3 4 5 6 
#
# 1 31.5855 11.8722 11.2041 0.0000 -11.7600 0.0000
# 2 11.8722 151.2742 27.7027 0.0000 5.1815 0.0000
# 3 11.2041 27.7027 93.0642 0.0000 -9.7806 0.0000
# 4 0.0000 0.0000 0.0000 36.1201 0.0000 -7.2185
# 5 -11.7600 5.1815 -9.7806 0.0000 28.2868 0.0000
# 6 0.0000 0.0000 0.0000 -7.2185 0.0000 17.8164
#
#
#
# Elastic Compliance Matrix: (Units=1/GPa)
#
#
# Indices 1 2 3 4 5 6 
#
# 1 0.039748 -0.003301 -0.002078 0.000000 0.016411 0.000000
# 2 -0.003301 0.007385 -0.002166 0.000000 -0.003474 0.000000
# 3 -0.002078 -0.002166 0.012028 0.000000 0.003692 0.000000
# 4 0.000000 0.000000 0.000000 0.030125 0.000000 0.012205
# 5 0.016411 -0.003474 0.003692 0.000000 0.044088 0.000000
# 6 0.000000 0.000000 0.000000 0.012205 0.000000 0.061073
#
#
# Mechanical properties :
#
#
# Convention : Reuss Voigt Hill
#
# Bulk Modulus (GPa) = 22.69042 41.94244 32.31643
# Shear Modulus (GPa) = 22.29871 31.45431 26.87651
#
# Velocity S-wave (km/s) = 3.39622 4.03363 3.72858
# Velocity P-wave (km/s) = 5.20731 6.58703 5.93738
#
# Compressibility (1/GPa) = 0.04407147
#
# Stress axis : x y z
#
# Youngs Moduli (GPa) = 25.15836 135.40480 83.13780
#
# Poissons Ratio (x) = 0.44698 0.17275
# Poissons Ratio (y) = 0.08305 0.18008
# Poissons Ratio (z) = 0.05228 0.29330
#
# Static dielectric constant tensor:
#      x y z
#    x 1.713770 0.000000 -0.026280 
#    y 0.000000 1.730090 0.000000 
#    z -0.026280 0.000000 1.721310 
# 
# From -- ./inp_files/201141.got.cif
#   From: 2010.05.17/outbox.cif.g08.bks.cpg/sg15_101_cif.got.tgz:201141.got - 2010.06.03 18:47:42.
