data_PCOD9268464
_publ_section_title
;
Structure prediction by ZEFSAII (Michael W. Deem and Ramdas Pophale) SiO2 
 PCOD9268464
Probable space group: C 2/C
;
_chemical_formula_sum "Si O2"
_cell_formula_units_Z 36
_cell_length_a 31.975254
_cell_length_b 8.801764
_cell_length_c 5.284974
_cell_angle_alpha 90.000000
_cell_angle_beta 79.756992
_cell_angle_gamma 90.000000
_cell_volume 1463.690380
_symmetry_space_group_name_H-M "C 2/C"
_symmetry_group_IT_number 15
_symmetry_cell_setting 'monoclinic'
loop_
_space_group_symop_operation_xyz
x,y,z
-x,y,1/2-z
-x,-y,-z
x,-y,1/2+z
1/2+x,1/2+y,z
1/2-x,1/2+y,1/2-z
1/2-x,1/2-y,-z
1/2+x,1/2-y,1/2+z
loop_
_atom_site_type_symbol
_atom_site_label
_atom_site_fract_x
_atom_site_fract_y
_atom_site_fract_z
Si Si1 0.219128 0.340262 0.839214
Si Si2 0.801473 0.072967 0.019703
Si Si3 0.870857 0.657455 0.828625
Si Si4 0.500000 0.894954 0.750000
Si Si5 0.593209 0.816051 0.712374
O O1 0.201142 0.229281 0.634971
O O2 0.251010 0.448506 0.649460
O O3 0.176927 0.385266 0.038674
O O4 0.250000 0.250000 0.000000
O O5 0.818848 0.958026 0.785319
O O6 0.892390 0.747798 0.034717
O O7 0.895919 0.496844 0.772381
O O8 0.878631 0.736610 0.552852
O O9 0.543604 0.801335 0.710833
O O10 0.500000 0.000000 0.500000
#
# Coordination Sequence:
#
# PCOD9268464 Si02
#       5
#     8   8   8   4   8
#     4  11  25  38  56  81 103 145 194 244 277 334
#     4  11  24  39  55  74 100 142 181 237 291 321
#     4  10  21  31  47  73 103 132 189 211 263 303
#     4  12  16  32  48  74 110 142 190 192 276 334
#     4  10  20  32  50  78 104 153 166 227 259 329
#
# _framework density 24.595364
#
# number of rings (size 3 to 8) (size 9 to 14) (size 15 to 20)
#    0.000    1.333    6.667    0.000   12.444    0.000 
#    0.000    0.000    0.000    0.000    0.000    0.000 
#    0.000    0.000    0.000   34.000    0.000    0.000 
#
# Total GULP energy -100492.872169 kJ/mol
# GULP energy per Si atom -5582.937343 kJ/mol
# Density = 2.453938 g / cm^3
# Si number density = 24.595364 Si / 1000 Ang^3
#
#
#
# Elastic Constant Matrix: (Units=GPa)
#
#
# Indices 1 2 3 4 5 6 
#
# 1 154.8301 -4.5891 34.9982 0.0000 -0.2716 0.0000
# 2 -4.5891 37.2364 7.4731 0.0000 -8.3647 0.0000
# 3 34.9982 7.4731 236.6680 0.0000 26.8773 0.0000
# 4 0.0000 0.0000 0.0000 27.1207 0.0000 -9.8343
# 5 -0.2716 -8.3647 26.8773 0.0000 48.3268 0.0000
# 6 0.0000 0.0000 0.0000 -9.8343 0.0000 15.7409
#
#
#
# Elastic Compliance Matrix: (Units=1/GPa)
#
#
# Indices 1 2 3 4 5 6 
#
# 1 0.006755 0.001261 -0.001140 0.000000 0.000890 0.000000
# 2 0.001261 0.028705 -0.001770 0.000000 0.005960 0.000000
# 3 -0.001140 -0.001770 0.004788 0.000000 -0.002975 0.000000
# 4 0.000000 0.000000 0.000000 0.047672 0.000000 0.029783
# 5 0.000890 0.005960 -0.002975 0.000000 0.023384 0.000000
# 6 0.000000 0.000000 0.000000 0.029783 0.000000 0.082136
#
#
# Mechanical properties :
#
#
# Convention : Reuss Voigt Hill
#
# Bulk Modulus (GPa) = 27.06274 56.05542 41.55908
# Shear Modulus (GPa) = 23.91732 44.29451 34.10591
#
# Velocity S-wave (km/s) = 3.12177 4.24834 3.72786
# Velocity P-wave (km/s) = 4.90112 6.84873 5.95508
#
# Compressibility (1/GPa) = 0.03695117
#
# Stress axis : x y z
#
# Youngs Moduli (GPa) = 148.03185 34.83732 208.86930
#
# Poissons Ratio (x) = -0.04394 0.23809
# Poissons Ratio (y) = -0.18671 0.36964
# Poissons Ratio (z) = 0.16874 0.06165
#
# Static dielectric constant tensor:
#      x y z
#    x 2.000550 0.000000 0.085290 
#    y 0.000000 2.208470 0.000000 
#    z 0.085290 0.000000 2.095900 
# 
# From -- ./inp_files/17954.got.cif
#   From: 2010.05.17/outbox.cif.g08.bks.cpg/sg15_9_cif.got.tgz:17954.got - 2010.06.03 18:47:42.
