data_PCOD9268619
_publ_section_title
;
Structure prediction by ZEFSAII (Michael W. Deem and Ramdas Pophale) SiO2 
 PCOD9268619
Probable space group: C 2/C
;
_chemical_formula_sum "Si O2"
_cell_formula_units_Z 52
_cell_length_a 10.378550
_cell_length_b 28.649328
_cell_length_c 15.837676
_cell_angle_alpha 90.000000
_cell_angle_beta 31.509285
_cell_angle_gamma 90.000000
_cell_volume 2461.175055
_symmetry_space_group_name_H-M "C 2/C"
_symmetry_group_IT_number 15
_symmetry_cell_setting 'monoclinic'
loop_
_space_group_symop_operation_xyz
x,y,z
-x,y,1/2-z
-x,-y,-z
x,-y,1/2+z
1/2+x,1/2+y,z
1/2-x,1/2+y,1/2-z
1/2-x,1/2-y,-z
1/2+x,1/2-y,1/2+z
loop_
_atom_site_type_symbol
_atom_site_label
_atom_site_fract_x
_atom_site_fract_y
_atom_site_fract_z
Si Si1 0.595866 0.075304 0.814572
Si Si2 0.663355 0.414553 0.956722
Si Si3 0.500000 0.004410 0.250000
Si Si4 0.000000 0.670666 0.250000
Si Si5 0.000000 0.345035 0.250000
Si Si6 0.418666 0.724516 0.475307
Si Si7 0.559236 0.798088 0.892050
Si Si8 0.283613 0.108478 0.577375
O O1 0.465381 0.030523 0.847785
O O2 0.469764 0.121826 0.848455
O O3 0.633558 0.075220 0.893242
O O4 0.871951 0.080732 0.621965
O O5 0.774520 0.365927 0.859123
O O6 0.777785 0.460691 0.852570
O O7 0.769493 0.414205 0.993308
O O8 0.939874 0.701832 0.364762
O O9 0.757691 0.313274 0.381812
O O10 0.250000 0.750000 0.500000
O O11 0.500672 0.759943 0.503658
O O12 0.652683 0.705966 0.292573
O O13 0.466884 0.847939 0.976680
O O14 0.000000 0.124794 0.750000
#
# Coordination Sequence:
#
# PCOD9268619 Si02
#       8
#     8   8   4   4   4   8   8   8
#     4  10  20  35  58  85 114 155 197 244 295 360
#     4   9  18  37  59  82 120 152 193 243 298 360
#     4  10  20  32  58  92 118 150 194 240 296 362
#     4   9  20  39  58  86 112 160 198 251 312 353
#     4  11  22  37  60  82 118 158 204 245 308 357
#     4  12  23  40  59  85 119 161 203 259 306 361
#     4  11  23  40  61  86 120 157 210 256 309 359
#     4   9  20  39  62  83 117 161 198 246 302 358
#
# _framework density 21.128119999999999
#
# number of rings (size 3 to 8) (size 9 to 14) (size 15 to 20)
#    0.000    1.846    1.538    2.308    0.000    1.231 
#    1.385    0.000    0.000    0.000    0.000    0.000 
#    0.000    0.000    0.000    0.000    0.000    0.000 
#
# Total GULP energy -145061.958784 kJ/mol
# GULP energy per Si atom -5579.306107 kJ/mol
# Density = 2.108003 g / cm^3
# Si number density = 21.128120 Si / 1000 Ang^3
#
#
#
# Elastic Constant Matrix: (Units=GPa)
#
#
# Indices 1 2 3 4 5 6 
#
# 1 81.8562 35.8321 -1.1925 0.0000 15.9731 0.0000
# 2 35.8321 77.6091 13.8049 0.0000 0.0316 0.0000
# 3 -1.1925 13.8049 63.8742 0.0000 0.0104 0.0000
# 4 0.0000 0.0000 0.0000 15.6496 0.0000 -5.6490
# 5 15.9731 0.0316 0.0104 0.0000 32.5607 0.0000
# 6 0.0000 0.0000 0.0000 -5.6490 0.0000 18.5575
#
#
#
# Elastic Compliance Matrix: (Units=1/GPa)
#
#
# Indices 1 2 3 4 5 6 
#
# 1 0.017681 -0.008547 0.002179 0.000000 -0.008666 0.000000
# 2 -0.008547 0.017532 -0.003949 0.000000 0.004177 0.000000
# 3 0.002179 -0.003949 0.016550 0.000000 -0.001070 0.000000
# 4 0.000000 0.000000 0.000000 0.071788 0.000000 0.021853
# 5 -0.008666 0.004177 -0.001070 0.000000 0.034959 0.000000
# 6 0.000000 0.000000 0.000000 0.021853 0.000000 0.060539
#
#
# Mechanical properties :
#
#
# Convention : Reuss Voigt Hill
#
# Bulk Modulus (GPa) = 32.12599 35.58094 33.85347
# Shear Modulus (GPa) = 19.99515 25.01323 22.50419
#
# Velocity S-wave (km/s) = 3.07966 3.44449 3.26717
# Velocity P-wave (km/s) = 5.28054 5.71809 5.50366
#
# Compressibility (1/GPa) = 0.03112744
#
# Stress axis : x y z
#
# Youngs Moduli (GPa) = 56.55826 57.03797 60.42228
#
# Poissons Ratio (x) = 0.48752 -0.13165
# Poissons Ratio (y) = 0.48342 0.23863
# Poissons Ratio (z) = -0.12323 0.22527
#
# Static dielectric constant tensor:
#      x y z
#    x 1.783800 0.000000 0.002060 
#    y 0.000000 1.760420 0.000000 
#    z 0.002060 0.000000 1.796260 
# 
# From -- ./inp_files/201188.got.cif
#   From: 2010.05.17/outbox.cif.g08.bks.cpg/sg15_101_cif.got.tgz:201188.got - 2010.06.03 18:47:42.
