data_PCOD9268345
_publ_section_title
;
Structure prediction by ZEFSAII (Michael W. Deem and Ramdas Pophale) SiO2 
 PCOD9268345
Probable space group: C 2/C
;
_chemical_formula_sum "Si O2"
_cell_formula_units_Z 48
_cell_length_a 23.373087
_cell_length_b 18.916912
_cell_length_c 5.476664
_cell_angle_alpha 90.000000
_cell_angle_beta 111.876844
_cell_angle_gamma 90.000000
_cell_volume 2247.109685
_symmetry_space_group_name_H-M "C 2/C"
_symmetry_group_IT_number 15
_symmetry_cell_setting 'monoclinic'
loop_
_space_group_symop_operation_xyz
x,y,z
-x,y,1/2-z
-x,-y,-z
x,-y,1/2+z
1/2+x,1/2+y,z
1/2-x,1/2+y,1/2-z
1/2-x,1/2-y,-z
1/2+x,1/2-y,1/2+z
loop_
_atom_site_type_symbol
_atom_site_label
_atom_site_fract_x
_atom_site_fract_y
_atom_site_fract_z
Si Si1 0.344544 0.467213 0.611720
Si Si2 0.837044 0.191566 0.264802
Si Si3 0.700453 0.818646 0.648178
Si Si4 0.401522 0.195502 0.132812
Si Si5 0.197342 0.532341 0.890440
Si Si6 0.011427 0.615313 0.512386
O O1 0.369311 0.491068 0.388005
O O2 0.351894 0.384226 0.677304
O O3 0.270746 0.483418 0.485208
O O4 0.773321 0.185997 0.316840
O O5 0.888768 0.225995 0.518766
O O6 0.821538 0.248303 0.027508
O O7 0.659250 0.828757 0.822104
O O8 0.694426 0.886101 0.462165
O O9 0.459576 0.177917 0.400981
O O10 0.422841 0.150572 0.930369
O O11 0.171105 0.489959 0.084611
O O12 0.000000 0.582028 0.750000
O O13 0.000000 0.571057 0.250000
#
# Coordination Sequence:
#
# PCOD9268345 Si02
#       6
#     8   8   8   8   8   8
#     4   9  19  34  48  66 102 149 184 206 245 312
#     4  10  20  31  50  81 115 142 174 220 266 310
#     4  10  20  31  50  81 115 142 174 220 266 310
#     4   9  19  30  54  76 111 129 178 218 276 307
#     4   9  19  34  48  66 102 149 184 206 245 312
#     4   8  18  34  52  72 100 136 172 218 274 314
#
# _framework density 21.360771
#
# number of rings (size 3 to 8) (size 9 to 14) (size 15 to 20)
#    1.000    1.667    0.000    1.500    4.667    0.000 
#    0.000    0.000    0.000    0.000    0.000    9.333 
#    0.000    0.000    0.000    0.000    0.000    0.000 
#
# Total GULP energy -133702.159658 kJ/mol
# GULP energy per Si atom -5570.923319 kJ/mol
# Density = 2.131215 g / cm^3
# Si number density = 21.360771 Si / 1000 Ang^3
#
#
#
# Elastic Constant Matrix: (Units=GPa)
#
#
# Indices 1 2 3 4 5 6 
#
# 1 72.4845 19.2238 28.3419 0.0000 -15.1854 0.0000
# 2 19.2238 86.2936 19.0508 0.0000 3.1458 0.0000
# 3 28.3419 19.0508 82.7639 0.0000 -17.4457 0.0000
# 4 0.0000 0.0000 0.0000 23.5625 0.0000 6.2623
# 5 -15.1854 3.1458 -17.4457 0.0000 34.7597 0.0000
# 6 0.0000 0.0000 0.0000 6.2623 0.0000 14.8130
#
#
#
# Elastic Compliance Matrix: (Units=1/GPa)
#
#
# Indices 1 2 3 4 5 6 
#
# 1 0.017448 -0.003222 -0.003987 0.000000 0.005913 0.000000
# 2 -0.003222 0.013055 -0.002737 0.000000 -0.003963 0.000000
# 3 -0.003987 -0.002737 0.015391 0.000000 0.006231 0.000000
# 4 0.000000 0.000000 0.000000 0.047812 0.000000 -0.020213
# 5 0.005913 -0.003963 0.006231 0.000000 0.034838 0.000000
# 6 0.000000 0.000000 0.000000 -0.020213 0.000000 0.076053
#
#
# Mechanical properties :
#
#
# Convention : Reuss Voigt Hill
#
# Bulk Modulus (GPa) = 38.45828 41.64166 40.04997
# Shear Modulus (GPa) = 21.44469 26.28874 23.86671
#
# Velocity S-wave (km/s) = 3.17192 3.51194 3.34625
# Velocity P-wave (km/s) = 5.60875 5.99848 5.80688
#
# Compressibility (1/GPa) = 0.02600220
#
# Stress axis : x y z
#
# Youngs Moduli (GPa) = 57.31188 76.59974 64.97230
#
# Poissons Ratio (x) = 0.24684 0.25904
# Poissons Ratio (y) = 0.18468 0.17782
# Poissons Ratio (z) = 0.22850 0.20964
#
# Static dielectric constant tensor:
#      x y z
#    x 1.776480 0.000000 -0.013330 
#    y 0.000000 1.756670 0.000000 
#    z -0.013330 0.000000 1.865750 
# 
# From -- ./inp_files/15444.got.cif
#   From: 2010.05.17/outbox.cif.g08.bks.cpg/sg15_8_cif.got.tgz:15444.got - 2010.06.03 18:47:42.
