data_PCOD9268127
_publ_section_title
;
Structure prediction by ZEFSAII (Michael W. Deem and Ramdas Pophale) SiO2 
 PCOD9268127
Probable space group: C 2/C
;
_chemical_formula_sum "Si O2"
_cell_formula_units_Z 52
_cell_length_a 10.760195
_cell_length_b 14.986876
_cell_length_c 16.727030
_cell_angle_alpha 90.000000
_cell_angle_beta 64.147656
_cell_angle_gamma 90.000000
_cell_volume 2427.472796
_symmetry_space_group_name_H-M "C 2/C"
_symmetry_group_IT_number 15
_symmetry_cell_setting 'monoclinic'
loop_
_space_group_symop_operation_xyz
x,y,z
-x,y,1/2-z
-x,-y,-z
x,-y,1/2+z
1/2+x,1/2+y,z
1/2-x,1/2+y,1/2-z
1/2-x,1/2-y,-z
1/2+x,1/2-y,1/2+z
loop_
_atom_site_type_symbol
_atom_site_label
_atom_site_fract_x
_atom_site_fract_y
_atom_site_fract_z
Si Si1 0.533682 0.154086 0.963446
Si Si2 0.012007 0.990891 0.092058
Si Si3 0.000000 0.670975 0.250000
Si Si4 0.556448 0.715546 0.876331
Si Si5 0.718906 0.025303 0.194282
Si Si6 0.137455 0.327344 0.262671
Si Si7 0.687560 0.997220 0.012489
O O1 0.610285 0.190393 0.863488
O O2 0.627831 0.087475 0.990147
O O3 0.475131 0.234887 0.032303
O O4 0.411734 0.087058 0.970563
O O5 0.992012 0.886177 0.112635
O O6 0.880055 0.038179 0.167904
O O7 0.164866 0.021810 0.069631
O O8 0.000000 0.000000 0.000000
O O9 0.030034 0.732784 0.166682
O O10 0.876610 0.607270 0.257047
O O11 0.720250 0.715058 0.809846
O O12 0.662732 0.934486 0.248730
O O13 0.704803 0.012673 0.102380
O O14 0.000000 0.305531 0.250000
#
# Coordination Sequence:
#
# PCOD9268127 Si02
#       7
#     8   8   4   8   8   8   8
#     4  11  23  41  70  99 133 176 234 276 335 408
#     4   9  22  43  65  92 130 175 219 272 344 397
#     4  12  22  42  68  98 132 170 230 282 332 406
#     4  11  27  42  66 105 134 173 229 289 334 393
#     4  10  19  42  67  90 130 179 222 266 346 402
#     4  11  23  44  66  92 135 187 219 276 346 409
#     4  10  20  40  69  97 126 175 226 272 339 412
#
# _framework density 21.421455999999999
#
# number of rings (size 3 to 8) (size 9 to 14) (size 15 to 20)
#    0.000    1.538    3.846    0.000    4.308    3.692 
#    2.769    0.000    0.000    0.000    0.000    0.000 
#    0.000    0.000    0.000    0.000    0.000    0.000 
#
# Total GULP energy -145335.019422 kJ/mol
# GULP energy per Si atom -5589.808439 kJ/mol
# Density = 2.137270 g / cm^3
# Si number density = 21.421456 Si / 1000 Ang^3
#
#
#
# Elastic Constant Matrix: (Units=GPa)
#
#
# Indices 1 2 3 4 5 6 
#
# 1 56.8747 3.1279 14.0058 0.0000 -26.2585 0.0000
# 2 3.1279 43.7990 19.3898 0.0000 -2.8296 0.0000
# 3 14.0058 19.3898 112.5948 0.0000 -4.5458 0.0000
# 4 0.0000 0.0000 0.0000 25.9467 0.0000 -11.7845
# 5 -26.2585 -2.8296 -4.5458 0.0000 31.2768 0.0000
# 6 0.0000 0.0000 0.0000 -11.7845 0.0000 7.9495
#
#
#
# Elastic Compliance Matrix: (Units=1/GPa)
#
#
# Indices 1 2 3 4 5 6 
#
# 1 0.029518 0.000714 -0.002808 0.000000 0.024438 0.000000
# 2 0.000714 0.024816 -0.004273 0.000000 0.002224 0.000000
# 3 -0.002808 -0.004273 0.009914 0.000000 -0.001303 0.000000
# 4 0.000000 0.000000 0.000000 0.117967 0.000000 0.174878
# 5 0.024438 0.002224 -0.001303 0.000000 0.052501 0.000000
# 6 0.000000 0.000000 0.000000 0.174878 0.000000 0.385038
#
#
# Mechanical properties :
#
#
# Convention : Reuss Voigt Hill
#
# Bulk Modulus (GPa) = 19.41225 31.81283 25.61254
# Shear Modulus (GPa) = 7.69636 24.81759 16.25697
#
# Velocity S-wave (km/s) = 1.89753 3.40742 2.75782
# Velocity P-wave (km/s) = 3.72593 5.51034 4.70353
#
# Compressibility (1/GPa) = 0.05151386
#
# Stress axis : x y z
#
# Youngs Moduli (GPa) = 33.87819 40.29711 100.86896
#
# Poissons Ratio (x) = -0.02877 0.28324
# Poissons Ratio (y) = -0.02419 0.43096
# Poissons Ratio (z) = 0.09513 0.17217
#
# Static dielectric constant tensor:
#      x y z
#    x 1.809100 0.000000 -0.027940 
#    y 0.000000 1.719830 0.000000 
#    z -0.027940 0.000000 1.774850 
# 
# From -- ./inp_files/197714.got.cif
#   From: 2010.05.17/outbox.cif.g08.bks.cpg/sg15_99_cif.got.tgz:197714.got - 2010.06.03 18:47:42.
