data_PCOD9268019
_publ_section_title
;
Structure prediction by ZEFSAII (Michael W. Deem and Ramdas Pophale) SiO2 
 PCOD9268019
Probable space group: C 2/C
;
_chemical_formula_sum "Si O2"
_cell_formula_units_Z 40
_cell_length_a 12.230532
_cell_length_b 8.106430
_cell_length_c 16.599371
_cell_angle_alpha 90.000000
_cell_angle_beta 96.562729
_cell_angle_gamma 90.000000
_cell_volume 1634.976295
_symmetry_space_group_name_H-M "C 2/C"
_symmetry_group_IT_number 15
_symmetry_cell_setting 'monoclinic'
loop_
_space_group_symop_operation_xyz
x,y,z
-x,y,1/2-z
-x,-y,-z
x,-y,1/2+z
1/2+x,1/2+y,z
1/2-x,1/2+y,1/2-z
1/2-x,1/2-y,-z
1/2+x,1/2-y,1/2+z
loop_
_atom_site_type_symbol
_atom_site_label
_atom_site_fract_x
_atom_site_fract_y
_atom_site_fract_z
Si Si1 0.118244 0.517714 0.665589
Si Si2 0.231019 0.498232 0.842720
Si Si3 0.559053 0.140652 0.948913
Si Si4 0.451383 0.668762 0.896887
Si Si5 0.205024 0.840375 0.415520
O O1 0.168682 0.548413 0.756516
O O2 0.058321 0.340721 0.654011
O O3 0.216864 0.514471 0.608322
O O4 0.032724 0.656334 0.628447
O O5 0.167522 0.578661 0.913409
O O6 0.357573 0.550879 0.855549
O O7 0.218970 0.302959 0.850592
O O8 0.574856 0.288037 0.011995
O O9 0.500000 0.000000 0.000000
O O10 0.577699 0.614187 0.907586
O O11 0.250000 0.750000 0.500000
#
# Coordination Sequence:
#
# PCOD9268019 Si02
#       5
#     8   8   8   8   8
#     4  11  23  42  69 101 135 180 228 283 346 398
#     4  12  24  40  71 101 136 177 227 289 344 399
#     4  10  19  41  66  92 127 179 223 269 333 406
#     4  11  24  46  69  97 135 183 227 280 338 412
#     4  12  24  46  71  98 138 182 231 280 342 415
#
# _framework density 24.465188000000001
#
# number of rings (size 3 to 8) (size 9 to 14) (size 15 to 20)
#    0.000    0.800    6.000    3.600    0.000    3.200 
#    3.600    0.000    0.000    0.000    0.000    0.000 
#    0.000    0.000    0.000    0.000    0.000    0.000 
#
# Total GULP energy -111988.076069 kJ/mol
# GULP energy per Si atom -5599.403803 kJ/mol
# Density = 2.440950 g / cm^3
# Si number density = 24.465188 Si / 1000 Ang^3
#
#
#
# Elastic Constant Matrix: (Units=GPa)
#
#
# Indices 1 2 3 4 5 6 
#
# 1 147.6395 3.4229 19.2399 0.0000 23.9859 0.0000
# 2 3.4229 27.0152 6.0242 0.0000 9.7513 0.0000
# 3 19.2399 6.0242 117.7075 0.0000 26.8743 0.0000
# 4 0.0000 0.0000 0.0000 29.4087 0.0000 4.5740
# 5 23.9859 9.7513 26.8743 0.0000 45.5629 0.0000
# 6 0.0000 0.0000 0.0000 4.5740 0.0000 33.8449
#
#
#
# Elastic Compliance Matrix: (Units=1/GPa)
#
#
# Indices 1 2 3 4 5 6 
#
# 1 0.007427 0.000514 -0.000373 0.000000 -0.003800 0.000000
# 2 0.000514 0.040152 -0.000133 0.000000 -0.008785 0.000000
# 3 -0.000373 -0.000133 0.009837 0.000000 -0.005577 0.000000
# 4 0.000000 0.000000 0.000000 0.034734 0.000000 -0.004694
# 5 -0.003800 -0.008785 -0.005577 0.000000 0.029118 0.000000
# 6 0.000000 0.000000 0.000000 -0.004694 0.000000 0.030181
#
#
# Mechanical properties :
#
#
# Convention : Reuss Voigt Hill
#
# Bulk Modulus (GPa) = 17.41201 38.85961 28.13581
# Shear Modulus (GPa) = 29.31235 39.34166 34.32700
#
# Velocity S-wave (km/s) = 3.46515 4.01442 3.74986
# Velocity P-wave (km/s) = 4.81063 6.11601 5.50217
#
# Compressibility (1/GPa) = 0.05743161
#
# Stress axis : x y z
#
# Youngs Moduli (GPa) = 134.63866 24.90543 101.65969
#
# Poissons Ratio (x) = -0.01279 0.03789
# Poissons Ratio (y) = -0.06917 0.01354
# Poissons Ratio (z) = 0.05018 0.00332
#
# Static dielectric constant tensor:
#      x y z
#    x 2.001740 0.000000 0.037040 
#    y 0.000000 1.978830 0.000000 
#    z 0.037040 0.000000 1.998050 
# 
# From -- ./inp_files/195240.got.cif
#   From: 2010.05.17/outbox.cif.g08.bks.cpg/sg15_98_cif.got.tgz:195240.got - 2010.06.03 18:47:42.
