data_PCOD9268122
_publ_section_title
;
Structure prediction by ZEFSAII (Michael W. Deem and Ramdas Pophale) SiO2 
 PCOD9268122
Probable space group: C 2/C
;
_chemical_formula_sum "Si O2"
_cell_formula_units_Z 40
_cell_length_a 7.367555
_cell_length_b 24.021510
_cell_length_c 12.081583
_cell_angle_alpha 90.000000
_cell_angle_beta 74.564579
_cell_angle_gamma 90.000000
_cell_volume 2061.073607
_symmetry_space_group_name_H-M "C 2/C"
_symmetry_group_IT_number 15
_symmetry_cell_setting 'monoclinic'
loop_
_space_group_symop_operation_xyz
x,y,z
-x,y,1/2-z
-x,-y,-z
x,-y,1/2+z
1/2+x,1/2+y,z
1/2-x,1/2+y,1/2-z
1/2-x,1/2-y,-z
1/2+x,1/2-y,1/2+z
loop_
_atom_site_type_symbol
_atom_site_label
_atom_site_fract_x
_atom_site_fract_y
_atom_site_fract_z
Si Si1 0.500000 0.963724 0.750000
Si Si2 0.302513 0.398020 0.843763
Si Si3 0.624771 0.782514 0.931836
Si Si4 0.399734 0.844154 0.151219
Si Si5 0.500000 0.296133 0.250000
Si Si6 0.610743 0.043067 0.560322
O O1 0.630569 0.925123 0.803711
O O2 0.642399 0.004871 0.661800
O O3 0.500000 0.405594 0.750000
O O4 0.250977 0.333213 0.865175
O O5 0.283258 0.428749 0.966413
O O6 0.547318 0.743496 0.847074
O O7 0.750000 0.750000 0.000000
O O8 0.461921 0.809345 0.033694
O O9 0.500000 0.825408 0.250000
O O10 0.473555 0.906295 0.116079
O O11 0.179909 0.834898 0.201336
O O12 0.500000 0.000000 0.500000
#
# Coordination Sequence:
#
# PCOD9268122 Si02
#       6
#     4   8   8   8   4   8
#     4  10  19  42  66  90 132 166 207 274 326 376
#     4  10  23  40  63  96 124 169 219 257 322 396
#     4  11  24  43  65  94 138 172 214 276 327 383
#     4  11  22  43  65  97 132 168 220 270 325 396
#     4  12  25  42  70  96 126 180 217 266 328 396
#     4   9  20  41  64  91 132 165 207 276 325 372
#
# _framework density 19.407361000000002
#
# number of rings (size 3 to 8) (size 9 to 14) (size 15 to 20)
#    0.000    1.600    3.000    1.200    2.800    0.800 
#   18.000    0.000    0.000    0.000    0.000    0.000 
#    0.000    0.000    0.000    0.000    0.000    0.000 
#
# Total GULP energy -111554.293241 kJ/mol
# GULP energy per Si atom -5577.714662 kJ/mol
# Density = 1.936319 g / cm^3
# Si number density = 19.407361 Si / 1000 Ang^3
#
#
#
# Elastic Constant Matrix: (Units=GPa)
#
#
# Indices 1 2 3 4 5 6 
#
# 1 94.9573 38.7650 47.1088 0.0000 -18.8590 0.0000
# 2 38.7650 100.7388 50.3753 0.0000 -7.5907 0.0000
# 3 47.1088 50.3753 106.4070 0.0000 -7.5008 0.0000
# 4 0.0000 0.0000 0.0000 45.1289 0.0000 6.6367
# 5 -18.8590 -7.5907 -7.5008 0.0000 40.8749 0.0000
# 6 0.0000 0.0000 0.0000 6.6367 0.0000 8.1651
#
#
#
# Elastic Compliance Matrix: (Units=1/GPa)
#
#
# Indices 1 2 3 4 5 6 
#
# 1 0.015335 -0.002989 -0.004979 0.000000 0.005607 0.000000
# 2 -0.002989 0.013657 -0.005127 0.000000 0.000216 0.000000
# 3 -0.004979 -0.005127 0.013981 0.000000 -0.000684 0.000000
# 4 0.000000 0.000000 0.000000 0.025167 0.000000 -0.020456
# 5 0.005607 0.000216 -0.000684 0.000000 0.026966 0.000000
# 6 0.000000 0.000000 0.000000 -0.020456 0.000000 0.139100
#
#
# Mechanical properties :
#
#
# Convention : Reuss Voigt Hill
#
# Bulk Modulus (GPa) = 59.58234 63.84459 61.71346
# Shear Modulus (GPa) = 18.79768 29.89072 24.34420
#
# Velocity S-wave (km/s) = 3.11559 3.92876 3.54556
# Velocity P-wave (km/s) = 6.61136 7.31770 6.97348
#
# Compressibility (1/GPa) = 0.01678350
#
# Stress axis : x y z
#
# Youngs Moduli (GPa) = 65.21162 73.22337 71.52475
#
# Poissons Ratio (x) = 0.21884 0.35611
# Poissons Ratio (y) = 0.19490 0.36671
# Poissons Ratio (z) = 0.32468 0.37542
#
# Static dielectric constant tensor:
#      x y z
#    x 1.623630 0.000000 0.005280 
#    y 0.000000 1.671710 0.000000 
#    z 0.005280 0.000000 1.762040 
# 
# From -- ./inp_files/73108.got.cif
#   From: 2010.05.17/outbox.cif.g08.bks.cpg/sg15_37_cif.got.tgz:73108.got - 2010.06.03 18:47:42.
