data_PCOD9268359
_publ_section_title
;
Structure prediction by ZEFSAII (Michael W. Deem and Ramdas Pophale) SiO2 
 PCOD9268359
Probable space group: C 2/C
;
_chemical_formula_sum "Si O2"
_cell_formula_units_Z 64
_cell_length_a 11.740332
_cell_length_b 21.336978
_cell_length_c 17.416856
_cell_angle_alpha 90.000000
_cell_angle_beta 126.522014
_cell_angle_gamma 90.000000
_cell_volume 3506.212629
_symmetry_space_group_name_H-M "C 2/C"
_symmetry_group_IT_number 15
_symmetry_cell_setting 'monoclinic'
loop_
_space_group_symop_operation_xyz
x,y,z
-x,y,1/2-z
-x,-y,-z
x,-y,1/2+z
1/2+x,1/2+y,z
1/2-x,1/2+y,1/2-z
1/2-x,1/2-y,-z
1/2+x,1/2-y,1/2+z
loop_
_atom_site_type_symbol
_atom_site_label
_atom_site_fract_x
_atom_site_fract_y
_atom_site_fract_z
Si Si1 0.337364 0.105586 0.706177
Si Si2 0.586637 0.407436 0.494553
Si Si3 0.169102 0.053564 0.319389
Si Si4 0.836515 0.534931 0.004350
Si Si5 0.620692 0.694177 0.536114
Si Si6 0.527251 0.079931 0.592164
Si Si7 0.717608 0.831848 0.550715
Si Si8 0.853799 0.997656 0.351305
O O1 0.500000 0.111121 0.750000
O O2 0.242999 0.160404 0.634831
O O3 0.345876 0.100367 0.801666
O O4 0.267495 0.040185 0.651792
O O5 0.741049 0.420941 0.520166
O O6 0.522942 0.339228 0.490531
O O7 0.475174 0.444102 0.394314
O O8 0.584341 0.446439 0.573102
O O9 0.228096 0.122445 0.360776
O O10 0.000000 0.054534 0.250000
O O11 0.231842 0.010369 0.412607
O O12 0.205552 0.024746 0.251459
O O13 0.919169 0.574372 0.973194
O O14 0.954811 0.486841 0.084896
O O15 0.646643 0.768186 0.552214
O O16 0.656324 0.679919 0.460483
O O17 0.402657 0.130553 0.543892
#
# Coordination Sequence:
#
# PCOD9268359 Si02
#       8
#     8   8   8   8   8   8   8   8
#     4  11  19  32  54  84 111 138 180 223 274 343
#     4  10  20  35  55  80 113 145 179 231 280 332
#     4  11  19  32  54  85 111 137 176 227 283 339
#     4  10  20  34  56  84 114 142 175 224 286 345
#     4  10  22  38  55  78 108 150 193 230 269 326
#     4  10  20  35  55  81 115 146 174 225 286 338
#     4  10  22  39  54  76 114 148 186 232 275 328
#     4  10  20  31  52  84 112 135 174 226 286 329
#
# _framework density 18.253314
#
# number of rings (size 3 to 8) (size 9 to 14) (size 15 to 20)
#    0.000    1.750    3.750    1.500    7.000    0.500 
#    2.250    0.625    0.000    0.000    3.250    0.000 
#    0.000    0.000    0.000    0.000    0.000    0.000 
#
# Total GULP energy -178265.583481 kJ/mol
# GULP energy per Si atom -5570.799484 kJ/mol
# Density = 1.821177 g / cm^3
# Si number density = 18.253314 Si / 1000 Ang^3
#
#
#
# Elastic Constant Matrix: (Units=GPa)
#
#
# Indices 1 2 3 4 5 6 
#
# 1 78.1038 24.1999 -14.2892 0.0000 1.4839 0.0000
# 2 24.1999 73.5227 15.3112 0.0000 -8.1574 0.0000
# 3 -14.2892 15.3112 55.4819 0.0000 1.9791 0.0000
# 4 0.0000 0.0000 0.0000 17.2180 0.0000 1.5270
# 5 1.4839 -8.1574 1.9791 0.0000 23.9478 0.0000
# 6 0.0000 0.0000 0.0000 1.5270 0.0000 26.4746
#
#
#
# Elastic Compliance Matrix: (Units=1/GPa)
#
#
# Indices 1 2 3 4 5 6 
#
# 1 0.016220 -0.007082 0.006272 0.000000 -0.003936 0.000000
# 2 -0.007082 0.018215 -0.007108 0.000000 0.007231 0.000000
# 3 0.006272 -0.007108 0.021765 0.000000 -0.004609 0.000000
# 4 0.000000 0.000000 0.000000 0.058378 0.000000 -0.003367
# 5 -0.003936 0.007231 -0.004609 0.000000 0.044845 0.000000
# 6 0.000000 0.000000 0.000000 -0.003367 0.000000 0.037966
#
#
# Mechanical properties :
#
#
# Convention : Reuss Voigt Hill
#
# Bulk Modulus (GPa) = 24.77452 28.61690 26.69571
# Shear Modulus (GPa) = 22.05757 25.65384 23.85571
#
# Velocity S-wave (km/s) = 3.48000 3.75298 3.61906
# Velocity P-wave (km/s) = 5.45429 5.87295 5.66748
#
# Compressibility (1/GPa) = 0.04036405
#
# Stress axis : x y z
#
# Youngs Moduli (GPa) = 61.65268 54.90061 45.94462
#
# Poissons Ratio (x) = 0.38878 -0.28817
# Poissons Ratio (y) = 0.43660 0.32659
# Poissons Ratio (z) = -0.38669 0.39026
#
# Static dielectric constant tensor:
#      x y z
#    x 1.696230 0.000000 -0.006570 
#    y 0.000000 1.615840 0.000000 
#    z -0.006570 0.000000 1.665330 
# 
# From -- ./inp_files/200409.got.cif
#   From: 2010.05.17/outbox.cif.g08.bks.cpg/sg15_101_cif.got.tgz:200409.got - 2010.06.03 18:47:42.
