data_PCOD9268586
_publ_section_title
;
Structure prediction by ZEFSAII (Michael W. Deem and Ramdas Pophale) SiO2 
 PCOD9268586
Probable space group: C 2/C
;
_chemical_formula_sum "Si O2"
_cell_formula_units_Z 60
_cell_length_a 15.135709
_cell_length_b 9.083566
_cell_length_c 22.722412
_cell_angle_alpha 90.000000
_cell_angle_beta 98.280943
_cell_angle_gamma 90.000000
_cell_volume 3091.446544
_symmetry_space_group_name_H-M "C 2/C"
_symmetry_group_IT_number 15
_symmetry_cell_setting 'monoclinic'
loop_
_space_group_symop_operation_xyz
x,y,z
-x,y,1/2-z
-x,-y,-z
x,-y,1/2+z
1/2+x,1/2+y,z
1/2-x,1/2+y,1/2-z
1/2-x,1/2-y,-z
1/2+x,1/2-y,1/2+z
loop_
_atom_site_type_symbol
_atom_site_label
_atom_site_fract_x
_atom_site_fract_y
_atom_site_fract_z
Si Si1 0.181496 0.320608 0.676503
Si Si2 0.980360 0.750229 0.151011
Si Si3 0.443770 0.523623 0.936184
Si Si4 0.929780 0.210128 0.334753
Si Si5 0.262049 0.305650 0.435070
Si Si6 0.294331 0.897190 0.256179
Si Si7 0.404765 0.937311 0.150175
Si Si8 0.500000 0.527112 0.750000
O O1 0.076045 0.323564 0.675712
O O2 0.207913 0.315551 0.610644
O O3 0.215101 0.173249 0.711414
O O4 0.229081 0.454036 0.713285
O O5 0.004286 0.853805 0.098047
O O6 0.919287 0.608597 0.136175
O O7 0.950857 0.860829 0.200282
O O8 0.433457 0.377365 0.896142
O O9 0.344714 0.581641 0.940650
O O10 0.500000 0.500000 0.000000
O O11 0.837884 0.288832 0.308304
O O12 0.007431 0.334194 0.343552
O O13 0.946936 0.084906 0.286949
O O14 0.250000 0.250000 0.500000
O O15 0.170718 0.371787 0.400183
O O16 0.369013 0.927821 0.213574
#
# Coordination Sequence:
#
# PCOD9268586 Si02
#       8
#     8   8   8   8   8   8   8   4
#     4  10  23  37  61  89 124 164 195 255 304 371
#     4  10  21  38  60  93 123 160 204 249 310 367
#     4  10  23  44  63  86 123 164 209 257 307 371
#     4  11  21  37  61  90 123 165 203 243 313 371
#     4  10  23  44  65  87 119 162 213 259 313 359
#     4  11  22  36  59  93 128 158 203 244 316 367
#     4  11  21  39  64  91 125 160 201 260 307 374
#     4  10  20  32  56  90 124 160 194 244 298 368
#
# _framework density 19.408390000000001
#
# number of rings (size 3 to 8) (size 9 to 14) (size 15 to 20)
#    0.000    1.600    2.667    1.600    7.467    0.000 
#    2.400    2.667    0.000    0.000    0.000    0.000 
#    0.000    0.000    0.000    0.000    0.000    0.000 
#
# Total GULP energy -167510.403904 kJ/mol
# GULP energy per Si atom -5583.680130 kJ/mol
# Density = 1.936422 g / cm^3
# Si number density = 19.408390 Si / 1000 Ang^3
#
#
#
# Elastic Constant Matrix: (Units=GPa)
#
#
# Indices 1 2 3 4 5 6 
#
# 1 31.3940 0.6081 13.6433 0.0000 6.7601 0.0000
# 2 0.6081 81.4774 27.1393 0.0000 -5.5124 0.0000
# 3 13.6433 27.1393 115.1145 0.0000 3.9810 0.0000
# 4 0.0000 0.0000 0.0000 23.2604 0.0000 9.9975
# 5 6.7601 -5.5124 3.9810 0.0000 22.5639 0.0000
# 6 0.0000 0.0000 0.0000 9.9975 0.0000 18.9008
#
#
#
# Elastic Compliance Matrix: (Units=1/GPa)
#
#
# Indices 1 2 3 4 5 6 
#
# 1 0.035708 0.000390 -0.003982 0.000000 -0.009900 0.000000
# 2 0.000390 0.013661 -0.003399 0.000000 0.003820 0.000000
# 3 -0.003982 -0.003399 0.010009 0.000000 -0.001403 0.000000
# 4 0.000000 0.000000 0.000000 0.055641 0.000000 -0.029431
# 5 -0.009900 0.003820 -0.001403 0.000000 0.048466 0.000000
# 6 0.000000 0.000000 0.000000 -0.029431 0.000000 0.068476
#
#
# Mechanical properties :
#
#
# Convention : Reuss Voigt Hill
#
# Bulk Modulus (GPa) = 22.02824 34.52969 28.27896
# Shear Modulus (GPa) = 19.15166 25.38470 22.26818
#
# Velocity S-wave (km/s) = 3.14470 3.62045 3.39093
# Velocity P-wave (km/s) = 4.95581 5.94193 5.47113
#
# Compressibility (1/GPa) = 0.04539628
#
# Stress axis : x y z
#
# Youngs Moduli (GPa) = 28.00499 73.20063 99.91212
#
# Poissons Ratio (x) = -0.02854 0.39781
# Poissons Ratio (y) = -0.01092 0.33961
# Poissons Ratio (z) = 0.11151 0.24881
#
# Static dielectric constant tensor:
#      x y z
#    x 1.701440 0.000000 -0.005400 
#    y 0.000000 1.689470 0.000000 
#    z -0.005400 0.000000 1.655980 
# 
# From -- ./inp_files/272798.got.cif
#   From: 2010.05.17/outbox.cif.g08.bks.cpg/sg15_137_cif.got.tgz:272798.got - 2010.06.03 18:47:42.
