data_PCOD9268168
_publ_section_title
;
Structure prediction by ZEFSAII (Michael W. Deem and Ramdas Pophale) SiO2 
 PCOD9268168
Probable space group: C 2/C
;
_chemical_formula_sum "Si O2"
_cell_formula_units_Z 48
_cell_length_a 14.999740
_cell_length_b 18.274417
_cell_length_c 14.202036
_cell_angle_alpha 90.000000
_cell_angle_beta 153.232732
_cell_angle_gamma 90.000000
_cell_volume 1753.254499
_symmetry_space_group_name_H-M "C 2/C"
_symmetry_group_IT_number 15
_symmetry_cell_setting 'monoclinic'
loop_
_space_group_symop_operation_xyz
x,y,z
-x,y,1/2-z
-x,-y,-z
x,-y,1/2+z
1/2+x,1/2+y,z
1/2-x,1/2+y,1/2-z
1/2-x,1/2-y,-z
1/2+x,1/2-y,1/2+z
loop_
_atom_site_type_symbol
_atom_site_label
_atom_site_fract_x
_atom_site_fract_y
_atom_site_fract_z
Si Si1 0.667259 0.163892 0.172905
Si Si2 0.454275 0.372263 0.816042
Si Si3 0.952292 0.522798 0.345941
Si Si4 0.381546 0.542424 0.729000
Si Si5 0.557425 0.139556 0.700817
Si Si6 0.339983 0.329031 0.337950
O O1 0.662389 0.097655 0.244682
O O2 0.653371 0.247467 0.196110
O O3 0.917639 0.165581 0.388812
O O4 0.422702 0.161309 0.900355
O O5 0.500000 0.359377 0.750000
O O6 0.452358 0.461481 0.828234
O O7 0.191518 0.359681 0.572914
O O8 0.695143 0.334924 0.075781
O O9 0.885006 0.446697 0.239068
O O10 0.000000 0.500000 0.500000
O O11 0.154912 0.537423 0.484307
O O12 0.500000 0.565771 0.750000
O O13 0.372668 0.600980 0.802708
O O14 0.500000 0.171198 0.750000
#
# Coordination Sequence:
#
# PCOD9268168 Si02
#       6
#     8   8   8   8   8   8
#     4  11  22  41  62  87 133 170 198 261 323 370
#     4  11  23  38  62  95 128 162 209 265 317 375
#     4  10  19  43  65  84 123 169 205 257 314 368
#     4  11  23  43  67  89 125 167 218 268 308 361
#     4  11  22  39  68  94 123 169 211 253 320 387
#     4  12  24  38  64  96 129 166 213 256 321 379
#
# _framework density 27.377658
#
# number of rings (size 3 to 8) (size 9 to 14) (size 15 to 20)
#    0.000    1.000    6.667    2.500    2.333    4.000 
#    0.000    1.667    0.000    0.000    0.000    0.000 
#    0.000    0.000    0.000    0.000    0.000    0.000 
#
# Total GULP energy -133907.583843 kJ/mol
# GULP energy per Si atom -5579.482660 kJ/mol
# Density = 2.731535 g / cm^3
# Si number density = 27.377658 Si / 1000 Ang^3
#
#
#
# Elastic Constant Matrix: (Units=GPa)
#
#
# Indices 1 2 3 4 5 6 
#
# 1 109.3547 20.8761 20.0554 0.0000 50.1256 0.0000
# 2 20.8761 141.1127 -4.5396 0.0000 2.5510 0.0000
# 3 20.0554 -4.5396 149.8465 0.0000 46.9109 0.0000
# 4 0.0000 0.0000 0.0000 55.5325 0.0000 14.7854
# 5 50.1256 2.5510 46.9109 0.0000 70.2379 0.0000
# 6 0.0000 0.0000 0.0000 14.7854 0.0000 5.0490
#
#
#
# Elastic Compliance Matrix: (Units=1/GPa)
#
#
# Indices 1 2 3 4 5 6 
#
# 1 0.014354 -0.001872 0.001527 0.000000 -0.011195 0.000000
# 2 -0.001872 0.007352 0.000175 0.000000 0.000952 0.000000
# 3 0.001527 0.000175 0.008620 0.000000 -0.006853 0.000000
# 4 0.000000 0.000000 0.000000 0.081732 0.000000 -0.239344
# 5 -0.011195 0.000952 -0.006853 0.000000 0.026770 0.000000
# 6 0.000000 0.000000 0.000000 -0.239344 0.000000 0.898952
#
#
# Mechanical properties :
#
#
# Convention : Reuss Voigt Hill
#
# Bulk Modulus (GPa) = 33.34873 52.56639 42.95756
# Shear Modulus (GPa) = 4.77047 50.42535 27.59791
#
# Velocity S-wave (km/s) = 1.32146 4.29633 3.17842
# Velocity P-wave (km/s) = 3.81258 6.62219 5.40320
#
# Compressibility (1/GPa) = 0.02998615
#
# Stress axis : x y z
#
# Youngs Moduli (GPa) = 69.66914 136.01931 116.01049
#
# Poissons Ratio (x) = 0.25462 -0.17715
# Poissons Ratio (y) = 0.13042 -0.02034
# Poissons Ratio (z) = -0.10639 -0.02384
#
# Static dielectric constant tensor:
#      x y z
#    x 2.094580 0.000000 0.089480 
#    y 0.000000 1.888590 0.000000 
#    z 0.089480 0.000000 2.718110 
# 
# From -- ./inp_files/212058.got.cif
#   From: 2010.05.17/outbox.cif.g08.bks.cpg/sg15_107_cif.got.tgz:212058.got - 2010.06.03 18:47:42.
