data_PCOD9268154
_publ_section_title
;
Structure prediction by ZEFSAII (Michael W. Deem and Ramdas Pophale) SiO2 
 PCOD9268154
Probable space group: C 2/C
;
_chemical_formula_sum "Si O2"
_cell_formula_units_Z 64
_cell_length_a 8.890766
_cell_length_b 26.513997
_cell_length_c 14.575718
_cell_angle_alpha 90.000000
_cell_angle_beta 121.065913
_cell_angle_gamma 90.000000
_cell_volume 2943.129331
_symmetry_space_group_name_H-M "C 2/C"
_symmetry_group_IT_number 15
_symmetry_cell_setting 'monoclinic'
loop_
_space_group_symop_operation_xyz
x,y,z
-x,y,1/2-z
-x,-y,-z
x,-y,1/2+z
1/2+x,1/2+y,z
1/2-x,1/2+y,1/2-z
1/2-x,1/2-y,-z
1/2+x,1/2-y,1/2+z
loop_
_atom_site_type_symbol
_atom_site_label
_atom_site_fract_x
_atom_site_fract_y
_atom_site_fract_z
Si Si1 0.694604 0.068228 0.785735
Si Si2 0.809343 0.251412 0.665594
Si Si3 0.114779 0.164708 0.195262
Si Si4 0.755139 0.968432 0.924884
Si Si5 0.592013 0.908129 0.647235
Si Si6 0.660960 0.170565 0.494283
Si Si7 0.505233 0.618022 0.981883
Si Si8 0.700046 0.506269 0.847940
O O1 0.500000 0.084738 0.750000
O O2 0.835969 0.107787 0.867685
O O3 0.731073 0.016154 0.852698
O O4 0.715286 0.051092 0.686783
O O5 0.710150 0.281685 0.713652
O O6 0.688570 0.207913 0.586772
O O7 0.848543 0.293618 0.599072
O O8 0.000000 0.230513 0.750000
O O9 0.272689 0.123870 0.249002
O O10 0.000000 0.160247 0.250000
O O11 0.998091 0.154164 0.067855
O O12 0.579527 0.934634 0.863593
O O13 0.925552 0.935271 0.955716
O O14 0.780263 0.982625 0.038993
O O15 0.504157 0.866454 0.553140
O O16 0.700904 0.953833 0.638825
O O17 0.837752 0.138445 0.532769
O O18 0.500000 0.502634 0.750000
#
# Coordination Sequence:
#
# PCOD9268154 Si02
#       8
#     8   8   8   8   8   8   8   8
#     4  12  25  41  63  92 136 187 229 278 332 384
#     4  10  19  42  71  96 126 162 217 266 347 410
#     4  11  24  39  71 106 134 164 214 287 341 401
#     4  11  24  40  61  93 136 181 233 278 319 386
#     4  11  22  39  62 100 128 174 229 272 325 393
#     4   9  21  40  68  98 124 166 217 280 322 412
#     4  10  23  41  63  95 136 173 224 271 328 387
#     4  12  25  41  61  90 133 189 235 276 324 378
#
# _framework density 21.745562
#
# number of rings (size 3 to 8) (size 9 to 14) (size 15 to 20)
#    0.000    1.250    3.750    1.875    3.500    1.000 
#    4.500    0.625    0.000    0.000    0.000    0.000 
#    0.000    0.000    0.000    0.000    0.000    0.000 
#
# Total GULP energy -179000.665149 kJ/mol
# GULP energy per Si atom -5593.770786 kJ/mol
# Density = 2.169607 g / cm^3
# Si number density = 21.745562 Si / 1000 Ang^3
#
#
#
# Elastic Constant Matrix: (Units=GPa)
#
#
# Indices 1 2 3 4 5 6 
#
# 1 73.6110 18.1745 26.2046 0.0000 8.4864 0.0000
# 2 18.1745 49.2624 23.9058 0.0000 8.6130 0.0000
# 3 26.2046 23.9058 81.0502 0.0000 3.4078 0.0000
# 4 0.0000 0.0000 0.0000 38.5036 0.0000 4.5831
# 5 8.4864 8.6130 3.4078 0.0000 35.5448 0.0000
# 6 0.0000 0.0000 0.0000 4.5831 0.0000 17.6562
#
#
#
# Elastic Compliance Matrix: (Units=1/GPa)
#
#
# Indices 1 2 3 4 5 6 
#
# 1 0.016217 -0.003540 -0.004089 0.000000 -0.002622 0.000000
# 2 -0.003540 0.025418 -0.006154 0.000000 -0.004724 0.000000
# 3 -0.004089 -0.006154 0.015433 0.000000 0.000988 0.000000
# 4 0.000000 0.000000 0.000000 0.026800 0.000000 -0.006956
# 5 -0.002622 -0.004724 0.000988 0.000000 0.029809 0.000000
# 6 0.000000 0.000000 0.000000 -0.006956 0.000000 0.058443
#
#
# Mechanical properties :
#
#
# Convention : Reuss Voigt Hill
#
# Bulk Modulus (GPa) = 33.89535 37.83259 35.86397
# Shear Modulus (GPa) = 23.86409 27.38350 25.62379
#
# Velocity S-wave (km/s) = 3.31633 3.55247 3.43643
# Velocity P-wave (km/s) = 5.50320 5.85340 5.68100
#
# Compressibility (1/GPa) = 0.02950257
#
# Stress axis : x y z
#
# Youngs Moduli (GPa) = 61.66437 39.34261 64.79430
#
# Poissons Ratio (x) = 0.13929 0.26492
# Poissons Ratio (y) = 0.21831 0.39873
# Poissons Ratio (z) = 0.25212 0.24210
#
# Static dielectric constant tensor:
#      x y z
#    x 1.785710 0.000000 -0.005960 
#    y 0.000000 1.802200 0.000000 
#    z -0.005960 0.000000 1.816020 
# 
# From -- ./inp_files/139547.got.cif
#   From: 2010.05.17/outbox.cif.g08.bks.cpg/sg15_70_cif.got.tgz:139547.got - 2010.06.03 18:47:42.
