data_PCOD9268673
_publ_section_title
;
Structure prediction by ZEFSAII (Michael W. Deem and Ramdas Pophale) SiO2 
 PCOD9268673
Probable space group: C 2/C
;
_chemical_formula_sum "Si O2"
_cell_formula_units_Z 32
_cell_length_a 14.242060
_cell_length_b 16.503316
_cell_length_c 7.325134
_cell_angle_alpha 90.000000
_cell_angle_beta 136.208781
_cell_angle_gamma 90.000000
_cell_volume 1191.478261
_symmetry_space_group_name_H-M "C 2/C"
_symmetry_group_IT_number 15
_symmetry_cell_setting 'monoclinic'
loop_
_space_group_symop_operation_xyz
x,y,z
-x,y,1/2-z
-x,-y,-z
x,-y,1/2+z
1/2+x,1/2+y,z
1/2-x,1/2+y,1/2-z
1/2-x,1/2-y,-z
1/2+x,1/2-y,1/2+z
loop_
_atom_site_type_symbol
_atom_site_label
_atom_site_fract_x
_atom_site_fract_y
_atom_site_fract_z
Si Si1 0.688471 0.726860 0.691694
Si Si2 0.500000 0.942810 0.250000
Si Si3 0.700162 0.935410 0.232103
Si Si4 0.915400 0.185346 0.364955
Si Si5 0.000000 0.044781 0.250000
O O1 0.762818 0.642267 0.838427
O O2 0.793525 0.799684 0.830698
O O3 0.548465 0.736888 0.600089
O O4 0.638632 0.709957 0.412512
O O5 0.603884 0.899055 0.259018
O O6 0.604848 0.999758 0.504388
O O7 0.841153 0.978664 0.494454
O O8 0.973111 0.096410 0.401531
#
# Coordination Sequence:
#
# PCOD9268673 Si02
#       5
#     8   4   8   8   4
#     4   8  13  23  40  64  89 111 138 182 220 258
#     4  10  20  33  46  66  90 123 160 190 224 266
#     4   9  19  32  48  67  92 120 154 191 227 263
#     4   7  12  21  38  64  88 106 138 175 219 266
#     4   8  16  29  46  70  92 117 148 190 228 268
#
# _framework density 26.857392999999998
#
# number of rings (size 3 to 8) (size 9 to 14) (size 15 to 20)
#    0.000    4.500    0.000    0.000    0.000    8.000 
#    0.000    0.000    0.000    6.000    0.000    0.000 
#    0.000    0.000    0.000    0.000    0.000    0.000 
#
# Total GULP energy -89106.162262 kJ/mol
# GULP energy per Si atom -5569.135141 kJ/mol
# Density = 2.679626 g / cm^3
# Si number density = 26.857393 Si / 1000 Ang^3
#
#
#
# Elastic Constant Matrix: (Units=GPa)
#
#
# Indices 1 2 3 4 5 6 
#
# 1 80.4864 17.3834 55.9315 0.0000 32.1734 0.0000
# 2 17.3834 51.6616 29.5369 0.0000 17.1886 0.0000
# 3 55.9315 29.5369 185.6379 0.0000 41.4138 0.0000
# 4 0.0000 0.0000 0.0000 42.0500 0.0000 27.3756
# 5 32.1734 17.1886 41.4138 0.0000 55.7752 0.0000
# 6 0.0000 0.0000 0.0000 27.3756 0.0000 42.7478
#
#
#
# Elastic Compliance Matrix: (Units=1/GPa)
#
#
# Indices 1 2 3 4 5 6 
#
# 1 0.018202 -0.001634 -0.003589 0.000000 -0.007331 0.000000
# 2 -0.001634 0.022594 -0.002109 0.000000 -0.004455 0.000000
# 3 -0.003589 -0.002109 0.007427 0.000000 -0.002795 0.000000
# 4 0.000000 0.000000 0.000000 0.040785 0.000000 -0.026119
# 5 -0.007331 -0.004455 -0.002795 0.000000 0.025606 0.000000
# 6 0.000000 0.000000 0.000000 -0.026119 0.000000 0.040119
#
#
# Mechanical properties :
#
#
# Convention : Reuss Voigt Hill
#
# Bulk Modulus (GPa) = 29.79661 58.16549 43.98105
# Shear Modulus (GPa) = 27.68809 42.44355 35.06582
#
# Velocity S-wave (km/s) = 3.21429 3.97965 3.61727
# Velocity P-wave (km/s) = 4.98939 6.54377 5.81872
#
# Compressibility (1/GPa) = 0.03356086
#
# Stress axis : x y z
#
# Youngs Moduli (GPa) = 54.93992 44.25880 134.64243
#
# Poissons Ratio (x) = 0.07230 0.48317
# Poissons Ratio (y) = 0.08975 0.28396
# Poissons Ratio (z) = 0.19715 0.09334
#
# Static dielectric constant tensor:
#      x y z
#    x 2.251620 0.000000 -0.036940 
#    y 0.000000 2.261850 0.000000 
#    z -0.036940 0.000000 2.070900 
# 
# From -- ./inp_files/107214.got.cif
#   From: 2010.05.17/outbox.cif.g08.bks.cpg/sg15_54_cif.got.tgz:107214.got - 2010.06.03 18:47:42.
