data_PCOD9268521
_publ_section_title
;
Structure prediction by ZEFSAII (Michael W. Deem and Ramdas Pophale) SiO2 
 PCOD9268521
Probable space group: C 2/C
;
_chemical_formula_sum "Si O2"
_cell_formula_units_Z 52
_cell_length_a 19.175959
_cell_length_b 4.904659
_cell_length_c 27.699471
_cell_angle_alpha 90.000000
_cell_angle_beta 132.075579
_cell_angle_gamma 90.000000
_cell_volume 1933.723329
_symmetry_space_group_name_H-M "C 2/C"
_symmetry_group_IT_number 15
_symmetry_cell_setting 'monoclinic'
loop_
_space_group_symop_operation_xyz
x,y,z
-x,y,1/2-z
-x,-y,-z
x,-y,1/2+z
1/2+x,1/2+y,z
1/2-x,1/2+y,1/2-z
1/2-x,1/2-y,-z
1/2+x,1/2-y,1/2+z
loop_
_atom_site_type_symbol
_atom_site_label
_atom_site_fract_x
_atom_site_fract_y
_atom_site_fract_z
Si Si1 0.500000 0.074052 0.250000
Si Si2 0.194352 0.106794 0.856844
Si Si3 0.703289 0.514071 0.252323
Si Si4 0.036325 0.315577 0.559042
Si Si5 0.327366 0.529124 0.553133
Si Si6 0.478389 0.857153 0.843852
Si Si7 0.148088 0.962421 0.036369
O O1 0.405611 0.246716 0.197778
O O2 0.519276 0.959315 0.204216
O O3 0.216334 0.981714 0.815584
O O4 0.185199 0.907654 0.898768
O O5 0.274193 0.316270 0.911828
O O6 0.723238 0.806103 0.238628
O O7 0.601716 0.376405 0.197052
O O8 0.042184 0.472718 0.612312
O O9 0.000000 0.500000 0.500000
O O10 0.953450 0.094670 0.522977
O O11 0.128988 0.196020 0.577194
O O12 0.250000 0.750000 0.500000
O O13 0.421459 0.708639 0.604661
O O14 0.334104 0.335900 0.509181
#
# Coordination Sequence:
#
# PCOD9268521 Si02
#       7
#     4   8   8   8   8   8   8
#     4   8  16  32  60  80 108 160 204 258 310 376
#     4   9  17  34  62  84 118 156 207 257 314 374
#     4  11  24  40  63  93 125 167 213 265 320 381
#     4  10  20  32  53  85 119 152 195 252 315 374
#     4   8  15  32  62  85 115 159 204 255 313 377
#     4   9  18  35  57  87 119 158 208 259 318 378
#     4   9  18  33  55  85 115 155 196 250 307 379
#
# _framework density 26.891127999999998
#
# number of rings (size 3 to 8) (size 9 to 14) (size 15 to 20)
#    0.000    2.769    0.000    0.923    2.154    0.000 
#    0.000    0.000   13.538   26.769    0.000    0.000 
#    0.000    0.000    0.000    0.000    0.000    0.000 
#
# Total GULP energy -145167.903521 kJ/mol
# GULP energy per Si atom -5583.380905 kJ/mol
# Density = 2.682992 g / cm^3
# Si number density = 26.891128 Si / 1000 Ang^3
#
#
#
# Elastic Constant Matrix: (Units=GPa)
#
#
# Indices 1 2 3 4 5 6 
#
# 1 147.1971 15.1531 101.9489 -0.0037 -51.6650 0.0025
# 2 15.1531 43.0187 23.0928 -0.0166 -2.6357 -0.0061
# 3 101.9489 23.0928 184.0195 -0.0013 -24.8157 0.0045
# 4 -0.0037 -0.0166 -0.0013 31.0013 0.0045 15.4273
# 5 -51.6650 -2.6357 -24.8157 0.0045 94.1227 -0.0002
# 6 0.0025 -0.0061 0.0045 15.4273 -0.0002 -40.6683
#
#
#
# Elastic Compliance Matrix: (Units=1/GPa)
#
#
# Indices 1 2 3 4 5 6 
#
# 1 0.013384 -0.000854 -0.006553 0.000000 0.005595 0.000000
# 2 -0.000854 0.024981 -0.002728 0.000013 -0.000488 0.000001
# 3 -0.006553 -0.002728 0.009240 -0.000002 -0.001237 0.000000
# 4 0.000000 0.000013 -0.000002 0.027134 -0.000001 0.010293
# 5 0.005595 -0.000488 -0.001237 -0.000001 0.013356 0.000000
# 6 0.000000 0.000001 0.000000 0.010293 0.000000 -0.020684
#
#
# Mechanical properties :
#
#
# Convention : Reuss Voigt Hill
#
# Bulk Modulus (GPa) = 36.58240 72.73609 54.65924
# Shear Modulus (GPa) = 51.65699 32.49384 42.07541
#
# Velocity S-wave (km/s) = 4.38764 3.47990 3.95987
# Velocity P-wave (km/s) = 6.26913 6.57673 6.42477
#
# Compressibility (1/GPa) = 0.02733555
#
# Stress axis : x y z
#
# Youngs Moduli (GPa) = 74.71531 40.03072 108.22211
#
# Poissons Ratio (x) = 0.03418 0.70921
# Poissons Ratio (y) = 0.06379 0.29520
# Poissons Ratio (z) = 0.48963 0.10919
#
# Static dielectric constant tensor:
#      x y z
#    x 2.091830 -0.000220 -0.043390 
#    y -0.000220 3.291000 0.000040 
#    z -0.043390 0.000040 2.054870 
# 
# From -- ./inp_files/300155.got.cif
#   From: 2010.05.17/outbox.cif.g08.bks.cpg/sg15_151_cif.got.tgz:300155.got - 2010.06.03 18:47:42.
