data_PCOD9268788
_publ_section_title
;
Structure prediction by ZEFSAII (Michael W. Deem and Ramdas Pophale) SiO2 
 PCOD9268788
Probable space group: C 2/C
;
_chemical_formula_sum "Si O2"
_cell_formula_units_Z 64
_cell_length_a 25.414363
_cell_length_b 14.984240
_cell_length_c 9.593351
_cell_angle_alpha 90.000000
_cell_angle_beta 99.799941
_cell_angle_gamma 90.000000
_cell_volume 3599.982587
_symmetry_space_group_name_H-M "C 2/C"
_symmetry_group_IT_number 15
_symmetry_cell_setting 'monoclinic'
loop_
_space_group_symop_operation_xyz
x,y,z
-x,y,1/2-z
-x,-y,-z
x,-y,1/2+z
1/2+x,1/2+y,z
1/2-x,1/2+y,1/2-z
1/2-x,1/2-y,-z
1/2+x,1/2-y,1/2+z
loop_
_atom_site_type_symbol
_atom_site_label
_atom_site_fract_x
_atom_site_fract_y
_atom_site_fract_z
Si Si1 0.045296 0.916015 0.381809
Si Si2 0.709529 0.418607 0.890320
Si Si3 0.784798 0.904150 0.934442
Si Si4 0.858012 0.783737 0.134920
Si Si5 0.338101 0.085825 0.458722
Si Si6 0.636469 0.715085 0.531584
Si Si7 0.843228 0.585793 0.138184
Si Si8 0.969774 0.881855 0.602848
O O1 0.094628 0.851456 0.380981
O O2 0.000000 0.893419 0.250000
O O3 0.017214 0.901742 0.516741
O O4 0.056370 0.021742 0.370613
O O5 0.697835 0.417714 0.719034
O O6 0.773444 0.405920 0.936041
O O7 0.697707 0.512310 0.961512
O O8 0.676787 0.342786 0.956126
O O9 0.720705 0.900124 0.906055
O O10 0.809384 0.817411 0.017948
O O11 0.847706 0.790357 0.297123
O O12 0.869772 0.679892 0.109888
O O13 0.360790 0.181730 0.510933
O O14 0.353180 0.069361 0.305279
O O15 0.356484 0.001814 0.556962
O O16 0.577089 0.676966 0.482756
O O17 0.000000 0.842932 0.750000
#
# Coordination Sequence:
#
# PCOD9268788 Si02
#       8
#     8   8   8   8   8   8   8   8
#     4  10  20  38  56  78 107 142 170 214 272 320
#     4  10  20  33  52  80 112 145 178 217 264 317
#     4  10  20  33  52  80 113 144 179 216 261 319
#     4  11  21  34  57  80 108 142 183 219 266 323
#     4   9  20  37  55  76 109 144 181 222 268 313
#     4  11  21  35  55  81 109 142 178 224 270 317
#     4   9  20  37  54  78 108 145 180 222 266 313
#     4  10  22  36  56  80 111 137 174 217 267 323
#
# _framework density 17.777864000000001
#
# number of rings (size 3 to 8) (size 9 to 14) (size 15 to 20)
#    0.000    2.000    1.250    2.250    1.750    2.000 
#    0.000    0.000    0.000    1.500    0.000    0.000 
#    0.000    0.000    0.000    0.000    0.000    0.000 
#
# Total GULP energy -178542.096989 kJ/mol
# GULP energy per Si atom -5579.440531 kJ/mol
# Density = 1.773740 g / cm^3
# Si number density = 17.777864 Si / 1000 Ang^3
#
#
#
# Elastic Constant Matrix: (Units=GPa)
#
#
# Indices 1 2 3 4 5 6 
#
# 1 26.8326 30.1935 9.4060 0.0000 -4.1582 0.0000
# 2 30.1935 124.2830 31.7071 0.0000 -10.0715 0.0000
# 3 9.4060 31.7071 74.3362 0.0000 -3.0961 0.0000
# 4 0.0000 0.0000 0.0000 28.7876 0.0000 -1.2347
# 5 -4.1582 -10.0715 -3.0961 0.0000 17.1873 0.0000
# 6 0.0000 0.0000 0.0000 -1.2347 0.0000 14.1396
#
#
#
# Elastic Compliance Matrix: (Units=1/GPa)
#
#
# Indices 1 2 3 4 5 6 
#
# 1 0.051874 -0.011837 -0.001291 0.000000 0.005381 0.000000
# 2 -0.011837 0.012111 -0.003518 0.000000 0.003599 0.000000
# 3 -0.001291 -0.003518 0.015131 0.000000 0.000352 0.000000
# 4 0.000000 0.000000 0.000000 0.034868 0.000000 0.003045
# 5 0.005381 0.003599 0.000352 0.000000 0.061657 0.000000
# 6 0.000000 0.000000 0.000000 0.003045 0.000000 0.070989
#
#
# Mechanical properties :
#
#
# Convention : Reuss Voigt Hill
#
# Bulk Modulus (GPa) = 21.82245 40.89610 31.35928
# Shear Modulus (GPa) = 16.93787 22.29925 19.61856
#
# Velocity S-wave (km/s) = 3.09001 3.54549 3.32556
# Velocity P-wave (km/s) = 5.00326 6.30988 5.69417
#
# Compressibility (1/GPa) = 0.04582436
#
# Stress axis : x y z
#
# Youngs Moduli (GPa) = 19.27750 82.56920 66.08958
#
# Poissons Ratio (x) = 0.97737 0.08531
# Poissons Ratio (y) = 0.22819 0.23251
# Poissons Ratio (z) = 0.02488 0.29049
#
# Static dielectric constant tensor:
#      x y z
#    x 1.645740 0.000000 -0.028270 
#    y 0.000000 1.605540 0.000000 
#    z -0.028270 0.000000 1.631520 
# 
# From -- ./inp_files/66235.got.cif
#   From: 2010.05.17/outbox.cif.g08.bks.cpg/sg15_34_cif.got.tgz:66235.got - 2010.06.03 18:47:42.
