data_PCOD9268577
_publ_section_title
;
Structure prediction by ZEFSAII (Michael W. Deem and Ramdas Pophale) SiO2 
 PCOD9268577
Probable space group: C 2/C
;
_chemical_formula_sum "Si O2"
_cell_formula_units_Z 52
_cell_length_a 24.010255
_cell_length_b 13.951109
_cell_length_c 31.728926
_cell_angle_alpha 90.000000
_cell_angle_beta 14.745201
_cell_angle_gamma 90.000000
_cell_volume 2705.106764
_symmetry_space_group_name_H-M "C 2/C"
_symmetry_group_IT_number 15
_symmetry_cell_setting 'monoclinic'
loop_
_space_group_symop_operation_xyz
x,y,z
-x,y,1/2-z
-x,-y,-z
x,-y,1/2+z
1/2+x,1/2+y,z
1/2-x,1/2+y,1/2-z
1/2-x,1/2-y,-z
1/2+x,1/2-y,1/2+z
loop_
_atom_site_type_symbol
_atom_site_label
_atom_site_fract_x
_atom_site_fract_y
_atom_site_fract_z
Si Si1 0.395863 0.907104 0.410287
Si Si2 0.406475 0.384632 0.766620
Si Si3 0.615814 0.728276 0.295899
Si Si4 0.744673 0.539318 0.312326
Si Si5 0.588842 0.261988 0.912187
Si Si6 0.500000 0.800745 0.250000
Si Si7 0.443605 0.951523 0.085182
O O1 0.141073 0.927958 0.607644
O O2 0.475473 0.815110 0.379147
O O3 0.400712 0.870316 0.358265
O O4 0.573720 0.988306 0.290993
O O5 0.421751 0.363220 0.705651
O O6 0.388317 0.279119 0.801096
O O7 0.176871 0.437344 0.938269
O O8 0.556218 0.706701 0.387367
O O9 0.869079 0.756580 0.101278
O O10 0.500000 0.500000 0.500000
O O11 0.740474 0.654595 0.319714
O O12 0.801384 0.508824 0.222833
O O13 0.657544 0.151822 0.853541
O O14 0.500000 0.000000 0.000000
#
# Coordination Sequence:
#
# PCOD9268577 Si02
#       7
#     8   8   8   8   8   4   8
#     4  11  22  33  54  89 124 167 195 254 322 375
#     4  10  22  33  56  86 122 159 207 257 315 380
#     4  10  20  34  59  84 123 164 197 253 320 362
#     4  12  23  37  58  88 128 164 206 253 309 373
#     4  11  21  39  58  89 125 163 207 255 299 377
#     4  10  20  32  56  86 128 160 198 260 326 370
#     4  11  24  41  63  90 121 167 207 254 317 373
#
# _framework density 19.222901
#
# number of rings (size 3 to 8) (size 9 to 14) (size 15 to 20)
#    0.000    1.231    3.077    4.615   10.769    1.231 
#    0.000    0.000    0.000    0.923    0.000    3.231 
#    0.000    0.000    0.000    0.000    0.000    0.000 
#
# Total GULP energy -144844.798373 kJ/mol
# GULP energy per Si atom -5570.953784 kJ/mol
# Density = 1.917915 g / cm^3
# Si number density = 19.222901 Si / 1000 Ang^3
#
#
#
# Elastic Constant Matrix: (Units=GPa)
#
#
# Indices 1 2 3 4 5 6 
#
# 1 67.1996 15.7698 39.7456 -0.0022 7.5219 -0.0050
# 2 15.7698 76.8284 40.4953 0.0027 -17.1312 -0.0148
# 3 39.7456 40.4953 131.2058 -0.0517 -1.9894 -0.0498
# 4 -0.0022 0.0027 -0.0517 27.3405 -0.0290 -0.4124
# 5 7.5219 -17.1312 -1.9894 -0.0290 29.2750 0.0310
# 6 -0.0050 -0.0148 -0.0498 -0.4124 0.0310 30.5126
#
#
#
# Elastic Compliance Matrix: (Units=1/GPa)
#
#
# Indices 1 2 3 4 5 6 
#
# 1 0.019338 -0.002845 -0.005086 -0.000015 -0.006979 0.000000
# 2 -0.002845 0.018600 -0.004708 0.000001 0.011295 -0.000011
# 3 -0.005086 -0.004708 0.010604 0.000020 -0.000728 0.000015
# 4 -0.000015 0.000001 0.000020 0.036583 0.000041 0.000494
# 5 -0.006979 0.011295 -0.000728 0.000041 0.042512 -0.000040
# 6 0.000000 -0.000011 0.000015 0.000494 -0.000040 0.032780
#
#
# Mechanical properties :
#
#
# Convention : Reuss Voigt Hill
#
# Bulk Modulus (GPa) = 42.98208 51.91724 47.44966
# Shear Modulus (GPa) = 25.84657 29.37385 27.61021
#
# Velocity S-wave (km/s) = 3.67082 3.91329 3.79399
# Velocity P-wave (km/s) = 6.35413 6.89094 6.62797
#
# Compressibility (1/GPa) = 0.02326551
#
# Stress axis : x y z
#
# Youngs Moduli (GPa) = 51.71224 53.76357 94.30274
#
# Poissons Ratio (x) = 0.15295 0.47959
# Poissons Ratio (y) = 0.14711 0.44394
# Poissons Ratio (z) = 0.26299 0.25310
#
# Static dielectric constant tensor:
#      x y z
#    x 1.747970 -0.000010 0.025520 
#    y -0.000010 1.699870 0.000120 
#    z 0.025520 0.000120 1.764670 
# 
# From -- ./inp_files/318851.got.cif
#   From: 2010.05.17/outbox.cif.g08.bks.cpg/sg15_160_cif.got.tgz:318851.got - 2010.06.03 18:47:42.
