data_PCOD9268937
_publ_section_title
;
Structure prediction by ZEFSAII (Michael W. Deem and Ramdas Pophale) SiO2 
 PCOD9268937
Probable space group: C 2/C
;
_chemical_formula_sum "Si O2"
_cell_formula_units_Z 56
_cell_length_a 32.381308
_cell_length_b 10.267222
_cell_length_c 9.567714
_cell_angle_alpha 90.000000
_cell_angle_beta 56.310642
_cell_angle_gamma 90.000000
_cell_volume 2646.724203
_symmetry_space_group_name_H-M "C 2/C"
_symmetry_group_IT_number 15
_symmetry_cell_setting 'monoclinic'
loop_
_space_group_symop_operation_xyz
x,y,z
-x,y,1/2-z
-x,-y,-z
x,-y,1/2+z
1/2+x,1/2+y,z
1/2-x,1/2+y,1/2-z
1/2-x,1/2-y,-z
1/2+x,1/2-y,1/2+z
loop_
_atom_site_type_symbol
_atom_site_label
_atom_site_fract_x
_atom_site_fract_y
_atom_site_fract_z
Si Si1 0.685650 0.667299 0.365182
Si Si2 0.617965 0.882000 0.578522
Si Si3 0.885426 0.691786 0.908446
Si Si4 0.701921 0.491344 0.098809
Si Si5 0.943252 0.658371 0.063839
Si Si6 0.279803 0.318981 0.169854
Si Si7 0.951303 0.655472 0.530531
O O1 0.661797 0.808086 0.420519
O O2 0.670117 0.583452 0.260957
O O3 0.675248 0.592380 0.528924
O O4 0.744312 0.694305 0.241114
O O5 0.607070 0.828429 0.752555
O O6 0.568023 0.838520 0.590521
O O7 0.626013 0.036250 0.561567
O O8 0.929698 0.709926 0.937318
O O9 0.836568 0.773635 0.036932
O O10 0.909992 0.713026 0.711761
O O11 0.725484 0.395032 0.171655
O O12 0.733481 0.588309 0.938237
O O13 0.950523 0.501543 0.052743
O O14 0.994824 0.708838 0.030066
#
# Coordination Sequence:
#
# PCOD9268937 Si02
#       7
#     8   8   8   8   8   8   8
#     4  11  23  41  59  84 116 153 198 240 279 342
#     4  10  20  33  56  87 115 149 184 234 288 342
#     4  10  20  33  56  87 115 149 184 234 288 342
#     4  10  24  40  58  80 109 162 189 232 292 322
#     4   9  17  31  51  82 119 147 178 226 293 355
#     4  11  23  41  59  84 116 153 198 240 279 342
#     4   9  17  31  51  82 119 147 178 226 293 355
#
# _framework density 21.158228999999999
#
# number of rings (size 3 to 8) (size 9 to 14) (size 15 to 20)
#    0.000    2.000    0.000    3.429    4.000    3.429 
#    5.143    0.000    0.000    0.000    0.000   70.000 
#    0.000    0.000    0.000    0.000    0.000    0.000 
#
# Total GULP energy -155977.895110 kJ/mol
# GULP energy per Si atom -5570.639111 kJ/mol
# Density = 2.111007 g / cm^3
# Si number density = 21.158229 Si / 1000 Ang^3
#
#
#
# Elastic Constant Matrix: (Units=GPa)
#
#
# Indices 1 2 3 4 5 6 
#
# 1 44.5613 22.5329 30.9480 0.0000 -4.2603 0.0000
# 2 22.5329 49.7507 25.9905 0.0000 9.4245 0.0000
# 3 30.9480 25.9905 90.3230 0.0000 24.1158 0.0000
# 4 0.0000 0.0000 0.0000 30.9775 0.0000 2.9486
# 5 -4.2603 9.4245 24.1158 0.0000 33.9530 0.0000
# 6 0.0000 0.0000 0.0000 2.9486 0.0000 14.2019
#
#
#
# Elastic Compliance Matrix: (Units=1/GPa)
#
#
# Indices 1 2 3 4 5 6 
#
# 1 0.043333 -0.015210 -0.016104 0.000000 0.021097 0.000000
# 2 -0.015210 0.029121 -0.000617 0.000000 -0.009553 0.000000
# 3 -0.016104 -0.000617 0.021300 0.000000 -0.016978 0.000000
# 4 0.000000 0.000000 0.000000 0.032932 0.000000 -0.006837
# 5 0.021097 -0.009553 -0.016978 0.000000 0.046810 0.000000
# 6 0.000000 0.000000 0.000000 -0.006837 0.000000 0.071833
#
#
# Mechanical properties :
#
#
# Convention : Reuss Voigt Hill
#
# Bulk Modulus (GPa) = 33.45387 38.17531 35.81459
# Shear Modulus (GPa) = 15.66631 22.83740 19.25186
#
# Velocity S-wave (km/s) = 2.72405 3.28893 3.01973
# Velocity P-wave (km/s) = 5.07341 5.70129 5.39649
#
# Compressibility (1/GPa) = 0.02989191
#
# Stress axis : x y z
#
# Youngs Moduli (GPa) = 23.07697 34.33904 46.94865
#
# Poissons Ratio (x) = 0.52230 0.75605
# Poissons Ratio (y) = 0.35100 0.02899
# Poissons Ratio (z) = 0.37163 0.02120
#
# Static dielectric constant tensor:
#      x y z
#    x 1.779240 0.000000 0.007240 
#    y 0.000000 1.764290 0.000000 
#    z 0.007240 0.000000 1.774880 
# 
# From -- ./inp_files/69274.got.cif
#   From: 2010.05.17/outbox.cif.g08.bks.cpg/sg15_35_cif.got.tgz:69274.got - 2010.06.03 18:47:42.
