data_PCOD9268451
_publ_section_title
;
Structure prediction by ZEFSAII (Michael W. Deem and Ramdas Pophale) SiO2 
 PCOD9268451
Probable space group: C 2/C
;
_chemical_formula_sum "Si O2"
_cell_formula_units_Z 56
_cell_length_a 26.487485
_cell_length_b 11.786756
_cell_length_c 8.686941
_cell_angle_alpha 90.000000
_cell_angle_beta 112.155099
_cell_angle_gamma 90.000000
_cell_volume 2511.833867
_symmetry_space_group_name_H-M "C 2/C"
_symmetry_group_IT_number 15
_symmetry_cell_setting 'monoclinic'
loop_
_space_group_symop_operation_xyz
x,y,z
-x,y,1/2-z
-x,-y,-z
x,-y,1/2+z
1/2+x,1/2+y,z
1/2-x,1/2+y,1/2-z
1/2-x,1/2-y,-z
1/2+x,1/2-y,1/2+z
loop_
_atom_site_type_symbol
_atom_site_label
_atom_site_fract_x
_atom_site_fract_y
_atom_site_fract_z
Si Si1 0.450491 0.755375 0.403466
Si Si2 0.060283 0.047314 0.892173
Si Si3 0.153721 0.319547 0.115105
Si Si4 0.569213 0.720222 0.471367
Si Si5 0.212320 0.847074 0.886375
Si Si6 0.760418 0.045721 0.778489
Si Si7 0.652515 0.316622 0.310615
O O1 0.439197 0.629428 0.459043
O O2 0.410720 0.840719 0.448404
O O3 0.515399 0.764810 0.496315
O O4 0.436681 0.765968 0.207746
O O5 0.107272 0.097155 0.833438
O O6 0.000000 0.057035 0.750000
O O7 0.068141 0.916827 0.947478
O O8 0.162974 0.219335 0.252230
O O9 0.198076 0.413190 0.209309
O O10 0.166696 0.269938 0.962550
O O11 0.622336 0.744156 0.632741
O O12 0.237612 0.917561 0.775792
O O13 0.250000 0.750000 0.000000
O O14 0.208422 0.932312 0.025243
O O15 0.795287 0.120393 0.698301
#
# Coordination Sequence:
#
# PCOD9268451 Si02
#       7
#     8   8   8   8   8   8   8
#     4  10  20  32  50  73 122 161 205 257 301 380
#     4  11  19  31  45  75 117 164 208 251 311 381
#     4  10  23  40  56  85 123 165 209 251 301 374
#     4  11  20  30  48  82 114 166 209 252 319 367
#     4  10  23  42  64  88 121 162 213 255 308 372
#     4  11  23  40  61  87 121 163 204 259 311 364
#     4  11  23  31  55  79 123 166 209 249 310 382
#
# _framework density 22.294467000000001
#
# number of rings (size 3 to 8) (size 9 to 14) (size 15 to 20)
#    0.000    1.429    2.857    3.429    8.000    1.143 
#    0.000    0.000    0.000    0.000    0.000    0.000 
#    0.000   96.000    0.286    0.000    0.000    0.000 
#
# Total GULP energy -156400.845165 kJ/mol
# GULP energy per Si atom -5585.744470 kJ/mol
# Density = 2.224372 g / cm^3
# Si number density = 22.294467 Si / 1000 Ang^3
#
#
#
# Elastic Constant Matrix: (Units=GPa)
#
#
# Indices 1 2 3 4 5 6 
#
# 1 78.5060 13.0886 -16.4043 0.0000 8.3782 0.0000
# 2 13.0886 14.9685 -5.8364 0.0000 2.8599 0.0000
# 3 -16.4043 -5.8364 72.7292 0.0000 -0.4029 0.0000
# 4 0.0000 0.0000 0.0000 23.9470 0.0000 3.1364
# 5 8.3782 2.8599 -0.4029 0.0000 31.0610 0.0000
# 6 0.0000 0.0000 0.0000 3.1364 0.0000 10.1871
#
#
#
# Elastic Compliance Matrix: (Units=1/GPa)
#
#
# Indices 1 2 3 4 5 6 
#
# 1 0.015608 -0.012074 0.002534 0.000000 -0.003065 0.000000
# 2 -0.012074 0.079551 0.003638 0.000000 -0.004021 0.000000
# 3 0.002534 0.003638 0.014609 0.000000 -0.000829 0.000000
# 4 0.000000 0.000000 0.000000 0.043514 0.000000 -0.013397
# 5 -0.003065 -0.004021 -0.000829 0.000000 0.033381 0.000000
# 6 0.000000 0.000000 0.000000 -0.013397 0.000000 0.102288
#
#
# Mechanical properties :
#
#
# Convention : Reuss Voigt Hill
#
# Bulk Modulus (GPa) = 10.20762 16.43327 13.32045
# Shear Modulus (GPa) = 14.99669 24.72939 19.86304
#
# Velocity S-wave (km/s) = 2.59639 3.33410 2.98810
# Velocity P-wave (km/s) = 3.68467 4.71261 4.22998
#
# Compressibility (1/GPa) = 0.09796600
#
# Stress axis : x y z
#
# Youngs Moduli (GPa) = 64.07162 12.57052 68.45244
#
# Poissons Ratio (x) = 0.15177 -0.17349
# Poissons Ratio (y) = 0.77357 -0.24906
# Poissons Ratio (z) = -0.16239 -0.04574
#
# Static dielectric constant tensor:
#      x y z
#    x 1.887560 0.000000 -0.040640 
#    y 0.000000 1.826330 0.000000 
#    z -0.040640 0.000000 1.864470 
# 
# From -- ./inp_files/65528.got.cif
#   From: 2010.05.17/outbox.cif.g08.bks.cpg/sg15_33_cif.got.tgz:65528.got - 2010.06.03 18:47:42.
