data_PCOD9268651
_publ_section_title
;
Structure prediction by ZEFSAII (Michael W. Deem and Ramdas Pophale) SiO2 
 PCOD9268651
Probable space group: C 2/C
;
_chemical_formula_sum "Si O2"
_cell_formula_units_Z 52
_cell_length_a 13.205775
_cell_length_b 9.028590
_cell_length_c 28.907373
_cell_angle_alpha 90.000000
_cell_angle_beta 40.333822
_cell_angle_gamma 90.000000
_cell_volume 2230.785002
_symmetry_space_group_name_H-M "C 2/C"
_symmetry_group_IT_number 15
_symmetry_cell_setting 'monoclinic'
loop_
_space_group_symop_operation_xyz
x,y,z
-x,y,1/2-z
-x,-y,-z
x,-y,1/2+z
1/2+x,1/2+y,z
1/2-x,1/2+y,1/2-z
1/2-x,1/2-y,-z
1/2+x,1/2-y,1/2+z
loop_
_atom_site_type_symbol
_atom_site_label
_atom_site_fract_x
_atom_site_fract_y
_atom_site_fract_z
Si Si1 0.216061 0.143081 0.644077
Si Si2 0.839759 0.948324 0.438066
Si Si3 0.500000 0.101153 0.250000
Si Si4 0.639324 0.995727 0.794036
Si Si5 0.945492 0.178420 0.168400
Si Si6 0.500000 0.599114 0.250000
Si Si7 0.500000 0.000000 0.000000
Si Si8 0.006241 0.325562 0.571316
O O1 0.132171 0.118816 0.622894
O O2 0.149694 0.294222 0.687377
O O3 0.146597 0.012495 0.699573
O O4 0.394450 0.118270 0.568713
O O5 0.913571 0.832790 0.448672
O O6 0.649256 0.942887 0.507780
O O7 0.918484 0.108112 0.410433
O O8 0.466507 0.014268 0.214992
O O9 0.622427 0.161245 0.819682
O O10 0.808847 0.944623 0.717599
O O11 0.574612 0.878301 0.853995
O O12 0.002866 0.186824 0.201565
O O13 0.409789 0.142117 0.058977
#
# Coordination Sequence:
#
# PCOD9268651 Si02
#       8
#     8   8   4   8   8   4   4   8
#     4   9  18  34  62  91 124 168 215 257 322 387
#     4   9  19  40  61  89 126 168 210 260 323 389
#     4  11  23  40  62  92 136 174 212 276 332 386
#     4  12  25  39  65  92 130 167 222 269 330 387
#     4  11  24  39  62  97 126 170 217 274 319 393
#     4   9  19  38  62  86 128 166 210 260 324 384
#     4  10  20  32  62 100 128 166 220 262 316 392
#     4  10  20  37  64  93 123 174 210 265 322 390
#
# _framework density 23.310179999999999
#
# number of rings (size 3 to 8) (size 9 to 14) (size 15 to 20)
#    0.000    1.846    1.538    2.308    6.462    0.615 
#    0.000    1.538    0.000    1.846    0.000    0.000 
#    0.000    0.000    0.000    0.000    0.000    0.000 
#
# Total GULP energy -144734.905486 kJ/mol
# GULP energy per Si atom -5566.727134 kJ/mol
# Density = 2.325713 g / cm^3
# Si number density = 23.310180 Si / 1000 Ang^3
#
#
#
# Elastic Constant Matrix: (Units=GPa)
#
#
# Indices 1 2 3 4 5 6 
#
# 1 53.5202 19.2195 8.4340 0.0000 6.6554 -0.0001
# 2 19.2195 99.5247 18.2538 0.0000 -20.8154 -0.0001
# 3 8.4340 18.2538 107.1749 0.0000 -18.8463 0.0000
# 4 0.0000 0.0000 0.0000 18.6475 0.0000 1.8649
# 5 6.6554 -20.8154 -18.8463 0.0000 38.3945 0.0000
# 6 -0.0001 -0.0001 0.0000 1.8649 0.0000 26.7692
#
#
#
# Elastic Compliance Matrix: (Units=1/GPa)
#
#
# Indices 1 2 3 4 5 6 
#
# 1 0.021974 -0.005487 -0.002175 0.000000 -0.007851 0.000000
# 2 -0.005487 0.012788 -0.000394 0.000000 0.007691 0.000000
# 3 -0.002175 -0.000394 0.010504 0.000000 0.005320 0.000000
# 4 0.000000 0.000000 0.000000 0.054003 0.000000 -0.003762
# 5 -0.007851 0.007691 0.005320 0.000000 0.034187 0.000000
# 6 0.000000 0.000000 0.000000 -0.003762 0.000000 0.037618
#
#
# Mechanical properties :
#
#
# Convention : Reuss Voigt Hill
#
# Bulk Modulus (GPa) = 34.29994 39.11491 36.70742
# Shear Modulus (GPa) = 25.39308 31.04976 28.22142
#
# Velocity S-wave (km/s) = 3.30412 3.65365 3.48327
# Velocity P-wave (km/s) = 5.41321 5.88349 5.65324
#
# Compressibility (1/GPa) = 0.02915457
#
# Stress axis : x y z
#
# Youngs Moduli (GPa) = 45.50851 78.19830 95.19954
#
# Poissons Ratio (x) = 0.42904 0.20709
# Poissons Ratio (y) = 0.24968 0.03750
# Poissons Ratio (z) = 0.09900 0.03080
#
# Static dielectric constant tensor:
#      x y z
#    x 1.388750 0.000000 -0.118130 
#    y 0.000000 1.835010 0.000000 
#    z -0.118130 0.000000 1.842110 
# 
# From -- ./inp_files/313106.got.cif
#   From: 2010.05.17/outbox.cif.g08.bks.cpg/sg15_157_cif.got.tgz:313106.got - 2010.06.03 18:47:42.
