data_PCOD9268726
_publ_section_title
;
Structure prediction by ZEFSAII (Michael W. Deem and Ramdas Pophale) SiO2 
 PCOD9268726
Probable space group: C 2/C
;
_chemical_formula_sum "Si O2"
_cell_formula_units_Z 64
_cell_length_a 25.502954
_cell_length_b 10.947065
_cell_length_c 21.802241
_cell_angle_alpha 90.000000
_cell_angle_beta 150.055701
_cell_angle_gamma 90.000000
_cell_volume 3038.275980
_symmetry_space_group_name_H-M "C 2/C"
_symmetry_group_IT_number 15
_symmetry_cell_setting 'monoclinic'
loop_
_space_group_symop_operation_xyz
x,y,z
-x,y,1/2-z
-x,-y,-z
x,-y,1/2+z
1/2+x,1/2+y,z
1/2-x,1/2+y,1/2-z
1/2-x,1/2-y,-z
1/2+x,1/2-y,1/2+z
loop_
_atom_site_type_symbol
_atom_site_label
_atom_site_fract_x
_atom_site_fract_y
_atom_site_fract_z
Si Si1 0.747674 0.388548 0.971630
Si Si2 0.168999 0.059236 0.573714
Si Si3 0.072774 0.604650 0.764627
Si Si4 0.612363 0.034456 0.190142
Si Si5 0.046126 0.107477 0.202189
Si Si6 0.516923 0.185320 0.524254
Si Si7 0.323405 0.171449 0.415014
Si Si8 0.363444 0.570710 0.339721
O O1 0.630515 0.436918 0.838758
O O2 0.808619 0.384774 0.967640
O O3 0.750000 0.250000 0.000000
O O4 0.816824 0.444894 0.095367
O O5 0.264510 0.963149 0.668441
O O6 0.223821 0.192032 0.627052
O O7 0.076327 0.070166 0.428920
O O8 0.122400 0.032816 0.594826
O O9 0.050334 0.514214 0.686601
O O10 0.063406 0.745536 0.730454
O O11 0.000000 0.602882 0.750000
O O12 0.556624 0.153450 0.107613
O O13 0.590534 0.929071 0.116732
O O14 0.089918 0.060091 0.181388
O O15 0.435993 0.197094 0.499225
O O16 0.584778 0.305095 0.583018
O O17 0.258074 0.094993 0.299523
#
# Coordination Sequence:
#
# PCOD9268726 Si02
#       8
#     8   8   8   8   8   8   8   8
#     4   9  19  33  53  78 116 156 183 229 292 338
#     4  12  20  33  56  84 116 155 189 233 288 347
#     4  11  20  37  58  84 112 155 191 237 291 346
#     4  11  22  35  56  83 110 152 194 235 289 355
#     4  10  20  33  50  82 121 148 187 233 282 350
#     4  11  21  37  53  78 118 151 185 238 293 342
#     4  11  20  35  53  82 121 149 190 236 282 353
#     4  11  21  35  53  82 117 158 185 233 293 342
#
# _framework density 21.064578000000001
#
# number of rings (size 3 to 8) (size 9 to 14) (size 15 to 20)
#    0.000    1.250    5.000    3.375    0.000    1.000 
#    0.000    0.000    0.000    0.000    0.000    7.875 
#    0.000    0.000    0.000    0.000    0.000    0.000 
#
# Total GULP energy -178251.260773 kJ/mol
# GULP energy per Si atom -5570.351899 kJ/mol
# Density = 2.101663 g / cm^3
# Si number density = 21.064578 Si / 1000 Ang^3
#
#
#
# Elastic Constant Matrix: (Units=GPa)
#
#
# Indices 1 2 3 4 5 6 
#
# 1 88.4967 11.8917 31.9163 0.0000 -13.8609 0.0000
# 2 11.8917 20.7993 25.2876 0.0000 -10.2830 0.0000
# 3 31.9163 25.2876 175.9814 0.0000 -12.7647 0.0000
# 4 0.0000 0.0000 0.0000 33.7505 0.0000 -2.1186
# 5 -13.8609 -10.2830 -12.7647 0.0000 37.3973 0.0000
# 6 0.0000 0.0000 0.0000 -2.1186 0.0000 26.1059
#
#
#
# Elastic Compliance Matrix: (Units=1/GPa)
#
#
# Indices 1 2 3 4 5 6 
#
# 1 0.012879 -0.003922 -0.001542 0.000000 0.003169 0.000000
# 2 -0.003922 0.066947 -0.007874 0.000000 0.014267 0.000000
# 3 -0.001542 -0.007874 0.007070 0.000000 -0.000324 0.000000
# 4 0.000000 0.000000 0.000000 0.029781 0.000000 0.002417
# 5 0.003169 0.014267 -0.000324 0.000000 0.031727 0.000000
# 6 0.000000 0.000000 0.000000 0.002417 0.000000 0.038502
#
#
# Mechanical properties :
#
#
# Convention : Reuss Voigt Hill
#
# Bulk Modulus (GPa) = 16.60558 47.05208 31.82883
# Shear Modulus (GPa) = 21.39899 33.86286 27.63093
#
# Velocity S-wave (km/s) = 3.19074 4.01381 3.62570
# Velocity P-wave (km/s) = 4.63408 6.62317 5.71582
#
# Compressibility (1/GPa) = 0.06022074
#
# Stress axis : x y z
#
# Youngs Moduli (GPa) = 77.64316 14.93715 141.44009
#
# Poissons Ratio (x) = 0.05858 0.21817
# Poissons Ratio (y) = 0.30449 1.11368
# Poissons Ratio (z) = 0.11976 0.11761
#
# Static dielectric constant tensor:
#      x y z
#    x 1.856840 0.000000 0.100330 
#    y 0.000000 1.733670 0.000000 
#    z 0.100330 0.000000 1.911130 
# 
# From -- ./inp_files/257516.got.cif
#   From: 2010.05.17/outbox.cif.g08.bks.cpg/sg15_129_cif.got.tgz:257516.got - 2010.06.03 18:47:42.
