data_PCOD9268548
_publ_section_title
;
Structure prediction by ZEFSAII (Michael W. Deem and Ramdas Pophale) SiO2 
 PCOD9268548
Probable space group: C 2/C
;
_chemical_formula_sum "Si O2"
_cell_formula_units_Z 64
_cell_length_a 17.884728
_cell_length_b 29.627233
_cell_length_c 9.508101
_cell_angle_alpha 90.000000
_cell_angle_beta 42.721340
_cell_angle_gamma 90.000000
_cell_volume 3418.018458
_symmetry_space_group_name_H-M "C 2/C"
_symmetry_group_IT_number 15
_symmetry_cell_setting 'monoclinic'
loop_
_space_group_symop_operation_xyz
x,y,z
-x,y,1/2-z
-x,-y,-z
x,-y,1/2+z
1/2+x,1/2+y,z
1/2-x,1/2+y,1/2-z
1/2-x,1/2-y,-z
1/2+x,1/2-y,1/2+z
loop_
_atom_site_type_symbol
_atom_site_label
_atom_site_fract_x
_atom_site_fract_y
_atom_site_fract_z
Si Si1 0.793321 0.602539 0.581624
Si Si2 0.372382 0.633044 0.452571
Si Si3 0.286546 0.899454 0.574531
Si Si4 0.085314 0.307012 0.527001
Si Si5 0.210299 0.765515 0.400684
Si Si6 0.087406 0.446139 0.335904
Si Si7 0.170615 0.543815 0.242379
Si Si8 0.425906 0.179881 0.991030
O O1 0.852563 0.651098 0.484672
O O2 0.872588 0.573881 0.572766
O O3 0.790299 0.575119 0.440640
O O4 0.684320 0.610729 0.829562
O O5 0.500000 0.623402 0.250000
O O6 0.307376 0.616892 0.402660
O O7 0.351427 0.686646 0.498775
O O8 0.381720 0.914344 0.335165
O O9 0.260616 0.940671 0.715863
O O10 0.334226 0.858931 0.603627
O O11 0.178897 0.274784 0.339191
O O12 0.000000 0.284306 0.750000
O O13 0.010010 0.325126 0.503379
O O14 0.250000 0.750000 0.500000
O O15 0.135555 0.728023 0.429614
O O16 0.160025 0.491560 0.213368
O O17 0.956626 0.449939 0.531238
O O18 0.500000 0.178654 0.750000
#
# Coordination Sequence:
#
# PCOD9268548 Si02
#       8
#     8   8   8   8   8   8   8   8
#     4  10  20  37  56  81 118 153 189 230 286 344
#     4  10  22  40  61  79 111 149 195 245 285 332
#     4  11  21  34  56  85 111 147 196 229 276 345
#     4  11  23  37  55  84 120 152 182 228 288 341
#     4  11  21  37  59  87 108 143 195 233 283 333
#     4  10  20  32  54  89 121 153 183 222 288 346
#     4  11  20  33  56  86 123 152 180 231 287 347
#     4  12  20  33  60  81 109 148 190 233 272 337
#
# _framework density 18.724299999999999
#
# number of rings (size 3 to 8) (size 9 to 14) (size 15 to 20)
#    0.000    1.250    2.500    6.375    0.000    2.500 
#    0.000    0.625    0.000   12.000    0.000    0.000 
#    0.000    0.000    0.000    0.000    0.000    0.000 
#
# Total GULP energy -178563.722478 kJ/mol
# GULP energy per Si atom -5580.116327 kJ/mol
# Density = 1.868168 g / cm^3
# Si number density = 18.724300 Si / 1000 Ang^3
#
#
#
# Elastic Constant Matrix: (Units=GPa)
#
#
# Indices 1 2 3 4 5 6 
#
# 1 35.7413 14.0880 25.0962 0.0000 -3.2346 0.0000
# 2 14.0880 79.5944 19.5820 0.0000 -5.3099 0.0000
# 3 25.0962 19.5820 74.9032 0.0000 -4.8267 0.0000
# 4 0.0000 0.0000 0.0000 15.7221 0.0000 0.4795
# 5 -3.2346 -5.3099 -4.8267 0.0000 32.5558 0.0000
# 6 0.0000 0.0000 0.0000 0.4795 0.0000 20.3381
#
#
#
# Elastic Compliance Matrix: (Units=1/GPa)
#
#
# Indices 1 2 3 4 5 6 
#
# 1 0.037698 -0.003733 -0.011563 0.000000 0.001422 0.000000
# 2 -0.003733 0.013889 -0.002280 0.000000 0.001556 0.000000
# 3 -0.011563 -0.002280 0.017894 0.000000 0.001132 0.000000
# 4 0.000000 0.000000 0.000000 0.063651 0.000000 -0.001501
# 5 0.001422 0.001556 0.001132 0.000000 0.031280 0.000000
# 6 0.000000 0.000000 0.000000 -0.001501 0.000000 0.049204
#
#
# Mechanical properties :
#
#
# Convention : Reuss Voigt Hill
#
# Bulk Modulus (GPa) = 29.12988 34.19681 31.66335
# Shear Modulus (GPa) = 19.21522 22.48806 20.85164
#
# Velocity S-wave (km/s) = 3.20694 3.46932 3.34071
# Velocity P-wave (km/s) = 5.41328 5.86099 5.64158
#
# Compressibility (1/GPa) = 0.03432901
#
# Stress axis : x y z
#
# Youngs Moduli (GPa) = 26.52656 71.99855 55.88527
#
# Poissons Ratio (x) = 0.26875 0.64621
# Poissons Ratio (y) = 0.09902 0.12742
# Poissons Ratio (z) = 0.30673 0.16416
#
# Static dielectric constant tensor:
#      x y z
#    x 1.676060 0.000000 0.029370 
#    y 0.000000 1.697960 0.000000 
#    z 0.029370 0.000000 1.644770 
# 
# From -- ./inp_files/52803.got.cif
#   From: 2010.05.17/outbox.cif.g08.bks.cpg/sg15_27_cif.got.tgz:52803.got - 2010.06.03 18:47:42.
