data_PCOD9268942
_publ_section_title
;
Structure prediction by ZEFSAII (Michael W. Deem and Ramdas Pophale) SiO2 
 PCOD9268942
Probable space group: C 2/C
;
_chemical_formula_sum "Si O2"
_cell_formula_units_Z 48
_cell_length_a 23.023223
_cell_length_b 24.324886
_cell_length_c 9.433847
_cell_angle_alpha 90.000000
_cell_angle_beta 155.001274
_cell_angle_gamma 90.000000
_cell_volume 2232.715112
_symmetry_space_group_name_H-M "C 2/C"
_symmetry_group_IT_number 15
_symmetry_cell_setting 'monoclinic'
loop_
_space_group_symop_operation_xyz
x,y,z
-x,y,1/2-z
-x,-y,-z
x,-y,1/2+z
1/2+x,1/2+y,z
1/2-x,1/2+y,1/2-z
1/2-x,1/2-y,-z
1/2+x,1/2-y,1/2+z
loop_
_atom_site_type_symbol
_atom_site_label
_atom_site_fract_x
_atom_site_fract_y
_atom_site_fract_z
Si Si1 0.850454 0.479093 0.122201
Si Si2 0.690300 0.168418 0.484598
Si Si3 0.204950 0.193391 0.329342
Si Si4 0.453681 0.129839 0.788460
Si Si5 0.830875 0.572882 0.873907
Si Si6 0.900692 0.791803 0.219392
O O1 0.884105 0.427748 0.093772
O O2 0.787596 0.452883 0.126359
O O3 0.000000 0.500000 0.500000
O O4 0.783233 0.528230 0.886293
O O5 0.719984 0.133759 0.692021
O O6 0.819955 0.187102 0.678376
O O7 0.602254 0.224982 0.298414
O O8 0.594050 0.126265 0.185333
O O9 0.250000 0.250000 0.500000
O O10 0.340136 0.156724 0.636581
O O11 0.178061 0.193317 0.099783
O O12 0.053087 0.183279 0.054201
O O13 0.500000 0.161817 0.750000
O O14 0.000000 0.574967 0.250000
#
# Coordination Sequence:
#
# PCOD9268942 Si02
#       6
#     8   8   8   8   8   8
#     4  10  20  33  56  91 123 144 195 252 303 344
#     4  11  21  37  58  82 119 157 200 240 300 347
#     4  11  23  36  58  82 120 156 201 244 299 356
#     4  12  21  35  58  89 117 155 197 244 299 356
#     4  10  20  33  56  89 118 156 185 252 303 349
#     4  10  24  39  55  84 122 161 196 250 290 360
#
# _framework density 21.498487999999998
#
# number of rings (size 3 to 8) (size 9 to 14) (size 15 to 20)
#    0.000    1.333    6.667    1.500    4.667    0.000 
#    0.000    0.000    0.000    1.000    0.000    0.000 
#    0.000    0.000    0.000    0.000    0.000    0.000 
#
# Total GULP energy -133697.006983 kJ/mol
# GULP energy per Si atom -5570.708624 kJ/mol
# Density = 2.144956 g / cm^3
# Si number density = 21.498488 Si / 1000 Ang^3
#
#
#
# Elastic Constant Matrix: (Units=GPa)
#
#
# Indices 1 2 3 4 5 6 
#
# 1 141.8032 46.2620 22.6800 0.0000 10.1568 0.0000
# 2 46.2620 102.2695 2.7885 0.0000 20.2269 0.0000
# 3 22.6800 2.7885 44.6647 0.0000 13.3770 0.0000
# 4 0.0000 0.0000 0.0000 1.6266 0.0000 0.9608
# 5 10.1568 20.2269 13.3770 0.0000 22.9014 0.0000
# 6 0.0000 0.0000 0.0000 0.9608 0.0000 41.5731
#
#
#
# Elastic Compliance Matrix: (Units=1/GPa)
#
#
# Indices 1 2 3 4 5 6 
#
# 1 0.009188 -0.004627 -0.005309 0.000000 0.003113 0.000000
# 2 -0.004627 0.014497 0.005654 0.000000 -0.014054 0.000000
# 3 -0.005309 0.005654 0.030934 0.000000 -0.020708 0.000000
# 4 0.000000 0.000000 0.000000 0.623307 0.000000 -0.014406
# 5 0.003113 -0.014054 -0.020708 0.000000 0.066793 0.000000
# 6 0.000000 0.000000 0.000000 -0.014406 0.000000 0.024387
#
#
# Mechanical properties :
#
#
# Convention : Reuss Voigt Hill
#
# Bulk Modulus (GPa) = 21.71392 48.02204 34.86798
# Shear Modulus (GPa) = 6.30501 27.68735 16.99618
#
# Velocity S-wave (km/s) = 1.71439 3.59259 2.81477
# Velocity P-wave (km/s) = 3.74713 6.29244 5.17860
#
# Compressibility (1/GPa) = 0.04605341
#
# Stress axis : x y z
#
# Youngs Moduli (GPa) = 108.84180 68.98212 32.32730
#
# Poissons Ratio (x) = 0.31918 0.17162
# Poissons Ratio (y) = 0.50361 -0.18276
# Poissons Ratio (z) = 0.57781 -0.38999
#
# Static dielectric constant tensor:
#      x y z
#    x 1.910900 0.000000 -0.035860 
#    y 0.000000 1.888570 0.000000 
#    z -0.035860 0.000000 1.779950 
# 
# From -- ./inp_files/124485.got.cif
#   From: 2010.05.17/outbox.cif.g08.bks.cpg/sg15_63_cif.got.tgz:124485.got - 2010.06.03 18:47:42.
