data_PCOD9268626
_publ_section_title
;
Structure prediction by ZEFSAII (Michael W. Deem and Ramdas Pophale) SiO2 
 PCOD9268626
Probable space group: C 2/C
;
_chemical_formula_sum "Si O2"
_cell_formula_units_Z 52
_cell_length_a 15.891621
_cell_length_b 29.321289
_cell_length_c 10.137488
_cell_angle_alpha 90.000000
_cell_angle_beta 141.129081
_cell_angle_gamma 90.000000
_cell_volume 2964.438071
_symmetry_space_group_name_H-M "C 2/C"
_symmetry_group_IT_number 15
_symmetry_cell_setting 'monoclinic'
loop_
_space_group_symop_operation_xyz
x,y,z
-x,y,1/2-z
-x,-y,-z
x,-y,1/2+z
1/2+x,1/2+y,z
1/2-x,1/2+y,1/2-z
1/2-x,1/2-y,-z
1/2+x,1/2-y,1/2+z
loop_
_atom_site_type_symbol
_atom_site_label
_atom_site_fract_x
_atom_site_fract_y
_atom_site_fract_z
Si Si1 0.301901 0.494073 0.658412
Si Si2 0.010444 0.618162 0.922984
Si Si3 0.677402 0.601150 0.187860
Si Si4 0.118489 0.810960 0.788582
Si Si5 0.406537 0.211025 0.765180
Si Si6 0.866110 0.527351 0.801915
Si Si7 0.000000 0.939862 0.250000
O O1 0.346762 0.442945 0.749146
O O2 0.240436 0.515553 0.715574
O O3 0.190705 0.488445 0.408342
O O4 0.416103 0.526707 0.742210
O O5 0.000000 0.618023 0.750000
O O6 0.970991 0.668853 0.921809
O O7 0.907522 0.580177 0.847097
O O8 0.162819 0.605048 0.141851
O O9 0.631752 0.646598 0.207253
O O10 0.598617 0.590730 0.957984
O O11 0.099103 0.762572 0.688949
O O12 0.000000 0.817892 0.750000
O O13 0.258776 0.804421 0.038327
O O14 0.500000 0.215837 0.750000
O O15 0.000000 0.500000 0.000000
#
# Coordination Sequence:
#
# PCOD9268626 Si02
#       7
#     8   8   8   8   8   8   4
#     4  12  24  40  59  83 125 166 200 255 297 364
#     4  11  18  36  62  90 117 154 199 254 309 358
#     4  12  23  39  60  83 122 164 201 246 311 362
#     4  10  20  32  59  95 122 150 192 257 313 366
#     4   9  17  34  56  92 123 146 195 253 320 351
#     4  12  21  36  61  93 119 156 209 251 304 361
#     4  12  28  42  52  86 124 172 206 246 304 376
#
# _framework density 17.541267000000001
#
# number of rings (size 3 to 8) (size 9 to 14) (size 15 to 20)
#    0.000    0.923    7.692    0.923    1.077    1.231 
#    0.000    0.000    0.000    0.923    4.000    0.000 
#    0.000    0.000    0.000    0.000    0.000    0.000 
#
# Total GULP energy -145137.725489 kJ/mol
# GULP energy per Si atom -5582.220211 kJ/mol
# Density = 1.750134 g / cm^3
# Si number density = 17.541267 Si / 1000 Ang^3
#
#
#
# Elastic Constant Matrix: (Units=GPa)
#
#
# Indices 1 2 3 4 5 6 
#
# 1 56.3909 40.8212 7.1592 0.0000 6.7154 0.0000
# 2 40.8212 163.8827 29.5560 0.0000 -3.8270 0.0000
# 3 7.1592 29.5560 101.9097 0.0000 2.7320 0.0000
# 4 0.0000 0.0000 0.0000 16.1741 0.0000 10.7016
# 5 6.7154 -3.8270 2.7320 0.0000 26.7343 0.0000
# 6 0.0000 0.0000 0.0000 10.7016 0.0000 30.0430
#
#
#
# Elastic Compliance Matrix: (Units=1/GPa)
#
#
# Indices 1 2 3 4 5 6 
#
# 1 0.022727 -0.005865 0.000281 0.000000 -0.006577 0.000000
# 2 -0.005865 0.007986 -0.001980 0.000000 0.002819 0.000000
# 3 0.000281 -0.001980 0.010405 0.000000 -0.001417 0.000000
# 4 0.000000 0.000000 0.000000 0.080893 0.000000 -0.028815
# 5 -0.006577 0.002819 -0.001417 0.000000 0.039606 0.000000
# 6 0.000000 0.000000 0.000000 -0.028815 0.000000 0.043550
#
#
# Mechanical properties :
#
#
# Convention : Reuss Voigt Hill
#
# Bulk Modulus (GPa) = 38.47705 53.02848 45.75276
# Shear Modulus (GPa) = 21.83822 30.90005 26.36913
#
# Velocity S-wave (km/s) = 3.53223 4.20165 3.88140
# Velocity P-wave (km/s) = 6.21436 7.33722 6.79901
#
# Compressibility (1/GPa) = 0.02598952
#
# Stress axis : x y z
#
# Youngs Moduli (GPa) = 44.00099 125.22374 96.10768
#
# Poissons Ratio (x) = 0.73446 -0.02699
# Poissons Ratio (y) = 0.25807 0.19025
# Poissons Ratio (z) = -0.01235 0.24789
#
# Static dielectric constant tensor:
#      x y z
#    x 1.259610 0.000000 0.064420 
#    y 0.000000 1.640590 0.000000 
#    z 0.064420 0.000000 1.592760 
# 
# From -- ./inp_files/35083.got.cif
#   From: 2010.05.17/outbox.cif.g08.bks.cpg/sg15_18_cif.got.tgz:35083.got - 2010.06.03 18:47:42.
