data_PCOD9268944
_publ_section_title
;
Structure prediction by ZEFSAII (Michael W. Deem and Ramdas Pophale) SiO2 
 PCOD9268944
Probable space group: C 2/C
;
_chemical_formula_sum "Si O2"
_cell_formula_units_Z 56
_cell_length_a 15.037886
_cell_length_b 23.954198
_cell_length_c 12.725259
_cell_angle_alpha 90.000000
_cell_angle_beta 35.991196
_cell_angle_gamma 90.000000
_cell_volume 2693.778447
_symmetry_space_group_name_H-M "C 2/C"
_symmetry_group_IT_number 15
_symmetry_cell_setting 'monoclinic'
loop_
_space_group_symop_operation_xyz
x,y,z
-x,y,1/2-z
-x,-y,-z
x,-y,1/2+z
1/2+x,1/2+y,z
1/2-x,1/2+y,1/2-z
1/2-x,1/2-y,-z
1/2+x,1/2-y,1/2+z
loop_
_atom_site_type_symbol
_atom_site_label
_atom_site_fract_x
_atom_site_fract_y
_atom_site_fract_z
Si Si1 0.000000 0.118351 0.250000
Si Si2 0.573767 0.682604 0.971032
Si Si3 0.581227 0.195523 0.391451
Si Si4 0.644820 0.660874 0.492255
Si Si5 0.172293 0.572745 0.054994
Si Si6 0.000000 0.748337 0.250000
Si Si7 0.176768 0.443091 0.103845
Si Si8 0.845850 0.611234 0.663350
O O1 0.998353 0.155207 0.357384
O O2 0.834854 0.086148 0.412574
O O3 0.510697 0.656580 0.921867
O O4 0.559521 0.749219 0.980494
O O5 0.747244 0.663388 0.798861
O O6 0.753467 0.185153 0.198364
O O7 0.514717 0.211590 0.339769
O O8 0.511530 0.138415 0.499485
O O9 0.714741 0.606320 0.476904
O O10 0.631976 0.707432 0.595278
O O11 0.186348 0.506652 0.056796
O O12 0.000000 0.587884 0.250000
O O13 0.194889 0.590332 0.913208
O O14 0.179652 0.436838 0.227400
O O15 0.000000 0.423111 0.250000
#
# Coordination Sequence:
#
# PCOD9268944 Si02
#       8
#     4   8   8   8   8   4   8   8
#     4  10  24  47  66  90 130 167 220 270 312 366
#     4  10  23  40  62  93 128 164 210 262 311 384
#     4  11  20  37  61  90 125 170 204 251 321 377
#     4  11  21  35  60  93 123 167 206 257 321 383
#     4  11  22  40  65  95 125 165 208 262 323 374
#     4  10  20  33  56  90 134 155 204 256 314 386
#     4  10  26  45  68  92 125 170 218 268 317 373
#     4  11  23  43  62  94 130 161 212 263 313 381
#
# _framework density 20.788643
#
# number of rings (size 3 to 8) (size 9 to 14) (size 15 to 20)
#    0.000    1.429    1.429    4.714    2.000    5.143 
#    1.286    5.000    0.000    0.000    0.000    0.000 
#    0.000    0.000    0.000    0.000    0.000    0.000 
#
# Total GULP energy -156075.732142 kJ/mol
# GULP energy per Si atom -5574.133291 kJ/mol
# Density = 2.074133 g / cm^3
# Si number density = 20.788643 Si / 1000 Ang^3
#
#
#
# Elastic Constant Matrix: (Units=GPa)
#
#
# Indices 1 2 3 4 5 6 
#
# 1 55.9339 20.4323 23.2035 0.0004 13.6679 0.0021
# 2 20.4323 89.5164 44.7198 -0.0005 16.2184 0.0015
# 3 23.2035 44.7198 122.0562 0.0008 10.3216 0.0044
# 4 0.0004 -0.0005 0.0008 19.7594 -0.0009 1.0615
# 5 13.6679 16.2184 10.3216 -0.0009 35.3907 -0.0018
# 6 0.0021 0.0015 0.0044 1.0615 -0.0018 20.8511
#
#
#
# Elastic Compliance Matrix: (Units=1/GPa)
#
#
# Indices 1 2 3 4 5 6 
#
# 1 0.021419 -0.002407 -0.002649 -0.000001 -0.006397 -0.000002
# 2 -0.002407 0.014837 -0.004596 0.000000 -0.004530 0.000000
# 3 -0.002649 -0.004596 0.010372 0.000000 0.000104 -0.000002
# 4 -0.000001 0.000000 0.000000 0.050748 0.000001 -0.002584
# 5 -0.006397 -0.004530 0.000104 0.000001 0.032772 0.000004
# 6 -0.000002 0.000000 -0.000002 -0.002584 0.000004 0.048091
#
#
# Mechanical properties :
#
#
# Convention : Reuss Voigt Hill
#
# Bulk Modulus (GPa) = 36.59634 49.35751 42.97692
# Shear Modulus (GPa) = 24.19563 27.14364 25.66963
#
# Velocity S-wave (km/s) = 3.41528 3.61736 3.51777
# Velocity P-wave (km/s) = 5.76146 6.42193 6.10064
#
# Compressibility (1/GPa) = 0.02732514
#
# Stress axis : x y z
#
# Youngs Moduli (GPa) = 46.68646 67.39958 96.41806
#
# Poissons Ratio (x) = 0.16220 0.25544
# Poissons Ratio (y) = 0.11236 0.44309
# Poissons Ratio (z) = 0.12368 0.30973
#
# Static dielectric constant tensor:
#      x y z
#    x 1.786820 0.000000 -0.065820 
#    y 0.000000 1.722900 0.000000 
#    z -0.065820 0.000000 1.797250 
# 
# From -- ./inp_files/163790.got.cif
#   From: 2010.05.17/outbox.cif.g08.bks.cpg/sg15_82_cif.got.tgz:163790.got - 2010.06.03 18:47:42.
