data_PCOD9268847
_publ_section_title
;
Structure prediction by ZEFSAII (Michael W. Deem and Ramdas Pophale) SiO2 
 PCOD9268847
Probable space group: C 2/C
;
_chemical_formula_sum "Si O2"
_cell_formula_units_Z 48
_cell_length_a 10.380919
_cell_length_b 22.843922
_cell_length_c 10.614326
_cell_angle_alpha 90.000000
_cell_angle_beta 81.956643
_cell_angle_gamma 90.000000
_cell_volume 2492.328905
_symmetry_space_group_name_H-M "C 2/C"
_symmetry_group_IT_number 15
_symmetry_cell_setting 'monoclinic'
loop_
_space_group_symop_operation_xyz
x,y,z
-x,y,1/2-z
-x,-y,-z
x,-y,1/2+z
1/2+x,1/2+y,z
1/2-x,1/2+y,1/2-z
1/2-x,1/2-y,-z
1/2+x,1/2-y,1/2+z
loop_
_atom_site_type_symbol
_atom_site_label
_atom_site_fract_x
_atom_site_fract_y
_atom_site_fract_z
Si Si1 0.090360 0.433099 0.361120
Si Si2 0.414615 0.933054 0.638058
Si Si3 0.954453 0.740115 0.398820
Si Si4 0.849570 0.278730 0.301705
Si Si5 0.744731 0.327479 0.068301
Si Si6 0.713929 0.175901 0.443280
O O1 0.133307 0.500421 0.337331
O O2 0.209003 0.389522 0.380839
O O3 0.000000 0.418606 0.250000
O O4 0.000561 0.431426 0.498515
O O5 0.500000 0.918182 0.750000
O O6 0.306347 0.884583 0.625116
O O7 0.843769 0.692011 0.445571
O O8 0.899084 0.804122 0.446644
O O9 0.000000 0.742674 0.250000
O O10 0.080537 0.713959 0.449883
O O11 0.777558 0.284270 0.179649
O O12 0.823037 0.215272 0.364342
O O13 0.781453 0.325384 0.405963
O O14 0.000000 0.289116 0.250000
#
# Coordination Sequence:
#
# PCOD9268847 Si02
#       6
#     8   8   8   8   8   8
#     4  10  20  34  51  78 105 141 177 220 266 310
#     4  10  20  33  54  75 105 138 179 222 265 308
#     4  11  21  33  49  79 107 139 169 217 268 315
#     4  11  21  34  52  78 103 143 171 216 271 318
#     4  11  21  32  54  74 112 134 174 216 264 323
#     4  11  21  34  54  77 110 136 175 220 268 322
#
# _framework density 19.259094999999999
#
# number of rings (size 3 to 8) (size 9 to 14) (size 15 to 20)
#    0.000    1.333    5.000    2.000    0.000    0.000 
#    0.000    0.000    0.000    1.000    0.000    2.333 
#    0.000    0.167    0.000    0.000    0.000    0.000 
#
# Total GULP energy -133692.960849 kJ/mol
# GULP energy per Si atom -5570.540035 kJ/mol
# Density = 1.921526 g / cm^3
# Si number density = 19.259095 Si / 1000 Ang^3
#
#
#
# Elastic Constant Matrix: (Units=GPa)
#
#
# Indices 1 2 3 4 5 6 
#
# 1 28.9965 25.1090 8.1901 0.0000 -4.0381 0.0000
# 2 25.1090 139.3829 23.2344 0.0000 3.4880 0.0000
# 3 8.1901 23.2344 85.8211 0.0000 -10.6262 0.0000
# 4 0.0000 0.0000 0.0000 19.1660 0.0000 11.4176
# 5 -4.0381 3.4880 -10.6262 0.0000 22.2580 0.0000
# 6 0.0000 0.0000 0.0000 11.4176 0.0000 35.4181
#
#
#
# Elastic Compliance Matrix: (Units=1/GPa)
#
#
# Indices 1 2 3 4 5 6 
#
# 1 0.042634 -0.007740 -0.000920 0.000000 0.008509 0.000000
# 2 -0.007740 0.009029 -0.002184 0.000000 -0.003862 0.000000
# 3 -0.000920 -0.002184 0.013129 0.000000 0.006443 0.000000
# 4 0.000000 0.000000 0.000000 0.064577 0.000000 -0.020818
# 5 0.008509 -0.003862 0.006443 0.000000 0.050153 0.000000
# 6 0.000000 0.000000 0.000000 -0.020818 0.000000 0.034945
#
#
# Mechanical properties :
#
#
# Convention : Reuss Voigt Hill
#
# Bulk Modulus (GPa) = 23.19914 40.80748 32.00331
# Shear Modulus (GPa) = 19.95824 28.54621 24.25223
#
# Velocity S-wave (km/s) = 3.22266 3.85414 3.55246
# Velocity P-wave (km/s) = 5.09110 6.40629 5.78618
#
# Compressibility (1/GPa) = 0.04310504
#
# Stress axis : x y z
#
# Youngs Moduli (GPa) = 23.45558 110.74823 76.16712
#
# Poissons Ratio (x) = 0.85717 0.07005
# Poissons Ratio (y) = 0.18154 0.16636
# Poissons Ratio (z) = 0.02157 0.24189
#
# Static dielectric constant tensor:
#      x y z
#    x 1.823890 0.000000 0.097820 
#    y 0.000000 1.737340 0.000000 
#    z 0.097820 0.000000 1.794520 
# 
# From -- ./inp_files/88422.got.cif
#   From: 2010.05.17/outbox.cif.g08.bks.cpg/sg15_45_cif.got.tgz:88422.got - 2010.06.03 18:47:42.
