data_PCOD9268718
_publ_section_title
;
Structure prediction by ZEFSAII (Michael W. Deem and Ramdas Pophale) SiO2 
 PCOD9268718
Probable space group: C 2/C
;
_chemical_formula_sum "Si O2"
_cell_formula_units_Z 40
_cell_length_a 12.537000
_cell_length_b 23.467688
_cell_length_c 5.474618
_cell_angle_alpha 90.000000
_cell_angle_beta 87.634933
_cell_angle_gamma 90.000000
_cell_volume 1609.339431
_symmetry_space_group_name_H-M "C 2/C"
_symmetry_group_IT_number 15
_symmetry_cell_setting 'monoclinic'
loop_
_space_group_symop_operation_xyz
x,y,z
-x,y,1/2-z
-x,-y,-z
x,-y,1/2+z
1/2+x,1/2+y,z
1/2-x,1/2+y,1/2-z
1/2-x,1/2-y,-z
1/2+x,1/2-y,1/2+z
loop_
_atom_site_type_symbol
_atom_site_label
_atom_site_fract_x
_atom_site_fract_y
_atom_site_fract_z
Si Si1 0.128182 0.982260 0.614693
Si Si2 0.500000 0.865690 0.250000
Si Si3 0.128650 0.849385 0.515808
Si Si4 0.864611 0.470990 0.141038
Si Si5 0.383726 0.305127 0.476722
Si Si6 0.000000 0.299792 0.750000
O O1 0.144195 0.915822 0.560460
O O2 0.081061 0.014919 0.388434
O O3 0.238466 0.017426 0.645632
O O4 0.403877 0.907262 0.178119
O O5 0.467251 0.833367 0.505348
O O6 0.175162 0.833772 0.246404
O O7 0.001653 0.834581 0.498210
O O8 0.165854 0.813910 0.750729
O O9 0.901339 0.505583 0.376634
O O10 0.410142 0.242040 0.376147
#
# Coordination Sequence:
#
# PCOD9268718 Si02
#       6
#     8   4   8   8   8   4
#     4  10  20  33  50  76 106 147 183 212 261 324
#     4  12  20  33  58  84 110 141 172 222 274 318
#     4   9  16  31  51  73 107 144 174 220 264 304
#     4  10  21  36  52  78 111 142 179 218 263 326
#     4   9  18  33  51  79 106 136 183 224 258 313
#     4  10  20  33  54  86 110 135 178 224 274 318
#
# _framework density 24.854917
#
# number of rings (size 3 to 8) (size 9 to 14) (size 15 to 20)
#    0.000    2.400    0.000    5.400    0.000    0.000 
#    0.000   12.000    0.000    0.000    0.000  257.600 
#    0.000    0.000    0.000    0.000    0.000    0.000 
#
# Total GULP energy -111619.673256 kJ/mol
# GULP energy per Si atom -5580.983663 kJ/mol
# Density = 2.479835 g / cm^3
# Si number density = 24.854917 Si / 1000 Ang^3
#
#
#
# Elastic Constant Matrix: (Units=GPa)
#
#
# Indices 1 2 3 4 5 6 
#
# 1 34.0536 15.9888 22.6529 0.0000 7.9811 0.0000
# 2 15.9888 143.9728 91.2110 0.0000 8.3454 0.0000
# 3 22.6529 91.2110 315.6244 0.0000 13.1715 0.0000
# 4 0.0000 0.0000 0.0000 59.8008 0.0000 5.4852
# 5 7.9811 8.3454 13.1715 0.0000 29.8351 0.0000
# 6 0.0000 0.0000 0.0000 5.4852 0.0000 22.8071
#
#
#
# Elastic Compliance Matrix: (Units=1/GPa)
#
#
# Indices 1 2 3 4 5 6 
#
# 1 0.033178 -0.002370 -0.001379 0.000000 -0.007603 0.000000
# 2 -0.002370 0.008723 -0.002318 0.000000 -0.000783 0.000000
# 3 -0.001379 -0.002318 0.003968 0.000000 -0.000734 0.000000
# 4 0.000000 0.000000 0.000000 0.017099 0.000000 -0.004113
# 5 -0.007603 -0.000783 -0.000734 0.000000 0.036095 0.000000
# 6 0.000000 0.000000 0.000000 -0.004113 0.000000 0.044835
#
#
# Mechanical properties :
#
#
# Convention : Reuss Voigt Hill
#
# Bulk Modulus (GPa) = 29.64364 83.70624 56.67494
# Shear Modulus (GPa) = 29.89064 46.74181 38.31622
#
# Velocity S-wave (km/s) = 3.47162 4.34128 3.93057
# Velocity P-wave (km/s) = 5.29359 7.67333 6.59174
#
# Compressibility (1/GPa) = 0.03373404
#
# Stress axis : x y z
#
# Youngs Moduli (GPa) = 30.14076 114.64123 252.02774
#
# Poissons Ratio (x) = 0.27172 0.34754
# Poissons Ratio (y) = 0.07144 0.58420
# Poissons Ratio (z) = 0.04156 0.26574
#
# Static dielectric constant tensor:
#      x y z
#    x 1.929850 0.000000 -0.046530 
#    y 0.000000 1.920710 0.000000 
#    z -0.046530 0.000000 2.040960 
# 
# From -- ./inp_files/10575.got.cif
#   From: 2010.05.17/outbox.cif.g08.bks.cpg/sg15_6_cif.got.tgz:10575.got - 2010.06.03 18:47:42.
