data_PCOD9268697
_publ_section_title
;
Structure prediction by ZEFSAII (Michael W. Deem and Ramdas Pophale) SiO2 
 PCOD9268697
Probable space group: C 2/C
;
_chemical_formula_sum "Si O2"
_cell_formula_units_Z 40
_cell_length_a 13.154829
_cell_length_b 25.273760
_cell_length_c 12.445516
_cell_angle_alpha 90.000000
_cell_angle_beta 22.785679
_cell_angle_gamma 90.000000
_cell_volume 1602.502896
_symmetry_space_group_name_H-M "C 2/C"
_symmetry_group_IT_number 15
_symmetry_cell_setting 'monoclinic'
loop_
_space_group_symop_operation_xyz
x,y,z
-x,y,1/2-z
-x,-y,-z
x,-y,1/2+z
1/2+x,1/2+y,z
1/2-x,1/2+y,1/2-z
1/2-x,1/2-y,-z
1/2+x,1/2-y,1/2+z
loop_
_atom_site_type_symbol
_atom_site_label
_atom_site_fract_x
_atom_site_fract_y
_atom_site_fract_z
Si Si1 0.045841 0.287204 0.058894
Si Si2 0.536579 0.787073 0.825429
Si Si3 0.750802 0.921901 0.429580
Si Si4 0.897725 0.033113 0.202098
Si Si5 0.626196 0.897886 0.302834
O O1 0.824771 0.242651 0.301839
O O2 0.924990 0.343269 0.212158
O O3 0.071807 0.307844 0.909580
O O4 0.500000 0.817932 0.750000
O O5 0.778333 0.747908 0.581336
O O6 0.725311 0.897536 0.333316
O O7 0.000000 0.897797 0.250000
O O8 0.802677 0.984661 0.366857
O O9 0.500000 0.919764 0.750000
O O10 0.644936 0.069488 0.427135
O O11 0.146864 0.070358 0.983013
O O12 0.000000 0.000000 0.000000
#
# Coordination Sequence:
#
# PCOD9268697 Si02
#       5
#     8   8   8   8   8
#     4  10  20  33  49  72 103 140 187 230 251 295
#     4   8  14  25  38  53  79 118 159 201 245 274
#     4  11  21  35  56  83 111 139 181 230 272 329
#     4  10  20  37  56  78 109 145 179 222 286 340
#     4  11  21  36  56  78 112 153 183 218 279 331
#
# _framework density 24.960954000000001
#
# number of rings (size 3 to 8) (size 9 to 14) (size 15 to 20)
#    0.000    2.000    0.000    7.200    0.000    0.800 
#    0.000    8.000    0.000    0.000    0.000    0.000 
#    0.000   56.000    0.000    0.000    0.000    0.000 
#
# Total GULP energy -111418.650577 kJ/mol
# GULP energy per Si atom -5570.932529 kJ/mol
# Density = 2.490414 g / cm^3
# Si number density = 24.960954 Si / 1000 Ang^3
#
#
#
# Elastic Constant Matrix: (Units=GPa)
#
#
# Indices 1 2 3 4 5 6 
#
# 1 89.1586 12.0906 8.8636 -0.0303 7.8765 0.0172
# 2 12.0906 133.0051 52.8627 -0.0057 -8.1118 0.0127
# 3 8.8636 52.8627 190.7783 -0.0519 -24.9953 0.0131
# 4 -0.0303 -0.0057 -0.0519 11.0304 0.0413 -0.2021
# 5 7.8765 -8.1118 -24.9953 0.0413 38.6524 -0.0245
# 6 0.0172 0.0127 0.0131 -0.2021 -0.0245 -16.7615
#
#
#
# Elastic Compliance Matrix: (Units=1/GPa)
#
#
# Indices 1 2 3 4 5 6 
#
# 1 0.011682 -0.000981 -0.000666 0.000040 -0.003017 0.000015
# 2 -0.000981 0.008534 -0.002249 -0.000011 0.000537 0.000003
# 3 -0.000666 -0.002249 0.006393 0.000013 0.003798 -0.000003
# 4 0.000040 -0.000011 0.000013 0.090639 -0.000100 -0.001093
# 5 -0.003017 0.000537 0.003798 -0.000100 0.029055 -0.000041
# 6 0.000015 0.000003 -0.000003 -0.001093 -0.000041 -0.059647
#
#
# Mechanical properties :
#
#
# Convention : Reuss Voigt Hill
#
# Bulk Modulus (GPa) = 53.14317 62.28620 57.71469
# Shear Modulus (GPa) = 49.64179 29.19259 39.41719
#
# Velocity S-wave (km/s) = 4.46441 3.42355 3.97817
# Velocity P-wave (km/s) = 6.92180 6.37458 6.65382
#
# Compressibility (1/GPa) = 0.01881709
#
# Stress axis : x y z
#
# Youngs Moduli (GPa) = 85.60323 117.17509 156.41118
#
# Poissons Ratio (x) = 0.11497 0.10420
# Poissons Ratio (y) = 0.08399 0.35175
# Poissons Ratio (z) = 0.05703 0.26351
#
# Static dielectric constant tensor:
#      x y z
#    x 2.223900 0.000500 0.170200 
#    y 0.000500 3.466910 -0.001810 
#    z 0.170200 -0.001810 1.802060 
# 
# From -- ./inp_files/157139.got.cif
#   From: 2010.05.17/outbox.cif.g08.bks.cpg/sg15_79_cif.got.tgz:157139.got - 2010.06.03 18:47:42.
