data_PCOD9268528
_publ_section_title
;
Structure prediction by ZEFSAII (Michael W. Deem and Ramdas Pophale) SiO2 
 PCOD9268528
Probable space group: C 2/C
;
_chemical_formula_sum "Si O2"
_cell_formula_units_Z 48
_cell_length_a 16.111813
_cell_length_b 19.696954
_cell_length_c 7.430334
_cell_angle_alpha 90.000000
_cell_angle_beta 57.913235
_cell_angle_gamma 90.000000
_cell_volume 1997.839769
_symmetry_space_group_name_H-M "C 2/C"
_symmetry_group_IT_number 15
_symmetry_cell_setting 'monoclinic'
loop_
_space_group_symop_operation_xyz
x,y,z
-x,y,1/2-z
-x,-y,-z
x,-y,1/2+z
1/2+x,1/2+y,z
1/2-x,1/2+y,1/2-z
1/2-x,1/2-y,-z
1/2+x,1/2-y,1/2+z
loop_
_atom_site_type_symbol
_atom_site_label
_atom_site_fract_x
_atom_site_fract_y
_atom_site_fract_z
Si Si1 0.000000 0.483853 0.750000
Si Si2 0.303071 0.569335 0.957457
Si Si3 0.891261 0.411002 0.579780
Si Si4 0.500000 0.669814 0.250000
Si Si5 0.588064 0.302968 0.024415
Si Si6 0.229345 0.694187 0.377153
Si Si7 0.319447 0.416973 0.031685
O O1 0.979314 0.434146 0.607899
O O2 0.089772 0.535695 0.604102
O O3 0.275053 0.582644 0.782217
O O4 0.205851 0.576735 0.189749
O O5 0.386988 0.620571 0.932895
O O6 0.336768 0.492256 0.940946
O O7 0.879690 0.331118 0.546548
O O8 0.448581 0.704597 0.139320
O O9 0.420580 0.622425 0.436001
O O10 0.702969 0.281755 0.868199
O O11 0.500000 0.275599 0.250000
O O12 0.250000 0.750000 0.500000
O O13 0.263648 0.625829 0.443905
#
# Coordination Sequence:
#
# PCOD9268528 Si02
#       7
#     4   8   8   4   8   8   8
#     4  10  20  38  69  98 131 160 222 308 338 402
#     4  11  21  35  61  94 128 160 206 266 338 404
#     4  10  21  38  63  99 126 167 217 281 359 394
#     4  10  20  32  53  90 127 158 204 248 312 366
#     4  10  20  38  63  93 127 165 214 266 324 391
#     4  10  23  43  64  86 131 180 219 263 325 409
#     4  11  21  33  58  88 124 168 200 264 315 395
#
# _framework density 24.025952
#
# number of rings (size 3 to 8) (size 9 to 14) (size 15 to 20)
#    0.000    1.667    1.667    5.000    1.167    2.667 
#    0.000    6.667    3.667    4.000    0.000    0.000 
#    0.000    0.000    0.000    0.000    0.000    0.000 
#
# Total GULP energy -133718.055655 kJ/mol
# GULP energy per Si atom -5571.585652 kJ/mol
# Density = 2.397127 g / cm^3
# Si number density = 24.025952 Si / 1000 Ang^3
#
#
#
# Elastic Constant Matrix: (Units=GPa)
#
#
# Indices 1 2 3 4 5 6 
#
# 1 49.1531 9.4747 25.7455 0.0000 16.2163 0.0000
# 2 9.4747 35.7971 20.9631 0.0000 7.5816 0.0000
# 3 25.7455 20.9631 155.7699 0.0000 11.9892 0.0000
# 4 0.0000 0.0000 0.0000 12.5838 0.0000 8.7317
# 5 16.2163 7.5816 11.9892 0.0000 43.2942 0.0000
# 6 0.0000 0.0000 0.0000 8.7317 0.0000 37.9070
#
#
#
# Elastic Compliance Matrix: (Units=1/GPa)
#
#
# Indices 1 2 3 4 5 6 
#
# 1 0.025242 -0.003146 -0.003130 0.000000 -0.008037 0.000000
# 2 -0.003146 0.031510 -0.003460 0.000000 -0.003381 0.000000
# 3 -0.003130 -0.003460 0.007424 0.000000 -0.000278 0.000000
# 4 0.000000 0.000000 0.000000 0.094585 0.000000 -0.021787
# 5 -0.008037 -0.003381 -0.000278 0.000000 0.026777 0.000000
# 6 0.000000 0.000000 0.000000 -0.021787 0.000000 0.031399
#
#
# Mechanical properties :
#
#
# Convention : Reuss Voigt Hill
#
# Bulk Modulus (GPa) = 22.36940 39.23188 30.80064
# Shear Modulus (GPa) = 19.89563 31.05945 25.47754
#
# Velocity S-wave (km/s) = 2.88078 3.59938 3.25994
# Velocity P-wave (km/s) = 4.51618 5.79987 5.19780
#
# Compressibility (1/GPa) = 0.04470392
#
# Stress axis : x y z
#
# Youngs Moduli (GPa) = 39.61664 31.73551 134.69638
#
# Poissons Ratio (x) = 0.09984 0.42160
# Poissons Ratio (y) = 0.12463 0.46610
# Poissons Ratio (z) = 0.12400 0.10982
#
# Static dielectric constant tensor:
#      x y z
#    x 2.092390 0.000000 -0.015750 
#    y 0.000000 2.010270 0.000000 
#    z -0.015750 0.000000 1.956850 
# 
# From -- ./inp_files/50064.got.cif
#   From: 2010.05.17/outbox.cif.g08.bks.cpg/sg15_26_cif.got.tgz:50064.got - 2010.06.03 18:47:42.
