data_PCOD9268592
_publ_section_title
;
Structure prediction by ZEFSAII (Michael W. Deem and Ramdas Pophale) SiO2 
 PCOD9268592
Probable space group: C 2/C
;
_chemical_formula_sum "Si O2"
_cell_formula_units_Z 56
_cell_length_a 23.003141
_cell_length_b 7.230239
_cell_length_c 19.711122
_cell_angle_alpha 90.000000
_cell_angle_beta 60.642821
_cell_angle_gamma 90.000000
_cell_volume 2857.318300
_symmetry_space_group_name_H-M "C 2/C"
_symmetry_group_IT_number 15
_symmetry_cell_setting 'monoclinic'
loop_
_space_group_symop_operation_xyz
x,y,z
-x,y,1/2-z
-x,-y,-z
x,-y,1/2+z
1/2+x,1/2+y,z
1/2-x,1/2+y,1/2-z
1/2-x,1/2-y,-z
1/2+x,1/2-y,1/2+z
loop_
_atom_site_type_symbol
_atom_site_label
_atom_site_fract_x
_atom_site_fract_y
_atom_site_fract_z
Si Si1 0.294059 0.815724 0.654356
Si Si2 0.171367 0.990980 0.263647
Si Si3 0.468307 0.349514 0.198349
Si Si4 0.089348 0.822409 0.503853
Si Si5 0.996150 0.286114 0.330566
Si Si6 0.536357 0.273324 0.027299
Si Si7 0.112731 0.642402 0.862685
O O1 0.221477 0.905169 0.683549
O O2 0.289403 0.648393 0.710065
O O3 0.340439 0.742251 0.566824
O O4 0.335834 0.977426 0.666958
O O5 0.141722 0.154035 0.328607
O O6 0.111333 0.873192 0.264324
O O7 0.500000 0.283941 0.250000
O O8 0.489564 0.564925 0.178526
O O9 0.503299 0.236736 0.118277
O O10 0.069400 0.712887 0.584026
O O11 0.028708 0.796805 0.484083
O O12 0.082104 0.044738 0.514494
O O13 0.055605 0.376073 0.339252
O O14 0.000000 0.345369 0.250000
O O15 0.581282 0.140367 0.956236
#
# Coordination Sequence:
#
# PCOD9268592 Si02
#       7
#     8   8   8   8   8   8   8
#     4  12  21  34  56  82 115 147 188 233 281 333
#     4  11  21  36  54  84 112 148 191 227 278 336
#     4   9  17  33  58  80 112 151 183 232 290 334
#     4   9  16  29  54  80 111 146 178 240 278 325
#     4   8  16  31  53  82 113 145 183 227 287 338
#     4   9  15  31  54  82 111 136 189 240 282 326
#     4  10  20  32  57  83 108 144 185 241 279 325
#
# _framework density 19.598796
#
# number of rings (size 3 to 8) (size 9 to 14) (size 15 to 20)
#    0.000    2.286    4.286    1.714    0.000    2.286 
#    0.000    0.714    0.000   16.286    0.000    0.000 
#    0.000    0.000    0.000    0.000    0.000    0.000 
#
# Total GULP energy -155915.203218 kJ/mol
# GULP energy per Si atom -5568.400115 kJ/mol
# Density = 1.955419 g / cm^3
# Si number density = 19.598796 Si / 1000 Ang^3
#
#
#
# Elastic Constant Matrix: (Units=GPa)
#
#
# Indices 1 2 3 4 5 6 
#
# 1 53.3556 21.9419 63.9895 0.0005 -11.5550 0.0001
# 2 21.9419 71.3205 30.4793 0.0008 0.0686 -0.0001
# 3 63.9895 30.4793 153.3122 -0.0001 -8.6844 0.0001
# 4 0.0005 0.0008 -0.0001 4.5777 0.0001 -13.6298
# 5 -11.5550 0.0686 -8.6844 0.0001 32.8653 0.0001
# 6 0.0001 -0.0001 0.0001 -13.6298 0.0001 13.1234
#
#
#
# Elastic Compliance Matrix: (Units=1/GPa)
#
#
# Indices 1 2 3 4 5 6 
#
# 1 0.042968 -0.006370 -0.016052 0.000002 0.010879 0.000002
# 2 -0.006370 0.016291 -0.000720 0.000001 -0.002464 0.000001
# 3 -0.016052 -0.000720 0.013244 -0.000001 -0.002142 -0.000001
# 4 0.000002 0.000001 -0.000001 -0.104405 0.000001 -0.108434
# 5 0.010879 -0.002464 -0.002142 0.000001 0.033691 0.000001
# 6 0.000002 0.000001 -0.000001 -0.108434 0.000001 -0.036419
#
#
# Mechanical properties :
#
#
# Convention : Reuss Voigt Hill
#
# Bulk Modulus (GPa) = 38.13749 56.75665 47.44707
# Shear Modulus (GPa) = 245.17721 20.88513 133.03117
#
# Velocity S-wave (km/s) = 11.19686 3.26795 8.24770
# Velocity P-wave (km/s) = 13.66239 6.57734 10.72199
#
# Compressibility (1/GPa) = 0.02622092
#
# Stress axis : x y z
#
# Youngs Moduli (GPa) = 23.27289 61.38415 75.50629
#
# Poissons Ratio (x) = 0.39102 1.21199
# Poissons Ratio (y) = 0.14825 0.05433
# Poissons Ratio (z) = 0.37357 0.04417
#
# Static dielectric constant tensor:
#      x y z
#    x 1.675050 0.000000 -0.026860 
#    y 0.000000 1.732270 0.000000 
#    z -0.026860 0.000000 1.738660 
# 
# From -- ./inp_files/218171.got.cif
#   From: 2010.05.17/outbox.cif.g08.bks.cpg/sg15_110_cif.got.tgz:218171.got - 2010.06.03 18:47:42.
