data_PCOD9268403
_publ_section_title
;
Structure prediction by ZEFSAII (Michael W. Deem and Ramdas Pophale) SiO2 
 PCOD9268403
Probable space group: C 2/C
;
_chemical_formula_sum "Si O2"
_cell_formula_units_Z 44
_cell_length_a 16.234503
_cell_length_b 19.660514
_cell_length_c 7.717908
_cell_angle_alpha 90.000000
_cell_angle_beta 62.822573
_cell_angle_gamma 90.000000
_cell_volume 2191.424305
_symmetry_space_group_name_H-M "C 2/C"
_symmetry_group_IT_number 15
_symmetry_cell_setting 'monoclinic'
loop_
_space_group_symop_operation_xyz
x,y,z
-x,y,1/2-z
-x,-y,-z
x,-y,1/2+z
1/2+x,1/2+y,z
1/2-x,1/2+y,1/2-z
1/2-x,1/2-y,-z
1/2+x,1/2-y,1/2+z
loop_
_atom_site_type_symbol
_atom_site_label
_atom_site_fract_x
_atom_site_fract_y
_atom_site_fract_z
Si Si1 0.787087 0.862399 0.878095
Si Si2 0.099232 0.174190 0.894339
Si Si3 0.075947 0.333275 0.025569
Si Si4 0.658384 0.722118 0.496997
Si Si5 0.500000 0.827323 0.750000
Si Si6 0.545049 0.430848 0.892571
O O1 0.817975 0.800538 0.720086
O O2 0.844655 0.924424 0.733512
O O3 0.830370 0.854261 0.027965
O O4 0.676488 0.861865 0.982754
O O5 0.134307 0.165684 0.664934
O O6 0.087205 0.252914 0.963800
O O7 0.000607 0.136314 0.981446
O O8 0.000000 0.339769 0.250000
O O9 0.043198 0.365450 0.873507
O O10 0.750000 0.750000 0.500000
O O11 0.579321 0.779103 0.589685
O O12 0.500000 0.424077 0.750000
O O13 0.500000 0.500000 0.000000
#
# Coordination Sequence:
#
# PCOD9268403 Si02
#       6
#     8   8   8   8   4   8
#     4  11  21  35  54  80 113 153 193 229 291 346
#     4  10  21  35  53  81 116 153 188 235 287 345
#     4  11  21  32  54  79 116 153 180 236 279 340
#     4  11  20  32  53  81 113 155 188 227 285 351
#     4  10  20  32  42  78 112 144 194 218 270 340
#     4  10  23  40  58  85 117 153 192 239 291 348
#
# _framework density 20.078265999999999
#
# number of rings (size 3 to 8) (size 9 to 14) (size 15 to 20)
#    0.000    1.455    3.636    5.455    5.091    0.000 
#    0.000    0.000    0.000    0.000    0.000    5.091 
#    2.727    0.000    0.000    0.000    0.000    0.000 
#
# Total GULP energy -122523.431196 kJ/mol
# GULP energy per Si atom -5569.246873 kJ/mol
# Density = 2.003257 g / cm^3
# Si number density = 20.078266 Si / 1000 Ang^3
#
#
#
# Elastic Constant Matrix: (Units=GPa)
#
#
# Indices 1 2 3 4 5 6 
#
# 1 163.5386 13.8778 62.2739 0.0000 -12.0537 0.0000
# 2 13.8778 32.7017 6.6111 0.0000 -14.2689 0.0000
# 3 62.2739 6.6111 115.2104 0.0000 -4.6174 0.0000
# 4 0.0000 0.0000 0.0000 18.5222 0.0000 -2.2051
# 5 -12.0537 -14.2689 -4.6174 0.0000 54.4312 0.0000
# 6 0.0000 0.0000 0.0000 -2.2051 0.0000 8.1987
#
#
#
# Elastic Compliance Matrix: (Units=1/GPa)
#
#
# Indices 1 2 3 4 5 6 
#
# 1 0.007933 -0.002166 -0.004130 0.000000 0.000839 0.000000
# 2 -0.002166 0.035426 -0.000511 0.000000 0.008764 0.000000
# 3 -0.004130 -0.000511 0.010937 0.000000 -0.000121 0.000000
# 4 0.000000 0.000000 0.000000 0.055775 0.000000 0.015001
# 5 0.000839 0.008764 -0.000121 0.000000 0.020845 0.000000
# 6 0.000000 0.000000 0.000000 0.015001 0.000000 0.126005
#
#
# Mechanical properties :
#
#
# Convention : Reuss Voigt Hill
#
# Bulk Modulus (GPa) = 24.58099 52.99737 38.78918
# Shear Modulus (GPa) = 17.59979 31.47629 24.53804
#
# Velocity S-wave (km/s) = 2.96389 3.96369 3.49968
# Velocity P-wave (km/s) = 4.89714 6.88480 5.97421
#
# Compressibility (1/GPa) = 0.04068185
#
# Stress axis : x y z
#
# Youngs Moduli (GPa) = 126.05458 28.22811 91.43542
#
# Poissons Ratio (x) = 0.06113 0.37764
# Poissons Ratio (y) = 0.27299 0.04672
# Poissons Ratio (z) = 0.52062 0.01442
#
# Static dielectric constant tensor:
#      x y z
#    x 1.458980 0.000000 -0.048990 
#    y 0.000000 1.711320 0.000000 
#    z -0.048990 0.000000 1.803110 
# 
# From -- ./inp_files/40627.got.cif
#   From: 2010.05.17/outbox.cif.g08.bks.cpg/sg15_21_cif.got.tgz:40627.got - 2010.06.03 18:47:42.
