data_PCOD9268642
_publ_section_title
;
Structure prediction by ZEFSAII (Michael W. Deem and Ramdas Pophale) SiO2 
 PCOD9268642
Probable space group: C 2/C
;
_chemical_formula_sum "Si O2"
_cell_formula_units_Z 40
_cell_length_a 34.618388
_cell_length_b 10.208464
_cell_length_c 8.619975
_cell_angle_alpha 90.000000
_cell_angle_beta 145.928826
_cell_angle_gamma 90.000000
_cell_volume 1706.607525
_symmetry_space_group_name_H-M "C 2/C"
_symmetry_group_IT_number 15
_symmetry_cell_setting 'monoclinic'
loop_
_space_group_symop_operation_xyz
x,y,z
-x,y,1/2-z
-x,-y,-z
x,-y,1/2+z
1/2+x,1/2+y,z
1/2-x,1/2+y,1/2-z
1/2-x,1/2-y,-z
1/2+x,1/2-y,1/2+z
loop_
_atom_site_type_symbol
_atom_site_label
_atom_site_fract_x
_atom_site_fract_y
_atom_site_fract_z
Si Si1 0.924643 0.662118 0.712528
Si Si2 0.500000 0.455057 0.250000
Si Si3 0.820973 0.669082 0.911407
Si Si4 0.294300 0.884842 0.959127
Si Si5 0.500000 0.967018 0.750000
Si Si6 0.547334 0.329664 0.110349
O O1 0.847083 0.676292 0.507898
O O2 0.942520 0.553570 0.645142
O O3 0.962975 0.614798 0.995573
O O4 0.969200 0.785496 0.809906
O O5 0.544824 0.371022 0.280689
O O6 0.553694 0.540218 0.530398
O O7 0.775000 0.799209 0.784875
O O8 0.817811 0.636017 0.716554
O O9 0.794589 0.539526 0.914903
O O10 0.897376 0.714142 0.219597
#
# Coordination Sequence:
#
# PCOD9268642 Si02
#       6
#     8   4   8   8   4   8
#     4  11  20  37  62  91 124 163 215 270 325 385
#     4  10  24  40  62  96 132 170 218 274 338 396
#     4  11  26  45  68  98 137 180 226 277 337 401
#     4  11  25  44  66  99 137 179 226 279 336 400
#     4  10  20  32  60  94 120 150 208 278 326 370
#     4  11  23  41  65  94 130 173 220 274 332 397
#
# _framework density 23.438310999999999
#
# number of rings (size 3 to 8) (size 9 to 14) (size 15 to 20)
#    0.000    1.200    0.000    7.200    0.000    8.800 
#    0.000    0.000    0.000    0.000    0.000    0.000 
#    0.000    0.000    0.000    0.000    0.000    0.000 
#
# Total GULP energy -111839.478968 kJ/mol
# GULP energy per Si atom -5591.973948 kJ/mol
# Density = 2.338496 g / cm^3
# Si number density = 23.438311 Si / 1000 Ang^3
#
#
#
# Elastic Constant Matrix: (Units=GPa)
#
#
# Indices 1 2 3 4 5 6 
#
# 1 106.4065 39.7318 21.3905 0.0000 4.9359 0.0000
# 2 39.7318 123.2496 29.7935 0.0000 5.8613 0.0000
# 3 21.3905 29.7935 56.5229 0.0000 5.9315 0.0000
# 4 0.0000 0.0000 0.0000 41.1200 0.0000 4.2083
# 5 4.9359 5.8613 5.9315 0.0000 24.2476 0.0000
# 6 0.0000 0.0000 0.0000 4.2083 0.0000 45.9842
#
#
#
# Elastic Compliance Matrix: (Units=1/GPa)
#
#
# Indices 1 2 3 4 5 6 
#
# 1 0.011035 -0.002897 -0.002553 0.000000 -0.000922 0.000000
# 2 -0.002897 0.010086 -0.004132 0.000000 -0.000838 0.000000
# 3 -0.002553 -0.004132 0.021222 0.000000 -0.003673 0.000000
# 4 0.000000 0.000000 0.000000 0.024549 0.000000 -0.002247
# 5 -0.000922 -0.000838 -0.003673 0.000000 0.042530 0.000000
# 6 0.000000 0.000000 0.000000 -0.002247 0.000000 0.021952
#
#
# Mechanical properties :
#
#
# Convention : Reuss Voigt Hill
#
# Bulk Modulus (GPa) = 43.14092 52.00116 47.57104
# Shear Modulus (GPa) = 31.59279 35.28792 33.44035
#
# Velocity S-wave (km/s) = 3.67538 3.88437 3.78132
# Velocity P-wave (km/s) = 6.03799 6.50787 6.27733
#
# Compressibility (1/GPa) = 0.02317985
#
# Stress axis : x y z
#
# Youngs Moduli (GPa) = 90.61742 99.14595 47.12177
#
# Poissons Ratio (x) = 0.28718 0.12029
# Poissons Ratio (y) = 0.26248 0.19473
# Poissons Ratio (z) = 0.23132 0.40971
#
# Static dielectric constant tensor:
#      x y z
#    x 1.926590 0.000000 0.012650 
#    y 0.000000 1.918720 0.000000 
#    z 0.012650 0.000000 1.913800 
# 
# From -- ./inp_files/69253.got.cif
#   From: 2010.05.17/outbox.cif.g08.bks.cpg/sg15_35_cif.got.tgz:69253.got - 2010.06.03 18:47:42.
