data_PCOD9268356
_publ_section_title
;
Structure prediction by ZEFSAII (Michael W. Deem and Ramdas Pophale) SiO2 
 PCOD9268356
Probable space group: C 2/C
;
_chemical_formula_sum "Si O2"
_cell_formula_units_Z 60
_cell_length_a 21.792852
_cell_length_b 21.006596
_cell_length_c 9.477327
_cell_angle_alpha 90.000000
_cell_angle_beta 48.996813
_cell_angle_gamma 90.000000
_cell_volume 3274.269936
_symmetry_space_group_name_H-M "C 2/C"
_symmetry_group_IT_number 15
_symmetry_cell_setting 'monoclinic'
loop_
_space_group_symop_operation_xyz
x,y,z
-x,y,1/2-z
-x,-y,-z
x,-y,1/2+z
1/2+x,1/2+y,z
1/2-x,1/2+y,1/2-z
1/2-x,1/2-y,-z
1/2+x,1/2-y,1/2+z
loop_
_atom_site_type_symbol
_atom_site_label
_atom_site_fract_x
_atom_site_fract_y
_atom_site_fract_z
Si Si1 0.640413 0.401430 0.804812
Si Si2 0.020355 0.788860 0.937876
Si Si3 0.182122 0.668952 0.975103
Si Si4 0.253795 0.811436 0.814888
Si Si5 0.061729 0.021900 0.028691
Si Si6 0.801568 0.889007 0.084723
Si Si7 0.874723 0.243411 0.452741
Si Si8 0.000000 0.711039 0.250000
O O1 0.560072 0.358985 0.887288
O O2 0.693568 0.354481 0.818061
O O3 0.685569 0.421296 0.589844
O O4 0.619788 0.460341 0.936554
O O5 0.085535 0.744230 0.757838
O O6 0.942547 0.785068 0.955257
O O7 0.999389 0.757936 0.116997
O O8 0.212213 0.741920 0.898753
O O9 0.222460 0.618978 0.803918
O O10 0.218447 0.659671 0.077737
O O11 0.084145 0.671439 0.121745
O O12 0.331700 0.799642 0.598364
O O13 0.000000 0.030871 0.250000
O O14 0.124799 0.080703 0.933831
O O15 0.000000 0.000000 0.000000
O O16 0.814948 0.815474 0.021196
#
# Coordination Sequence:
#
# PCOD9268356 Si02
#       8
#     8   8   8   8   8   8   8   4
#     4  11  23  36  58  82 117 158 194 229 286 353
#     4  10  20  31  51  80 113 152 185 229 280 336
#     4  10  22  35  55  80 120 149 195 241 289 342
#     4  10  20  35  52  84 112 154 188 236 291 347
#     4  12  25  41  59  86 119 154 200 236 282 350
#     4  10  23  39  55  79 115 158 195 237 286 337
#     4   9  19  35  53  73 115 152 190 230 281 342
#     4  12  20  34  52  86 110 152 194 234 284 342
#
# _framework density 18.324695999999999
#
# number of rings (size 3 to 8) (size 9 to 14) (size 15 to 20)
#    0.000    1.600    4.000    0.800    6.533    1.600 
#    0.000    0.000    0.000    0.000    0.000    5.600 
#    0.000    0.000    0.000    0.000    0.000    0.000 
#
# Total GULP energy -167032.682383 kJ/mol
# GULP energy per Si atom -5567.756079 kJ/mol
# Density = 1.828299 g / cm^3
# Si number density = 18.324696 Si / 1000 Ang^3
#
#
#
# Elastic Constant Matrix: (Units=GPa)
#
#
# Indices 1 2 3 4 5 6 
#
# 1 41.1373 5.7480 17.7927 0.0000 -1.1445 0.0000
# 2 5.7480 41.5735 23.9984 0.0000 -4.5960 0.0000
# 3 17.7927 23.9984 119.6941 0.0000 -7.1817 0.0000
# 4 0.0000 0.0000 0.0000 19.5500 0.0000 -5.9964
# 5 -1.1445 -4.5960 -7.1817 0.0000 24.6617 0.0000
# 6 0.0000 0.0000 0.0000 -5.9964 0.0000 23.1932
#
#
#
# Elastic Compliance Matrix: (Units=1/GPa)
#
#
# Indices 1 2 3 4 5 6 
#
# 1 0.026067 -0.001557 -0.003570 0.000000 -0.000120 0.000000
# 2 -0.001557 0.027603 -0.005087 0.000000 0.003590 0.000000
# 3 -0.003570 -0.005087 0.010013 0.000000 0.001802 0.000000
# 4 0.000000 0.000000 0.000000 0.055556 0.000000 0.014364
# 5 -0.000120 0.003590 0.001802 0.000000 0.041737 0.000000
# 6 0.000000 0.000000 0.000000 0.014364 0.000000 0.046830
#
#
# Mechanical properties :
#
#
# Convention : Reuss Voigt Hill
#
# Bulk Modulus (GPa) = 23.11863 33.05371 28.08617
# Shear Modulus (GPa) = 20.60558 23.80538 22.20548
#
# Velocity S-wave (km/s) = 3.35695 3.60820 3.48484
# Velocity P-wave (km/s) = 5.26013 5.95279 5.61715
#
# Compressibility (1/GPa) = 0.04325516
#
# Stress axis : x y z
#
# Youngs Moduli (GPa) = 38.36256 36.22835 99.86538
#
# Poissons Ratio (x) = 0.05639 0.35652
# Poissons Ratio (y) = 0.05971 0.50806
# Poissons Ratio (z) = 0.13696 0.18431
#
# Static dielectric constant tensor:
#      x y z
#    x 1.664820 0.000000 -0.015740 
#    y 0.000000 1.635710 0.000000 
#    z -0.015740 0.000000 1.709750 
# 
# From -- ./inp_files/58065.got.cif
#   From: 2010.05.17/outbox.cif.g08.bks.cpg/sg15_30_cif.got.tgz:58065.got - 2010.06.03 18:47:42.
