data_PCOD9268337
_publ_section_title
;
Structure prediction by ZEFSAII (Michael W. Deem and Ramdas Pophale) SiO2 
 PCOD9268337
Probable space group: C 2/C
;
_chemical_formula_sum "Si O2"
_cell_formula_units_Z 40
_cell_length_a 17.877523
_cell_length_b 23.889822
_cell_length_c 16.865874
_cell_angle_alpha 90.000000
_cell_angle_beta 162.905134
_cell_angle_gamma 90.000000
_cell_volume 2117.432086
_symmetry_space_group_name_H-M "C 2/C"
_symmetry_group_IT_number 15
_symmetry_cell_setting 'monoclinic'
loop_
_space_group_symop_operation_xyz
x,y,z
-x,y,1/2-z
-x,-y,-z
x,-y,1/2+z
1/2+x,1/2+y,z
1/2-x,1/2+y,1/2-z
1/2-x,1/2-y,-z
1/2+x,1/2-y,1/2+z
loop_
_atom_site_type_symbol
_atom_site_label
_atom_site_fract_x
_atom_site_fract_y
_atom_site_fract_z
Si Si1 0.903683 0.562713 0.378826
Si Si2 0.389865 0.396153 0.443459
Si Si3 0.994020 0.214815 0.338705
Si Si4 0.755386 0.558640 0.541975
Si Si5 0.741339 0.928022 0.952028
O O1 0.801094 0.569367 0.185055
O O2 0.000000 0.500000 0.500000
O O3 0.156538 0.601551 0.644801
O O4 0.658796 0.579621 0.184552
O O5 0.441907 0.337523 0.539908
O O6 0.268722 0.434880 0.389584
O O7 0.216080 0.260704 0.576250
O O8 0.000000 0.203010 0.250000
O O9 0.755662 0.493603 0.519070
O O10 0.000000 0.585955 0.750000
O O11 0.500000 0.584105 0.250000
O O12 0.500000 0.901125 0.750000
O O13 0.000000 0.903685 0.250000
#
# Coordination Sequence:
#
# PCOD9268337 Si02
#       5
#     8   8   8   8   8
#     4  12  24  37  55  85 122 155 197 252 293 345
#     4  12  23  36  59  83 117 157 202 247 297 350
#     4  10  22  41  61  85 120 158 201 252 299 345
#     4  10  20  31  49  75 108 151 199 233 265 335
#     4  10  21  36  52  72 110 159 195 228 278 343
#
# _framework density 18.890806999999999
#
# number of rings (size 3 to 8) (size 9 to 14) (size 15 to 20)
#    0.000    1.200    2.000    4.800    5.600    2.400 
#    0.000    0.000    0.000    0.000    0.000    0.000 
#    0.000   56.000    0.000    0.000    0.000    0.000 
#
# Total GULP energy -111476.376189 kJ/mol
# GULP energy per Si atom -5573.818809 kJ/mol
# Density = 1.884781 g / cm^3
# Si number density = 18.890807 Si / 1000 Ang^3
#
#
#
# Elastic Constant Matrix: (Units=GPa)
#
#
# Indices 1 2 3 4 5 6 
#
# 1 91.0802 13.4779 68.3364 -0.0010 7.6786 -0.0010
# 2 13.4779 44.4347 38.1680 -0.0041 -2.6992 -0.0025
# 3 68.3364 38.1680 176.0487 0.0061 -1.8420 0.0048
# 4 -0.0010 -0.0041 0.0061 23.7040 0.0005 -8.1337
# 5 7.6786 -2.6992 -1.8420 0.0005 42.7677 -0.0006
# 6 -0.0010 -0.0025 0.0048 -8.1337 -0.0006 19.7221
#
#
#
# Elastic Compliance Matrix: (Units=1/GPa)
#
#
# Indices 1 2 3 4 5 6 
#
# 1 0.015902 0.000391 -0.006290 0.000004 -0.003101 0.000004
# 2 0.000391 0.027760 -0.006155 0.000009 0.001417 0.000009
# 3 -0.006290 -0.006155 0.009468 -0.000006 0.001149 -0.000006
# 4 0.000004 0.000009 -0.000006 0.049141 -0.000001 0.020267
# 5 -0.003101 0.001417 0.001149 -0.000001 0.024078 0.000000
# 6 0.000004 0.000009 -0.000006 0.020267 0.000000 0.059063
#
#
# Mechanical properties :
#
#
# Convention : Reuss Voigt Hill
#
# Bulk Modulus (GPa) = 34.45704 61.28093 47.86898
# Shear Modulus (GPa) = 22.81079 30.01085 26.41082
#
# Velocity S-wave (km/s) = 3.47869 3.99011 3.74314
# Velocity P-wave (km/s) = 5.86641 7.33062 6.63900
#
# Compressibility (1/GPa) = 0.02902165
#
# Stress axis : x y z
#
# Youngs Moduli (GPa) = 62.88434 36.02347 105.61525
#
# Poissons Ratio (x) = -0.01409 0.66432
# Poissons Ratio (y) = -0.02459 0.65010
# Poissons Ratio (z) = 0.39554 0.22174
#
# Static dielectric constant tensor:
#      x y z
#    x 1.667630 0.000000 -0.034040 
#    y 0.000000 1.648400 -0.000010 
#    z -0.034040 -0.000010 1.762950 
# 
# From -- ./inp_files/157284.got.cif
#   From: 2010.05.17/outbox.cif.g08.bks.cpg/sg15_79_cif.got.tgz:157284.got - 2010.06.03 18:47:42.
