data_PCOD9268725
_publ_section_title
;
Structure prediction by ZEFSAII (Michael W. Deem and Ramdas Pophale) SiO2 
 PCOD9268725
Probable space group: C 2/C
;
_chemical_formula_sum "Si O2"
_cell_formula_units_Z 64
_cell_length_a 30.679631
_cell_length_b 13.504907
_cell_length_c 9.226660
_cell_angle_alpha 90.000000
_cell_angle_beta 98.149441
_cell_angle_gamma 90.000000
_cell_volume 3784.236923
_symmetry_space_group_name_H-M "C 2/C"
_symmetry_group_IT_number 15
_symmetry_cell_setting 'monoclinic'
loop_
_space_group_symop_operation_xyz
x,y,z
-x,y,1/2-z
-x,-y,-z
x,-y,1/2+z
1/2+x,1/2+y,z
1/2-x,1/2+y,1/2-z
1/2-x,1/2-y,-z
1/2+x,1/2-y,1/2+z
loop_
_atom_site_type_symbol
_atom_site_label
_atom_site_fract_x
_atom_site_fract_y
_atom_site_fract_z
Si Si1 0.133228 0.274435 0.223198
Si Si2 0.455015 0.908953 0.650983
Si Si3 0.283906 0.809742 0.762975
Si Si4 0.357525 0.130255 0.082394
Si Si5 0.685222 0.918972 0.442549
Si Si6 0.718078 0.409125 0.103496
Si Si7 0.456608 0.878151 0.305166
Si Si8 0.807947 0.901882 0.745049
O O1 0.162053 0.324095 0.362410
O O2 0.082861 0.300936 0.228951
O O3 0.148224 0.161970 0.211637
O O4 0.144412 0.333406 0.082490
O O5 0.500000 0.871755 0.750000
O O6 0.408046 0.855888 0.659279
O O7 0.461262 0.905193 0.478826
O O8 0.448658 0.019815 0.712330
O O9 0.319242 0.815170 0.652178
O O10 0.283634 0.700933 0.832776
O O11 0.233659 0.841195 0.706547
O O12 0.301174 0.888859 0.889498
O O13 0.345797 0.013880 0.079935
O O14 0.730522 0.939646 0.379396
O O15 0.692611 0.490071 0.185345
O O16 0.701229 0.408362 0.930763
O O17 0.500000 0.836178 0.250000
#
# Coordination Sequence:
#
# PCOD9268725 Si02
#       8
#     8   8   8   8   8   8   8   8
#     4  11  22  36  53  80 113 140 186 229 264 326
#     4  10  20  33  50  80 112 142 184 217 265 329
#     4  11  22  36  54  79 111 149 191 219 272 324
#     4  11  23  32  55  83 109 156 178 223 268 327
#     4  11  19  36  52  77 114 149 188 218 268 316
#     4  11  23  37  55  76 109 151 187 229 272 307
#     4  10  20  34  54  78 108 146 176 220 276 329
#     4  11  23  39  55  79 109 144 188 235 267 322
#
# _framework density 16.91226
#
# number of rings (size 3 to 8) (size 9 to 14) (size 15 to 20)
#    0.000    1.250    5.000    3.000    5.250    1.500 
#    0.000    0.000    0.000    0.000    0.000    1.750 
#    0.000    0.000    0.000    0.000    0.000    0.000 
#
# Total GULP energy -178550.707295 kJ/mol
# GULP energy per Si atom -5579.709603 kJ/mol
# Density = 1.687377 g / cm^3
# Si number density = 16.912260 Si / 1000 Ang^3
#
#
#
# Elastic Constant Matrix: (Units=GPa)
#
#
# Indices 1 2 3 4 5 6 
#
# 1 84.8703 16.1454 46.8056 0.0000 -3.2040 0.0000
# 2 16.1454 57.6210 10.3153 0.0000 -3.8541 0.0000
# 3 46.8056 10.3153 36.3046 0.0000 -6.5130 0.0000
# 4 0.0000 0.0000 0.0000 15.7432 0.0000 -3.4789
# 5 -3.2040 -3.8541 -6.5130 0.0000 26.9426 0.0000
# 6 0.0000 0.0000 0.0000 -3.4789 0.0000 22.9116
#
#
#
# Elastic Compliance Matrix: (Units=1/GPa)
#
#
# Indices 1 2 3 4 5 6 
#
# 1 0.042943 -0.002559 -0.056225 0.000000 -0.008851 0.000000
# 2 -0.002559 0.018490 -0.001604 0.000000 0.001953 0.000000
# 3 -0.056225 -0.001604 0.103747 0.000000 0.018164 0.000000
# 4 0.000000 0.000000 0.000000 0.065725 0.000000 0.009980
# 5 -0.008851 0.001953 0.018164 0.000000 0.040734 0.000000
# 6 0.000000 0.000000 0.000000 0.009980 0.000000 0.045161
#
#
# Mechanical properties :
#
#
# Convention : Reuss Voigt Hill
#
# Bulk Modulus (GPa) = 22.52059 36.14760 29.33410
# Shear Modulus (GPa) = 11.05271 20.15479 15.60375
#
# Velocity S-wave (km/s) = 2.55920 3.45588 3.04078
# Velocity P-wave (km/s) = 4.69869 6.11099 5.45078
#
# Compressibility (1/GPa) = 0.04440381
#
# Stress axis : x y z
#
# Youngs Moduli (GPa) = 23.28642 54.08445 9.63881
#
# Poissons Ratio (x) = 0.13842 0.54195
# Poissons Ratio (y) = 0.05960 0.01546
# Poissons Ratio (z) = 1.30929 0.08673
#
# Static dielectric constant tensor:
#      x y z
#    x 1.604170 0.000000 0.001400 
#    y 0.000000 1.548810 0.000000 
#    z 0.001400 0.000000 1.583330 
# 
# From -- ./inp_files/66239.got.cif
#   From: 2010.05.17/outbox.cif.g08.bks.cpg/sg15_34_cif.got.tgz:66239.got - 2010.06.03 18:47:42.
