data_PCOD9268918
_publ_section_title
;
Structure prediction by ZEFSAII (Michael W. Deem and Ramdas Pophale) SiO2 
 PCOD9268918
Probable space group: C 2/C
;
_chemical_formula_sum "Si O2"
_cell_formula_units_Z 60
_cell_length_a 17.716462
_cell_length_b 12.929495
_cell_length_c 12.570745
_cell_angle_alpha 90.000000
_cell_angle_beta 93.657807
_cell_angle_gamma 90.000000
_cell_volume 2873.650582
_symmetry_space_group_name_H-M "C 2/C"
_symmetry_group_IT_number 15
_symmetry_cell_setting 'monoclinic'
loop_
_space_group_symop_operation_xyz
x,y,z
-x,y,1/2-z
-x,-y,-z
x,-y,1/2+z
1/2+x,1/2+y,z
1/2-x,1/2+y,1/2-z
1/2-x,1/2-y,-z
1/2+x,1/2-y,1/2+z
loop_
_atom_site_type_symbol
_atom_site_label
_atom_site_fract_x
_atom_site_fract_y
_atom_site_fract_z
Si Si1 0.004107 0.379243 0.984072
Si Si2 0.126301 0.834573 0.308032
Si Si3 0.073754 0.014301 0.432880
Si Si4 0.500000 0.809201 0.750000
Si Si5 0.777616 0.079955 0.441829
Si Si6 0.756149 0.138694 0.858894
Si Si7 0.656174 0.782695 0.035416
Si Si8 0.130405 0.234671 0.451119
O O1 0.017254 0.368265 0.858864
O O2 0.074692 0.328685 0.053847
O O3 0.929008 0.316939 0.008370
O O4 0.000000 0.500000 0.000000
O O5 0.201355 0.855261 0.249113
O O6 0.143234 0.773564 0.418944
O O7 0.071636 0.763305 0.234066
O O8 0.079285 0.937439 0.333463
O O9 0.085741 0.133759 0.406263
O O10 0.148041 0.974768 0.503331
O O11 0.000000 0.000000 0.500000
O O12 0.715316 0.125130 0.518318
O O13 0.809403 0.187273 0.393529
O O14 0.741067 0.983759 0.376652
O O15 0.681443 0.206665 0.868848
O O16 0.813848 0.188400 0.952127
#
# Coordination Sequence:
#
# PCOD9268918 Si02
#       8
#     8   8   8   4   8   8   8   8
#     4  11  21  37  65  84 116 164 201 254 312 367
#     4  10  20  34  58  86 113 154 197 246 303 361
#     4  10  20  35  60  89 117 151 196 254 313 371
#     4  10  20  38  58  90 114 148 216 248 286 388
#     4   9  18  34  55  80 113 149 193 237 293 367
#     4  10  20  33  56  81 116 155 191 244 301 359
#     4   9  19  35  57  82 109 149 201 239 293 366
#     4  10  20  36  54  86 119 150 200 250 304 364
#
# _framework density 20.879365
#
# number of rings (size 3 to 8) (size 9 to 14) (size 15 to 20)
#    0.000    2.133    1.333    3.200    1.867    1.067 
#    0.000    0.000   20.533    0.000    0.000    0.000 
#    0.000    0.000    0.000    0.000    0.000    0.000 
#
# Total GULP energy -167164.501679 kJ/mol
# GULP energy per Si atom -5572.150056 kJ/mol
# Density = 2.083184 g / cm^3
# Si number density = 20.879365 Si / 1000 Ang^3
#
#
#
# Elastic Constant Matrix: (Units=GPa)
#
#
# Indices 1 2 3 4 5 6 
#
# 1 96.9170 61.2202 17.2198 0.0000 -28.6896 0.0000
# 2 61.2202 188.0040 46.5240 0.0000 -28.8453 0.0000
# 3 17.2198 46.5240 49.6772 0.0000 -24.5783 0.0000
# 4 0.0000 0.0000 0.0000 14.4616 0.0000 -10.7456
# 5 -28.6896 -28.8453 -24.5783 0.0000 31.3768 0.0000
# 6 0.0000 0.0000 0.0000 -10.7456 0.0000 33.7604
#
#
#
# Elastic Compliance Matrix: (Units=1/GPa)
#
#
# Indices 1 2 3 4 5 6 
#
# 1 0.016912 -0.004621 0.006554 0.000000 0.016350 0.000000
# 2 -0.004621 0.008272 -0.007304 0.000000 -0.002341 0.000000
# 3 0.006554 -0.007304 0.039744 0.000000 0.030411 0.000000
# 4 0.000000 0.000000 0.000000 0.090569 0.000000 0.028827
# 5 0.016350 -0.002341 0.030411 0.000000 0.068490 0.000000
# 6 0.000000 0.000000 0.000000 0.028827 0.000000 0.038796
#
#
# Mechanical properties :
#
#
# Convention : Reuss Voigt Hill
#
# Bulk Modulus (GPa) = 18.45396 64.94736 41.70066
# Shear Modulus (GPa) = 17.14762 29.89537 23.52149
#
# Velocity S-wave (km/s) = 2.86889 3.78804 3.36004
# Velocity P-wave (km/s) = 4.45327 7.09266 5.92188
#
# Compressibility (1/GPa) = 0.05418892
#
# Stress axis : x y z
#
# Youngs Moduli (GPa) = 59.12847 120.89374 25.16084
#
# Poissons Ratio (x) = 0.55859 -0.16491
# Poissons Ratio (y) = 0.27321 0.18376
# Poissons Ratio (z) = -0.38755 0.88295
#
# Static dielectric constant tensor:
#      x y z
#    x 1.798600 0.000000 0.058230 
#    y 0.000000 1.767030 0.000000 
#    z 0.058230 0.000000 1.805240 
# 
# From -- ./inp_files/160880.got.cif
#   From: 2010.05.17/outbox.cif.g08.bks.cpg/sg15_81_cif.got.tgz:160880.got - 2010.06.03 18:47:42.
