data_PCOD9268922
_publ_section_title
;
Structure prediction by ZEFSAII (Michael W. Deem and Ramdas Pophale) SiO2 
 PCOD9268922
Probable space group: C 2/C
;
_chemical_formula_sum "Si O2"
_cell_formula_units_Z 48
_cell_length_a 16.193024
_cell_length_b 8.924837
_cell_length_c 18.085513
_cell_angle_alpha 90.000000
_cell_angle_beta 46.061926
_cell_angle_gamma 90.000000
_cell_volume 1882.114196
_symmetry_space_group_name_H-M "C 2/C"
_symmetry_group_IT_number 15
_symmetry_cell_setting 'monoclinic'
loop_
_space_group_symop_operation_xyz
x,y,z
-x,y,1/2-z
-x,-y,-z
x,-y,1/2+z
1/2+x,1/2+y,z
1/2-x,1/2+y,1/2-z
1/2-x,1/2-y,-z
1/2+x,1/2-y,1/2+z
loop_
_atom_site_type_symbol
_atom_site_label
_atom_site_fract_x
_atom_site_fract_y
_atom_site_fract_z
Si Si1 0.687318 0.150856 0.281874
Si Si2 0.430321 0.157345 0.479386
Si Si3 0.481683 0.365565 0.569257
Si Si4 0.465167 0.385070 0.189257
Si Si5 0.829813 0.362203 0.296195
Si Si6 0.900122 0.364703 0.418883
O O1 0.566067 0.110744 0.398049
O O2 0.644932 0.279911 0.251700
O O3 0.765639 0.227661 0.294663
O O4 0.724154 0.011510 0.208268
O O5 0.408234 0.240054 0.570775
O O6 0.436008 0.289762 0.414564
O O7 0.367375 0.014319 0.484825
O O8 0.500000 0.500000 0.500000
O O9 0.443124 0.459759 0.663398
O O10 0.592565 0.277099 0.530892
O O11 0.500000 0.409884 0.250000
O O12 0.833312 0.353550 0.383069
O O13 0.964900 0.373811 0.189756
#
# Coordination Sequence:
#
# PCOD9268922 Si02
#       6
#     8   8   8   8   8   8
#     4   9  20  33  56  78 122 140 183 230 294 317
#     4   8  18  36  54  78 110 152 178 230 278 337
#     4  10  20  33  56  83 112 145 192 225 277 333
#     4   9  18  32  54  83 111 142 185 232 271 332
#     4  10  21  35  56  89 110 148 183 241 271 337
#     4  10  20  35  59  81 113 145 198 217 283 331
#
# _framework density 25.503236000000001
#
# number of rings (size 3 to 8) (size 9 to 14) (size 15 to 20)
#    1.000    1.667    0.000    1.500    4.667    0.000 
#    0.000    0.833    0.000    3.000    0.000    0.000 
#    0.000    0.000    0.000    0.000    0.000    0.000 
#
# Total GULP energy -133986.046642 kJ/mol
# GULP energy per Si atom -5582.751943 kJ/mol
# Density = 2.544519 g / cm^3
# Si number density = 25.503236 Si / 1000 Ang^3
#
#
#
# Elastic Constant Matrix: (Units=GPa)
#
#
# Indices 1 2 3 4 5 6 
#
# 1 146.7211 72.7619 72.2048 0.0000 51.4612 0.0000
# 2 72.7619 184.5969 59.6553 0.0000 43.6450 0.0000
# 3 72.2048 59.6553 108.6138 0.0000 60.1867 0.0000
# 4 0.0000 0.0000 0.0000 16.8462 0.0000 3.2368
# 5 51.4612 43.6450 60.1867 0.0000 64.6548 0.0000
# 6 0.0000 0.0000 0.0000 3.2368 0.0000 24.6393
#
#
#
# Elastic Compliance Matrix: (Units=1/GPa)
#
#
# Indices 1 2 3 4 5 6 
#
# 1 0.011265 -0.002221 -0.004402 0.000000 -0.003369 0.000000
# 2 -0.002221 0.007183 -0.001573 0.000000 -0.001617 0.000000
# 3 -0.004402 -0.001573 0.021619 0.000000 -0.015560 0.000000
# 4 0.000000 0.000000 0.000000 0.060898 0.000000 -0.008000
# 5 -0.003369 -0.001617 -0.015560 0.000000 0.033725 0.000000
# 6 0.000000 0.000000 0.000000 -0.008000 0.000000 0.041637
#
#
# Mechanical properties :
#
#
# Convention : Reuss Voigt Hill
#
# Bulk Modulus (GPa) = 42.23607 94.35286 68.29447
# Shear Modulus (GPa) = 24.92389 36.91539 30.91964
#
# Velocity S-wave (km/s) = 3.12954 3.80870 3.48570
# Velocity P-wave (km/s) = 5.44571 7.51122 6.56026
#
# Compressibility (1/GPa) = 0.02367644
#
# Stress axis : x y z
#
# Youngs Moduli (GPa) = 88.76871 139.21168 46.25460
#
# Poissons Ratio (x) = 0.30922 0.20361
# Poissons Ratio (y) = 0.19717 0.07274
# Poissons Ratio (z) = 0.39076 0.21893
#
# Static dielectric constant tensor:
#      x y z
#    x 2.019780 0.000000 -0.129980 
#    y 0.000000 2.000350 0.000000 
#    z -0.129980 0.000000 2.117210 
# 
# From -- ./inp_files/246651.got.cif
#   From: 2010.05.17/outbox.cif.g08.bks.cpg/sg15_124_cif.got.tgz:246651.got - 2010.06.03 18:47:42.
