data_PCOD9268542
_publ_section_title
;
Structure prediction by ZEFSAII (Michael W. Deem and Ramdas Pophale) SiO2 
 PCOD9268542
Probable space group: C 2/C
;
_chemical_formula_sum "Si O2"
_cell_formula_units_Z 60
_cell_length_a 19.196465
_cell_length_b 13.083730
_cell_length_c 16.798533
_cell_angle_alpha 90.000000
_cell_angle_beta 138.949800
_cell_angle_gamma 90.000000
_cell_volume 2770.795332
_symmetry_space_group_name_H-M "C 2/C"
_symmetry_group_IT_number 15
_symmetry_cell_setting 'monoclinic'
loop_
_space_group_symop_operation_xyz
x,y,z
-x,y,1/2-z
-x,-y,-z
x,-y,1/2+z
1/2+x,1/2+y,z
1/2-x,1/2+y,1/2-z
1/2-x,1/2-y,-z
1/2+x,1/2-y,1/2+z
loop_
_atom_site_type_symbol
_atom_site_label
_atom_site_fract_x
_atom_site_fract_y
_atom_site_fract_z
Si Si1 0.188064 0.746386 0.646923
Si Si2 0.500000 0.312754 0.750000
Si Si3 0.110008 0.349756 0.229647
Si Si4 0.818313 0.188578 0.992785
Si Si5 0.957843 0.422221 0.835974
Si Si6 0.654311 0.136748 0.102154
Si Si7 0.797101 0.567962 0.947446
Si Si8 0.245217 0.651987 0.437489
O O1 0.108225 0.689183 0.637204
O O2 0.254607 0.811532 0.766739
O O3 0.247137 0.652906 0.652025
O O4 0.169176 0.825456 0.558023
O O5 0.435701 0.237603 0.753302
O O6 0.412421 0.368439 0.620546
O O7 0.232224 0.368482 0.363661
O O8 0.050960 0.456800 0.188009
O O9 0.873402 0.274882 0.984493
O O10 0.750000 0.250000 0.000000
O O11 0.926402 0.402141 0.900372
O O12 0.867920 0.366296 0.704923
O O13 0.080867 0.395115 0.930673
O O14 0.695936 0.040171 0.088972
O O15 0.742269 0.563688 0.986100
O O16 0.250000 0.750000 0.500000
#
# Coordination Sequence:
#
# PCOD9268542 Si02
#       8
#     8   4   8   8   8   8   8   8
#     4   9  20  38  51  80 125 164 193 234 302 367
#     4  10  20  32  54  82 124 154 194 238 298 358
#     4  10  20  34  54  87 126 153 196 249 307 359
#     4   9  20  34  50  80 119 156 190 240 299 365
#     4  11  21  32  58  92 116 148 189 258 310 345
#     4  10  20  34  53  82 122 154 191 234 305 364
#     4  11  20  33  59  92 121 145 198 257 299 352
#     4   9  21  37  53  80 120 161 193 234 302 363
#
# _framework density 21.654432
#
# number of rings (size 3 to 8) (size 9 to 14) (size 15 to 20)
#    0.000    2.133    1.333    1.600    7.467    0.000 
#    0.000    0.000    0.000    0.000   10.400   23.333 
#    0.000    0.000    0.000    0.000    0.000    0.000 
#
# Total GULP energy -167135.459568 kJ/mol
# GULP energy per Si atom -5571.181986 kJ/mol
# Density = 2.160515 g / cm^3
# Si number density = 21.654432 Si / 1000 Ang^3
#
#
#
# Elastic Constant Matrix: (Units=GPa)
#
#
# Indices 1 2 3 4 5 6 
#
# 1 80.5394 17.4682 34.5035 0.0000 -36.1459 0.0000
# 2 17.4682 59.0907 40.3086 0.0000 -3.6851 0.0000
# 3 34.5035 40.3086 105.5879 0.0000 -16.3696 0.0000
# 4 0.0000 0.0000 0.0000 29.1936 0.0000 -0.9407
# 5 -36.1459 -3.6851 -16.3696 0.0000 38.0183 0.0000
# 6 0.0000 0.0000 0.0000 -0.9407 0.0000 22.7849
#
#
#
# Elastic Compliance Matrix: (Units=1/GPa)
#
#
# Indices 1 2 3 4 5 6 
#
# 1 0.024064 -0.003606 -0.003208 0.000000 0.021148 0.000000
# 2 -0.003606 0.023520 -0.008549 0.000000 -0.004830 0.000000
# 3 -0.003208 -0.008549 0.014124 0.000000 0.002203 0.000000
# 4 0.000000 0.000000 0.000000 0.034300 0.000000 0.001416
# 5 0.021148 -0.004830 0.002203 0.000000 0.046890 0.000000
# 6 0.000000 0.000000 0.000000 0.001416 0.000000 0.043947
#
#
# Mechanical properties :
#
#
# Convention : Reuss Voigt Hill
#
# Bulk Modulus (GPa) = 32.27819 47.75320 40.01569
# Shear Modulus (GPa) = 21.93955 28.19521 25.06738
#
# Velocity S-wave (km/s) = 3.18648 3.61231 3.40606
# Velocity P-wave (km/s) = 5.33635 6.28480 5.82989
#
# Compressibility (1/GPa) = 0.03098067
#
# Stress axis : x y z
#
# Youngs Moduli (GPa) = 41.55588 42.51736 70.80022
#
# Poissons Ratio (x) = 0.15334 0.22713
# Poissons Ratio (y) = 0.14987 0.60528
# Poissons Ratio (z) = 0.13332 0.36348
#
# Static dielectric constant tensor:
#      x y z
#    x 1.853770 0.000000 0.013050 
#    y 0.000000 1.819120 0.000000 
#    z 0.013050 0.000000 1.868520 
# 
# From -- ./inp_files/215470.got.cif
#   From: 2010.05.17/outbox.cif.g08.bks.cpg/sg15_108_cif.got.tgz:215470.got - 2010.06.03 18:47:42.
