data_PCOD9268712
_publ_section_title
;
Structure prediction by ZEFSAII (Michael W. Deem and Ramdas Pophale) SiO2 
 PCOD9268712
Probable space group: C 2/C
;
_chemical_formula_sum "Si O2"
_cell_formula_units_Z 48
_cell_length_a 19.451446
_cell_length_b 18.076606
_cell_length_c 25.375847
_cell_angle_alpha 90.000000
_cell_angle_beta 17.008862
_cell_angle_gamma 90.000000
_cell_volume 2610.022930
_symmetry_space_group_name_H-M "C 2/C"
_symmetry_group_IT_number 15
_symmetry_cell_setting 'monoclinic'
loop_
_space_group_symop_operation_xyz
x,y,z
-x,y,1/2-z
-x,-y,-z
x,-y,1/2+z
1/2+x,1/2+y,z
1/2-x,1/2+y,1/2-z
1/2-x,1/2-y,-z
1/2+x,1/2-y,1/2+z
loop_
_atom_site_type_symbol
_atom_site_label
_atom_site_fract_x
_atom_site_fract_y
_atom_site_fract_z
Si Si1 0.500000 0.961947 0.750000
Si Si2 0.246502 0.585786 0.690764
Si Si3 0.721239 0.912562 0.691834
Si Si4 0.722833 0.835710 0.796881
Si Si5 0.056873 0.301971 0.025888
Si Si6 0.000000 0.272670 0.250000
Si Si7 0.683177 0.598647 0.985116
O O1 0.578317 0.914530 0.742567
O O2 0.294525 0.020009 0.918319
O O3 0.222887 0.497633 0.710686
O O4 0.506660 0.607047 0.520261
O O5 0.257973 0.605502 0.620512
O O6 0.039482 0.628056 0.871594
O O7 0.638863 0.864578 0.801925
O O8 0.886897 0.764945 0.666337
O O9 0.903847 0.894875 0.690830
O O10 0.540231 0.816210 0.975841
O O11 0.323496 0.277318 0.845000
O O12 0.182331 0.330832 0.088246
#
# Coordination Sequence:
#
# PCOD9268712 Si02
#       7
#     4   8   8   8   8   4   8
#     4   9  16  30  58  76  94 131 176 220 254 289
#     4   9  18  33  51  72 102 136 167 200 251 311
#     4   9  18  34  53  74  98 132 174 211 252 300
#     4  10  20  33  50  74 106 139 169 202 250 307
#     4  11  21  32  51  76 106 140 168 203 247 302
#     4   9  18  28  46  76 108 131 162 196 240 301
#     4   8  16  30  49  76 105 132 163 201 249 306
#
# _framework density 18.390643000000001
#
# number of rings (size 3 to 8) (size 9 to 14) (size 15 to 20)
#    0.000    2.667    0.000    4.000    0.000    9.333 
#    0.000    0.000    0.000    9.000    0.000    0.000 
#    0.000    0.000    0.000    0.000    0.000    0.000 
#
# Total GULP energy -133718.345985 kJ/mol
# GULP energy per Si atom -5571.597749 kJ/mol
# Density = 1.834878 g / cm^3
# Si number density = 18.390643 Si / 1000 Ang^3
#
#
#
# Elastic Constant Matrix: (Units=GPa)
#
#
# Indices 1 2 3 4 5 6 
#
# 1 104.9119 19.6097 31.6872 -0.0278 -7.3417 0.0055
# 2 19.6097 39.0287 16.3008 -0.0494 1.9818 0.0137
# 3 31.6872 16.3008 42.4196 -0.0848 9.4133 -0.0344
# 4 -0.0278 -0.0494 -0.0848 15.1716 0.0460 0.8719
# 5 -7.3417 1.9818 9.4133 0.0460 26.8984 0.0029
# 6 0.0055 0.0137 -0.0344 0.8719 0.0029 29.3513
#
#
#
# Elastic Compliance Matrix: (Units=1/GPa)
#
#
# Indices 1 2 3 4 5 6 
#
# 1 0.013961 -0.002773 -0.011118 -0.000069 0.007906 -0.000013
# 2 -0.002773 0.031172 -0.010007 0.000041 0.000448 -0.000027
# 3 -0.011118 -0.010007 0.039286 0.000212 -0.016046 0.000048
# 4 -0.000069 0.000041 0.000212 0.066027 -0.000209 -0.001961
# 5 0.007906 0.000448 -0.016046 -0.000209 0.044917 -0.000019
# 6 -0.000013 -0.000027 0.000048 -0.001961 -0.000019 0.034128
#
#
# Mechanical properties :
#
#
# Convention : Reuss Voigt Hill
#
# Bulk Modulus (GPa) = 27.30465 35.72838 31.51652
# Shear Modulus (GPa) = 17.27141 22.20176 19.73659
#
# Velocity S-wave (km/s) = 3.06787 3.47829 3.27951
# Velocity P-wave (km/s) = 5.23721 5.96666 5.61379
#
# Compressibility (1/GPa) = 0.03662380
#
# Stress axis : x y z
#
# Youngs Moduli (GPa) = 71.62611 32.07995 25.45452
#
# Poissons Ratio (x) = 0.08895 0.28301
# Poissons Ratio (y) = 0.19860 0.25472
# Poissons Ratio (z) = 0.79635 0.32102
#
# Static dielectric constant tensor:
#      x y z
#    x 1.680970 -0.000010 -0.012090 
#    y -0.000010 1.683010 0.000080 
#    z -0.012090 0.000080 1.685500 
# 
# From -- ./inp_files/301270.got.cif
#   From: 2010.05.17/outbox.cif.g08.bks.cpg/sg15_151_cif.got.tgz:301270.got - 2010.06.03 18:47:42.
