data_PCOD9268053
_publ_section_title
;
Structure prediction by ZEFSAII (Michael W. Deem and Ramdas Pophale) SiO2 
 PCOD9268053
Probable space group: C 2/C
;
_chemical_formula_sum "Si O2"
_cell_formula_units_Z 36
_cell_length_a 5.085718
_cell_length_b 13.204196
_cell_length_c 19.930348
_cell_angle_alpha 90.000000
_cell_angle_beta 97.702629
_cell_angle_gamma 90.000000
_cell_volume 1326.302891
_symmetry_space_group_name_H-M "C 2/C"
_symmetry_group_IT_number 15
_symmetry_cell_setting 'monoclinic'
loop_
_space_group_symop_operation_xyz
x,y,z
-x,y,1/2-z
-x,-y,-z
x,-y,1/2+z
1/2+x,1/2+y,z
1/2-x,1/2+y,1/2-z
1/2-x,1/2-y,-z
1/2+x,1/2-y,1/2+z
loop_
_atom_site_type_symbol
_atom_site_label
_atom_site_fract_x
_atom_site_fract_y
_atom_site_fract_z
Si Si1 0.475741 0.882102 0.923278
Si Si2 0.789767 0.400260 0.374013
Si Si3 0.041926 0.791075 0.823911
Si Si4 0.500000 0.517804 0.250000
Si Si5 0.481960 0.619889 0.992117
O O1 0.332387 0.829870 0.855167
O O2 0.766537 0.848231 0.953689
O O3 0.286971 0.851749 0.979441
O O4 0.446595 0.003559 0.911411
O O5 0.684578 0.445752 0.300310
O O6 0.552860 0.368094 0.416613
O O7 0.954917 0.299403 0.368171
O O8 0.000000 0.742909 0.750000
O O9 0.894332 0.900728 0.803294
O O10 0.500000 0.500000 0.000000
#
# Coordination Sequence:
#
# PCOD9268053 Si02
#       5
#     8   8   8   4   8
#     4  10  22  45  68 105 146 180 236 308 354 432
#     4  10  19  41  68  98 141 192 237 298 366 432
#     4   9  21  44  65 103 146 190 249 292 369 432
#     4   8  20  42  62  94 152 182 250 304 356 430
#     4  10  21  41  73 105 140 187 237 294 371 427
#
# _framework density 27.14312
#
# number of rings (size 3 to 8) (size 9 to 14) (size 15 to 20)
#    0.667    1.778    0.000    2.667    0.000    1.778 
#   20.000    0.000    0.000    0.000    0.000    0.000 
#    0.000    0.000    0.000    0.000    0.000    0.000 
#
# Total GULP energy -100562.590451 kJ/mol
# GULP energy per Si atom -5586.810581 kJ/mol
# Density = 2.708134 g / cm^3
# Si number density = 27.143120 Si / 1000 Ang^3
#
#
#
# Elastic Constant Matrix: (Units=GPa)
#
#
# Indices 1 2 3 4 5 6 
#
# 1 100.1082 58.8860 49.6715 0.0000 16.5478 0.0000
# 2 58.8860 172.9657 60.8420 0.0000 9.9841 0.0000
# 3 49.6715 60.8420 101.9982 0.0000 38.2182 0.0000
# 4 0.0000 0.0000 0.0000 44.2317 0.0000 1.3864
# 5 16.5478 9.9841 38.2182 0.0000 31.3328 0.0000
# 6 0.0000 0.0000 0.0000 1.3864 0.0000 34.8577
#
#
#
# Elastic Compliance Matrix: (Units=1/GPa)
#
#
# Indices 1 2 3 4 5 6 
#
# 1 0.014362 -0.003132 -0.004895 0.000000 -0.000617 0.000000
# 2 -0.003132 0.008556 -0.005850 0.000000 0.006064 0.000000
# 3 -0.004895 -0.005850 0.025803 0.000000 -0.027024 0.000000
# 4 0.000000 0.000000 0.000000 0.022636 0.000000 -0.000900
# 5 -0.000617 0.006064 -0.027024 0.000000 0.063272 0.000000
# 6 0.000000 0.000000 0.000000 -0.000900 0.000000 0.028724
#
#
# Mechanical properties :
#
#
# Convention : Reuss Voigt Hill
#
# Bulk Modulus (GPa) = 47.69409 79.31901 63.50655
# Shear Modulus (GPa) = 25.24018 35.79594 30.51806
#
# Velocity S-wave (km/s) = 3.05272 3.63545 3.35675
# Velocity P-wave (km/s) = 5.48042 6.84894 6.20254
#
# Compressibility (1/GPa) = 0.02096696
#
# Stress axis : x y z
#
# Youngs Moduli (GPa) = 69.62698 116.88118 38.75479
#
# Poissons Ratio (x) = 0.36610 0.18969
# Poissons Ratio (y) = 0.21809 0.22672
# Poissons Ratio (z) = 0.34080 0.68378
#
# Static dielectric constant tensor:
#      x y z
#    x 2.178790 0.000000 -0.066350 
#    y 0.000000 2.101300 0.000000 
#    z -0.066350 0.000000 2.195430 
# 
# From -- ./inp_files/226512.got.cif
#   From: 2010.05.17/outbox.cif.g08.bks.cpg/sg15_114_cif.got.tgz:226512.got - 2010.06.03 18:47:42.
