data_PCOD9268231
_publ_section_title
;
Structure prediction by ZEFSAII (Michael W. Deem and Ramdas Pophale) SiO2 
 PCOD9268231
Probable space group: C 2/C
;
_chemical_formula_sum "Si O2"
_cell_formula_units_Z 60
_cell_length_a 25.375427
_cell_length_b 12.319905
_cell_length_c 8.482910
_cell_angle_alpha 90.000000
_cell_angle_beta 61.803736
_cell_angle_gamma 90.000000
_cell_volume 2337.255721
_symmetry_space_group_name_H-M "C 2/C"
_symmetry_group_IT_number 15
_symmetry_cell_setting 'monoclinic'
loop_
_space_group_symop_operation_xyz
x,y,z
-x,y,1/2-z
-x,-y,-z
x,-y,1/2+z
1/2+x,1/2+y,z
1/2-x,1/2+y,1/2-z
1/2-x,1/2-y,-z
1/2+x,1/2-y,1/2+z
loop_
_atom_site_type_symbol
_atom_site_label
_atom_site_fract_x
_atom_site_fract_y
_atom_site_fract_z
Si Si1 0.132074 0.171777 0.767347
Si Si2 0.697186 0.117898 0.916523
Si Si3 0.066202 0.665284 0.159770
Si Si4 0.703961 0.150691 0.557381
Si Si5 0.096096 0.209891 0.299582
Si Si6 0.000000 0.928432 0.750000
Si Si7 0.738531 0.159899 0.178680
Si Si8 0.385599 0.472188 0.514501
O O1 0.076786 0.249692 0.789592
O O2 0.182297 0.259445 0.735230
O O3 0.132671 0.085799 0.620995
O O4 0.135440 0.092553 0.913596
O O5 0.707909 0.090012 0.719014
O O6 0.707831 0.251482 0.886828
O O7 0.627927 0.095220 0.063481
O O8 0.738366 0.097427 0.011689
O O9 0.000000 0.613978 0.250000
O O10 0.070561 0.731881 0.990876
O O11 0.750000 0.250000 0.500000
O O12 0.637738 0.204219 0.650846
O O13 0.722473 0.098204 0.363787
O O14 0.132488 0.107801 0.319438
O O15 0.043771 0.151999 0.279434
O O16 0.042946 0.007877 0.590565
#
# Coordination Sequence:
#
# PCOD9268231 Si02
#       8
#     8   8   8   8   8   4   8   8
#     4  10  20  29  40  56  78 114 145 174 204 234
#     4   8  16  29  44  64  78  97 136 177 209 258
#     4   9  17  28  42  58  84 109 139 174 215 248
#     4   9  17  31  47  60  75  99 137 184 220 250
#     4  10  20  28  40  59  80 110 151 180 206 250
#     4  12  20  28  40  54  86 120 150 176 202 240
#     4   9  16  29  46  59  77 103 138 175 217 245
#     4  11  21  30  38  54  83 114 151 177 205 236
#
# _framework density 25.671133999999999
#
# number of rings (size 3 to 8) (size 9 to 14) (size 15 to 20)
#    0.000    2.400    1.333    2.800    3.733    1.067 
#    0.000    0.000    0.000    0.000    0.000    0.000 
#    0.000    0.000    0.000    1.200    3.333    0.133 
#
# Total GULP energy -167261.709861 kJ/mol
# GULP energy per Si atom -5575.390329 kJ/mol
# Density = 2.561271 g / cm^3
# Si number density = 25.671134 Si / 1000 Ang^3
#
#
#
# Elastic Constant Matrix: (Units=GPa)
#
#
# Indices 1 2 3 4 5 6 
#
# 1 126.8274 13.0063 26.5692 0.0000 -11.2971 0.0000
# 2 13.0063 41.5934 28.5809 0.0000 15.6627 0.0000
# 3 26.5692 28.5809 115.4055 0.0000 16.5040 0.0000
# 4 0.0000 0.0000 0.0000 42.5401 0.0000 28.3815
# 5 -11.2971 15.6627 16.5040 0.0000 43.8258 0.0000
# 6 0.0000 0.0000 0.0000 28.3815 0.0000 12.5996
#
#
#
# Elastic Compliance Matrix: (Units=1/GPa)
#
#
# Indices 1 2 3 4 5 6 
#
# 1 0.008961 -0.003048 -0.001896 0.000000 0.004113 0.000000
# 2 -0.003048 0.033002 -0.005995 0.000000 -0.010322 0.000000
# 3 -0.001896 -0.005995 0.010939 0.000000 -0.002466 0.000000
# 4 0.000000 0.000000 0.000000 -0.046748 0.000000 0.105304
# 5 0.004113 -0.010322 -0.002466 0.000000 0.028496 0.000000
# 6 0.000000 0.000000 0.000000 0.105304 0.000000 -0.157836
#
#
# Mechanical properties :
#
#
# Convention : Reuss Voigt Hill
#
# Bulk Modulus (GPa) = 32.23423 46.68211 39.45817
# Shear Modulus (GPa) = -54.96517 34.17108 -10.39704
#
# Velocity S-wave (km/s) = -4.63225 3.65239 -2.01467
# Velocity P-wave (km/s) = 4.00331 6.00090 3.16104
#
# Compressibility (1/GPa) = 0.03102292
#
# Stress axis : x y z
#
# Youngs Moduli (GPa) = 111.59483 30.30108 91.41533
#
# Poissons Ratio (x) = 0.09236 0.17336
# Poissons Ratio (y) = 0.34013 0.54806
# Poissons Ratio (z) = 0.21163 0.18166
#
# Static dielectric constant tensor:
#      x y z
#    x 2.055980 0.000000 0.008360 
#    y 0.000000 2.054940 0.000000 
#    z 0.008360 0.000000 2.222630 
# 
# From -- ./inp_files/66880.got.cif
#   From: 2010.05.17/outbox.cif.g08.bks.cpg/sg15_34_cif.got.tgz:66880.got - 2010.06.03 18:47:42.
