data_PCOD9268828
_publ_section_title
;
Structure prediction by ZEFSAII (Michael W. Deem and Ramdas Pophale) SiO2 
 PCOD9268828
Probable space group: C 2/C
;
_chemical_formula_sum "Si O2"
_cell_formula_units_Z 40
_cell_length_a 22.449766
_cell_length_b 5.438460
_cell_length_c 18.131705
_cell_angle_alpha 90.000000
_cell_angle_beta 129.210095
_cell_angle_gamma 90.000000
_cell_volume 1715.278237
_symmetry_space_group_name_H-M "C 2/C"
_symmetry_group_IT_number 15
_symmetry_cell_setting 'monoclinic'
loop_
_space_group_symop_operation_xyz
x,y,z
-x,y,1/2-z
-x,-y,-z
x,-y,1/2+z
1/2+x,1/2+y,z
1/2-x,1/2+y,1/2-z
1/2-x,1/2-y,-z
1/2+x,1/2-y,1/2+z
loop_
_atom_site_type_symbol
_atom_site_label
_atom_site_fract_x
_atom_site_fract_y
_atom_site_fract_z
Si Si1 0.172382 0.654677 0.253699
Si Si2 0.661749 0.809289 0.917203
Si Si3 0.850686 0.154265 0.351938
Si Si4 0.544332 0.404691 0.424690
Si Si5 0.527388 0.094976 0.855520
O O1 0.151343 0.652850 0.322857
O O2 0.146698 0.408322 0.191166
O O3 0.266010 0.653576 0.323196
O O4 0.147348 0.908378 0.195605
O O5 0.608324 0.595005 0.908836
O O6 0.620048 0.038252 0.926112
O O7 0.750000 0.750000 0.000000
O O8 0.913725 0.133160 0.465381
O O9 0.506410 0.668282 0.386147
O O10 0.497680 0.159402 0.368127
O O11 0.500000 0.119892 0.750000
#
# Coordination Sequence:
#
# PCOD9268828 Si02
#       5
#     8   8   8   8   8
#     4  10  20  33  53  81 124 148 183 231 298 342
#     4  10  22  37  61  93 116 146 195 251 285 335
#     4  10  20  34  52  83 118 156 179 230 295 354
#     4  10  21  37  61  83 113 153 196 235 283 342
#     4  10  22  38  61  85 114 153 196 241 287 342
#
# _framework density 23.319835000000001
#
# number of rings (size 3 to 8) (size 9 to 14) (size 15 to 20)
#    1.200    0.800    2.000    1.800    2.800    2.400 
#    0.000    0.000    0.000    7.200    0.000    0.000 
#    0.000    0.000    0.000    0.000    0.000    0.000 
#
# Total GULP energy -111772.764624 kJ/mol
# GULP energy per Si atom -5588.638231 kJ/mol
# Density = 2.326676 g / cm^3
# Si number density = 23.319835 Si / 1000 Ang^3
#
#
#
# Elastic Constant Matrix: (Units=GPa)
#
#
# Indices 1 2 3 4 5 6 
#
# 1 105.5845 27.3080 12.6338 0.0000 -1.5597 0.0002
# 2 27.3080 191.9560 72.0375 0.0000 1.5604 -0.0001
# 3 12.6338 72.0375 142.1254 0.0000 1.0014 0.0004
# 4 0.0000 0.0000 0.0000 28.9853 0.0003 5.6432
# 5 -1.5597 1.5604 1.0014 0.0003 39.8079 0.0000
# 6 0.0002 -0.0001 0.0004 5.6432 0.0000 32.4767
#
#
#
# Elastic Compliance Matrix: (Units=1/GPa)
#
#
# Indices 1 2 3 4 5 6 
#
# 1 0.009845 -0.001327 -0.000206 0.000000 0.000443 0.000000
# 2 -0.001327 0.006613 -0.003232 0.000000 -0.000230 0.000000
# 3 -0.000206 -0.003232 0.008693 0.000000 -0.000100 0.000000
# 4 0.000000 0.000000 0.000000 0.035708 0.000000 -0.006205
# 5 0.000443 -0.000230 -0.000100 0.000000 0.025150 0.000000
# 6 0.000000 0.000000 0.000000 -0.006205 0.000000 0.031869
#
#
# Mechanical properties :
#
#
# Convention : Reuss Voigt Hill
#
# Bulk Modulus (GPa) = 64.01287 73.73606 68.87446
# Shear Modulus (GPa) = 37.70258 42.09974 39.90116
#
# Velocity S-wave (km/s) = 4.02526 4.25351 4.14096
# Velocity P-wave (km/s) = 7.00808 7.47069 7.24308
#
# Compressibility (1/GPa) = 0.01562186
#
# Stress axis : x y z
#
# Youngs Moduli (GPa) = 101.56962 151.21179 115.02990
#
# Poissons Ratio (x) = 0.20067 0.02366
# Poissons Ratio (y) = 0.13479 0.37182
# Poissons Ratio (z) = 0.02089 0.48878
#
# Static dielectric constant tensor:
#      x y z
#    x 1.934830 0.000000 0.055890 
#    y 0.000000 1.886450 0.000000 
#    z 0.055890 0.000000 1.810450 
# 
# From -- ./inp_files/223460.got.cif
#   From: 2010.05.17/outbox.cif.g08.bks.cpg/sg15_112_cif.got.tgz:223460.got - 2010.06.03 18:47:42.
