data_PCOD9268786
_publ_section_title
;
Structure prediction by ZEFSAII (Michael W. Deem and Ramdas Pophale) SiO2 
 PCOD9268786
Probable space group: C 2/C
;
_chemical_formula_sum "Si O2"
_cell_formula_units_Z 48
_cell_length_a 5.629217
_cell_length_b 30.196071
_cell_length_c 17.668510
_cell_angle_alpha 90.000000
_cell_angle_beta 41.837568
_cell_angle_gamma 90.000000
_cell_volume 2003.262878
_symmetry_space_group_name_H-M "C 2/C"
_symmetry_group_IT_number 15
_symmetry_cell_setting 'monoclinic'
loop_
_space_group_symop_operation_xyz
x,y,z
-x,y,1/2-z
-x,-y,-z
x,-y,1/2+z
1/2+x,1/2+y,z
1/2-x,1/2+y,1/2-z
1/2-x,1/2-y,-z
1/2+x,1/2-y,1/2+z
loop_
_atom_site_type_symbol
_atom_site_label
_atom_site_fract_x
_atom_site_fract_y
_atom_site_fract_z
Si Si1 0.861953 0.137083 0.455985
Si Si2 0.405858 0.553197 0.357265
Si Si3 0.273752 0.224226 0.073298
Si Si4 0.063289 0.028359 0.561238
Si Si5 0.424399 0.688565 0.599537
Si Si6 0.967593 0.890015 0.342500
O O1 0.032283 0.091434 0.385694
O O2 0.949761 0.178847 0.380037
O O3 0.447222 0.122925 0.549236
O O4 0.917433 0.156950 0.526525
O O5 0.500000 0.566363 0.250000
O O6 0.558439 0.505837 0.345049
O O7 0.982514 0.541794 0.462387
O O8 0.211880 0.266036 0.140856
O O9 0.250000 0.250000 0.000000
O O10 0.670157 0.206032 0.991394
O O11 0.900633 0.075380 0.625153
O O12 0.000000 0.000000 0.500000
O O13 0.349232 0.657496 0.689356
O O14 0.000000 0.907995 0.250000
#
# Coordination Sequence:
#
# PCOD9268786 Si02
#       6
#     8   8   8   8   8   8
#     4   9  18  33  54  77 108 147 186 232 286 346
#     4  10  21  37  57  81 115 146 188 243 292 348
#     4   8  15  29  53  76 101 143 188 227 278 333
#     4  10  21  38  57  81 109 150 193 236 292 356
#     4   9  16  30  53  76 105 147 184 229 283 343
#     4  10  20  33  52  80 111 140 188 240 289 345
#
# _framework density 23.960909000000001
#
# number of rings (size 3 to 8) (size 9 to 14) (size 15 to 20)
#    0.000    2.667    0.000    1.500    0.000    1.333 
#    0.000    1.667   22.000    0.000    0.000    0.000 
#    0.000    0.000    0.000    0.000    0.000    0.000 
#
# Total GULP energy -133628.202588 kJ/mol
# GULP energy per Si atom -5567.841775 kJ/mol
# Density = 2.390637 g / cm^3
# Si number density = 23.960909 Si / 1000 Ang^3
#
#
#
# Elastic Constant Matrix: (Units=GPa)
#
#
# Indices 1 2 3 4 5 6 
#
# 1 70.9906 37.7947 12.3819 0.0000 16.5794 0.0000
# 2 37.7947 216.1958 43.7611 0.0000 26.6635 0.0000
# 3 12.3819 43.7611 70.6894 -0.0001 18.3155 0.0002
# 4 0.0000 0.0000 -0.0001 9.8329 0.0000 25.9267
# 5 16.5794 26.6635 18.3155 0.0000 25.3241 -0.0001
# 6 0.0000 0.0000 0.0002 25.9267 -0.0001 50.9621
#
#
#
# Elastic Compliance Matrix: (Units=1/GPa)
#
#
# Indices 1 2 3 4 5 6 
#
# 1 0.017288 -0.001963 0.000719 0.000000 -0.009772 0.000000
# 2 -0.001963 0.005851 -0.002480 0.000000 -0.003082 0.000000
# 3 0.000719 -0.002480 0.018460 -0.000001 -0.011211 0.000001
# 4 0.000000 0.000000 -0.000001 -0.297870 0.000002 0.151540
# 5 -0.009772 -0.003082 -0.011211 0.000002 0.057238 -0.000001
# 6 0.000000 0.000000 0.000001 0.151540 -0.000001 -0.057473
#
#
# Mechanical properties :
#
#
# Convention : Reuss Voigt Hill
#
# Bulk Modulus (GPa) = 29.28118 60.63905 44.96011
# Shear Modulus (GPa) = -21.03721 34.81968 6.89124
#
# Velocity S-wave (km/s) = -2.96629 3.81620 1.69773
# Velocity P-wave (km/s) = 0.71771 6.69181 4.75896
#
# Compressibility (1/GPa) = 0.03415163
#
# Stress axis : x y z
#
# Youngs Moduli (GPa) = 57.84374 170.92553 54.17029
#
# Poissons Ratio (x) = 0.33545 -0.03893
# Poissons Ratio (y) = 0.11352 0.13432
# Poissons Ratio (z) = -0.04157 0.42383
#
# Static dielectric constant tensor:
#      x y z
#    x 3.324050 0.000000 1.117200 
#    y 0.000000 1.874720 0.000000 
#    z 1.117200 0.000000 2.844320 
# 
# From -- ./inp_files/130591.got.cif
#   From: 2010.05.17/outbox.cif.g08.bks.cpg/sg15_66_cif.got.tgz:130591.got - 2010.06.03 18:47:42.
