data_PCOD9268951
_publ_section_title
;
Structure prediction by ZEFSAII (Michael W. Deem and Ramdas Pophale) SiO2 
 PCOD9268951
Probable space group: C 2/C
;
_chemical_formula_sum "Si O2"
_cell_formula_units_Z 44
_cell_length_a 16.955126
_cell_length_b 22.434573
_cell_length_c 16.414583
_cell_angle_alpha 90.000000
_cell_angle_beta 160.803373
_cell_angle_gamma 90.000000
_cell_volume 2053.029023
_symmetry_space_group_name_H-M "C 2/C"
_symmetry_group_IT_number 15
_symmetry_cell_setting 'monoclinic'
loop_
_space_group_symop_operation_xyz
x,y,z
-x,y,1/2-z
-x,-y,-z
x,-y,1/2+z
1/2+x,1/2+y,z
1/2-x,1/2+y,1/2-z
1/2-x,1/2-y,-z
1/2+x,1/2-y,1/2+z
loop_
_atom_site_type_symbol
_atom_site_label
_atom_site_fract_x
_atom_site_fract_y
_atom_site_fract_z
Si Si1 0.381503 0.262349 0.256535
Si Si2 0.000000 0.410699 0.250000
Si Si3 0.143832 0.999427 0.811345
Si Si4 0.839652 0.841282 0.867849
Si Si5 0.949928 0.434795 0.486873
Si Si6 0.654315 0.607747 0.548782
O O1 0.633116 0.239177 0.466025
O O2 0.328715 0.215961 0.279749
O O3 0.449430 0.325206 0.362447
O O4 0.151104 0.453935 0.456687
O O5 0.194474 0.376422 0.384251
O O6 0.268438 0.051201 0.882591
O O7 0.000000 0.021038 0.750000
O O8 0.965991 0.956943 0.586058
O O9 0.690352 0.899908 0.745309
O O10 0.946489 0.850073 0.882072
O O11 0.000000 0.500000 0.500000
O O12 0.834299 0.398929 0.299614
#
# Coordination Sequence:
#
# PCOD9268951 Si02
#       6
#     8   4   8   8   8   8
#     4   8  18  35  51  80 111 148 198 243 294 334
#     4  10  20  36  50  78 118 162 192 226 302 354
#     4  10  22  35  52  79 125 159 186 235 294 365
#     4  10  20  33  57  81 115 155 195 254 287 348
#     4  12  21  34  55  93 117 149 199 240 295 362
#     4  11  20  34  55  82 116 160 194 238 292 352
#
# _framework density 21.431747999999999
#
# number of rings (size 3 to 8) (size 9 to 14) (size 15 to 20)
#    1.091    0.727    3.636    1.636    0.000    0.000 
#    0.000    0.000    0.000    1.091    0.000    1.273 
#    0.000    0.182    0.000    0.000    0.000    0.000 
#
# Total GULP energy -122567.423055 kJ/mol
# GULP energy per Si atom -5571.246502 kJ/mol
# Density = 2.138297 g / cm^3
# Si number density = 21.431748 Si / 1000 Ang^3
#
#
#
# Elastic Constant Matrix: (Units=GPa)
#
#
# Indices 1 2 3 4 5 6 
#
# 1 138.6345 28.6869 35.5372 -0.0008 43.6958 0.0004
# 2 28.6869 66.2568 19.3983 -0.0019 16.4590 0.0003
# 3 35.5372 19.3983 111.5440 -0.0033 21.6036 0.0000
# 4 -0.0008 -0.0019 -0.0033 29.1299 -0.0012 26.6322
# 5 43.6958 16.4590 21.6036 -0.0012 38.1119 0.0008
# 6 0.0004 0.0003 0.0000 26.6322 0.0008 -18.3368
#
#
#
# Elastic Compliance Matrix: (Units=1/GPa)
#
#
# Indices 1 2 3 4 5 6 
#
# 1 0.011620 -0.001744 -0.001083 0.000000 -0.011955 0.000000
# 2 -0.001744 0.017465 -0.001582 0.000000 -0.004646 0.000000
# 3 -0.001083 -0.001582 0.010349 0.000000 -0.003941 0.000000
# 4 0.000000 0.000000 0.000000 0.014747 0.000000 0.021418
# 5 -0.011955 -0.004646 -0.003941 0.000000 0.044186 0.000001
# 6 0.000000 0.000000 0.000000 0.021418 0.000001 -0.023427
#
#
# Mechanical properties :
#
#
# Convention : Reuss Voigt Hill
#
# Bulk Modulus (GPa) = 32.66335 53.74226 43.20280
# Shear Modulus (GPa) = 53.21265 25.30185 39.25725
#
# Velocity S-wave (km/s) = 4.98827 3.43968 4.28452
# Velocity P-wave (km/s) = 6.96066 6.39575 6.68418
#
# Compressibility (1/GPa) = 0.03061536
#
# Stress axis : x y z
#
# Youngs Moduli (GPa) = 86.05931 57.25669 96.63189
#
# Poissons Ratio (x) = 0.09986 0.10468
# Poissons Ratio (y) = 0.15009 0.15285
# Poissons Ratio (z) = 0.09323 0.09057
#
# Static dielectric constant tensor:
#      x y z
#    x 1.804900 0.000000 0.042070 
#    y 0.000000 1.740330 0.000000 
#    z 0.042070 0.000000 1.899850 
# 
# From -- ./inp_files/212015.got.cif
#   From: 2010.05.17/outbox.cif.g08.bks.cpg/sg15_107_cif.got.tgz:212015.got - 2010.06.03 18:47:42.
