data_PCOD9268181
_publ_section_title
;
Structure prediction by ZEFSAII (Michael W. Deem and Ramdas Pophale) SiO2 
 PCOD9268181
Probable space group: C 2/C
;
_chemical_formula_sum "Si O2"
_cell_formula_units_Z 48
_cell_length_a 13.728349
_cell_length_b 12.445199
_cell_length_c 13.739146
_cell_angle_alpha 90.000000
_cell_angle_beta 89.457678
_cell_angle_gamma 90.000000
_cell_volume 2347.255905
_symmetry_space_group_name_H-M "C 2/C"
_symmetry_group_IT_number 15
_symmetry_cell_setting 'monoclinic'
loop_
_space_group_symop_operation_xyz
x,y,z
-x,y,1/2-z
-x,-y,-z
x,-y,1/2+z
1/2+x,1/2+y,z
1/2-x,1/2+y,1/2-z
1/2-x,1/2-y,-z
1/2+x,1/2-y,1/2+z
loop_
_atom_site_type_symbol
_atom_site_label
_atom_site_fract_x
_atom_site_fract_y
_atom_site_fract_z
Si Si1 0.831073 0.820993 0.701673
Si Si2 0.109615 0.471073 0.027229
Si Si3 0.835354 0.285427 0.925605
Si Si4 0.393229 0.902445 0.262776
Si Si5 0.743986 0.535152 0.134573
Si Si6 0.089169 0.083979 0.498673
O O1 0.720595 0.782446 0.676301
O O2 0.893966 0.713905 0.713013
O O3 0.820953 0.884193 0.802069
O O4 0.874115 0.891962 0.612255
O O5 0.145389 0.590701 0.054553
O O6 0.121488 0.398287 0.121931
O O7 0.172428 0.422685 0.938929
O O8 0.000000 0.500000 0.000000
O O9 0.921896 0.202575 0.950370
O O10 0.750000 0.250000 0.000000
O O11 0.500000 0.955045 0.250000
O O12 0.306475 0.966310 0.211671
O O13 0.672818 0.467881 0.065551
O O14 0.000000 0.000000 0.500000
#
# Coordination Sequence:
#
# PCOD9268181 Si02
#       6
#     8   8   8   8   8   8
#     4  11  24  42  70  99 135 186 231 278 358 414
#     4  12  24  41  70 102 135 176 234 288 340 407
#     4  10  19  43  68  91 132 183 221 270 348 410
#     4  12  25  41  70 101 131 185 235 279 346 425
#     4  12  22  44  69  95 143 175 227 292 336 412
#     4  11  24  42  71 101 135 183 230 283 343 413
#
# _framework density 20.449411000000001
#
# number of rings (size 3 to 8) (size 9 to 14) (size 15 to 20)
#    0.000    0.667    8.333    1.000    2.333    0.667 
#    0.000    1.667    7.333    0.000    0.000    0.000 
#    0.000    0.000    0.000    0.000    0.000    0.000 
#
# Total GULP energy -133812.750017 kJ/mol
# GULP energy per Si atom -5575.531251 kJ/mol
# Density = 2.040287 g / cm^3
# Si number density = 20.449411 Si / 1000 Ang^3
#
#
#
# Elastic Constant Matrix: (Units=GPa)
#
#
# Indices 1 2 3 4 5 6 
#
# 1 68.5633 6.0498 6.2598 0.0000 19.2364 0.0000
# 2 6.0498 45.6100 0.1610 0.0000 5.2607 0.0000
# 3 6.2598 0.1610 110.8560 0.0000 0.7749 0.0000
# 4 0.0000 0.0000 0.0000 41.4041 0.0000 6.5277
# 5 19.2364 5.2607 0.7749 0.0000 29.4888 0.0000
# 6 0.0000 0.0000 0.0000 6.5277 0.0000 37.6875
#
#
#
# Elastic Compliance Matrix: (Units=1/GPa)
#
#
# Indices 1 2 3 4 5 6 
#
# 1 0.017998 -0.001054 -0.000934 0.000000 -0.011528 0.000000
# 2 -0.001054 0.022447 0.000050 0.000000 -0.003318 0.000000
# 3 -0.000934 0.000050 0.009071 0.000000 0.000362 0.000000
# 4 0.000000 0.000000 0.000000 0.024830 0.000000 -0.004301
# 5 -0.011528 -0.003318 0.000362 0.000000 0.042014 0.000000
# 6 0.000000 0.000000 0.000000 -0.004301 0.000000 0.027279
#
#
# Mechanical properties :
#
#
# Convention : Reuss Voigt Hill
#
# Bulk Modulus (GPa) = 21.91100 27.77451 24.84275
# Shear Modulus (GPa) = 30.72601 35.88663 33.30632
#
# Velocity S-wave (km/s) = 3.88046 4.19369 4.04012
# Velocity P-wave (km/s) = 5.55116 6.08777 5.82565
#
# Compressibility (1/GPa) = 0.04563917
#
# Stress axis : x y z
#
# Youngs Moduli (GPa) = 55.56272 44.54860 110.24310
#
# Poissons Ratio (x) = 0.04697 0.10299
# Poissons Ratio (y) = 0.05858 -0.00553
# Poissons Ratio (z) = 0.05191 -0.00223
#
# Static dielectric constant tensor:
#      x y z
#    x 1.798860 0.000000 0.041930 
#    y 0.000000 1.772400 0.000000 
#    z 0.041930 0.000000 1.792150 
# 
# From -- ./inp_files/152013.got.cif
#   From: 2010.05.17/outbox.cif.g08.bks.cpg/sg15_77_cif.got.tgz:152013.got - 2010.06.03 18:47:42.
