data_PCOD9268389
_publ_section_title
;
Structure prediction by ZEFSAII (Michael W. Deem and Ramdas Pophale) SiO2 
 PCOD9268389
Probable space group: C 2/C
;
_chemical_formula_sum "Si O2"
_cell_formula_units_Z 60
_cell_length_a 30.271814
_cell_length_b 15.919772
_cell_length_c 5.720216
_cell_angle_alpha 90.000000
_cell_angle_beta 60.667514
_cell_angle_gamma 90.000000
_cell_volume 2403.258171
_symmetry_space_group_name_H-M "C 2/C"
_symmetry_group_IT_number 15
_symmetry_cell_setting 'monoclinic'
loop_
_space_group_symop_operation_xyz
x,y,z
-x,y,1/2-z
-x,-y,-z
x,-y,1/2+z
1/2+x,1/2+y,z
1/2-x,1/2+y,1/2-z
1/2-x,1/2-y,-z
1/2+x,1/2-y,1/2+z
loop_
_atom_site_type_symbol
_atom_site_label
_atom_site_fract_x
_atom_site_fract_y
_atom_site_fract_z
Si Si1 0.450884 0.269948 0.490808
Si Si2 0.662508 0.918343 0.314803
Si Si3 0.657968 0.673428 0.089434
Si Si4 0.500000 0.152212 0.750000
Si Si5 0.945022 0.401848 0.779395
Si Si6 0.621323 0.495028 0.170510
Si Si7 0.697059 0.894785 0.727227
Si Si8 0.310167 0.329477 0.494484
O O1 0.402219 0.317022 0.709707
O O2 0.472686 0.212939 0.640927
O O3 0.433509 0.197955 0.353330
O O4 0.500000 0.315222 0.250000
O O5 0.604108 0.945410 0.497082
O O6 0.675951 0.871732 0.523425
O O7 0.695507 0.003055 0.221452
O O8 0.668177 0.875287 0.046954
O O9 0.662586 0.571282 0.062132
O O10 0.685462 0.706026 0.252300
O O11 0.675018 0.710958 0.795684
O O12 0.542631 0.094648 0.524243
O O13 0.000000 0.419579 0.750000
O O14 0.593363 0.498645 0.493279
O O15 0.650139 0.406690 0.093916
O O16 0.753486 0.861339 0.606504
#
# Coordination Sequence:
#
# PCOD9268389 Si02
#       8
#     8   8   8   4   8   8   8   8
#     4   9  20  36  59  87 112 146 196 245 286 344
#     4  10  22  35  60  87 117 151 190 239 288 331
#     4  10  20  31  57  85 110 146 194 237 282 336
#     4   8  18  36  64  78 112 140 204 228 294 342
#     4   9  20  38  61  85 113 154 193 235 286 352
#     4   8  16  27  46  72 103 133 184 219 264 322
#     4  10  22  36  56  85 119 149 195 235 281 344
#     4  10  20  33  56  82 112 152 199 229 275 344
#
# _framework density 24.966106
#
# number of rings (size 3 to 8) (size 9 to 14) (size 15 to 20)
#    0.000    2.933    0.000    0.800   18.667    0.000 
#    0.000    2.667    0.000   12.000    0.000    0.000 
#    0.000    0.000    0.000    0.000    0.000    0.000 
#
# Total GULP energy -167357.363963 kJ/mol
# GULP energy per Si atom -5578.578799 kJ/mol
# Density = 2.490928 g / cm^3
# Si number density = 24.966106 Si / 1000 Ang^3
#
#
#
# Elastic Constant Matrix: (Units=GPa)
#
#
# Indices 1 2 3 4 5 6 
#
# 1 81.0902 5.5316 65.9241 0.0000 8.0797 0.0000
# 2 5.5316 52.3992 22.8867 0.0000 11.4313 0.0000
# 3 65.9241 22.8867 198.8337 0.0000 33.3109 0.0000
# 4 0.0000 0.0000 0.0000 14.4964 0.0000 20.5116
# 5 8.0797 11.4313 33.3109 0.0000 64.0670 0.0000
# 6 0.0000 0.0000 0.0000 20.5116 0.0000 2.0831
#
#
#
# Elastic Compliance Matrix: (Units=1/GPa)
#
#
# Indices 1 2 3 4 5 6 
#
# 1 0.016942 0.000581 -0.005815 0.000000 0.000783 0.000000
# 2 0.000581 0.020521 -0.002113 0.000000 -0.002636 0.000000
# 3 -0.005815 -0.002113 0.007684 0.000000 -0.002885 0.000000
# 4 0.000000 0.000000 0.000000 -0.005334 0.000000 0.052523
# 5 0.000783 -0.002636 -0.002885 0.000000 0.017480 0.000000
# 6 0.000000 0.000000 0.000000 0.052523 0.000000 -0.037120
#
#
# Mechanical properties :
#
#
# Convention : Reuss Voigt Hill
#
# Bulk Modulus (GPa) = 32.83906 57.88975 45.36441
# Shear Modulus (GPa) = 111.06603 31.99471 71.53037
#
# Velocity S-wave (km/s) = 6.67707 3.58372 5.35847
# Velocity P-wave (km/s) = 8.52211 6.35309 7.51626
#
# Compressibility (1/GPa) = 0.03045154
#
# Stress axis : x y z
#
# Youngs Moduli (GPa) = 59.02523 48.73076 130.14260
#
# Poissons Ratio (x) = -0.02829 0.75681
# Poissons Ratio (y) = -0.03427 0.27498
# Poissons Ratio (z) = 0.34324 0.10296
#
# Static dielectric constant tensor:
#      x y z
#    x 1.954930 0.000000 0.098480 
#    y 0.000000 2.071800 0.000000 
#    z 0.098480 0.000000 2.105010 
# 
# From -- ./inp_files/17686.got.cif
#   From: 2010.05.17/outbox.cif.g08.bks.cpg/sg15_9_cif.got.tgz:17686.got - 2010.06.03 18:47:42.
