data_PCOD9268175
_publ_section_title
;
Structure prediction by ZEFSAII (Michael W. Deem and Ramdas Pophale) SiO2 
 PCOD9268175
Probable space group: C 2/C
;
_chemical_formula_sum "Si O2"
_cell_formula_units_Z 32
_cell_length_a 7.859660
_cell_length_b 11.697732
_cell_length_c 16.011721
_cell_angle_alpha 90.000000
_cell_angle_beta 118.263484
_cell_angle_gamma 90.000000
_cell_volume 1296.613536
_symmetry_space_group_name_H-M "C 2/C"
_symmetry_group_IT_number 15
_symmetry_cell_setting 'monoclinic'
loop_
_space_group_symop_operation_xyz
x,y,z
-x,y,1/2-z
-x,-y,-z
x,-y,1/2+z
1/2+x,1/2+y,z
1/2-x,1/2+y,1/2-z
1/2-x,1/2-y,-z
1/2+x,1/2-y,1/2+z
loop_
_atom_site_type_symbol
_atom_site_label
_atom_site_fract_x
_atom_site_fract_y
_atom_site_fract_z
Si Si1 0.661139 0.740836 0.570241
Si Si2 0.000000 0.079675 0.750000
Si Si3 0.226001 0.499869 0.325138
Si Si4 0.500000 0.715478 0.250000
Si Si5 0.310851 0.754813 0.386538
O O1 0.788958 0.817056 0.662000
O O2 0.696532 0.610079 0.606585
O O3 0.444278 0.777893 0.497879
O O4 0.083958 0.729900 0.680895
O O5 0.129232 0.162220 0.837294
O O6 0.134074 0.003420 0.722787
O O7 0.255845 0.621467 0.375219
O O8 0.000000 0.488061 0.250000
O O9 0.750000 0.750000 0.500000
#
# Coordination Sequence:
#
# PCOD9268175 Si02
#       5
#     8   4   8   4   8
#     4  10  20  39  70  94 133 181 219 278 343 390
#     4  12  25  43  70 102 138 182 223 281 338 396
#     4  12  23  44  67  98 141 177 227 280 335 403
#     4  10  19  43  66  94 136 174 227 283 330 402
#     4  11  23  41  68 100 133 184 225 274 345 399
#
# _framework density 24.679673999999999
#
# number of rings (size 3 to 8) (size 9 to 14) (size 15 to 20)
#    0.000    1.000    5.000    3.000    0.000    1.000 
#    0.000    0.000    0.000   13.500    0.000    0.000 
#    0.000    0.000    0.000    0.000    0.000    0.000 
#
# Total GULP energy -89268.567309 kJ/mol
# GULP energy per Si atom -5579.285457 kJ/mol
# Density = 2.462350 g / cm^3
# Si number density = 24.679674 Si / 1000 Ang^3
#
#
#
# Elastic Constant Matrix: (Units=GPa)
#
#
# Indices 1 2 3 4 5 6 
#
# 1 127.4810 25.8949 67.2924 0.0000 20.3491 0.0000
# 2 25.8949 113.8065 56.0835 0.0000 4.9101 0.0000
# 3 67.2924 56.0835 235.5126 0.0000 52.0761 0.0000
# 4 0.0000 0.0000 0.0000 36.6826 0.0000 8.8688
# 5 20.3491 4.9101 52.0761 0.0000 67.0373 0.0000
# 6 0.0000 0.0000 0.0000 8.8688 0.0000 -26.3240
#
#
#
# Elastic Compliance Matrix: (Units=1/GPa)
#
#
# Indices 1 2 3 4 5 6 
#
# 1 0.009382 -0.001001 -0.002208 0.000000 -0.001059 0.000000
# 2 -0.001001 0.010163 -0.002459 0.000000 0.001470 0.000000
# 3 -0.002208 -0.002459 0.006368 0.000000 -0.004097 0.000000
# 4 0.000000 0.000000 0.000000 0.025208 0.000000 0.008493
# 5 -0.001059 0.001470 -0.004097 0.000000 0.018313 0.000000
# 6 0.000000 0.000000 0.000000 0.008493 0.000000 -0.035127
#
#
# Mechanical properties :
#
#
# Convention : Reuss Voigt Hill
#
# Bulk Modulus (GPa) = 68.59985 86.14909 77.37447
# Shear Modulus (GPa) = 99.00275 37.31447 68.15861
#
# Velocity S-wave (km/s) = 6.34052 3.89260 5.26092
# Velocity P-wave (km/s) = 9.02548 7.42871 8.26575
#
# Compressibility (1/GPa) = 0.01457729
#
# Stress axis : x y z
#
# Youngs Moduli (GPa) = 106.58326 98.39575 157.02328
#
# Poissons Ratio (x) = 0.09848 0.34674
# Poissons Ratio (y) = 0.10668 0.38615
# Poissons Ratio (z) = 0.23536 0.24197
#
# Static dielectric constant tensor:
#      x y z
#    x 2.193090 0.000000 0.066900 
#    y 0.000000 2.245830 0.000000 
#    z 0.066900 0.000000 1.918340 
# 
# From -- ./inp_files/128412.got.cif
#   From: 2010.05.17/outbox.cif.g08.bks.cpg/sg15_65_cif.got.tgz:128412.got - 2010.06.03 18:47:42.
