data_PCOD9268550
_publ_section_title
;
Structure prediction by ZEFSAII (Michael W. Deem and Ramdas Pophale) SiO2 
 PCOD9268550
Probable space group: C 2/C
;
_chemical_formula_sum "Si O2"
_cell_formula_units_Z 44
_cell_length_a 19.563831
_cell_length_b 22.341468
_cell_length_c 5.238562
_cell_angle_alpha 90.000000
_cell_angle_beta 96.090143
_cell_angle_gamma 90.000000
_cell_volume 2276.772765
_symmetry_space_group_name_H-M "C 2/C"
_symmetry_group_IT_number 15
_symmetry_cell_setting 'monoclinic'
loop_
_space_group_symop_operation_xyz
x,y,z
-x,y,1/2-z
-x,-y,-z
x,-y,1/2+z
1/2+x,1/2+y,z
1/2-x,1/2+y,1/2-z
1/2-x,1/2-y,-z
1/2+x,1/2-y,1/2+z
loop_
_atom_site_type_symbol
_atom_site_label
_atom_site_fract_x
_atom_site_fract_y
_atom_site_fract_z
Si Si1 0.075281 0.332626 0.407157
Si Si2 0.000000 0.744920 0.250000
Si Si3 0.416645 0.968164 0.192425
Si Si4 0.083132 0.965190 0.291741
Si Si5 0.382478 0.327563 0.112408
Si Si6 0.825002 0.229275 0.112116
O O1 0.056965 0.301255 0.666973
O O2 0.098306 0.400963 0.404648
O O3 0.131112 0.288985 0.310213
O O4 0.000000 0.329639 0.250000
O O5 0.953809 0.792123 0.070691
O O6 0.500000 0.972071 0.250000
O O7 0.392049 0.986348 0.463754
O O8 0.105976 0.898046 0.362083
O O9 0.000000 0.964677 0.250000
O O10 0.105920 0.009598 0.527029
O O11 0.359070 0.304334 0.382463
O O12 0.329575 0.310714 0.867640
O O13 0.750000 0.250000 0.000000
#
# Coordination Sequence:
#
# PCOD9268550 Si02
#       6
#     8   4   8   8   8   8
#     4  10  20  34  57  81 114 141 187 235 284 345
#     4  10  20  32  54  90 110 148 186 242 288 340
#     4   9  19  30  48  75 107 139 174 222 278 327
#     4  10  20  34  56  89 123 155 194 247 301 349
#     4  11  21  38  60  83 121 153 199 237 298 352
#     4  11  24  39  59  87 118 156 193 244 299 355
#
# _framework density 19.325600999999999
#
# number of rings (size 3 to 8) (size 9 to 14) (size 15 to 20)
#    0.000    1.818    2.727    1.636    6.364    0.000 
#    0.000    0.000    0.000    6.545    0.000    0.000 
#    0.000    0.000    0.000    0.000    0.000    0.000 
#
# Total GULP energy -122548.097713 kJ/mol
# GULP energy per Si atom -5570.368078 kJ/mol
# Density = 1.928162 g / cm^3
# Si number density = 19.325601 Si / 1000 Ang^3
#
#
#
# Elastic Constant Matrix: (Units=GPa)
#
#
# Indices 1 2 3 4 5 6 
#
# 1 27.4767 22.2245 2.8826 0.0000 15.1617 0.0000
# 2 22.2245 154.7954 53.4840 0.0000 10.1774 0.0000
# 3 2.8826 53.4840 102.9177 0.0000 10.5903 0.0000
# 4 0.0000 0.0000 0.0000 32.3864 0.0000 1.2513
# 5 15.1617 10.1774 10.5903 0.0000 22.2313 0.0000
# 6 0.0000 0.0000 0.0000 1.2513 0.0000 7.8594
#
#
#
# Elastic Compliance Matrix: (Units=1/GPa)
#
#
# Indices 1 2 3 4 5 6 
#
# 1 0.068826 -0.009529 0.007787 0.000000 -0.046286 0.000000
# 2 -0.009529 0.009258 -0.005023 0.000000 0.004653 0.000000
# 3 0.007787 -0.005023 0.013059 0.000000 -0.009232 0.000000
# 4 0.000000 0.000000 0.000000 0.031068 0.000000 -0.004946
# 5 -0.046286 0.004653 -0.009232 0.000000 0.078816 0.000000
# 6 0.000000 0.000000 0.000000 -0.004946 0.000000 0.128024
#
#
# Mechanical properties :
#
#
# Convention : Reuss Voigt Hill
#
# Bulk Modulus (GPa) = 12.88447 49.15244 31.01846
# Shear Modulus (GPa) = 13.57029 26.26865 19.91947
#
# Velocity S-wave (km/s) = 2.65277 3.69082 3.21398
# Velocity P-wave (km/s) = 4.00804 6.60696 5.46426
#
# Compressibility (1/GPa) = 0.07761280
#
# Stress axis : x y z
#
# Youngs Moduli (GPa) = 14.52942 108.01686 76.57720
#
# Poissons Ratio (x) = 1.02928 -0.59631
# Poissons Ratio (y) = 0.13845 0.38465
# Poissons Ratio (z) = -0.11314 0.54257
#
# Static dielectric constant tensor:
#      x y z
#    x 1.688720 0.000000 -0.009770 
#    y 0.000000 1.654440 0.000000 
#    z -0.009770 0.000000 1.712080 
# 
# From -- ./inp_files/10328.got.cif
#   From: 2010.05.17/outbox.cif.g08.bks.cpg/sg15_6_cif.got.tgz:10328.got - 2010.06.03 18:47:42.
