data_PCOD9268289
_publ_section_title
;
Structure prediction by ZEFSAII (Michael W. Deem and Ramdas Pophale) SiO2 
 PCOD9268289
Probable space group: C 2/C
;
_chemical_formula_sum "Si O2"
_cell_formula_units_Z 44
_cell_length_a 20.905830
_cell_length_b 8.462354
_cell_length_c 10.863181
_cell_angle_alpha 90.000000
_cell_angle_beta 81.080983
_cell_angle_gamma 90.000000
_cell_volume 1898.594963
_symmetry_space_group_name_H-M "C 2/C"
_symmetry_group_IT_number 15
_symmetry_cell_setting 'monoclinic'
loop_
_space_group_symop_operation_xyz
x,y,z
-x,y,1/2-z
-x,-y,-z
x,-y,1/2+z
1/2+x,1/2+y,z
1/2-x,1/2+y,1/2-z
1/2-x,1/2-y,-z
1/2+x,1/2-y,1/2+z
loop_
_atom_site_type_symbol
_atom_site_label
_atom_site_fract_x
_atom_site_fract_y
_atom_site_fract_z
Si Si1 0.762764 0.718156 0.261738
Si Si2 0.868819 0.112034 0.891800
Si Si3 0.247004 0.066986 0.937407
Si Si4 0.500000 0.627566 0.750000
Si Si5 0.467145 0.061046 0.134869
Si Si6 0.148882 0.605855 0.934622
O O1 0.826399 0.800911 0.299173
O O2 0.745167 0.960749 0.691502
O O3 0.701732 0.793433 0.348349
O O4 0.757012 0.758536 0.119786
O O5 0.818545 0.995523 0.975909
O O6 0.936150 0.041353 0.820865
O O7 0.887741 0.260082 0.974591
O O8 0.311139 0.007865 0.987499
O O9 0.527702 0.750761 0.844660
O O10 0.500000 0.995523 0.250000
O O11 0.395173 0.995820 0.141685
O O12 0.500000 0.000000 0.000000
#
# Coordination Sequence:
#
# PCOD9268289 Si02
#       6
#     8   8   8   4   8   8
#     4   9  19  32  59  81 112 154 194 250 294 351
#     4   9  18  36  52  80 114 160 197 237 309 364
#     4   9  19  35  58  85 118 154 201 244 301 355
#     4  10  20  32  58  80 120 162 198 236 306 368
#     4  10  20  30  53  89 120 150 201 251 307 354
#     4   9  17  33  52  81 118 150 188 248 308 348
#
# _framework density 23.175035000000001
#
# number of rings (size 3 to 8) (size 9 to 14) (size 15 to 20)
#    0.545    2.182    1.818    2.182    7.636    0.000 
#    0.000    4.545    0.000    0.000    9.455    0.000 
#    0.000    0.000    0.000    0.000    0.000    0.000 
#
# Total GULP energy -122766.775851 kJ/mol
# GULP energy per Si atom -5580.307993 kJ/mol
# Density = 2.312229 g / cm^3
# Si number density = 23.175035 Si / 1000 Ang^3
#
#
#
# Elastic Constant Matrix: (Units=GPa)
#
#
# Indices 1 2 3 4 5 6 
#
# 1 130.9099 16.7299 35.7469 0.0000 -13.1833 0.0000
# 2 16.7299 40.7939 -2.9283 0.0000 -1.5346 0.0000
# 3 35.7469 -2.9283 91.1410 0.0000 2.8914 0.0000
# 4 0.0000 0.0000 0.0000 126.4594 0.0000 44.0623
# 5 -13.1833 -1.5346 2.8914 0.0000 41.2654 0.0000
# 6 0.0000 0.0000 0.0000 44.0623 0.0000 45.1085
#
#
#
# Elastic Compliance Matrix: (Units=1/GPa)
#
#
# Indices 1 2 3 4 5 6 
#
# 1 0.009571 -0.004091 -0.003986 0.000000 0.003185 0.000000
# 2 -0.004091 0.026350 0.002467 0.000000 -0.000500 0.000000
# 3 -0.003986 0.002467 0.012680 0.000000 -0.002070 0.000000
# 4 0.000000 0.000000 0.000000 0.011988 0.000000 -0.011710
# 5 0.003185 -0.000500 -0.002070 0.000000 0.025377 0.000000
# 6 0.000000 0.000000 0.000000 -0.011710 0.000000 0.033607
#
#
# Mechanical properties :
#
#
# Convention : Reuss Voigt Hill
#
# Bulk Modulus (GPa) = 26.75239 40.21576 33.48407
# Shear Modulus (GPa) = 34.90301 56.78644 45.84472
#
# Velocity S-wave (km/s) = 3.88501 4.95545 4.45251
# Velocity P-wave (km/s) = 5.62966 7.08044 6.39632
#
# Compressibility (1/GPa) = 0.03737984
#
# Stress axis : x y z
#
# Youngs Moduli (GPa) = 104.48236 37.95113 78.86136
#
# Poissons Ratio (x) = 0.15528 0.31437
# Poissons Ratio (y) = 0.42749 -0.19457
# Poissons Ratio (z) = 0.41651 -0.09363
#
# Static dielectric constant tensor:
#      x y z
#    x 1.884010 0.000000 0.027250 
#    y 0.000000 2.092510 0.000000 
#    z 0.027250 0.000000 1.938970 
# 
# From -- ./inp_files/110324.got.cif
#   From: 2010.05.17/outbox.cif.g08.bks.cpg/sg15_56_cif.got.tgz:110324.got - 2010.06.03 18:47:42.
