data_PCOD9268754
_publ_section_title
;
Structure prediction by ZEFSAII (Michael W. Deem and Ramdas Pophale) SiO2 
 PCOD9268754
Probable space group: C 2/C
;
_chemical_formula_sum "Si O2"
_cell_formula_units_Z 60
_cell_length_a 28.994735
_cell_length_b 18.587679
_cell_length_c 5.449963
_cell_angle_alpha 90.000000
_cell_angle_beta 57.399525
_cell_angle_gamma 90.000000
_cell_volume 2474.462800
_symmetry_space_group_name_H-M "C 2/C"
_symmetry_group_IT_number 15
_symmetry_cell_setting 'monoclinic'
loop_
_space_group_symop_operation_xyz
x,y,z
-x,y,1/2-z
-x,-y,-z
x,-y,1/2+z
1/2+x,1/2+y,z
1/2-x,1/2+y,1/2-z
1/2-x,1/2-y,-z
1/2+x,1/2-y,1/2+z
loop_
_atom_site_type_symbol
_atom_site_label
_atom_site_fract_x
_atom_site_fract_y
_atom_site_fract_z
Si Si1 0.099372 0.542222 0.416967
Si Si2 0.956203 0.659616 0.202723
Si Si3 0.500000 0.701704 0.750000
Si Si4 0.191415 0.720905 0.105741
Si Si5 0.347023 0.794791 0.279121
Si Si6 0.768954 0.459716 0.992435
Si Si7 0.660998 0.620260 0.683211
Si Si8 0.615292 0.367940 0.813262
O O1 0.086021 0.506616 0.715585
O O2 0.065474 0.615422 0.464721
O O3 0.165345 0.550362 0.207971
O O4 0.903753 0.673177 0.525687
O O5 0.981200 0.739839 0.095823
O O6 0.000000 0.620316 0.250000
O O7 0.552142 0.654555 0.528664
O O8 0.170726 0.679907 0.404642
O O9 0.154070 0.792636 0.184821
O O10 0.250000 0.750000 0.000000
O O11 0.192484 0.686216 0.833796
O O12 0.352064 0.708648 0.291300
O O13 0.757634 0.483576 0.304451
O O14 0.724352 0.399040 0.050547
O O15 0.638650 0.592689 0.486980
O O16 0.627553 0.595771 0.018056
#
# Coordination Sequence:
#
# PCOD9268754 Si02
#       8
#     8   8   4   8   8   8   8   8
#     4  10  23  42  59  84 115 151 205 262 298 341
#     4   9  20  39  63  83 113 163 200 248 300 347
#     4   8  18  38  62  88 124 160 192 238 294 354
#     4  10  20  33  51  82 115 148 175 231 288 358
#     4   9  19  35  50  79 114 143 191 226 277 354
#     4  10  21  39  60  85 117 155 200 247 297 347
#     4  10  20  34  57  85 115 150 194 233 294 350
#     4   9  18  35  55  85 119 147 192 228 276 361
#
# _framework density 24.247686000000002
#
# number of rings (size 3 to 8) (size 9 to 14) (size 15 to 20)
#    0.400    2.133    0.000    1.200    1.867    2.133 
#    4.800    6.000    0.000    0.000    0.000    9.333 
#    0.000    0.000    0.000    0.000    0.000    0.000 
#
# Total GULP energy -167519.694718 kJ/mol
# GULP energy per Si atom -5583.989824 kJ/mol
# Density = 2.419250 g / cm^3
# Si number density = 24.247686 Si / 1000 Ang^3
#
#
#
# Elastic Constant Matrix: (Units=GPa)
#
#
# Indices 1 2 3 4 5 6 
#
# 1 120.1587 28.7771 30.4033 0.0000 0.3180 0.0000
# 2 28.7771 47.3997 10.3612 0.0000 10.1286 0.0000
# 3 30.4033 10.3612 70.3358 0.0000 26.8492 0.0000
# 4 0.0000 0.0000 0.0000 11.5938 0.0000 2.3323
# 5 0.3180 10.1286 26.8492 0.0000 36.9478 0.0000
# 6 0.0000 0.0000 0.0000 2.3323 0.0000 33.9973
#
#
#
# Elastic Compliance Matrix: (Units=1/GPa)
#
#
# Indices 1 2 3 4 5 6 
#
# 1 0.011634 -0.007044 -0.006491 0.000000 0.006547 0.000000
# 2 -0.007044 0.026764 0.002601 0.000000 -0.009166 0.000000
# 3 -0.006491 0.002601 0.023375 0.000000 -0.017643 0.000000
# 4 0.000000 0.000000 0.000000 0.087460 0.000000 -0.006000
# 5 0.006547 -0.009166 -0.017643 0.000000 0.042343 0.000000
# 6 0.000000 0.000000 0.000000 -0.006000 0.000000 0.029826
#
#
# Mechanical properties :
#
#
# Convention : Reuss Voigt Hill
#
# Bulk Modulus (GPa) = 25.05859 41.88637 33.47248
# Shear Modulus (GPa) = 19.48789 27.73129 23.60959
#
# Velocity S-wave (km/s) = 2.83804 3.38548 3.12378
# Velocity P-wave (km/s) = 4.59305 5.70911 5.18122
#
# Compressibility (1/GPa) = 0.03990648
#
# Stress axis : x y z
#
# Youngs Moduli (GPa) = 85.95332 37.36425 42.78068
#
# Poissons Ratio (x) = 0.26318 0.27768
# Poissons Ratio (y) = 0.60542 -0.11128
# Poissons Ratio (z) = 0.55790 -0.09719
#
# Static dielectric constant tensor:
#      x y z
#    x 1.926890 0.000000 0.031940 
#    y 0.000000 2.011040 0.000000 
#    z 0.031940 0.000000 1.923320 
# 
# From -- ./inp_files/17505.got.cif
#   From: 2010.05.17/outbox.cif.g08.bks.cpg/sg15_9_cif.got.tgz:17505.got - 2010.06.03 18:47:42.
