data_PCOD9268867
_publ_section_title
;
Structure prediction by ZEFSAII (Michael W. Deem and Ramdas Pophale) SiO2 
 PCOD9268867
Probable space group: C 2/C
;
_chemical_formula_sum "Si O2"
_cell_formula_units_Z 40
_cell_length_a 20.218974
_cell_length_b 8.488332
_cell_length_c 20.077083
_cell_angle_alpha 90.000000
_cell_angle_beta 149.595032
_cell_angle_gamma 90.000000
_cell_volume 1743.916790
_symmetry_space_group_name_H-M "C 2/C"
_symmetry_group_IT_number 15
_symmetry_cell_setting 'monoclinic'
loop_
_space_group_symop_operation_xyz
x,y,z
-x,y,1/2-z
-x,-y,-z
x,-y,1/2+z
1/2+x,1/2+y,z
1/2-x,1/2+y,1/2-z
1/2-x,1/2-y,-z
1/2+x,1/2-y,1/2+z
loop_
_atom_site_type_symbol
_atom_site_label
_atom_site_fract_x
_atom_site_fract_y
_atom_site_fract_z
Si Si1 0.835419 0.146681 0.825151
Si Si2 0.588309 0.988544 0.657480
Si Si3 0.123014 0.359114 0.462701
Si Si4 0.021337 0.058700 0.410455
Si Si5 0.717820 0.052174 0.906191
O O1 0.875004 0.322753 0.842146
O O2 0.682304 0.117821 0.704533
O O3 0.909441 0.098471 0.958005
O O4 0.892972 0.035833 0.816759
O O5 0.435292 0.031959 0.529811
O O6 0.633460 0.982858 0.773749
O O7 0.009741 0.223602 0.361545
O O8 0.243974 0.237536 0.575029
O O9 0.151232 0.450818 0.419793
O O10 0.137958 0.971748 0.471807
#
# Coordination Sequence:
#
# PCOD9268867 Si02
#       5
#     8   8   8   8   8
#     4  10  20  33  54  82 118 143 183 234 281 334
#     4  11  20  33  55  86 113 150 189 229 284 331
#     4   9  17  35  61  78 108 151 190 225 277 333
#     4   8  17  36  54  77 110 147 182 232 276 328
#     4   8  18  35  59  79 108 147 189 230 272 331
#
# _framework density 22.936875000000001
#
# number of rings (size 3 to 8) (size 9 to 14) (size 15 to 20)
#    1.200    1.600    0.000    1.800    0.000    0.800 
#    0.000    1.000    0.000    9.600    0.000    0.000 
#    0.000    0.000    0.000    0.000    0.000    0.000 
#
# Total GULP energy -111342.281053 kJ/mol
# GULP energy per Si atom -5567.114053 kJ/mol
# Density = 2.288467 g / cm^3
# Si number density = 22.936875 Si / 1000 Ang^3
#
#
#
# Elastic Constant Matrix: (Units=GPa)
#
#
# Indices 1 2 3 4 5 6 
#
# 1 187.1779 52.0628 36.4493 0.0000 33.5832 0.0000
# 2 52.0628 48.6568 -4.9948 0.0000 7.5166 0.0000
# 3 36.4493 -4.9948 54.5980 0.0000 10.7627 0.0000
# 4 0.0000 0.0000 0.0000 14.6653 0.0000 12.1479
# 5 33.5832 7.5166 10.7627 0.0000 27.6525 0.0000
# 6 0.0000 0.0000 0.0000 12.1479 0.0000 36.3590
#
#
#
# Elastic Compliance Matrix: (Units=1/GPa)
#
#
# Indices 1 2 3 4 5 6 
#
# 1 0.011406 -0.011718 -0.007131 0.000000 -0.007892 0.000000
# 2 -0.011718 0.034079 0.010789 0.000000 0.000768 0.000000
# 3 -0.007131 0.010789 0.024840 0.000000 -0.003940 0.000000
# 4 0.000000 0.000000 0.000000 0.094281 0.000000 -0.031500
# 5 -0.007892 0.000768 -0.003940 0.000000 0.047073 0.000000
# 6 0.000000 0.000000 0.000000 -0.031500 0.000000 0.038028
#
#
# Mechanical properties :
#
#
# Convention : Reuss Voigt Hill
#
# Bulk Modulus (GPa) = 18.44831 50.82972 34.63901
# Shear Modulus (GPa) = 17.61210 29.52971 23.57090
#
# Velocity S-wave (km/s) = 2.77402 3.59198 3.20916
# Velocity P-wave (km/s) = 4.28028 6.27789 5.37274
#
# Compressibility (1/GPa) = 0.05420552
#
# Stress axis : x y z
#
# Youngs Moduli (GPa) = 87.67035 29.34371 40.25753
#
# Poissons Ratio (x) = 0.34384 0.28708
# Poissons Ratio (y) = 1.02729 -0.43433
# Poissons Ratio (z) = 0.62518 -0.31658
#
# Static dielectric constant tensor:
#      x y z
#    x 1.917210 0.000000 0.048020 
#    y 0.000000 1.875900 0.000000 
#    z 0.048020 0.000000 1.941640 
# 
# From -- ./inp_files/279280.got.cif
#   From: 2010.05.17/outbox.cif.g08.bks.cpg/sg15_140_cif.got.tgz:279280.got - 2010.06.03 18:47:42.
