data_PCOD9268517
_publ_section_title
;
Structure prediction by ZEFSAII (Michael W. Deem and Ramdas Pophale) SiO2 
 PCOD9268517
Probable space group: C 2/C
;
_chemical_formula_sum "Si O2"
_cell_formula_units_Z 56
_cell_length_a 14.029743
_cell_length_b 11.002023
_cell_length_c 16.470540
_cell_angle_alpha 90.000000
_cell_angle_beta 119.885569
_cell_angle_gamma 90.000000
_cell_volume 2204.247502
_symmetry_space_group_name_H-M "C 2/C"
_symmetry_group_IT_number 15
_symmetry_cell_setting 'monoclinic'
loop_
_space_group_symop_operation_xyz
x,y,z
-x,y,1/2-z
-x,-y,-z
x,-y,1/2+z
1/2+x,1/2+y,z
1/2-x,1/2+y,1/2-z
1/2-x,1/2-y,-z
1/2+x,1/2-y,1/2+z
loop_
_atom_site_type_symbol
_atom_site_label
_atom_site_fract_x
_atom_site_fract_y
_atom_site_fract_z
Si Si1 0.538786 0.700831 0.085907
Si Si2 0.252178 0.908360 0.608867
Si Si3 0.155802 0.523131 0.994498
Si Si4 0.806376 0.375925 0.249855
Si Si5 0.884298 0.197882 0.730084
Si Si6 0.440751 0.143566 0.405925
Si Si7 0.102138 0.734044 0.847972
O O1 0.632956 0.610464 0.097343
O O2 0.603264 0.820713 0.149344
O O3 0.456631 0.661187 0.123929
O O4 0.474351 0.747265 0.980313
O O5 0.315172 0.779020 0.637074
O O6 0.249933 0.954317 0.515003
O O7 0.313786 0.007799 0.693174
O O8 0.141404 0.644776 0.935137
O O9 0.047117 0.441200 0.938569
O O10 0.150251 0.563503 0.085305
O O11 0.697790 0.389595 0.257319
O O12 0.804576 0.265703 0.181198
O O13 0.911496 0.298990 0.809130
O O14 0.000000 0.146751 0.750000
O O15 0.000000 0.684070 0.750000
#
# Coordination Sequence:
#
# PCOD9268517 Si02
#       7
#     8   8   8   8   8   8   8
#     4   9  19  34  53  84 109 143 180 230 271 319
#     4  10  20  36  57  79 110 149 182 220 274 324
#     4   9  18  29  51  83 103 138 175 224 270 310
#     4   9  20  36  56  80 108 141 187 221 267 326
#     4  11  22  37  55  84 111 145 177 227 274 324
#     4  10  20  32  53  83 112 138 181 227 274 315
#     4   8  15  30  54  73 102 139 183 220 257 315
#
# _framework density 25.405494999999998
#
# number of rings (size 3 to 8) (size 9 to 14) (size 15 to 20)
#    0.000    2.571    1.429    0.000   10.000    0.571 
#    0.000   10.714    0.000    0.000    0.000    0.000 
#    0.000    0.000    0.000    0.000    0.000    0.000 
#
# Total GULP energy -156088.713114 kJ/mol
# GULP energy per Si atom -5574.596897 kJ/mol
# Density = 2.534767 g / cm^3
# Si number density = 25.405495 Si / 1000 Ang^3
#
#
#
# Elastic Constant Matrix: (Units=GPa)
#
#
# Indices 1 2 3 4 5 6 
#
# 1 136.9133 7.4916 19.9545 0.0000 -31.0688 0.0000
# 2 7.4916 36.0712 17.3394 0.0000 4.3512 0.0000
# 3 19.9545 17.3394 39.1531 0.0000 -3.6513 0.0000
# 4 0.0000 0.0000 0.0000 27.2810 0.0000 6.2129
# 5 -31.0688 4.3512 -3.6513 0.0000 23.5359 0.0000
# 6 0.0000 0.0000 0.0000 6.2129 0.0000 39.4938
#
#
#
# Elastic Compliance Matrix: (Units=1/GPa)
#
#
# Indices 1 2 3 4 5 6 
#
# 1 0.011293 -0.002594 -0.003218 0.000000 0.014888 0.000000
# 2 -0.002594 0.037831 -0.016644 0.000000 -0.013001 0.000000
# 3 -0.003218 -0.016644 0.034948 0.000000 0.004251 0.000000
# 4 0.000000 0.000000 0.000000 0.038018 0.000000 -0.005981
# 5 0.014888 -0.013001 0.004251 0.000000 0.065205 0.000000
# 6 0.000000 0.000000 0.000000 -0.005981 0.000000 0.026261
#
#
# Mechanical properties :
#
#
# Convention : Reuss Voigt Hill
#
# Bulk Modulus (GPa) = 25.53683 33.52318 29.53000
# Shear Modulus (GPa) = 18.41466 29.21894 23.81680
#
# Velocity S-wave (km/s) = 2.69519 3.39500 3.06513
# Velocity P-wave (km/s) = 4.44510 5.34714 4.91685
#
# Compressibility (1/GPa) = 0.03915913
#
# Stress axis : x y z
#
# Youngs Moduli (GPa) = 88.54714 26.43345 28.61362
#
# Poissons Ratio (x) = 0.06858 0.09209
# Poissons Ratio (y) = 0.22973 0.47625
# Poissons Ratio (z) = 0.28497 0.43996
#
# Static dielectric constant tensor:
#      x y z
#    x 2.124630 0.000000 0.015020 
#    y 0.000000 2.013880 0.000000 
#    z 0.015020 0.000000 2.000040 
# 
# From -- ./inp_files/197943.got.cif
#   From: 2010.05.17/outbox.cif.g08.bks.cpg/sg15_99_cif.got.tgz:197943.got - 2010.06.03 18:47:42.
