data_PCOD9268466
_publ_section_title
;
Structure prediction by ZEFSAII (Michael W. Deem and Ramdas Pophale) SiO2 
 PCOD9268466
Probable space group: C 2/C
;
_chemical_formula_sum "Si O2"
_cell_formula_units_Z 48
_cell_length_a 12.680623
_cell_length_b 32.823998
_cell_length_c 5.654284
_cell_angle_alpha 90.000000
_cell_angle_beta 84.808510
_cell_angle_gamma 90.000000
_cell_volume 2343.821216
_symmetry_space_group_name_H-M "C 2/C"
_symmetry_group_IT_number 15
_symmetry_cell_setting 'monoclinic'
loop_
_space_group_symop_operation_xyz
x,y,z
-x,y,1/2-z
-x,-y,-z
x,-y,1/2+z
1/2+x,1/2+y,z
1/2-x,1/2+y,1/2-z
1/2-x,1/2-y,-z
1/2+x,1/2-y,1/2+z
loop_
_atom_site_type_symbol
_atom_site_label
_atom_site_fract_x
_atom_site_fract_y
_atom_site_fract_z
Si Si1 0.112184 0.821561 0.325575
Si Si2 0.000000 0.857717 0.750000
Si Si3 0.116796 0.347262 0.612025
Si Si4 0.188062 0.107836 0.521883
Si Si5 0.346358 0.235084 0.141080
Si Si6 0.000000 0.303946 0.250000
Si Si7 0.127840 0.978359 0.221899
O O1 0.085422 0.827691 0.605282
O O2 0.189494 0.855073 0.209995
O O3 0.131460 0.776592 0.224368
O O4 0.000000 0.835318 0.250000
O O5 0.917401 0.886209 0.619685
O O6 0.199496 0.383890 0.627091
O O7 0.168694 0.306466 0.715439
O O8 0.000000 0.354536 0.750000
O O9 0.086340 0.332741 0.354340
O O10 0.177100 0.065732 0.660389
O O11 0.250000 0.250000 0.000000
O O12 0.446135 0.224273 0.956493
O O13 0.000000 0.974777 0.250000
O O14 0.156128 0.995407 0.478407
#
# Coordination Sequence:
#
# PCOD9268466 Si02
#       7
#     8   4   8   8   8   4   8
#     4  10  20  32  50  81 117 154 197 249 306 374
#     4  10  21  34  56  90 124 158 196 260 322 396
#     4  10  23  41  58  84 121 171 224 264 311 370
#     4  11  23  38  61  90 123 160 208 257 323 393
#     4  11  21  34  54  81 115 162 210 265 315 364
#     4  10  21  38  56  78 120 172 218 264 314 368
#     4  10  23  42  68 100 137 169 202 258 336 420
#
# _framework density 20.479378000000001
#
# number of rings (size 3 to 8) (size 9 to 14) (size 15 to 20)
#    0.000    1.667    0.000    5.500    5.833    6.667 
#    0.000    0.000    0.000    1.000    0.000    0.000 
#    0.000    0.000    0.000    0.000    0.000    0.000 
#
# Total GULP energy -133680.739865 kJ/mol
# GULP energy per Si atom -5570.030828 kJ/mol
# Density = 2.043277 g / cm^3
# Si number density = 20.479378 Si / 1000 Ang^3
#
#
#
# Elastic Constant Matrix: (Units=GPa)
#
#
# Indices 1 2 3 4 5 6 
#
# 1 108.3362 45.6280 23.5629 0.0000 6.4000 0.0000
# 2 45.6280 107.1962 41.4168 0.0000 -14.9413 0.0000
# 3 23.5629 41.4168 62.5407 0.0000 -1.9089 0.0000
# 4 0.0000 0.0000 0.0000 23.9945 0.0000 -12.4553
# 5 6.4000 -14.9413 -1.9089 0.0000 21.0311 0.0000
# 6 0.0000 0.0000 0.0000 -12.4553 0.0000 21.3336
#
#
#
# Elastic Compliance Matrix: (Units=1/GPa)
#
#
# Indices 1 2 3 4 5 6 
#
# 1 0.012488 -0.006110 -0.000909 0.000000 -0.008224 0.000000
# 2 -0.006110 0.017104 -0.008621 0.000000 0.013228 0.000000
# 3 -0.000909 -0.008621 0.021924 0.000000 -0.003858 0.000000
# 4 0.000000 0.000000 0.000000 0.059799 0.000000 0.034913
# 5 -0.008224 0.013228 -0.003858 0.000000 0.059099 0.000000
# 6 0.000000 0.000000 0.000000 0.034913 0.000000 0.067258
#
#
# Mechanical properties :
#
#
# Convention : Reuss Voigt Hill
#
# Bulk Modulus (GPa) = 49.42207 55.47649 52.44928
# Shear Modulus (GPa) = 18.13582 24.43621 21.28602
#
# Velocity S-wave (km/s) = 2.97907 3.45804 3.22745
# Velocity P-wave (km/s) = 6.00151 6.56443 6.28927
#
# Compressibility (1/GPa) = 0.02023388
#
# Stress axis : x y z
#
# Youngs Moduli (GPa) = 80.07957 58.46508 45.61266
#
# Poissons Ratio (x) = 0.35723 0.04148
# Poissons Ratio (y) = 0.48930 0.39324
# Poissons Ratio (z) = 0.07283 0.50404
#
# Static dielectric constant tensor:
#      x y z
#    x 1.972120 0.000000 -0.306360 
#    y 0.000000 1.522120 0.000000 
#    z -0.306360 0.000000 2.591790 
# 
# From -- ./inp_files/8268.got.cif
#   From: 2010.05.17/outbox.cif.g08.bks.cpg/sg15_5_cif.got.tgz:8268.got - 2010.06.03 18:47:42.
