data_PCOD9268605
_publ_section_title
;
Structure prediction by ZEFSAII (Michael W. Deem and Ramdas Pophale) SiO2 
 PCOD9268605
Probable space group: C 2/C
;
_chemical_formula_sum "Si O2"
_cell_formula_units_Z 56
_cell_length_a 27.983693
_cell_length_b 13.751132
_cell_length_c 13.680583
_cell_angle_alpha 90.000000
_cell_angle_beta 144.920878
_cell_angle_gamma 90.000000
_cell_volume 3025.482447
_symmetry_space_group_name_H-M "C 2/C"
_symmetry_group_IT_number 15
_symmetry_cell_setting 'monoclinic'
loop_
_space_group_symop_operation_xyz
x,y,z
-x,y,1/2-z
-x,-y,-z
x,-y,1/2+z
1/2+x,1/2+y,z
1/2-x,1/2+y,1/2-z
1/2-x,1/2-y,-z
1/2+x,1/2-y,1/2+z
loop_
_atom_site_type_symbol
_atom_site_label
_atom_site_fract_x
_atom_site_fract_y
_atom_site_fract_z
Si Si1 0.570598 0.529176 0.735628
Si Si2 0.848401 0.152084 0.793311
Si Si3 0.200639 0.030481 0.608054
Si Si4 0.695225 0.268521 0.002736
Si Si5 0.248213 0.823045 0.708165
Si Si6 0.946149 0.803312 0.069676
Si Si7 0.035169 0.187402 0.119235
O O1 0.630109 0.602163 0.773821
O O2 0.490322 0.592235 0.626518
O O3 0.553831 0.429335 0.649888
O O4 0.616895 0.497436 0.910836
O O5 0.817096 0.066262 0.812042
O O6 0.785749 0.242734 0.697339
O O7 0.937768 0.191815 0.981070
O O8 0.227174 0.128103 0.597686
O O9 0.257850 0.935874 0.696709
O O10 0.709818 0.195717 0.116276
O O11 0.750000 0.250000 0.000000
O O12 0.600066 0.272688 0.806848
O O13 0.149375 0.807147 0.558278
O O14 0.000000 0.758631 0.250000
O O15 0.950782 0.765628 0.964899
#
# Coordination Sequence:
#
# PCOD9268605 Si02
#       7
#     8   8   8   8   8   8   8
#     4  10  20  32  58  83 116 148 180 245 307 350
#     4  10  22  35  54  91 114 149 191 242 294 353
#     4  10  21  35  56  85 119 149 189 239 298 344
#     4  10  21  36  60  84 111 154 195 240 284 353
#     4  11  21  35  54  84 121 148 192 235 292 349
#     4  11  19  31  52  80 114 154 177 227 293 357
#     4  10  20  36  57  84 115 143 197 243 300 341
#
# _framework density 18.509444999999999
#
# number of rings (size 3 to 8) (size 9 to 14) (size 15 to 20)
#    0.000    1.714    2.857    3.429    2.000    5.143 
#    0.000    0.000    0.000    0.857   14.857    0.000 
#    0.000    0.000    0.000    0.000    0.000    0.000 
#
# Total GULP energy -156010.381115 kJ/mol
# GULP energy per Si atom -5571.799326 kJ/mol
# Density = 1.846732 g / cm^3
# Si number density = 18.509445 Si / 1000 Ang^3
#
#
#
# Elastic Constant Matrix: (Units=GPa)
#
#
# Indices 1 2 3 4 5 6 
#
# 1 73.5546 29.9244 1.5126 0.0000 3.5642 0.0000
# 2 29.9244 67.4164 24.7373 0.0000 3.9398 0.0000
# 3 1.5126 24.7373 63.5189 0.0000 -6.9538 0.0000
# 4 0.0000 0.0000 0.0000 26.2527 0.0000 0.5200
# 5 3.5642 3.9398 -6.9538 0.0000 31.5412 0.0000
# 6 0.0000 0.0000 0.0000 0.5200 0.0000 20.1051
#
#
#
# Elastic Compliance Matrix: (Units=1/GPa)
#
#
# Indices 1 2 3 4 5 6 
#
# 1 0.017059 -0.008637 0.002935 0.000000 -0.000202 0.000000
# 2 -0.008637 0.022121 -0.008818 0.000000 -0.003731 0.000000
# 3 0.002935 -0.008818 0.019666 0.000000 0.005106 0.000000
# 4 0.000000 0.000000 0.000000 0.038111 0.000000 -0.000986
# 5 -0.000202 -0.003731 0.005106 0.000000 0.033319 0.000000
# 6 0.000000 0.000000 0.000000 -0.000986 0.000000 0.049764
#
#
# Mechanical properties :
#
#
# Convention : Reuss Voigt Hill
#
# Bulk Modulus (GPa) = 33.54935 35.20429 34.37682
# Shear Modulus (GPa) = 22.82963 25.46753 24.14858
#
# Velocity S-wave (km/s) = 3.51580 3.71336 3.61593
# Velocity P-wave (km/s) = 5.88608 6.11934 6.00385
#
# Compressibility (1/GPa) = 0.02980684
#
# Stress axis : x y z
#
# Youngs Moduli (GPa) = 58.62134 45.20689 50.84822
#
# Poissons Ratio (x) = 0.39046 -0.14926
# Poissons Ratio (y) = 0.50633 0.44836
# Poissons Ratio (z) = -0.17208 0.39862
#
# Static dielectric constant tensor:
#      x y z
#    x 1.693620 0.000000 -0.045850 
#    y 0.000000 1.657700 0.000000 
#    z -0.045850 0.000000 1.680330 
# 
# From -- ./inp_files/178406.got.cif
#   From: 2010.05.17/outbox.cif.g08.bks.cpg/sg15_90_cif.got.tgz:178406.got - 2010.06.03 18:47:42.
