data_PCOD9268505
_publ_section_title
;
Structure prediction by ZEFSAII (Michael W. Deem and Ramdas Pophale) SiO2 
 PCOD9268505
Probable space group: C 2/C
;
_chemical_formula_sum "Si O2"
_cell_formula_units_Z 44
_cell_length_a 13.582307
_cell_length_b 18.354237
_cell_length_c 7.956650
_cell_angle_alpha 90.000000
_cell_angle_beta 64.193726
_cell_angle_gamma 90.000000
_cell_volume 1785.720338
_symmetry_space_group_name_H-M "C 2/C"
_symmetry_group_IT_number 15
_symmetry_cell_setting 'monoclinic'
loop_
_space_group_symop_operation_xyz
x,y,z
-x,y,1/2-z
-x,-y,-z
x,-y,1/2+z
1/2+x,1/2+y,z
1/2-x,1/2+y,1/2-z
1/2-x,1/2-y,-z
1/2+x,1/2-y,1/2+z
loop_
_atom_site_type_symbol
_atom_site_label
_atom_site_fract_x
_atom_site_fract_y
_atom_site_fract_z
Si Si1 0.883389 0.400026 0.532494
Si Si2 0.317658 0.441822 0.658035
Si Si3 0.236499 0.895826 0.184456
Si Si4 0.955274 0.298142 0.978338
Si Si5 0.990422 0.138037 0.560461
Si Si6 0.000000 0.485114 0.750000
O O1 0.757320 0.394173 0.663010
O O2 0.948710 0.437223 0.641599
O O3 0.947957 0.325754 0.472209
O O4 0.906284 0.459415 0.375432
O O5 0.286024 0.414442 0.495133
O O6 0.278827 0.524117 0.720985
O O7 0.445419 0.424494 0.587426
O O8 0.139904 0.851786 0.351324
O O9 0.349148 0.849047 0.093635
O O10 0.000000 0.301528 0.750000
O O11 0.942686 0.212375 0.017301
O O12 0.000000 0.117510 0.750000
#
# Coordination Sequence:
#
# PCOD9268505 Si02
#       6
#     8   8   8   8   8   4
#     4  11  19  33  56  86 116 148 189 242 293 342
#     4  11  21  37  61  89 117 153 199 243 291 346
#     4  11  22  39  62  89 118 156 197 245 291 346
#     4  11  21  35  60  89 120 150 195 246 297 345
#     4   9  23  37  58  86 120 157 197 240 288 349
#     4  10  20  32  52  88 118 146 186 236 298 340
#
# _framework density 24.639915999999999
#
# number of rings (size 3 to 8) (size 9 to 14) (size 15 to 20)
#    0.000    1.455    2.727    3.818    2.545    2.182 
#    0.000    0.000    4.000    2.182    0.000    0.000 
#    0.000    0.000    0.000    0.000    0.000    0.000 
#
# Total GULP energy -122775.764418 kJ/mol
# GULP energy per Si atom -5580.716564 kJ/mol
# Density = 2.458383 g / cm^3
# Si number density = 24.639916 Si / 1000 Ang^3
#
#
#
# Elastic Constant Matrix: (Units=GPa)
#
#
# Indices 1 2 3 4 5 6 
#
# 1 53.2962 29.5096 50.7120 0.0000 -44.7061 0.0000
# 2 29.5096 101.3480 52.9092 0.0000 -33.0629 0.0000
# 3 50.7120 52.9092 94.4843 0.0000 -48.0908 0.0000
# 4 0.0000 0.0000 0.0000 41.1273 0.0000 -13.5936
# 5 -44.7061 -33.0629 -48.0908 0.0000 59.1483 0.0000
# 6 0.0000 0.0000 0.0000 -13.5936 0.0000 20.2409
#
#
#
# Elastic Compliance Matrix: (Units=1/GPa)
#
#
# Indices 1 2 3 4 5 6 
#
# 1 0.063652 0.002010 -0.017452 0.000000 0.035044 0.000000
# 2 0.002010 0.014221 -0.007204 0.000000 0.003611 0.000000
# 3 -0.017452 -0.007204 0.025968 0.000000 0.003895 0.000000
# 4 0.000000 0.000000 0.000000 0.031252 0.000000 0.020988
# 5 0.035044 0.003611 0.003895 0.000000 0.048579 0.000000
# 6 0.000000 0.000000 0.000000 0.020988 0.000000 0.063500
#
#
# Mechanical properties :
#
#
# Convention : Reuss Voigt Hill
#
# Bulk Modulus (GPa) = 17.08037 57.26560 37.17298
# Shear Modulus (GPa) = 16.02666 31.83649 23.93157
#
# Velocity S-wave (km/s) = 2.55313 3.59844 3.11987
# Velocity P-wave (km/s) = 3.95453 6.36839 5.30070
#
# Compressibility (1/GPa) = 0.05854675
#
# Stress axis : x y z
#
# Youngs Moduli (GPa) = 15.71048 70.31986 38.50963
#
# Poissons Ratio (x) = -0.14133 0.67208
# Poissons Ratio (y) = -0.03158 0.27743
# Poissons Ratio (z) = 0.27418 0.50660
#
# Static dielectric constant tensor:
#      x y z
#    x 2.060620 0.000000 -0.022900 
#    y 0.000000 2.009000 0.000000 
#    z -0.022900 0.000000 2.034280 
# 
# From -- ./inp_files/39559.got.cif
#   From: 2010.05.17/outbox.cif.g08.bks.cpg/sg15_20_cif.got.tgz:39559.got - 2010.06.03 18:47:42.
