data_PCOD9268341
_publ_section_title
;
Structure prediction by ZEFSAII (Michael W. Deem and Ramdas Pophale) SiO2 
 PCOD9268341
Probable space group: C 2/C
;
_chemical_formula_sum "Si O2"
_cell_formula_units_Z 56
_cell_length_a 19.302756
_cell_length_b 14.476280
_cell_length_c 17.103980
_cell_angle_alpha 90.000000
_cell_angle_beta 37.364743
_cell_angle_gamma 90.000000
_cell_volume 2900.555803
_symmetry_space_group_name_H-M "C 2/C"
_symmetry_group_IT_number 15
_symmetry_cell_setting 'monoclinic'
loop_
_space_group_symop_operation_xyz
x,y,z
-x,y,1/2-z
-x,-y,-z
x,-y,1/2+z
1/2+x,1/2+y,z
1/2-x,1/2+y,1/2-z
1/2-x,1/2-y,-z
1/2+x,1/2-y,1/2+z
loop_
_atom_site_type_symbol
_atom_site_label
_atom_site_fract_x
_atom_site_fract_y
_atom_site_fract_z
Si Si1 0.940490 0.214438 0.074640
Si Si2 0.726763 0.907635 0.752413
Si Si3 0.608779 0.278381 0.702183
Si Si4 0.892739 0.066430 0.582045
Si Si5 0.478061 0.090160 0.968248
Si Si6 0.724897 0.608246 0.972490
Si Si7 0.417539 0.977447 0.760050
O O1 0.826959 0.165156 0.144893
O O2 0.932029 0.196042 0.175314
O O3 0.055493 0.165503 0.938902
O O4 0.948270 0.324547 0.065619
O O5 0.652777 0.883307 0.895554
O O6 0.785431 0.008904 0.712155
O O7 0.642454 0.916230 0.753372
O O8 0.500000 0.244307 0.750000
O O9 0.659214 0.364415 0.609248
O O10 0.705613 0.199675 0.617052
O O11 0.858039 0.078722 0.523016
O O12 0.000000 0.000000 0.500000
O O13 0.514257 0.057887 0.849537
O O14 0.500000 0.000000 0.000000
O O15 0.816607 0.527637 0.897353
O O16 0.500000 0.932405 0.750000
#
# Coordination Sequence:
#
# PCOD9268341 Si02
#       7
#     8   8   8   8   8   8   8
#     4  11  21  34  58  79 119 156 193 240 287 351
#     4   9  22  37  55  82 112 156 197 238 290 342
#     4  11  21  30  48  86 121 155 186 225 291 363
#     4   9  19  37  53  77 111 158 195 233 277 345
#     4  10  22  36  53  84 116 146 201 237 290 349
#     4  10  20  31  49  78 124 153 187 224 285 354
#     4  10  20  36  56  80 119 153 191 243 288 348
#
# _framework density 19.306643999999999
#
# number of rings (size 3 to 8) (size 9 to 14) (size 15 to 20)
#    0.000    2.000    2.857    0.429    4.000    0.000 
#    0.000    0.000    0.000    3.429    0.000    0.000 
#    0.000    0.000    0.000    0.000    0.000    0.000 
#
# Total GULP energy -156012.010025 kJ/mol
# GULP energy per Si atom -5571.857501 kJ/mol
# Density = 1.926270 g / cm^3
# Si number density = 19.306644 Si / 1000 Ang^3
#
#
#
# Elastic Constant Matrix: (Units=GPa)
#
#
# Indices 1 2 3 4 5 6 
#
# 1 109.9969 32.2806 18.1596 0.0000 -25.1596 0.0000
# 2 32.2806 70.4601 28.5602 0.0000 -2.3060 0.0000
# 3 18.1596 28.5602 71.3427 0.0000 -8.1242 0.0000
# 4 0.0000 0.0000 0.0000 25.6983 0.0000 -4.8795
# 5 -25.1596 -2.3060 -8.1242 0.0000 19.5478 0.0000
# 6 0.0000 0.0000 0.0000 -4.8795 0.0000 25.1392
#
#
#
# Elastic Compliance Matrix: (Units=1/GPa)
#
#
# Indices 1 2 3 4 5 6 
#
# 1 0.015357 -0.006818 0.001028 0.000000 0.019389 0.000000
# 2 -0.006818 0.019982 -0.007342 0.000000 -0.009469 0.000000
# 3 0.001028 -0.007342 0.017578 0.000000 0.007763 0.000000
# 4 0.000000 0.000000 0.000000 0.040402 0.000000 0.007842
# 5 0.019389 -0.009469 0.007763 0.000000 0.078221 0.000000
# 6 0.000000 0.000000 0.000000 0.007842 0.000000 0.041301
#
#
# Mechanical properties :
#
#
# Convention : Reuss Voigt Hill
#
# Bulk Modulus (GPa) = 37.51795 45.53338 41.52567
# Shear Modulus (GPa) = 20.16212 25.59701 22.87956
#
# Velocity S-wave (km/s) = 3.23508 3.64512 3.44621
# Velocity P-wave (km/s) = 5.78180 6.43050 6.11476
#
# Compressibility (1/GPa) = 0.02665391
#
# Stress axis : x y z
#
# Youngs Moduli (GPa) = 65.11662 50.04458 56.88794
#
# Poissons Ratio (x) = 0.34120 -0.05850
# Poissons Ratio (y) = 0.44396 0.41769
# Poissons Ratio (z) = -0.06696 0.36744
#
# Static dielectric constant tensor:
#      x y z
#    x 1.725370 0.000000 -0.105560 
#    y 0.000000 1.709360 0.000000 
#    z -0.105560 0.000000 1.826200 
# 
# From -- ./inp_files/211192.got.cif
#   From: 2010.05.17/outbox.cif.g08.bks.cpg/sg15_106_cif.got.tgz:211192.got - 2010.06.03 18:47:42.
