data_PCOD9268643
_publ_section_title
;
Structure prediction by ZEFSAII (Michael W. Deem and Ramdas Pophale) SiO2 
 PCOD9268643
Probable space group: C 2/C
;
_chemical_formula_sum "Si O2"
_cell_formula_units_Z 64
_cell_length_a 11.113537
_cell_length_b 15.031151
_cell_length_c 17.502587
_cell_angle_alpha 90.000000
_cell_angle_beta 89.322581
_cell_angle_gamma 90.000000
_cell_volume 2923.589727
_symmetry_space_group_name_H-M "C 2/C"
_symmetry_group_IT_number 15
_symmetry_cell_setting 'monoclinic'
loop_
_space_group_symop_operation_xyz
x,y,z
-x,y,1/2-z
-x,-y,-z
x,-y,1/2+z
1/2+x,1/2+y,z
1/2-x,1/2+y,1/2-z
1/2-x,1/2-y,-z
1/2+x,1/2-y,1/2+z
loop_
_atom_site_type_symbol
_atom_site_label
_atom_site_fract_x
_atom_site_fract_y
_atom_site_fract_z
Si Si1 0.257254 0.872804 0.427285
Si Si2 0.039104 0.750360 0.389421
Si Si3 0.366268 0.413916 0.921108
Si Si4 0.880413 0.744887 0.713553
Si Si5 0.567006 0.430751 0.173506
Si Si6 0.503525 0.769340 0.445021
Si Si7 0.299040 0.938529 0.267610
Si Si8 0.682834 0.870118 0.784417
O O1 0.169714 0.787221 0.417634
O O2 0.213910 0.923342 0.502743
O O3 0.392967 0.837591 0.433071
O O4 0.242199 0.931897 0.352051
O O5 0.966098 0.721469 0.465345
O O6 0.071095 0.676533 0.327102
O O7 0.979974 0.834886 0.349897
O O8 0.439307 0.500922 0.896022
O O9 0.452205 0.330382 0.934736
O O10 0.277612 0.392109 0.851664
O O11 0.873367 0.652097 0.759697
O O12 0.760675 0.802696 0.730890
O O13 0.000000 0.790853 0.750000
O O14 0.901440 0.723175 0.624249
O O15 0.500000 0.464681 0.250000
O O16 0.702618 0.423949 0.201464
O O17 0.350032 0.036672 0.254767
#
# Coordination Sequence:
#
# PCOD9268643 Si02
#       8
#     8   8   8   8   8   8   8   8
#     4  11  18  38  61  91 128 155 201 269 307 352
#     4  11  20  40  60  90 121 172 199 249 309 379
#     4  10  20  32  60  94 120 157 200 259 307 361
#     4  12  21  39  63  93 123 155 211 266 295 357
#     4  11  23  37  57  87 134 162 200 248 316 370
#     4  11  21  34  67  91 120 156 213 259 304 353
#     4  11  24  38  61  92 127 160 200 260 315 364
#     4  11  21  38  63  91 123 165 204 251 315 366
#
# _framework density 21.890895
#
# number of rings (size 3 to 8) (size 9 to 14) (size 15 to 20)
#    0.000    1.000    7.500    0.750    3.500    3.000 
#    0.000    3.125    0.000    0.000    0.000    0.000 
#    0.000    0.000    0.000    0.000    0.000    0.000 
#
# Total GULP energy -178793.712183 kJ/mol
# GULP energy per Si atom -5587.303506 kJ/mol
# Density = 2.184107 g / cm^3
# Si number density = 21.890895 Si / 1000 Ang^3
#
#
#
# Elastic Constant Matrix: (Units=GPa)
#
#
# Indices 1 2 3 4 5 6 
#
# 1 29.0068 16.2811 22.9270 0.0000 -12.8675 0.0000
# 2 16.2811 111.9688 50.2910 0.0000 -22.1868 0.0000
# 3 22.9270 50.2910 150.9141 0.0000 -52.1106 0.0000
# 4 0.0000 0.0000 0.0000 35.6013 0.0000 -5.8415
# 5 -12.8675 -22.1868 -52.1106 0.0000 34.7104 0.0000
# 6 0.0000 0.0000 0.0000 -5.8415 0.0000 20.5098
#
#
#
# Elastic Compliance Matrix: (Units=1/GPa)
#
#
# Indices 1 2 3 4 5 6 
#
# 1 0.042548 -0.003271 -0.001348 0.000000 0.011658 0.000000
# 2 -0.003271 0.010910 -0.002387 0.000000 0.002178 0.000000
# 3 -0.001348 -0.002387 0.014383 0.000000 0.019568 0.000000
# 4 0.000000 0.000000 0.000000 0.029466 0.000000 0.008392
# 5 0.011658 0.002178 0.019568 0.000000 0.063901 0.000000
# 6 0.000000 0.000000 0.000000 0.008392 0.000000 0.051147
#
#
# Mechanical properties :
#
#
# Convention : Reuss Voigt Hill
#
# Bulk Modulus (GPa) = 18.57739 52.32086 35.44912
# Shear Modulus (GPa) = 20.46563 31.65701 26.06132
#
# Velocity S-wave (km/s) = 3.06092 3.80692 3.45412
# Velocity P-wave (km/s) = 4.58226 6.57846 5.66892
#
# Compressibility (1/GPa) = 0.05382886
#
# Stress axis : x y z
#
# Youngs Moduli (GPa) = 23.50291 91.65649 69.52433
#
# Poissons Ratio (x) = 0.29982 0.09375
# Poissons Ratio (y) = 0.07688 0.16594
# Poissons Ratio (z) = 0.03169 0.21876
#
# Static dielectric constant tensor:
#      x y z
#    x 1.852500 0.000000 -0.006350 
#    y 0.000000 1.804580 0.000000 
#    z -0.006350 0.000000 1.830760 
# 
# From -- ./inp_files/198369.got.cif
#   From: 2010.05.17/outbox.cif.g08.bks.cpg/sg15_100_cif.got.tgz:198369.got - 2010.06.03 18:47:42.
