data_PCOD9268271
_publ_section_title
;
Structure prediction by ZEFSAII (Michael W. Deem and Ramdas Pophale) SiO2 
 PCOD9268271
Probable space group: C 2/C
;
_chemical_formula_sum "Si O2"
_cell_formula_units_Z 64
_cell_length_a 24.878723
_cell_length_b 14.745803
_cell_length_c 8.953923
_cell_angle_alpha 90.000000
_cell_angle_beta 102.531570
_cell_angle_gamma 90.000000
_cell_volume 3206.551805
_symmetry_space_group_name_H-M "C 2/C"
_symmetry_group_IT_number 15
_symmetry_cell_setting 'monoclinic'
loop_
_space_group_symop_operation_xyz
x,y,z
-x,y,1/2-z
-x,-y,-z
x,-y,1/2+z
1/2+x,1/2+y,z
1/2-x,1/2+y,1/2-z
1/2-x,1/2-y,-z
1/2+x,1/2-y,1/2+z
loop_
_atom_site_type_symbol
_atom_site_label
_atom_site_fract_x
_atom_site_fract_y
_atom_site_fract_z
Si Si1 0.371653 0.444278 0.602246
Si Si2 0.533511 0.569448 0.125837
Si Si3 0.870725 0.819442 0.352016
Si Si4 0.309300 0.028238 0.027729
Si Si5 0.834146 0.623844 0.323648
Si Si6 0.707781 0.688879 0.264775
Si Si7 0.244841 0.615680 0.788191
Si Si8 0.377849 0.357277 0.021072
O O1 0.414707 0.474889 0.754916
O O2 0.399650 0.378872 0.496063
O O3 0.325284 0.381703 0.650929
O O4 0.355427 0.538975 0.519223
O O5 0.500000 0.603881 0.250000
O O6 0.500000 0.500000 0.000000
O O7 0.565878 0.640085 0.040578
O O8 0.865739 0.714169 0.388177
O O9 0.809195 0.862930 0.316148
O O10 0.889957 0.824345 0.194059
O O11 0.275981 0.088728 0.889187
O O12 0.341999 0.956822 0.945305
O O13 0.344906 0.088080 0.162923
O O14 0.270688 0.965871 0.110683
O O15 0.768962 0.650437 0.279437
O O16 0.715673 0.791638 0.326671
O O17 0.670734 0.694914 0.093376
#
# Coordination Sequence:
#
# PCOD9268271 Si02
#       8
#     8   8   8   8   8   8   8   8
#     4  11  23  34  55  82 102 146 194 230 267 326
#     4  11  23  41  57  75 109 139 184 222 286 342
#     4  11  22  35  51  76 112 139 192 241 281 310
#     4  10  20  30  49  68  92 144 201 218 275 330
#     4  10  21  34  49  74 107 153 186 243 278 315
#     4  10  21  34  48  72 110 145 191 238 285 305
#     4  10  21  34  48  71 106 150 185 246 281 314
#     4  11  23  34  55  82 102 146 194 229 271 328
#
# _framework density 19.959135
#
# number of rings (size 3 to 8) (size 9 to 14) (size 15 to 20)
#    0.000    1.500    1.250    4.500   10.500    4.000 
#    0.000    0.000    0.000    0.000    0.000    0.000 
#    0.000    0.000    0.000  254.250    0.250    0.000 
#
# Total GULP energy -178702.703503 kJ/mol
# GULP energy per Si atom -5584.459484 kJ/mol
# Density = 1.991371 g / cm^3
# Si number density = 19.959135 Si / 1000 Ang^3
#
#
#
# Elastic Constant Matrix: (Units=GPa)
#
#
# Indices 1 2 3 4 5 6 
#
# 1 50.6315 10.3935 19.1195 0.0000 -8.7430 0.0000
# 2 10.3935 88.9751 20.1437 0.0000 3.7887 0.0000
# 3 19.1195 20.1437 110.2091 0.0000 -9.7843 0.0000
# 4 0.0000 0.0000 0.0000 28.3921 0.0000 -1.6771
# 5 -8.7430 3.7887 -9.7843 0.0000 27.3575 0.0000
# 6 0.0000 0.0000 0.0000 -1.6771 0.0000 14.5912
#
#
#
# Elastic Compliance Matrix: (Units=1/GPa)
#
#
# Indices 1 2 3 4 5 6 
#
# 1 0.022419 -0.002234 -0.002910 0.000000 0.006433 0.000000
# 2 -0.002234 0.012111 -0.002105 0.000000 -0.003144 0.000000
# 3 -0.002910 -0.002105 0.010231 0.000000 0.003021 0.000000
# 4 0.000000 0.000000 0.000000 0.035462 0.000000 0.004076
# 5 0.006433 -0.003144 0.003021 0.000000 0.040125 0.000000
# 6 0.000000 0.000000 0.000000 0.004076 0.000000 0.069003
#
#
# Mechanical properties :
#
#
# Convention : Reuss Voigt Hill
#
# Bulk Modulus (GPa) = 33.04369 38.79212 35.91791
# Shear Modulus (GPa) = 23.37150 27.41211 25.39180
#
# Velocity S-wave (km/s) = 3.42565 3.70998 3.57065
# Velocity P-wave (km/s) = 5.67789 6.15060 5.91896
#
# Compressibility (1/GPa) = 0.03026296
#
# Stress axis : x y z
#
# Youngs Moduli (GPa) = 44.60537 82.57280 97.73813
#
# Poissons Ratio (x) = 0.18447 0.28440
# Poissons Ratio (y) = 0.09965 0.20575
# Poissons Ratio (z) = 0.12979 0.17382
#
# Static dielectric constant tensor:
#      x y z
#    x 1.741360 0.000000 -0.024480 
#    y 0.000000 1.714650 0.000000 
#    z -0.024480 0.000000 1.785380 
# 
# From -- ./inp_files/66276.got.cif
#   From: 2010.05.17/outbox.cif.g08.bks.cpg/sg15_34_cif.got.tgz:66276.got - 2010.06.03 18:47:42.
