data_PCOD9268659
_publ_section_title
;
Structure prediction by ZEFSAII (Michael W. Deem and Ramdas Pophale) SiO2 
 PCOD9268659
Probable space group: C 2/C
;
_chemical_formula_sum "Si O2"
_cell_formula_units_Z 60
_cell_length_a 31.224271
_cell_length_b 10.802432
_cell_length_c 8.195701
_cell_angle_alpha 90.000000
_cell_angle_beta 119.013404
_cell_angle_gamma 90.000000
_cell_volume 2417.479944
_symmetry_space_group_name_H-M "C 2/C"
_symmetry_group_IT_number 15
_symmetry_cell_setting 'monoclinic'
loop_
_space_group_symop_operation_xyz
x,y,z
-x,y,1/2-z
-x,-y,-z
x,-y,1/2+z
1/2+x,1/2+y,z
1/2-x,1/2+y,1/2-z
1/2-x,1/2-y,-z
1/2+x,1/2-y,1/2+z
loop_
_atom_site_type_symbol
_atom_site_label
_atom_site_fract_x
_atom_site_fract_y
_atom_site_fract_z
Si Si1 0.227037 0.158829 0.244116
Si Si2 0.334477 0.489124 0.139614
Si Si3 0.838070 0.625827 0.367319
Si Si4 0.664379 0.853874 0.027572
Si Si5 0.000000 0.478643 0.250000
Si Si6 0.602518 0.646326 0.471682
Si Si7 0.935977 0.721478 0.084314
Si Si8 0.987316 0.764397 0.514286
O O1 0.200799 0.092622 0.346422
O O2 0.284912 0.148282 0.346030
O O3 0.214058 0.302336 0.194209
O O4 0.200934 0.090350 0.042523
O O5 0.360552 0.400918 0.318088
O O6 0.380143 0.555474 0.136767
O O7 0.848901 0.485590 0.427217
O O8 0.879153 0.713532 0.519999
O O9 0.835508 0.642026 0.167290
O O10 0.621602 0.766109 0.015608
O O11 0.955808 0.578585 0.142022
O O12 0.007579 0.377076 0.409018
O O13 0.545644 0.657839 0.419002
O O14 0.955547 0.775595 0.290430
O O15 0.959276 0.784627 0.967364
#
# Coordination Sequence:
#
# PCOD9268659 Si02
#       8
#     8   8   8   8   4   8   8   8
#     4  11  24  45  65  97 135 182 226 283 333 388
#     4  10  24  43  72  89 133 182 233 274 331 391
#     4  12  26  40  67 101 139 175 227 278 342 400
#     4  12  26  41  66 102 140 178 225 278 339 404
#     4  10  20  32  62  94 130 166 206 264 342 398
#     4  11  23  45  66  99 128 180 227 278 332 402
#     4  10  20  37  61  91 134 174 207 267 345 393
#     4  10  20  37  62  91 128 161 210 270 329 400
#
# _framework density 24.819233000000001
#
# number of rings (size 3 to 8) (size 9 to 14) (size 15 to 20)
#    0.000    1.333    2.667    3.600    7.467    1.600 
#    0.000    1.333    0.000   20.000    0.000    0.000 
#    0.000    0.000    0.000    0.000    0.000    0.000 
#
# Total GULP energy -167717.782985 kJ/mol
# GULP energy per Si atom -5590.592766 kJ/mol
# Density = 2.476274 g / cm^3
# Si number density = 24.819233 Si / 1000 Ang^3
#
#
#
# Elastic Constant Matrix: (Units=GPa)
#
#
# Indices 1 2 3 4 5 6 
#
# 1 130.5377 -0.9437 15.7895 0.0000 1.3454 0.0000
# 2 -0.9437 52.2172 6.8151 0.0000 -6.6358 0.0000
# 3 15.7895 6.8151 31.1025 0.0000 4.4275 0.0000
# 4 0.0000 0.0000 0.0000 19.9812 0.0000 1.4081
# 5 1.3454 -6.6358 4.4275 0.0000 36.7478 0.0000
# 6 0.0000 0.0000 0.0000 1.4081 0.0000 33.2037
#
#
#
# Elastic Compliance Matrix: (Units=1/GPa)
#
#
# Indices 1 2 3 4 5 6 
#
# 1 0.008192 0.000766 -0.004379 0.000000 0.000366 0.000000
# 2 0.000766 0.020429 -0.005480 0.000000 0.004321 0.000000
# 3 -0.004379 -0.005480 0.036316 0.000000 -0.005205 0.000000
# 4 0.000000 0.000000 0.000000 0.050197 0.000000 -0.002129
# 5 0.000366 0.004321 -0.005205 0.000000 0.028607 0.000000
# 6 0.000000 0.000000 0.000000 -0.002129 0.000000 0.030207
#
#
# Mechanical properties :
#
#
# Convention : Reuss Voigt Hill
#
# Bulk Modulus (GPa) = 21.38975 28.57548 24.98261
# Shear Modulus (GPa) = 24.07104 30.79962 27.43533
#
# Velocity S-wave (km/s) = 3.11763 3.52654 3.32837
# Velocity P-wave (km/s) = 4.64719 5.30287 4.98582
#
# Compressibility (1/GPa) = 0.04675137
#
# Stress axis : x y z
#
# Youngs Moduli (GPa) = 122.07001 48.94995 27.53573
#
# Poissons Ratio (x) = -0.03750 0.12057
# Poissons Ratio (y) = -0.09351 0.15091
# Poissons Ratio (z) = 0.53451 0.26827
#
# Static dielectric constant tensor:
#      x y z
#    x 1.952480 0.000000 -0.052910 
#    y 0.000000 1.957710 0.000000 
#    z -0.052910 0.000000 1.996480 
# 
# From -- ./inp_files/69397.got.cif
#   From: 2010.05.17/outbox.cif.g08.bks.cpg/sg15_35_cif.got.tgz:69397.got - 2010.06.03 18:47:42.
