data_PCOD9268516
_publ_section_title
;
Structure prediction by ZEFSAII (Michael W. Deem and Ramdas Pophale) SiO2 
 PCOD9268516
Probable space group: C 2/C
;
_chemical_formula_sum "Si O2"
_cell_formula_units_Z 44
_cell_length_a 21.179904
_cell_length_b 20.931742
_cell_length_c 13.581379
_cell_angle_alpha 90.000000
_cell_angle_beta 156.126396
_cell_angle_gamma 90.000000
_cell_volume 2436.847047
_symmetry_space_group_name_H-M "C 2/C"
_symmetry_group_IT_number 15
_symmetry_cell_setting 'monoclinic'
loop_
_space_group_symop_operation_xyz
x,y,z
-x,y,1/2-z
-x,-y,-z
x,-y,1/2+z
1/2+x,1/2+y,z
1/2-x,1/2+y,1/2-z
1/2-x,1/2-y,-z
1/2+x,1/2-y,1/2+z
loop_
_atom_site_type_symbol
_atom_site_label
_atom_site_fract_x
_atom_site_fract_y
_atom_site_fract_z
Si Si1 0.000000 0.481758 0.250000
Si Si2 0.950837 0.694269 0.346676
Si Si3 0.426890 0.066666 0.435133
Si Si4 0.811202 0.064641 0.717419
Si Si5 0.574849 0.531563 0.954996
Si Si6 0.233140 0.703225 0.621543
O O1 0.022673 0.437465 0.378390
O O2 0.151582 0.528483 0.457201
O O3 0.976582 0.627202 0.439774
O O4 0.863547 0.743933 0.292312
O O5 0.106703 0.723515 0.521755
O O6 0.843931 0.688268 0.095869
O O7 0.500000 0.000000 0.500000
O O8 0.237924 0.065728 0.162949
O O9 0.786347 0.133409 0.728210
O O10 0.936417 0.071869 0.808223
O O11 0.881523 0.020876 0.902836
O O12 0.500000 0.503594 0.750000
#
# Coordination Sequence:
#
# PCOD9268516 Si02
#       6
#     4   8   8   8   8   8
#     4  10  20  36  58  84 112 146 190 238 280 336
#     4  10  21  34  55  80 109 147 182 232 280 327
#     4  11  21  35  59  83 112 148 188 234 281 332
#     4  10  20  34  54  80 112 142 176 231 274 328
#     4  10  20  32  53  83 109 139 179 225 278 324
#     4  10  20  35  53  79 112 142 187 226 277 337
#
# _framework density 18.056118000000001
#
# number of rings (size 3 to 8) (size 9 to 14) (size 15 to 20)
#    0.000    1.818    0.000    6.545    2.545    0.000 
#    0.000    0.000    2.000    1.091    0.000    0.000 
#    0.000    0.000    0.000    0.000    0.000    0.000 
#
# Total GULP energy -122618.831609 kJ/mol
# GULP energy per Si atom -5573.583255 kJ/mol
# Density = 1.801502 g / cm^3
# Si number density = 18.056118 Si / 1000 Ang^3
#
#
#
# Elastic Constant Matrix: (Units=GPa)
#
#
# Indices 1 2 3 4 5 6 
#
# 1 109.9601 37.3392 49.2153 0.0000 18.5189 0.0000
# 2 37.3392 76.9782 24.3222 0.0000 11.3603 0.0000
# 3 49.2153 24.3222 87.7282 0.0000 5.6947 0.0000
# 4 0.0000 0.0000 0.0000 7.8595 0.0000 4.1814
# 5 18.5189 11.3603 5.6947 0.0000 36.6159 0.0000
# 6 0.0000 0.0000 0.0000 4.1814 0.0000 28.7455
#
#
#
# Elastic Compliance Matrix: (Units=1/GPa)
#
#
# Indices 1 2 3 4 5 6 
#
# 1 0.014243 -0.004121 -0.006529 0.000000 -0.004909 0.000000
# 2 -0.004121 0.015986 -0.001953 0.000000 -0.002572 0.000000
# 3 -0.006529 -0.001953 0.015506 0.000000 0.001496 0.000000
# 4 0.000000 0.000000 0.000000 0.137906 0.000000 -0.020060
# 5 -0.004909 -0.002572 0.001496 0.000000 0.030359 0.000000
# 6 0.000000 0.000000 0.000000 -0.020060 0.000000 0.037706
#
#
# Mechanical properties :
#
#
# Convention : Reuss Voigt Hill
#
# Bulk Modulus (GPa) = 48.71293 55.15775 51.93534
# Shear Modulus (GPa) = 17.62085 25.56350 21.59218
#
# Velocity S-wave (km/s) = 3.12732 3.76677 3.46184
# Velocity P-wave (km/s) = 6.33067 7.03792 6.69364
#
# Compressibility (1/GPa) = 0.02052843
#
# Stress axis : x y z
#
# Youngs Moduli (GPa) = 70.21209 62.55312 64.49168
#
# Poissons Ratio (x) = 0.25779 0.42105
# Poissons Ratio (y) = 0.28936 0.12597
# Poissons Ratio (z) = 0.45840 0.12218
#
# Static dielectric constant tensor:
#      x y z
#    x 1.691830 0.000000 0.052170 
#    y 0.000000 1.595830 0.000000 
#    z 0.052170 0.000000 1.658630 
# 
# From -- ./inp_files/174450.got.cif
#   From: 2010.05.17/outbox.cif.g08.bks.cpg/sg15_88_cif.got.tgz:174450.got - 2010.06.03 18:47:42.
