data_PCOD9268100
_publ_section_title
;
Structure prediction by ZEFSAII (Michael W. Deem and Ramdas Pophale) SiO2 
 PCOD9268100
Probable space group: C 2/C
;
_chemical_formula_sum "Si O2"
_cell_formula_units_Z 48
_cell_length_a 6.803576
_cell_length_b 14.862480
_cell_length_c 19.146940
_cell_angle_alpha 90.000000
_cell_angle_beta 79.850786
_cell_angle_gamma 90.000000
_cell_volume 1905.804773
_symmetry_space_group_name_H-M "C 2/C"
_symmetry_group_IT_number 15
_symmetry_cell_setting 'monoclinic'
loop_
_space_group_symop_operation_xyz
x,y,z
-x,y,1/2-z
-x,-y,-z
x,-y,1/2+z
1/2+x,1/2+y,z
1/2-x,1/2+y,1/2-z
1/2-x,1/2-y,-z
1/2+x,1/2-y,1/2+z
loop_
_atom_site_type_symbol
_atom_site_label
_atom_site_fract_x
_atom_site_fract_y
_atom_site_fract_z
Si Si1 0.341100 0.938916 0.319384
Si Si2 0.807667 0.899112 0.883496
Si Si3 0.646802 0.708414 0.878995
Si Si4 0.500000 0.479078 0.750000
Si Si5 0.000000 0.735758 0.250000
Si Si6 0.723466 0.875440 0.615824
Si Si7 0.652526 0.431113 0.031953
O O1 0.500000 0.922736 0.250000
O O2 0.331515 0.859513 0.376548
O O3 0.379722 0.031456 0.356189
O O4 0.124219 0.963917 0.298151
O O5 0.681601 0.808878 0.904095
O O6 0.833882 0.919838 0.799541
O O7 0.037137 0.874336 0.888425
O O8 0.751932 0.993683 0.923339
O O9 0.646298 0.714119 0.794112
O O10 0.465634 0.649498 0.921301
O O11 0.131430 0.690036 0.179999
O O12 0.711898 0.879413 0.532649
O O13 0.500000 0.500000 0.000000
#
# Coordination Sequence:
#
# PCOD9268100 Si02
#       7
#     8   8   8   4   4   8   8
#     4  11  22  38  67  98 133 185 234 284 353 420
#     4  10  22  39  68  97 132 178 231 286 353 423
#     4  12  24  41  68 102 133 178 239 290 351 433
#     4  10  19  42  63  94 142 184 224 303 358 407
#     4  12  27  42  65 102 132 170 228 301 346 409
#     4  10  22  45  65  93 135 174 220 288 348 418
#     4  10  21  44  67  94 138 185 221 284 369 423
#
# _framework density 25.186209999999999
#
# number of rings (size 3 to 8) (size 9 to 14) (size 15 to 20)
#    0.000    1.333    5.833    2.500    3.500    3.333 
#    0.000    0.833    0.000    0.000    0.000    0.000 
#    0.000    0.000    0.000    0.000    0.000    0.000 
#
# Total GULP energy -133715.094576 kJ/mol
# GULP energy per Si atom -5571.462274 kJ/mol
# Density = 2.512889 g / cm^3
# Si number density = 25.186210 Si / 1000 Ang^3
#
#
#
# Elastic Constant Matrix: (Units=GPa)
#
#
# Indices 1 2 3 4 5 6 
#
# 1 73.3680 23.0065 17.7597 0.0000 -13.8892 0.0000
# 2 23.0065 183.1146 69.7305 0.0000 -25.4822 0.0000
# 3 17.7597 69.7305 129.8400 0.0000 -29.4939 0.0000
# 4 0.0000 0.0000 0.0000 38.6649 0.0000 -12.9281
# 5 -13.8892 -25.4822 -29.4939 0.0000 36.7389 0.0000
# 6 0.0000 0.0000 0.0000 -12.9281 0.0000 20.2608
#
#
#
# Elastic Compliance Matrix: (Units=1/GPa)
#
#
# Indices 1 2 3 4 5 6 
#
# 1 0.014934 -0.001079 -0.000429 0.000000 0.004553 0.000000
# 2 -0.001079 0.007092 -0.003224 0.000000 0.001922 0.000000
# 3 -0.000429 -0.003224 0.010943 0.000000 0.006386 0.000000
# 4 0.000000 0.000000 0.000000 0.032878 0.000000 0.020979
# 5 0.004553 0.001922 0.006386 0.000000 0.035401 0.000000
# 6 0.000000 0.000000 0.000000 0.020979 0.000000 0.062743
#
#
# Mechanical properties :
#
#
# Convention : Reuss Voigt Hill
#
# Bulk Modulus (GPa) = 42.54658 67.47957 55.01307
# Shear Modulus (GPa) = 27.58008 37.52130 32.55069
#
# Velocity S-wave (km/s) = 3.31274 3.86392 3.59890
# Velocity P-wave (km/s) = 5.61799 6.83791 6.25775
#
# Compressibility (1/GPa) = 0.02350365
#
# Stress axis : x y z
#
# Youngs Moduli (GPa) = 66.96079 141.00214 91.38415
#
# Poissons Ratio (x) = 0.15221 0.03918
# Poissons Ratio (y) = 0.07228 0.29467
# Poissons Ratio (z) = 0.02871 0.45466
#
# Static dielectric constant tensor:
#      x y z
#    x 2.143050 0.000000 0.029330 
#    y 0.000000 2.070560 0.000000 
#    z 0.029330 0.000000 2.091170 
# 
# From -- ./inp_files/231102.got.cif
#   From: 2010.05.17/outbox.cif.g08.bks.cpg/sg15_116_cif.got.tgz:231102.got - 2010.06.03 18:47:42.
