data_PCOD9268983
_publ_section_title
;
Structure prediction by ZEFSAII (Michael W. Deem and Ramdas Pophale) SiO2 
 PCOD9268983
Probable space group: C 2/C
;
_chemical_formula_sum "Si O2"
_cell_formula_units_Z 52
_cell_length_a 20.432299
_cell_length_b 11.152588
_cell_length_c 12.435151
_cell_angle_alpha 90.000000
_cell_angle_beta 53.569795
_cell_angle_gamma 90.000000
_cell_volume 2279.888712
_symmetry_space_group_name_H-M "C 2/C"
_symmetry_group_IT_number 15
_symmetry_cell_setting 'monoclinic'
loop_
_space_group_symop_operation_xyz
x,y,z
-x,y,1/2-z
-x,-y,-z
x,-y,1/2+z
1/2+x,1/2+y,z
1/2-x,1/2+y,1/2-z
1/2-x,1/2-y,-z
1/2+x,1/2-y,1/2+z
loop_
_atom_site_type_symbol
_atom_site_label
_atom_site_fract_x
_atom_site_fract_y
_atom_site_fract_z
Si Si1 0.346128 0.237084 0.911781
Si Si2 0.846102 0.636225 0.692655
Si Si3 0.777551 0.199963 0.089048
Si Si4 0.160704 0.060894 0.925911
Si Si5 0.599194 0.253076 0.334378
Si Si6 0.927003 0.559566 0.986761
Si Si7 0.000000 0.633352 0.250000
O O1 0.378982 0.211370 0.761123
O O2 0.362978 0.121049 0.968185
O O3 0.250000 0.250000 0.000000
O O4 0.374448 0.357224 0.943531
O O5 0.835926 0.708029 0.592879
O O6 0.754663 0.597676 0.812928
O O7 0.896712 0.519836 0.615893
O O8 0.691819 0.199501 0.238735
O O9 0.826575 0.075481 0.049698
O O10 0.750000 0.250000 0.000000
O O11 0.113010 0.111148 0.866186
O O12 0.546374 0.180299 0.475110
O O13 0.560500 0.221336 0.257086
O O14 0.968373 0.462423 0.869195
#
# Coordination Sequence:
#
# PCOD9268983 Si02
#       7
#     8   8   8   8   8   8   4
#     4   9  20  33  56  83 121 168 191 256 326 370
#     4  10  20  33  58  85 126 158 198 257 325 373
#     4  11  22  35  61  95 124 160 207 260 322 385
#     4   9  20  37  58  85 131 159 205 261 320 386
#     4  10  22  40  57  91 127 171 205 263 328 369
#     4  11  21  38  59  90 129 162 216 263 317 373
#     4  12  24  36  64  92 130 174 224 264 302 388
#
# _framework density 22.808130999999999
#
# number of rings (size 3 to 8) (size 9 to 14) (size 15 to 20)
#    0.000    1.846    1.538    3.231    6.462    1.231 
#    0.000    0.000    0.000    3.692    0.000   21.538 
#    0.000    0.000    0.000    0.000    0.000    0.000 
#
# Total GULP energy -144775.237338 kJ/mol
# GULP energy per Si atom -5568.278359 kJ/mol
# Density = 2.275622 g / cm^3
# Si number density = 22.808131 Si / 1000 Ang^3
#
#
#
# Elastic Constant Matrix: (Units=GPa)
#
#
# Indices 1 2 3 4 5 6 
#
# 1 101.7042 44.7464 15.5036 0.0000 29.0170 0.0000
# 2 44.7464 132.7488 26.0083 0.0000 18.0571 0.0000
# 3 15.5036 26.0083 90.0148 0.0000 21.3808 0.0000
# 4 0.0000 0.0000 0.0000 19.2706 0.0000 4.4649
# 5 29.0170 18.0571 21.3808 0.0000 32.6578 0.0000
# 6 0.0000 0.0000 0.0000 4.4649 0.0000 40.1794
#
#
#
# Elastic Compliance Matrix: (Units=1/GPa)
#
#
# Indices 1 2 3 4 5 6 
#
# 1 0.014580 -0.003563 0.001335 0.000000 -0.011858 0.000000
# 2 -0.003563 0.009196 -0.001880 0.000000 -0.000688 0.000000
# 3 0.001335 -0.001880 0.013567 0.000000 -0.009029 0.000000
# 4 0.000000 0.000000 0.000000 0.053264 0.000000 -0.005919
# 5 -0.011858 -0.000688 -0.009029 0.000000 0.047449 0.000000
# 6 0.000000 0.000000 0.000000 -0.005919 0.000000 0.025546
#
#
# Mechanical properties :
#
#
# Convention : Reuss Voigt Hill
#
# Bulk Modulus (GPa) = 34.33241 55.22049 44.77645
# Shear Modulus (GPa) = 27.54419 34.30219 30.92319
#
# Velocity S-wave (km/s) = 3.47889 3.88228 3.68611
# Velocity P-wave (km/s) = 5.58769 6.66030 6.14743
#
# Compressibility (1/GPa) = 0.02912700
#
# Stress axis : x y z
#
# Youngs Moduli (GPa) = 68.58793 108.74362 73.70752
#
# Poissons Ratio (x) = 0.38746 -0.09840
# Poissons Ratio (y) = 0.24438 0.13856
# Poissons Ratio (z) = -0.09157 0.20443
#
# Static dielectric constant tensor:
#      x y z
#    x 1.912520 0.000000 -0.025360 
#    y 0.000000 1.900340 0.000000 
#    z -0.025360 0.000000 1.927780 
# 
# From -- ./inp_files/117928.got.cif
#   From: 2010.05.17/outbox.cif.g08.bks.cpg/sg15_59_cif.got.tgz:117928.got - 2010.06.03 18:47:42.
