data_PCOD9268367
_publ_section_title
;
Structure prediction by ZEFSAII (Michael W. Deem and Ramdas Pophale) SiO2 
 PCOD9268367
Probable space group: C 2/C
;
_chemical_formula_sum "Si O2"
_cell_formula_units_Z 44
_cell_length_a 12.868826
_cell_length_b 22.492389
_cell_length_c 11.239682
_cell_angle_alpha 90.000000
_cell_angle_beta 135.072467
_cell_angle_gamma 90.000000
_cell_volume 2297.542508
_symmetry_space_group_name_H-M "C 2/C"
_symmetry_group_IT_number 15
_symmetry_cell_setting 'monoclinic'
loop_
_space_group_symop_operation_xyz
x,y,z
-x,y,1/2-z
-x,-y,-z
x,-y,1/2+z
1/2+x,1/2+y,z
1/2-x,1/2+y,1/2-z
1/2-x,1/2-y,-z
1/2+x,1/2-y,1/2+z
loop_
_atom_site_type_symbol
_atom_site_label
_atom_site_fract_x
_atom_site_fract_y
_atom_site_fract_z
Si Si1 0.171618 0.388100 0.369108
Si Si2 0.872479 0.147691 0.237123
Si Si3 0.945124 0.240780 0.584783
Si Si4 0.500000 0.628148 0.750000
Si Si5 0.744789 0.773228 0.274503
Si Si6 0.566867 0.565268 0.565534
O O1 0.254140 0.387766 0.562661
O O2 0.191037 0.322477 0.324064
O O3 0.272294 0.428777 0.364533
O O4 0.000000 0.401399 0.250000
O O5 0.795355 0.206741 0.220507
O O6 0.000000 0.167565 0.250000
O O7 0.955186 0.107710 0.400968
O O8 0.895795 0.176229 0.596296
O O9 0.835009 0.278594 0.417532
O O10 0.000000 0.272335 0.750000
O O11 0.082333 0.224972 0.610770
O O12 0.570913 0.588466 0.704591
O O13 0.500000 0.500000 0.500000
#
# Coordination Sequence:
#
# PCOD9268367 Si02
#       6
#     8   8   8   4   8   8
#     4  11  22  37  60  93 125 156 196 261 308 352
#     4  10  20  37  58  90 120 164 207 240 299 366
#     4  10  20  31  54  82 124 157 195 244 298 361
#     4  10  20  42  60  90 118 158 214 250 290 368
#     4  12  18  35  53  90 123 160 197 242 306 366
#     4  11  24  42  68  88 115 168 215 250 296 367
#
# _framework density 19.150897000000001
#
# number of rings (size 3 to 8) (size 9 to 14) (size 15 to 20)
#    0.545    0.727    3.636    3.818    3.818    0.000 
#    0.000    0.909    0.000    0.000    0.000    0.000 
#    0.000    0.000    0.000    0.000    0.000    0.000 
#
# Total GULP energy -122660.904610 kJ/mol
# GULP energy per Si atom -5575.495664 kJ/mol
# Density = 1.910731 g / cm^3
# Si number density = 19.150897 Si / 1000 Ang^3
#
#
#
# Elastic Constant Matrix: (Units=GPa)
#
#
# Indices 1 2 3 4 5 6 
#
# 1 142.9307 50.9258 57.7360 0.0000 14.3345 0.0000
# 2 50.9258 84.8793 12.8246 0.0000 1.6161 0.0000
# 3 57.7360 12.8246 77.0735 0.0000 5.3042 0.0000
# 4 0.0000 0.0000 0.0000 13.8475 0.0000 4.3579
# 5 14.3345 1.6161 5.3042 0.0000 36.4294 0.0000
# 6 0.0000 0.0000 0.0000 4.3579 0.0000 15.6523
#
#
#
# Elastic Compliance Matrix: (Units=1/GPa)
#
#
# Indices 1 2 3 4 5 6 
#
# 1 0.013110 -0.006514 -0.008487 0.000000 -0.003634 0.000000
# 2 -0.006514 0.015324 0.002223 0.000000 0.001560 0.000000
# 3 -0.008487 0.002223 0.018929 0.000000 0.000485 0.000000
# 4 0.000000 0.000000 0.000000 0.079150 0.000000 -0.022037
# 5 -0.003634 0.001560 0.000485 0.000000 0.028741 0.000000
# 6 0.000000 0.000000 0.000000 -0.022037 0.000000 0.070024
#
#
# Mechanical properties :
#
#
# Convention : Reuss Voigt Hill
#
# Bulk Modulus (GPa) = 45.85792 60.87291 53.36541
# Shear Modulus (GPa) = 19.37211 25.41233 22.39222
#
# Velocity S-wave (km/s) = 3.18394 3.64669 3.42314
# Velocity P-wave (km/s) = 6.12488 7.04174 6.59925
#
# Compressibility (1/GPa) = 0.02180649
#
# Stress axis : x y z
#
# Youngs Moduli (GPa) = 76.27751 65.25566 52.82939
#
# Poissons Ratio (x) = 0.42509 0.44835
# Poissons Ratio (y) = 0.49689 -0.11742
# Poissons Ratio (z) = 0.64735 -0.14504
#
# Static dielectric constant tensor:
#      x y z
#    x 1.694430 0.000000 -0.022370 
#    y 0.000000 1.654580 0.000000 
#    z -0.022370 0.000000 1.729960 
# 
# From -- ./inp_files/99884.got.cif
#   From: 2010.05.17/outbox.cif.g08.bks.cpg/sg15_50_cif.got.tgz:99884.got - 2010.06.03 18:47:42.
