data_PCOD9268618
_publ_section_title
;
Structure prediction by ZEFSAII (Michael W. Deem and Ramdas Pophale) SiO2 
 PCOD9268618
Probable space group: C 2/C
;
_chemical_formula_sum "Si O2"
_cell_formula_units_Z 56
_cell_length_a 18.254280
_cell_length_b 5.067397
_cell_length_c 32.191856
_cell_angle_alpha 90.000000
_cell_angle_beta 117.902046
_cell_angle_gamma 90.000000
_cell_volume 2631.628313
_symmetry_space_group_name_H-M "C 2/C"
_symmetry_group_IT_number 15
_symmetry_cell_setting 'monoclinic'
loop_
_space_group_symop_operation_xyz
x,y,z
-x,y,1/2-z
-x,-y,-z
x,-y,1/2+z
1/2+x,1/2+y,z
1/2-x,1/2+y,1/2-z
1/2-x,1/2-y,-z
1/2+x,1/2-y,1/2+z
loop_
_atom_site_type_symbol
_atom_site_label
_atom_site_fract_x
_atom_site_fract_y
_atom_site_fract_z
Si Si1 0.006486 0.086611 0.301313
Si Si2 0.095318 0.348846 0.934059
Si Si3 0.947439 0.598494 0.333390
Si Si4 0.803335 0.950346 0.650044
Si Si5 0.255935 0.943811 0.591690
Si Si6 0.762968 0.566799 0.780389
Si Si7 0.659306 0.326388 0.994029
O O1 0.101238 0.016805 0.337940
O O2 0.000000 0.085955 0.250000
O O3 0.985207 0.371478 0.313966
O O4 0.949135 0.868598 0.307726
O O5 0.164765 0.427320 0.918133
O O6 0.106171 0.562301 0.973805
O O7 0.006753 0.365418 0.888644
O O8 0.118836 0.059224 0.956285
O O9 0.855318 0.507779 0.319569
O O10 0.776674 0.653804 0.632853
O O11 0.795926 0.017610 0.696273
O O12 0.748246 0.155005 0.609138
O O13 0.179695 0.053527 0.544480
O O14 0.757868 0.861747 0.761834
O O15 0.750000 0.250000 0.000000
#
# Coordination Sequence:
#
# PCOD9268618 Si02
#       7
#     8   8   8   8   8   8   8
#     4  12  23  39  62  92 119 156 203 267 314 349
#     4  11  19  36  58  92 127 158 202 246 311 361
#     4  12  24  41  64  89 125 160 207 256 303 374
#     4  12  22  39  63  89 125 158 206 258 300 367
#     4  11  20  36  59  94 125 157 203 248 311 356
#     4  12  27  47  63  88 123 170 211 247 312 379
#     4  10  20  32  58  91 131 160 190 252 307 370
#
# _framework density 21.279601
#
# number of rings (size 3 to 8) (size 9 to 14) (size 15 to 20)
#    0.000    0.571    2.857    9.000    0.000    0.000 
#    0.000    0.000    0.000    5.143    0.000    0.000 
#    0.000    0.000    0.000    0.000    0.000    0.000 
#
# Total GULP energy -156675.778208 kJ/mol
# GULP energy per Si atom -5595.563507 kJ/mol
# Density = 2.123117 g / cm^3
# Si number density = 21.279601 Si / 1000 Ang^3
#
#
#
# Elastic Constant Matrix: (Units=GPa)
#
#
# Indices 1 2 3 4 5 6 
#
# 1 33.4917 -3.9175 0.9414 0.0000 11.6094 -0.0008
# 2 -3.9175 89.8822 5.9595 0.0002 9.4652 -0.0024
# 3 0.9414 5.9595 56.5011 0.0000 21.6376 0.0002
# 4 0.0000 0.0002 0.0000 49.4579 0.0001 3.4026
# 5 11.6094 9.4652 21.6376 0.0001 30.2325 0.0003
# 6 -0.0008 -0.0024 0.0002 3.4026 0.0003 5.0491
#
#
#
# Elastic Compliance Matrix: (Units=1/GPa)
#
#
# Indices 1 2 3 4 5 6 
#
# 1 0.036998 0.003278 0.006711 -0.000001 -0.020037 0.000009
# 2 0.003278 0.011797 0.000823 -0.000001 -0.005541 0.000007
# 3 0.006711 0.000823 0.025603 0.000000 -0.021159 0.000002
# 4 -0.000001 -0.000001 0.000000 0.021202 0.000001 -0.014288
# 5 -0.020037 -0.005541 -0.021159 0.000001 0.057650 -0.000009
# 6 0.000009 0.000007 0.000002 -0.014288 -0.000009 0.207684
#
#
# Mechanical properties :
#
#
# Convention : Reuss Voigt Hill
#
# Bulk Modulus (GPa) = 10.41419 20.64909 15.53164
# Shear Modulus (GPa) = 13.46550 28.74067 21.10309
#
# Velocity S-wave (km/s) = 2.51826 3.67907 3.15255
# Velocity P-wave (km/s) = 3.65515 5.26993 4.53499
#
# Compressibility (1/GPa) = 0.09602285
#
# Stress axis : x y z
#
# Youngs Moduli (GPa) = 27.02821 84.76381 39.05753
#
# Poissons Ratio (x) = -0.27782 -0.26212
# Poissons Ratio (y) = -0.08859 -0.03215
# Poissons Ratio (z) = -0.18139 -0.06977
#
# Static dielectric constant tensor:
#      x y z
#    x 1.746390 0.000000 0.020480 
#    y 0.000000 1.748720 0.000000 
#    z 0.020480 0.000000 1.790230 
# 
# From -- ./inp_files/315118.got.cif
#   From: 2010.05.17/outbox.cif.g08.bks.cpg/sg15_158_cif.got.tgz:315118.got - 2010.06.03 18:47:42.
