data_PCOD9268170
_publ_section_title
;
Structure prediction by ZEFSAII (Michael W. Deem and Ramdas Pophale) SiO2 
 PCOD9268170
Probable space group: C 2/C
;
_chemical_formula_sum "Si O2"
_cell_formula_units_Z 40
_cell_length_a 14.745679
_cell_length_b 10.936570
_cell_length_c 13.025405
_cell_angle_alpha 90.000000
_cell_angle_beta 69.664755
_cell_angle_gamma 90.000000
_cell_volume 1969.652647
_symmetry_space_group_name_H-M "C 2/C"
_symmetry_group_IT_number 15
_symmetry_cell_setting 'monoclinic'
loop_
_space_group_symop_operation_xyz
x,y,z
-x,y,1/2-z
-x,-y,-z
x,-y,1/2+z
1/2+x,1/2+y,z
1/2-x,1/2+y,1/2-z
1/2-x,1/2-y,-z
1/2+x,1/2-y,1/2+z
loop_
_atom_site_type_symbol
_atom_site_label
_atom_site_fract_x
_atom_site_fract_y
_atom_site_fract_z
Si Si1 0.449367 0.166790 0.034294
Si Si2 0.390433 0.774685 0.332231
Si Si3 0.026369 0.927443 0.389165
Si Si4 0.138159 0.579752 0.861261
Si Si5 0.156153 0.002143 0.166905
O O1 0.436808 0.293354 0.097638
O O2 0.412165 0.054271 0.117130
O O3 0.398268 0.166117 0.942031
O O4 0.562636 0.156039 0.959675
O O5 0.500000 0.745291 0.250000
O O6 0.351985 0.861304 0.255984
O O7 0.337429 0.644734 0.365289
O O8 0.111028 0.999243 0.298202
O O9 0.927017 0.932382 0.363603
O O10 0.000000 0.000000 0.500000
O O11 0.241740 0.563576 0.872321
#
# Coordination Sequence:
#
# PCOD9268170 Si02
#       5
#     8   8   8   8   8
#     4  10  22  44  65  88 130 170 206 258 317 380
#     4  10  19  43  65  84 130 168 203 254 317 374
#     4  11  21  42  66  93 124 165 212 262 313 372
#     4  10  24  40  61  97 125 166 210 255 321 377
#     4  11  23  39  65  97 122 164 214 265 310 368
#
# _framework density 20.308150000000001
#
# number of rings (size 3 to 8) (size 9 to 14) (size 15 to 20)
#    0.000    1.600    4.000    1.200    2.800    3.200 
#   18.000    0.000    0.000    0.000    0.000    0.000 
#    0.000    0.000    0.000    0.000    0.000    0.000 
#
# Total GULP energy -111633.881551 kJ/mol
# GULP energy per Si atom -5581.694078 kJ/mol
# Density = 2.026193 g / cm^3
# Si number density = 20.308150 Si / 1000 Ang^3
#
#
#
# Elastic Constant Matrix: (Units=GPa)
#
#
# Indices 1 2 3 4 5 6 
#
# 1 86.0079 -3.5464 9.6724 0.0000 -2.8852 0.0000
# 2 -3.5464 65.2519 5.5274 0.0000 16.7830 0.0000
# 3 9.6724 5.5274 41.7101 0.0000 7.5625 0.0000
# 4 0.0000 0.0000 0.0000 18.6196 0.0000 17.4315
# 5 -2.8852 16.7830 7.5625 0.0000 17.5249 0.0000
# 6 0.0000 0.0000 0.0000 17.4315 0.0000 25.6349
#
#
#
# Elastic Compliance Matrix: (Units=1/GPa)
#
#
# Indices 1 2 3 4 5 6 
#
# 1 0.012131 0.000073 -0.003442 0.000000 0.003412 0.000000
# 2 0.000073 0.020366 0.000888 0.000000 -0.019875 0.000000
# 3 -0.003442 0.000888 0.027027 0.000000 -0.013080 0.000000
# 4 0.000000 0.000000 0.000000 0.147791 0.000000 -0.100497
# 5 0.003412 -0.019875 -0.013080 0.000000 0.082301 0.000000
# 6 0.000000 0.000000 0.000000 -0.100497 0.000000 0.107347
#
#
# Mechanical properties :
#
#
# Convention : Reuss Voigt Hill
#
# Bulk Modulus (GPa) = 18.32754 24.03073 21.17914
# Shear Modulus (GPa) = 11.90158 24.44364 18.17261
#
# Velocity S-wave (km/s) = 2.42347 3.47311 2.99464
# Velocity P-wave (km/s) = 4.10795 5.28603 4.73378
#
# Compressibility (1/GPa) = 0.05456270
#
# Stress axis : x y z
#
# Youngs Moduli (GPa) = 82.43093 49.10185 37.00007
#
# Poissons Ratio (x) = -0.00360 0.12734
# Poissons Ratio (y) = -0.00604 -0.03284
# Poissons Ratio (z) = 0.28369 -0.04358
#
# Static dielectric constant tensor:
#      x y z
#    x 1.731890 0.000000 -0.021950 
#    y 0.000000 1.740860 0.000000 
#    z -0.021950 0.000000 1.609460 
# 
# From -- ./inp_files/94686.got.cif
#   From: 2010.05.17/outbox.cif.g08.bks.cpg/sg15_48_cif.got.tgz:94686.got - 2010.06.03 18:47:42.
