data_PCOD9268802
_publ_section_title
;
Structure prediction by ZEFSAII (Michael W. Deem and Ramdas Pophale) SiO2 
 PCOD9268802
Probable space group: C 2/C
;
_chemical_formula_sum "Si O2"
_cell_formula_units_Z 40
_cell_length_a 4.945199
_cell_length_b 19.677394
_cell_length_c 16.161542
_cell_angle_alpha 90.000000
_cell_angle_beta 93.670724
_cell_angle_gamma 90.000000
_cell_volume 1569.431129
_symmetry_space_group_name_H-M "C 2/C"
_symmetry_group_IT_number 15
_symmetry_cell_setting 'monoclinic'
loop_
_space_group_symop_operation_xyz
x,y,z
-x,y,1/2-z
-x,-y,-z
x,-y,1/2+z
1/2+x,1/2+y,z
1/2-x,1/2+y,1/2-z
1/2-x,1/2-y,-z
1/2+x,1/2-y,1/2+z
loop_
_atom_site_type_symbol
_atom_site_label
_atom_site_fract_x
_atom_site_fract_y
_atom_site_fract_z
Si Si1 0.651682 0.951058 0.440838
Si Si2 0.605408 0.439949 0.338081
Si Si3 0.990584 0.670814 0.031874
Si Si4 0.243563 0.156435 0.195211
Si Si5 0.904237 0.788739 0.125067
O O1 0.424193 0.940614 0.363882
O O2 0.692065 0.882538 0.495629
O O3 0.931186 0.974497 0.406957
O O4 0.500000 0.000000 0.500000
O O5 0.500000 0.468575 0.250000
O O6 0.505451 0.360970 0.340459
O O7 0.796981 0.638087 0.099906
O O8 0.110441 0.735536 0.084247
O O9 0.806076 0.693775 0.952028
O O10 0.500000 0.129921 0.250000
O O11 0.262776 0.239318 0.188788
O O12 0.000000 0.137785 0.250000
#
# Coordination Sequence:
#
# PCOD9268802 Si02
#       5
#     8   8   8   8   8
#     4  11  24  44  67  89 126 175 222 253 307 378
#     4  11  23  41  67  99 123 159 208 276 320 370
#     4   8  19  39  57  90 121 165 205 249 309 380
#     4  10  20  33  52  83 121 154 192 241 307 366
#     4   8  18  37  58  91 122 158 198 250 322 377
#
# _framework density 25.486944000000001
#
# number of rings (size 3 to 8) (size 9 to 14) (size 15 to 20)
#    1.200    1.200    0.000    1.800    0.000   10.400 
#    0.000    3.000    0.000    0.000    0.000    0.000 
#    0.000    0.000    0.000    0.000    0.000    0.000 
#
# Total GULP energy -111592.368227 kJ/mol
# GULP energy per Si atom -5579.618411 kJ/mol
# Density = 2.542893 g / cm^3
# Si number density = 25.486944 Si / 1000 Ang^3
#
#
#
# Elastic Constant Matrix: (Units=GPa)
#
#
# Indices 1 2 3 4 5 6 
#
# 1 123.5955 -17.6016 41.0542 0.0000 -9.6811 0.0000
# 2 -17.6016 38.2992 -3.6366 0.0000 7.4032 0.0000
# 3 41.0542 -3.6366 116.4849 0.0000 -5.3335 0.0000
# 4 0.0000 0.0000 0.0000 11.3074 0.0000 -7.0859
# 5 -9.6811 7.4032 -5.3335 0.0000 34.8901 0.0000
# 6 0.0000 0.0000 0.0000 -7.0859 0.0000 22.7996
#
#
#
# Elastic Compliance Matrix: (Units=1/GPa)
#
#
# Indices 1 2 3 4 5 6 
#
# 1 0.009854 0.003947 -0.003286 0.000000 0.001394 0.000000
# 2 0.003947 0.028848 -0.000726 0.000000 -0.005137 0.000000
# 3 -0.003286 -0.000726 0.009754 0.000000 0.000733 0.000000
# 4 0.000000 0.000000 0.000000 0.109828 0.000000 0.034134
# 5 0.001394 -0.005137 0.000733 0.000000 0.030250 0.000000
# 6 0.000000 0.000000 0.000000 0.034134 0.000000 0.054469
#
#
# Mechanical properties :
#
#
# Convention : Reuss Voigt Hill
#
# Bulk Modulus (GPa) = 20.69243 35.33460 28.01351
# Shear Modulus (GPa) = 19.28707 31.03699 25.16203
#
# Velocity S-wave (km/s) = 2.75388 3.49343 3.14547
# Velocity P-wave (km/s) = 4.27180 5.49235 4.92007
#
# Compressibility (1/GPa) = 0.04832686
#
# Stress axis : x y z
#
# Youngs Moduli (GPa) = 101.48513 34.66418 102.52449
#
# Poissons Ratio (x) = -0.13682 0.33687
# Poissons Ratio (y) = -0.40057 0.07440
# Poissons Ratio (z) = 0.33346 0.02515
#
# Static dielectric constant tensor:
#      x y z
#    x 1.968870 0.000000 -0.013790 
#    y 0.000000 2.155650 0.000000 
#    z -0.013790 0.000000 1.977020 
# 
# From -- ./inp_files/129114.got.cif
#   From: 2010.05.17/outbox.cif.g08.bks.cpg/sg15_65_cif.got.tgz:129114.got - 2010.06.03 18:47:42.
