data_PCOD9268565
_publ_section_title
;
Structure prediction by ZEFSAII (Michael W. Deem and Ramdas Pophale) SiO2 
 PCOD9268565
Probable space group: C 2/C
;
_chemical_formula_sum "Si O2"
_cell_formula_units_Z 64
_cell_length_a 24.885628
_cell_length_b 24.858046
_cell_length_c 12.955982
_cell_angle_alpha 90.000000
_cell_angle_beta 25.911823
_cell_angle_gamma 90.000000
_cell_volume 3502.312111
_symmetry_space_group_name_H-M "C 2/C"
_symmetry_group_IT_number 15
_symmetry_cell_setting 'monoclinic'
loop_
_space_group_symop_operation_xyz
x,y,z
-x,y,1/2-z
-x,-y,-z
x,-y,1/2+z
1/2+x,1/2+y,z
1/2-x,1/2+y,1/2-z
1/2-x,1/2-y,-z
1/2+x,1/2-y,1/2+z
loop_
_atom_site_type_symbol
_atom_site_label
_atom_site_fract_x
_atom_site_fract_y
_atom_site_fract_z
Si Si1 0.280319 0.166368 0.898537
Si Si2 0.129771 0.002910 0.580626
Si Si3 0.133321 0.647967 0.983960
Si Si4 0.175657 0.791536 0.199725
Si Si5 0.820185 0.934614 0.809660
Si Si6 0.554304 0.746329 0.270241
Si Si7 0.248706 0.460991 0.326323
Si Si8 0.913412 0.095222 0.710454
O O1 0.340559 0.152355 0.683562
O O2 0.366798 0.206001 0.814882
O O3 0.253301 0.114920 0.016274
O O4 0.149331 0.195897 0.102913
O O5 0.153251 0.062621 0.582685
O O6 0.000000 0.003590 0.750000
O O7 0.122852 0.965938 0.692096
O O8 0.221542 0.976088 0.342320
O O9 0.000000 0.667230 0.250000
O O10 0.233979 0.683488 0.870079
O O11 0.148661 0.586072 0.995769
O O12 0.122571 0.842703 0.228653
O O13 0.060042 0.765587 0.457474
O O14 0.250000 0.750000 0.000000
O O15 0.939707 0.915270 0.538445
O O16 0.737304 0.980288 0.898206
O O17 0.500000 0.756884 0.250000
O O18 0.359826 0.431931 0.197728
#
# Coordination Sequence:
#
# PCOD9268565 Si02
#       8
#     8   8   8   8   8   8   8   8
#     4  11  23  39  69  95 124 166 216 263 312 381
#     4  11  17  30  56  91 123 154 193 251 311 362
#     4  11  23  42  66  91 119 168 218 252 311 392
#     4  11  23  42  64  89 128 168 206 269 324 364
#     4  11  19  34  58  94 122 158 204 253 310 370
#     4  11  23  43  65  95 126 165 219 268 318 373
#     4  10  20  34  58  85 124 157 195 252 308 367
#     4  10  20  32  55  91 121 153 205 253 301 377
#
# _framework density 18.273643
#
# number of rings (size 3 to 8) (size 9 to 14) (size 15 to 20)
#    0.000    1.250    6.250    1.500    0.000    0.500 
#    2.250    3.125    0.000    0.000    0.000    0.000 
#    0.000    0.000    0.000    0.000    0.000    0.000 
#
# Total GULP energy -178395.722418 kJ/mol
# GULP energy per Si atom -5574.866326 kJ/mol
# Density = 1.823205 g / cm^3
# Si number density = 18.273643 Si / 1000 Ang^3
#
#
#
# Elastic Constant Matrix: (Units=GPa)
#
#
# Indices 1 2 3 4 5 6 
#
# 1 56.1363 27.2246 20.0034 -0.0007 -4.3595 0.0004
# 2 27.2246 115.4756 39.7106 -0.0002 1.0379 0.0000
# 3 20.0034 39.7106 93.1132 -0.0003 -2.1124 0.0002
# 4 -0.0007 -0.0002 -0.0003 28.3201 0.0006 5.9186
# 5 -4.3595 1.0379 -2.1124 0.0006 19.6699 -0.0005
# 6 0.0004 0.0000 0.0002 5.9186 -0.0005 14.0416
#
#
#
# Elastic Compliance Matrix: (Units=1/GPa)
#
#
# Indices 1 2 3 4 5 6 
#
# 1 0.021115 -0.004096 -0.002685 0.000000 0.004608 -0.000001
# 2 -0.004096 0.010963 -0.003838 0.000000 -0.001899 0.000000
# 3 -0.002685 -0.003838 0.012976 0.000000 0.001001 0.000000
# 4 0.000000 0.000000 0.000000 0.038722 -0.000001 -0.016321
# 5 0.004608 -0.001899 0.001001 -0.000001 0.052068 0.000002
# 6 -0.000001 0.000000 0.000000 -0.016321 0.000002 0.078096
#
#
# Mechanical properties :
#
#
# Convention : Reuss Voigt Hill
#
# Bulk Modulus (GPa) = 41.99034 48.73360 45.36197
# Shear Modulus (GPa) = 20.56630 24.25875 22.41252
#
# Velocity S-wave (km/s) = 3.35843 3.64748 3.50593
# Velocity P-wave (km/s) = 6.16987 6.66824 6.42389
#
# Compressibility (1/GPa) = 0.02381500
#
# Stress axis : x y z
#
# Youngs Moduli (GPa) = 47.36017 91.21924 77.06512
#
# Poissons Ratio (x) = 0.37366 0.20689
# Poissons Ratio (y) = 0.19400 0.29580
# Poissons Ratio (z) = 0.12714 0.35013
#
# Static dielectric constant tensor:
#      x y z
#    x 1.709920 0.000000 0.092120 
#    y 0.000000 1.643510 0.000000 
#    z 0.092120 0.000000 1.694140 
# 
# From -- ./inp_files/120232.got.cif
#   From: 2010.05.17/outbox.cif.g08.bks.cpg/sg15_61_cif.got.tgz:120232.got - 2010.06.03 18:47:42.
