data_PCOD9268731
_publ_section_title
;
Structure prediction by ZEFSAII (Michael W. Deem and Ramdas Pophale) SiO2 
 PCOD9268731
Probable space group: C 2/C
;
_chemical_formula_sum "Si O2"
_cell_formula_units_Z 64
_cell_length_a 14.596707
_cell_length_b 11.995367
_cell_length_c 13.585904
_cell_angle_alpha 90.000000
_cell_angle_beta 92.971070
_cell_angle_gamma 90.000000
_cell_volume 2375.597255
_symmetry_space_group_name_H-M "C 2/C"
_symmetry_group_IT_number 15
_symmetry_cell_setting 'monoclinic'
loop_
_space_group_symop_operation_xyz
x,y,z
-x,y,1/2-z
-x,-y,-z
x,-y,1/2+z
1/2+x,1/2+y,z
1/2-x,1/2+y,1/2-z
1/2-x,1/2-y,-z
1/2+x,1/2-y,1/2+z
loop_
_atom_site_type_symbol
_atom_site_label
_atom_site_fract_x
_atom_site_fract_y
_atom_site_fract_z
Si Si1 0.279387 0.316116 0.629519
Si Si2 0.493707 0.280554 0.633317
Si Si3 0.257445 0.317246 0.865672
Si Si4 0.260566 0.931501 0.134361
Si Si5 0.975951 0.539339 0.633688
Si Si6 0.741141 0.565083 0.870142
Si Si7 0.033508 0.694157 0.362839
Si Si8 0.939059 0.101744 0.523922
O O1 0.387589 0.312157 0.604714
O O2 0.278980 0.316216 0.749629
O O3 0.234675 0.195034 0.598642
O O4 0.232254 0.435945 0.599324
O O5 0.500000 0.294480 0.750000
O O6 0.518762 0.154554 0.607912
O O7 0.575696 0.345207 0.584530
O O8 0.273759 0.447044 0.905529
O O9 0.279160 0.188444 0.905323
O O10 0.144227 0.313058 0.866983
O O11 0.368593 0.939058 0.122217
O O12 0.245568 0.932782 0.251772
O O13 0.003162 0.420908 0.593058
O O14 0.000000 0.526445 0.750000
O O15 0.637588 0.571083 0.903270
O O16 0.003392 0.800671 0.421310
O O17 0.000000 0.706948 0.250000
O O18 0.000000 0.000000 0.500000
#
# Coordination Sequence:
#
# PCOD9268731 Si02
#       8
#     8   8   8   8   8   8   8   8
#     4   9  15  28  48  70  97 131 165 208 254 297
#     4  10  20  33  51  74 103 136 174 215 258 304
#     4   8  15  27  47  74  97 126 167 207 249 306
#     4   8  14  25  47  72  94 128 165 203 253 300
#     4   8  15  30  52  78  98 124 170 210 259 304
#     4   9  16  28  45  69  99 129 166 204 250 299
#     4   9  18  33  54  78 102 130 169 213 258 307
#     4  11  21  33  47  73 107 139 172 207 252 307
#
# _framework density 26.940593
#
# number of rings (size 3 to 8) (size 9 to 14) (size 15 to 20)
#    0.000    3.000    1.250    0.000    0.000    1.000 
#    0.000    0.000    0.000   19.500    0.000    0.000 
#    0.000    0.000    0.000    0.000    0.000    0.000 
#
# Total GULP energy -178532.096570 kJ/mol
# GULP energy per Si atom -5579.128018 kJ/mol
# Density = 2.687927 g / cm^3
# Si number density = 26.940593 Si / 1000 Ang^3
#
#
#
# Elastic Constant Matrix: (Units=GPa)
#
#
# Indices 1 2 3 4 5 6 
#
# 1 57.7473 35.7199 13.7961 0.0000 -20.1721 0.0000
# 2 35.7199 307.1408 52.3809 0.0000 -14.0729 0.0000
# 3 13.7961 52.3809 49.1760 0.0000 0.8016 0.0000
# 4 0.0000 0.0000 0.0000 45.2184 0.0000 -2.4092
# 5 -20.1721 -14.0729 0.8016 0.0000 43.1127 0.0000
# 6 0.0000 0.0000 0.0000 -2.4092 0.0000 19.0401
#
#
#
# Elastic Compliance Matrix: (Units=1/GPa)
#
#
# Indices 1 2 3 4 5 6 
#
# 1 0.023024 -0.001306 -0.005239 0.000000 0.010444 0.000000
# 2 -0.001306 0.004136 -0.004053 0.000000 0.000815 0.000000
# 3 -0.005239 -0.004053 0.026191 0.000000 -0.004261 0.000000
# 4 0.000000 0.000000 0.000000 0.022265 0.000000 0.002817
# 5 0.010444 0.000815 -0.004261 0.000000 0.028427 0.000000
# 6 0.000000 0.000000 0.000000 0.002817 0.000000 0.052877
#
#
# Mechanical properties :
#
#
# Convention : Reuss Voigt Hill
#
# Bulk Modulus (GPa) = 31.09722 68.65086 49.87404
# Shear Modulus (GPa) = 26.47826 42.28541 34.38183
#
# Velocity S-wave (km/s) = 3.13843 3.96609 3.57628
# Velocity P-wave (km/s) = 4.97000 6.81988 5.96706
#
# Compressibility (1/GPa) = 0.03215721
#
# Stress axis : x y z
#
# Youngs Moduli (GPa) = 43.43227 241.76954 38.18091
#
# Poissons Ratio (x) = 0.31568 0.20002
# Poissons Ratio (y) = 0.05671 0.15474
# Poissons Ratio (z) = 0.22753 0.97982
#
# Static dielectric constant tensor:
#      x y z
#    x 1.901120 0.000000 0.030030 
#    y 0.000000 2.122210 0.000000 
#    z 0.030030 0.000000 2.108840 
# 
# From -- ./inp_files/218958.got.cif
#   From: 2010.05.17/outbox.cif.g08.bks.cpg/sg15_110_cif.got.tgz:218958.got - 2010.06.03 18:47:42.
