data_PCOD9268050
_publ_section_title
;
Structure prediction by ZEFSAII (Michael W. Deem and Ramdas Pophale) SiO2 
 PCOD9268050
Probable space group: C 2/C
;
_chemical_formula_sum "Si O2"
_cell_formula_units_Z 56
_cell_length_a 16.601593
_cell_length_b 13.539315
_cell_length_c 18.320131
_cell_angle_alpha 90.000000
_cell_angle_beta 35.329807
_cell_angle_gamma 90.000000
_cell_volume 2381.303765
_symmetry_space_group_name_H-M "C 2/C"
_symmetry_group_IT_number 15
_symmetry_cell_setting 'monoclinic'
loop_
_space_group_symop_operation_xyz
x,y,z
-x,y,1/2-z
-x,-y,-z
x,-y,1/2+z
1/2+x,1/2+y,z
1/2-x,1/2+y,1/2-z
1/2-x,1/2-y,-z
1/2+x,1/2-y,1/2+z
loop_
_atom_site_type_symbol
_atom_site_label
_atom_site_fract_x
_atom_site_fract_y
_atom_site_fract_z
Si Si1 0.140468 0.901563 0.835691
Si Si2 0.318919 0.416339 0.101622
Si Si3 0.451818 0.874651 0.869040
Si Si4 0.844494 0.115470 0.344386
Si Si5 0.842699 0.117444 0.851959
Si Si6 0.818772 0.764627 0.228354
Si Si7 0.879643 0.594660 0.888059
O O1 0.180370 0.883392 0.723046
O O2 0.182680 0.801140 0.844440
O O3 0.214630 0.992434 0.820322
O O4 0.978313 0.923797 0.958936
O O5 0.309822 0.316368 0.155978
O O6 0.230230 0.428817 0.094593
O O7 0.500000 0.857759 0.750000
O O8 0.554277 0.811825 0.846424
O O9 0.445756 0.995845 0.876695
O O10 0.291762 0.844993 0.004315
O O11 0.709211 0.155595 0.487188
O O12 0.000000 0.150152 0.250000
O O13 0.844180 0.999206 0.364647
O O14 0.822447 0.146411 0.783020
O O15 0.000000 0.152336 0.750000
O O16 0.000000 0.642924 0.750000
#
# Coordination Sequence:
#
# PCOD9268050 Si02
#       7
#     8   8   8   8   8   8   8
#     4  11  23  42  70  98 136 189 228 284 349 421
#     4  11  24  43  69 101 143 182 232 287 355 418
#     4  10  22  40  65  99 134 171 221 284 348 406
#     4  10  19  41  68  94 125 178 233 268 329 417
#     4  10  22  38  65  97 131 170 220 279 340 411
#     4  12  24  41  63 105 142 171 229 293 353 404
#     4  10  21  42  68  96 131 179 229 283 340 409
#
# _framework density 23.516529999999999
#
# number of rings (size 3 to 8) (size 9 to 14) (size 15 to 20)
#    0.000    1.429    2.857    3.000    0.000    3.429 
#    5.143    3.571    0.000    0.000    0.000    0.000 
#    0.000    0.000    0.000    0.000    0.000    0.000 
#
# Total GULP energy -156274.136861 kJ/mol
# GULP energy per Si atom -5581.219174 kJ/mol
# Density = 2.346301 g / cm^3
# Si number density = 23.516530 Si / 1000 Ang^3
#
#
#
# Elastic Constant Matrix: (Units=GPa)
#
#
# Indices 1 2 3 4 5 6 
#
# 1 80.4058 12.4338 10.2317 0.0001 14.2624 0.0000
# 2 12.4338 91.0808 0.7660 0.0002 9.6905 0.0001
# 3 10.2317 0.7660 131.4060 0.0002 11.6842 0.0001
# 4 0.0001 0.0002 0.0002 69.9747 -0.0001 13.5679
# 5 14.2624 9.6905 11.6842 -0.0001 35.6397 0.0000
# 6 0.0000 0.0001 0.0001 13.5679 0.0000 10.5443
#
#
#
# Elastic Compliance Matrix: (Units=1/GPa)
#
#
# Indices 1 2 3 4 5 6 
#
# 1 0.013586 -0.001331 -0.000617 0.000000 -0.004873 0.000000
# 2 -0.001331 0.011443 0.000274 0.000000 -0.002668 0.000000
# 3 -0.000617 0.000274 0.007871 0.000000 -0.002408 0.000000
# 4 0.000000 0.000000 0.000000 0.019042 0.000000 -0.024502
# 5 -0.004873 -0.002668 -0.002408 0.000000 0.031524 0.000000
# 6 0.000000 0.000000 0.000000 -0.024502 0.000000 0.126365
#
#
# Mechanical properties :
#
#
# Convention : Reuss Voigt Hill
#
# Bulk Modulus (GPa) = 33.83932 38.86173 36.35052
# Shear Modulus (GPa) = 22.41883 41.86249 32.14066
#
# Velocity S-wave (km/s) = 3.09094 4.22374 3.70094
# Velocity P-wave (km/s) = 5.21147 6.35199 5.80978
#
# Compressibility (1/GPa) = 0.02955142
#
# Stress axis : x y z
#
# Youngs Moduli (GPa) = 73.60777 87.39299 127.05599
#
# Poissons Ratio (x) = 0.11632 0.07837
# Poissons Ratio (y) = 0.09797 -0.03484
# Poissons Ratio (z) = 0.04540 -0.02396
#
# Static dielectric constant tensor:
#      x y z
#    x 1.881910 0.000000 -0.028460 
#    y 0.000000 1.913730 0.000000 
#    z -0.028460 0.000000 1.928230 
# 
# From -- ./inp_files/249239.got.cif
#   From: 2010.05.17/outbox.cif.g08.bks.cpg/sg15_125_cif.got.tgz:249239.got - 2010.06.03 18:47:42.
