data_PCOD9268598
_publ_section_title
;
Structure prediction by ZEFSAII (Michael W. Deem and Ramdas Pophale) SiO2 
 PCOD9268598
Probable space group: C 2/C
;
_chemical_formula_sum "Si O2"
_cell_formula_units_Z 56
_cell_length_a 18.592833
_cell_length_b 10.929896
_cell_length_c 20.071109
_cell_angle_alpha 90.000000
_cell_angle_beta 43.799773
_cell_angle_gamma 90.000000
_cell_volume 2823.105534
_symmetry_space_group_name_H-M "C 2/C"
_symmetry_group_IT_number 15
_symmetry_cell_setting 'monoclinic'
loop_
_space_group_symop_operation_xyz
x,y,z
-x,y,1/2-z
-x,-y,-z
x,-y,1/2+z
1/2+x,1/2+y,z
1/2-x,1/2+y,1/2-z
1/2-x,1/2-y,-z
1/2+x,1/2-y,1/2+z
loop_
_atom_site_type_symbol
_atom_site_label
_atom_site_fract_x
_atom_site_fract_y
_atom_site_fract_z
Si Si1 0.922887 0.553800 0.107857
Si Si2 0.245018 0.864788 0.223025
Si Si3 0.606344 0.521279 0.718534
Si Si4 0.984653 0.581773 0.838364
Si Si5 0.424721 0.681360 0.147526
Si Si6 0.611028 0.698474 0.927031
Si Si7 0.774124 0.645391 0.036841
O O1 0.816608 0.483528 0.163391
O O2 0.926426 0.697694 0.098837
O O3 0.951530 0.516374 0.162896
O O4 0.000000 0.500000 0.000000
O O5 0.321968 0.747796 0.184526
O O6 0.182261 0.886204 0.333968
O O7 0.168366 0.865113 0.210635
O O8 0.500000 0.548892 0.750000
O O9 0.589060 0.431761 0.793791
O O10 0.679939 0.441228 0.620574
O O11 0.000000 0.577370 0.750000
O O12 0.024954 0.711324 0.840426
O O13 0.866938 0.568773 0.941941
O O14 0.511804 0.650884 0.033647
O O15 0.682314 0.778362 0.929400
O O16 0.750000 0.750000 0.000000
#
# Coordination Sequence:
#
# PCOD9268598 Si02
#       7
#     8   8   8   8   8   8   8
#     4  11  18  38  61  86 118 162 211 248 301 367
#     4  11  21  36  62  87 120 163 204 248 309 369
#     4  12  23  39  58  92 126 162 200 257 320 371
#     4  10  20  32  57  91 118 150 201 257 303 359
#     4  10  20  37  62  87 125 157 209 256 302 368
#     4  11  21  37  61  89 114 163 208 253 298 371
#     4  11  20  33  58  86 123 152 192 252 315 356
#
# _framework density 19.836310999999998
#
# number of rings (size 3 to 8) (size 9 to 14) (size 15 to 20)
#    0.000    1.143    7.143    3.000    2.000    0.571 
#    0.000    0.714    0.000    0.857    0.000    0.000 
#    0.000    0.000    0.000    0.000    0.000    0.000 
#
# Total GULP energy -156219.745386 kJ/mol
# GULP energy per Si atom -5579.276621 kJ/mol
# Density = 1.979116 g / cm^3
# Si number density = 19.836311 Si / 1000 Ang^3
#
#
#
# Elastic Constant Matrix: (Units=GPa)
#
#
# Indices 1 2 3 4 5 6 
#
# 1 123.5185 5.4171 51.0707 0.0000 -3.6197 0.0000
# 2 5.4171 18.9868 15.3590 0.0000 2.9301 0.0000
# 3 51.0707 15.3590 133.1007 0.0000 -2.1450 0.0000
# 4 0.0000 0.0000 0.0000 -1.2764 0.0000 -15.1022
# 5 -3.6197 2.9301 -2.1450 0.0000 30.0048 0.0000
# 6 0.0000 0.0000 0.0000 -15.1022 0.0000 10.4126
#
#
#
# Elastic Compliance Matrix: (Units=1/GPa)
#
#
# Indices 1 2 3 4 5 6 
#
# 1 0.009647 0.000103 -0.003699 0.000000 0.000889 0.000000
# 2 0.000103 0.059251 -0.006978 0.000000 -0.006273 0.000000
# 3 -0.003699 -0.006978 0.009753 0.000000 0.000932 0.000000
# 4 0.000000 0.000000 0.000000 -0.043140 0.000000 -0.062569
# 5 0.000889 -0.006273 0.000932 0.000000 0.034114 0.000000
# 6 0.000000 0.000000 0.000000 -0.062569 0.000000 0.005288
#
#
# Mechanical properties :
#
#
# Convention : Reuss Voigt Hill
#
# Bulk Modulus (GPa) = 17.39049 46.58885 31.98967
# Shear Modulus (GPa) = 43.39184 21.41217 32.40200
#
# Velocity S-wave (km/s) = 4.68214 3.28905 4.04600
# Velocity P-wave (km/s) = 6.16571 6.16129 6.16350
#
# Compressibility (1/GPa) = 0.05750271
#
# Stress axis : x y z
#
# Youngs Moduli (GPa) = 103.65983 16.87727 102.53634
#
# Poissons Ratio (x) = -0.00173 0.37929
# Poissons Ratio (y) = -0.01064 0.71547
# Poissons Ratio (z) = 0.38344 0.11776
#
# Static dielectric constant tensor:
#      x y z
#    x 1.762850 0.000000 -0.018200 
#    y 0.000000 1.732580 0.000000 
#    z -0.018200 0.000000 1.782270 
# 
# From -- ./inp_files/210560.got.cif
#   From: 2010.05.17/outbox.cif.g08.bks.cpg/sg15_106_cif.got.tgz:210560.got - 2010.06.03 18:47:42.
