data_PCOD9268454
_publ_section_title
;
Structure prediction by ZEFSAII (Michael W. Deem and Ramdas Pophale) SiO2 
 PCOD9268454
Probable space group: C 2/C
;
_chemical_formula_sum "Si O2"
_cell_formula_units_Z 32
_cell_length_a 5.798938
_cell_length_b 20.027490
_cell_length_c 18.313988
_cell_angle_alpha 90.000000
_cell_angle_beta 40.681435
_cell_angle_gamma 90.000000
_cell_volume 1386.460163
_symmetry_space_group_name_H-M "C 2/C"
_symmetry_group_IT_number 15
_symmetry_cell_setting 'monoclinic'
loop_
_space_group_symop_operation_xyz
x,y,z
-x,y,1/2-z
-x,-y,-z
x,-y,1/2+z
1/2+x,1/2+y,z
1/2-x,1/2+y,1/2-z
1/2-x,1/2-y,-z
1/2+x,1/2-y,1/2+z
loop_
_atom_site_type_symbol
_atom_site_label
_atom_site_fract_x
_atom_site_fract_y
_atom_site_fract_z
Si Si1 0.060562 0.156262 0.406606
Si Si2 0.380662 0.417241 0.452509
Si Si3 0.272604 0.213529 0.572223
Si Si4 0.055217 0.960206 0.654214
O O1 0.663398 0.185171 0.493258
O O2 0.135424 0.108975 0.319897
O O3 0.053523 0.109584 0.481373
O O4 0.289312 0.222856 0.362216
O O5 0.454299 0.353892 0.381515
O O6 0.558651 0.483038 0.376192
O O7 0.968329 0.439455 0.548736
O O8 0.250000 0.250000 0.500000
O O9 0.000000 0.982995 0.750000
#
# Coordination Sequence:
#
# PCOD9268454 Si02
#       4
#     8   8   8   8
#     4   9  16  30  53  75  98 138 176 215 267 328
#     4   9  18  33  52  73 101 142 176 223 271 324
#     4   8  15  29  53  75  98 131 173 213 267 325
#     4  10  20  32  50  75 107 135 182 226 273 321
#
# _framework density 23.080362000000001
#
# number of rings (size 3 to 8) (size 9 to 14) (size 15 to 20)
#    0.000    3.000    0.000    0.750    0.000    1.000 
#    0.000    0.000   33.000    0.000    0.000    0.000 
#    0.000    0.000    0.000    0.000    0.000    0.000 
#
# Total GULP energy -89095.131164 kJ/mol
# GULP energy per Si atom -5568.445698 kJ/mol
# Density = 2.302783 g / cm^3
# Si number density = 23.080362 Si / 1000 Ang^3
#
#
#
# Elastic Constant Matrix: (Units=GPa)
#
#
# Indices 1 2 3 4 5 6 
#
# 1 91.2997 35.6212 13.6950 0.0000 14.1226 0.0000
# 2 35.6212 175.8076 26.6991 0.0000 21.8961 0.0000
# 3 13.6950 26.6991 50.2226 0.0000 16.1615 0.0000
# 4 0.0000 0.0000 0.0000 1.2228 0.0000 12.2128
# 5 14.1226 21.8961 16.1615 0.0000 21.5958 0.0000
# 6 0.0000 0.0000 0.0000 12.2128 0.0000 56.2297
#
#
#
# Elastic Compliance Matrix: (Units=1/GPa)
#
#
# Indices 1 2 3 4 5 6 
#
# 1 0.012653 -0.001716 -0.000573 0.000000 -0.006105 0.000000
# 2 -0.001716 0.006863 -0.001716 0.000000 -0.004553 0.000000
# 3 -0.000573 -0.001716 0.026739 0.000001 -0.017896 0.000000
# 4 0.000000 0.000000 0.000001 -0.699429 -0.000001 0.151912
# 5 -0.006105 -0.004553 -0.017896 -0.000001 0.068306 0.000000
# 6 0.000000 0.000000 0.000000 0.151912 0.000000 -0.015210
#
#
# Mechanical properties :
#
#
# Convention : Reuss Voigt Hill
#
# Bulk Modulus (GPa) = 26.14750 52.15115 39.14933
# Shear Modulus (GPa) = -8.63082 31.89730 11.63324
#
# Velocity S-wave (km/s) = -1.93587 3.72157 2.24750
# Velocity P-wave (km/s) = 2.52125 6.41181 4.87176
#
# Compressibility (1/GPa) = 0.03824457
#
# Stress axis : x y z
#
# Youngs Moduli (GPa) = 79.03319 145.70222 37.39916
#
# Poissons Ratio (x) = 0.25006 0.02144
# Poissons Ratio (y) = 0.13564 0.06416
# Poissons Ratio (z) = 0.04530 0.24998
#
# Static dielectric constant tensor:
#      x y z
#    x 1.911660 0.000000 0.032820 
#    y 0.000000 1.912330 0.000000 
#    z 0.032820 0.000000 1.871000 
# 
# From -- ./inp_files/71851.got.cif
#   From: 2010.05.17/outbox.cif.g08.bks.cpg/sg15_36_cif.got.tgz:71851.got - 2010.06.03 18:47:42.
