data_PCOD9268458
_publ_section_title
;
Structure prediction by ZEFSAII (Michael W. Deem and Ramdas Pophale) SiO2 
 PCOD9268458
Probable space group: C 2/C
;
_chemical_formula_sum "Si O2"
_cell_formula_units_Z 48
_cell_length_a 30.801312
_cell_length_b 9.620537
_cell_length_c 17.862476
_cell_angle_alpha 90.000000
_cell_angle_beta 151.446850
_cell_angle_gamma 90.000000
_cell_volume 2529.963551
_symmetry_space_group_name_H-M "C 2/C"
_symmetry_group_IT_number 15
_symmetry_cell_setting 'monoclinic'
loop_
_space_group_symop_operation_xyz
x,y,z
-x,y,1/2-z
-x,-y,-z
x,-y,1/2+z
1/2+x,1/2+y,z
1/2-x,1/2+y,1/2-z
1/2-x,1/2-y,-z
1/2+x,1/2-y,1/2+z
loop_
_atom_site_type_symbol
_atom_site_label
_atom_site_fract_x
_atom_site_fract_y
_atom_site_fract_z
Si Si1 0.330863 0.674457 0.697108
Si Si2 0.404886 0.359439 0.473081
Si Si3 0.962228 0.909578 0.267432
Si Si4 0.044641 0.624632 0.739786
Si Si5 0.821996 0.147246 0.999762
Si Si6 0.188776 0.528791 0.381901
O O1 0.369420 0.635526 0.835628
O O2 0.407043 0.670337 0.747184
O O3 0.251219 0.571897 0.547841
O O4 0.300055 0.834445 0.652261
O O5 0.459315 0.500356 0.574312
O O6 0.474207 0.230435 0.593284
O O7 0.326239 0.343755 0.416563
O O8 0.000000 0.834530 0.250000
O O9 0.892601 0.025084 0.129446
O O10 0.132518 0.715718 0.897340
O O11 0.086769 0.505904 0.752066
O O12 0.000000 0.576163 0.750000
O O13 0.729446 0.101359 0.898161
#
# Coordination Sequence:
#
# PCOD9268458 Si02
#       6
#     8   8   8   8   8   8
#     4  10  20  32  50  76 109 136 165 209 263 312
#     4   9  17  33  54  76  99 130 182 219 243 297
#     4   8  15  30  54  74  99 138 173 207 250 304
#     4   9  18  34  57  76  97 134 176 213 251 300
#     4   8  16  33  53  73  98 135 172 211 251 302
#     4  10  20  34  51  73 108 141 164 204 267 314
#
# _framework density 18.972605000000001
#
# number of rings (size 3 to 8) (size 9 to 14) (size 15 to 20)
#    0.000    3.000    0.000    3.000    0.000    1.333 
#    6.000    0.000   11.000    0.000    0.000    0.000 
#    0.000    0.000    0.000    0.000    0.000    0.000 
#
# Total GULP energy -133674.767423 kJ/mol
# GULP energy per Si atom -5569.781976 kJ/mol
# Density = 1.892942 g / cm^3
# Si number density = 18.972605 Si / 1000 Ang^3
#
#
#
# Elastic Constant Matrix: (Units=GPa)
#
#
# Indices 1 2 3 4 5 6 
#
# 1 101.4209 20.7995 37.5548 0.0000 -7.1574 0.0000
# 2 20.7995 36.7543 5.2777 0.0000 4.9826 0.0000
# 3 37.5548 5.2777 52.9851 0.0000 -13.9310 0.0000
# 4 0.0000 0.0000 0.0000 10.6650 0.0000 6.5321
# 5 -7.1574 4.9826 -13.9310 0.0000 32.0639 0.0000
# 6 0.0000 0.0000 0.0000 6.5321 0.0000 20.8011
#
#
#
# Elastic Compliance Matrix: (Units=1/GPa)
#
#
# Indices 1 2 3 4 5 6 
#
# 1 0.014977 -0.007080 -0.009870 0.000000 0.000155 0.000000
# 2 -0.007080 0.032082 0.000108 0.000000 -0.006519 0.000000
# 3 -0.009870 0.000108 0.028534 0.000000 0.010177 0.000000
# 4 0.000000 0.000000 0.000000 0.116094 0.000000 -0.036456
# 5 0.000155 -0.006519 0.010177 0.000000 0.036657 0.000000
# 6 0.000000 0.000000 0.000000 -0.036456 0.000000 0.059523
#
#
# Mechanical properties :
#
#
# Convention : Reuss Voigt Hill
#
# Bulk Modulus (GPa) = 23.85979 35.38047 29.62013
# Shear Modulus (GPa) = 14.90229 21.20788 18.05509
#
# Velocity S-wave (km/s) = 2.80565 3.34700 3.08821
# Velocity P-wave (km/s) = 4.80612 5.79873 5.32560
#
# Compressibility (1/GPa) = 0.04191151
#
# Stress axis : x y z
#
# Youngs Moduli (GPa) = 66.76744 31.16987 35.04634
#
# Poissons Ratio (x) = 0.22067 0.34589
# Poissons Ratio (y) = 0.47269 -0.00380
# Poissons Ratio (z) = 0.65897 -0.00338
#
# Static dielectric constant tensor:
#      x y z
#    x 1.695540 0.000000 0.030820 
#    y 0.000000 1.675570 0.000000 
#    z 0.030820 0.000000 1.658820 
# 
# From -- ./inp_files/208969.got.cif
#   From: 2010.05.17/outbox.cif.g08.bks.cpg/sg15_105_cif.got.tgz:208969.got - 2010.06.03 18:47:42.
