data_PCOD9268700
_publ_section_title
;
Structure prediction by ZEFSAII (Michael W. Deem and Ramdas Pophale) SiO2 
 PCOD9268700
Probable space group: C 2/C
;
_chemical_formula_sum "Si O2"
_cell_formula_units_Z 56
_cell_length_a 6.144378
_cell_length_b 22.403881
_cell_length_c 17.186812
_cell_angle_alpha 90.000000
_cell_angle_beta 106.840393
_cell_angle_gamma 90.000000
_cell_volume 2264.440200
_symmetry_space_group_name_H-M "C 2/C"
_symmetry_group_IT_number 15
_symmetry_cell_setting 'monoclinic'
loop_
_space_group_symop_operation_xyz
x,y,z
-x,y,1/2-z
-x,-y,-z
x,-y,1/2+z
1/2+x,1/2+y,z
1/2-x,1/2+y,1/2-z
1/2-x,1/2-y,-z
1/2+x,1/2-y,1/2+z
loop_
_atom_site_type_symbol
_atom_site_label
_atom_site_fract_x
_atom_site_fract_y
_atom_site_fract_z
Si Si1 0.060784 0.502143 0.125816
Si Si2 0.833748 0.675889 0.408492
Si Si3 0.185691 0.902031 0.126115
Si Si4 0.672045 0.762907 0.827602
Si Si5 0.000000 0.027790 0.750000
Si Si6 0.584163 0.802508 0.416716
Si Si7 0.187953 0.949783 0.499158
Si Si8 0.000000 0.159662 0.250000
O O1 0.269017 0.509118 0.207681
O O2 0.184727 0.477503 0.061805
O O3 0.884735 0.450313 0.131098
O O4 0.885970 0.555520 0.084446
O O5 0.707918 0.738687 0.418362
O O6 0.888021 0.657058 0.502374
O O7 0.666029 0.636131 0.337054
O O8 0.046490 0.696194 0.378222
O O9 0.316966 0.840585 0.143525
O O10 0.060145 0.928656 0.186408
O O11 0.980100 0.896313 0.041283
O O12 0.500000 0.732936 0.750000
O O13 0.825614 0.802389 0.784882
O O14 0.822578 0.713985 0.884877
O O15 0.000000 0.000000 0.500000
#
# Coordination Sequence:
#
# PCOD9268700 Si02
#       8
#     8   8   8   8   4   8   8   4
#     4   9  17  33  51  76 106 144 184 214 267 335
#     4   9  18  34  52  71 103 144 191 236 281 334
#     4  10  20  34  48  80 115 151 186 229 286 334
#     4   9  17  32  47  68  99 142 190 237 287 331
#     4  10  20  34  48  78 121 152 184 222 286 349
#     4  10  20  33  49  76 109 147 190 233 274 342
#     4   8  16  32  56  73 100 139 183 219 260 332
#     4   8  16  32  50  74  89 124 188 238 284 329
#
# _framework density 24.730174000000002
#
# number of rings (size 3 to 8) (size 9 to 14) (size 15 to 20)
#    0.000    2.857    0.000    0.857    0.000    2.286 
#   23.143    0.000    0.000    0.000    0.000   46.000 
#    0.000   22.857    0.000    0.000    0.000    0.000 
#
# Total GULP energy -156053.685420 kJ/mol
# GULP energy per Si atom -5573.345908 kJ/mol
# Density = 2.467389 g / cm^3
# Si number density = 24.730174 Si / 1000 Ang^3
#
#
#
# Elastic Constant Matrix: (Units=GPa)
#
#
# Indices 1 2 3 4 5 6 
#
# 1 127.0527 3.9649 53.2117 0.0000 19.9126 0.0000
# 2 3.9649 44.6666 8.8580 0.0000 9.8726 0.0000
# 3 53.2117 8.8580 96.7109 0.0000 20.0216 0.0000
# 4 0.0000 0.0000 0.0000 28.6799 0.0000 -8.9176
# 5 19.9126 9.8726 20.0216 0.0000 48.0093 0.0000
# 6 0.0000 0.0000 0.0000 -8.9176 0.0000 17.8365
#
#
#
# Elastic Compliance Matrix: (Units=1/GPa)
#
#
# Indices 1 2 3 4 5 6 
#
# 1 0.010436 0.000625 -0.005338 0.000000 -0.002231 0.000000
# 2 0.000625 0.023632 -0.001586 0.000000 -0.004458 0.000000
# 3 -0.005338 -0.001586 0.014115 0.000000 -0.003347 0.000000
# 4 0.000000 0.000000 0.000000 0.041286 0.000000 0.020642
# 5 -0.002231 -0.004458 -0.003347 0.000000 0.024067 0.000000
# 6 0.000000 0.000000 0.000000 0.020642 0.000000 0.066385
#
#
# Mechanical properties :
#
#
# Convention : Reuss Voigt Hill
#
# Bulk Modulus (GPa) = 28.09963 44.49993 36.29978
# Shear Modulus (GPa) = 24.46420 32.39818 28.43119
#
# Velocity S-wave (km/s) = 3.14864 3.62341 3.39434
# Velocity P-wave (km/s) = 4.96042 5.96144 5.48381
#
# Compressibility (1/GPa) = 0.03558766
#
# Stress axis : x y z
#
# Youngs Moduli (GPa) = 95.81840 42.31488 70.84675
#
# Poissons Ratio (x) = -0.02646 0.37815
# Poissons Ratio (y) = -0.05992 0.11234
# Poissons Ratio (z) = 0.51144 0.06710
#
# Static dielectric constant tensor:
#      x y z
#    x 1.988210 0.000000 0.091210 
#    y 0.000000 1.916600 0.000000 
#    z 0.091210 0.000000 2.166400 
# 
# From -- ./inp_files/186587.got.cif
#   From: 2010.05.17/outbox.cif.g08.bks.cpg/sg15_94_cif.got.tgz:186587.got - 2010.06.03 18:47:42.
