data_PCOD9268044
_publ_section_title
;
Structure prediction by ZEFSAII (Michael W. Deem and Ramdas Pophale) SiO2 
 PCOD9268044
Probable space group: C 2/C
;
_chemical_formula_sum "Si O2"
_cell_formula_units_Z 56
_cell_length_a 15.537945
_cell_length_b 11.726223
_cell_length_c 20.656054
_cell_angle_alpha 90.000000
_cell_angle_beta 141.024474
_cell_angle_gamma 90.000000
_cell_volume 2367.236821
_symmetry_space_group_name_H-M "C 2/C"
_symmetry_group_IT_number 15
_symmetry_cell_setting 'monoclinic'
loop_
_space_group_symop_operation_xyz
x,y,z
-x,y,1/2-z
-x,-y,-z
x,-y,1/2+z
1/2+x,1/2+y,z
1/2-x,1/2+y,1/2-z
1/2-x,1/2-y,-z
1/2+x,1/2-y,1/2+z
loop_
_atom_site_type_symbol
_atom_site_label
_atom_site_fract_x
_atom_site_fract_y
_atom_site_fract_z
Si Si1 0.175599 0.922260 0.257555
Si Si2 0.163087 0.706952 0.796885
Si Si3 0.523854 0.060092 0.610227
Si Si4 0.794096 0.927651 0.604421
Si Si5 0.370635 0.194675 0.307658
Si Si6 0.359561 0.564679 0.994639
Si Si7 0.624533 0.597022 0.107906
O O1 0.341705 0.903702 0.352457
O O2 0.075741 0.815942 0.185670
O O3 0.154301 0.982272 0.312992
O O4 0.155280 0.005996 0.183843
O O5 0.049392 0.639224 0.688940
O O6 0.142449 0.809039 0.834674
O O7 0.274519 0.765419 0.812353
O O8 0.231072 0.610582 0.880806
O O9 0.372435 0.078415 0.493961
O O10 0.544271 0.921297 0.631985
O O11 0.837910 0.951090 0.556817
O O12 0.261316 0.167406 0.187530
O O13 0.398556 0.453438 0.976235
O O14 0.484709 0.651389 0.052159
#
# Coordination Sequence:
#
# PCOD9268044 Si02
#       7
#     8   8   8   8   8   8   8
#     4  10  21  41  65  97 124 178 219 263 325 397
#     4  11  22  41  62  98 132 167 214 268 341 383
#     4  10  22  42  66  94 137 173 214 274 325 396
#     4  12  25  40  66 103 135 166 225 275 330 393
#     4  10  19  41  68  90 124 177 221 252 323 395
#     4  11  24  41  63  98 127 170 215 277 335 382
#     4  10  21  44  67  83 133 171 215 266 329 400
#
# _framework density 23.656272000000001
#
# number of rings (size 3 to 8) (size 9 to 14) (size 15 to 20)
#    0.000    1.429    7.143    0.857    4.000    1.143 
#    2.571    0.714    3.143    0.000    0.000    0.000 
#    0.000    0.000    0.000    0.000    0.000    0.000 
#
# Total GULP energy -156141.772119 kJ/mol
# GULP energy per Si atom -5576.491861 kJ/mol
# Density = 2.360243 g / cm^3
# Si number density = 23.656272 Si / 1000 Ang^3
#
#
#
# Elastic Constant Matrix: (Units=GPa)
#
#
# Indices 1 2 3 4 5 6 
#
# 1 89.2832 20.3630 45.1881 0.0000 -26.4834 0.0000
# 2 20.3630 118.7895 52.1082 0.0000 -15.2695 0.0000
# 3 45.1881 52.1082 129.3579 0.0000 -14.1342 0.0000
# 4 0.0000 0.0000 0.0000 24.5897 0.0000 -14.4565
# 5 -26.4834 -15.2695 -14.1342 0.0000 47.4377 0.0000
# 6 0.0000 0.0000 0.0000 -14.4565 0.0000 -0.6335
#
#
#
# Elastic Compliance Matrix: (Units=1/GPa)
#
#
# Indices 1 2 3 4 5 6 
#
# 1 0.015791 0.000385 -0.004853 0.000000 0.007494 0.000000
# 2 0.000385 0.010448 -0.004085 0.000000 0.002361 0.000000
# 3 -0.004853 -0.004085 0.010989 0.000000 -0.000750 0.000000
# 4 0.000000 0.000000 0.000000 0.002821 0.000000 -0.064375
# 5 0.007494 0.002361 -0.000750 0.000000 0.025801 0.000000
# 6 0.000000 0.000000 0.000000 -0.064375 0.000000 -0.109498
#
#
# Mechanical properties :
#
#
# Convention : Reuss Voigt Hill
#
# Bulk Modulus (GPa) = 49.69455 63.63879 56.66667
# Shear Modulus (GPa) = -252.07425 28.93021 -111.57202
#
# Velocity S-wave (km/s) = -10.33385 3.50085 -6.87504
# Velocity P-wave (km/s) = 11.01508 6.58036 6.24623
#
# Compressibility (1/GPa) = 0.02012293
#
# Stress axis : x y z
#
# Youngs Moduli (GPa) = 63.32552 95.71513 90.99790
#
# Poissons Ratio (x) = -0.03685 0.44158
# Poissons Ratio (y) = -0.02438 0.37173
# Poissons Ratio (z) = 0.30729 0.39100
#
# Static dielectric constant tensor:
#      x y z
#    x 1.948860 0.000000 0.056120 
#    y 0.000000 2.010680 0.000000 
#    z 0.056120 0.000000 1.935050 
# 
# From -- ./inp_files/277134.got.cif
#   From: 2010.05.17/outbox.cif.g08.bks.cpg/sg15_139_cif.got.tgz:277134.got - 2010.06.03 18:47:42.
