data_PCOD9268964
_publ_section_title
;
Structure prediction by ZEFSAII (Michael W. Deem and Ramdas Pophale) SiO2 
 PCOD9268964
Probable space group: C 2/C
;
_chemical_formula_sum "Si O2"
_cell_formula_units_Z 52
_cell_length_a 10.676718
_cell_length_b 19.621362
_cell_length_c 18.805722
_cell_angle_alpha 90.000000
_cell_angle_beta 41.049671
_cell_angle_gamma 90.000000
_cell_volume 2587.215386
_symmetry_space_group_name_H-M "C 2/C"
_symmetry_group_IT_number 15
_symmetry_cell_setting 'monoclinic'
loop_
_space_group_symop_operation_xyz
x,y,z
-x,y,1/2-z
-x,-y,-z
x,-y,1/2+z
1/2+x,1/2+y,z
1/2-x,1/2+y,1/2-z
1/2-x,1/2-y,-z
1/2+x,1/2-y,1/2+z
loop_
_atom_site_type_symbol
_atom_site_label
_atom_site_fract_x
_atom_site_fract_y
_atom_site_fract_z
Si Si1 0.787629 0.219077 0.306526
Si Si2 0.200335 0.361904 0.259671
Si Si3 0.500000 0.967743 0.250000
Si Si4 0.172020 0.045751 0.459994
Si Si5 0.543500 0.474945 0.309816
Si Si6 0.593456 0.386390 0.860114
Si Si7 0.692623 0.175308 0.496404
O O1 0.721101 0.293406 0.309934
O O2 0.807831 0.171406 0.229275
O O3 0.676334 0.182962 0.418343
O O4 0.000000 0.228355 0.250000
O O5 0.336767 0.405886 0.250673
O O6 0.150708 0.416589 0.220406
O O7 0.004057 0.344651 0.383167
O O8 0.377502 0.013218 0.356420
O O9 0.150430 0.112055 0.418593
O O10 0.124425 0.046664 0.563596
O O11 0.000000 0.000000 0.500000
O O12 0.500000 0.500886 0.250000
O O13 0.643379 0.539779 0.305376
O O14 0.366370 0.374205 0.944976
O O15 0.750000 0.250000 0.500000
#
# Coordination Sequence:
#
# PCOD9268964 Si02
#       7
#     8   8   4   8   8   8   8
#     4  10  20  33  57  89 124 151 195 263 321 357
#     4  12  21  35  64  92 123 157 212 255 306 382
#     4  12  20  38  64 102 114 162 216 244 324 366
#     4  10  21  39  63  88 125 164 203 262 302 374
#     4  11  24  41  60  85 130 172 203 250 311 374
#     4  10  20  40  57  89 127 161 192 259 328 357
#     4  11  20  34  61  97 125 152 201 267 326 362
#
# _framework density 20.098828999999999
#
# number of rings (size 3 to 8) (size 9 to 14) (size 15 to 20)
#    0.000    1.231    6.923    3.231    2.154    0.000 
#    2.769    2.308    1.692    1.846    0.000    0.000 
#    0.000    0.000    0.000    0.000    0.000    0.000 
#
# Total GULP energy -145005.686800 kJ/mol
# GULP energy per Si atom -5577.141800 kJ/mol
# Density = 2.005308 g / cm^3
# Si number density = 20.098829 Si / 1000 Ang^3
#
#
#
# Elastic Constant Matrix: (Units=GPa)
#
#
# Indices 1 2 3 4 5 6 
#
# 1 24.2309 13.0551 14.3864 -0.0018 19.0624 0.0041
# 2 13.0551 94.7426 28.2899 0.0004 -4.8591 0.0020
# 3 14.3864 28.2899 113.2457 0.0057 15.1596 0.0019
# 4 -0.0018 0.0004 0.0057 27.4966 0.0002 1.4666
# 5 19.0624 -4.8591 15.1596 0.0002 22.4865 -0.0047
# 6 0.0041 0.0020 0.0019 1.4666 -0.0047 32.3575
#
#
#
# Elastic Compliance Matrix: (Units=1/GPa)
#
#
# Indices 1 2 3 4 5 6 
#
# 1 0.211527 -0.042053 0.009733 0.000017 -0.194965 -0.000054
# 2 -0.042053 0.020262 -0.005581 -0.000003 0.043790 0.000011
# 3 0.009733 -0.005581 0.011271 -0.000001 -0.017055 -0.000004
# 4 0.000017 -0.000003 -0.000001 0.036456 -0.000015 -0.001652
# 5 -0.194965 0.043790 -0.017055 -0.000015 0.230709 0.000057
# 6 -0.000054 0.000011 -0.000004 -0.001652 0.000057 0.030980
#
#
# Mechanical properties :
#
#
# Convention : Reuss Voigt Hill
#
# Bulk Modulus (GPa) = 5.97882 38.18689 22.08285
# Shear Modulus (GPa) = 7.43207 28.23398 17.83302
#
# Velocity S-wave (km/s) = 1.92504 3.75208 2.98193
# Velocity P-wave (km/s) = 2.81464 6.14911 4.78193
#
# Compressibility (1/GPa) = 0.16725706
#
# Stress axis : x y z
#
# Youngs Moduli (GPa) = 4.72753 49.35335 88.72024
#
# Poissons Ratio (x) = 2.07544 -0.86347
# Poissons Ratio (y) = 0.19881 0.49519
# Poissons Ratio (z) = -0.04601 0.27546
#
# Static dielectric constant tensor:
#      x y z
#    x 1.781940 0.000000 0.006710 
#    y 0.000000 1.743480 0.000000 
#    z 0.006710 0.000000 1.764830 
# 
# From -- ./inp_files/239745.got.cif
#   From: 2010.05.17/outbox.cif.g08.bks.cpg/sg15_120_cif.got.tgz:239745.got - 2010.06.03 18:47:42.
