data_PCOD9268710
_publ_section_title
;
Structure prediction by ZEFSAII (Michael W. Deem and Ramdas Pophale) SiO2 
 PCOD9268710
Probable space group: C 2/C
;
_chemical_formula_sum "Si O2"
_cell_formula_units_Z 64
_cell_length_a 29.567871
_cell_length_b 14.705605
_cell_length_c 9.012261
_cell_angle_alpha 90.000000
_cell_angle_beta 72.253888
_cell_angle_gamma 90.000000
_cell_volume 3732.188890
_symmetry_space_group_name_H-M "C 2/C"
_symmetry_group_IT_number 15
_symmetry_cell_setting 'monoclinic'
loop_
_space_group_symop_operation_xyz
x,y,z
-x,y,1/2-z
-x,-y,-z
x,-y,1/2+z
1/2+x,1/2+y,z
1/2-x,1/2+y,1/2-z
1/2-x,1/2-y,-z
1/2+x,1/2-y,1/2+z
loop_
_atom_site_type_symbol
_atom_site_label
_atom_site_fract_x
_atom_site_fract_y
_atom_site_fract_z
Si Si1 0.173317 0.589732 0.900250
Si Si2 0.768208 0.854103 0.813567
Si Si3 0.673316 0.910268 0.753116
Si Si4 0.361870 0.707891 0.065772
Si Si5 0.638129 0.292109 0.289513
Si Si6 0.944186 0.098075 0.482135
Si Si7 0.231791 0.145897 0.849984
Si Si8 0.555814 0.598075 0.370507
O O1 0.151313 0.500000 0.848686
O O2 0.147617 0.685430 0.890770
O O3 0.226686 0.598418 0.783412
O O4 0.174636 0.579801 0.075364
O O5 0.726685 0.901582 0.763217
O O6 0.818366 0.849038 0.680446
O O7 0.750000 0.750000 0.841402
O O8 0.772504 0.889728 0.977496
O O9 0.647616 0.814570 0.813996
O O10 0.410155 0.671212 0.087586
O O11 0.361471 0.697471 0.888529
O O12 0.589845 0.328788 0.407895
O O13 0.681634 0.349037 0.317179
O O14 0.935339 0.093709 0.314662
O O15 0.000000 0.118358 0.449297
O O16 0.934637 0.000000 0.565363
#
# Coordination Sequence:
#
# PCOD9268710 Si02
#       8
#     8   8   8   8   8   8   8   8
#     4  10  20  33  50  74 105 140 176 213 252 297
#     4   9  17  30  48  70  98 132 169 208 248 292
#     4  10  20  33  50  74 105 140 176 213 252 297
#     4  10  20  34  53  77 105 136 171 212 256 303
#     4  10  20  34  53  77 105 136 171 212 256 303
#     4  10  21  37  57  80 104 130 163 206 256 309
#     4   9  17  30  48  70  98 132 169 208 248 292
#     4  10  21  37  57  80 104 130 163 206 256 309
#
# _framework density 17.148112999999999
#
# number of rings (size 3 to 8) (size 9 to 14) (size 15 to 20)
#    0.000    2.250    0.000    3.000    0.000    8.500 
#    0.000    5.000    0.000    0.750    0.000    0.000 
#    0.000    0.000    0.000    0.000    0.000    0.000 
#
# Total GULP energy -178552.662169 kJ/mol
# GULP energy per Si atom -5579.770693 kJ/mol
# Density = 1.710908 g / cm^3
# Si number density = 17.148113 Si / 1000 Ang^3
#
#
#
# Elastic Constant Matrix: (Units=GPa)
#
#
# Indices 1 2 3 4 5 6 
#
# 1 91.2929 63.4780 62.2732 0.0000 7.7767 0.0000
# 2 63.4780 101.8101 65.8241 0.0000 0.6111 0.0000
# 3 62.2732 65.8241 109.7981 0.0000 -2.9556 0.0000
# 4 0.0000 0.0000 0.0000 28.5286 0.0000 1.6470
# 5 7.7767 0.6111 -2.9556 0.0000 26.6388 0.0000
# 6 0.0000 0.0000 0.0000 1.6470 0.0000 22.2072
#
#
#
# Elastic Compliance Matrix: (Units=1/GPa)
#
#
# Indices 1 2 3 4 5 6 
#
# 1 0.023635 -0.009623 -0.007839 0.000000 -0.007549 0.000000
# 2 -0.009623 0.020012 -0.006496 0.000000 0.001629 0.000000
# 3 -0.007839 -0.006496 0.017566 0.000000 0.004387 0.000000
# 4 0.000000 0.000000 0.000000 0.035203 0.000000 -0.002611
# 5 -0.007549 0.001629 0.004387 0.000000 0.040192 0.000000
# 6 0.000000 0.000000 0.000000 -0.002611 0.000000 0.045224
#
#
# Mechanical properties :
#
#
# Convention : Reuss Voigt Hill
#
# Bulk Modulus (GPa) = 75.20115 76.22799 75.71457
# Shear Modulus (GPa) = 21.35112 22.89666 22.12389
#
# Velocity S-wave (km/s) = 3.53243 3.65804 3.59578
# Velocity P-wave (km/s) = 7.78373 7.89879 7.84147
#
# Compressibility (1/GPa) = 0.01329767
#
# Stress axis : x y z
#
# Youngs Moduli (GPa) = 42.31025 49.97076 56.92806
#
# Poissons Ratio (x) = 0.48084 0.44628
# Poissons Ratio (y) = 0.40713 0.36979
# Poissons Ratio (z) = 0.33168 0.32459
#
# Static dielectric constant tensor:
#      x y z
#    x 1.554490 0.000000 0.005910 
#    y 0.000000 1.606950 0.000000 
#    z 0.005910 0.000000 1.577180 
# 
# From -- ./inp_files/69731.got.cif
#   From: 2010.05.17/outbox.cif.g08.bks.cpg/sg15_35_cif.got.tgz:69731.got - 2010.06.03 18:47:42.
