data_PCOD9268092
_publ_section_title
;
Structure prediction by ZEFSAII (Michael W. Deem and Ramdas Pophale) SiO2 
 PCOD9268092
Probable space group: C 2/C
;
_chemical_formula_sum "Si O2"
_cell_formula_units_Z 60
_cell_length_a 12.975880
_cell_length_b 12.972061
_cell_length_c 17.053954
_cell_angle_alpha 90.000000
_cell_angle_beta 107.576606
_cell_angle_gamma 90.000000
_cell_volume 2736.572020
_symmetry_space_group_name_H-M "C 2/C"
_symmetry_group_IT_number 15
_symmetry_cell_setting 'monoclinic'
loop_
_space_group_symop_operation_xyz
x,y,z
-x,y,1/2-z
-x,-y,-z
x,-y,1/2+z
1/2+x,1/2+y,z
1/2-x,1/2+y,1/2-z
1/2-x,1/2-y,-z
1/2+x,1/2-y,1/2+z
loop_
_atom_site_type_symbol
_atom_site_label
_atom_site_fract_x
_atom_site_fract_y
_atom_site_fract_z
Si Si1 0.851116 0.752624 0.930826
Si Si2 0.682973 0.432274 0.367304
Si Si3 0.156535 0.329591 0.708134
Si Si4 0.113002 0.742186 0.741247
Si Si5 0.223353 0.467712 0.285721
Si Si6 0.527204 0.088163 0.444612
Si Si7 0.000000 0.164088 0.750000
Si Si8 0.261830 0.473965 0.954334
O O1 0.750622 0.672672 0.900340
O O2 0.893193 0.762130 0.852570
O O3 0.818616 0.863540 0.954651
O O4 0.934818 0.692928 0.004709
O O5 0.718297 0.464512 0.286699
O O6 0.558073 0.404262 0.328879
O O7 0.707231 0.503720 0.448461
O O8 0.273599 0.292557 0.704870
O O9 0.179773 0.416107 0.778048
O O10 0.090985 0.235721 0.731472
O O11 0.077162 0.385232 0.629649
O O12 0.133159 0.620633 0.760466
O O13 0.000000 0.778038 0.750000
O O14 0.286588 0.456766 0.383119
O O15 0.632623 0.044038 0.425453
O O16 0.500000 0.000000 0.500000
#
# Coordination Sequence:
#
# PCOD9268092 Si02
#       8
#     8   8   8   8   8   8   4   8
#     4  10  19  42  61  95 135 172 226 278 354 407
#     4  10  21  39  63  99 139 168 220 298 340 408
#     4  12  22  41  68 102 132 181 233 283 349 415
#     4  11  25  43  64  95 145 186 223 285 357 418
#     4  11  23  42  66  99 136 179 241 275 348 422
#     4  11  23  36  69 107 135 171 235 299 338 401
#     4  12  20  40  70 106 124 172 234 306 332 404
#     4  11  21  39  68  96 133 183 222 281 356 407
#
# _framework density 21.925239000000001
#
# number of rings (size 3 to 8) (size 9 to 14) (size 15 to 20)
#    0.000    1.067    4.000    6.400    4.667    0.000 
#    1.200    1.333    0.000    0.000    0.000    0.000 
#    0.000    0.000    0.000    0.000    0.000    0.000 
#
# Total GULP energy -167489.436354 kJ/mol
# GULP energy per Si atom -5582.981212 kJ/mol
# Density = 2.187534 g / cm^3
# Si number density = 21.925239 Si / 1000 Ang^3
#
#
#
# Elastic Constant Matrix: (Units=GPa)
#
#
# Indices 1 2 3 4 5 6 
#
# 1 99.6132 27.5667 45.9761 0.0000 7.0751 0.0000
# 2 27.5667 33.4764 12.8350 0.0000 -4.7621 0.0000
# 3 45.9761 12.8350 133.5244 0.0000 -16.6120 0.0000
# 4 0.0000 0.0000 0.0000 33.9340 0.0000 2.2914
# 5 7.0751 -4.7621 -16.6120 0.0000 38.2148 0.0000
# 6 0.0000 0.0000 0.0000 2.2914 0.0000 -3.1052
#
#
#
# Elastic Compliance Matrix: (Units=1/GPa)
#
#
# Indices 1 2 3 4 5 6 
#
# 1 0.016439 -0.012480 -0.005321 0.000000 -0.006912 0.000000
# 2 -0.012480 0.040759 0.001373 0.000000 0.007987 0.000000
# 3 -0.005321 0.001373 0.009867 0.000000 0.005445 0.000000
# 4 0.000000 0.000000 0.000000 0.028070 0.000000 0.020714
# 5 -0.006912 0.007987 0.005445 0.000000 0.030810 0.000000
# 6 0.000000 0.000000 0.000000 0.020714 0.000000 -0.306757
#
#
# Mechanical properties :
#
#
# Convention : Reuss Voigt Hill
#
# Bulk Modulus (GPa) = 29.23237 48.81885 39.02561
# Shear Modulus (GPa) = -36.61591 25.82446 -5.39572
#
# Velocity S-wave (km/s) = -4.09104 3.43569 -1.57045
# Velocity P-wave (km/s) = 2.99229 6.16871 3.81440
#
# Compressibility (1/GPa) = 0.03420865
#
# Stress axis : x y z
#
# Youngs Moduli (GPa) = 60.82972 24.53459 101.34985
#
# Poissons Ratio (x) = 0.30620 0.53926
# Poissons Ratio (y) = 0.75918 -0.13916
# Poissons Ratio (z) = 0.32366 -0.03369
#
# Static dielectric constant tensor:
#      x y z
#    x 1.838690 0.000000 -0.008550 
#    y 0.000000 1.829230 0.000000 
#    z -0.008550 0.000000 1.902110 
# 
# From -- ./inp_files/198373.got.cif
#   From: 2010.05.17/outbox.cif.g08.bks.cpg/sg15_100_cif.got.tgz:198373.got - 2010.06.03 18:47:42.
