data_PCOD9268567
_publ_section_title
;
Structure prediction by ZEFSAII (Michael W. Deem and Ramdas Pophale) SiO2 
 PCOD9268567
Probable space group: C 2/C
;
_chemical_formula_sum "Si O2"
_cell_formula_units_Z 48
_cell_length_a 23.801087
_cell_length_b 19.888203
_cell_length_c 5.136768
_cell_angle_alpha 90.000000
_cell_angle_beta 75.595130
_cell_angle_gamma 90.000000
_cell_volume 2355.102006
_symmetry_space_group_name_H-M "C 2/C"
_symmetry_group_IT_number 15
_symmetry_cell_setting 'monoclinic'
loop_
_space_group_symop_operation_xyz
x,y,z
-x,y,1/2-z
-x,-y,-z
x,-y,1/2+z
1/2+x,1/2+y,z
1/2-x,1/2+y,1/2-z
1/2-x,1/2-y,-z
1/2+x,1/2-y,1/2+z
loop_
_atom_site_type_symbol
_atom_site_label
_atom_site_fract_x
_atom_site_fract_y
_atom_site_fract_z
Si Si1 0.331620 0.287836 0.707079
Si Si2 0.537669 0.675325 0.470022
Si Si3 0.727485 0.155771 0.663523
Si Si4 0.296532 0.422663 0.481245
Si Si5 0.575330 0.535862 0.701291
Si Si6 0.191704 0.540077 0.404306
O O1 0.400492 0.290620 0.673399
O O2 0.309056 0.214203 0.657421
O O3 0.318318 0.347196 0.521967
O O4 0.286974 0.310658 0.987408
O O5 0.500000 0.669871 0.250000
O O6 0.555373 0.603624 0.581022
O O7 0.500000 0.708170 0.750000
O O8 0.686895 0.118718 0.493895
O O9 0.748631 0.095175 0.821032
O O10 0.355278 0.460829 0.356873
O O11 0.261613 0.455807 0.760840
O O12 0.557485 0.477660 0.518547
O O13 0.169576 0.506398 0.164962
#
# Coordination Sequence:
#
# PCOD9268567 Si02
#       6
#     8   8   8   8   8   8
#     4   9  22  37  59  87 113 148 202 242 305 353
#     4  11  25  43  61  80 113 157 204 261 298 331
#     4  10  20  37  59  88 115 158 184 247 293 368
#     4  10  20  32  56  79 117 153 191 237 293 346
#     4  11  24  35  56  81 111 155 207 247 283 331
#     4  11  20  32  49  78 115 151 183 215 273 348
#
# _framework density 20.381284999999998
#
# number of rings (size 3 to 8) (size 9 to 14) (size 15 to 20)
#    0.000    1.667    1.667    2.500   11.667    2.000 
#    0.000    0.000    0.000    0.000    0.000    0.000 
#    0.000    4.000    0.000    0.000    0.000    0.000 
#
# Total GULP energy -133614.741937 kJ/mol
# GULP energy per Si atom -5567.280914 kJ/mol
# Density = 2.033490 g / cm^3
# Si number density = 20.381285 Si / 1000 Ang^3
#
#
#
# Elastic Constant Matrix: (Units=GPa)
#
#
# Indices 1 2 3 4 5 6 
#
# 1 66.2884 32.2077 33.8556 0.0000 1.6865 0.0000
# 2 32.2077 74.8431 28.8946 0.0000 -0.5114 0.0000
# 3 33.8556 28.8946 105.9658 0.0000 13.9112 0.0000
# 4 0.0000 0.0000 0.0000 24.8133 0.0000 0.2686
# 5 1.6865 -0.5114 13.9112 0.0000 23.0727 0.0000
# 6 0.0000 0.0000 0.0000 0.2686 0.0000 16.1413
#
#
#
# Elastic Compliance Matrix: (Units=1/GPa)
#
#
# Indices 1 2 3 4 5 6 
#
# 1 0.021048 -0.007139 -0.004947 0.000000 0.001286 0.000000
# 2 -0.007139 0.017552 -0.002850 0.000000 0.002629 0.000000
# 3 -0.004947 -0.002850 0.012766 0.000000 -0.007399 0.000000
# 4 0.000000 0.000000 0.000000 0.040308 0.000000 -0.000671
# 5 0.001286 0.002629 -0.007399 0.000000 0.047766 0.000000
# 6 0.000000 0.000000 0.000000 -0.000671 0.000000 0.061964
#
#
# Mechanical properties :
#
#
# Convention : Reuss Voigt Hill
#
# Bulk Modulus (GPa) = 46.52596 48.55701 47.54149
# Shear Modulus (GPa) = 20.96951 22.94811 21.95881
#
# Velocity S-wave (km/s) = 3.21107 3.35914 3.28594
# Velocity P-wave (km/s) = 6.05188 6.23868 6.14599
#
# Compressibility (1/GPa) = 0.02149337
#
# Stress axis : x y z
#
# Youngs Moduli (GPa) = 47.51013 56.97394 78.33302
#
# Poissons Ratio (x) = 0.40675 0.38751
# Poissons Ratio (y) = 0.33918 0.22327
# Poissons Ratio (z) = 0.23503 0.16239
#
# Static dielectric constant tensor:
#      x y z
#    x 1.756250 0.000000 0.055030 
#    y 0.000000 1.810720 0.000000 
#    z 0.055030 0.000000 1.841490 
# 
# From -- ./inp_files/10662.got.cif
#   From: 2010.05.17/outbox.cif.g08.bks.cpg/sg15_6_cif.got.tgz:10662.got - 2010.06.03 18:47:42.
