data_PCOD9268207
_publ_section_title
;
Structure prediction by ZEFSAII (Michael W. Deem and Ramdas Pophale) SiO2 
 PCOD9268207
Probable space group: C 2/C
;
_chemical_formula_sum "Si O2"
_cell_formula_units_Z 56
_cell_length_a 8.379040
_cell_length_b 23.972549
_cell_length_c 12.204919
_cell_angle_alpha 90.000000
_cell_angle_beta 111.251924
_cell_angle_gamma 90.000000
_cell_volume 2284.847863
_symmetry_space_group_name_H-M "C 2/C"
_symmetry_group_IT_number 15
_symmetry_cell_setting 'monoclinic'
loop_
_space_group_symop_operation_xyz
x,y,z
-x,y,1/2-z
-x,-y,-z
x,-y,1/2+z
1/2+x,1/2+y,z
1/2-x,1/2+y,1/2-z
1/2-x,1/2-y,-z
1/2+x,1/2-y,1/2+z
loop_
_atom_site_type_symbol
_atom_site_label
_atom_site_fract_x
_atom_site_fract_y
_atom_site_fract_z
Si Si1 0.813570 0.159954 0.797474
Si Si2 0.707257 0.905907 0.085616
Si Si3 0.657959 0.928801 0.414021
Si Si4 0.610878 0.825849 0.888066
Si Si5 0.195216 0.966348 0.834615
Si Si6 0.500000 0.758057 0.250000
Si Si7 0.500000 0.969672 0.750000
Si Si8 0.974692 0.230297 0.477231
O O1 0.831688 0.137811 0.677626
O O2 0.656920 0.203302 0.753614
O O3 0.753116 0.104300 0.844182
O O4 0.942404 0.190275 0.911782
O O5 0.770204 0.968707 0.122969
O O6 0.521801 0.901935 0.096877
O O7 0.673179 0.884861 0.953792
O O8 0.604399 0.989571 0.358372
O O9 0.775076 0.931753 0.548562
O O10 0.500000 0.829854 0.750000
O O11 0.779882 0.789338 0.908878
O O12 0.519017 0.791086 0.963072
O O13 0.343468 0.946716 0.786115
O O14 0.000000 0.961033 0.750000
O O15 0.555631 0.727459 0.375984
#
# Coordination Sequence:
#
# PCOD9268207 Si02
#       8
#     8   8   8   8   8   4   4   8
#     4  12  21  41  74 100 136 190 244 290 359 447
#     4  11  22  45  72  99 143 195 232 291 376 443
#     4  11  21  45  71 101 138 186 243 292 357 448
#     4  11  25  46  63 105 142 181 240 302 364 438
#     4  11  26  45  74 108 141 188 248 301 369 448
#     4  12  21  46  68  98 140 190 230 294 366 435
#     4  10  19  44  70  96 142 186 232 296 362 429
#     4  11  26  40  72 102 140 187 242 300 360 427
#
# _framework density 24.509291000000001
#
# number of rings (size 3 to 8) (size 9 to 14) (size 15 to 20)
#    0.000    0.857    5.714    3.000    4.000    1.714 
#    9.000    0.000    0.000    0.000    0.000    0.000 
#    0.000    0.000    0.000    0.000    0.000    0.000 
#
# Total GULP energy -156626.050621 kJ/mol
# GULP energy per Si atom -5593.787522 kJ/mol
# Density = 2.445351 g / cm^3
# Si number density = 24.509291 Si / 1000 Ang^3
#
#
#
# Elastic Constant Matrix: (Units=GPa)
#
#
# Indices 1 2 3 4 5 6 
#
# 1 46.6569 24.8749 51.4380 0.0000 7.4221 0.0000
# 2 24.8749 64.3366 49.6598 0.0000 0.5122 0.0000
# 3 51.4380 49.6598 220.6937 0.0000 21.6504 0.0000
# 4 0.0000 0.0000 0.0000 30.0510 0.0000 -5.3665
# 5 7.4221 0.5122 21.6504 0.0000 48.9306 0.0000
# 6 0.0000 0.0000 0.0000 -5.3665 0.0000 18.6591
#
#
#
# Elastic Compliance Matrix: (Units=1/GPa)
#
#
# Indices 1 2 3 4 5 6 
#
# 1 0.032173 -0.008246 -0.005408 0.000000 -0.002401 0.000000
# 2 -0.008246 0.021069 -0.003052 0.000000 0.002381 0.000000
# 3 -0.005408 -0.003052 0.006685 0.000000 -0.002106 0.000000
# 4 0.000000 0.000000 0.000000 0.035078 0.000000 0.010089
# 5 -0.002401 0.002381 -0.002106 0.000000 0.021708 0.000000
# 6 0.000000 0.000000 0.000000 0.010089 0.000000 0.056495
#
#
# Mechanical properties :
#
#
# Convention : Reuss Voigt Hill
#
# Bulk Modulus (GPa) = 37.71541 64.84803 51.28172
# Shear Modulus (GPa) = 23.20628 33.24244 28.22436
#
# Velocity S-wave (km/s) = 3.08041 3.68682 3.39717
# Velocity P-wave (km/s) = 5.29844 6.68128 6.02964
#
# Compressibility (1/GPa) = 0.02651436
#
# Stress axis : x y z
#
# Youngs Moduli (GPa) = 31.08173 47.46390 149.58955
#
# Poissons Ratio (x) = 0.39140 0.80893
# Poissons Ratio (y) = 0.25631 0.45661
# Poissons Ratio (z) = 0.16808 0.14488
#
# Static dielectric constant tensor:
#      x y z
#    x 2.039850 0.000000 -0.013800 
#    y 0.000000 1.981650 0.000000 
#    z -0.013800 0.000000 1.971310 
# 
# From -- ./inp_files/82723.got.cif
#   From: 2010.05.17/outbox.cif.g08.bks.cpg/sg15_42_cif.got.tgz:82723.got - 2010.06.03 18:47:42.
