data_PCOD9268848
_publ_section_title
;
Structure prediction by ZEFSAII (Michael W. Deem and Ramdas Pophale) SiO2 
 PCOD9268848
Probable space group: C 2/C
;
_chemical_formula_sum "Si O2"
_cell_formula_units_Z 56
_cell_length_a 26.411784
_cell_length_b 16.050570
_cell_length_c 5.153689
_cell_angle_alpha 90.000000
_cell_angle_beta 66.270855
_cell_angle_gamma 90.000000
_cell_volume 2000.068339
_symmetry_space_group_name_H-M "C 2/C"
_symmetry_group_IT_number 15
_symmetry_cell_setting 'monoclinic'
loop_
_space_group_symop_operation_xyz
x,y,z
-x,y,1/2-z
-x,-y,-z
x,-y,1/2+z
1/2+x,1/2+y,z
1/2-x,1/2+y,1/2-z
1/2-x,1/2-y,-z
1/2+x,1/2-y,1/2+z
loop_
_atom_site_type_symbol
_atom_site_label
_atom_site_fract_x
_atom_site_fract_y
_atom_site_fract_z
Si Si1 0.554023 0.413219 0.240568
Si Si2 0.114404 0.441689 0.646966
Si Si3 0.788031 0.770560 0.674721
Si Si4 0.106148 0.780493 0.752820
Si Si5 0.500000 0.060972 0.250000
Si Si6 0.838385 0.101410 0.753684
Si Si7 0.500000 0.281078 0.750000
Si Si8 0.773280 0.543456 0.737865
O O1 0.500000 0.462636 0.250000
O O2 0.606649 0.450140 0.286022
O O3 0.528095 0.341892 0.480244
O O4 0.581168 0.361720 0.949172
O O5 0.112411 0.482904 0.936189
O O6 0.175947 0.403273 0.483565
O O7 0.058294 0.392628 0.687220
O O8 0.750000 0.750000 0.500000
O O9 0.849130 0.741948 0.649615
O O10 0.805697 0.865861 0.572229
O O11 0.750000 0.750000 0.000000
O O12 0.139076 0.816131 0.437383
O O13 0.051662 0.732409 0.766090
O O14 0.500000 0.000000 0.500000
O O15 0.790169 0.065028 0.678732
O O16 0.781976 0.466148 0.523211
#
# Coordination Sequence:
#
# PCOD9268848 Si02
#       8
#     8   8   8   8   4   8   4   8
#     4   8  15  27  48  74 101 132 174 224 273 307
#     4   8  14  26  40  64  91 118 153 202 246 293
#     4  11  21  34  52  79 109 136 170 215 269 329
#     4   9  17  30  51  77 105 135 176 222 273 316
#     4   8  12  20  40  60  86 113 144 198 253 278
#     4  10  20  33  54  75 107 142 178 222 277 318
#     4   8  14  28  46  78 102 133 170 226 269 310
#     4  10  22  34  50  73 105 140 181 219 264 325
#
# _framework density 27.999041999999999
#
# number of rings (size 3 to 8) (size 9 to 14) (size 15 to 20)
#    0.000    2.857    1.429    0.000    4.000    0.000 
#    0.000    0.000    0.000    0.857    0.000    2.000 
#    0.000    1.143    0.000    0.000    0.000    0.000 
#
# Total GULP energy -156124.274453 kJ/mol
# GULP energy per Si atom -5575.866945 kJ/mol
# Density = 2.793532 g / cm^3
# Si number density = 27.999042 Si / 1000 Ang^3
#
#
#
# Elastic Constant Matrix: (Units=GPa)
#
#
# Indices 1 2 3 4 5 6 
#
# 1 372.2604 27.6232 52.0214 0.0000 -31.3649 0.0000
# 2 27.6232 31.0691 21.9597 0.0000 5.9882 0.0000
# 3 52.0214 21.9597 144.8048 0.0000 15.1617 0.0000
# 4 0.0000 0.0000 0.0000 18.1967 0.0000 12.5764
# 5 -31.3649 5.9882 15.1617 0.0000 66.7081 0.0000
# 6 0.0000 0.0000 0.0000 12.5764 0.0000 17.1658
#
#
#
# Elastic Compliance Matrix: (Units=1/GPa)
#
#
# Indices 1 2 3 4 5 6 
#
# 1 0.003170 -0.002512 -0.000960 0.000000 0.001934 0.000000
# 2 -0.002512 0.038315 -0.004532 0.000000 -0.003591 0.000000
# 3 -0.000960 -0.004532 0.008136 0.000000 -0.001894 0.000000
# 4 0.000000 0.000000 0.000000 0.111326 0.000000 -0.081563
# 5 0.001934 -0.003591 -0.001894 0.000000 0.016653 0.000000
# 6 0.000000 0.000000 0.000000 -0.081563 0.000000 0.118012
#
#
# Mechanical properties :
#
#
# Convention : Reuss Voigt Hill
#
# Bulk Modulus (GPa) = 29.75106 83.48256 56.61681
# Shear Modulus (GPa) = 15.48822 50.18278 32.83550
#
# Velocity S-wave (km/s) = 2.35451 4.23815 3.42824
# Velocity P-wave (km/s) = 4.24740 7.33691 5.99461
#
# Compressibility (1/GPa) = 0.03361225
#
# Stress axis : x y z
#
# Youngs Moduli (GPa) = 315.46895 26.09926 122.90407
#
# Poissons Ratio (x) = 0.06557 0.11803
# Poissons Ratio (y) = 0.79257 0.55700
# Poissons Ratio (z) = 0.30295 0.11828
#
# Static dielectric constant tensor:
#      x y z
#    x 2.316220 0.000000 -0.052480 
#    y 0.000000 2.035820 0.000000 
#    z -0.052480 0.000000 2.179390 
# 
# From -- ./inp_files/16345.got.cif
#   From: 2010.05.17/outbox.cif.g08.bks.cpg/sg15_9_cif.got.tgz:16345.got - 2010.06.03 18:47:42.
