data_PCOD9268611
_publ_section_title
;
Structure prediction by ZEFSAII (Michael W. Deem and Ramdas Pophale) SiO2 
 PCOD9268611
Probable space group: C 2/C
;
_chemical_formula_sum "Si O2"
_cell_formula_units_Z 44
_cell_length_a 20.951774
_cell_length_b 16.733550
_cell_length_c 10.015218
_cell_angle_alpha 90.000000
_cell_angle_beta 37.264821
_cell_angle_gamma 90.000000
_cell_volume 2126.098350
_symmetry_space_group_name_H-M "C 2/C"
_symmetry_group_IT_number 15
_symmetry_cell_setting 'monoclinic'
loop_
_space_group_symop_operation_xyz
x,y,z
-x,y,1/2-z
-x,-y,-z
x,-y,1/2+z
1/2+x,1/2+y,z
1/2-x,1/2+y,1/2-z
1/2-x,1/2-y,-z
1/2+x,1/2-y,1/2+z
loop_
_atom_site_type_symbol
_atom_site_label
_atom_site_fract_x
_atom_site_fract_y
_atom_site_fract_z
Si Si1 0.337644 0.666794 0.787697
Si Si2 0.934071 0.964967 0.989280
Si Si3 0.226873 0.569058 0.345653
Si Si4 0.000000 0.646682 0.250000
Si Si5 0.348696 0.953527 0.817596
Si Si6 0.669060 0.725666 0.429228
O O1 0.415492 0.627158 0.554437
O O2 0.274220 0.736577 0.820916
O O3 0.252483 0.600304 0.973212
O O4 0.388919 0.689180 0.842971
O O5 0.000000 0.977516 0.750000
O O6 0.823478 0.008937 0.158372
O O7 0.000000 0.000000 0.000000
O O8 0.172967 0.538919 0.573453
O O9 0.150445 0.553715 0.344696
O O10 0.284690 0.656240 0.243126
O O11 0.944441 0.591210 0.231641
O O12 0.909689 0.701471 0.472754
#
# Coordination Sequence:
#
# PCOD9268611 Si02
#       6
#     8   8   8   4   8   8
#     4   8  17  33  50  75 112 144 175 228 286 320
#     4  11  21  33  56  86 114 144 188 234 274 338
#     4  10  20  36  56  80 113 148 177 229 288 330
#     4  10  20  32  58  86 104 144 194 238 258 340
#     4   9  19  36  55  80 112 144 184 227 282 330
#     4   9  17  32  56  79 105 144 190 223 273 339
#
# _framework density 20.695186
#
# number of rings (size 3 to 8) (size 9 to 14) (size 15 to 20)
#    0.000    2.545    0.000    4.364    3.818    0.727 
#    0.000    0.000    6.000    4.364    0.000    0.000 
#    0.000    0.000    0.000    0.000    0.000    0.000 
#
# Total GULP energy -122520.673300 kJ/mol
# GULP energy per Si atom -5569.121514 kJ/mol
# Density = 2.064808 g / cm^3
# Si number density = 20.695186 Si / 1000 Ang^3
#
#
#
# Elastic Constant Matrix: (Units=GPa)
#
#
# Indices 1 2 3 4 5 6 
#
# 1 94.6744 4.0831 11.9356 0.0000 -5.7996 0.0000
# 2 4.0831 67.4333 9.7230 0.0000 -3.5007 0.0000
# 3 11.9356 9.7230 24.6943 0.0000 2.6692 0.0000
# 4 0.0000 0.0000 0.0000 22.9437 0.0000 -4.7535
# 5 -5.7996 -3.5007 2.6692 0.0000 17.6762 0.0000
# 6 0.0000 0.0000 0.0000 -4.7535 0.0000 26.9499
#
#
#
# Elastic Compliance Matrix: (Units=1/GPa)
#
#
# Indices 1 2 3 4 5 6 
#
# 1 0.011639 0.000461 -0.006333 0.000000 0.004866 0.000000
# 2 0.000461 0.016040 -0.007013 0.000000 0.004387 0.000000
# 3 -0.006333 -0.007013 0.047467 0.000000 -0.010635 0.000000
# 4 0.000000 0.000000 0.000000 0.045238 0.000000 0.007979
# 5 0.004866 0.004387 -0.010635 0.000000 0.060645 0.000000
# 6 0.000000 0.000000 0.000000 0.007979 0.000000 0.038513
#
#
# Mechanical properties :
#
#
# Convention : Reuss Voigt Hill
#
# Bulk Modulus (GPa) = 20.25240 26.47615 23.36427
# Shear Modulus (GPa) = 19.10066 24.25133 21.67600
#
# Velocity S-wave (km/s) = 3.04131 3.42692 3.23986
# Velocity P-wave (km/s) = 4.70532 5.33662 5.03088
#
# Compressibility (1/GPa) = 0.04937687
#
# Stress axis : x y z
#
# Youngs Moduli (GPa) = 85.91679 62.34249 21.06731
#
# Poissons Ratio (x) = -0.02874 0.13342
# Poissons Ratio (y) = -0.03961 0.14774
# Poissons Ratio (z) = 0.54412 0.43719
#
# Static dielectric constant tensor:
#      x y z
#    x 1.616500 0.000000 -0.112700 
#    y 0.000000 1.862280 0.000000 
#    z -0.112700 0.000000 1.672570 
# 
# From -- ./inp_files/39039.got.cif
#   From: 2010.05.17/outbox.cif.g08.bks.cpg/sg15_20_cif.got.tgz:39039.got - 2010.06.03 18:47:42.
