data_PCOD9268703
_publ_section_title
;
Structure prediction by ZEFSAII (Michael W. Deem and Ramdas Pophale) SiO2 
 PCOD9268703
Probable space group: C 2/C
;
_chemical_formula_sum "Si O2"
_cell_formula_units_Z 64
_cell_length_a 26.394559
_cell_length_b 27.342108
_cell_length_c 5.468930
_cell_angle_alpha 90.000000
_cell_angle_beta 70.475229
_cell_angle_gamma 90.000000
_cell_volume 3719.878762
_symmetry_space_group_name_H-M "C 2/C"
_symmetry_group_IT_number 15
_symmetry_cell_setting 'monoclinic'
loop_
_space_group_symop_operation_xyz
x,y,z
-x,y,1/2-z
-x,-y,-z
x,-y,1/2+z
1/2+x,1/2+y,z
1/2-x,1/2+y,1/2-z
1/2-x,1/2-y,-z
1/2+x,1/2-y,1/2+z
loop_
_atom_site_type_symbol
_atom_site_label
_atom_site_fract_x
_atom_site_fract_y
_atom_site_fract_z
Si Si1 0.240115 0.673386 0.434027
Si Si2 0.705703 0.485116 0.286885
Si Si3 0.051400 0.882554 0.830116
Si Si4 0.418149 0.522814 0.965869
Si Si5 0.725051 0.374627 0.098145
Si Si6 0.944015 0.782580 0.390901
Si Si7 0.121578 0.166667 0.881339
Si Si8 0.836747 0.245302 0.308657
O O1 0.256036 0.648739 0.670723
O O2 0.184966 0.702525 0.570489
O O3 0.284428 0.715691 0.295584
O O4 0.239622 0.637969 0.197924
O O5 0.730067 0.515378 0.020570
O O6 0.645743 0.508472 0.426500
O O7 0.712062 0.430658 0.173259
O O8 0.065826 0.921022 0.016605
O O9 0.104064 0.879073 0.574100
O O10 0.000000 0.895996 0.750000
O O11 0.046659 0.827077 0.934154
O O12 0.439347 0.495486 0.173214
O O13 0.667028 0.351466 0.126964
O O14 0.929204 0.812248 0.172430
O O15 0.889941 0.753946 0.553679
O O16 0.000000 0.755424 0.250000
O O17 0.145283 0.211120 0.996975
#
# Coordination Sequence:
#
# PCOD9268703 Si02
#       8
#     8   8   8   8   8   8   8   8
#     4  10  21  35  54  79 101 129 166 216 268 313
#     4  10  20  33  50  71  97 128 168 213 258 316
#     4  11  23  35  48  69  94 132 180 229 268 309
#     4  10  23  36  50  66  89 124 166 224 273 314
#     4  11  21  34  55  75  99 131 172 214 270 314
#     4  11  21  34  54  72 100 135 176 216 261 308
#     4  10  20  33  50  72  97 132 167 219 261 309
#     4   9  21  33  51  76 103 127 165 216 263 316
#
# _framework density 17.204861999999999
#
# number of rings (size 3 to 8) (size 9 to 14) (size 15 to 20)
#    0.000    1.750    2.500    2.250    7.000    2.000 
#    0.000    0.000    0.000    0.000    0.000    0.000 
#    0.000    0.000    0.000    0.000    0.000   12.500 
#
# Total GULP energy -178254.819750 kJ/mol
# GULP energy per Si atom -5570.463117 kJ/mol
# Density = 1.716570 g / cm^3
# Si number density = 17.204862 Si / 1000 Ang^3
#
#
#
# Elastic Constant Matrix: (Units=GPa)
#
#
# Indices 1 2 3 4 5 6 
#
# 1 36.2884 19.8820 20.2637 0.0000 -17.4101 0.0000
# 2 19.8820 52.0101 18.1802 0.0000 -14.9881 0.0000
# 3 20.2637 18.1802 82.3898 0.0000 -4.6119 0.0000
# 4 0.0000 0.0000 0.0000 8.9776 0.0000 -4.9068
# 5 -17.4101 -14.9881 -4.6119 0.0000 26.6395 0.0000
# 6 0.0000 0.0000 0.0000 -4.9068 0.0000 13.0781
#
#
#
# Elastic Compliance Matrix: (Units=1/GPa)
#
#
# Indices 1 2 3 4 5 6 
#
# 1 0.049684 -0.008311 -0.008916 0.000000 0.026251 0.000000
# 2 -0.008311 0.026021 -0.003213 0.000000 0.008652 0.000000
# 3 -0.008916 -0.003213 0.014755 0.000000 -0.005081 0.000000
# 4 0.000000 0.000000 0.000000 0.140123 0.000000 0.052573
# 5 0.026251 0.008652 -0.005081 0.000000 0.058683 0.000000
# 6 0.000000 0.000000 0.000000 0.052573 0.000000 0.096188
#
#
# Mechanical properties :
#
#
# Convention : Reuss Voigt Hill
#
# Bulk Modulus (GPa) = 20.17017 31.92669 26.04843
# Shear Modulus (GPa) = 11.29021 17.22985 14.26003
#
# Velocity S-wave (km/s) = 2.56446 3.16801 2.88208
# Velocity P-wave (km/s) = 4.52964 5.65498 5.12330
#
# Compressibility (1/GPa) = 0.04957817
#
# Stress axis : x y z
#
# Youngs Moduli (GPa) = 20.12717 38.43096 67.77337
#
# Poissons Ratio (x) = 0.31940 0.60429
# Poissons Ratio (y) = 0.16728 0.21778
# Poissons Ratio (z) = 0.17946 0.12349
#
# Static dielectric constant tensor:
#      x y z
#    x 1.625110 0.000000 0.019390 
#    y 0.000000 1.600010 0.000000 
#    z 0.019390 0.000000 1.686070 
# 
# From -- ./inp_files/14283.got.cif
#   From: 2010.05.17/outbox.cif.g08.bks.cpg/sg15_8_cif.got.tgz:14283.got - 2010.06.03 18:47:42.
