data_PCOD9268405
_publ_section_title
;
Structure prediction by ZEFSAII (Michael W. Deem and Ramdas Pophale) SiO2 
 PCOD9268405
Probable space group: C 2/C
;
_chemical_formula_sum "Si O2"
_cell_formula_units_Z 48
_cell_length_a 26.311027
_cell_length_b 14.400011
_cell_length_c 27.254543
_cell_angle_alpha 90.000000
_cell_angle_beta 15.458222
_cell_angle_gamma 90.000000
_cell_volume 2752.294178
_symmetry_space_group_name_H-M "C 2/C"
_symmetry_group_IT_number 15
_symmetry_cell_setting 'monoclinic'
loop_
_space_group_symop_operation_xyz
x,y,z
-x,y,1/2-z
-x,-y,-z
x,-y,1/2+z
1/2+x,1/2+y,z
1/2-x,1/2+y,1/2-z
1/2-x,1/2-y,-z
1/2+x,1/2-y,1/2+z
loop_
_atom_site_type_symbol
_atom_site_label
_atom_site_fract_x
_atom_site_fract_y
_atom_site_fract_z
Si Si1 0.696491 0.630881 0.863573
Si Si2 0.425718 0.163080 0.747228
Si Si3 0.217949 0.432220 0.904848
Si Si4 0.932944 0.126766 0.366209
Si Si5 0.738765 0.322257 0.734351
Si Si6 0.557328 0.958475 0.894178
O O1 0.770252 0.665424 0.847846
O O2 0.771620 0.711378 0.757391
O O3 0.782579 0.529524 0.774823
O O4 0.471014 0.634181 0.068161
O O5 0.597152 0.104638 0.563815
O O6 0.503378 0.265383 0.686395
O O7 0.294047 0.123736 0.913512
O O8 0.122595 0.527042 0.974173
O O9 0.438183 0.430536 0.715092
O O10 0.187264 0.360759 0.887556
O O11 0.000000 0.098079 0.250000
O O12 0.859431 0.359592 0.667981
O O13 0.500000 0.000000 0.000000
#
# Coordination Sequence:
#
# PCOD9268405 Si02
#       6
#     8   8   8   8   8   8
#     4  11  18  30  50  66  93 129 159 192 231 276
#     4  11  19  30  43  62  87 123 159 189 230 266
#     4  10  20  32  44  60  89 119 156 199 227 270
#     4  12  21  29  43  64  87 119 161 202 229 269
#     4  11  18  31  47  67  92 122 162 196 230 277
#     4   9  20  31  45  67  89 120 163 197 231 272
#
# _framework density 17.439996000000001
#
# number of rings (size 3 to 8) (size 9 to 14) (size 15 to 20)
#    0.000    1.333    5.000    4.000    0.000    0.000 
#    0.000    0.000    0.000    0.000    0.000    0.000 
#    0.000    0.000    0.000   13.500    9.333   21.500 
#
# Total GULP energy -133821.346312 kJ/mol
# GULP energy per Si atom -5575.889430 kJ/mol
# Density = 1.740030 g / cm^3
# Si number density = 17.439996 Si / 1000 Ang^3
#
#
#
# Elastic Constant Matrix: (Units=GPa)
#
#
# Indices 1 2 3 4 5 6 
#
# 1 49.9718 13.2026 5.5191 -0.0034 -1.6897 0.0004
# 2 13.2026 25.1226 -2.8512 -0.0249 2.1573 0.0067
# 3 5.5191 -2.8512 91.1671 -0.0419 -0.3560 0.0145
# 4 -0.0034 -0.0249 -0.0419 12.0733 0.0029 -3.1680
# 5 -1.6897 2.1573 -0.3560 0.0029 23.6268 0.0013
# 6 0.0004 0.0067 0.0145 -3.1680 0.0013 24.5499
#
#
#
# Elastic Compliance Matrix: (Units=1/GPa)
#
#
# Indices 1 2 3 4 5 6 
#
# 1 0.023723 -0.012919 -0.001829 -0.000027 0.002849 0.000001
# 2 -0.012919 0.047296 0.002241 0.000103 -0.005209 0.000000
# 3 -0.001829 0.002241 0.011149 0.000042 -0.000167 -0.000002
# 4 -0.000027 0.000103 0.000042 0.085731 -0.000022 0.011063
# 5 0.002849 -0.005209 -0.000167 -0.000022 0.043002 -0.000004
# 6 0.000001 0.000000 -0.000002 0.011063 -0.000004 0.042161
#
#
# Mechanical properties :
#
#
# Convention : Reuss Voigt Hill
#
# Bulk Modulus (GPa) = 17.49686 22.00029 19.74858
# Shear Modulus (GPa) = 16.82781 22.07604 19.45192
#
# Velocity S-wave (km/s) = 3.10965 3.56171 3.34333
# Velocity P-wave (km/s) = 4.79037 5.43660 5.12368
#
# Compressibility (1/GPa) = 0.05715310
#
# Stress axis : x y z
#
# Youngs Moduli (GPa) = 42.15336 21.14350 89.69371
#
# Poissons Ratio (x) = 0.27316 0.16406
# Poissons Ratio (y) = 0.54459 -0.20100
# Poissons Ratio (z) = 0.07710 -0.04738
#
# Static dielectric constant tensor:
#      x y z
#    x 1.644920 -0.000010 0.004500 
#    y -0.000010 1.594290 0.000040 
#    z 0.004500 0.000040 1.701390 
# 
# From -- ./inp_files/282037.got.cif
#   From: 2010.05.17/outbox.cif.g08.bks.cpg/sg15_142_cif.got.tgz:282037.got - 2010.06.03 18:47:42.
