data_PCOD9268682
_publ_section_title
;
Structure prediction by ZEFSAII (Michael W. Deem and Ramdas Pophale) SiO2 
 PCOD9268682
Probable space group: C 2/C
;
_chemical_formula_sum "Si O2"
_cell_formula_units_Z 64
_cell_length_a 27.119896
_cell_length_b 13.785202
_cell_length_c 8.973700
_cell_angle_alpha 90.000000
_cell_angle_beta 87.829426
_cell_angle_gamma 90.000000
_cell_volume 3352.439758
_symmetry_space_group_name_H-M "C 2/C"
_symmetry_group_IT_number 15
_symmetry_cell_setting 'monoclinic'
loop_
_space_group_symop_operation_xyz
x,y,z
-x,y,1/2-z
-x,-y,-z
x,-y,1/2+z
1/2+x,1/2+y,z
1/2-x,1/2+y,1/2-z
1/2-x,1/2-y,-z
1/2+x,1/2-y,1/2+z
loop_
_atom_site_type_symbol
_atom_site_label
_atom_site_fract_x
_atom_site_fract_y
_atom_site_fract_z
Si Si1 0.286302 0.256842 0.243689
Si Si2 0.315628 0.089440 0.052281
Si Si3 0.279823 0.467177 0.353326
Si Si4 0.473484 0.852978 0.911286
Si Si5 0.867117 0.279669 0.993128
Si Si6 0.042154 0.571562 0.625607
Si Si7 0.142480 0.558247 0.772417
Si Si8 0.690374 0.369210 0.841257
O O1 0.303029 0.200603 0.092094
O O2 0.279336 0.372616 0.246507
O O3 0.329328 0.235080 0.360160
O O4 0.235125 0.205547 0.299327
O O5 0.271999 0.022395 0.122912
O O6 0.359850 0.049298 0.154057
O O7 0.323407 0.067613 0.878057
O O8 0.293436 0.427300 0.513205
O O9 0.315015 0.551084 0.286152
O O10 0.500000 0.841501 0.750000
O O11 0.452848 0.963172 0.941048
O O12 0.424251 0.790148 0.940722
O O13 0.519821 0.848870 0.018474
O O14 0.848491 0.373161 0.087378
O O15 0.857298 0.191508 0.107840
O O16 0.091540 0.594308 0.706387
O O17 0.000000 0.558264 0.750000
#
# Coordination Sequence:
#
# PCOD9268682 Si02
#       8
#     8   8   8   8   8   8   8   8
#     4  10  21  36  55  80 110 145 186 226 267 320
#     4  11  22  33  53  80 109 151 184 219 266 320
#     4  10  20  37  54  78 112 146 184 226 268 314
#     4  10  21  34  53  75 108 145 181 221 267 327
#     4  11  21  37  53  78 111 147 180 222 271 323
#     4  10  20  33  47  74 110 147 178 214 266 323
#     4  12  22  33  51  77 114 148 182 216 264 326
#     4  10  21  36  58  79 111 146 183 227 272 322
#
# _framework density 19.090575000000001
#
# number of rings (size 3 to 8) (size 9 to 14) (size 15 to 20)
#    0.000    1.500    1.250    6.750    5.250    1.000 
#    0.000    3.125    0.000    0.000    0.000    3.500 
#    0.000    0.125    0.000    0.000    0.000    0.000 
#
# Total GULP energy -178505.103219 kJ/mol
# GULP energy per Si atom -5578.284476 kJ/mol
# Density = 1.904712 g / cm^3
# Si number density = 19.090575 Si / 1000 Ang^3
#
#
#
# Elastic Constant Matrix: (Units=GPa)
#
#
# Indices 1 2 3 4 5 6 
#
# 1 84.4325 24.6445 22.7444 0.0000 -9.8593 0.0000
# 2 24.6445 68.3788 5.1456 0.0000 -19.7930 0.0000
# 3 22.7444 5.1456 53.3067 0.0000 -20.7567 0.0000
# 4 0.0000 0.0000 0.0000 25.5388 0.0000 -10.7902
# 5 -9.8593 -19.7930 -20.7567 0.0000 27.8731 0.0000
# 6 0.0000 0.0000 0.0000 -10.7902 0.0000 19.3166
#
#
#
# Elastic Compliance Matrix: (Units=1/GPa)
#
#
# Indices 1 2 3 4 5 6 
#
# 1 0.015214 -0.006317 -0.007792 0.000000 -0.004907 0.000000
# 2 -0.006317 0.021894 0.008120 0.000000 0.019360 0.000000
# 3 -0.007792 0.008120 0.031650 0.000000 0.026579 0.000000
# 4 0.000000 0.000000 0.000000 0.051252 0.000000 0.028629
# 5 -0.004907 0.019360 0.026579 0.000000 0.067682 0.000000
# 6 0.000000 0.000000 0.000000 0.028629 0.000000 0.067761
#
#
# Mechanical properties :
#
#
# Convention : Reuss Voigt Hill
#
# Bulk Modulus (GPa) = 17.61206 34.57633 26.09420
# Shear Modulus (GPa) = 17.46064 24.78458 21.12261
#
# Velocity S-wave (km/s) = 3.02755 3.60705 3.32993
# Velocity P-wave (km/s) = 4.63325 5.95809 5.33694
#
# Compressibility (1/GPa) = 0.05677928
#
# Stress axis : x y z
#
# Youngs Moduli (GPa) = 65.73000 45.67435 31.59571
#
# Poissons Ratio (x) = 0.28854 0.24620
# Poissons Ratio (y) = 0.41524 -0.25657
# Poissons Ratio (z) = 0.51219 -0.37090
#
# Static dielectric constant tensor:
#      x y z
#    x 1.739990 0.000000 0.032690 
#    y 0.000000 1.711170 0.000000 
#    z 0.032690 0.000000 1.736920 
# 
# From -- ./inp_files/69725.got.cif
#   From: 2010.05.17/outbox.cif.g08.bks.cpg/sg15_35_cif.got.tgz:69725.got - 2010.06.03 18:47:42.
