data_PCOD9268604
_publ_section_title
;
Structure prediction by ZEFSAII (Michael W. Deem and Ramdas Pophale) SiO2 
 PCOD9268604
Probable space group: C 2/C
;
_chemical_formula_sum "Si O2"
_cell_formula_units_Z 64
_cell_length_a 12.771019
_cell_length_b 24.867469
_cell_length_c 11.500519
_cell_angle_alpha 90.000000
_cell_angle_beta 109.168356
_cell_angle_gamma 90.000000
_cell_volume 3449.873263
_symmetry_space_group_name_H-M "C 2/C"
_symmetry_group_IT_number 15
_symmetry_cell_setting 'monoclinic'
loop_
_space_group_symop_operation_xyz
x,y,z
-x,y,1/2-z
-x,-y,-z
x,-y,1/2+z
1/2+x,1/2+y,z
1/2-x,1/2+y,1/2-z
1/2-x,1/2-y,-z
1/2+x,1/2-y,1/2+z
loop_
_atom_site_type_symbol
_atom_site_label
_atom_site_fract_x
_atom_site_fract_y
_atom_site_fract_z
Si Si1 0.056128 0.246238 0.509628
Si Si2 0.886314 0.839928 0.656204
Si Si3 0.383740 0.576692 0.954990
Si Si4 0.939268 0.667650 0.846286
Si Si5 0.421806 0.467473 0.107370
Si Si6 0.758647 0.762701 0.756088
Si Si7 0.610028 0.714022 0.867960
Si Si8 0.265833 0.606505 0.674085
O O1 0.084297 0.214241 0.403734
O O2 0.162954 0.244121 0.630866
O O3 0.026591 0.307290 0.467788
O O4 0.945717 0.220140 0.526629
O O5 0.853271 0.882015 0.545685
O O6 0.804712 0.819475 0.727193
O O7 0.000000 0.861972 0.750000
O O8 0.506230 0.576526 0.939155
O O9 0.304307 0.591479 0.818748
O O10 0.389515 0.517880 0.015745
O O11 0.854667 0.717565 0.789831
O O12 0.862445 0.621448 0.870062
O O13 0.000000 0.652342 0.750000
O O14 0.500000 0.480814 0.250000
O O15 0.309307 0.441900 0.112594
O O16 0.696309 0.760062 0.857881
O O17 0.500000 0.719648 0.750000
O O18 0.668479 0.658699 0.851807
#
# Coordination Sequence:
#
# PCOD9268604 Si02
#       8
#     8   8   8   8   8   8   8   8
#     4  11  20  33  53  70 111 146 180 220 264 305
#     4  12  20  31  46  79 109 140 172 218 259 332
#     4  10  20  32  58  79 107 141 167 220 292 319
#     4  11  21  35  50  82 108 148 191 226 253 322
#     4   9  18  37  55  82 107 130 174 232 276 339
#     4  10  20  33  48  72 110 140 178 223 257 312
#     4   9  18  32  50  75 102 147 178 212 261 321
#     4  10  20  34  55  77 108 136 184 220 270 331
#
# _framework density 18.551406
#
# number of rings (size 3 to 8) (size 9 to 14) (size 15 to 20)
#    0.000    1.750    2.500    4.875    1.750    2.000 
#    2.250    0.000    0.000    0.750    0.000    0.000 
#    0.000    0.000    0.000    0.000    0.000    0.000 
#
# Total GULP energy -178345.235647 kJ/mol
# GULP energy per Si atom -5573.288614 kJ/mol
# Density = 1.850918 g / cm^3
# Si number density = 18.551406 Si / 1000 Ang^3
#
#
#
# Elastic Constant Matrix: (Units=GPa)
#
#
# Indices 1 2 3 4 5 6 
#
# 1 62.0963 13.2917 2.2939 0.0000 -9.3319 0.0000
# 2 13.2917 43.6978 6.4023 0.0000 -9.0927 0.0000
# 3 2.2939 6.4023 43.1243 0.0000 -8.0388 0.0000
# 4 0.0000 0.0000 0.0000 14.8050 0.0000 -13.5746
# 5 -9.3319 -9.0927 -8.0388 0.0000 24.1169 0.0000
# 6 0.0000 0.0000 0.0000 -13.5746 0.0000 26.0032
#
#
#
# Elastic Compliance Matrix: (Units=1/GPa)
#
#
# Indices 1 2 3 4 5 6 
#
# 1 0.017842 -0.004391 0.000726 0.000000 0.005491 0.000000
# 2 -0.004391 0.026088 -0.002263 0.000000 0.007382 0.000000
# 3 0.000726 -0.002263 0.024928 0.000000 0.007737 0.000000
# 4 0.000000 0.000000 0.000000 0.129559 0.000000 0.067634
# 5 0.005491 0.007382 0.007737 0.000000 0.048951 0.000000
# 6 0.000000 0.000000 0.000000 0.067634 0.000000 0.073764
#
#
# Mechanical properties :
#
#
# Convention : Reuss Voigt Hill
#
# Bulk Modulus (GPa) = 17.54315 21.43269 19.48792
# Shear Modulus (GPa) = 14.20496 21.44706 17.82601
#
# Velocity S-wave (km/s) = 2.77014 3.40382 3.10320
# Velocity P-wave (km/s) = 4.43944 5.19867 4.83399
#
# Compressibility (1/GPa) = 0.05700231
#
# Stress axis : x y z
#
# Youngs Moduli (GPa) = 56.04690 38.33212 40.11481
#
# Poissons Ratio (x) = 0.16832 -0.02914
# Poissons Ratio (y) = 0.24610 0.09079
# Poissons Ratio (z) = -0.04071 0.08676
#
# Static dielectric constant tensor:
#      x y z
#    x 1.669070 0.000000 -0.011620 
#    y 0.000000 1.648000 0.000000 
#    z -0.011620 0.000000 1.680510 
# 
# From -- ./inp_files/91289.got.cif
#   From: 2010.05.17/outbox.cif.g08.bks.cpg/sg15_46_cif.got.tgz:91289.got - 2010.06.03 18:47:42.
