data_PCOD9268256
_publ_section_title
;
Structure prediction by ZEFSAII (Michael W. Deem and Ramdas Pophale) SiO2 
 PCOD9268256
Probable space group: C 2/C
;
_chemical_formula_sum "Si O2"
_cell_formula_units_Z 60
_cell_length_a 5.356032
_cell_length_b 28.725047
_cell_length_c 27.021287
_cell_angle_alpha 90.000000
_cell_angle_beta 53.838411
_cell_angle_gamma 90.000000
_cell_volume 3356.410392
_symmetry_space_group_name_H-M "C 2/C"
_symmetry_group_IT_number 15
_symmetry_cell_setting 'monoclinic'
loop_
_space_group_symop_operation_xyz
x,y,z
-x,y,1/2-z
-x,-y,-z
x,-y,1/2+z
1/2+x,1/2+y,z
1/2-x,1/2+y,1/2-z
1/2-x,1/2-y,-z
1/2+x,1/2-y,1/2+z
loop_
_atom_site_type_symbol
_atom_site_label
_atom_site_fract_x
_atom_site_fract_y
_atom_site_fract_z
Si Si1 0.916678 0.902262 0.451658
Si Si2 0.000000 0.451377 0.250000
Si Si3 0.129070 0.781791 0.288190
Si Si4 0.476858 0.036352 0.858924
Si Si5 0.349846 0.980951 0.967078
Si Si6 0.115668 0.193728 0.967546
Si Si7 0.246757 0.755641 0.079447
Si Si8 0.417513 0.614540 0.840932
O O1 0.132083 0.944772 0.408247
O O2 0.096240 0.860630 0.457476
O O3 0.680269 0.925912 0.517692
O O4 0.809446 0.883579 0.410857
O O5 0.041563 0.480432 0.295714
O O6 0.280938 0.417104 0.203680
O O7 0.500000 0.782452 0.250000
O O8 0.000000 0.767973 0.250000
O O9 0.973193 0.749928 0.348071
O O10 0.999060 0.834085 0.313366
O O11 0.664877 0.084709 0.841560
O O12 0.533393 0.000410 0.897438
O O13 0.500000 0.000000 0.000000
O O14 0.000000 0.000000 0.000000
O O15 0.457049 0.212979 0.939124
O O16 0.962500 0.219725 0.938170
O O17 0.897907 0.209529 0.038408
#
# Coordination Sequence:
#
# PCOD9268256 Si02
#       8
#     8   4   8   8   8   8   8   8
#     4  10  20  32  54  76 105 136 175 223 271 317
#     4  10  20  30  44  72  98 146 172 210 254 318
#     4  12  23  33  50  75 109 143 175 212 262 329
#     4  10  20  32  50  71 110 141 176 216 261 326
#     4  10  20  35  50  76 105 140 175 217 270 318
#     4  10  20  35  56  78 106 139 179 225 270 323
#     4  10  21  36  53  78 108 140 179 221 270 323
#     4  11  19  31  47  73 107 137 176 207 260 327
#
# _framework density 17.876239999999999
#
# number of rings (size 3 to 8) (size 9 to 14) (size 15 to 20)
#    0.000    1.600    3.333    2.800    1.867    0.000 
#    0.000    0.000    0.000    0.000    1.733    1.867 
#    0.000    0.000    0.000    0.000    0.000    0.000 
#
# Total GULP energy -167065.037588 kJ/mol
# GULP energy per Si atom -5568.834586 kJ/mol
# Density = 1.783555 g / cm^3
# Si number density = 17.876240 Si / 1000 Ang^3
#
#
#
# Elastic Constant Matrix: (Units=GPa)
#
#
# Indices 1 2 3 4 5 6 
#
# 1 93.9003 9.7153 44.4486 0.0000 13.9874 0.0000
# 2 9.7153 32.0595 37.8189 0.0000 12.6456 0.0000
# 3 44.4486 37.8189 133.6464 0.0000 28.9337 0.0000
# 4 0.0000 0.0000 0.0000 74.8393 0.0000 -0.8786
# 5 13.9874 12.6456 28.9337 0.0000 34.9764 0.0000
# 6 0.0000 0.0000 0.0000 -0.8786 0.0000 17.1237
#
#
#
# Elastic Compliance Matrix: (Units=1/GPa)
#
#
# Indices 1 2 3 4 5 6 
#
# 1 0.012846 0.002201 -0.004398 0.000000 -0.002294 0.000000
# 2 0.002201 0.048767 -0.012820 0.000000 -0.007906 0.000000
# 3 -0.004398 -0.012820 0.013630 0.000000 -0.004881 0.000000
# 4 0.000000 0.000000 0.000000 0.013370 0.000000 0.000686
# 5 -0.002294 -0.007906 -0.004881 0.000000 0.036404 0.000000
# 6 0.000000 0.000000 0.000000 0.000686 0.000000 0.058434
#
#
# Mechanical properties :
#
#
# Convention : Reuss Voigt Hill
#
# Bulk Modulus (GPa) = 22.12058 49.28573 35.70316
# Shear Modulus (GPa) = 21.87657 36.56277 29.21967
#
# Velocity S-wave (km/s) = 3.50205 4.52744 4.04735
# Velocity P-wave (km/s) = 5.36224 7.41354 6.46971
#
# Compressibility (1/GPa) = 0.04520676
#
# Stress axis : x y z
#
# Youngs Moduli (GPa) = 77.84744 20.50571 73.36897
#
# Poissons Ratio (x) = -0.04513 0.32270
# Poissons Ratio (y) = -0.17131 0.94060
# Poissons Ratio (z) = 0.34239 0.26289
#
# Static dielectric constant tensor:
#      x y z
#    x 1.631440 0.000000 0.007760 
#    y 0.000000 1.615940 0.000000 
#    z 0.007760 0.000000 1.704910 
# 
# From -- ./inp_files/286778.got.cif
#   From: 2010.05.17/outbox.cif.g08.bks.cpg/sg15_144_cif.got.tgz:286778.got - 2010.06.03 18:47:42.
