data_PCOD9268307
_publ_section_title
;
Structure prediction by ZEFSAII (Michael W. Deem and Ramdas Pophale) SiO2 
 PCOD9268307
Probable space group: C 2/C
;
_chemical_formula_sum "Si O2"
_cell_formula_units_Z 36
_cell_length_a 7.847071
_cell_length_b 23.093715
_cell_length_c 8.010226
_cell_angle_alpha 90.000000
_cell_angle_beta 83.424935
_cell_angle_gamma 90.000000
_cell_volume 1442.049703
_symmetry_space_group_name_H-M "C 2/C"
_symmetry_group_IT_number 15
_symmetry_cell_setting 'monoclinic'
loop_
_space_group_symop_operation_xyz
x,y,z
-x,y,1/2-z
-x,-y,-z
x,-y,1/2+z
1/2+x,1/2+y,z
1/2-x,1/2+y,1/2-z
1/2-x,1/2-y,-z
1/2+x,1/2-y,1/2+z
loop_
_atom_site_type_symbol
_atom_site_label
_atom_site_fract_x
_atom_site_fract_y
_atom_site_fract_z
Si Si1 0.952570 0.243841 0.943933
Si Si2 0.500000 0.364725 0.250000
Si Si3 0.912693 0.361274 0.572018
Si Si4 0.693256 0.553615 0.252118
Si Si5 0.690231 0.062964 0.884389
O O1 0.061760 0.296700 0.011395
O O2 0.000000 0.258831 0.750000
O O3 0.989935 0.175821 0.919150
O O4 0.750000 0.250000 0.000000
O O5 0.673378 0.401148 0.239580
O O6 0.014015 0.403681 0.436445
O O7 0.000000 0.367364 0.750000
O O8 0.730847 0.388669 0.640661
O O9 0.500000 0.533298 0.250000
O O10 0.723608 0.562062 0.442837
O O11 0.818209 0.502401 0.177177
#
# Coordination Sequence:
#
# PCOD9268307 Si02
#       5
#     8   4   8   8   8
#     4   9  16  30  54  89 110 140 195 255 282 339
#     4  10  20  30  62  88 112 146 206 246 284 348
#     4   9  18  34  57  86 112 151 196 249 293 341
#     4  11  23  36  57  84 124 156 198 241 302 355
#     4  11  21  38  57  88 115 159 199 243 295 356
#
# _framework density 24.964466000000002
#
# number of rings (size 3 to 8) (size 9 to 14) (size 15 to 20)
#    0.667    1.333    3.333    1.333    0.000    0.000 
#    0.000    0.000    0.000    1.333    0.000    0.000 
#    0.000    0.000    0.000    0.000    0.000    0.000 
#
# Total GULP energy -100299.984462 kJ/mol
# GULP energy per Si atom -5572.221359 kJ/mol
# Density = 2.490765 g / cm^3
# Si number density = 24.964466 Si / 1000 Ang^3
#
#
#
# Elastic Constant Matrix: (Units=GPa)
#
#
# Indices 1 2 3 4 5 6 
#
# 1 62.1554 29.5307 39.0122 0.0000 -17.1568 0.0000
# 2 29.5307 117.0333 17.5623 0.0000 -5.9420 0.0000
# 3 39.0122 17.5623 95.2703 0.0000 -18.7467 0.0000
# 4 0.0000 0.0000 0.0000 47.0225 0.0000 -36.5121
# 5 -17.1568 -5.9420 -18.7467 0.0000 33.3257 0.0000
# 6 0.0000 0.0000 0.0000 -36.5121 0.0000 45.2446
#
#
#
# Elastic Compliance Matrix: (Units=1/GPa)
#
#
# Indices 1 2 3 4 5 6 
#
# 1 0.025601 -0.004856 -0.008057 0.000000 0.007782 0.000000
# 2 -0.004856 0.009725 0.000051 0.000000 -0.000737 0.000000
# 3 -0.008057 0.000051 0.014586 0.000000 0.004067 0.000000
# 4 0.000000 0.000000 0.000000 0.056956 0.000000 0.045963
# 5 0.007782 -0.000737 0.004067 0.000000 0.036169 0.000000
# 6 0.000000 0.000000 0.000000 0.045963 0.000000 0.059194
#
#
# Mechanical properties :
#
#
# Convention : Reuss Voigt Hill
#
# Bulk Modulus (GPa) = 41.34272 49.62994 45.48633
# Shear Modulus (GPa) = 21.18486 37.67548 29.43017
#
# Velocity S-wave (km/s) = 2.91624 3.88901 3.43721
# Velocity P-wave (km/s) = 5.28543 6.33161 5.83203
#
# Compressibility (1/GPa) = 0.02418806
#
# Stress axis : x y z
#
# Youngs Moduli (GPa) = 39.06163 102.83037 68.55657
#
# Poissons Ratio (x) = 0.49930 0.55235
# Poissons Ratio (y) = 0.18967 -0.00346
# Poissons Ratio (z) = 0.31471 -0.00520
#
# Static dielectric constant tensor:
#      x y z
#    x 1.942380 0.000000 0.031490 
#    y 0.000000 2.150330 0.000000 
#    z 0.031490 0.000000 1.945580 
# 
# From -- ./inp_files/23339.got.cif
#   From: 2010.05.17/outbox.cif.g08.bks.cpg/sg15_12_cif.got.tgz:23339.got - 2010.06.03 18:47:42.
