data_PCOD9268680
_publ_section_title
;
Structure prediction by ZEFSAII (Michael W. Deem and Ramdas Pophale) SiO2 
 PCOD9268680
Probable space group: C 2/C
;
_chemical_formula_sum "Si O2"
_cell_formula_units_Z 48
_cell_length_a 12.831855
_cell_length_b 9.158994
_cell_length_c 16.899586
_cell_angle_alpha 90.000000
_cell_angle_beta 100.594455
_cell_angle_gamma 90.000000
_cell_volume 1952.297962
_symmetry_space_group_name_H-M "C 2/C"
_symmetry_group_IT_number 15
_symmetry_cell_setting 'monoclinic'
loop_
_space_group_symop_operation_xyz
x,y,z
-x,y,1/2-z
-x,-y,-z
x,-y,1/2+z
1/2+x,1/2+y,z
1/2-x,1/2+y,1/2-z
1/2-x,1/2-y,-z
1/2+x,1/2-y,1/2+z
loop_
_atom_site_type_symbol
_atom_site_label
_atom_site_fract_x
_atom_site_fract_y
_atom_site_fract_z
Si Si1 0.892030 0.745698 0.947923
Si Si2 0.111850 0.503029 0.672773
Si Si3 0.536038 0.296833 0.113408
Si Si4 0.208458 0.966792 0.033583
Si Si5 0.378072 0.129658 0.670515
Si Si6 0.068997 0.080415 0.367647
O O1 0.858311 0.597540 0.900017
O O2 0.978185 0.830293 0.903879
O O3 0.798371 0.861908 0.947502
O O4 0.952294 0.725744 0.039812
O O5 0.173349 0.553082 0.760215
O O6 0.102732 0.330621 0.662891
O O7 0.990730 0.554778 0.670998
O O8 0.616770 0.388841 0.071591
O O9 0.475546 0.419801 0.156226
O O10 0.314200 0.894764 0.080808
O O11 0.168760 0.943005 0.939568
O O12 0.393473 0.301490 0.690965
#
# Coordination Sequence:
#
# PCOD9268680 Si02
#       6
#     8   8   8   8   8   8
#     4   8  16  32  53  73  97 131 169 209 253 299
#     4  10  20  33  47  71 107 138 160 202 265 312
#     4   9  17  33  55  74  93 129 178 214 244 298
#     4   9  17  32  55  76  94 127 177 216 241 297
#     4  10  20  33  48  72 107 137 161 203 259 310
#     4   8  16  33  54  73  96 132 172 208 253 303
#
# _framework density 24.586410999999998
#
# number of rings (size 3 to 8) (size 9 to 14) (size 15 to 20)
#    0.000    3.000    0.000    3.000    0.000    1.333 
#    0.000   15.000    0.000    0.000    0.000    0.000 
#    0.000    0.000    0.000    0.000    0.000    0.000 
#
# Total GULP energy -134070.712723 kJ/mol
# GULP energy per Si atom -5586.279697 kJ/mol
# Density = 2.453045 g / cm^3
# Si number density = 24.586411 Si / 1000 Ang^3
#
#
#
# Elastic Constant Matrix: (Units=GPa)
#
#
# Indices 1 2 3 4 5 6 
#
# 1 43.4953 9.9731 2.2722 0.0000 8.5771 0.0000
# 2 9.9731 188.2824 47.8364 0.0000 -14.0028 0.0000
# 3 2.2722 47.8364 66.3038 0.0000 1.8256 0.0000
# 4 0.0000 0.0000 0.0000 25.9976 0.0000 -3.8128
# 5 8.5771 -14.0028 1.8256 0.0000 14.2816 0.0000
# 6 0.0000 0.0000 0.0000 -3.8128 0.0000 32.7833
#
#
#
# Elastic Compliance Matrix: (Units=1/GPa)
#
#
# Indices 1 2 3 4 5 6 
#
# 1 0.027707 -0.003532 0.002160 0.000000 -0.020379 0.000000
# 2 -0.003532 0.007735 -0.005747 0.000000 0.010440 0.000000
# 3 0.002160 -0.005747 0.019413 0.000000 -0.009413 0.000000
# 4 0.000000 0.000000 0.000000 0.039133 0.000000 0.004551
# 5 -0.020379 0.010440 -0.009413 0.000000 0.093698 0.000000
# 6 0.000000 0.000000 0.000000 0.004551 0.000000 0.031033
#
#
# Mechanical properties :
#
#
# Convention : Reuss Voigt Hill
#
# Bulk Modulus (GPa) = 24.62028 46.47168 35.54598
# Shear Modulus (GPa) = 20.28438 30.47915 25.38177
#
# Velocity S-wave (km/s) = 2.87544 3.52472 3.21651
# Velocity P-wave (km/s) = 4.58909 5.95880 5.31822
#
# Compressibility (1/GPa) = 0.04061692
#
# Stress axis : x y z
#
# Youngs Moduli (GPa) = 36.09244 129.28689 51.51075
#
# Poissons Ratio (x) = 0.45663 -0.11125
# Poissons Ratio (y) = 0.12748 0.29602
# Poissons Ratio (z) = -0.07795 0.74299
#
# Static dielectric constant tensor:
#      x y z
#    x 1.984550 0.000000 -0.052470 
#    y 0.000000 1.987810 0.000000 
#    z -0.052470 0.000000 2.029660 
# 
# From -- ./inp_files/242565.got.cif
#   From: 2010.05.17/outbox.cif.g08.bks.cpg/sg15_122_cif.got.tgz:242565.got - 2010.06.03 18:47:42.
