data_PCOD9268410
_publ_section_title
;
Structure prediction by ZEFSAII (Michael W. Deem and Ramdas Pophale) SiO2 
 PCOD9268410
Probable space group: C 2/C
;
_chemical_formula_sum "Si O2"
_cell_formula_units_Z 56
_cell_length_a 14.503437
_cell_length_b 21.423468
_cell_length_c 6.801347
_cell_angle_alpha 90.000000
_cell_angle_beta 104.508794
_cell_angle_gamma 90.000000
_cell_volume 2045.879204
_symmetry_space_group_name_H-M "C 2/C"
_symmetry_group_IT_number 15
_symmetry_cell_setting 'monoclinic'
loop_
_space_group_symop_operation_xyz
x,y,z
-x,y,1/2-z
-x,-y,-z
x,-y,1/2+z
1/2+x,1/2+y,z
1/2-x,1/2+y,1/2-z
1/2-x,1/2-y,-z
1/2+x,1/2-y,1/2+z
loop_
_atom_site_type_symbol
_atom_site_label
_atom_site_fract_x
_atom_site_fract_y
_atom_site_fract_z
Si Si1 0.480906 0.572392 0.465879
Si Si2 0.420277 0.256142 0.430101
Si Si3 0.278988 0.617073 0.272974
Si Si4 0.922075 0.390642 0.929274
Si Si5 0.373777 0.889083 0.368805
Si Si6 0.628398 0.258184 0.632558
Si Si7 0.175196 0.124521 0.670441
O O1 0.500000 0.593187 0.250000
O O2 0.500000 0.500000 0.500000
O O3 0.368829 0.585016 0.424784
O O4 0.568970 0.599541 0.635494
O O5 0.421629 0.183406 0.380383
O O6 0.529628 0.279482 0.475926
O O7 0.394317 0.257746 0.646867
O O8 0.341675 0.301743 0.296507
O O9 0.290716 0.689611 0.344416
O O10 0.173683 0.587351 0.232803
O O11 0.298877 0.617971 0.047805
O O12 0.900092 0.396128 0.151302
O O13 0.031656 0.413463 0.968828
O O14 0.364425 0.814968 0.408274
O O15 0.263429 0.908689 0.325171
#
# Coordination Sequence:
#
# PCOD9268410 Si02
#       7
#     8   8   8   8   8   8   8
#     4  10  20  32  46  62  80 106 142 180 213 240
#     4   8  11  16  27  47  76 108 134 153 186 243
#     4   9  14  22  35  51  76 108 136 163 200 244
#     4   8  13  18  28  50  80 111 134 153 189 247
#     4   8  13  18  28  50  80 111 134 153 189 247
#     4   8  11  16  27  47  76 108 134 153 186 243
#     4   9  14  22  35  51  76 108 136 163 200 244
#
# _framework density 27.372093
#
# number of rings (size 3 to 8) (size 9 to 14) (size 15 to 20)
#    0.000    3.429    1.429    2.571    0.000    3.429 
#    0.000    0.000    0.000    0.857    0.000    0.000 
#    0.000    4.571    0.000    0.000    0.000    0.000 
#
# Total GULP energy -156449.761089 kJ/mol
# GULP energy per Si atom -5587.491467 kJ/mol
# Density = 2.730979 g / cm^3
# Si number density = 27.372093 Si / 1000 Ang^3
#
#
#
# Elastic Constant Matrix: (Units=GPa)
#
#
# Indices 1 2 3 4 5 6 
#
# 1 193.9589 -7.7327 76.0622 0.0000 39.8899 0.0000
# 2 -7.7327 18.1625 -1.5374 0.0000 11.9822 0.0000
# 3 76.0622 -1.5374 213.3015 0.0000 43.3348 0.0000
# 4 0.0000 0.0000 0.0000 13.2080 0.0000 14.8016
# 5 39.8899 11.9822 43.3348 0.0000 70.1825 0.0000
# 6 0.0000 0.0000 0.0000 14.8016 0.0000 -16.3905
#
#
#
# Elastic Compliance Matrix: (Units=1/GPa)
#
#
# Indices 1 2 3 4 5 6 
#
# 1 0.006766 0.005209 -0.001616 0.000000 -0.003737 0.000000
# 2 0.005209 0.067751 0.001809 0.000000 -0.015645 0.000000
# 3 -0.001616 0.001809 0.005893 0.000000 -0.003029 0.000000
# 4 0.000000 0.000000 0.000000 0.037630 0.000000 0.033982
# 5 -0.003737 -0.015645 -0.003029 0.000000 0.020914 0.000000
# 6 0.000000 0.000000 0.000000 0.033982 0.000000 -0.030323
#
#
# Mechanical properties :
#
#
# Convention : Reuss Voigt Hill
#
# Bulk Modulus (GPa) = 10.96318 62.11190 36.53754
# Shear Modulus (GPa) = 38.99257 37.30871 38.15064
#
# Velocity S-wave (km/s) = 3.77840 3.69592 3.73738
# Velocity P-wave (km/s) = 4.80094 6.39953 5.65699
#
# Compressibility (1/GPa) = 0.09121439
#
# Stress axis : x y z
#
# Youngs Moduli (GPa) = 147.80596 14.75996 169.69786
#
# Poissons Ratio (x) = -0.07689 0.27420
# Poissons Ratio (y) = -0.76994 -0.30702
# Poissons Ratio (z) = 0.23883 -0.02670
#
# Static dielectric constant tensor:
#      x y z
#    x 2.270300 0.000000 -0.063810 
#    y 0.000000 2.079030 0.000000 
#    z -0.063810 0.000000 2.207790 
# 
# From -- ./inp_files/107340.got.cif
#   From: 2010.05.17/outbox.cif.g08.bks.cpg/sg15_54_cif.got.tgz:107340.got - 2010.06.03 18:47:42.
