data_PCOD9268047
_publ_section_title
;
Structure prediction by ZEFSAII (Michael W. Deem and Ramdas Pophale) SiO2 
 PCOD9268047
Probable space group: C 2/C
;
_chemical_formula_sum "Si O2"
_cell_formula_units_Z 40
_cell_length_a 20.214497
_cell_length_b 8.414571
_cell_length_c 26.961289
_cell_angle_alpha 90.000000
_cell_angle_beta 156.219771
_cell_angle_gamma 90.000000
_cell_volume 1849.217178
_symmetry_space_group_name_H-M "C 2/C"
_symmetry_group_IT_number 15
_symmetry_cell_setting 'monoclinic'
loop_
_space_group_symop_operation_xyz
x,y,z
-x,y,1/2-z
-x,-y,-z
x,-y,1/2+z
1/2+x,1/2+y,z
1/2-x,1/2+y,1/2-z
1/2-x,1/2-y,-z
1/2+x,1/2-y,1/2+z
loop_
_atom_site_type_symbol
_atom_site_label
_atom_site_fract_x
_atom_site_fract_y
_atom_site_fract_z
Si Si1 0.652657 0.559475 0.214796
Si Si2 0.369958 0.103229 0.092928
Si Si3 0.815756 0.933991 0.939252
Si Si4 0.375806 0.068247 0.786837
Si Si5 0.868249 0.138806 0.700055
O O1 0.631584 0.745890 0.207707
O O2 0.811878 0.523292 0.291239
O O3 0.657627 0.476250 0.271959
O O4 0.499013 0.485121 0.079186
O O5 0.295245 0.016556 0.089270
O O6 0.530491 0.205092 0.214660
O O7 0.437732 0.981042 0.099416
O O8 0.250000 0.250000 0.000000
O O9 0.796799 0.739271 0.925880
O O10 0.748489 0.021274 0.843809
O O11 0.000000 0.068874 0.750000
#
# Coordination Sequence:
#
# PCOD9268047 Si02
#       5
#     8   8   8   8   8
#     4  12  24  44  65  95 141 176 221 285 335 393
#     4  10  19  41  68  93 127 175 212 269 335 394
#     4  10  22  43  68  93 132 176 222 276 332 395
#     4  11  25  41  64  98 137 175 226 277 332 402
#     4   9  20  39  67  97 126 170 230 270 329 405
#
# _framework density 21.630776000000001
#
# number of rings (size 3 to 8) (size 9 to 14) (size 15 to 20)
#    0.000    1.600    2.000    4.800    0.000    2.400 
#    7.200    2.000    0.000    0.000    0.000    0.000 
#    0.000    0.000    0.000    0.000    0.000    0.000 
#
# Total GULP energy -111412.089603 kJ/mol
# GULP energy per Si atom -5570.604480 kJ/mol
# Density = 2.158154 g / cm^3
# Si number density = 21.630776 Si / 1000 Ang^3
#
#
#
# Elastic Constant Matrix: (Units=GPa)
#
#
# Indices 1 2 3 4 5 6 
#
# 1 165.4834 65.6347 27.8194 -0.0003 18.4869 -0.0001
# 2 65.6347 87.6613 37.5866 -0.0001 5.3898 -0.0002
# 3 27.8194 37.5866 48.8062 -0.0008 1.7820 0.0001
# 4 -0.0003 -0.0001 -0.0008 18.4527 0.0001 -0.5340
# 5 18.4869 5.3898 1.7820 0.0001 31.1533 -0.0001
# 6 -0.0001 -0.0002 0.0001 -0.5340 -0.0001 46.4520
#
#
#
# Elastic Compliance Matrix: (Units=1/GPa)
#
#
# Indices 1 2 3 4 5 6 
#
# 1 0.009127 -0.006580 0.000021 0.000000 -0.004279 0.000000
# 2 -0.006580 0.021926 -0.013167 -0.000001 0.000864 0.000000
# 3 0.000021 -0.013167 0.030599 0.000001 0.000515 0.000000
# 4 0.000000 -0.000001 0.000001 0.054211 0.000000 0.000623
# 5 -0.004279 0.000864 0.000515 0.000000 0.034460 0.000000
# 6 0.000000 0.000000 0.000000 0.000623 0.000000 0.021535
#
#
# Mechanical properties :
#
#
# Convention : Reuss Voigt Hill
#
# Bulk Modulus (GPa) = 45.04393 62.67024 53.85709
# Shear Modulus (GPa) = 22.86140 30.60561 26.73351
#
# Velocity S-wave (km/s) = 3.25451 3.76561 3.51935
# Velocity P-wave (km/s) = 5.91538 6.92402 6.43948
#
# Compressibility (1/GPa) = 0.02220055
#
# Stress axis : x y z
#
# Youngs Moduli (GPa) = 109.56469 45.60698 32.68098
#
# Poissons Ratio (x) = 0.30007 -0.00068
# Poissons Ratio (y) = 0.72089 0.43032
# Poissons Ratio (z) = -0.00229 0.60052
#
# Static dielectric constant tensor:
#      x y z
#    x 1.863430 0.000000 -0.032070 
#    y 0.000000 1.725350 0.000000 
#    z -0.032070 0.000000 2.263770 
# 
# From -- ./inp_files/218820.got.cif
#   From: 2010.05.17/outbox.cif.g08.bks.cpg/sg15_110_cif.got.tgz:218820.got - 2010.06.03 18:47:42.
