data_PCOD9268387
_publ_section_title
;
Structure prediction by ZEFSAII (Michael W. Deem and Ramdas Pophale) SiO2 
 PCOD9268387
Probable space group: C 2/C
;
_chemical_formula_sum "Si O2"
_cell_formula_units_Z 60
_cell_length_a 14.498886
_cell_length_b 17.458636
_cell_length_c 29.507961
_cell_angle_alpha 90.000000
_cell_angle_beta 26.820177
_cell_angle_gamma 90.000000
_cell_volume 3370.120149
_symmetry_space_group_name_H-M "C 2/C"
_symmetry_group_IT_number 15
_symmetry_cell_setting 'monoclinic'
loop_
_space_group_symop_operation_xyz
x,y,z
-x,y,1/2-z
-x,-y,-z
x,-y,1/2+z
1/2+x,1/2+y,z
1/2-x,1/2+y,1/2-z
1/2-x,1/2-y,-z
1/2+x,1/2-y,1/2+z
loop_
_atom_site_type_symbol
_atom_site_label
_atom_site_fract_x
_atom_site_fract_y
_atom_site_fract_z
Si Si1 0.805856 0.793148 0.734779
Si Si2 0.711758 0.774441 0.352106
Si Si3 0.283482 0.206746 0.835018
Si Si4 0.695538 0.002505 0.947047
Si Si5 0.248959 0.823289 0.568966
Si Si6 0.581753 0.136864 0.063005
Si Si7 0.336408 0.291431 0.531812
Si Si8 0.500000 0.410598 0.250000
O O1 0.729493 0.768570 0.719292
O O2 0.778109 0.727049 0.784456
O O3 0.658368 0.859518 0.818778
O O4 0.047567 0.806116 0.628226
O O5 0.468133 0.790666 0.457993
O O6 0.756928 0.727686 0.378340
O O7 0.830352 0.854412 0.303200
O O8 0.500000 0.166288 0.750000
O O9 0.289546 0.282904 0.864909
O O10 0.061058 0.172121 0.942008
O O11 0.886540 0.038877 0.836941
O O12 0.737194 0.914225 0.937938
O O13 0.644308 0.058322 0.011507
O O14 0.500000 0.000000 0.000000
O O15 0.626791 0.207644 0.008235
O O16 0.708219 0.158590 0.052682
#
# Coordination Sequence:
#
# PCOD9268387 Si02
#       8
#     8   8   8   8   8   8   8   4
#     4  10  20  31  57  75 110 146 188 226 279 322
#     4  11  20  36  52  84 109 140 188 236 275 318
#     4   8  16  30  50  75 104 146 175 222 275 328
#     4  12  23  37  54  81 120 149 176 219 278 350
#     4  10  21  36  52  80 116 149 179 221 279 344
#     4  10  20  34  52  79 109 149 178 224 278 329
#     4   9  17  33  50  74 113 134 186 231 270 319
#     4  12  24  32  56  82 112 148 176 228 282 332
#
# _framework density 17.803519999999999
#
# number of rings (size 3 to 8) (size 9 to 14) (size 15 to 20)
#    0.000    1.867    2.667    2.800    8.400    0.000 
#    0.000    0.000    0.000    0.800    0.000    0.000 
#    0.000    0.000    0.000    0.000    0.000    0.000 
#
# Total GULP energy -167162.199831 kJ/mol
# GULP energy per Si atom -5572.073328 kJ/mol
# Density = 1.776300 g / cm^3
# Si number density = 17.803520 Si / 1000 Ang^3
#
#
#
# Elastic Constant Matrix: (Units=GPa)
#
#
# Indices 1 2 3 4 5 6 
#
# 1 99.3109 18.8593 27.0680 -0.0265 8.5398 0.0092
# 2 18.8593 36.8078 12.7047 -0.0051 11.3591 -0.0038
# 3 27.0680 12.7047 84.6577 -0.0425 3.2687 0.0141
# 4 -0.0265 -0.0051 -0.0425 12.4017 0.0309 3.4027
# 5 8.5398 11.3591 3.2687 0.0309 36.2802 -0.0125
# 6 0.0092 -0.0038 0.0141 3.4027 -0.0125 8.2527
#
#
#
# Elastic Compliance Matrix: (Units=1/GPa)
#
#
# Indices 1 2 3 4 5 6 
#
# 1 0.011887 -0.004714 -0.003053 0.000021 -0.001047 -0.000021
# 2 -0.004714 0.033481 -0.003167 0.000014 -0.009088 0.000007
# 3 -0.003053 -0.003167 0.013244 0.000047 0.000517 -0.000039
# 4 0.000021 0.000014 0.000047 0.090920 -0.000104 -0.037488
# 5 -0.001047 -0.009088 0.000517 -0.000104 0.030609 0.000085
# 6 -0.000021 0.000007 -0.000039 -0.037488 0.000085 0.136630
#
#
# Mechanical properties :
#
#
# Convention : Reuss Voigt Hill
#
# Bulk Modulus (GPa) = 27.21430 37.56005 32.38717
# Shear Modulus (GPa) = 14.24974 22.19654 18.22314
#
# Velocity S-wave (km/s) = 2.83218 3.53477 3.20280
# Velocity P-wave (km/s) = 5.10040 6.14835 5.64873
#
# Compressibility (1/GPa) = 0.03674539
#
# Stress axis : x y z
#
# Youngs Moduli (GPa) = 84.12839 29.86792 75.50803
#
# Poissons Ratio (x) = 0.14078 0.23051
# Poissons Ratio (y) = 0.39654 0.23910
# Poissons Ratio (z) = 0.25682 0.09458
#
# Static dielectric constant tensor:
#      x y z
#    x 1.845440 -0.000060 -0.078570 
#    y -0.000060 1.596380 0.000010 
#    z -0.078570 0.000010 1.681780 
# 
# From -- ./inp_files/296817.got.cif
#   From: 2010.05.17/outbox.cif.g08.bks.cpg/sg15_149_cif.got.tgz:296817.got - 2010.06.03 18:47:42.
