data_PCOD9268110
_publ_section_title
;
Structure prediction by ZEFSAII (Michael W. Deem and Ramdas Pophale) SiO2 
 PCOD9268110
Probable space group: C 2/C
;
_chemical_formula_sum "Si O2"
_cell_formula_units_Z 40
_cell_length_a 12.751114
_cell_length_b 9.209835
_cell_length_c 16.182074
_cell_angle_alpha 90.000000
_cell_angle_beta 61.984644
_cell_angle_gamma 90.000000
_cell_volume 1677.672473
_symmetry_space_group_name_H-M "C 2/C"
_symmetry_group_IT_number 15
_symmetry_cell_setting 'monoclinic'
loop_
_space_group_symop_operation_xyz
x,y,z
-x,y,1/2-z
-x,-y,-z
x,-y,1/2+z
1/2+x,1/2+y,z
1/2-x,1/2+y,1/2-z
1/2-x,1/2-y,-z
1/2+x,1/2-y,1/2+z
loop_
_atom_site_type_symbol
_atom_site_label
_atom_site_fract_x
_atom_site_fract_y
_atom_site_fract_z
Si Si1 0.264128 0.999043 0.989425
Si Si2 0.193840 0.762287 0.136446
Si Si3 0.958573 0.153014 0.478249
Si Si4 0.071809 0.700300 0.338480
Si Si5 0.485383 0.123659 0.659200
O O1 0.387706 0.075204 0.925778
O O2 0.247246 0.884681 0.919940
O O3 0.156605 0.109923 0.032018
O O4 0.259620 0.897970 0.071600
O O5 0.168280 0.771952 0.242587
O O6 0.060054 0.747810 0.145021
O O7 0.922728 0.251332 0.569587
O O8 0.048144 0.240552 0.385595
O O9 0.000000 0.000000 0.500000
O O10 0.085516 0.527314 0.320889
O O11 0.500000 0.161479 0.750000
#
# Coordination Sequence:
#
# PCOD9268110 Si02
#       5
#     8   8   8   8   8
#     4  10  20  41  63  92 122 167 209 254 311 381
#     4   9  18  38  71  85 124 172 202 249 320 376
#     4  12  25  39  61  98 130 155 215 272 307 363
#     4  10  19  42  65  93 125 164 212 257 315 372
#     4  11  23  45  66  88 127 176 211 252 318 384
#
# _framework density 23.842558
#
# number of rings (size 3 to 8) (size 9 to 14) (size 15 to 20)
#    0.000    1.600    6.000    1.200    0.000    1.600 
#    7.200    0.000    0.000    0.000    0.000    0.000 
#    0.000    0.000    0.000    0.000    0.000    0.000 
#
# Total GULP energy -111888.731957 kJ/mol
# GULP energy per Si atom -5594.436598 kJ/mol
# Density = 2.378829 g / cm^3
# Si number density = 23.842558 Si / 1000 Ang^3
#
#
#
# Elastic Constant Matrix: (Units=GPa)
#
#
# Indices 1 2 3 4 5 6 
#
# 1 31.5674 12.5980 4.5519 0.0000 -6.6207 0.0000
# 2 12.5980 96.5666 64.9705 0.0000 15.9033 0.0000
# 3 4.5519 64.9705 180.3754 0.0000 15.8772 0.0000
# 4 0.0000 0.0000 0.0000 23.9527 0.0000 6.4405
# 5 -6.6207 15.9033 15.8772 0.0000 38.3194 0.0000
# 6 0.0000 0.0000 0.0000 6.4405 0.0000 17.9333
#
#
#
# Elastic Compliance Matrix: (Units=1/GPa)
#
#
# Indices 1 2 3 4 5 6 
#
# 1 0.036031 -0.006604 0.000706 0.000000 0.008674 0.000000
# 2 -0.006604 0.015424 -0.004904 0.000000 -0.005510 0.000000
# 3 0.000706 -0.004904 0.007372 0.000000 -0.000897 0.000000
# 4 0.000000 0.000000 0.000000 0.046211 0.000000 -0.016596
# 5 0.008674 -0.005510 -0.000897 0.000000 0.030254 0.000000
# 6 0.000000 0.000000 0.000000 -0.016596 0.000000 0.061722
#
#
# Mechanical properties :
#
#
# Convention : Reuss Voigt Hill
#
# Bulk Modulus (GPa) = 26.86536 52.52780 39.69658
# Shear Modulus (GPa) = 21.64263 31.13369 26.38816
#
# Velocity S-wave (km/s) = 3.01613 3.61751 3.33042
# Velocity P-wave (km/s) = 4.83959 6.28709 5.61022
#
# Compressibility (1/GPa) = 0.03722266
#
# Stress axis : x y z
#
# Youngs Moduli (GPa) = 27.75382 64.83402 135.65692
#
# Poissons Ratio (x) = 0.42816 -0.09577
# Poissons Ratio (y) = 0.18329 0.66526
# Poissons Ratio (z) = -0.01959 0.31794
#
# Static dielectric constant tensor:
#      x y z
#    x 2.003190 0.000000 -0.002270 
#    y 0.000000 1.930840 0.000000 
#    z -0.002270 0.000000 1.854010 
# 
# From -- ./inp_files/208463.got.cif
#   From: 2010.05.17/outbox.cif.g08.bks.cpg/sg15_105_cif.got.tgz:208463.got - 2010.06.03 18:47:42.
