data_PCOD9268621
_publ_section_title
;
Structure prediction by ZEFSAII (Michael W. Deem and Ramdas Pophale) SiO2 
 PCOD9268621
Probable space group: C 2/C
;
_chemical_formula_sum "Si O2"
_cell_formula_units_Z 48
_cell_length_a 21.219668
_cell_length_b 9.999596
_cell_length_c 14.232677
_cell_angle_alpha 90.000000
_cell_angle_beta 136.205017
_cell_angle_gamma 90.000000
_cell_volume 2090.084832
_symmetry_space_group_name_H-M "C 2/C"
_symmetry_group_IT_number 15
_symmetry_cell_setting 'monoclinic'
loop_
_space_group_symop_operation_xyz
x,y,z
-x,y,1/2-z
-x,-y,-z
x,-y,1/2+z
1/2+x,1/2+y,z
1/2-x,1/2+y,1/2-z
1/2-x,1/2-y,-z
1/2+x,1/2-y,1/2+z
loop_
_atom_site_type_symbol
_atom_site_label
_atom_site_fract_x
_atom_site_fract_y
_atom_site_fract_z
Si Si1 0.436480 0.241785 0.941855
Si Si2 0.437094 0.016259 0.093755
Si Si3 0.263227 0.345354 0.869577
Si Si4 0.730804 0.563981 0.919518
Si Si5 0.376963 0.218412 0.410770
Si Si6 0.789581 0.231455 0.147013
O O1 0.356730 0.320247 0.913294
O O2 0.383180 0.208719 0.787234
O O3 0.458102 0.113901 0.030003
O O4 0.538092 0.302188 0.038161
O O5 0.500000 0.032381 0.250000
O O6 0.338465 0.052714 0.026342
O O7 0.427306 0.868076 0.044256
O O8 0.215131 0.204614 0.851046
O O9 0.178902 0.390528 0.713734
O O10 0.288779 0.423317 0.991152
O O11 0.693834 0.429823 0.832551
O O12 0.290562 0.284543 0.369888
O O13 0.750000 0.250000 0.000000
#
# Coordination Sequence:
#
# PCOD9268621 Si02
#       6
#     8   8   8   8   8   8
#     4  10  21  36  57  88 117 151 193 237 299 347
#     4  10  20  32  58  93 115 146 188 252 304 343
#     4   9  19  38  61  85 113 158 193 242 284 351
#     4   9  19  37  59  83 118 150 200 235 289 349
#     4  10  21  35  58  84 120 147 194 245 293 349
#     4  10  23  37  58  85 116 159 190 244 296 348
#
# _framework density 22.965575000000001
#
# number of rings (size 3 to 8) (size 9 to 14) (size 15 to 20)
#    0.000    2.333    0.000    1.500    7.000    0.000 
#    3.000    0.833    3.667    0.000    0.000    0.000 
#    0.000    0.000    0.000    0.000    0.000    0.000 
#
# Total GULP energy -133670.184361 kJ/mol
# GULP energy per Si atom -5569.591015 kJ/mol
# Density = 2.291330 g / cm^3
# Si number density = 22.965575 Si / 1000 Ang^3
#
#
#
# Elastic Constant Matrix: (Units=GPa)
#
#
# Indices 1 2 3 4 5 6 
#
# 1 108.8931 -7.5817 35.2296 0.0000 19.6371 0.0000
# 2 -7.5817 36.2782 6.7058 0.0000 -2.1808 0.0000
# 3 35.2296 6.7058 128.1342 0.0000 12.0248 0.0000
# 4 0.0000 0.0000 0.0000 21.2765 0.0000 -4.2705
# 5 19.6371 -2.1808 12.0248 0.0000 44.5165 0.0000
# 6 0.0000 0.0000 0.0000 -4.2705 0.0000 13.5130
#
#
#
# Elastic Compliance Matrix: (Units=1/GPa)
#
#
# Indices 1 2 3 4 5 6 
#
# 1 0.010977 0.002570 -0.002780 0.000000 -0.003965 0.000000
# 2 0.002570 0.028577 -0.002285 0.000000 0.000884 0.000000
# 3 -0.002780 -0.002285 0.008807 0.000000 -0.001264 0.000000
# 4 0.000000 0.000000 0.000000 0.050183 0.000000 0.015859
# 5 -0.003965 0.000884 -0.001264 0.000000 0.024598 0.000000
# 6 0.000000 0.000000 0.000000 0.015859 0.000000 0.079015
#
#
# Mechanical properties :
#
#
# Convention : Reuss Voigt Hill
#
# Bulk Modulus (GPa) = 23.05762 38.00141 30.52951
# Shear Modulus (GPa) = 22.56266 31.79132 27.17699
#
# Velocity S-wave (km/s) = 3.13782 3.72466 3.44376
# Velocity P-wave (km/s) = 4.81557 5.92288 5.39769
#
# Compressibility (1/GPa) = 0.04336961
#
# Stress axis : x y z
#
# Youngs Moduli (GPa) = 91.10121 34.99283 113.54606
#
# Poissons Ratio (x) = -0.08992 0.31570
# Poissons Ratio (y) = -0.23409 0.25945
# Poissons Ratio (z) = 0.25329 0.07996
#
# Static dielectric constant tensor:
#      x y z
#    x 2.065780 0.000000 -0.158410 
#    y 0.000000 1.994800 0.000000 
#    z -0.158410 0.000000 2.054400 
# 
# From -- ./inp_files/167133.got.cif
#   From: 2010.05.17/outbox.cif.g08.bks.cpg/sg15_84_cif.got.tgz:167133.got - 2010.06.03 18:47:42.
