data_PCOD9268748
_publ_section_title
;
Structure prediction by ZEFSAII (Michael W. Deem and Ramdas Pophale) SiO2 
 PCOD9268748
Probable space group: C 2/C
;
_chemical_formula_sum "Si O2"
_cell_formula_units_Z 48
_cell_length_a 9.834242
_cell_length_b 15.506756
_cell_length_c 16.041745
_cell_angle_alpha 90.000000
_cell_angle_beta 108.224843
_cell_angle_gamma 90.000000
_cell_volume 2323.605116
_symmetry_space_group_name_H-M "C 2/C"
_symmetry_group_IT_number 15
_symmetry_cell_setting 'monoclinic'
loop_
_space_group_symop_operation_xyz
x,y,z
-x,y,1/2-z
-x,-y,-z
x,-y,1/2+z
1/2+x,1/2+y,z
1/2-x,1/2+y,1/2-z
1/2-x,1/2-y,-z
1/2+x,1/2-y,1/2+z
loop_
_atom_site_type_symbol
_atom_site_label
_atom_site_fract_x
_atom_site_fract_y
_atom_site_fract_z
Si Si1 0.624392 0.669453 0.105564
Si Si2 0.506565 0.658738 0.912069
Si Si3 0.816966 0.372782 0.407046
Si Si4 0.939289 0.362820 0.600741
Si Si5 0.000000 0.221215 0.250000
Si Si6 0.000000 0.525497 0.250000
Si Si7 0.700115 0.881958 0.288526
O O1 0.647089 0.771321 0.093798
O O2 0.783247 0.634307 0.116773
O O3 0.557830 0.664790 0.184405
O O4 0.516465 0.639827 0.012545
O O5 0.651988 0.620290 0.902315
O O6 0.516227 0.762405 0.898841
O O7 0.364750 0.623366 0.842882
O O8 0.914588 0.401355 0.503600
O O9 0.827007 0.402210 0.314318
O O10 0.044990 0.412536 0.682541
O O11 0.126195 0.290199 0.296890
O O12 0.883084 0.461333 0.187311
#
# Coordination Sequence:
#
# PCOD9268748 Si02
#       7
#     8   8   8   8   4   4   8
#     4   8  16  32  53  83 107 130 184 231 258 304
#     4   9  17  32  61  83  97 139 190 223 252 313
#     4   8  16  33  56  80 102 135 186 222 255 312
#     4   9  19  34  57  80 103 138 183 228 257 306
#     4   9  18  30  50  74 113 144 170 221 266 310
#     4  11  24  34  50  80 117 142 168 221 278 318
#     4  10  20  33  51  78 114 147 171 211 273 329
#
# _framework density 20.657554000000001
#
# number of rings (size 3 to 8) (size 9 to 14) (size 15 to 20)
#    0.000    3.000    0.000    2.500    7.000    1.333 
#    0.000    3.333    7.333    0.000    0.000    0.000 
#    0.000    0.000    0.000    0.000    0.000    0.000 
#
# Total GULP energy -133653.932136 kJ/mol
# GULP energy per Si atom -5568.913839 kJ/mol
# Density = 2.061054 g / cm^3
# Si number density = 20.657554 Si / 1000 Ang^3
#
#
#
# Elastic Constant Matrix: (Units=GPa)
#
#
# Indices 1 2 3 4 5 6 
#
# 1 57.3735 3.1037 36.3685 0.0000 -4.5382 0.0000
# 2 3.1037 29.9331 16.6304 0.0000 2.0024 0.0000
# 3 36.3685 16.6304 90.9374 0.0000 -0.6617 0.0000
# 4 0.0000 0.0000 0.0000 12.3744 0.0000 6.3092
# 5 -4.5382 2.0024 -0.6617 0.0000 36.4564 0.0000
# 6 0.0000 0.0000 0.0000 6.3092 0.0000 7.3116
#
#
#
# Elastic Compliance Matrix: (Units=1/GPa)
#
#
# Indices 1 2 3 4 5 6 
#
# 1 0.023854 0.002939 -0.010058 0.000000 0.002625 0.000000
# 2 0.002939 0.037720 -0.008087 0.000000 -0.001853 0.000000
# 3 -0.010058 -0.008087 0.016494 0.000000 -0.000509 0.000000
# 4 0.000000 0.000000 0.000000 0.144298 0.000000 -0.124516
# 5 0.002625 -0.001853 -0.000509 0.000000 0.027849 0.000000
# 6 0.000000 0.000000 0.000000 -0.124516 0.000000 0.244216
#
#
# Mechanical properties :
#
#
# Convention : Reuss Voigt Hill
#
# Bulk Modulus (GPa) = 20.98358 32.27213 26.62786
# Shear Modulus (GPa) = 9.24676 19.37122 14.30899
#
# Velocity S-wave (km/s) = 2.11800 3.06556 2.63473
# Velocity P-wave (km/s) = 4.02009 5.30910 4.70891
#
# Compressibility (1/GPa) = 0.04765631
#
# Stress axis : x y z
#
# Youngs Moduli (GPa) = 41.92118 26.51106 60.62631
#
# Poissons Ratio (x) = -0.07792 0.60981
# Poissons Ratio (y) = -0.12322 0.49029
# Poissons Ratio (z) = 0.42166 0.21440
#
# Static dielectric constant tensor:
#      x y z
#    x 1.777710 0.000000 -0.042050 
#    y 0.000000 1.734610 0.000000 
#    z -0.042050 0.000000 1.793860 
# 
# From -- ./inp_files/136218.got.cif
#   From: 2010.05.17/outbox.cif.g08.bks.cpg/sg15_69_cif.got.tgz:136218.got - 2010.06.03 18:47:42.
