data_PCOD9268369
_publ_section_title
;
Structure prediction by ZEFSAII (Michael W. Deem and Ramdas Pophale) SiO2 
 PCOD9268369
Probable space group: C 2/C
;
_chemical_formula_sum "Si O2"
_cell_formula_units_Z 64
_cell_length_a 28.143366
_cell_length_b 11.052132
_cell_length_c 13.606237
_cell_angle_alpha 90.000000
_cell_angle_beta 45.700957
_cell_angle_gamma 90.000000
_cell_volume 3028.961965
_symmetry_space_group_name_H-M "C 2/C"
_symmetry_group_IT_number 15
_symmetry_cell_setting 'monoclinic'
loop_
_space_group_symop_operation_xyz
x,y,z
-x,y,1/2-z
-x,-y,-z
x,-y,1/2+z
1/2+x,1/2+y,z
1/2-x,1/2+y,1/2-z
1/2-x,1/2-y,-z
1/2+x,1/2-y,1/2+z
loop_
_atom_site_type_symbol
_atom_site_label
_atom_site_fract_x
_atom_site_fract_y
_atom_site_fract_z
Si Si1 0.339783 0.861509 0.060129
Si Si2 0.757822 0.572037 0.412412
Si Si3 0.378651 0.704757 0.186875
Si Si4 0.190220 0.663507 0.557389
Si Si5 0.465412 0.976203 0.401838
Si Si6 0.149225 0.784408 0.152446
Si Si7 0.520896 0.205819 0.441468
Si Si8 0.763112 0.952350 0.788056
O O1 0.344188 0.795830 0.158058
O O2 0.266863 0.915107 0.147394
O O3 0.360725 0.774565 0.941468
O O4 0.392746 0.969737 0.987637
O O5 0.799180 0.462051 0.399417
O O6 0.802691 0.690399 0.361223
O O7 0.689686 0.594448 0.570115
O O8 0.739669 0.557390 0.325049
O O9 0.370994 0.764640 0.306429
O O10 0.334353 0.585733 0.229930
O O11 0.455706 0.711266 0.047908
O O12 0.250000 0.750000 0.500000
O O13 0.208270 0.635322 0.418913
O O14 0.500000 0.943278 0.250000
O O15 0.463536 0.864610 0.479697
O O16 0.504320 0.091474 0.393407
O O17 0.081021 0.782287 0.309874
#
# Coordination Sequence:
#
# PCOD9268369 Si02
#       8
#     8   8   8   8   8   8   8   8
#     4  11  19  33  58  84 124 152 201 249 308 356
#     4  11  22  37  60  88 119 160 206 247 310 358
#     4  10  22  37  56  89 121 163 200 252 309 367
#     4  10  22  38  58  84 120 155 201 254 303 351
#     4  10  20  31  54  84 120 163 193 249 316 366
#     4  11  22  37  57  90 125 155 199 256 301 365
#     4  10  22  36  55  85 125 158 200 249 312 368
#     4  11  21  35  58  83 121 160 200 248 301 366
#
# _framework density 21.129351
#
# number of rings (size 3 to 8) (size 9 to 14) (size 15 to 20)
#    0.000    1.500    5.000    0.750    5.250    0.000 
#    0.000    0.000    0.000    3.000    0.000    0.000 
#    0.000    0.000    0.000    0.000    0.000    0.000 
#
# Total GULP energy -178562.161820 kJ/mol
# GULP energy per Si atom -5580.067557 kJ/mol
# Density = 2.108126 g / cm^3
# Si number density = 21.129351 Si / 1000 Ang^3
#
#
#
# Elastic Constant Matrix: (Units=GPa)
#
#
# Indices 1 2 3 4 5 6 
#
# 1 56.5394 8.8558 33.7148 0.0000 2.8378 0.0000
# 2 8.8558 18.5447 15.1382 0.0000 -4.9467 0.0000
# 3 33.7148 15.1382 146.6846 0.0000 -0.1750 0.0000
# 4 0.0000 0.0000 0.0000 21.8638 0.0000 -5.0732
# 5 2.8378 -4.9467 -0.1750 0.0000 33.9315 0.0000
# 6 0.0000 0.0000 0.0000 -5.0732 0.0000 21.8912
#
#
#
# Elastic Compliance Matrix: (Units=1/GPa)
#
#
# Indices 1 2 3 4 5 6 
#
# 1 0.021514 -0.007664 -0.004157 0.000000 -0.002938 0.000000
# 2 -0.007664 0.064206 -0.004853 0.000000 0.009976 0.000000
# 3 -0.004157 -0.004853 0.008273 0.000000 -0.000317 0.000000
# 4 0.000000 0.000000 0.000000 0.048337 0.000000 0.011202
# 5 -0.002938 0.009976 -0.000317 0.000000 0.031170 0.000000
# 6 0.000000 0.000000 0.000000 0.011202 0.000000 0.048277
#
#
# Mechanical properties :
#
#
# Convention : Reuss Voigt Hill
#
# Bulk Modulus (GPa) = 16.48929 37.46513 26.97721
# Shear Modulus (GPa) = 18.15942 26.47462 22.31702
#
# Velocity S-wave (km/s) = 2.93480 3.54358 3.25346
# Velocity P-wave (km/s) = 4.39375 5.87473 5.18736
#
# Compressibility (1/GPa) = 0.06064541
#
# Stress axis : x y z
#
# Youngs Moduli (GPa) = 46.48201 15.57485 120.86981
#
# Poissons Ratio (x) = 0.11936 0.50251
# Poissons Ratio (y) = 0.35622 0.58657
# Poissons Ratio (z) = 0.19325 0.07558
#
# Static dielectric constant tensor:
#      x y z
#    x 1.795800 0.000000 0.014770 
#    y 0.000000 3.139570 0.000000 
#    z 0.014770 0.000000 1.853060 
# 
# From -- ./inp_files/181744.got.cif
#   From: 2010.05.17/outbox.cif.g08.bks.cpg/sg15_91_cif.got.tgz:181744.got - 2010.06.03 18:47:42.
