data_PCOD9268717
_publ_section_title
;
Structure prediction by ZEFSAII (Michael W. Deem and Ramdas Pophale) SiO2 
 PCOD9268717
Probable space group: C 2/C
;
_chemical_formula_sum "Si O2"
_cell_formula_units_Z 56
_cell_length_a 23.581697
_cell_length_b 12.805558
_cell_length_c 25.641170
_cell_angle_alpha 90.000000
_cell_angle_beta 21.397204
_cell_angle_gamma 90.000000
_cell_volume 2824.903062
_symmetry_space_group_name_H-M "C 2/C"
_symmetry_group_IT_number 15
_symmetry_cell_setting 'monoclinic'
loop_
_space_group_symop_operation_xyz
x,y,z
-x,y,1/2-z
-x,-y,-z
x,-y,1/2+z
1/2+x,1/2+y,z
1/2-x,1/2+y,1/2-z
1/2-x,1/2-y,-z
1/2+x,1/2-y,1/2+z
loop_
_atom_site_type_symbol
_atom_site_label
_atom_site_fract_x
_atom_site_fract_y
_atom_site_fract_z
Si Si1 0.238176 0.472714 0.459486
Si Si2 0.988119 0.963399 0.070144
Si Si3 0.062270 0.028466 0.618198
Si Si4 0.840913 0.374833 0.136027
Si Si5 0.461731 0.232500 0.344165
Si Si6 0.246271 0.671756 0.172281
Si Si7 0.485141 0.998636 0.599206
O O1 0.305316 0.515705 0.456662
O O2 0.390903 0.474691 0.291712
O O3 0.160186 0.358060 0.535638
O O4 0.097326 0.529292 0.550365
O O5 0.807495 0.949702 0.235519
O O6 0.055884 0.016314 0.065032
O O7 0.079330 0.853635 0.994169
O O8 0.000000 0.000000 0.000000
O O9 0.097053 0.152824 0.590487
O O10 0.773949 0.258418 0.192621
O O11 0.948020 0.406372 0.092631
O O12 0.929793 0.407348 0.007259
O O13 0.500000 0.227645 0.250000
O O14 0.623852 0.216202 0.235938
O O15 0.172467 0.559091 0.248717
#
# Coordination Sequence:
#
# PCOD9268717 Si02
#       7
#     8   8   8   8   8   8   8
#     4  10  20  33  50  75 108 150 182 220 275 333
#     4  12  23  37  53  80 115 149 193 239 276 325
#     4  11  21  31  51  75 108 147 188 224 272 336
#     4  11  21  36  53  75 112 148 191 229 279 334
#     4  11  20  30  49  79 114 146 180 218 269 345
#     4  11  22  34  56  81 109 152 186 231 278 328
#     4  10  21  37  53  76 112 151 186 234 276 333
#
# _framework density 19.823689000000002
#
# number of rings (size 3 to 8) (size 9 to 14) (size 15 to 20)
#    0.000    1.143    5.714    2.143    4.000    0.000 
#    0.000    0.000    0.000    0.000    0.000    1.000 
#    0.000    2.571    0.000    0.286    0.000    0.000 
#
# Total GULP energy -156010.595906 kJ/mol
# GULP energy per Si atom -5571.806997 kJ/mol
# Density = 1.977857 g / cm^3
# Si number density = 19.823689 Si / 1000 Ang^3
#
#
#
# Elastic Constant Matrix: (Units=GPa)
#
#
# Indices 1 2 3 4 5 6 
#
# 1 183.8303 27.5878 35.8907 0.0007 -20.1437 -0.0002
# 2 27.5878 13.2207 2.9397 0.0129 -8.1342 -0.0013
# 3 35.8907 2.9397 62.9437 0.0113 -13.5194 -0.0019
# 4 0.0007 0.0129 0.0113 17.2598 -0.0025 -1.3135
# 5 -20.1437 -8.1342 -13.5194 -0.0025 42.4733 -0.0003
# 6 -0.0002 -0.0013 -0.0019 -1.3135 -0.0003 22.5466
#
#
#
# Elastic Compliance Matrix: (Units=1/GPa)
#
#
# Indices 1 2 3 4 5 6 
#
# 1 0.008938 -0.018054 -0.004385 0.000016 -0.000614 0.000000
# 2 -0.018054 0.122225 0.008345 -0.000093 0.017502 0.000002
# 3 -0.004385 0.008345 0.019208 -0.000018 0.005632 0.000001
# 4 0.000016 -0.000093 -0.000018 0.058196 -0.000013 0.003390
# 5 -0.000614 0.017502 0.005632 -0.000013 0.028397 0.000001
# 6 0.000000 0.000002 0.000001 0.003390 0.000001 0.044550
#
#
# Mechanical properties :
#
#
# Convention : Reuss Voigt Hill
#
# Bulk Modulus (GPa) = 8.18446 43.64789 25.91617
# Shear Modulus (GPa) = 14.26816 29.36103 21.81459
#
# Velocity S-wave (km/s) = 2.68573 3.85269 3.32087
# Velocity P-wave (km/s) = 3.70879 6.46969 5.27314
#
# Compressibility (1/GPa) = 0.12218284
#
# Stress axis : x y z
#
# Youngs Moduli (GPa) = 111.88089 8.18162 52.06235
#
# Poissons Ratio (x) = 0.14771 0.22831
# Poissons Ratio (y) = 2.01991 -0.43448
# Poissons Ratio (z) = 0.49063 -0.06828
#
# Static dielectric constant tensor:
#      x y z
#    x 1.813610 0.000000 0.019930 
#    y 0.000000 1.688650 0.000000 
#    z 0.019930 0.000000 1.733440 
# 
# From -- ./inp_files/302287.got.cif
#   From: 2010.05.17/outbox.cif.g08.bks.cpg/sg15_152_cif.got.tgz:302287.got - 2010.06.03 18:47:42.
