data_PCOD9268238
_publ_section_title
;
Structure prediction by ZEFSAII (Michael W. Deem and Ramdas Pophale) SiO2 
 PCOD9268238
Probable space group: C 2/C
;
_chemical_formula_sum "Si O2"
_cell_formula_units_Z 60
_cell_length_a 7.782679
_cell_length_b 13.293114
_cell_length_c 23.641107
_cell_angle_alpha 90.000000
_cell_angle_beta 112.974079
_cell_angle_gamma 90.000000
_cell_volume 2251.816962
_symmetry_space_group_name_H-M "C 2/C"
_symmetry_group_IT_number 15
_symmetry_cell_setting 'monoclinic'
loop_
_space_group_symop_operation_xyz
x,y,z
-x,y,1/2-z
-x,-y,-z
x,-y,1/2+z
1/2+x,1/2+y,z
1/2-x,1/2+y,1/2-z
1/2-x,1/2-y,-z
1/2+x,1/2-y,1/2+z
loop_
_atom_site_type_symbol
_atom_site_label
_atom_site_fract_x
_atom_site_fract_y
_atom_site_fract_z
Si Si1 0.601321 0.727348 0.908174
Si Si2 0.597757 0.229154 0.645675
Si Si3 0.275799 0.986781 0.916594
Si Si4 0.500000 0.947393 0.750000
Si Si5 0.651822 0.253655 0.225053
Si Si6 0.637806 0.527085 0.140086
Si Si7 0.825826 0.459066 0.554074
Si Si8 0.797693 0.752151 0.440700
O O1 0.770581 0.690248 0.889675
O O2 0.416094 0.718208 0.845096
O O3 0.655287 0.842137 0.927913
O O4 0.500768 0.700376 0.954494
O O5 0.664054 0.212650 0.718873
O O6 0.624826 0.351079 0.644571
O O7 0.385235 0.201506 0.610772
O O8 0.469711 0.008810 0.909947
O O9 0.291681 0.865386 0.922855
O O10 0.067034 0.009908 0.867820
O O11 0.286359 0.026445 0.982664
O O12 0.392936 0.867245 0.777886
O O13 0.673052 0.001913 0.802178
O O14 0.500000 0.295625 0.250000
O O15 0.674715 0.502506 0.079198
O O16 0.750000 0.750000 0.500000
#
# Coordination Sequence:
#
# PCOD9268238 Si02
#       8
#     8   8   8   4   8   8   8   8
#     4   9  15  27  45  62  88 110 130 182 227 263
#     4   8  15  27  42  60  86 109 135 178 220 268
#     4   9  18  27  41  60  83 118 148 177 206 264
#     4   8  12  22  40  62  90 110 126 174 214 278
#     4   7  11  23  41  62  84 104 127 169 221 269
#     4   9  14  25  41  61  87 112 128 169 221 263
#     4   9  15  27  42  62  86 110 143 171 216 266
#     4  10  20  29  38  59  87 119 155 180 211 255
#
# _framework density 26.645150999999998
#
# number of rings (size 3 to 8) (size 9 to 14) (size 15 to 20)
#    0.400    2.933    2.667    0.400    0.000    1.067 
#    0.000    0.667    0.000    0.000    0.000    1.867 
#    0.000    6.400    0.000    0.000    0.000    0.000 
#
# Total GULP energy -167326.207011 kJ/mol
# GULP energy per Si atom -5577.540234 kJ/mol
# Density = 2.658451 g / cm^3
# Si number density = 26.645151 Si / 1000 Ang^3
#
#
#
# Elastic Constant Matrix: (Units=GPa)
#
#
# Indices 1 2 3 4 5 6 
#
# 1 147.3408 31.8264 22.4830 0.0000 14.4496 0.0000
# 2 31.8264 86.4575 2.0036 0.0000 5.1637 0.0000
# 3 22.4830 2.0036 77.1967 0.0000 27.1068 0.0000
# 4 0.0000 0.0000 0.0000 22.5097 0.0000 5.4285
# 5 14.4496 5.1637 27.1068 0.0000 46.0904 0.0000
# 6 0.0000 0.0000 0.0000 5.4285 0.0000 22.2945
#
#
#
# Elastic Compliance Matrix: (Units=1/GPa)
#
#
# Indices 1 2 3 4 5 6 
#
# 1 0.007763 -0.002752 -0.001819 0.000000 -0.001056 0.000000
# 2 -0.002752 0.012623 0.000841 0.000000 -0.001046 0.000000
# 3 -0.001819 0.000841 0.016755 0.000000 -0.009378 0.000000
# 4 0.000000 0.000000 0.000000 0.047197 0.000000 -0.011492
# 5 -0.001056 -0.001046 -0.009378 0.000000 0.027660 0.000000
# 6 0.000000 0.000000 0.000000 -0.011492 0.000000 0.047652
#
#
# Mechanical properties :
#
#
# Convention : Reuss Voigt Hill
#
# Bulk Modulus (GPa) = 33.69224 47.06899 40.38062
# Shear Modulus (GPa) = 28.24828 35.15770 31.70299
#
# Velocity S-wave (km/s) = 3.25955 3.63640 3.45312
# Velocity P-wave (km/s) = 5.18059 5.94430 5.57554
#
# Compressibility (1/GPa) = 0.02968043
#
# Stress axis : x y z
#
# Youngs Moduli (GPa) = 128.82376 79.22348 59.68459
#
# Poissons Ratio (x) = 0.21805 0.10855
# Poissons Ratio (y) = 0.35456 -0.05021
# Poissons Ratio (z) = 0.23429 -0.06665
#
# Static dielectric constant tensor:
#      x y z
#    x 2.049530 0.000000 0.005930 
#    y 0.000000 2.211670 0.000000 
#    z 0.005930 0.000000 2.210820 
# 
# From -- ./inp_files/289431.got.cif
#   From: 2010.05.17/outbox.cif.g08.bks.cpg/sg15_145_cif.got.tgz:289431.got - 2010.06.03 18:47:42.
