data_PCOD9268947
_publ_section_title
;
Structure prediction by ZEFSAII (Michael W. Deem and Ramdas Pophale) SiO2 
 PCOD9268947
Probable space group: C 2/C
;
_chemical_formula_sum "Si O2"
_cell_formula_units_Z 56
_cell_length_a 10.565163
_cell_length_b 19.343205
_cell_length_c 15.462278
_cell_angle_alpha 90.000000
_cell_angle_beta 122.688746
_cell_angle_gamma 90.000000
_cell_volume 2659.454415
_symmetry_space_group_name_H-M "C 2/C"
_symmetry_group_IT_number 15
_symmetry_cell_setting 'monoclinic'
loop_
_space_group_symop_operation_xyz
x,y,z
-x,y,1/2-z
-x,-y,-z
x,-y,1/2+z
1/2+x,1/2+y,z
1/2-x,1/2+y,1/2-z
1/2-x,1/2-y,-z
1/2+x,1/2-y,1/2+z
loop_
_atom_site_type_symbol
_atom_site_label
_atom_site_fract_x
_atom_site_fract_y
_atom_site_fract_z
Si Si1 0.819694 0.906450 0.681924
Si Si2 0.662538 0.344395 0.263313
Si Si3 0.113574 0.277345 0.613995
Si Si4 0.796929 0.004468 0.512297
Si Si5 0.826711 0.241714 0.434731
Si Si6 0.888673 0.376638 0.636816
Si Si7 0.845140 0.981714 0.332889
O O1 0.744584 0.831479 0.643324
O O2 0.000000 0.899514 0.750000
O O3 0.763864 0.953312 0.579777
O O4 0.794008 0.949801 0.761781
O O5 0.500000 0.346627 0.250000
O O6 0.659658 0.288386 0.186408
O O7 0.778705 0.311255 0.370796
O O8 0.705449 0.418286 0.244019
O O9 0.006140 0.243016 0.501979
O O10 0.999841 0.324377 0.628655
O O11 0.689079 0.070607 0.458773
O O12 0.972185 0.023577 0.594505
O O13 0.792840 0.975146 0.412569
O O14 0.750000 0.250000 0.500000
O O15 0.744680 0.171818 0.371901
O O16 0.000000 0.409004 0.750000
#
# Coordination Sequence:
#
# PCOD9268947 Si02
#       7
#     8   8   8   8   8   8   8
#     4  10  23  45  66  89 126 174 218 258 314 394
#     4  12  20  38  62  95 128 158 213 271 317 375
#     4  11  22  37  63  95 119 167 206 260 331 371
#     4  10  22  41  61  91 128 168 218 256 314 386
#     4  10  20  33  56  95 127 154 199 262 329 370
#     4  11  19  36  61  95 130 161 202 266 318 377
#     4  10  23  38  66  92 122 172 215 261 318 377
#
# _framework density 21.056951000000002
#
# number of rings (size 3 to 8) (size 9 to 14) (size 15 to 20)
#    0.000    1.429    4.286    3.000    6.000    0.571 
#    5.143    0.714    0.000    0.000    0.000    0.000 
#    0.000    0.000    0.000    0.000    0.000    0.000 
#
# Total GULP energy -156107.780481 kJ/mol
# GULP energy per Si atom -5575.277874 kJ/mol
# Density = 2.100902 g / cm^3
# Si number density = 21.056951 Si / 1000 Ang^3
#
#
#
# Elastic Constant Matrix: (Units=GPa)
#
#
# Indices 1 2 3 4 5 6 
#
# 1 30.0456 35.4797 29.1683 0.0000 4.8468 0.0000
# 2 35.4797 103.8564 34.6351 0.0000 5.1330 0.0000
# 3 29.1683 34.6351 107.4545 0.0000 6.5893 0.0000
# 4 0.0000 0.0000 0.0000 -210.2363 0.0000-1678.9710
# 5 4.8468 5.1330 6.5893 0.0000 21.1230 0.0000
# 6 0.0000 0.0000 0.0000-1678.9710 0.0000**********
#
#
#
# Elastic Compliance Matrix: (Units=1/GPa)
#
#
# Indices 1 2 3 4 5 6 
#
# 1 0.068710 -0.019092 -0.012046 0.000000 -0.007369 0.000000
# 2 -0.019092 0.016144 -0.000050 0.000000 0.000473 0.000000
# 3 -0.012046 -0.000050 0.012664 0.000000 -0.001174 0.000000
# 4 0.000000 0.000000 0.000000 0.021014 0.000000 -0.003227
# 5 -0.007369 0.000473 -0.001174 0.000000 0.049284 0.000000
# 6 0.000000 0.000000 0.000000 -0.003227 0.000000 0.000404
#
#
# Mechanical properties :
#
#
# Convention : Reuss Voigt Hill
#
# Bulk Modulus (GPa) = 28.45488 48.88033 38.66761
# Shear Modulus (GPa) = 20.63472 -2215.07415 -1097.21971
#
# Velocity S-wave (km/s) = 3.13381 -32.46888 -22.85178
# Velocity P-wave (km/s) = 5.16110 37.18029 26.03590
#
# Compressibility (1/GPa) = 0.03514335
#
# Stress axis : x y z
#
# Youngs Moduli (GPa) = 14.55392 61.94180 78.96233
#
# Poissons Ratio (x) = 1.18257 0.95115
# Poissons Ratio (y) = 0.27786 0.00397
# Poissons Ratio (z) = 0.17531 0.00312
#
# Static dielectric constant tensor:
#      x y z
#    x 1.768770 0.000000 -0.006240 
#    y 0.000000 1.760360 0.000000 
#    z -0.006240 0.000000 1.828090 
# 
# From -- ./inp_files/146170.got.cif
#   From: 2010.05.17/outbox.cif.g08.bks.cpg/sg15_74_cif.got.tgz:146170.got - 2010.06.03 18:47:42.
