data_PCOD9268249
_publ_section_title
;
Structure prediction by ZEFSAII (Michael W. Deem and Ramdas Pophale) SiO2 
 PCOD9268249
Probable space group: C 2/C
;
_chemical_formula_sum "Si O2"
_cell_formula_units_Z 48
_cell_length_a 28.669118
_cell_length_b 9.461926
_cell_length_c 7.928481
_cell_angle_alpha 90.000000
_cell_angle_beta 80.124218
_cell_angle_gamma 90.000000
_cell_volume 2118.850415
_symmetry_space_group_name_H-M "C 2/C"
_symmetry_group_IT_number 15
_symmetry_cell_setting 'monoclinic'
loop_
_space_group_symop_operation_xyz
x,y,z
-x,y,1/2-z
-x,-y,-z
x,-y,1/2+z
1/2+x,1/2+y,z
1/2-x,1/2+y,1/2-z
1/2-x,1/2-y,-z
1/2+x,1/2-y,1/2+z
loop_
_atom_site_type_symbol
_atom_site_label
_atom_site_fract_x
_atom_site_fract_y
_atom_site_fract_z
Si Si1 0.842708 0.804917 0.260654
Si Si2 0.352282 0.863214 0.070568
Si Si3 0.812759 0.936796 0.973798
Si Si4 0.033320 0.600961 0.366334
Si Si5 0.263628 0.691713 0.206741
Si Si6 0.599324 0.881835 0.115001
O O1 0.868853 0.718763 0.390713
O O2 0.847580 0.837221 0.059904
O O3 0.789822 0.736475 0.290074
O O4 0.842636 0.963052 0.334198
O O5 0.297854 0.821179 0.133102
O O6 0.377233 0.816462 0.230184
O O7 0.362359 0.025389 0.016457
O O8 0.781515 0.051224 0.097637
O O9 0.776707 0.846843 0.887876
O O10 0.065513 0.496083 0.233941
O O11 0.065672 0.680352 0.486273
O O12 0.000000 0.679972 0.250000
O O13 0.000000 0.500000 0.500000
#
# Coordination Sequence:
#
# PCOD9268249 Si02
#       6
#     8   8   8   8   8   8
#     4  10  20  33  48  65  86 126 166 209 258 294
#     4  10  20  30  42  65  97 125 160 202 236 274
#     4   9  19  33  46  62  84 111 163 211 242 299
#     4   8  14  28  48  67  95 133 154 172 223 294
#     4  10  20  33  48  65  86 126 166 209 257 293
#     4   9  18  29  44  72 100 127 156 193 233 278
#
# _framework density 22.653791999999999
#
# number of rings (size 3 to 8) (size 9 to 14) (size 15 to 20)
#    0.000    2.667    0.000    2.500    0.000    8.000 
#    0.000    0.000    0.000    0.000    0.000    0.000 
#    0.000    0.000    0.000 4464.000    0.000    0.000 
#
# Total GULP energy -133604.091171 kJ/mol
# GULP energy per Si atom -5566.837132 kJ/mol
# Density = 2.260223 g / cm^3
# Si number density = 22.653792 Si / 1000 Ang^3
#
#
#
# Elastic Constant Matrix: (Units=GPa)
#
#
# Indices 1 2 3 4 5 6 
#
# 1 72.3353 21.1436 41.4079 0.0000 26.9468 0.0000
# 2 21.1436 49.7351 21.3644 0.0000 16.0827 0.0000
# 3 41.4079 21.3644 153.7430 0.0000 63.3752 0.0000
# 4 0.0000 0.0000 0.0000 39.2320 0.0000 10.6159
# 5 26.9468 16.0827 63.3752 0.0000 61.9509 0.0000
# 6 0.0000 0.0000 0.0000 10.6159 0.0000 13.6778
#
#
#
# Elastic Compliance Matrix: (Units=1/GPa)
#
#
# Indices 1 2 3 4 5 6 
#
# 1 0.018347 -0.005422 -0.002557 0.000000 -0.003957 0.000000
# 2 -0.005422 0.023683 -0.000464 0.000000 -0.003315 0.000000
# 3 -0.002557 -0.000464 0.011671 0.000000 -0.010707 0.000000
# 4 0.000000 0.000000 0.000000 0.032266 0.000000 -0.025043
# 5 -0.003957 -0.003315 -0.010707 0.000000 0.029676 0.000000
# 6 0.000000 0.000000 0.000000 -0.025043 0.000000 0.092548
#
#
# Mechanical properties :
#
#
# Convention : Reuss Voigt Hill
#
# Bulk Modulus (GPa) = 27.16274 49.29391 38.22833
# Shear Modulus (GPa) = 21.06608 35.76530 28.41569
#
# Velocity S-wave (km/s) = 3.05276 3.97769 3.54552
# Velocity P-wave (km/s) = 4.94390 6.55004 5.80281
#
# Compressibility (1/GPa) = 0.03681513
#
# Stress axis : x y z
#
# Youngs Moduli (GPa) = 54.50440 42.22462 85.68311
#
# Poissons Ratio (x) = 0.22894 0.21907
# Poissons Ratio (y) = 0.29552 0.03978
# Poissons Ratio (z) = 0.13935 0.01960
#
# Static dielectric constant tensor:
#      x y z
#    x 1.913280 0.000000 -0.002960 
#    y 0.000000 1.969490 0.000000 
#    z -0.002960 0.000000 2.011710 
# 
# From -- ./inp_files/64877.got.cif
#   From: 2010.05.17/outbox.cif.g08.bks.cpg/sg15_33_cif.got.tgz:64877.got - 2010.06.03 18:47:42.
