data_PCOD9268452
_publ_section_title
;
Structure prediction by ZEFSAII (Michael W. Deem and Ramdas Pophale) SiO2 
 PCOD9268452
Probable space group: C 2/C
;
_chemical_formula_sum "Si O2"
_cell_formula_units_Z 48
_cell_length_a 14.168165
_cell_length_b 18.035555
_cell_length_c 22.269914
_cell_angle_alpha 90.000000
_cell_angle_beta 24.590756
_cell_angle_gamma 90.000000
_cell_volume 2368.072282
_symmetry_space_group_name_H-M "C 2/C"
_symmetry_group_IT_number 15
_symmetry_cell_setting 'monoclinic'
loop_
_space_group_symop_operation_xyz
x,y,z
-x,y,1/2-z
-x,-y,-z
x,-y,1/2+z
1/2+x,1/2+y,z
1/2-x,1/2+y,1/2-z
1/2-x,1/2-y,-z
1/2+x,1/2-y,1/2+z
loop_
_atom_site_type_symbol
_atom_site_label
_atom_site_fract_x
_atom_site_fract_y
_atom_site_fract_z
Si Si1 0.765727 0.982676 0.202841
Si Si2 0.874673 0.381601 0.439597
Si Si3 0.331399 0.551138 0.792059
Si Si4 0.158485 0.614772 0.409005
Si Si5 0.447852 0.387048 0.987505
Si Si6 0.184755 0.266564 0.197047
O O1 0.507219 0.960061 0.365938
O O2 0.902094 0.945714 0.180467
O O3 0.824998 0.941725 0.106441
O O4 0.822615 0.068960 0.160668
O O5 0.766266 0.367906 0.566269
O O6 0.697216 0.383814 0.489112
O O7 0.060258 0.317914 0.318203
O O8 0.500000 0.562849 0.750000
O O9 0.112540 0.602838 0.930329
O O10 0.255946 0.464955 0.836805
O O11 0.245460 0.685184 0.322075
O O12 0.409879 0.307761 0.040916
O O13 0.000000 0.266200 0.250000
#
# Coordination Sequence:
#
# PCOD9268452 Si02
#       6
#     8   8   8   8   8   8
#     4   9  17  30  49  70  96 126 159 195 235 285
#     4   9  18  32  49  73 102 126 154 199 242 281
#     4  10  20  33  49  70  96 128 163 199 237 280
#     4  10  20  32  50  73  97 127 162 196 240 290
#     4   9  17  30  50  73  97 126 156 195 245 284
#     4   9  18  30  47  72  99 123 153 194 243 288
#
# _framework density 20.269652000000001
#
# number of rings (size 3 to 8) (size 9 to 14) (size 15 to 20)
#    0.000    2.667    0.000    3.000    0.000    4.000 
#    0.000    0.000    0.000   15.000    0.000    0.000 
#    0.000    0.000    0.000    0.000    0.000    0.000 
#
# Total GULP energy -133745.060519 kJ/mol
# GULP energy per Si atom -5572.710855 kJ/mol
# Density = 2.022352 g / cm^3
# Si number density = 20.269652 Si / 1000 Ang^3
#
#
#
# Elastic Constant Matrix: (Units=GPa)
#
#
# Indices 1 2 3 4 5 6 
#
# 1 68.0447 8.2951 4.1016 0.0000 13.1190 -0.0012
# 2 8.2951 105.8802 30.2026 0.0163 -8.3198 0.0038
# 3 4.1016 30.2026 44.7824 0.0529 5.2429 -0.0040
# 4 0.0000 0.0163 0.0529 24.3800 -0.0438 -1.5786
# 5 13.1190 -8.3198 5.2429 -0.0438 19.3785 -0.0077
# 6 -0.0012 0.0038 -0.0040 -1.5786 -0.0077 17.5468
#
#
#
# Elastic Compliance Matrix: (Units=1/GPa)
#
#
# Indices 1 2 3 4 5 6 
#
# 1 0.017601 -0.003049 0.002058 -0.000028 -0.013781 -0.000006
# 2 -0.003049 0.013345 -0.009949 0.000032 0.010485 0.000002
# 3 0.002058 -0.009949 0.030480 -0.000085 -0.013911 -0.000004
# 4 -0.000028 0.000032 -0.000085 0.041258 0.000150 0.003712
# 5 -0.013781 0.010485 -0.013911 0.000150 0.069199 0.000037
# 6 -0.000006 0.000002 -0.000004 0.003712 0.000037 0.057325
#
#
# Mechanical properties :
#
#
# Convention : Reuss Voigt Hill
#
# Bulk Modulus (GPa) = 25.28672 33.76731 29.52701
# Shear Modulus (GPa) = 18.92004 24.00159 21.46082
#
# Velocity S-wave (km/s) = 3.05850 3.44483 3.25740
# Velocity P-wave (km/s) = 4.99748 5.70243 5.36155
#
# Compressibility (1/GPa) = 0.03954646
#
# Stress axis : x y z
#
# Youngs Moduli (GPa) = 56.81542 74.93262 32.80808
#
# Poissons Ratio (x) = 0.22845 -0.06751
# Poissons Ratio (y) = 0.17321 0.32640
# Poissons Ratio (z) = -0.11690 0.74549
#
# Static dielectric constant tensor:
#      x y z
#    x 1.751730 0.000040 0.037380 
#    y 0.000040 1.773940 -0.000080 
#    z 0.037380 -0.000080 1.790750 
# 
# From -- ./inp_files/113396.got.cif
#   From: 2010.05.17/outbox.cif.g08.bks.cpg/sg15_57_cif.got.tgz:113396.got - 2010.06.03 18:47:42.
