data_PCOD9268630
_publ_section_title
;
Structure prediction by ZEFSAII (Michael W. Deem and Ramdas Pophale) SiO2 
 PCOD9268630
Probable space group: C 2/C
;
_chemical_formula_sum "Si O2"
_cell_formula_units_Z 40
_cell_length_a 16.592282
_cell_length_b 8.988928
_cell_length_c 23.168211
_cell_angle_alpha 90.000000
_cell_angle_beta 155.693435
_cell_angle_gamma 90.000000
_cell_volume 1422.334383
_symmetry_space_group_name_H-M "C 2/C"
_symmetry_group_IT_number 15
_symmetry_cell_setting 'monoclinic'
loop_
_space_group_symop_operation_xyz
x,y,z
-x,y,1/2-z
-x,-y,-z
x,-y,1/2+z
1/2+x,1/2+y,z
1/2-x,1/2+y,1/2-z
1/2-x,1/2-y,-z
1/2+x,1/2-y,1/2+z
loop_
_atom_site_type_symbol
_atom_site_label
_atom_site_fract_x
_atom_site_fract_y
_atom_site_fract_z
Si Si1 0.840199 0.670850 0.112214
Si Si2 0.585981 0.826495 0.515872
Si Si3 0.679498 0.608316 0.223429
Si Si4 0.791265 0.485981 0.176421
Si Si5 0.642580 0.380033 0.894850
O O1 0.706321 0.608710 0.075838
O O2 0.000000 0.772329 0.250000
O O3 0.978318 0.532564 0.180200
O O4 0.750000 0.750000 0.000000
O O5 0.395206 0.760342 0.358252
O O6 0.631333 0.884719 0.610405
O O7 0.712114 0.671126 0.604331
O O8 0.685784 0.939371 0.535006
O O9 0.723982 0.513267 0.196569
O O10 0.504353 0.555332 0.152496
O O11 0.500000 0.332248 0.750000
O O12 0.750000 0.250000 0.000000
#
# Coordination Sequence:
#
# PCOD9268630 Si02
#       5
#     8   8   8   8   8
#     4   8  20  36  62  78 111 152 198 237 290 339
#     4  10  20  37  58  86 116 156 191 233 299 352
#     4  10  20  32  60  83 119 147 195 245 283 346
#     4   9  21  35  64  82 113 155 199 236 294 354
#     4   8  16  29  50  75 108 142 177 223 279 331
#
# _framework density 28.122782000000001
#
# number of rings (size 3 to 8) (size 9 to 14) (size 15 to 20)
#    1.200    1.600    0.000    0.600   11.200    0.000 
#    0.000    1.000    4.400    1.200    0.000    0.000 
#    0.000    0.000    0.000    0.000    0.000    0.000 
#
# Total GULP energy -111343.849146 kJ/mol
# GULP energy per Si atom -5567.192457 kJ/mol
# Density = 2.805877 g / cm^3
# Si number density = 28.122782 Si / 1000 Ang^3
#
#
#
# Elastic Constant Matrix: (Units=GPa)
#
#
# Indices 1 2 3 4 5 6 
#
# 1 200.5748 55.9314 79.4141 0.0028 -50.7717 0.0006
# 2 55.9314 41.9343 51.1843 0.0046 -10.9529 -0.0013
# 3 79.4141 51.1843 219.6974 -0.0188 -67.8853 -0.0038
# 4 0.0028 0.0046 -0.0188 68.4640 -0.0024 -11.5763
# 5 -50.7717 -10.9529 -67.8853 -0.0024 66.7579 0.0001
# 6 0.0006 -0.0013 -0.0038 -11.5763 0.0001 31.6226
#
#
#
# Elastic Compliance Matrix: (Units=1/GPa)
#
#
# Indices 1 2 3 4 5 6 
#
# 1 0.009804 -0.013369 0.001745 0.000001 0.007038 0.000000
# 2 -0.013369 0.052135 -0.011392 -0.000007 -0.013198 -0.000001
# 3 0.001745 -0.011392 0.009343 0.000004 0.008959 0.000002
# 4 0.000001 -0.000007 0.000004 0.015570 0.000004 0.005700
# 5 0.007038 -0.013198 0.008959 0.000004 0.027277 0.000002
# 6 0.000000 -0.000001 0.000002 0.005700 0.000002 0.033710
#
#
# Mechanical properties :
#
#
# Convention : Reuss Voigt Hill
#
# Bulk Modulus (GPa) = 39.60066 92.80735 66.20401
# Shear Modulus (GPa) = 24.71731 51.74733 38.23232
#
# Velocity S-wave (km/s) = 2.96785 4.29423 3.69111
# Velocity P-wave (km/s) = 5.08489 7.59340 6.46203
#
# Compressibility (1/GPa) = 0.02525210
#
# Stress axis : x y z
#
# Youngs Moduli (GPa) = 101.99913 19.18084 107.02839
#
# Poissons Ratio (x) = 0.25642 -0.18680
# Poissons Ratio (y) = 1.36358 1.21927
# Poissons Ratio (z) = -0.17802 0.21851
#
# Static dielectric constant tensor:
#      x y z
#    x 2.204920 0.000000 0.098110 
#    y 0.000000 2.303620 0.000000 
#    z 0.098110 0.000000 2.417250 
# 
# From -- ./inp_files/204248.got.cif
#   From: 2010.05.17/outbox.cif.g08.bks.cpg/sg15_103_cif.got.tgz:204248.got - 2010.06.03 18:47:42.
