data_PCOD9268970
_publ_section_title
;
Structure prediction by ZEFSAII (Michael W. Deem and Ramdas Pophale) SiO2 
 PCOD9268970
Probable space group: C 2/C
;
_chemical_formula_sum "Si O2"
_cell_formula_units_Z 64
_cell_length_a 15.715112
_cell_length_b 20.077672
_cell_length_c 29.404807
_cell_angle_alpha 90.000000
_cell_angle_beta 160.635309
_cell_angle_gamma 90.000000
_cell_volume 3076.360555
_symmetry_space_group_name_H-M "C 2/C"
_symmetry_group_IT_number 15
_symmetry_cell_setting 'monoclinic'
loop_
_space_group_symop_operation_xyz
x,y,z
-x,y,1/2-z
-x,-y,-z
x,-y,1/2+z
1/2+x,1/2+y,z
1/2-x,1/2+y,1/2-z
1/2-x,1/2-y,-z
1/2+x,1/2-y,1/2+z
loop_
_atom_site_type_symbol
_atom_site_label
_atom_site_fract_x
_atom_site_fract_y
_atom_site_fract_z
Si Si1 0.406922 0.319966 0.815826
Si Si2 0.441784 0.036480 0.829738
Si Si3 0.643041 0.622332 0.029679
Si Si4 0.930310 0.040185 0.595212
Si Si5 0.518738 0.171869 0.909271
Si Si6 0.716884 0.090186 0.301720
Si Si7 0.610434 0.763002 0.978557
Si Si8 0.517761 0.357298 0.211328
O O1 0.456171 0.247000 0.862837
O O2 0.357338 0.374941 0.830177
O O3 0.140153 0.309248 0.654298
O O4 0.677717 0.334056 0.927121
O O5 0.459394 0.116663 0.839738
O O6 0.214902 0.017085 0.750265
O O7 0.377395 0.985713 0.755868
O O8 0.711530 0.012889 0.985050
O O9 0.621505 0.598169 0.070639
O O10 0.947916 0.628373 0.173214
O O11 0.547579 0.568697 0.944907
O O12 0.525134 0.693260 0.957712
O O13 0.878147 0.101699 0.601213
O O14 0.307638 0.156234 0.841526
O O15 0.750000 0.750000 0.000000
O O16 0.835637 0.793142 0.123142
O O17 0.500000 0.394141 0.250000
#
# Coordination Sequence:
#
# PCOD9268970 Si02
#       8
#     8   8   8   8   8   8   8   8
#     4  11  21  38  62  91 130 168 208 257 323 379
#     4  10  20  37  62  85 121 166 208 253 319 382
#     4  10  20  33  57  93 128 157 210 263 301 370
#     4  10  20  39  57  86 121 158 208 256 315 380
#     4  10  22  39  61  89 129 168 203 258 329 385
#     4  10  20  34  59  94 123 165 216 261 304 376
#     4  12  18  34  62  91 119 164 210 257 314 368
#     4  11  23  38  63  89 113 154 215 269 314 372
#
# _framework density 20.803804
#
# number of rings (size 3 to 8) (size 9 to 14) (size 15 to 20)
#    0.000    1.500    3.750    2.250    3.500    0.500 
#    0.000    5.625    0.000    6.750    0.000    0.000 
#    0.000    0.000    0.000    0.000    0.000    0.000 
#
# Total GULP energy -178240.196740 kJ/mol
# GULP energy per Si atom -5570.006148 kJ/mol
# Density = 2.075645 g / cm^3
# Si number density = 20.803804 Si / 1000 Ang^3
#
#
#
# Elastic Constant Matrix: (Units=GPa)
#
#
# Indices 1 2 3 4 5 6 
#
# 1 50.8686 21.1180 34.7518 -0.0241 1.0896 0.0142
# 2 21.1180 75.8445 17.9526 -0.0223 2.0771 0.0074
# 3 34.7518 17.9526 117.0467 0.0088 15.7942 0.0039
# 4 -0.0241 -0.0223 0.0088 31.2693 0.0256 10.3893
# 5 1.0896 2.0771 15.7942 0.0256 21.3536 -0.0063
# 6 0.0142 0.0074 0.0039 10.3893 -0.0063 5.9874
#
#
#
# Elastic Compliance Matrix: (Units=1/GPa)
#
#
# Indices 1 2 3 4 5 6 
#
# 1 0.027402 -0.005895 -0.007910 0.000073 0.005025 -0.000173
# 2 -0.005895 0.014951 -0.000430 0.000020 -0.000835 -0.000040
# 3 -0.007910 -0.000430 0.012106 -0.000009 -0.008509 0.000018
# 4 0.000073 0.000020 -0.000009 0.075518 -0.000128 -0.131039
# 5 0.005025 -0.000835 -0.008509 -0.000128 0.052949 0.000273
# 6 -0.000173 -0.000040 0.000018 -0.131039 0.000273 0.394394
#
#
# Mechanical properties :
#
#
# Convention : Reuss Voigt Hill
#
# Bulk Modulus (GPa) = 38.47758 43.48940 40.98349
# Shear Modulus (GPa) = 8.13731 23.05123 15.59427
#
# Velocity S-wave (km/s) = 1.97989 3.33232 2.74083
# Velocity P-wave (km/s) = 4.87465 5.97961 5.45518
#
# Compressibility (1/GPa) = 0.02598916
#
# Stress axis : x y z
#
# Youngs Moduli (GPa) = 36.49377 66.88523 82.60227
#
# Poissons Ratio (x) = 0.39429 0.65336
# Poissons Ratio (y) = 0.21513 0.03553
# Poissons Ratio (z) = 0.28866 0.02877
#
# Static dielectric constant tensor:
#      x y z
#    x 1.761200 0.000000 -0.008200 
#    y 0.000000 1.811090 -0.000040 
#    z -0.008200 -0.000040 1.854470 
# 
# From -- ./inp_files/314527.got.cif
#   From: 2010.05.17/outbox.cif.g08.bks.cpg/sg15_158_cif.got.tgz:314527.got - 2010.06.03 18:47:42.
