data_PCOD9268241
_publ_section_title
;
Structure prediction by ZEFSAII (Michael W. Deem and Ramdas Pophale) SiO2 
 PCOD9268241
Probable space group: C 2/C
;
_chemical_formula_sum "Si O2"
_cell_formula_units_Z 48
_cell_length_a 14.987019
_cell_length_b 28.806923
_cell_length_c 9.930513
_cell_angle_alpha 90.000000
_cell_angle_beta 26.597895
_cell_angle_gamma 90.000000
_cell_volume 1919.536431
_symmetry_space_group_name_H-M "C 2/C"
_symmetry_group_IT_number 15
_symmetry_cell_setting 'monoclinic'
loop_
_space_group_symop_operation_xyz
x,y,z
-x,y,1/2-z
-x,-y,-z
x,-y,1/2+z
1/2+x,1/2+y,z
1/2-x,1/2+y,1/2-z
1/2-x,1/2-y,-z
1/2+x,1/2-y,1/2+z
loop_
_atom_site_type_symbol
_atom_site_label
_atom_site_fract_x
_atom_site_fract_y
_atom_site_fract_z
Si Si1 0.699878 0.958701 0.149880
Si Si2 0.214218 0.436647 0.698488
Si Si3 0.218594 0.294062 0.723856
Si Si4 0.445738 0.144244 0.465357
Si Si5 0.987397 0.944645 0.989180
Si Si6 0.386184 0.690933 0.692977
O O1 0.466928 0.948101 0.452642
O O2 0.735199 0.014187 0.094653
O O3 0.844295 0.934648 0.849853
O O4 0.775695 0.942773 0.196671
O O5 0.418526 0.423564 0.500065
O O6 0.104416 0.398067 0.756884
O O7 0.376375 0.311002 0.619250
O O8 0.316684 0.303861 0.443459
O O9 0.179178 0.239550 0.785536
O O10 0.017333 0.323955 0.991409
O O11 0.500000 0.168657 0.250000
O O12 0.208704 0.148466 0.762843
O O13 0.000000 0.000000 0.000000
#
# Coordination Sequence:
#
# PCOD9268241 Si02
#       6
#     8   8   8   8   8   8
#     4   9  19  35  53  72  97 137 170 206 254 301
#     4  10  20  32  50  73 104 134 169 210 249 300
#     4   9  15  26  43  60  86 128 170 204 243 297
#     4  10  20  29  41  70 101 133 172 210 248 296
#     4   9  18  34  54  74  93 128 170 210 251 301
#     4   9  15  26  43  61  86 128 170 204 244 296
#
# _framework density 25.006039000000001
#
# number of rings (size 3 to 8) (size 9 to 14) (size 15 to 20)
#    0.000    2.667    1.667    0.500    0.000    5.333 
#    0.000   11.667    0.000    0.000    0.000    0.000 
#    0.000    5.333    0.000    0.000    0.000    0.167 
#
# Total GULP energy -133641.490827 kJ/mol
# GULP energy per Si atom -5568.395451 kJ/mol
# Density = 2.494912 g / cm^3
# Si number density = 25.006039 Si / 1000 Ang^3
#
#
#
# Elastic Constant Matrix: (Units=GPa)
#
#
# Indices 1 2 3 4 5 6 
#
# 1 118.2722 37.7038 44.6688 0.0001 -61.8995 0.0000
# 2 37.7038 102.4847 -9.2973 0.0000 -24.4482 0.0000
# 3 44.6688 -9.2973 55.5900 0.0001 -30.6133 0.0000
# 4 0.0001 0.0000 0.0001 3.2425 0.0000 -12.4230
# 5 -61.8995 -24.4482 -30.6133 0.0000 64.5680 0.0001
# 6 0.0000 0.0000 0.0000 -12.4230 0.0001 28.4452
#
#
#
# Elastic Compliance Matrix: (Units=1/GPa)
#
#
# Indices 1 2 3 4 5 6 
#
# 1 0.021130 -0.005642 -0.010750 0.000000 0.013023 0.000000
# 2 -0.005642 0.013612 0.009027 0.000000 0.004025 0.000000
# 3 -0.010750 0.009027 0.032946 0.000001 0.008732 0.000000
# 4 0.000000 0.000000 0.000001 -0.458076 0.000000 -0.200058
# 5 0.013023 0.004025 0.008732 0.000000 0.033637 0.000000
# 6 0.000000 0.000000 0.000000 -0.200058 0.000000 -0.052217
#
#
# Mechanical properties :
#
#
# Convention : Reuss Voigt Hill
#
# Bulk Modulus (GPa) = 18.88328 46.94418 32.91373
# Shear Modulus (GPa) = -13.27722 32.80258 9.76268
#
# Velocity S-wave (km/s) = -2.30676 3.62579 1.97803
# Velocity P-wave (km/s) = 0.68778 6.02846 4.29042
#
# Compressibility (1/GPa) = 0.05295691
#
# Stress axis : x y z
#
# Youngs Moduli (GPa) = 47.32662 73.46226 30.35282
#
# Poissons Ratio (x) = 0.41448 0.32631
# Poissons Ratio (y) = 0.26702 -0.27399
# Poissons Ratio (z) = 0.50878 -0.66314
#
# Static dielectric constant tensor:
#      x y z
#    x 2.045470 0.000000 -0.107010 
#    y 0.000000 2.061580 0.000000 
#    z -0.107010 0.000000 2.186890 
# 
# From -- ./inp_files/101609.got.cif
#   From: 2010.05.17/outbox.cif.g08.bks.cpg/sg15_51_cif.got.tgz:101609.got - 2010.06.03 18:47:42.
