data_PCOD9268870
_publ_section_title
;
Structure prediction by ZEFSAII (Michael W. Deem and Ramdas Pophale) SiO2 
 PCOD9268870
Probable space group: C 2/C
;
_chemical_formula_sum "Si O2"
_cell_formula_units_Z 48
_cell_length_a 20.087364
_cell_length_b 22.863830
_cell_length_c 5.164562
_cell_angle_alpha 90.000000
_cell_angle_beta 117.743939
_cell_angle_gamma 90.000000
_cell_volume 2099.262748
_symmetry_space_group_name_H-M "C 2/C"
_symmetry_group_IT_number 15
_symmetry_cell_setting 'monoclinic'
loop_
_space_group_symop_operation_xyz
x,y,z
-x,y,1/2-z
-x,-y,-z
x,-y,1/2+z
1/2+x,1/2+y,z
1/2-x,1/2+y,1/2-z
1/2-x,1/2-y,-z
1/2+x,1/2-y,1/2+z
loop_
_atom_site_type_symbol
_atom_site_label
_atom_site_fract_x
_atom_site_fract_y
_atom_site_fract_z
Si Si1 0.773089 0.199617 0.841695
Si Si2 0.594332 0.962186 0.131531
Si Si3 0.500000 0.542206 0.750000
Si Si4 0.358826 0.198942 0.298531
Si Si5 0.000000 0.636845 0.750000
Si Si6 0.267229 0.896947 0.933596
Si Si7 0.344552 0.539206 0.596584
O O1 0.696460 0.187945 0.543270
O O2 0.840799 0.232528 0.816857
O O3 0.750000 0.250000 0.000000
O O4 0.793148 0.138112 0.004997
O O5 0.545019 0.907259 0.139390
O O6 0.681088 0.942917 0.324229
O O7 0.581505 0.013824 0.319957
O O8 0.500000 0.500000 0.500000
O O9 0.420746 0.573714 0.653322
O O10 0.444564 0.177757 0.476850
O O11 0.321615 0.154608 0.437312
O O12 0.227925 0.924587 0.614647
O O13 0.344448 0.514249 0.885732
#
# Coordination Sequence:
#
# PCOD9268870 Si02
#       7
#     8   8   4   8   4   8   8
#     4   9  19  39  61  84 109 152 201 267 304 369
#     4  11  24  40  57  93 137 171 211 250 299 378
#     4   8  16  32  50  71 104 145 184 224 278 336
#     4   9  20  39  62  85 116 150 212 251 315 369
#     4  10  22  40  64  93 122 183 202 260 318 378
#     4  10  21  33  60  84 115 160 200 249 308 352
#     4  10  20  33  54  83 115 152 193 236 288 364
#
# _framework density 22.865169999999999
#
# number of rings (size 3 to 8) (size 9 to 14) (size 15 to 20)
#    0.000    2.333    0.000    1.500    7.000    0.000 
#    6.000    0.000   11.000    0.000    0.000    0.000 
#    0.000    0.000    0.000    0.000    0.000    0.000 
#
# Total GULP energy -133781.562004 kJ/mol
# GULP energy per Si atom -5574.231750 kJ/mol
# Density = 2.281313 g / cm^3
# Si number density = 22.865170 Si / 1000 Ang^3
#
#
#
# Elastic Constant Matrix: (Units=GPa)
#
#
# Indices 1 2 3 4 5 6 
#
# 1 56.5819 30.6166 16.6501 0.0000 11.8961 0.0000
# 2 30.6166 64.9164 42.2449 0.0000 8.7989 0.0000
# 3 16.6501 42.2449 93.4423 0.0000 2.1062 0.0000
# 4 0.0000 0.0000 0.0000 22.9105 0.0000 -11.1461
# 5 11.8961 8.7989 2.1062 0.0000 43.0384 0.0000
# 6 0.0000 0.0000 0.0000 -11.1461 0.0000 6.5190
#
#
#
# Elastic Compliance Matrix: (Units=1/GPa)
#
#
# Indices 1 2 3 4 5 6 
#
# 1 0.024628 -0.011644 0.000977 0.000000 -0.004474 0.000000
# 2 -0.011644 0.028036 -0.010555 0.000000 -0.001997 0.000000
# 3 0.000977 -0.010555 0.015274 0.000000 0.001140 0.000000
# 4 0.000000 0.000000 0.000000 0.259539 0.000000 0.443756
# 5 -0.004474 -0.001997 0.001140 0.000000 0.024824 0.000000
# 6 0.000000 0.000000 0.000000 0.443756 0.000000 0.912124
#
#
# Mechanical properties :
#
#
# Convention : Reuss Voigt Hill
#
# Bulk Modulus (GPa) = 39.22756 43.77374 41.50065
# Shear Modulus (GPa) = 3.80122 22.85551 13.32837
#
# Velocity S-wave (km/s) = 1.29076 3.16504 2.41698
# Velocity P-wave (km/s) = 4.40621 5.70460 5.09692
#
# Compressibility (1/GPa) = 0.02549228
#
# Stress axis : x y z
#
# Youngs Moduli (GPa) = 40.60495 35.66893 65.47145
#
# Poissons Ratio (x) = 0.41534 -0.06396
# Poissons Ratio (y) = 0.47282 0.69104
# Poissons Ratio (z) = -0.03967 0.37648
#
# Static dielectric constant tensor:
#      x y z
#    x 2.025330 0.000000 0.008850 
#    y 0.000000 1.876620 0.000000 
#    z 0.008850 0.000000 1.894480 
# 
# From -- ./inp_files/13639.got.cif
#   From: 2010.05.17/outbox.cif.g08.bks.cpg/sg15_7_cif.got.tgz:13639.got - 2010.06.03 18:47:42.
