data_PCOD9268556
_publ_section_title
;
Structure prediction by ZEFSAII (Michael W. Deem and Ramdas Pophale) SiO2 
 PCOD9268556
Probable space group: C 2/C
;
_chemical_formula_sum "Si O2"
_cell_formula_units_Z 48
_cell_length_a 27.811607
_cell_length_b 12.840864
_cell_length_c 23.398151
_cell_angle_alpha 90.000000
_cell_angle_beta 161.423143
_cell_angle_gamma 90.000000
_cell_volume 2662.045968
_symmetry_space_group_name_H-M "C 2/C"
_symmetry_group_IT_number 15
_symmetry_cell_setting 'monoclinic'
loop_
_space_group_symop_operation_xyz
x,y,z
-x,y,1/2-z
-x,-y,-z
x,-y,1/2+z
1/2+x,1/2+y,z
1/2-x,1/2+y,1/2-z
1/2-x,1/2-y,-z
1/2+x,1/2-y,1/2+z
loop_
_atom_site_type_symbol
_atom_site_label
_atom_site_fract_x
_atom_site_fract_y
_atom_site_fract_z
Si Si1 0.319118 0.673768 0.995560
Si Si2 0.869180 0.022164 0.780445
Si Si3 0.167266 0.648423 0.708972
Si Si4 0.786814 0.944682 0.807042
Si Si5 0.665867 0.381382 0.863520
Si Si6 0.861912 0.237750 0.835948
O O1 0.197706 0.648734 0.810143
O O2 0.279304 0.791170 0.970049
O O3 0.301917 0.603065 0.032932
O O4 0.490971 0.659515 0.166899
O O5 0.837366 0.141963 0.764518
O O6 0.803756 0.947084 0.757039
O O7 0.821299 0.978543 0.665131
O O8 0.050356 0.018054 0.987936
O O9 0.163467 0.530614 0.683247
O O10 0.315259 0.694242 0.845073
O O11 0.029558 0.717283 0.531005
O O12 0.743824 0.838142 0.789417
#
# Coordination Sequence:
#
# PCOD9268556 Si02
#       6
#     8   8   8   8   8   8
#     4  10  20  32  55  81 110 142 180 227 271 329
#     4  10  20  36  55  78 113 149 184 227 280 342
#     4  11  20  32  54  82 114 141 182 228 280 334
#     4  10  20  34  52  82 108 148 184 226 285 328
#     4  10  20  36  53  80 109 148 182 221 278 327
#     4  11  21  34  55  82 117 147 179 232 277 340
#
# _framework density 18.031244000000001
#
# number of rings (size 3 to 8) (size 9 to 14) (size 15 to 20)
#    0.000    1.667    3.333    2.500    2.333    0.000 
#    0.000    0.000    0.000    1.000    0.000    0.000 
#    0.000    0.000    0.000    0.667    0.000    0.000 
#
# Total GULP energy -133681.917707 kJ/mol
# GULP energy per Si atom -5570.079904 kJ/mol
# Density = 1.799020 g / cm^3
# Si number density = 18.031244 Si / 1000 Ang^3
#
#
#
# Elastic Constant Matrix: (Units=GPa)
#
#
# Indices 1 2 3 4 5 6 
#
# 1 92.0585 51.8547 27.6020 0.0013 -11.4590 0.0017
# 2 51.8547 104.1445 26.7890 0.0038 7.2087 0.0038
# 3 27.6020 26.7890 32.4328 0.0001 6.0279 0.0001
# 4 0.0013 0.0038 0.0001 19.4613 -0.0005 2.1506
# 5 -11.4590 7.2087 6.0279 -0.0005 24.6075 0.0000
# 6 0.0017 0.0038 0.0001 2.1506 0.0000 29.6843
#
#
#
# Elastic Compliance Matrix: (Units=1/GPa)
#
#
# Indices 1 2 3 4 5 6 
#
# 1 0.022035 -0.008251 -0.014976 0.000001 0.016347 0.000000
# 2 -0.008251 0.015313 -0.004274 -0.000002 -0.007281 -0.000001
# 3 -0.014976 -0.004274 0.050470 0.000001 -0.018085 0.000001
# 4 0.000001 -0.000002 0.000001 0.051799 0.000002 -0.003753
# 5 0.016347 -0.007281 -0.018085 0.000002 0.054813 0.000000
# 6 0.000000 -0.000001 0.000001 -0.003753 0.000000 0.033960
#
#
# Mechanical properties :
#
#
# Convention : Reuss Voigt Hill
#
# Bulk Modulus (GPa) = 30.47187 49.01414 39.74300
# Shear Modulus (GPa) = 16.98769 22.90996 19.94883
#
# Velocity S-wave (km/s) = 3.07274 3.56837 3.32979
# Velocity P-wave (km/s) = 5.43370 6.64978 6.07226
#
# Compressibility (1/GPa) = 0.03281715
#
# Stress axis : x y z
#
# Youngs Moduli (GPa) = 45.38184 65.30191 19.81385
#
# Poissons Ratio (x) = 0.53879 0.29674
# Poissons Ratio (y) = 0.37443 0.08468
# Poissons Ratio (z) = 0.67965 0.27908
#
# Static dielectric constant tensor:
#      x y z
#    x 1.651700 0.000000 0.017150 
#    y 0.000000 1.673870 0.000000 
#    z 0.017150 0.000000 1.634900 
# 
# From -- ./inp_files/60688.got.cif
#   From: 2010.05.17/outbox.cif.g08.bks.cpg/sg15_31_cif.got.tgz:60688.got - 2010.06.03 18:47:42.
