data_PCOD9268533
_publ_section_title
;
Structure prediction by ZEFSAII (Michael W. Deem and Ramdas Pophale) SiO2 
 PCOD9268533
Probable space group: C 2/C
;
_chemical_formula_sum "Si O2"
_cell_formula_units_Z 56
_cell_length_a 14.054387
_cell_length_b 23.864062
_cell_length_c 26.423983
_cell_angle_alpha 90.000000
_cell_angle_beta 21.071935
_cell_angle_gamma 90.000000
_cell_volume 3186.408894
_symmetry_space_group_name_H-M "C 2/C"
_symmetry_group_IT_number 15
_symmetry_cell_setting 'monoclinic'
loop_
_space_group_symop_operation_xyz
x,y,z
-x,y,1/2-z
-x,-y,-z
x,-y,1/2+z
1/2+x,1/2+y,z
1/2-x,1/2+y,1/2-z
1/2-x,1/2-y,-z
1/2+x,1/2-y,1/2+z
loop_
_atom_site_type_symbol
_atom_site_label
_atom_site_fract_x
_atom_site_fract_y
_atom_site_fract_z
Si Si1 0.207910 0.746995 0.878056
Si Si2 0.042336 0.549869 0.539453
Si Si3 0.646018 0.360961 0.265370
Si Si4 0.959648 0.877975 0.716021
Si Si5 0.494739 0.266012 0.093433
Si Si6 0.117364 0.573601 0.993662
Si Si7 0.511513 0.707839 0.109673
O O1 0.500000 0.765136 0.750000
O O2 0.252417 0.687618 0.825391
O O3 0.067851 0.789734 0.909287
O O4 0.048770 0.748861 0.009123
O O5 0.875689 0.592801 0.656454
O O6 0.881335 0.556297 0.566296
O O7 0.340109 0.569776 0.379085
O O8 0.070658 0.486318 0.543758
O O9 0.577975 0.328664 0.351379
O O10 0.376946 0.391232 0.379529
O O11 0.065322 0.848088 0.613423
O O12 0.000000 0.846486 0.750000
O O13 0.651611 0.891839 0.864100
O O14 0.247156 0.230585 0.234164
O O15 0.750000 0.250000 0.000000
O O16 0.750000 0.750000 0.000000
#
# Coordination Sequence:
#
# PCOD9268533 Si02
#       7
#     8   8   8   8   8   8   8
#     4  11  22  37  56  81 115 152 192 235 271 341
#     4  10  20  34  50  80 112 145 183 224 287 345
#     4  11  21  34  58  79 113 150 186 231 286 324
#     4  10  21  33  52  76 113 145 176 221 283 330
#     4  11  22  36  56  82 108 151 203 227 277 342
#     4  10  20  32  54  79 108 147 186 227 277 347
#     4  11  24  35  53  83 113 149 190 229 287 342
#
# _framework density 17.574642999999998
#
# number of rings (size 3 to 8) (size 9 to 14) (size 15 to 20)
#    0.000    1.429    2.857    4.714    6.000    2.286 
#    0.000    0.000    0.000    0.000    0.000    6.000 
#    0.000    0.000    0.000    0.000    0.000    0.000 
#
# Total GULP energy -156050.162951 kJ/mol
# GULP energy per Si atom -5573.220105 kJ/mol
# Density = 1.753464 g / cm^3
# Si number density = 17.574643 Si / 1000 Ang^3
#
#
#
# Elastic Constant Matrix: (Units=GPa)
#
#
# Indices 1 2 3 4 5 6 
#
# 1 77.2257 26.0198 27.7116 -0.0008 8.8714 0.0339
# 2 26.0198 80.1549 22.4331 0.0504 3.0537 -0.0428
# 3 27.7116 22.4331 102.4416 -0.0678 -0.3988 0.0902
# 4 -0.0008 0.0504 -0.0678 22.1267 0.0329 1.0319
# 5 8.8714 3.0537 -0.3988 0.0329 29.2330 0.0046
# 6 0.0339 -0.0428 0.0902 1.0319 0.0046 16.7893
#
#
#
# Elastic Compliance Matrix: (Units=1/GPa)
#
#
# Indices 1 2 3 4 5 6 
#
# 1 0.016088 -0.004078 -0.003476 0.000007 -0.004504 -0.000023
# 2 -0.004078 0.014384 -0.002048 -0.000041 -0.000293 0.000059
# 3 -0.003476 -0.002048 0.011156 0.000039 0.001421 -0.000061
# 4 0.000007 -0.000041 0.000039 0.045325 -0.000048 -0.002786
# 5 -0.004504 -0.000293 0.001421 -0.000048 0.035625 -0.000006
# 6 -0.000023 0.000059 -0.000061 -0.002786 -0.000006 0.059734
#
#
# Mechanical properties :
#
#
# Convention : Reuss Voigt Hill
#
# Bulk Modulus (GPa) = 44.59630 45.79457 45.19543
# Shear Modulus (GPa) = 23.92457 25.87363 24.89910
#
# Velocity S-wave (km/s) = 3.69360 3.84111 3.76807
# Velocity P-wave (km/s) = 6.60460 6.76653 6.68605
#
# Compressibility (1/GPa) = 0.02242338
#
# Stress axis : x y z
#
# Youngs Moduli (GPa) = 62.15846 69.52167 89.63653
#
# Poissons Ratio (x) = 0.28350 0.31162
# Poissons Ratio (y) = 0.25348 0.18357
# Poissons Ratio (z) = 0.21609 0.14238
#
# Static dielectric constant tensor:
#      x y z
#    x 1.631380 -0.000040 0.015060 
#    y -0.000040 1.687920 0.000130 
#    z 0.015060 0.000130 1.606830 
# 
# From -- ./inp_files/156242.got.cif
#   From: 2010.05.17/outbox.cif.g08.bks.cpg/sg15_79_cif.got.tgz:156242.got - 2010.06.03 18:47:42.
