data_PCOD9268157
_publ_section_title
;
Structure prediction by ZEFSAII (Michael W. Deem and Ramdas Pophale) SiO2 
 PCOD9268157
Probable space group: C 2/C
;
_chemical_formula_sum "Si O2"
_cell_formula_units_Z 44
_cell_length_a 16.510013
_cell_length_b 12.954058
_cell_length_c 14.249922
_cell_angle_alpha 90.000000
_cell_angle_beta 38.140976
_cell_angle_gamma 90.000000
_cell_volume 1882.226904
_symmetry_space_group_name_H-M "C 2/C"
_symmetry_group_IT_number 15
_symmetry_cell_setting 'monoclinic'
loop_
_space_group_symop_operation_xyz
x,y,z
-x,y,1/2-z
-x,-y,-z
x,-y,1/2+z
1/2+x,1/2+y,z
1/2-x,1/2+y,1/2-z
1/2-x,1/2-y,-z
1/2+x,1/2-y,1/2+z
loop_
_atom_site_type_symbol
_atom_site_label
_atom_site_fract_x
_atom_site_fract_y
_atom_site_fract_z
Si Si1 0.436520 0.417134 0.219435
Si Si2 0.714762 0.061217 0.686050
Si Si3 0.000000 0.530888 0.250000
Si Si4 0.632216 0.347504 0.905029
Si Si5 0.845905 0.370895 0.054914
Si Si6 0.025776 0.151467 0.124276
O O1 0.500000 0.361259 0.250000
O O2 0.283548 0.426260 0.364933
O O3 0.498063 0.529478 0.158823
O O4 0.486686 0.363870 0.080560
O O5 0.638108 0.093689 0.851374
O O6 0.825635 0.144988 0.552000
O O7 0.617476 0.036547 0.688504
O O8 0.786896 0.952279 0.651341
O O9 0.955127 0.599945 0.380093
O O10 0.689110 0.250142 0.907683
O O11 0.592638 0.316414 0.836387
O O12 0.000000 0.199146 0.250000
#
# Coordination Sequence:
#
# PCOD9268157 Si02
#       6
#     8   8   4   8   8   8
#     4  10  20  39  67  94 127 171 221 270 323 383
#     4  11  24  46  67  96 138 178 216 273 330 394
#     4  12  28  42  64 100 140 178 212 266 342 398
#     4  11  23  40  71  98 128 174 221 279 323 383
#     4  12  25  44  67  99 140 172 219 271 333 394
#     4  10  19  42  72  94 122 174 233 273 316 388
#
# _framework density 23.376563999999998
#
# number of rings (size 3 to 8) (size 9 to 14) (size 15 to 20)
#    0.000    1.091    3.636    4.909    3.818    1.455 
#    1.636    0.909    0.000    0.000    0.000    0.000 
#    0.000    0.000    0.000    0.000    0.000    0.000 
#
# Total GULP energy -122680.216581 kJ/mol
# GULP energy per Si atom -5576.373481 kJ/mol
# Density = 2.332336 g / cm^3
# Si number density = 23.376564 Si / 1000 Ang^3
#
#
#
# Elastic Constant Matrix: (Units=GPa)
#
#
# Indices 1 2 3 4 5 6 
#
# 1 132.0378 -4.2825 22.6967 0.0000 16.6314 0.0000
# 2 -4.2825 41.5816 24.5142 0.0000 14.1236 0.0000
# 3 22.6967 24.5142 104.1201 0.0000 19.6144 0.0000
# 4 0.0000 0.0000 0.0000 4.9143 0.0000 -32.4174
# 5 16.6314 14.1236 19.6144 0.0000 24.5417 0.0000
# 6 0.0000 0.0000 0.0000 -32.4174 0.0000 -204.1888
#
#
#
# Elastic Compliance Matrix: (Units=1/GPa)
#
#
# Indices 1 2 3 4 5 6 
#
# 1 0.008899 0.004315 -0.001592 0.000000 -0.007242 0.000000
# 2 0.004315 0.033862 -0.005523 0.000000 -0.017998 0.000000
# 3 -0.001592 -0.005523 0.012302 0.000000 -0.005575 0.000000
# 4 0.000000 0.000000 0.000000 0.099394 0.000000 -0.015780
# 5 -0.007242 -0.017998 -0.005575 0.000000 0.060468 0.000000
# 6 0.000000 0.000000 0.000000 -0.015780 0.000000 -0.002392
#
#
# Mechanical properties :
#
#
# Convention : Reuss Voigt Hill
#
# Bulk Modulus (GPa) = 20.21660 40.39958 30.30809
# Shear Modulus (GPa) = 21.31102 -19.29248 1.00927
#
# Velocity S-wave (km/s) = 3.02261 -2.87591 0.65779
# Velocity P-wave (km/s) = 4.56603 2.50835 3.68378
#
# Compressibility (1/GPa) = 0.04946429
#
# Stress axis : x y z
#
# Youngs Moduli (GPa) = 112.36862 29.53122 81.28939
#
# Poissons Ratio (x) = -0.12742 0.12937
# Poissons Ratio (y) = -0.48482 0.44894
# Poissons Ratio (z) = 0.17883 0.16309
#
# Static dielectric constant tensor:
#      x y z
#    x 2.070890 0.000000 0.071260 
#    y 0.000000 1.929870 0.000000 
#    z 0.071260 0.000000 1.954090 
# 
# From -- ./inp_files/161811.got.cif
#   From: 2010.05.17/outbox.cif.g08.bks.cpg/sg15_81_cif.got.tgz:161811.got - 2010.06.03 18:47:42.
