data_PCOD9268732
_publ_section_title
;
Structure prediction by ZEFSAII (Michael W. Deem and Ramdas Pophale) SiO2 
 PCOD9268732
Probable space group: C 2/C
;
_chemical_formula_sum "Si O2"
_cell_formula_units_Z 64
_cell_length_a 19.177651
_cell_length_b 17.727388
_cell_length_c 16.873298
_cell_angle_alpha 90.000000
_cell_angle_beta 27.257297
_cell_angle_gamma 90.000000
_cell_volume 2627.201693
_symmetry_space_group_name_H-M "C 2/C"
_symmetry_group_IT_number 15
_symmetry_cell_setting 'monoclinic'
loop_
_space_group_symop_operation_xyz
x,y,z
-x,y,1/2-z
-x,-y,-z
x,-y,1/2+z
1/2+x,1/2+y,z
1/2-x,1/2+y,1/2-z
1/2-x,1/2-y,-z
1/2+x,1/2-y,1/2+z
loop_
_atom_site_type_symbol
_atom_site_label
_atom_site_fract_x
_atom_site_fract_y
_atom_site_fract_z
Si Si1 0.033543 0.899108 0.011900
Si Si2 0.766868 0.277569 0.625795
Si Si3 0.268887 0.477561 0.117594
Si Si4 0.517453 0.901294 0.841660
Si Si5 0.523998 0.356574 0.612533
Si Si6 0.560277 0.149727 0.904674
Si Si7 0.712345 0.630766 0.607126
Si Si8 0.776931 0.199018 0.066528
O O1 0.979755 0.873354 0.979672
O O2 0.899794 0.901336 0.212953
O O3 0.145619 0.836389 0.935595
O O4 0.134616 0.975168 0.914208
O O5 0.867635 0.214649 0.478788
O O6 0.661748 0.225285 0.789691
O O7 0.893342 0.329060 0.540410
O O8 0.648079 0.329763 0.697768
O O9 0.396282 0.433131 0.937276
O O10 0.152375 0.538300 0.200660
O O11 0.156181 0.412808 0.261303
O O12 0.600238 0.823196 0.736272
O O13 0.464824 0.887211 0.984774
O O14 0.364566 0.919400 0.949148
O O15 0.776476 0.711901 0.571041
O O16 0.654060 0.655730 0.579490
#
# Coordination Sequence:
#
# PCOD9268732 Si02
#       8
#     8   8   8   8   8   8   8   8
#     4  11  22  32  55  71 101 145 181 223 280 328
#     4   9  19  30  50  75  93 142 166 231 256 309
#     4  10  22  37  45  75 105 141 179 231 267 334
#     4  11  22  32  55  71 101 145 181 223 280 328
#     4  10  20  33  51  74 107 132 188 222 271 325
#     4  10  20  33  51  74 107 132 188 222 271 325
#     4  11  22  36  52  76 104 142 188 246 279 296
#     4  10  23  37  51  75 107 138 189 246 277 303
#
# _framework density 24.360520999999999
#
# number of rings (size 3 to 8) (size 9 to 14) (size 15 to 20)
#    0.000    1.750    0.000    5.250   10.500    3.000 
#    0.000    0.000    0.000    0.000    0.000    0.000 
#    0.000    0.000    0.000  864.000    0.000    6.000 
#
# Total GULP energy -178622.573078 kJ/mol
# GULP energy per Si atom -5581.955409 kJ/mol
# Density = 2.430508 g / cm^3
# Si number density = 24.360521 Si / 1000 Ang^3
#
#
#
# Elastic Constant Matrix: (Units=GPa)
#
#
# Indices 1 2 3 4 5 6 
#
# 1 53.1270 27.5193 41.5721 -0.0023 -3.8616 0.0009
# 2 27.5193 102.4286 39.1769 -0.0019 -15.8368 0.0009
# 3 41.5721 39.1769 135.9601 -0.0022 -36.3519 0.0014
# 4 -0.0023 -0.0019 -0.0022 41.5241 0.0021 -14.2762
# 5 -3.8616 -15.8368 -36.3519 0.0021 32.9307 -0.0013
# 6 0.0009 0.0009 0.0014 -14.2762 -0.0013 14.8229
#
#
#
# Elastic Compliance Matrix: (Units=1/GPa)
#
#
# Indices 1 2 3 4 5 6 
#
# 1 0.028693 -0.005495 -0.009927 0.000001 -0.010236 0.000000
# 2 -0.005495 0.012176 -0.000617 0.000000 0.004530 0.000000
# 3 -0.009927 -0.000617 0.014439 -0.000001 0.014479 0.000000
# 4 0.000001 0.000000 -0.000001 0.036004 -0.000001 0.034677
# 5 -0.010236 0.004530 0.014479 -0.000001 0.047328 0.000002
# 6 0.000000 0.000000 0.000000 0.034677 0.000002 0.100861
#
#
# Mechanical properties :
#
#
# Convention : Reuss Voigt Hill
#
# Bulk Modulus (GPa) = 43.04691 56.45027 49.74859
# Shear Modulus (GPa) = 17.90049 30.07200 23.98624
#
# Velocity S-wave (km/s) = 2.71369 3.51729 3.14129
# Velocity P-wave (km/s) = 5.24671 6.30225 5.79854
#
# Compressibility (1/GPa) = 0.02323047
#
# Stress axis : x y z
#
# Youngs Moduli (GPa) = 34.85195 82.13177 69.25471
#
# Poissons Ratio (x) = 0.45128 0.68748
# Poissons Ratio (y) = 0.19150 0.04274
# Poissons Ratio (z) = 0.34597 0.05069
#
# Static dielectric constant tensor:
#      x y z
#    x 1.977430 0.000000 0.006340 
#    y 0.000000 1.993490 0.000000 
#    z 0.006340 0.000000 2.008410 
# 
# From -- ./inp_files/255968.got.cif
#   From: 2010.05.17/outbox.cif.g08.bks.cpg/sg15_128_cif.got.tgz:255968.got - 2010.06.03 18:47:42.
