data_PCOD9268445
_publ_section_title
;
Structure prediction by ZEFSAII (Michael W. Deem and Ramdas Pophale) SiO2 
 PCOD9268445
Probable space group: C 2/C
;
_chemical_formula_sum "Si O2"
_cell_formula_units_Z 48
_cell_length_a 24.682012
_cell_length_b 25.719762
_cell_length_c 8.702864
_cell_angle_alpha 90.000000
_cell_angle_beta 28.649915
_cell_angle_gamma 90.000000
_cell_volume 2648.859755
_symmetry_space_group_name_H-M "C 2/C"
_symmetry_group_IT_number 15
_symmetry_cell_setting 'monoclinic'
loop_
_space_group_symop_operation_xyz
x,y,z
-x,y,1/2-z
-x,-y,-z
x,-y,1/2+z
1/2+x,1/2+y,z
1/2-x,1/2+y,1/2-z
1/2-x,1/2-y,-z
1/2+x,1/2-y,1/2+z
loop_
_atom_site_type_symbol
_atom_site_label
_atom_site_fract_x
_atom_site_fract_y
_atom_site_fract_z
Si Si1 0.910548 0.752117 0.731278
Si Si2 0.866448 0.526109 0.124550
Si Si3 0.595757 0.883754 0.744662
Si Si4 0.663525 0.924115 0.120172
Si Si5 0.216985 0.331623 0.151561
Si Si6 0.372459 0.774445 0.678757
O O1 0.866802 0.711738 0.712249
O O2 0.045738 0.756945 0.405435
O O3 0.831147 0.802337 0.915610
O O4 0.893728 0.729902 0.944432
O O5 0.852023 0.565958 0.301953
O O6 0.827575 0.469810 0.276676
O O7 0.815557 0.550526 0.097396
O O8 0.000000 0.521729 0.750000
O O9 0.655267 0.862843 0.442465
O O10 0.610268 0.834387 0.819746
O O11 0.464591 0.900444 0.052805
O O12 0.740992 0.875148 0.964352
O O13 0.250000 0.750000 0.000000
#
# Coordination Sequence:
#
# PCOD9268445 Si02
#       6
#     8   8   8   8   8   8
#     4  10  23  35  53  79 111 147 199 229 274 338
#     4  10  20  32  49  82 112 152 186 231 285 357
#     4  11  20  31  52  77 110 153 184 225 291 334
#     4  11  20  33  53  78 118 147 189 233 292 349
#     4  11  20  35  51  78 112 149 186 231 277 336
#     4  11  21  38  54  78 111 152 192 235 280 331
#
# _framework density 18.121005
#
# number of rings (size 3 to 8) (size 9 to 14) (size 15 to 20)
#    0.000    1.333    3.333    5.500    4.667    0.000 
#    0.000    0.000    0.000    0.000    0.000    1.167 
#    0.000    0.000    0.000    0.333    0.000    0.000 
#
# Total GULP energy -133843.377702 kJ/mol
# GULP energy per Si atom -5576.807404 kJ/mol
# Density = 1.807976 g / cm^3
# Si number density = 18.121005 Si / 1000 Ang^3
#
#
#
# Elastic Constant Matrix: (Units=GPa)
#
#
# Indices 1 2 3 4 5 6 
#
# 1 89.9455 51.7274 26.7199 0.0000 -9.4083 0.0000
# 2 51.7274 121.7941 27.3118 0.0000 -8.2026 0.0000
# 3 26.7199 27.3118 39.3479 0.0000 -15.0107 0.0000
# 4 0.0000 0.0000 0.0000 24.3788 0.0000 5.7073
# 5 -9.4083 -8.2026 -15.0107 0.0000 28.0481 0.0000
# 6 0.0000 0.0000 0.0000 5.7073 0.0000 45.5804
#
#
#
# Elastic Compliance Matrix: (Units=1/GPa)
#
#
# Indices 1 2 3 4 5 6 
#
# 1 0.016368 -0.005280 -0.007470 0.000000 -0.000051 0.000000
# 2 -0.005280 0.011448 -0.004724 0.000000 -0.000951 0.000000
# 3 -0.007470 -0.004724 0.040564 0.000000 0.017822 0.000000
# 4 0.000000 0.000000 0.000000 0.042258 0.000000 -0.005291
# 5 -0.000051 -0.000951 0.017822 0.000000 0.044896 0.000000
# 6 0.000000 0.000000 0.000000 -0.005291 0.000000 0.022602
#
#
# Mechanical properties :
#
#
# Convention : Reuss Voigt Hill
#
# Bulk Modulus (GPa) = 29.90979 51.40065 40.65522
# Shear Modulus (GPa) = 22.29878 29.29002 25.79440
#
# Velocity S-wave (km/s) = 3.51172 4.02476 3.77696
# Velocity P-wave (km/s) = 5.74320 7.07284 6.44241
#
# Compressibility (1/GPa) = 0.03343387
#
# Stress axis : x y z
#
# Youngs Moduli (GPa) = 61.09461 87.34899 24.65218
#
# Poissons Ratio (x) = 0.46121 0.18414
# Poissons Ratio (y) = 0.32259 0.11645
# Poissons Ratio (z) = 0.45635 0.41261
#
# Static dielectric constant tensor:
#      x y z
#    x 1.687670 0.000000 0.028720 
#    y 0.000000 1.628330 0.000000 
#    z 0.028720 0.000000 1.715530 
# 
# From -- ./inp_files/58397.got.cif
#   From: 2010.05.17/outbox.cif.g08.bks.cpg/sg15_30_cif.got.tgz:58397.got - 2010.06.03 18:47:42.
