data_PCOD9268927
_publ_section_title
;
Structure prediction by ZEFSAII (Michael W. Deem and Ramdas Pophale) SiO2 
 PCOD9268927
Probable space group: C 2/C
;
_chemical_formula_sum "Si O2"
_cell_formula_units_Z 40
_cell_length_a 29.149567
_cell_length_b 5.901664
_cell_length_c 17.276979
_cell_angle_alpha 90.000000
_cell_angle_beta 145.264427
_cell_angle_gamma 90.000000
_cell_volume 1693.515227
_symmetry_space_group_name_H-M "C 2/C"
_symmetry_group_IT_number 15
_symmetry_cell_setting 'monoclinic'
loop_
_space_group_symop_operation_xyz
x,y,z
-x,y,1/2-z
-x,-y,-z
x,-y,1/2+z
1/2+x,1/2+y,z
1/2-x,1/2+y,1/2-z
1/2-x,1/2-y,-z
1/2+x,1/2-y,1/2+z
loop_
_atom_site_type_symbol
_atom_site_label
_atom_site_fract_x
_atom_site_fract_y
_atom_site_fract_z
Si Si1 0.874795 0.338466 0.169113
Si Si2 0.042050 0.167305 0.892460
Si Si3 0.231750 0.944461 0.412893
Si Si4 0.409960 0.778319 0.838727
Si Si5 0.942436 0.675957 0.559995
O O1 0.879418 0.499746 0.250821
O O2 0.967484 0.310582 0.279227
O O3 0.827349 0.116705 0.125849
O O4 0.818654 0.442967 0.024307
O O5 0.083926 0.413462 0.962322
O O6 0.000000 0.177492 0.750000
O O7 0.974156 0.167284 0.867484
O O8 0.090943 0.928728 0.964523
O O9 0.250000 0.750000 0.500000
O O10 0.173829 0.858585 0.265219
O O11 0.448297 0.816304 0.974633
#
# Coordination Sequence:
#
# PCOD9268927 Si02
#       5
#     8   8   8   8   8
#     4   9  17  30  49  80 114 141 178 231 282 330
#     4  11  22  36  53  82 118 148 179 220 284 340
#     4   9  17  29  48  80 113 141 180 229 284 328
#     4  10  20  33  56  84 114 141 183 240 282 325
#     4  11  22  36  59  84 116 140 187 239 281 325
#
# _framework density 23.619509999999998
#
# number of rings (size 3 to 8) (size 9 to 14) (size 15 to 20)
#    0.000    2.000    2.000    3.600    2.800    0.000 
#    0.000    0.000    0.000    0.000    0.000   67.200 
#    0.000    0.000    0.000    0.000    0.000    0.000 
#
# Total GULP energy -111367.757299 kJ/mol
# GULP energy per Si atom -5568.387865 kJ/mol
# Density = 2.356575 g / cm^3
# Si number density = 23.619510 Si / 1000 Ang^3
#
#
#
# Elastic Constant Matrix: (Units=GPa)
#
#
# Indices 1 2 3 4 5 6 
#
# 1 64.0340 23.4037 43.0704 0.0000 -29.8925 0.0000
# 2 23.4037 183.9257 27.2438 -0.0001 -9.0497 -0.0001
# 3 43.0704 27.2438 103.9359 0.0000 2.7989 0.0000
# 4 0.0000 -0.0001 0.0000 32.4292 0.0000 0.1271
# 5 -29.8925 -9.0497 2.7989 0.0000 33.9219 0.0000
# 6 0.0000 -0.0001 0.0000 0.1271 0.0000 17.8936
#
#
#
# Elastic Compliance Matrix: (Units=1/GPa)
#
#
# Indices 1 2 3 4 5 6 
#
# 1 0.056688 -0.001023 -0.024616 0.000000 0.051712 0.000000
# 2 -0.001023 0.005767 -0.001107 0.000000 0.000729 0.000000
# 3 -0.024616 -0.001107 0.020750 0.000000 -0.023699 0.000000
# 4 0.000000 0.000000 0.000000 0.030837 0.000000 -0.000219
# 5 0.051712 0.000729 -0.023699 0.000000 0.077199 0.000000
# 6 0.000000 0.000000 0.000000 -0.000219 0.000000 0.055888
#
#
# Mechanical properties :
#
#
# Convention : Reuss Voigt Hill
#
# Bulk Modulus (GPa) = 33.65457 59.92570 46.79014
# Shear Modulus (GPa) = 16.10175 34.06077 25.08126
#
# Velocity S-wave (km/s) = 2.61380 3.80157 3.26220
# Velocity P-wave (km/s) = 4.83620 6.68547 5.83457
#
# Compressibility (1/GPa) = 0.02971364
#
# Stress axis : x y z
#
# Youngs Moduli (GPa) = 17.64047 173.40006 48.19190
#
# Poissons Ratio (x) = 0.17734 1.18627
# Poissons Ratio (y) = 0.01804 0.05337
# Poissons Ratio (z) = 0.43423 0.19204
#
# Static dielectric constant tensor:
#      x y z
#    x 1.890180 0.000000 0.054930 
#    y 0.000000 2.089950 0.000000 
#    z 0.054930 0.000000 1.874600 
# 
# From -- ./inp_files/212706.got.cif
#   From: 2010.05.17/outbox.cif.g08.bks.cpg/sg15_107_cif.got.tgz:212706.got - 2010.06.03 18:47:42.
