data_PCOD9268247
_publ_section_title
;
Structure prediction by ZEFSAII (Michael W. Deem and Ramdas Pophale) SiO2 
 PCOD9268247
Probable space group: C 2/C
;
_chemical_formula_sum "Si O2"
_cell_formula_units_Z 44
_cell_length_a 21.654985
_cell_length_b 26.027843
_cell_length_c 22.064238
_cell_angle_alpha 90.000000
_cell_angle_beta 13.396686
_cell_angle_gamma 90.000000
_cell_volume 2881.345638
_symmetry_space_group_name_H-M "C 2/C"
_symmetry_group_IT_number 15
_symmetry_cell_setting 'monoclinic'
loop_
_space_group_symop_operation_xyz
x,y,z
-x,y,1/2-z
-x,-y,-z
x,-y,1/2+z
1/2+x,1/2+y,z
1/2-x,1/2+y,1/2-z
1/2-x,1/2-y,-z
1/2+x,1/2-y,1/2+z
loop_
_atom_site_type_symbol
_atom_site_label
_atom_site_fract_x
_atom_site_fract_y
_atom_site_fract_z
Si Si1 0.960950 0.448712 0.077557
Si Si2 0.000000 0.713729 0.250000
Si Si3 0.507310 0.467787 0.606476
Si Si4 0.000000 0.977864 0.750000
Si Si5 0.500000 0.955322 0.750000
Si Si6 0.875426 0.088898 0.707698
Si Si7 0.588876 0.126603 0.263600
O O1 0.776851 0.459722 0.311390
O O2 0.792518 0.412024 0.194218
O O3 0.000000 0.500000 0.000000
O O4 0.260206 0.436797 0.813068
O O5 0.750000 0.750000 0.500000
O O6 0.942081 0.677512 0.247076
O O7 0.534845 0.452733 0.650666
O O8 0.438061 0.528936 0.664769
O O9 0.268093 0.011280 0.500539
O O10 0.370229 0.918752 0.824268
O O11 0.151573 0.120469 0.442126
O O12 0.681309 0.113651 0.942988
#
# Coordination Sequence:
#
# PCOD9268247 Si02
#       7
#     8   4   8   4   4   8   8
#     4  10  20  30  42  59  88 115 139 181 243 274
#     4  11  24  39  50  68  96 118 140 192 254 296
#     4  11  19  30  41  62  87 117 143 187 237 265
#     4  12  20  27  44  55  88 108 152 184 222 263
#     4  11  18  30  38  63  80 104 138 202 214 255
#     4  11  18  31  45  66  81 108 148 193 222 277
#     4  11  20  31  51  64  81 110 151 184 235 274
#
# _framework density 15.270642
#
# number of rings (size 3 to 8) (size 9 to 14) (size 15 to 20)
#    0.000    1.091    3.636    7.636    0.000    2.909 
#    0.000    0.000    0.000    0.000    0.000    0.000 
#    0.000    0.000    0.000    0.000    0.000    0.000 
#
# Total GULP energy -122628.577449 kJ/mol
# GULP energy per Si atom -5574.026248 kJ/mol
# Density = 1.523589 g / cm^3
# Si number density = 15.270642 Si / 1000 Ang^3
#
#
#
# Elastic Constant Matrix: (Units=GPa)
#
#
# Indices 1 2 3 4 5 6 
#
# 1 64.5621 6.2487 -3.0787 0.3399 -2.9122 -0.8350
# 2 6.2487 30.5409 12.3705 0.0297 -7.2116 -0.2734
# 3 -3.0787 12.3705 84.0531 0.2968 0.4028 -1.6864
# 4 0.3399 0.0297 0.2968 10.6061 -0.0592 5.1665
# 5 -2.9122 -7.2116 0.4028 -0.0592 37.6857 0.3450
# 6 -0.8350 -0.2734 -1.6864 5.1665 0.3450 5.9482
#
#
#
# Elastic Compliance Matrix: (Units=1/GPa)
#
#
# Indices 1 2 3 4 5 6 
#
# 1 0.015998 -0.003608 0.001225 -0.002952 0.000483 0.004963
# 2 -0.003608 0.037422 -0.005711 0.001046 0.006961 -0.001718
# 3 0.001225 -0.005711 0.012940 -0.003760 -0.001206 0.006914
# 4 -0.002952 0.001046 -0.003760 0.165080 0.001598 -0.144911
# 5 0.000483 0.006961 -0.001206 0.001598 0.027947 -0.002964
# 6 0.004963 -0.001718 0.006914 -0.144911 -0.002964 0.296736
#
#
# Mechanical properties :
#
#
# Convention : Reuss Voigt Hill
#
# Bulk Modulus (GPa) = 19.93181 23.35969 21.64575
# Shear Modulus (GPa) = 8.48845 21.75571 15.12208
#
# Velocity S-wave (km/s) = 2.36024 3.77858 3.15027
# Velocity P-wave (km/s) = 4.52862 5.86236 5.23811
#
# Compressibility (1/GPa) = 0.05017105
#
# Stress axis : x y z
#
# Youngs Moduli (GPa) = 62.50755 26.72246 77.27717
#
# Poissons Ratio (x) = 0.09642 -0.09464
# Poissons Ratio (y) = 0.22553 0.44135
# Poissons Ratio (z) = -0.07655 0.15262
#
# Static dielectric constant tensor:
#      x y z
#    x 1.568110 -0.000890 -0.023120 
#    y -0.000890 1.476330 0.000470 
#    z -0.023120 0.000470 1.532370 
# 
# From -- ./inp_files/15518.got.cif
#   From: 2010.05.17/outbox.cif.g08.bks.cpg/sg15_8_cif.got.tgz:15518.got - 2010.06.03 18:47:42.
