data_PCOD9268649
_publ_section_title
;
Structure prediction by ZEFSAII (Michael W. Deem and Ramdas Pophale) SiO2 
 PCOD9268649
Probable space group: C 2/C
;
_chemical_formula_sum "Si O2"
_cell_formula_units_Z 56
_cell_length_a 14.496302
_cell_length_b 24.760233
_cell_length_c 11.649276
_cell_angle_alpha 90.000000
_cell_angle_beta 140.008747
_cell_angle_gamma 90.000000
_cell_volume 2687.196097
_symmetry_space_group_name_H-M "C 2/C"
_symmetry_group_IT_number 15
_symmetry_cell_setting 'monoclinic'
loop_
_space_group_symop_operation_xyz
x,y,z
-x,y,1/2-z
-x,-y,-z
x,-y,1/2+z
1/2+x,1/2+y,z
1/2-x,1/2+y,1/2-z
1/2-x,1/2-y,-z
1/2+x,1/2-y,1/2+z
loop_
_atom_site_type_symbol
_atom_site_label
_atom_site_fract_x
_atom_site_fract_y
_atom_site_fract_z
Si Si1 0.610888 0.727519 0.113370
Si Si2 0.500000 0.145812 0.750000
Si Si3 0.711714 0.599383 0.479187
Si Si4 0.353577 0.532831 0.877739
Si Si5 0.271161 0.074136 0.271373
Si Si6 0.500808 0.623091 0.887191
Si Si7 0.077427 0.321189 0.568668
Si Si8 0.500000 0.306491 0.750000
O O1 0.776881 0.710649 0.258386
O O2 0.572782 0.723316 0.212663
O O3 0.515754 0.682016 0.958832
O O4 0.559626 0.786492 0.023751
O O5 0.372234 0.109374 0.675971
O O6 0.430380 0.177093 0.577918
O O7 0.648033 0.551691 0.492585
O O8 0.716693 0.587734 0.348659
O O9 0.620671 0.653089 0.413885
O O10 0.224601 0.490632 0.731995
O O11 0.372591 0.586187 0.817194
O O12 0.500000 0.500000 0.000000
O O13 0.402133 0.116012 0.377094
O O14 0.147748 0.093687 0.067178
O O15 0.500000 0.626467 0.750000
#
# Coordination Sequence:
#
# PCOD9268649 Si02
#       8
#     8   4   8   8   8   8   8   4
#     4  11  22  36  57  86 122 163 197 259 309 370
#     4  10  21  38  58  92 126 160 190 261 320 382
#     4  11  20  37  60  90 129 153 202 255 320 374
#     4  10  20  32  61  89 120 163 199 260 312 359
#     4   9  20  38  52  87 122 157 194 258 306 362
#     4  10  20  34  54  91 121 152 209 258 304 363
#     4  10  22  38  56  85 123 157 206 244 310 375
#     4  12  17  34  58  86 130 142 204 249 312 380
#
# _framework density 20.839565
#
# number of rings (size 3 to 8) (size 9 to 14) (size 15 to 20)
#    0.000    1.714    5.714    1.286    6.000    1.143 
#    0.000    5.714    0.000    0.000    1.857    0.000 
#    0.000    0.000    0.000    0.000    0.000    0.000 
#
# Total GULP energy -156063.503198 kJ/mol
# GULP energy per Si atom -5573.696543 kJ/mol
# Density = 2.079213 g / cm^3
# Si number density = 20.839565 Si / 1000 Ang^3
#
#
#
# Elastic Constant Matrix: (Units=GPa)
#
#
# Indices 1 2 3 4 5 6 
#
# 1 31.4818 1.2950 21.7728 0.0000 -7.2524 0.0000
# 2 1.2950 86.3450 36.3008 0.0000 -0.5847 0.0000
# 3 21.7728 36.3008 81.4755 0.0000 -2.2129 0.0000
# 4 0.0000 0.0000 0.0000 20.3584 0.0000 13.4529
# 5 -7.2524 -0.5847 -2.2129 0.0000 31.8462 0.0000
# 6 0.0000 0.0000 0.0000 13.4529 0.0000 15.5406
#
#
#
# Elastic Compliance Matrix: (Units=1/GPa)
#
#
# Indices 1 2 3 4 5 6 
#
# 1 0.042954 0.005094 -0.013506 0.000000 0.008937 0.000000
# 2 0.005094 0.014856 -0.007956 0.000000 0.000880 0.000000
# 3 -0.013506 -0.007956 0.019377 0.000000 -0.001875 0.000000
# 4 0.000000 0.000000 0.000000 0.114773 0.000000 -0.099355
# 5 0.008937 0.000880 -0.001875 0.000000 0.033322 0.000000
# 6 0.000000 0.000000 0.000000 -0.099355 0.000000 0.150355
#
#
# Mechanical properties :
#
#
# Convention : Reuss Voigt Hill
#
# Bulk Modulus (GPa) = 22.49652 35.33774 28.91713
# Shear Modulus (GPa) = 11.81502 22.87796 17.34649
#
# Velocity S-wave (km/s) = 2.38366 3.31692 2.88823
# Velocity P-wave (km/s) = 4.28886 5.62700 5.00287
#
# Compressibility (1/GPa) = 0.04445131
#
# Stress axis : x y z
#
# Youngs Moduli (GPa) = 23.28057 67.31280 51.60808
#
# Poissons Ratio (x) = -0.34291 0.69701
# Poissons Ratio (y) = -0.11860 0.41062
# Poissons Ratio (z) = 0.31442 0.53557
#
# Static dielectric constant tensor:
#      x y z
#    x 1.728930 0.000000 0.029760 
#    y 0.000000 1.840920 0.000000 
#    z 0.029760 0.000000 1.755770 
# 
# From -- ./inp_files/101154.got.cif
#   From: 2010.05.17/outbox.cif.g08.bks.cpg/sg15_51_cif.got.tgz:101154.got - 2010.06.03 18:47:42.
