data_PCOD9268323
_publ_section_title
;
Structure prediction by ZEFSAII (Michael W. Deem and Ramdas Pophale) SiO2 
 PCOD9268323
Probable space group: C 2/C
;
_chemical_formula_sum "Si O2"
_cell_formula_units_Z 48
_cell_length_a 7.501369
_cell_length_b 27.962039
_cell_length_c 19.125717
_cell_angle_alpha 90.000000
_cell_angle_beta 143.527153
_cell_angle_gamma 90.000000
_cell_volume 2384.714578
_symmetry_space_group_name_H-M "C 2/C"
_symmetry_group_IT_number 15
_symmetry_cell_setting 'monoclinic'
loop_
_space_group_symop_operation_xyz
x,y,z
-x,y,1/2-z
-x,-y,-z
x,-y,1/2+z
1/2+x,1/2+y,z
1/2-x,1/2+y,1/2-z
1/2-x,1/2-y,-z
1/2+x,1/2-y,1/2+z
loop_
_atom_site_type_symbol
_atom_site_label
_atom_site_fract_x
_atom_site_fract_y
_atom_site_fract_z
Si Si1 0.298927 0.969587 0.882839
Si Si2 0.142829 0.695235 0.963382
Si Si3 0.949260 0.115768 0.349639
Si Si4 0.043503 0.183723 0.572849
Si Si5 0.109340 0.757274 0.356050
Si Si6 0.157647 0.601648 0.407639
O O1 0.536111 0.947505 0.902057
O O2 0.000000 0.991801 0.750000
O O3 0.148591 0.925033 0.876698
O O4 0.500000 0.000000 0.000000
O O5 0.192248 0.677472 0.899915
O O6 0.817172 0.699240 0.893649
O O7 0.250000 0.750000 0.000000
O O8 0.353403 0.662383 0.076475
O O9 0.831449 0.098014 0.388504
O O10 0.657630 0.127125 0.211245
O O11 0.115541 0.216059 0.662669
O O12 0.797915 0.217547 0.456186
O O13 0.868841 0.133426 0.524536
O O14 0.000000 0.734033 0.250000
#
# Coordination Sequence:
#
# PCOD9268323 Si02
#       6
#     8   8   8   8   8   8
#     4  10  21  38  59  86 114 142 187 237 294 354
#     4   9  18  31  51  78 110 138 179 224 267 323
#     4   9  18  33  56  83 109 142 184 236 280 328
#     4   9  19  33  49  74 101 136 184 224 269 322
#     4  10  20  31  47  70 106 146 181 220 268 321
#     4   9  18  33  58  79 104 140 184 236 280 329
#
# _framework density 20.128195999999999
#
# number of rings (size 3 to 8) (size 9 to 14) (size 15 to 20)
#    0.000    2.667    0.000    1.000    7.000    1.333 
#    0.000    3.333    0.000    2.000    0.000    0.000 
#    0.000    0.000    0.000    0.000    0.000    0.000 
#
# Total GULP energy -133654.377092 kJ/mol
# GULP energy per Si atom -5568.932379 kJ/mol
# Density = 2.008238 g / cm^3
# Si number density = 20.128196 Si / 1000 Ang^3
#
#
#
# Elastic Constant Matrix: (Units=GPa)
#
#
# Indices 1 2 3 4 5 6 
#
# 1 33.3465 9.6718 -2.1023 -0.0002 5.4032 0.0000
# 2 9.6718 41.6794 30.8913 -0.0002 4.4314 0.0000
# 3 -2.1023 30.8913 79.4635 -0.0013 -0.8649 -0.0004
# 4 -0.0002 -0.0002 -0.0013 34.1007 -0.0004 -4.5164
# 5 5.4032 4.4314 -0.8649 -0.0004 25.0777 -0.0001
# 6 0.0000 0.0000 -0.0004 -4.5164 -0.0001 26.8742
#
#
#
# Elastic Compliance Matrix: (Units=1/GPa)
#
#
# Indices 1 2 3 4 5 6 
#
# 1 0.034458 -0.011340 0.005263 0.000000 -0.005239 0.000000
# 2 -0.011340 0.038498 -0.015319 -0.000001 -0.004888 0.000000
# 3 0.005263 -0.015319 0.018703 0.000001 0.002218 0.000000
# 4 0.000000 -0.000001 0.000001 0.029992 0.000000 0.005040
# 5 -0.005239 -0.004888 0.002218 0.000000 0.041945 0.000000
# 6 0.000000 0.000000 0.000000 0.005040 0.000000 0.038057
#
#
# Mechanical properties :
#
#
# Convention : Reuss Voigt Hill
#
# Bulk Modulus (GPa) = 20.46382 25.71233 23.08807
# Shear Modulus (GPa) = 19.17665 24.94578 22.06122
#
# Velocity S-wave (km/s) = 3.08997 3.52425 3.31423
# Velocity P-wave (km/s) = 4.78742 5.41872 5.11282
#
# Compressibility (1/GPa) = 0.04886674
#
# Stress axis : x y z
#
# Youngs Moduli (GPa) = 29.02110 25.97563 53.46726
#
# Poissons Ratio (x) = 0.29455 -0.28139
# Poissons Ratio (y) = 0.32909 0.81907
# Poissons Ratio (z) = -0.15273 0.39792
#
# Static dielectric constant tensor:
#      x y z
#    x 1.655050 0.000000 -0.031460 
#    y 0.000000 1.689990 0.000000 
#    z -0.031460 0.000000 1.806710 
# 
# From -- ./inp_files/234869.got.cif
#   From: 2010.05.17/outbox.cif.g08.bks.cpg/sg15_118_cif.got.tgz:234869.got - 2010.06.03 18:47:42.
