data_PCOD9268430
_publ_section_title
;
Structure prediction by ZEFSAII (Michael W. Deem and Ramdas Pophale) SiO2 
 PCOD9268430
Probable space group: C 2/C
;
_chemical_formula_sum "Si O2"
_cell_formula_units_Z 60
_cell_length_a 5.805880
_cell_length_b 25.716392
_cell_length_c 15.540445
_cell_angle_alpha 90.000000
_cell_angle_beta 64.379859
_cell_angle_gamma 90.000000
_cell_volume 2092.156942
_symmetry_space_group_name_H-M "C 2/C"
_symmetry_group_IT_number 15
_symmetry_cell_setting 'monoclinic'
loop_
_space_group_symop_operation_xyz
x,y,z
-x,y,1/2-z
-x,-y,-z
x,-y,1/2+z
1/2+x,1/2+y,z
1/2-x,1/2+y,1/2-z
1/2-x,1/2-y,-z
1/2+x,1/2-y,1/2+z
loop_
_atom_site_type_symbol
_atom_site_label
_atom_site_fract_x
_atom_site_fract_y
_atom_site_fract_z
Si Si1 0.791806 0.178374 0.421354
Si Si2 0.000000 0.467545 0.750000
Si Si3 0.496236 0.656351 0.862731
Si Si4 0.724362 0.199741 0.065303
Si Si5 0.996192 0.927472 0.650718
Si Si6 0.002094 0.327487 0.142100
Si Si7 0.550415 0.948446 0.094001
Si Si8 0.068700 0.956091 0.086818
O O1 0.582329 0.191194 0.381352
O O2 0.650591 0.193119 0.532811
O O3 0.082866 0.200343 0.383619
O O4 0.828846 0.116295 0.417434
O O5 0.199252 0.427336 0.674380
O O6 0.956059 0.508623 0.678831
O O7 0.776201 0.682280 0.822712
O O8 0.517765 0.594490 0.844618
O O9 0.291447 0.682925 0.834003
O O10 0.358055 0.657420 0.979489
O O11 0.750000 0.250000 0.000000
O O12 0.000000 0.913480 0.750000
O O13 0.036666 0.988949 0.637763
O O14 0.007445 0.390582 0.136510
O O15 0.376171 0.951300 0.036248
O O16 0.858566 0.956243 0.044176
#
# Coordination Sequence:
#
# PCOD9268430 Si02
#       8
#     8   4   8   8   8   8   8   8
#     4  10  22  35  56  84 113 144 187 228 289 346
#     4  10  20  32  48  72 108 154 196 222 262 320
#     4   8  15  29  50  74 104 135 174 215 270 318
#     4  10  20  38  59  83 112 137 179 237 299 349
#     4  11  22  35  53  77 118 154 192 221 268 333
#     4   8  15  30  45  69 102 134 173 225 266 312
#     4   9  16  28  46  65  99 141 188 218 255 305
#     4   9  17  30  46  71 102 146 180 211 255 312
#
# _framework density 28.678536000000001
#
# number of rings (size 3 to 8) (size 9 to 14) (size 15 to 20)
#    0.000    2.667    1.333    0.400    1.867    0.000 
#    0.000   16.667    0.000    0.000    0.000    1.867 
#   44.000    0.000    0.000    0.000    0.000    0.000 
#
# Total GULP energy -167310.398076 kJ/mol
# GULP energy per Si atom -5577.013269 kJ/mol
# Density = 2.861326 g / cm^3
# Si number density = 28.678536 Si / 1000 Ang^3
#
#
#
# Elastic Constant Matrix: (Units=GPa)
#
#
# Indices 1 2 3 4 5 6 
#
# 1 319.1634 38.6944 47.3088 0.0000 -8.2011 0.0000
# 2 38.6944 100.2395 7.5747 0.0000 -28.8098 0.0000
# 3 47.3088 7.5747 40.8936 0.0000 9.4397 0.0000
# 4 0.0000 0.0000 0.0000 -23.0291 0.0000 0.0223
# 5 -8.2011 -28.8098 9.4397 0.0000 35.5854 0.0000
# 6 0.0000 0.0000 0.0000 0.0223 0.0000 22.9983
#
#
#
# Elastic Compliance Matrix: (Units=1/GPa)
#
#
# Indices 1 2 3 4 5 6 
#
# 1 0.003979 -0.000698 -0.004852 0.000000 0.001639 0.000000
# 2 -0.000698 0.014230 -0.004740 0.000000 0.012617 0.000000
# 3 -0.004852 -0.004740 0.034183 0.000000 -0.014024 0.000000
# 4 0.000000 0.000000 0.000000 -0.043423 0.000000 0.000042
# 5 0.001639 0.012617 -0.014024 0.000000 0.042414 0.000000
# 6 0.000000 0.000000 0.000000 0.000042 0.000000 0.043481
#
#
# Mechanical properties :
#
#
# Convention : Reuss Voigt Hill
#
# Bulk Modulus (GPa) = 31.43711 71.93914 51.68812
# Shear Modulus (GPa) = 39.66688 31.55884 35.61286
#
# Velocity S-wave (km/s) = 3.72311 3.32088 3.52773
# Velocity P-wave (km/s) = 5.42843 6.31216 5.88690
#
# Compressibility (1/GPa) = 0.03180954
#
# Stress axis : x y z
#
# Youngs Moduli (GPa) = 251.30487 70.27301 29.25469
#
# Poissons Ratio (x) = 0.04908 0.14196
# Poissons Ratio (y) = 0.17550 0.13868
# Poissons Ratio (z) = 1.21944 0.33313
#
# Static dielectric constant tensor:
#      x y z
#    x 2.449090 0.000000 -0.110230 
#    y 0.000000 2.210640 0.000000 
#    z -0.110230 0.000000 2.334430 
# 
# From -- ./inp_files/228439.got.cif
#   From: 2010.05.17/outbox.cif.g08.bks.cpg/sg15_115_cif.got.tgz:228439.got - 2010.06.03 18:47:42.
