data_PCOD9268329
_publ_section_title
;
Structure prediction by ZEFSAII (Michael W. Deem and Ramdas Pophale) SiO2 
 PCOD9268329
Probable space group: C 2/C
;
_chemical_formula_sum "Si O2"
_cell_formula_units_Z 48
_cell_length_a 29.646190
_cell_length_b 7.523185
_cell_length_c 10.056336
_cell_angle_alpha 90.000000
_cell_angle_beta 91.624617
_cell_angle_gamma 90.000000
_cell_volume 2242.000962
_symmetry_space_group_name_H-M "C 2/C"
_symmetry_group_IT_number 15
_symmetry_cell_setting 'monoclinic'
loop_
_space_group_symop_operation_xyz
x,y,z
-x,y,1/2-z
-x,-y,-z
x,-y,1/2+z
1/2+x,1/2+y,z
1/2-x,1/2+y,1/2-z
1/2-x,1/2-y,-z
1/2+x,1/2-y,1/2+z
loop_
_atom_site_type_symbol
_atom_site_label
_atom_site_fract_x
_atom_site_fract_y
_atom_site_fract_z
Si Si1 0.214173 0.728225 0.381666
Si Si2 0.477572 0.777196 0.612775
Si Si3 0.466246 0.210926 0.633197
Si Si4 0.772812 0.313657 0.138179
Si Si5 0.621008 0.186546 0.466480
Si Si6 0.370559 0.172365 0.713544
O O1 0.250000 0.750000 0.500000
O O2 0.213752 0.517682 0.365598
O O3 0.235294 0.800348 0.248842
O O4 0.165380 0.793857 0.424522
O O5 0.500000 0.714259 0.750000
O O6 0.513683 0.729021 0.503970
O O7 0.426908 0.722479 0.567996
O O8 0.471483 0.993674 0.624988
O O9 0.500000 0.269931 0.750000
O O10 0.415989 0.268563 0.667795
O O11 0.822273 0.234036 0.179296
O O12 0.750000 0.250000 0.000000
O O13 0.625364 0.142368 0.625447
O O14 0.624241 0.009649 0.373501
#
# Coordination Sequence:
#
# PCOD9268329 Si02
#       6
#     8   8   8   8   8   8
#     4  11  22  40  60  82 117 153 188 239 284 334
#     4   9  17  25  40  67 100 141 178 218 276 341
#     4   9  15  25  41  63 101 137 177 214 273 340
#     4  11  24  38  59  84 114 150 195 234 287 339
#     4  10  20  31  48  72 107 145 185 226 286 335
#     4  10  20  31  48  73 105 145 184 228 283 341
#
# _framework density 21.409447
#
# number of rings (size 3 to 8) (size 9 to 14) (size 15 to 20)
#    0.000    2.000    3.333    1.000   14.000    0.000 
#    0.000    0.000    0.000    0.000    0.000    0.000 
#    0.000   26.667    0.000    0.000    0.000    0.000 
#
# Total GULP energy -133703.456102 kJ/mol
# GULP energy per Si atom -5570.977338 kJ/mol
# Density = 2.136072 g / cm^3
# Si number density = 21.409447 Si / 1000 Ang^3
#
#
#
# Elastic Constant Matrix: (Units=GPa)
#
#
# Indices 1 2 3 4 5 6 
#
# 1 220.7730 0.3908 107.2413 0.0000 -12.9489 0.0000
# 2 0.3908 23.9326 -2.6702 0.0000 -4.7325 0.0000
# 3 107.2413 -2.6702 213.6019 0.0000 -12.7502 0.0000
# 4 0.0000 0.0000 0.0000 0.6583 0.0000 -7.7700
# 5 -12.9489 -4.7325 -12.7502 0.0000 40.1871 0.0000
# 6 0.0000 0.0000 0.0000 -7.7700 0.0000 9.1568
#
#
#
# Elastic Compliance Matrix: (Units=1/GPa)
#
#
# Indices 1 2 3 4 5 6 
#
# 1 0.006031 -0.000238 -0.002973 0.000000 0.000972 0.000000
# 2 -0.000238 0.042942 0.000972 0.000000 0.005289 0.000000
# 3 -0.002973 0.000972 0.006254 0.000000 0.001141 0.000000
# 4 0.000000 0.000000 0.000000 -0.168493 0.000000 -0.142976
# 5 0.000972 0.005289 0.001141 0.000000 0.026182 0.000000
# 6 0.000000 0.000000 0.000000 -0.142976 0.000000 -0.012114
#
#
# Mechanical properties :
#
#
# Convention : Reuss Voigt Hill
#
# Bulk Modulus (GPa) = 19.70450 74.24793 46.97621
# Shear Modulus (GPa) = -64.26459 33.55682 -15.35389
#
# Velocity S-wave (km/s) = -5.48471 3.96331 -2.68088
# Velocity P-wave (km/s) = 5.55750 7.46318 3.52230
#
# Compressibility (1/GPa) = 0.05074984
#
# Stress axis : x y z
#
# Youngs Moduli (GPa) = 165.80760 23.28715 159.88615
#
# Poissons Ratio (x) = 0.00554 0.47533
# Poissons Ratio (y) = 0.03946 -0.15541
# Poissons Ratio (z) = 0.49293 -0.02263
#
# Static dielectric constant tensor:
#      x y z
#    x 1.894710 0.000000 -0.045820 
#    y 0.000000 1.836130 0.000000 
#    z -0.045820 0.000000 1.604690 
# 
# From -- ./inp_files/68560.got.cif
#   From: 2010.05.17/outbox.cif.g08.bks.cpg/sg15_35_cif.got.tgz:68560.got - 2010.06.03 18:47:42.
