data_PCOD9268574
_publ_section_title
;
Structure prediction by ZEFSAII (Michael W. Deem and Ramdas Pophale) SiO2 
 PCOD9268574
Probable space group: C 2/C
;
_chemical_formula_sum "Si O2"
_cell_formula_units_Z 60
_cell_length_a 20.988946
_cell_length_b 8.962567
_cell_length_c 14.686112
_cell_angle_alpha 90.000000
_cell_angle_beta 98.763376
_cell_angle_gamma 90.000000
_cell_volume 2730.423974
_symmetry_space_group_name_H-M "C 2/C"
_symmetry_group_IT_number 15
_symmetry_cell_setting 'monoclinic'
loop_
_space_group_symop_operation_xyz
x,y,z
-x,y,1/2-z
-x,-y,-z
x,-y,1/2+z
1/2+x,1/2+y,z
1/2-x,1/2+y,1/2-z
1/2-x,1/2-y,-z
1/2+x,1/2-y,1/2+z
loop_
_atom_site_type_symbol
_atom_site_label
_atom_site_fract_x
_atom_site_fract_y
_atom_site_fract_z
Si Si1 0.957832 0.107578 0.553185
Si Si2 0.839185 0.319557 0.947973
Si Si3 0.905871 0.471704 0.198219
Si Si4 0.888838 0.007756 0.205534
Si Si5 0.430313 0.246619 0.324892
Si Si6 0.928728 0.423384 0.503756
Si Si7 0.202042 0.738703 0.852802
Si Si8 0.000000 0.786977 0.750000
O O1 0.907659 0.014507 0.603406
O O2 0.932793 0.246808 0.487292
O O3 0.999550 0.187919 0.642645
O O4 0.000000 0.000000 0.500000
O O5 0.899962 0.237157 0.918431
O O6 0.777948 0.266225 0.876315
O O7 0.867815 0.488377 0.947192
O O8 0.822231 0.282625 0.047859
O O9 0.929405 0.579766 0.284185
O O10 0.911012 0.561439 0.106317
O O11 0.835076 0.401499 0.201255
O O12 0.953381 0.330645 0.189692
O O13 0.886780 0.847284 0.250240
O O14 0.827158 0.111309 0.195737
O O15 0.945462 0.098138 0.271291
O O16 0.000000 0.500000 0.500000
#
# Coordination Sequence:
#
# PCOD9268574 Si02
#       8
#     8   8   8   8   8   8   8   4
#     4  12  24  36  58  92 131 162 203 256 316 373
#     4  10  22  41  68  86 121 165 210 256 304 377
#     4  10  22  37  62  88 123 162 205 261 306 374
#     4  11  22  38  58  89 126 159 198 259 307 364
#     4  12  22  38  63  91 124 163 201 260 314 360
#     4  11  22  37  61  90 120 162 206 253 312 371
#     4   9  22  45  63  87 121 166 212 249 311 374
#     4  10  20  32  56  84 118 154 194 240 310 352
#
# _framework density 21.974609000000001
#
# number of rings (size 3 to 8) (size 9 to 14) (size 15 to 20)
#    0.000    1.333    4.000    1.600    3.733    1.067 
#    0.000    0.667    2.933    0.000    0.000    0.000 
#    0.000    0.000    0.000    0.000    0.000    0.000 
#
# Total GULP energy -167089.776493 kJ/mol
# GULP energy per Si atom -5569.659216 kJ/mol
# Density = 2.192459 g / cm^3
# Si number density = 21.974609 Si / 1000 Ang^3
#
#
#
# Elastic Constant Matrix: (Units=GPa)
#
#
# Indices 1 2 3 4 5 6 
#
# 1 64.3479 31.0510 6.0414 0.0000 17.2342 0.0000
# 2 31.0510 118.7965 11.9598 0.0000 6.9794 0.0000
# 3 6.0414 11.9598 38.3657 0.0000 -1.4839 0.0000
# 4 0.0000 0.0000 0.0000 36.5372 0.0000 5.0455
# 5 17.2342 6.9794 -1.4839 0.0000 39.1741 0.0000
# 6 0.0000 0.0000 0.0000 5.0455 0.0000 22.8975
#
#
#
# Elastic Compliance Matrix: (Units=1/GPa)
#
#
# Indices 1 2 3 4 5 6 
#
# 1 0.020113 -0.004574 -0.002055 0.000000 -0.008111 0.000000
# 2 -0.004574 0.009839 -0.002340 0.000000 0.000171 0.000000
# 3 -0.002055 -0.002340 0.027209 0.000000 0.002352 0.000000
# 4 0.000000 0.000000 0.000000 0.028228 0.000000 -0.006220
# 5 -0.008111 0.000171 0.002352 0.000000 0.029154 0.000000
# 6 0.000000 0.000000 0.000000 -0.006220 0.000000 0.045043
#
#
# Mechanical properties :
#
#
# Convention : Reuss Voigt Hill
#
# Bulk Modulus (GPa) = 25.49541 35.51270 30.50406
# Shear Modulus (GPa) = 26.23304 31.21895 28.72600
#
# Velocity S-wave (km/s) = 3.45887 3.77328 3.61949
# Velocity P-wave (km/s) = 5.25158 5.93123 5.60172
#
# Compressibility (1/GPa) = 0.03922274
#
# Stress axis : x y z
#
# Youngs Moduli (GPa) = 49.71915 101.63837 36.75248
#
# Poissons Ratio (x) = 0.46486 0.07553
# Poissons Ratio (y) = 0.22740 0.08601
# Poissons Ratio (z) = 0.10218 0.23786
#
# Static dielectric constant tensor:
#      x y z
#    x 1.800160 0.000000 0.002920 
#    y 0.000000 1.852220 0.000000 
#    z 0.002920 0.000000 1.876950 
# 
# From -- ./inp_files/218301.got.cif
#   From: 2010.05.17/outbox.cif.g08.bks.cpg/sg15_110_cif.got.tgz:218301.got - 2010.06.03 18:47:42.
