data_PCOD9268735
_publ_section_title
;
Structure prediction by ZEFSAII (Michael W. Deem and Ramdas Pophale) SiO2 
 PCOD9268735
Probable space group: C 2/C
;
_chemical_formula_sum "Si O2"
_cell_formula_units_Z 56
_cell_length_a 12.902211
_cell_length_b 23.421305
_cell_length_c 9.089934
_cell_angle_alpha 90.000000
_cell_angle_beta 74.376997
_cell_angle_gamma 90.000000
_cell_volume 2645.372504
_symmetry_space_group_name_H-M "C 2/C"
_symmetry_group_IT_number 15
_symmetry_cell_setting 'monoclinic'
loop_
_space_group_symop_operation_xyz
x,y,z
-x,y,1/2-z
-x,-y,-z
x,-y,1/2+z
1/2+x,1/2+y,z
1/2-x,1/2+y,1/2-z
1/2-x,1/2-y,-z
1/2+x,1/2-y,1/2+z
loop_
_atom_site_type_symbol
_atom_site_label
_atom_site_fract_x
_atom_site_fract_y
_atom_site_fract_z
Si Si1 0.509211 0.382040 0.570709
Si Si2 0.683543 0.163070 0.967952
Si Si3 0.671081 0.163395 0.624731
Si Si4 0.217204 0.935625 0.890697
Si Si5 0.387180 0.266649 0.012050
Si Si6 0.769447 0.941505 0.968705
Si Si7 0.110861 0.763106 0.164050
O O1 0.500000 0.385449 0.750000
O O2 0.405178 0.411893 0.539486
O O3 0.519689 0.314555 0.532104
O O4 0.620794 0.415511 0.499137
O O5 0.667234 0.153771 0.800998
O O6 0.797973 0.196274 0.931164
O O7 0.700610 0.109004 0.065545
O O8 0.598972 0.208287 0.065909
O O9 0.592809 0.213492 0.601229
O O10 0.782601 0.193278 0.524037
O O11 0.673375 0.101384 0.550896
O O12 0.226484 0.941460 0.710351
O O13 0.237017 0.995530 0.963016
O O14 0.356868 0.242407 0.184904
O O15 0.000000 0.793237 0.250000
#
# Coordination Sequence:
#
# PCOD9268735 Si02
#       7
#     8   8   8   8   8   8   8
#     4   9  19  31  49  77 109 147 185 225 274 337
#     4  10  21  34  53  79 109 145 185 232 281 336
#     4   9  18  33  50  74 103 137 183 226 271 323
#     4  11  20  34  52  77 111 148 190 229 277 337
#     4   9  17  31  51  72 103 141 178 225 274 323
#     4  10  20  33  51  75 107 147 186 229 276 330
#     4  10  20  34  52  79 109 141 181 230 284 334
#
# _framework density 21.169041
#
# number of rings (size 3 to 8) (size 9 to 14) (size 15 to 20)
#    0.000    2.286    0.000    3.000    0.000    8.000 
#    0.000    6.429    0.000    0.000    0.000   10.000 
#    0.000    0.000    0.000    0.000    0.000    0.000 
#
# Total GULP energy -156002.538119 kJ/mol
# GULP energy per Si atom -5571.519219 kJ/mol
# Density = 2.112086 g / cm^3
# Si number density = 21.169041 Si / 1000 Ang^3
#
#
#
# Elastic Constant Matrix: (Units=GPa)
#
#
# Indices 1 2 3 4 5 6 
#
# 1 21.9208 18.0189 10.9402 0.0000 6.2657 0.0000
# 2 18.0189 157.2934 63.7944 0.0000 14.5234 0.0000
# 3 10.9402 63.7944 60.6184 0.0000 19.2647 0.0000
# 4 0.0000 0.0000 0.0000 38.1526 0.0000 4.9996
# 5 6.2657 14.5234 19.2647 0.0000 30.1173 0.0000
# 6 0.0000 0.0000 0.0000 4.9996 0.0000 26.5605
#
#
#
# Elastic Compliance Matrix: (Units=1/GPa)
#
#
# Indices 1 2 3 4 5 6 
#
# 1 0.052514 -0.004243 -0.002749 0.000000 -0.007121 0.000000
# 2 -0.004243 0.011607 -0.012490 0.000000 0.003275 0.000000
# 3 -0.002749 -0.012490 0.035196 0.000000 -0.015918 0.000000
# 4 0.000000 0.000000 0.000000 0.026873 0.000000 -0.005059
# 5 -0.007121 0.003275 -0.015918 0.000000 0.043288 0.000000
# 6 0.000000 0.000000 0.000000 -0.005059 0.000000 0.038602
#
#
# Mechanical properties :
#
#
# Convention : Reuss Voigt Hill
#
# Bulk Modulus (GPa) = 16.56934 47.25997 31.91465
# Shear Modulus (GPa) = 18.71521 28.77136 23.74328
#
# Velocity S-wave (km/s) = 2.97658 3.69063 3.35267
# Velocity P-wave (km/s) = 4.43368 6.36667 5.48598
#
# Compressibility (1/GPa) = 0.06035244
#
# Stress axis : x y z
#
# Youngs Moduli (GPa) = 19.04253 86.15563 28.41231
#
# Poissons Ratio (x) = 0.36560 0.07810
# Poissons Ratio (y) = 0.08081 0.35487
# Poissons Ratio (z) = 0.05234 1.07608
#
# Static dielectric constant tensor:
#      x y z
#    x 1.892070 0.000000 0.037530 
#    y 0.000000 1.774870 0.000000 
#    z 0.037530 0.000000 1.777980 
# 
# From -- ./inp_files/42092.got.cif
#   From: 2010.05.17/outbox.cif.g08.bks.cpg/sg15_22_cif.got.tgz:42092.got - 2010.06.03 18:47:42.
