data_PCOD9268327
_publ_section_title
;
Structure prediction by ZEFSAII (Michael W. Deem and Ramdas Pophale) SiO2 
 PCOD9268327
Probable space group: C 2/C
;
_chemical_formula_sum "Si O2"
_cell_formula_units_Z 60
_cell_length_a 24.706754
_cell_length_b 18.175348
_cell_length_c 10.164228
_cell_angle_alpha 90.000000
_cell_angle_beta 127.493306
_cell_angle_gamma 90.000000
_cell_volume 3621.415935
_symmetry_space_group_name_H-M "C 2/C"
_symmetry_group_IT_number 15
_symmetry_cell_setting 'monoclinic'
loop_
_space_group_symop_operation_xyz
x,y,z
-x,y,1/2-z
-x,-y,-z
x,-y,1/2+z
1/2+x,1/2+y,z
1/2-x,1/2+y,1/2-z
1/2-x,1/2-y,-z
1/2+x,1/2-y,1/2+z
loop_
_atom_site_type_symbol
_atom_site_label
_atom_site_fract_x
_atom_site_fract_y
_atom_site_fract_z
Si Si1 0.639426 0.626113 0.277255
Si Si2 0.758682 0.003041 0.654852
Si Si3 0.134445 0.839784 0.485511
Si Si4 0.173366 0.262903 0.833355
Si Si5 0.278895 0.082285 0.152660
Si Si6 0.000000 0.939029 0.250000
Si Si7 0.993243 0.942597 0.575314
Si Si8 0.653671 0.634965 0.598353
O O1 0.679844 0.550697 0.301475
O O2 0.647955 0.675672 0.159754
O O3 0.559628 0.609158 0.169670
O O4 0.662274 0.650001 0.455733
O O5 0.717491 0.028550 0.466297
O O6 0.791568 0.074661 0.772075
O O7 0.716132 0.959341 0.701682
O O8 0.127892 0.767865 0.385773
O O9 0.200593 0.886274 0.535858
O O10 0.069203 0.891691 0.369653
O O11 0.171790 0.348026 0.791899
O O12 0.160834 0.208891 0.692836
O O13 0.250000 0.250000 0.000000
O O14 0.991782 0.962078 0.406318
O O15 0.919431 0.902921 0.480099
O O16 0.000000 0.966928 0.750000
#
# Coordination Sequence:
#
# PCOD9268327 Si02
#       8
#     8   8   8   8   8   4   8   8
#     4  11  21  29  43  76 104 132 175 205 235 285
#     4  11  18  30  52  70  92 129 176 213 244 284
#     4  10  20  31  48  68 105 142 169 201 233 298
#     4  10  21  37  49  63  98 145 172 204 257 298
#     4  10  20  35  50  72  95 130 173 215 254 288
#     4  12  18  28  46  74 108 142 178 190 230 286
#     4  12  19  26  42  70 108 141 174 198 227 282
#     4  12  20  31  47  69 101 144 171 204 245 290
#
# _framework density 16.568104999999999
#
# number of rings (size 3 to 8) (size 9 to 14) (size 15 to 20)
#    0.000    1.067    8.000    2.400    0.000    0.000 
#    0.000    7.333    0.000    0.000    0.000    0.000 
#    0.000    1.067    0.000    0.533    0.000    0.000 
#
# Total GULP energy -167189.850836 kJ/mol
# GULP energy per Si atom -5572.995028 kJ/mol
# Density = 1.653040 g / cm^3
# Si number density = 16.568105 Si / 1000 Ang^3
#
#
#
# Elastic Constant Matrix: (Units=GPa)
#
#
# Indices 1 2 3 4 5 6 
#
# 1 52.7836 41.4613 38.0936 0.0000 -28.1109 0.0000
# 2 41.4613 77.9637 33.8961 0.0000 -19.4457 0.0000
# 3 38.0936 33.8961 103.5472 0.0000 -41.9587 0.0000
# 4 0.0000 0.0000 0.0000 14.6673 0.0000 -3.3755
# 5 -28.1109 -19.4457 -41.9587 0.0000 38.9380 0.0000
# 6 0.0000 0.0000 0.0000 -3.3755 0.0000 15.2311
#
#
#
# Elastic Compliance Matrix: (Units=1/GPa)
#
#
# Indices 1 2 3 4 5 6 
#
# 1 0.046838 -0.018405 -0.002181 0.000000 0.022273 0.000000
# 2 -0.018405 0.022527 -0.002536 0.000000 -0.004770 0.000000
# 3 -0.002181 -0.002536 0.017997 0.000000 0.016552 0.000000
# 4 0.000000 0.000000 0.000000 0.071843 0.000000 0.015922
# 5 0.022273 -0.004770 0.016552 0.000000 0.057215 0.000000
# 6 0.000000 0.000000 0.000000 0.015922 0.000000 0.069184
#
#
# Mechanical properties :
#
#
# Convention : Reuss Voigt Hill
#
# Bulk Modulus (GPa) = 24.32044 51.24405 37.78224
# Shear Modulus (GPa) = 14.46943 21.82352 18.14647
#
# Velocity S-wave (km/s) = 2.95842 3.63326 3.31307
# Velocity P-wave (km/s) = 5.13621 6.97117 6.12282
#
# Compressibility (1/GPa) = 0.04111768
#
# Stress axis : x y z
#
# Youngs Moduli (GPa) = 21.35003 44.39053 55.56423
#
# Poissons Ratio (x) = 0.81702 0.12119
# Poissons Ratio (y) = 0.39295 0.14093
# Poissons Ratio (z) = 0.04657 0.11259
#
# Static dielectric constant tensor:
#      x y z
#    x 1.584340 0.000000 -0.063070 
#    y 0.000000 1.561640 0.000000 
#    z -0.063070 0.000000 1.635750 
# 
# From -- ./inp_files/70411.got.cif
#   From: 2010.05.17/outbox.cif.g08.bks.cpg/sg15_36_cif.got.tgz:70411.got - 2010.06.03 18:47:42.
