data_PCOD9268608
_publ_section_title
;
Structure prediction by ZEFSAII (Michael W. Deem and Ramdas Pophale) SiO2 
 PCOD9268608
Probable space group: C 2/C
;
_chemical_formula_sum "Si O2"
_cell_formula_units_Z 44
_cell_length_a 10.273303
_cell_length_b 16.523137
_cell_length_c 22.345995
_cell_angle_alpha 90.000000
_cell_angle_beta 140.625873
_cell_angle_gamma 90.000000
_cell_volume 2406.316849
_symmetry_space_group_name_H-M "C 2/C"
_symmetry_group_IT_number 15
_symmetry_cell_setting 'monoclinic'
loop_
_space_group_symop_operation_xyz
x,y,z
-x,y,1/2-z
-x,-y,-z
x,-y,1/2+z
1/2+x,1/2+y,z
1/2-x,1/2+y,1/2-z
1/2-x,1/2-y,-z
1/2+x,1/2-y,1/2+z
loop_
_atom_site_type_symbol
_atom_site_label
_atom_site_fract_x
_atom_site_fract_y
_atom_site_fract_z
Si Si1 0.789271 0.538577 0.902898
Si Si2 0.000000 0.091718 0.250000
Si Si3 0.339646 0.946510 0.140964
Si Si4 0.572594 0.476391 0.448762
Si Si5 0.534367 0.653308 0.389698
Si Si6 0.003596 0.331175 0.405469
O O1 0.686455 0.469189 0.826964
O O2 0.652748 0.553524 0.913325
O O3 0.835721 0.616050 0.879617
O O4 0.000000 0.500000 0.000000
O O5 0.971540 0.143051 0.299057
O O6 0.500000 0.971244 0.250000
O O7 0.440072 0.873283 0.138265
O O8 0.119878 0.927073 0.093950
O O9 0.260992 0.011469 0.062621
O O10 0.490794 0.568758 0.407780
O O11 0.781644 0.661826 0.482037
O O12 0.447459 0.737228 0.382683
#
# Coordination Sequence:
#
# PCOD9268608 Si02
#       6
#     8   4   8   8   8   8
#     4  11  19  36  58  88 109 149 193 238 270 337
#     4  10  20  32  58  84 112 146 198 224 282 338
#     4  10  20  33  55  82 107 146 184 227 269 338
#     4   9  20  36  55  79 112 142 186 228 280 317
#     4   9  19  35  55  83 113 145 182 234 278 337
#     4  10  20  36  58  81 113 146 187 231 286 323
#
# _framework density 18.285205000000001
#
# number of rings (size 3 to 8) (size 9 to 14) (size 15 to 20)
#    0.000    2.182    5.455    0.000    6.364    0.000 
#    0.000    0.000    2.000   21.818    0.000    0.000 
#    0.000    0.000    0.000    0.000    0.000    0.000 
#
# Total GULP energy -122530.022934 kJ/mol
# GULP energy per Si atom -5569.546497 kJ/mol
# Density = 1.824359 g / cm^3
# Si number density = 18.285205 Si / 1000 Ang^3
#
#
#
# Elastic Constant Matrix: (Units=GPa)
#
#
# Indices 1 2 3 4 5 6 
#
# 1 109.4048 47.7413 11.3382 0.0000 -17.3508 0.0000
# 2 47.7413 76.6498 12.7414 0.0000 -4.7190 0.0000
# 3 11.3382 12.7414 106.8453 0.0002 -16.4178 0.0000
# 4 0.0000 0.0000 0.0002 7.9450 0.0001 2.8889
# 5 -17.3508 -4.7190 -16.4178 0.0001 24.8737 0.0000
# 6 0.0000 0.0000 0.0000 2.8889 0.0000 15.6321
#
#
#
# Elastic Compliance Matrix: (Units=1/GPa)
#
#
# Indices 1 2 3 4 5 6 
#
# 1 0.014110 -0.008388 0.000858 0.000000 0.008818 0.000000
# 2 -0.008388 0.018358 -0.001851 0.000000 -0.003590 0.000000
# 3 0.000858 -0.001851 0.010602 0.000000 0.007245 0.000000
# 4 0.000000 0.000000 0.000000 0.134933 -0.000001 -0.024937
# 5 0.008818 -0.003590 0.007245 -0.000001 0.050455 0.000000
# 6 0.000000 0.000000 0.000000 -0.024937 0.000000 0.068579
#
#
# Mechanical properties :
#
#
# Convention : Reuss Voigt Hill
#
# Bulk Modulus (GPa) = 41.13876 48.50462 44.82169
# Shear Modulus (GPa) = 15.43673 24.42875 19.93274
#
# Velocity S-wave (km/s) = 2.90870 3.65908 3.30525
# Velocity P-wave (km/s) = 5.81618 6.66604 6.25556
#
# Compressibility (1/GPa) = 0.02430797
#
# Stress axis : x y z
#
# Youngs Moduli (GPa) = 70.87010 54.47319 94.31908
#
# Poissons Ratio (x) = 0.45694 -0.08091
# Poissons Ratio (y) = 0.59448 0.17455
# Poissons Ratio (z) = -0.06080 0.10081
#
# Static dielectric constant tensor:
#      x y z
#    x 1.643050 0.000000 -0.020790 
#    y 0.000000 1.639110 0.000000 
#    z -0.020790 0.000000 1.647210 
# 
# From -- ./inp_files/269817.got.cif
#   From: 2010.05.17/outbox.cif.g08.bks.cpg/sg15_135_cif.got.tgz:269817.got - 2010.06.03 18:47:42.
