data_PCOD9268153
_publ_section_title
;
Structure prediction by ZEFSAII (Michael W. Deem and Ramdas Pophale) SiO2 
 PCOD9268153
Probable space group: C 2/C
;
_chemical_formula_sum "Si O2"
_cell_formula_units_Z 64
_cell_length_a 15.488508
_cell_length_b 9.217556
_cell_length_c 31.181280
_cell_angle_alpha 90.000000
_cell_angle_beta 39.314943
_cell_angle_gamma 90.000000
_cell_volume 2820.477240
_symmetry_space_group_name_H-M "C 2/C"
_symmetry_group_IT_number 15
_symmetry_cell_setting 'monoclinic'
loop_
_space_group_symop_operation_xyz
x,y,z
-x,y,1/2-z
-x,-y,-z
x,-y,1/2+z
1/2+x,1/2+y,z
1/2-x,1/2+y,1/2-z
1/2-x,1/2-y,-z
1/2+x,1/2-y,1/2+z
loop_
_atom_site_type_symbol
_atom_site_label
_atom_site_fract_x
_atom_site_fract_y
_atom_site_fract_z
Si Si1 0.757315 0.218500 0.677224
Si Si2 0.581615 0.891697 0.621126
Si Si3 0.795576 0.266633 0.757763
Si Si4 0.658715 0.476651 0.193676
Si Si5 0.262107 0.852039 0.065955
Si Si6 0.739947 0.078034 0.502787
Si Si7 0.348271 0.938443 0.812997
Si Si8 0.533773 0.403197 0.029477
O O1 0.723884 0.235590 0.740603
O O2 0.744931 0.377363 0.662346
O O3 0.649872 0.105338 0.700000
O O4 0.901088 0.146233 0.607904
O O5 0.427419 0.857636 0.691343
O O6 0.649534 0.739501 0.582083
O O7 0.605485 0.018077 0.578624
O O8 0.670697 0.929625 0.629167
O O9 0.827944 0.113934 0.767588
O O10 0.748638 0.361613 0.816966
O O11 0.500000 0.513010 0.250000
O O12 0.707737 0.379133 0.134783
O O13 0.393905 0.749113 0.012114
O O14 0.271345 0.007310 0.039730
O O15 0.750000 0.250000 0.500000
O O16 0.864682 0.001294 0.480453
O O17 0.500000 0.870043 0.750000
O O18 0.500000 0.500000 0.000000
#
# Coordination Sequence:
#
# PCOD9268153 Si02
#       8
#     8   8   8   8   8   8   8   8
#     4  12  25  41  64 100 142 169 227 295 350 400
#     4  10  19  42  71  92 131 183 228 271 347 414
#     4  11  21  43  65 100 126 181 226 283 350 407
#     4  12  25  43  72 100 132 181 237 285 338 423
#     4  11  22  44  71  97 139 183 233 284 346 420
#     4  11  25  44  72 104 134 184 242 286 338 425
#     4  10  21  40  65  90 132 184 224 271 348 424
#     4  11  26  47  69 102 143 190 228 290 365 418
#
# _framework density 22.691196999999999
#
# number of rings (size 3 to 8) (size 9 to 14) (size 15 to 20)
#    0.000    1.000    2.500    6.000    3.500    0.500 
#    2.250    0.000    0.000    0.000    0.000    0.000 
#    0.000    0.000    0.000    0.000    0.000    0.000 
#
# Total GULP energy -178651.248442 kJ/mol
# GULP energy per Si atom -5582.851514 kJ/mol
# Density = 2.263955 g / cm^3
# Si number density = 22.691197 Si / 1000 Ang^3
#
#
#
# Elastic Constant Matrix: (Units=GPa)
#
#
# Indices 1 2 3 4 5 6 
#
# 1 60.3568 31.9961 25.7464 -0.0006 7.8761 -0.0009
# 2 31.9961 154.5706 29.0457 -0.0010 7.3572 -0.0009
# 3 25.7464 29.0457 77.6162 0.0001 15.9055 0.0000
# 4 -0.0006 -0.0010 0.0001 12.2025 -0.0001 4.7516
# 5 7.8761 7.3572 15.9055 -0.0001 30.6745 -0.0004
# 6 -0.0009 -0.0009 0.0000 4.7516 -0.0004 34.9360
#
#
#
# Elastic Compliance Matrix: (Units=1/GPa)
#
#
# Indices 1 2 3 4 5 6 
#
# 1 0.020777 -0.003215 -0.005319 0.000001 -0.001806 0.000000
# 2 -0.003215 0.007460 -0.001709 0.000000 -0.000077 0.000000
# 3 -0.005319 -0.001709 0.016698 0.000000 -0.006883 0.000000
# 4 0.000001 0.000000 0.000000 0.086533 0.000000 -0.011769
# 5 -0.001806 -0.000077 -0.006883 0.000000 0.036651 0.000000
# 6 0.000000 0.000000 0.000000 -0.011769 0.000000 0.030224
#
#
# Mechanical properties :
#
#
# Convention : Reuss Voigt Hill
#
# Bulk Modulus (GPa) = 40.90218 51.79111 46.34664
# Shear Modulus (GPa) = 22.02830 29.27964 25.65397
#
# Velocity S-wave (km/s) = 3.11912 3.59604 3.36604
# Velocity P-wave (km/s) = 5.57105 6.33371 5.96458
#
# Compressibility (1/GPa) = 0.02444858
#
# Stress axis : x y z
#
# Youngs Moduli (GPa) = 48.12981 134.04821 59.88624
#
# Poissons Ratio (x) = 0.43103 0.31852
# Poissons Ratio (y) = 0.15476 0.10236
# Poissons Ratio (z) = 0.25599 0.22912
#
# Static dielectric constant tensor:
#      x y z
#    x 1.886120 0.000000 0.009290 
#    y 0.000000 1.845790 0.000000 
#    z 0.009290 0.000000 1.981980 
# 
# From -- ./inp_files/313128.got.cif
#   From: 2010.05.17/outbox.cif.g08.bks.cpg/sg15_157_cif.got.tgz:313128.got - 2010.06.03 18:47:42.
