data_PCOD9268221
_publ_section_title
;
Structure prediction by ZEFSAII (Michael W. Deem and Ramdas Pophale) SiO2 
 PCOD9268221
Probable space group: C 2/C
;
_chemical_formula_sum "Si O2"
_cell_formula_units_Z 48
_cell_length_a 4.959681
_cell_length_b 18.604460
_cell_length_c 19.465811
_cell_angle_alpha 90.000000
_cell_angle_beta 88.303208
_cell_angle_gamma 90.000000
_cell_volume 1795.365370
_symmetry_space_group_name_H-M "C 2/C"
_symmetry_group_IT_number 15
_symmetry_cell_setting 'monoclinic'
loop_
_space_group_symop_operation_xyz
x,y,z
-x,y,1/2-z
-x,-y,-z
x,-y,1/2+z
1/2+x,1/2+y,z
1/2-x,1/2+y,1/2-z
1/2-x,1/2-y,-z
1/2+x,1/2-y,1/2+z
loop_
_atom_site_type_symbol
_atom_site_label
_atom_site_fract_x
_atom_site_fract_y
_atom_site_fract_z
Si Si1 0.865452 0.819940 0.139210
Si Si2 0.500000 0.564592 0.750000
Si Si3 0.484439 0.590029 0.458114
Si Si4 0.191817 0.320440 0.635340
Si Si5 0.512780 0.089042 0.947851
Si Si6 0.653884 0.022989 0.153471
Si Si7 0.000000 0.241762 0.250000
O O1 0.023756 0.881569 0.182848
O O2 0.664424 0.845845 0.081383
O O3 0.665396 0.790274 0.197963
O O4 0.044347 0.752200 0.114528
O O5 0.730231 0.509476 0.776556
O O6 0.550457 0.662607 0.415161
O O7 0.194722 0.568637 0.488953
O O8 0.593192 0.532527 0.401824
O O9 0.698340 0.598063 0.519431
O O10 0.034951 0.396306 0.646765
O O11 0.298393 0.306378 0.709780
O O12 0.521571 0.035802 0.883582
#
# Coordination Sequence:
#
# PCOD9268221 Si02
#       7
#     8   4   8   8   8   8   4
#     4  11  25  42  74  98 147 188 244 310 365 435
#     4  10  19  46  70 105 134 190 256 290 373 434
#     4  10  25  43  74 104 148 190 242 300 363 437
#     4  10  24  41  70 102 143 186 236 304 369 425
#     4  11  24  47  72 107 144 191 249 294 363 439
#     4   9  22  41  74 101 142 194 239 307 355 436
#     4  12  23  46  66  99 142 190 240 304 367 438
#
# _framework density 26.735506999999998
#
# number of rings (size 3 to 8) (size 9 to 14) (size 15 to 20)
#    1.000    0.667    1.667    1.500    4.667    1.333 
#    3.000    1.667   18.333    0.000    0.000    0.000 
#    0.000    0.000    0.000    0.000    0.000    0.000 
#
# Total GULP energy -134096.663855 kJ/mol
# GULP energy per Si atom -5587.360994 kJ/mol
# Density = 2.667466 g / cm^3
# Si number density = 26.735507 Si / 1000 Ang^3
#
#
#
# Elastic Constant Matrix: (Units=GPa)
#
#
# Indices 1 2 3 4 5 6 
#
# 1 115.4914 31.6405 20.0487 0.0000 4.7137 0.0000
# 2 31.6405 140.6592 20.8657 0.0000 17.4682 0.0000
# 3 20.0487 20.8657 126.1306 0.0000 46.4206 0.0000
# 4 0.0000 0.0000 0.0000 62.4967 0.0000 -7.0465
# 5 4.7137 17.4682 46.4206 0.0000 56.8796 0.0000
# 6 0.0000 0.0000 0.0000 -7.0465 0.0000 32.5058
#
#
#
# Elastic Compliance Matrix: (Units=1/GPa)
#
#
# Indices 1 2 3 4 5 6 
#
# 1 0.009443 -0.002030 -0.001582 0.000000 0.001132 0.000000
# 2 -0.002030 0.007855 -0.000216 0.000000 -0.002068 0.000000
# 3 -0.001582 -0.000216 0.011639 0.000000 -0.009301 0.000000
# 4 0.000000 0.000000 0.000000 0.016402 0.000000 0.003556
# 5 0.001132 -0.002068 -0.009301 0.000000 0.025713 0.000000
# 6 0.000000 0.000000 0.000000 0.003556 0.000000 0.031535
#
#
# Mechanical properties :
#
#
# Convention : Reuss Voigt Hill
#
# Bulk Modulus (GPa) = 46.98858 58.59901 52.79379
# Shear Modulus (GPa) = 42.61311 51.02483 46.81897
#
# Velocity S-wave (km/s) = 3.99667 4.37338 4.18926
# Velocity P-wave (km/s) = 6.23789 6.88967 6.57187
#
# Compressibility (1/GPa) = 0.02128177
#
# Stress axis : x y z
#
# Youngs Moduli (GPa) = 105.89611 127.30971 85.92154
#
# Poissons Ratio (x) = 0.25845 0.13590
# Poissons Ratio (y) = 0.21498 0.01852
# Poissons Ratio (z) = 0.16750 0.02745
#
# Static dielectric constant tensor:
#      x y z
#    x 2.122970 0.000000 -0.008800 
#    y 0.000000 2.237970 0.000000 
#    z -0.008800 0.000000 2.081380 
# 
# From -- ./inp_files/227380.got.cif
#   From: 2010.05.17/outbox.cif.g08.bks.cpg/sg15_114_cif.got.tgz:227380.got - 2010.06.03 18:47:42.
