data_PCOD9268906
_publ_section_title
;
Structure prediction by ZEFSAII (Michael W. Deem and Ramdas Pophale) SiO2 
 PCOD9268906
Probable space group: C 2/C
;
_chemical_formula_sum "Si O2"
_cell_formula_units_Z 56
_cell_length_a 12.335241
_cell_length_b 24.820102
_cell_length_c 10.303906
_cell_angle_alpha 90.000000
_cell_angle_beta 60.711598
_cell_angle_gamma 90.000000
_cell_volume 2751.397859
_symmetry_space_group_name_H-M "C 2/C"
_symmetry_group_IT_number 15
_symmetry_cell_setting 'monoclinic'
loop_
_space_group_symop_operation_xyz
x,y,z
-x,y,1/2-z
-x,-y,-z
x,-y,1/2+z
1/2+x,1/2+y,z
1/2-x,1/2+y,1/2-z
1/2-x,1/2-y,-z
1/2+x,1/2-y,1/2+z
loop_
_atom_site_type_symbol
_atom_site_label
_atom_site_fract_x
_atom_site_fract_y
_atom_site_fract_z
Si Si1 0.000000 0.137448 0.750000
Si Si2 0.196245 0.491843 0.554207
Si Si3 0.596113 0.436328 0.793607
Si Si4 0.500000 0.071870 0.750000
Si Si5 0.660070 0.106700 0.274599
Si Si6 0.390148 0.895385 0.063312
Si Si7 0.235971 0.186505 0.497288
Si Si8 0.398641 0.449774 0.124705
O O1 0.908156 0.170956 0.896505
O O2 0.906836 0.101548 0.715164
O O3 0.083590 0.533467 0.611725
O O4 0.167831 0.446082 0.678688
O O5 0.177391 0.451478 0.440604
O O6 0.306447 0.528718 0.560465
O O7 0.500000 0.412455 0.750000
O O8 0.725549 0.406893 0.698579
O O9 0.608560 0.500409 0.770271
O O10 0.530001 0.438275 0.973123
O O11 0.586827 0.103924 0.796965
O O12 0.524405 0.109559 0.414061
O O13 0.704601 0.158475 0.165795
O O14 0.313541 0.844058 0.062736
O O15 0.250000 0.250000 0.500000
#
# Coordination Sequence:
#
# PCOD9268906 Si02
#       8
#     4   8   8   4   8   8   8   8
#     4  12  22  42  63  96 127 160 218 266 322 390
#     4  10  20  34  59  90 131 171 205 249 306 378
#     4  10  20  33  55  87 129 173 203 233 305 380
#     4  12  22  36  59  96 131 174 206 246 316 384
#     4  10  21  41  61  92 126 167 210 261 315 379
#     4  11  24  41  63  95 132 169 220 262 315 389
#     4  11  25  44  71  91 117 160 222 285 327 371
#     4  10  21  34  55  87 131 167 203 251 300 376
#
# _framework density 20.353290000000001
#
# number of rings (size 3 to 8) (size 9 to 14) (size 15 to 20)
#    0.000    1.429    3.571    2.571    6.000    1.143 
#    0.000    0.000    1.571    0.857    0.000    0.000 
#    0.000    0.000    0.000    0.000    0.000    0.000 
#
# Total GULP energy -155867.899275 kJ/mol
# GULP energy per Si atom -5566.710688 kJ/mol
# Density = 2.030697 g / cm^3
# Si number density = 20.353290 Si / 1000 Ang^3
#
#
#
# Elastic Constant Matrix: (Units=GPa)
#
#
# Indices 1 2 3 4 5 6 
#
# 1 122.4630 42.5354 30.5088 0.0000 -0.2307 0.0000
# 2 42.5354 115.3918 49.7957 0.0000 -13.6742 0.0000
# 3 30.5088 49.7957 72.2602 0.0000 -20.4646 0.0000
# 4 0.0000 0.0000 0.0000 5.3559 0.0000 -9.4713
# 5 -0.2307 -13.6742 -20.4646 0.0000 44.2923 0.0000
# 6 0.0000 0.0000 0.0000 -9.4713 0.0000 16.7358
#
#
#
# Elastic Compliance Matrix: (Units=1/GPa)
#
#
# Indices 1 2 3 4 5 6 
#
# 1 0.009796 -0.002588 -0.002950 0.000000 -0.002111 0.000000
# 2 -0.002588 0.013018 -0.007759 0.000000 0.000420 0.000000
# 3 -0.002950 -0.007759 0.022722 0.000000 0.008088 0.000000
# 4 0.000000 0.000000 0.000000********** 0.000000**********
# 5 -0.002111 0.000420 0.008088 0.000000 0.026433 0.000000
# 6 0.000000 0.000000 0.000000********** 0.000000-75.719948
#
#
# Mechanical properties :
#
#
# Convention : Reuss Voigt Hill
#
# Bulk Modulus (GPa) = 52.79600 61.75498 57.27549
# Shear Modulus (GPa) = -0.01601 25.76180 12.87289
#
# Velocity S-wave (km/s) = -0.08880 3.56157 2.51763
# Velocity P-wave (km/s) = 5.09761 6.87899 6.05417
#
# Compressibility (1/GPa) = 0.01894083
#
# Stress axis : x y z
#
# Youngs Moduli (GPa) = 102.08671 76.81456 44.00987
#
# Poissons Ratio (x) = 0.19878 0.12984
# Poissons Ratio (y) = 0.26418 0.34149
# Poissons Ratio (z) = 0.30119 0.59604
#
# Static dielectric constant tensor:
#      x y z
#    x 1.842620 0.000000 -0.008480 
#    y 0.000000 1.681730 0.000000 
#    z -0.008480 0.000000 1.998690 
# 
# From -- ./inp_files/90733.got.cif
#   From: 2010.05.17/outbox.cif.g08.bks.cpg/sg15_46_cif.got.tgz:90733.got - 2010.06.03 18:47:42.
