data_PCOD9268632
_publ_section_title
;
Structure prediction by ZEFSAII (Michael W. Deem and Ramdas Pophale) SiO2 
 PCOD9268632
Probable space group: C 2/C
;
_chemical_formula_sum "Si O2"
_cell_formula_units_Z 60
_cell_length_a 14.911026
_cell_length_b 14.990770
_cell_length_c 11.068160
_cell_angle_alpha 90.000000
_cell_angle_beta 61.609822
_cell_angle_gamma 90.000000
_cell_volume 2176.488345
_symmetry_space_group_name_H-M "C 2/C"
_symmetry_group_IT_number 15
_symmetry_cell_setting 'monoclinic'
loop_
_space_group_symop_operation_xyz
x,y,z
-x,y,1/2-z
-x,-y,-z
x,-y,1/2+z
1/2+x,1/2+y,z
1/2-x,1/2+y,1/2-z
1/2-x,1/2-y,-z
1/2+x,1/2-y,1/2+z
loop_
_atom_site_type_symbol
_atom_site_label
_atom_site_fract_x
_atom_site_fract_y
_atom_site_fract_z
Si Si1 0.664511 0.816339 0.947079
Si Si2 0.628955 0.924784 0.732227
Si Si3 0.368457 0.760673 0.898425
Si Si4 0.361998 0.122242 0.761361
Si Si5 0.134312 0.150550 0.834828
Si Si6 0.371477 0.579518 0.025684
Si Si7 0.405388 0.312874 0.723453
Si Si8 0.500000 0.476439 0.250000
O O1 0.622288 0.880005 0.868714
O O2 0.622423 0.714420 0.959357
O O3 0.787446 0.812969 0.844852
O O4 0.644515 0.853050 0.092723
O O5 0.594478 0.862078 0.639235
O O6 0.750428 0.929427 0.620121
O O7 0.590078 0.024876 0.773424
O O8 0.375624 0.727521 0.757827
O O9 0.250000 0.750000 0.000000
O O10 0.407007 0.676749 0.948848
O O11 0.249783 0.115893 0.773756
O O12 0.412643 0.210236 0.669136
O O13 0.092245 0.004673 0.593094
O O14 0.411744 0.600786 0.133245
O O15 0.568189 0.574559 0.812723
O O16 0.500000 0.326114 0.750000
#
# Coordination Sequence:
#
# PCOD9268632 Si02
#       8
#     8   8   8   8   8   8   8   4
#     4   9  20  36  57  84 112 160 199 239 291 355
#     4   9  19  35  55  83 116 147 193 245 293 349
#     4   8  14  30  53  75 101 138 190 236 271 330
#     4  11  21  34  61  85 116 156 193 242 305 357
#     4   9  18  32  51  81 108 144 202 228 279 346
#     4   9  19  34  56  85 112 152 199 238 285 342
#     4  10  21  36  60  86 118 151 199 246 290 349
#     4  10  20  32  60  86 114 154 190 252 286 336
#
# _framework density 27.567343000000001
#
# number of rings (size 3 to 8) (size 9 to 14) (size 15 to 20)
#    0.000    2.667    0.000    4.000    3.733    4.267 
#    0.000    0.667   20.533    1.600    0.000    0.000 
#    0.000    0.000    0.000    0.000    0.000    0.000 
#
# Total GULP energy -167150.142286 kJ/mol
# GULP energy per Si atom -5571.671410 kJ/mol
# Density = 2.750460 g / cm^3
# Si number density = 27.567343 Si / 1000 Ang^3
#
#
#
# Elastic Constant Matrix: (Units=GPa)
#
#
# Indices 1 2 3 4 5 6 
#
# 1 121.9619 14.9457 -5.4318 0.0000 3.7004 0.0000
# 2 14.9457 179.0989 30.9276 0.0000 18.5722 0.0000
# 3 -5.4318 30.9276 60.0274 0.0000 -12.6063 0.0000
# 4 0.0000 0.0000 0.0000 -17.5299 0.0000 -27.5802
# 5 3.7004 18.5722 -12.6063 0.0000 31.1400 0.0000
# 6 0.0000 0.0000 0.0000 -27.5802 0.0000 4.7196
#
#
#
# Elastic Compliance Matrix: (Units=1/GPa)
#
#
# Indices 1 2 3 4 5 6 
#
# 1 0.008365 -0.000918 0.001242 0.000000 0.000057 0.000000
# 2 -0.000918 0.007187 -0.005097 0.000000 -0.006241 0.000000
# 3 0.001242 -0.005097 0.021864 0.000000 0.011743 0.000000
# 4 0.000000 0.000000 0.000000 -0.005596 0.000000 -0.032701
# 5 0.000057 -0.006241 0.011743 0.000000 0.040583 0.000000
# 6 0.000000 0.000000 0.000000 -0.032701 0.000000 0.020785
#
#
# Mechanical properties :
#
#
# Convention : Reuss Voigt Hill
#
# Bulk Modulus (GPa) = 35.88091 49.10794 42.49442
# Shear Modulus (GPa) = 44.63304 25.04239 34.83771
#
# Velocity S-wave (km/s) = 4.02811 3.01725 3.55876
# Velocity P-wave (km/s) = 5.88882 5.47639 5.68635
#
# Compressibility (1/GPa) = 0.02786997
#
# Stress axis : x y z
#
# Youngs Moduli (GPa) = 119.53953 139.13076 45.73791
#
# Poissons Ratio (x) = 0.12778 -0.05681
# Poissons Ratio (y) = 0.10979 0.23312
# Poissons Ratio (z) = -0.14847 0.70914
#
# Static dielectric constant tensor:
#      x y z
#    x 2.197780 0.000000 0.004630 
#    y 0.000000 2.357320 0.000000 
#    z 0.004630 0.000000 2.228170 
# 
# From -- ./inp_files/106378.got.cif
#   From: 2010.05.17/outbox.cif.g08.bks.cpg/sg15_54_cif.got.tgz:106378.got - 2010.06.03 18:47:42.
