data_PCOD9268727
_publ_section_title
;
Structure prediction by ZEFSAII (Michael W. Deem and Ramdas Pophale) SiO2 
 PCOD9268727
Probable space group: C 2/C
;
_chemical_formula_sum "Si O2"
_cell_formula_units_Z 44
_cell_length_a 25.771256
_cell_length_b 9.715389
_cell_length_c 18.871069
_cell_angle_alpha 90.000000
_cell_angle_beta 160.650689
_cell_angle_gamma 90.000000
_cell_volume 1565.483557
_symmetry_space_group_name_H-M "C 2/C"
_symmetry_group_IT_number 15
_symmetry_cell_setting 'monoclinic'
loop_
_space_group_symop_operation_xyz
x,y,z
-x,y,1/2-z
-x,-y,-z
x,-y,1/2+z
1/2+x,1/2+y,z
1/2-x,1/2+y,1/2-z
1/2-x,1/2-y,-z
1/2+x,1/2-y,1/2+z
loop_
_atom_site_type_symbol
_atom_site_label
_atom_site_fract_x
_atom_site_fract_y
_atom_site_fract_z
Si Si1 0.764365 0.008535 0.214748
Si Si2 0.407033 0.288486 0.502356
Si Si3 0.978471 0.634021 0.406397
Si Si4 0.500000 0.287905 0.250000
Si Si5 0.822872 0.621785 0.692073
Si Si6 0.324559 0.610839 0.656385
O O1 0.877039 0.920218 0.412181
O O2 0.802663 0.018621 0.180709
O O3 0.709348 0.159398 0.170702
O O4 0.609934 0.913181 0.021255
O O5 0.341859 0.329746 0.494524
O O6 0.576558 0.219286 0.727779
O O7 0.832499 0.540621 0.192260
O O8 0.920191 0.786633 0.330567
O O9 0.064318 0.620810 0.592214
O O10 0.553593 0.388095 0.252970
O O11 0.651683 0.184157 0.431844
#
# Coordination Sequence:
#
# PCOD9268727 Si02
#       6
#     8   8   8   4   8   8
#     4  10  20  34  55  81 121 146 176 216 278 326
#     4  10  20  33  50  83 119 150 179 205 260 352
#     4   9  17  33  53  73 114 153 168 210 286 324
#     4  10  24  34  56  78 106 132 208 240 280 296
#     4   9  18  32  49  79 115 150 175 201 261 351
#     4  11  19  38  53  82 105 147 182 245 270 317
#
# _framework density 28.106332999999999
#
# number of rings (size 3 to 8) (size 9 to 14) (size 15 to 20)
#    0.000    2.182    3.636    1.091    0.000    0.727 
#    3.273    0.000    0.000    0.000    0.000    7.636 
#    0.000    0.000    0.000    0.000    0.000    0.000 
#
# Total GULP energy -122528.095347 kJ/mol
# GULP energy per Si atom -5569.458879 kJ/mol
# Density = 2.804236 g / cm^3
# Si number density = 28.106333 Si / 1000 Ang^3
#
#
#
# Elastic Constant Matrix: (Units=GPa)
#
#
# Indices 1 2 3 4 5 6 
#
# 1 153.8230 24.5282 44.6123 0.0000 54.0845 0.0000
# 2 24.5282 95.2595 19.2507 0.0000 2.5643 0.0000
# 3 44.6123 19.2507 104.3341 0.0000 22.2199 0.0000
# 4 0.0000 0.0000 0.0000 35.7727 0.0000 12.9159
# 5 54.0845 2.5643 22.2199 0.0000 37.1453 0.0000
# 6 0.0000 0.0000 0.0000 12.9159 0.0000 15.9293
#
#
#
# Elastic Compliance Matrix: (Units=1/GPa)
#
#
# Indices 1 2 3 4 5 6 
#
# 1 0.014342 -0.002881 -0.001371 0.000000 -0.019864 0.000000
# 2 -0.002881 0.011492 -0.001848 0.000000 0.004507 0.000000
# 3 -0.001371 -0.001848 0.011528 0.000000 -0.004773 0.000000
# 4 0.000000 0.000000 0.000000 0.039526 0.000000 -0.032049
# 5 -0.019864 0.004507 -0.004773 0.000000 0.058387 0.000000
# 6 0.000000 0.000000 0.000000 -0.032049 0.000000 0.088763
#
#
# Mechanical properties :
#
#
# Convention : Reuss Voigt Hill
#
# Bulk Modulus (GPa) = 39.74307 58.91103 49.32705
# Shear Modulus (GPa) = 20.43944 35.43780 27.93862
#
# Velocity S-wave (km/s) = 2.69962 3.55469 3.15625
# Velocity P-wave (km/s) = 4.88756 6.15251 5.55615
#
# Compressibility (1/GPa) = 0.02516162
#
# Stress axis : x y z
#
# Youngs Moduli (GPa) = 69.72551 87.01925 86.74433
#
# Poissons Ratio (x) = 0.25072 0.11889
# Poissons Ratio (y) = 0.20089 0.16033
# Poissons Ratio (z) = 0.09556 0.16084
#
# Static dielectric constant tensor:
#      x y z
#    x 2.361580 0.000000 0.000740 
#    y 0.000000 2.387550 0.000000 
#    z 0.000740 0.000000 2.192460 
# 
# From -- ./inp_files/284534.got.cif
#   From: 2010.05.17/outbox.cif.g08.bks.cpg/sg15_143_cif.got.tgz:284534.got - 2010.06.03 18:47:42.
