data_PCOD9268261
_publ_section_title
;
Structure prediction by ZEFSAII (Michael W. Deem and Ramdas Pophale) SiO2 
 PCOD9268261
Probable space group: C 2/C
;
_chemical_formula_sum "Si O2"
_cell_formula_units_Z 60
_cell_length_a 16.063453
_cell_length_b 20.453019
_cell_length_c 9.969970
_cell_angle_alpha 90.000000
_cell_angle_beta 108.722600
_cell_angle_gamma 90.000000
_cell_volume 3102.262626
_symmetry_space_group_name_H-M "C 2/C"
_symmetry_group_IT_number 15
_symmetry_cell_setting 'monoclinic'
loop_
_space_group_symop_operation_xyz
x,y,z
-x,y,1/2-z
-x,-y,-z
x,-y,1/2+z
1/2+x,1/2+y,z
1/2-x,1/2+y,1/2-z
1/2-x,1/2-y,-z
1/2+x,1/2-y,1/2+z
loop_
_atom_site_type_symbol
_atom_site_label
_atom_site_fract_x
_atom_site_fract_y
_atom_site_fract_z
Si Si1 0.745636 0.796061 0.756198
Si Si2 0.702321 0.920735 0.857399
Si Si3 0.482461 0.050099 0.905450
Si Si4 0.590234 0.312190 0.854767
Si Si5 0.221567 0.466650 0.160166
Si Si6 0.615710 0.830940 0.453159
Si Si7 0.718461 0.652393 0.657723
Si Si8 0.000000 0.445210 0.750000
O O1 0.742848 0.848076 0.875531
O O2 0.836427 0.806998 0.723415
O O3 0.668038 0.820873 0.618117
O O4 0.727587 0.718235 0.753325
O O5 0.596785 0.912961 0.805396
O O6 0.728400 0.963613 0.739115
O O7 0.726984 0.963733 0.001693
O O8 0.500000 0.029576 0.750000
O O9 0.377087 0.058094 0.856347
O O10 0.456886 0.114397 0.572453
O O11 0.503162 0.035746 0.081651
O O12 0.500000 0.341285 0.750000
O O13 0.573150 0.237757 0.891677
O O14 0.638678 0.343212 0.009509
O O15 0.284978 0.412969 0.257359
O O16 0.692803 0.847380 0.386934
#
# Coordination Sequence:
#
# PCOD9268261 Si02
#       8
#     8   8   8   8   8   8   8   4
#     4   9  20  35  56  82 120 151 198 251 285 344
#     4  11  23  37  55  87 123 163 196 238 290 359
#     4  11  19  29  48  83 125 157 190 218 262 361
#     4   9  19  34  60  87 107 146 201 258 302 339
#     4  11  24  35  58  86 123 165 192 234 297 360
#     4   9  17  31  53  82 118 155 189 234 280 346
#     4   9  20  37  55  83 116 156 199 245 298 349
#     4  10  20  30  46  80 126 160 186 216 270 346
#
# _framework density 19.340722
#
# number of rings (size 3 to 8) (size 9 to 14) (size 15 to 20)
#    0.000    2.133    1.333    4.800    8.400    0.533 
#    0.000    0.000    0.000    1.600    0.000    0.000 
#    0.000    0.000    0.000    0.000    0.000    0.000 
#
# Total GULP energy -167189.125899 kJ/mol
# GULP energy per Si atom -5572.970863 kJ/mol
# Density = 1.929670 g / cm^3
# Si number density = 19.340722 Si / 1000 Ang^3
#
#
#
# Elastic Constant Matrix: (Units=GPa)
#
#
# Indices 1 2 3 4 5 6 
#
# 1 46.1996 28.4898 15.1214 0.0000 10.6292 0.0000
# 2 28.4898 84.3358 17.2630 0.0000 -1.1707 0.0000
# 3 15.1214 17.2630 91.7274 0.0000 -2.4571 0.0000
# 4 0.0000 0.0000 0.0000 32.0047 0.0000 -2.2032
# 5 10.6292 -1.1707 -2.4571 0.0000 36.5566 0.0000
# 6 0.0000 0.0000 0.0000 -2.2032 0.0000 28.4391
#
#
#
# Elastic Compliance Matrix: (Units=1/GPa)
#
#
# Indices 1 2 3 4 5 6 
#
# 1 0.031131 -0.009929 -0.003521 0.000000 -0.009606 0.000000
# 2 -0.009929 0.015501 -0.001192 0.000000 0.003303 0.000000
# 3 -0.003521 -0.001192 0.011754 0.000000 0.001775 0.000000
# 4 0.000000 0.000000 0.000000 0.031413 0.000000 0.002434
# 5 -0.009606 0.003303 0.001775 0.000000 0.030373 0.000000
# 6 0.000000 0.000000 0.000000 0.002434 0.000000 0.035351
#
#
# Mechanical properties :
#
#
# Convention : Reuss Voigt Hill
#
# Bulk Modulus (GPa) = 34.36105 38.22347 36.29226
# Shear Modulus (GPa) = 25.70593 30.15931 27.93262
#
# Velocity S-wave (km/s) = 3.64965 3.95317 3.80444
# Velocity P-wave (km/s) = 5.96361 6.37517 6.17282
#
# Compressibility (1/GPa) = 0.02910272
#
# Stress axis : x y z
#
# Youngs Moduli (GPa) = 32.12282 64.51033 85.07638
#
# Poissons Ratio (x) = 0.64053 0.29952
# Poissons Ratio (y) = 0.31895 0.10142
# Poissons Ratio (z) = 0.11309 0.07690
#
# Static dielectric constant tensor:
#      x y z
#    x 1.614380 0.000000 -0.030170 
#    y 0.000000 1.707460 0.000000 
#    z -0.030170 0.000000 1.776090 
# 
# From -- ./inp_files/51304.got.cif
#   From: 2010.05.17/outbox.cif.g08.bks.cpg/sg15_26_cif.got.tgz:51304.got - 2010.06.03 18:47:42.
