data_PCOD9268115
_publ_section_title
;
Structure prediction by ZEFSAII (Michael W. Deem and Ramdas Pophale) SiO2 
 PCOD9268115
Probable space group: C 2/C
;
_chemical_formula_sum "Si O2"
_cell_formula_units_Z 64
_cell_length_a 12.025831
_cell_length_b 15.364195
_cell_length_c 17.412159
_cell_angle_alpha 90.000000
_cell_angle_beta 91.240101
_cell_angle_gamma 90.000000
_cell_volume 3216.442554
_symmetry_space_group_name_H-M "C 2/C"
_symmetry_group_IT_number 15
_symmetry_cell_setting 'monoclinic'
loop_
_space_group_symop_operation_xyz
x,y,z
-x,y,1/2-z
-x,-y,-z
x,-y,1/2+z
1/2+x,1/2+y,z
1/2-x,1/2+y,1/2-z
1/2-x,1/2-y,-z
1/2+x,1/2-y,1/2+z
loop_
_atom_site_type_symbol
_atom_site_label
_atom_site_fract_x
_atom_site_fract_y
_atom_site_fract_z
Si Si1 0.702814 0.809997 0.635689
Si Si2 0.911680 0.882706 0.580917
Si Si3 0.762799 0.815992 0.813014
Si Si4 0.531638 0.127235 0.339979
Si Si5 0.027133 0.713690 0.658695
Si Si6 0.940210 0.544639 0.572119
Si Si7 0.698364 0.380274 0.078158
Si Si8 0.420968 0.513337 0.323022
O O1 0.786095 0.886039 0.611406
O O2 0.726474 0.796246 0.725672
O O3 0.575325 0.834751 0.618612
O O4 0.728496 0.719557 0.594641
O O5 0.893024 0.879552 0.490280
O O6 0.960202 0.795682 0.622125
O O7 0.993922 0.957808 0.608823
O O8 0.648400 0.825835 0.857326
O O9 0.844539 0.741827 0.843792
O O10 0.834001 0.906251 0.812162
O O11 0.500000 0.133795 0.250000
O O12 0.551857 0.027958 0.361939
O O13 0.000000 0.704305 0.750000
O O14 0.998564 0.630122 0.607713
O O15 0.811239 0.569589 0.556559
O O16 0.000000 0.500000 0.500000
O O17 0.646236 0.428513 0.151361
O O18 0.500000 0.503485 0.250000
#
# Coordination Sequence:
#
# PCOD9268115 Si02
#       8
#     8   8   8   8   8   8   8   8
#     4  11  21  40  66  95 126 170 216 262 325 390
#     4  11  21  39  67  96 124 168 216 265 324 383
#     4  10  19  42  65  95 124 168 220 272 320 377
#     4  10  23  39  65  91 132 169 210 271 331 374
#     4  11  21  41  71  95 122 170 230 265 309 393
#     4  12  25  42  62  98 135 171 216 267 326 388
#     4  12  25  40  64  98 136 164 217 271 328 389
#     4  11  22  42  68  93 129 170 219 270 321 389
#
# _framework density 19.897759000000001
#
# number of rings (size 3 to 8) (size 9 to 14) (size 15 to 20)
#    0.000    1.000    5.000    2.625    1.750    1.500 
#    0.000    4.375    0.000    0.000    0.000    0.000 
#    0.000    0.000    0.000    0.000    0.000    0.000 
#
# Total GULP energy -178630.941272 kJ/mol
# GULP energy per Si atom -5582.216915 kJ/mol
# Density = 1.985247 g / cm^3
# Si number density = 19.897759 Si / 1000 Ang^3
#
#
#
# Elastic Constant Matrix: (Units=GPa)
#
#
# Indices 1 2 3 4 5 6 
#
# 1 143.2920 30.3776 23.7634 0.0000 0.8838 0.0000
# 2 30.3776 51.3096 11.8674 0.0000 3.0121 0.0000
# 3 23.7634 11.8674 47.4201 0.0000 14.5809 0.0000
# 4 0.0000 0.0000 0.0000 23.6078 0.0000 0.5310
# 5 0.8838 3.0121 14.5809 0.0000 26.4718 0.0000
# 6 0.0000 0.0000 0.0000 0.5310 0.0000 31.9118
#
#
#
# Elastic Compliance Matrix: (Units=1/GPa)
#
#
# Indices 1 2 3 4 5 6 
#
# 1 0.008522 -0.004276 -0.003928 0.000000 0.002366 0.000000
# 2 -0.004276 0.022840 -0.003393 0.000000 -0.000587 0.000000
# 3 -0.003928 -0.003393 0.028588 0.000000 -0.015230 0.000000
# 4 0.000000 0.000000 0.000000 0.042375 0.000000 -0.000705
# 5 0.002366 -0.000587 -0.015230 0.000000 0.046152 0.000000
# 6 0.000000 0.000000 0.000000 -0.000705 0.000000 0.031348
#
#
# Mechanical properties :
#
#
# Convention : Reuss Voigt Hill
#
# Bulk Modulus (GPa) = 27.20512 41.55984 34.38248
# Shear Modulus (GPa) = 23.22652 28.13250 25.67951
#
# Velocity S-wave (km/s) = 3.42027 3.76420 3.59635
# Velocity P-wave (km/s) = 5.41293 6.31065 5.87895
#
# Compressibility (1/GPa) = 0.03675779
#
# Stress axis : x y z
#
# Youngs Moduli (GPa) = 117.34297 43.78245 34.97931
#
# Poissons Ratio (x) = 0.18721 0.13739
# Poissons Ratio (y) = 0.50174 0.11867
# Poissons Ratio (z) = 0.46091 0.14854
#
# Static dielectric constant tensor:
#      x y z
#    x 1.745580 0.000000 -0.012510 
#    y 0.000000 1.672480 0.000000 
#    z -0.012510 0.000000 1.718990 
# 
# From -- ./inp_files/198318.got.cif
#   From: 2010.05.17/outbox.cif.g08.bks.cpg/sg15_100_cif.got.tgz:198318.got - 2010.06.03 18:47:42.
