data_PCOD9268808
_publ_section_title
;
Structure prediction by ZEFSAII (Michael W. Deem and Ramdas Pophale) SiO2 
 PCOD9268808
Probable space group: C 2/C
;
_chemical_formula_sum "Si O2"
_cell_formula_units_Z 52
_cell_length_a 19.865173
_cell_length_b 26.384298
_cell_length_c 8.186380
_cell_angle_alpha 90.000000
_cell_angle_beta 43.883827
_cell_angle_gamma 90.000000
_cell_volume 2974.317679
_symmetry_space_group_name_H-M "C 2/C"
_symmetry_group_IT_number 15
_symmetry_cell_setting 'monoclinic'
loop_
_space_group_symop_operation_xyz
x,y,z
-x,y,1/2-z
-x,-y,-z
x,-y,1/2+z
1/2+x,1/2+y,z
1/2-x,1/2+y,1/2-z
1/2-x,1/2-y,-z
1/2+x,1/2-y,1/2+z
loop_
_atom_site_type_symbol
_atom_site_label
_atom_site_fract_x
_atom_site_fract_y
_atom_site_fract_z
Si Si1 0.000000 0.200368 0.250000
Si Si2 0.172821 0.574240 0.670201
Si Si3 0.111807 0.474624 0.609002
Si Si4 0.699069 0.747110 0.332243
Si Si5 0.600059 0.772369 0.828958
Si Si6 0.696946 0.668506 0.049419
Si Si7 0.526066 0.117680 0.398661
O O1 0.976204 0.237204 0.443838
O O2 0.903331 0.169034 0.376596
O O3 0.165073 0.524928 0.571825
O O4 0.259787 0.613293 0.493538
O O5 0.167422 0.552298 0.863859
O O6 0.071551 0.604799 0.833764
O O7 0.095226 0.431885 0.777689
O O8 0.000000 0.486726 0.750000
O O9 0.618531 0.755884 0.610234
O O10 0.799087 0.734452 0.250930
O O11 0.679434 0.701748 0.241951
O O12 0.722534 0.798777 0.192292
O O13 0.571436 0.830870 0.881123
O O14 0.500000 0.124066 0.250000
#
# Coordination Sequence:
#
# PCOD9268808 Si02
#       7
#     4   8   8   8   8   8   8
#     4  10  24  36  52  78 112 142 188 226 270 322
#     4  10  20  33  53  74 107 142 177 224 271 323
#     4   9  18  34  48  79 109 137 174 222 273 327
#     4   9  20  35  53  75 111 139 190 221 260 332
#     4  10  20  34  51  82 111 148 174 221 266 321
#     4  10  21  37  53  77 104 148 183 229 275 321
#     4   9  18  29  52  78 110 144 170 211 273 329
#
# _framework density 17.483001999999999
#
# number of rings (size 3 to 8) (size 9 to 14) (size 15 to 20)
#    0.000    2.769    0.000    3.692    8.615    2.462 
#    0.000    0.000    0.000    0.923    0.000    0.000 
#    0.000    0.000    0.000    0.000    0.000    0.000 
#
# Total GULP energy -145072.653746 kJ/mol
# GULP energy per Si atom -5579.717452 kJ/mol
# Density = 1.744321 g / cm^3
# Si number density = 17.483002 Si / 1000 Ang^3
#
#
#
# Elastic Constant Matrix: (Units=GPa)
#
#
# Indices 1 2 3 4 5 6 
#
# 1 35.8626 44.5318 18.3865 0.0000 -2.1012 0.0000
# 2 44.5318 134.2621 38.3351 0.0000 -14.8526 0.0000
# 3 18.3865 38.3351 75.2449 0.0000 4.0719 0.0000
# 4 0.0000 0.0000 0.0000 15.1954 0.0000 -7.3677
# 5 -2.1012 -14.8526 4.0719 0.0000 16.3554 0.0000
# 6 0.0000 0.0000 0.0000 -7.3677 0.0000 29.5893
#
#
#
# Elastic Compliance Matrix: (Units=1/GPa)
#
#
# Indices 1 2 3 4 5 6 
#
# 1 0.049331 -0.016236 -0.003373 0.000000 -0.007567 0.000000
# 2 -0.016236 0.015656 -0.004729 0.000000 0.013309 0.000000
# 3 -0.003373 -0.004729 0.017008 0.000000 -0.008962 0.000000
# 4 0.000000 0.000000 0.000000 0.074845 0.000000 0.018636
# 5 -0.007567 0.013309 -0.008962 0.000000 0.074487 0.000000
# 6 0.000000 0.000000 0.000000 0.018636 0.000000 0.038436
#
#
# Mechanical properties :
#
#
# Convention : Reuss Voigt Hill
#
# Bulk Modulus (GPa) = 30.01283 49.76406 39.88844
# Shear Modulus (GPa) = 15.17237 21.83577 18.50407
#
# Velocity S-wave (km/s) = 2.94910 3.53791 3.25684
# Velocity P-wave (km/s) = 5.36660 6.72422 6.08340
#
# Compressibility (1/GPa) = 0.03331909
#
# Stress axis : x y z
#
# Youngs Moduli (GPa) = 20.27122 63.87433 58.79435
#
# Poissons Ratio (x) = 1.03706 0.19832
# Poissons Ratio (y) = 0.32912 0.27804
# Poissons Ratio (z) = 0.06838 0.30206
#
# Static dielectric constant tensor:
#      x y z
#    x 1.635860 0.000000 0.022730 
#    y 0.000000 1.585390 0.000000 
#    z 0.022730 0.000000 1.608720 
# 
# From -- ./inp_files/58585.got.cif
#   From: 2010.05.17/outbox.cif.g08.bks.cpg/sg15_30_cif.got.tgz:58585.got - 2010.06.03 18:47:42.
