data_PCOD9268749
_publ_section_title
;
Structure prediction by ZEFSAII (Michael W. Deem and Ramdas Pophale) SiO2 
 PCOD9268749
Probable space group: C 2/C
;
_chemical_formula_sum "Si O2"
_cell_formula_units_Z 60
_cell_length_a 16.270193
_cell_length_b 7.048413
_cell_length_c 24.743314
_cell_angle_alpha 90.000000
_cell_angle_beta 127.394324
_cell_angle_gamma 90.000000
_cell_volume 2254.353582
_symmetry_space_group_name_H-M "C 2/C"
_symmetry_group_IT_number 15
_symmetry_cell_setting 'monoclinic'
loop_
_space_group_symop_operation_xyz
x,y,z
-x,y,1/2-z
-x,-y,-z
x,-y,1/2+z
1/2+x,1/2+y,z
1/2-x,1/2+y,1/2-z
1/2-x,1/2-y,-z
1/2+x,1/2-y,1/2+z
loop_
_atom_site_type_symbol
_atom_site_label
_atom_site_fract_x
_atom_site_fract_y
_atom_site_fract_z
Si Si1 0.500000 0.107159 0.250000
Si Si2 0.649107 0.241869 0.823988
Si Si3 0.490534 0.168180 0.363261
Si Si4 0.361952 0.198460 0.467696
Si Si5 0.590191 0.757392 0.006783
Si Si6 0.735193 0.960198 0.712836
Si Si7 0.669914 0.368384 0.645001
Si Si8 0.545327 0.283525 0.889779
O O1 0.495862 0.224401 0.303169
O O2 0.371195 0.159482 0.333825
O O3 0.762854 0.236669 0.895367
O O4 0.668055 0.361792 0.777730
O O5 0.760545 0.988650 0.786081
O O6 0.580639 0.336681 0.844100
O O7 0.568359 0.274566 0.434713
O O8 0.596446 0.961071 0.292321
O O9 0.520045 0.943478 0.376589
O O10 0.473581 0.238700 0.484758
O O11 0.367538 0.290883 0.529183
O O12 0.362066 0.968729 0.470988
O O13 0.654126 0.627780 0.073963
O O14 0.712284 0.157332 0.674550
O O15 0.555829 0.379333 0.625632
#
# Coordination Sequence:
#
# PCOD9268749 Si02
#       8
#     4   8   8   8   8   8   8   8
#     4  10  22  32  50  84 120 140 184 240 300 322
#     4  11  16  26  43  75 108 143 172 232 281 325
#     4   9  17  33  51  73 104 146 187 230 271 348
#     4   9  14  24  45  69 107 139 183 221 278 327
#     4   9  15  31  49  75 103 145 193 234 265 334
#     4  11  19  31  53  81 109 146 193 229 283 335
#     4  10  20  33  51  79 111 149 188 239 278 338
#     4   8  17  27  43  74 110 136 175 231 285 318
#
# _framework density 26.615168000000001
#
# number of rings (size 3 to 8) (size 9 to 14) (size 15 to 20)
#    0.000    2.400    2.667    4.400    0.000    0.000 
#    0.000    0.000    0.000    4.000    0.000    0.000 
#    0.000    0.000    0.000    1.067    0.000    0.000 
#
# Total GULP energy -167951.048697 kJ/mol
# GULP energy per Si atom -5598.368290 kJ/mol
# Density = 2.655459 g / cm^3
# Si number density = 26.615168 Si / 1000 Ang^3
#
#
#
# Elastic Constant Matrix: (Units=GPa)
#
#
# Indices 1 2 3 4 5 6 
#
# 1 99.8314 26.1629 43.7211 0.0000 -13.8655 0.0000
# 2 26.1629 89.6709 27.3025 0.0000 3.1564 0.0000
# 3 43.7211 27.3025 229.0775 0.0000 -16.8320 0.0000
# 4 0.0000 0.0000 0.0000 17.3361 0.0000 6.6630
# 5 -13.8655 3.1564 -16.8320 0.0000 55.1852 0.0000
# 6 0.0000 0.0000 0.0000 6.6630 0.0000 22.5248
#
#
#
# Elastic Compliance Matrix: (Units=1/GPa)
#
#
# Indices 1 2 3 4 5 6 
#
# 1 0.011938 -0.003053 -0.001720 0.000000 0.002650 0.000000
# 2 -0.003053 0.012419 -0.001029 0.000000 -0.001791 0.000000
# 3 -0.001720 -0.001029 0.004899 0.000000 0.001121 0.000000
# 4 0.000000 0.000000 0.000000 0.065082 0.000000 -0.019252
# 5 0.002650 -0.001791 0.001121 0.000000 0.019231 0.000000
# 6 0.000000 0.000000 0.000000 -0.019252 0.000000 0.050090
#
#
# Mechanical properties :
#
#
# Convention : Reuss Voigt Hill
#
# Bulk Modulus (GPa) = 56.65045 68.10585 62.37815
# Shear Modulus (GPa) = 27.60193 40.43546 34.01869
#
# Velocity S-wave (km/s) = 3.22386 3.90200 3.57903
# Velocity P-wave (km/s) = 5.93202 6.77831 6.36924
#
# Compressibility (1/GPa) = 0.01765211
#
# Stress axis : x y z
#
# Youngs Moduli (GPa) = 83.76495 80.52200 204.13933
#
# Poissons Ratio (x) = 0.24581 0.35111
# Poissons Ratio (y) = 0.25571 0.21009
# Poissons Ratio (z) = 0.14407 0.08287
#
# Static dielectric constant tensor:
#      x y z
#    x 2.056260 0.000000 -0.038560 
#    y 0.000000 2.085110 0.000000 
#    z -0.038560 0.000000 2.090020 
# 
# From -- ./inp_files/243783.got.cif
#   From: 2010.05.17/outbox.cif.g08.bks.cpg/sg15_122_cif.got.tgz:243783.got - 2010.06.03 18:47:42.
