data_PCOD9268072
_publ_section_title
;
Structure prediction by ZEFSAII (Michael W. Deem and Ramdas Pophale) SiO2 
 PCOD9268072
Probable space group: C 2/C
;
_chemical_formula_sum "Si O2"
_cell_formula_units_Z 60
_cell_length_a 8.405353
_cell_length_b 16.186118
_cell_length_c 19.925330
_cell_angle_alpha 90.000000
_cell_angle_beta 88.158281
_cell_angle_gamma 90.000000
_cell_volume 2709.441498
_symmetry_space_group_name_H-M "C 2/C"
_symmetry_group_IT_number 15
_symmetry_cell_setting 'monoclinic'
loop_
_space_group_symop_operation_xyz
x,y,z
-x,y,1/2-z
-x,-y,-z
x,-y,1/2+z
1/2+x,1/2+y,z
1/2-x,1/2+y,1/2-z
1/2-x,1/2-y,-z
1/2+x,1/2-y,1/2+z
loop_
_atom_site_type_symbol
_atom_site_label
_atom_site_fract_x
_atom_site_fract_y
_atom_site_fract_z
Si Si1 0.252527 0.246072 0.421251
Si Si2 0.600996 0.981864 0.066141
Si Si3 0.172525 0.132039 0.016908
Si Si4 0.108234 0.619111 0.841812
Si Si5 0.804521 0.295389 0.288362
Si Si6 0.590476 0.584806 0.390511
Si Si7 0.000000 0.862718 0.750000
Si Si8 0.403482 0.755545 0.594563
O O1 0.250000 0.250000 0.500000
O O2 0.218794 0.337162 0.394563
O O3 0.120972 0.182598 0.398502
O O4 0.421486 0.211103 0.395033
O O5 0.471699 0.962701 0.126403
O O6 0.745070 0.040134 0.090608
O O7 0.700927 0.903953 0.037421
O O8 0.500000 0.000000 0.000000
O O9 0.272491 0.178114 0.073545
O O10 0.053353 0.068658 0.055153
O O11 0.080997 0.196404 0.970493
O O12 0.198974 0.635284 0.770231
O O13 0.952426 0.675515 0.831499
O O14 0.853408 0.203307 0.262029
O O15 0.654074 0.290015 0.337966
O O16 0.534184 0.580229 0.314297
#
# Coordination Sequence:
#
# PCOD9268072 Si02
#       8
#     8   8   8   8   8   8   4   8
#     4  12  21  35  65 102 131 168 223 292 340 403
#     4  12  26  43  67  99 138 183 227 286 356 425
#     4  11  22  40  63  99 132 173 226 286 347 403
#     4  10  21  41  64  91 132 173 224 277 349 400
#     4  10  19  41  71  90 124 178 219 281 352 405
#     4  12  23  43  67  97 140 180 225 281 355 421
#     4  10  20  42  70  92 128 178 224 280 346 412
#     4  11  21  34  70 102 127 167 232 289 348 393
#
# _framework density 22.144784999999999
#
# number of rings (size 3 to 8) (size 9 to 14) (size 15 to 20)
#    0.000    1.067    6.667    2.800    0.000    0.533 
#    0.000    2.667    0.000    0.000    0.000    0.000 
#    0.000    0.000    0.000    0.000    0.000    0.000 
#
# Total GULP energy -167217.859840 kJ/mol
# GULP energy per Si atom -5573.928661 kJ/mol
# Density = 2.209438 g / cm^3
# Si number density = 22.144785 Si / 1000 Ang^3
#
#
#
# Elastic Constant Matrix: (Units=GPa)
#
#
# Indices 1 2 3 4 5 6 
#
# 1 57.5015 0.4379 52.7401 0.0000 -13.0444 0.0000
# 2 0.4379 27.6696 28.3330 0.0000 1.8233 0.0000
# 3 52.7401 28.3330 133.2329 0.0000 -12.2687 0.0000
# 4 0.0000 0.0000 0.0000 22.6830 0.0000 -9.3881
# 5 -13.0444 1.8233 -12.2687 0.0000 35.8012 0.0000
# 6 0.0000 0.0000 0.0000 -9.3881 0.0000 25.7885
#
#
#
# Elastic Compliance Matrix: (Units=1/GPa)
#
#
# Indices 1 2 3 4 5 6 
#
# 1 0.033115 0.015288 -0.015819 0.000000 0.005866 0.000000
# 2 0.015288 0.054502 -0.017951 0.000000 -0.003357 0.000000
# 3 -0.015819 -0.017951 0.017697 0.000000 0.001215 0.000000
# 4 0.000000 0.000000 0.000000 0.051907 0.000000 0.018896
# 5 0.005866 -0.003357 0.001215 0.000000 0.030657 0.000000
# 6 0.000000 0.000000 0.000000 0.018896 0.000000 0.045656
#
#
# Mechanical properties :
#
#
# Convention : Reuss Voigt Hill
#
# Bulk Modulus (GPa) = 14.63091 42.38067 28.50579
# Shear Modulus (GPa) = 17.04857 25.98074 21.51465
#
# Velocity S-wave (km/s) = 2.77766 3.42895 3.12034
# Velocity P-wave (km/s) = 4.11199 5.90394 5.08748
#
# Compressibility (1/GPa) = 0.06834843
#
# Stress axis : x y z
#
# Youngs Moduli (GPa) = 30.19824 18.34809 56.50666
#
# Poissons Ratio (x) = -0.28051 0.89390
# Poissons Ratio (y) = -0.46167 1.01436
# Poissons Ratio (z) = 0.47772 0.32937
#
# Static dielectric constant tensor:
#      x y z
#    x 1.830260 0.000000 0.009650 
#    y 0.000000 1.846480 0.000000 
#    z 0.009650 0.000000 1.822210 
# 
# From -- ./inp_files/190985.got.cif
#   From: 2010.05.17/outbox.cif.g08.bks.cpg/sg15_96_cif.got.tgz:190985.got - 2010.06.03 18:47:42.
