data_PCOD9268373
_publ_section_title
;
Structure prediction by ZEFSAII (Michael W. Deem and Ramdas Pophale) SiO2 
 PCOD9268373
Probable space group: C 2/C
;
_chemical_formula_sum "Si O2"
_cell_formula_units_Z 44
_cell_length_a 14.580898
_cell_length_b 23.287065
_cell_length_c 8.452989
_cell_angle_alpha 90.000000
_cell_angle_beta 59.744973
_cell_angle_gamma 90.000000
_cell_volume 2479.237645
_symmetry_space_group_name_H-M "C 2/C"
_symmetry_group_IT_number 15
_symmetry_cell_setting 'monoclinic'
loop_
_space_group_symop_operation_xyz
x,y,z
-x,y,1/2-z
-x,-y,-z
x,-y,1/2+z
1/2+x,1/2+y,z
1/2-x,1/2+y,1/2-z
1/2-x,1/2-y,-z
1/2+x,1/2-y,1/2+z
loop_
_atom_site_type_symbol
_atom_site_label
_atom_site_fract_x
_atom_site_fract_y
_atom_site_fract_z
Si Si1 0.988105 0.195539 0.071001
Si Si2 0.762890 0.828558 0.647770
Si Si3 0.939262 0.325335 0.135893
Si Si4 0.913644 0.581987 0.099814
Si Si5 0.000000 0.487029 0.250000
Si Si6 0.284971 0.696748 0.758170
O O1 0.883208 0.163396 0.103310
O O2 0.966186 0.262324 0.044932
O O3 0.000000 0.192767 0.250000
O O4 0.099086 0.177904 0.897518
O O5 0.686761 0.878882 0.774033
O O6 0.722177 0.766353 0.746012
O O7 0.763635 0.821980 0.457205
O O8 0.812476 0.327410 0.260609
O O9 0.000000 0.328816 0.250000
O O10 0.985361 0.374826 0.984606
O O11 0.930990 0.529144 0.201647
O O12 0.922548 0.552898 0.920078
#
# Coordination Sequence:
#
# PCOD9268373 Si02
#       6
#     8   8   8   8   4   8
#     4  10  21  32  52  85 116 153 184 210 264 357
#     4  10  21  34  56  76 118 153 181 225 274 327
#     4  10  20  31  55  80 119 150 176 224 276 329
#     4  11  20  39  53  85 106 150 180 245 273 323
#     4  10  24  34  58  78 110 138 206 230 288 310
#     4  10  20  34  51  85 116 154 182 209 267 357
#
# _framework density 17.747391
#
# number of rings (size 3 to 8) (size 9 to 14) (size 15 to 20)
#    0.000    1.818    2.727    1.636    2.545    2.182 
#    0.000    0.000    0.000    0.000    0.000   31.818 
#    0.000    0.000    0.000    0.000    0.000    0.000 
#
# Total GULP energy -122773.894984 kJ/mol
# GULP energy per Si atom -5580.631590 kJ/mol
# Density = 1.770700 g / cm^3
# Si number density = 17.747391 Si / 1000 Ang^3
#
#
#
# Elastic Constant Matrix: (Units=GPa)
#
#
# Indices 1 2 3 4 5 6 
#
# 1 105.1657 39.4470 50.9220 0.0000 -26.2014 0.0000
# 2 39.4470 89.3747 57.0404 0.0000 -12.2687 0.0000
# 3 50.9220 57.0404 104.2465 0.0000 -25.2424 0.0000
# 4 0.0000 0.0000 0.0000 28.8299 0.0000 -8.8887
# 5 -26.2014 -12.2687 -25.2424 0.0000 35.3321 0.0000
# 6 0.0000 0.0000 0.0000 -8.8887 0.0000 15.3185
#
#
#
# Elastic Compliance Matrix: (Units=1/GPa)
#
#
# Indices 1 2 3 4 5 6 
#
# 1 0.014066 -0.002983 -0.003584 0.000000 0.006835 0.000000
# 2 -0.002983 0.017849 -0.008881 0.000000 -0.002359 0.000000
# 3 -0.003584 -0.008881 0.017911 0.000000 0.007055 0.000000
# 4 0.000000 0.000000 0.000000 0.042244 0.000000 0.024512
# 5 0.006835 -0.002359 0.007055 0.000000 0.037592 0.000000
# 6 0.000000 0.000000 0.000000 0.024512 0.000000 0.079504
#
#
# Mechanical properties :
#
#
# Convention : Reuss Voigt Hill
#
# Bulk Modulus (GPa) = 52.82232 65.95618 59.38925
# Shear Modulus (GPa) = 20.29460 25.98792 23.14126
#
# Velocity S-wave (km/s) = 3.38527 3.83080 3.61491
# Velocity P-wave (km/s) = 6.71626 7.53732 7.13861
#
# Compressibility (1/GPa) = 0.01893139
#
# Stress axis : x y z
#
# Youngs Moduli (GPa) = 71.09483 56.02427 55.83241
#
# Poissons Ratio (x) = 0.16710 0.20009
# Poissons Ratio (y) = 0.21205 0.49584
# Poissons Ratio (z) = 0.25479 0.49754
#
# Static dielectric constant tensor:
#      x y z
#    x 1.626770 0.000000 0.029410 
#    y 0.000000 1.593230 0.000000 
#    z 0.029410 0.000000 1.630100 
# 
# From -- ./inp_files/32441.got.cif
#   From: 2010.05.17/outbox.cif.g08.bks.cpg/sg15_17_cif.got.tgz:32441.got - 2010.06.03 18:47:42.
