data_PCOD9268601
_publ_section_title
;
Structure prediction by ZEFSAII (Michael W. Deem and Ramdas Pophale) SiO2 
 PCOD9268601
Probable space group: C 2/C
;
_chemical_formula_sum "Si O2"
_cell_formula_units_Z 60
_cell_length_a 27.262411
_cell_length_b 23.209015
_cell_length_c 9.526896
_cell_angle_alpha 90.000000
_cell_angle_beta 145.497956
_cell_angle_gamma 90.000000
_cell_volume 3414.467342
_symmetry_space_group_name_H-M "C 2/C"
_symmetry_group_IT_number 15
_symmetry_cell_setting 'monoclinic'
loop_
_space_group_symop_operation_xyz
x,y,z
-x,y,1/2-z
-x,-y,-z
x,-y,1/2+z
1/2+x,1/2+y,z
1/2-x,1/2+y,1/2-z
1/2-x,1/2-y,-z
1/2+x,1/2-y,1/2+z
loop_
_atom_site_type_symbol
_atom_site_label
_atom_site_fract_x
_atom_site_fract_y
_atom_site_fract_z
Si Si1 0.102664 0.751345 0.494429
Si Si2 0.354957 0.210378 0.594826
Si Si3 0.379193 0.635378 0.935074
Si Si4 0.236251 0.285599 0.110689
Si Si5 0.702849 0.372248 0.727994
Si Si6 0.096441 0.075888 0.217514
Si Si7 0.000000 0.760802 0.750000
Si Si8 0.405622 0.441746 0.240242
O O1 0.133812 0.724157 0.715134
O O2 0.140915 0.717641 0.449831
O O3 0.143041 0.815110 0.583571
O O4 0.000000 0.753587 0.250000
O O5 0.293264 0.256646 0.369957
O O6 0.301071 0.150973 0.452578
O O7 0.445677 0.221372 0.729027
O O8 0.278771 0.652480 0.687597
O O9 0.401160 0.582374 0.887748
O O10 0.402588 0.618735 0.148496
O O11 0.432505 0.693497 0.020400
O O12 0.250000 0.250000 0.000000
O O13 0.674179 0.406216 0.799393
O O14 0.670108 0.411069 0.523352
O O15 0.103540 0.010191 0.286230
O O16 0.002325 0.077076 0.920870
#
# Coordination Sequence:
#
# PCOD9268601 Si02
#       8
#     8   8   8   8   8   8   4   8
#     4  11  22  34  54  80 110 149 186 219 274 336
#     4  10  22  36  52  77 111 144 188 225 275 333
#     4  11  19  34  54  70 110 147 174 216 278 308
#     4  10  21  34  52  77 109 144 185 222 267 339
#     4  11  21  35  53  75 112 146 176 222 271 320
#     4  11  21  35  52  78 112 144 185 220 260 319
#     4  10  20  32  58  74 106 146 182 222 280 324
#     4  11  22  33  52  82 108 144 188 220 255 323
#
# _framework density 17.572286999999999
#
# number of rings (size 3 to 8) (size 9 to 14) (size 15 to 20)
#    0.000    1.333    1.333    7.600    5.600    2.133 
#    0.000    0.000    0.000    0.000    0.000    0.933 
#    4.000    0.000    0.000    0.000    0.000    0.000 
#
# Total GULP energy -167361.900448 kJ/mol
# GULP energy per Si atom -5578.730015 kJ/mol
# Density = 1.753229 g / cm^3
# Si number density = 17.572287 Si / 1000 Ang^3
#
#
#
# Elastic Constant Matrix: (Units=GPa)
#
#
# Indices 1 2 3 4 5 6 
#
# 1 110.6829 26.9033 24.5443 0.0000 11.0842 0.0000
# 2 26.9033 62.6894 22.0719 0.0000 12.1678 0.0000
# 3 24.5443 22.0719 57.5675 0.0000 0.1295 0.0000
# 4 0.0000 0.0000 0.0000 21.7123 0.0000 3.3998
# 5 11.0842 12.1678 0.1295 0.0000 27.7020 0.0000
# 6 0.0000 0.0000 0.0000 3.3998 0.0000 23.0697
#
#
#
# Elastic Compliance Matrix: (Units=1/GPa)
#
#
# Indices 1 2 3 4 5 6 
#
# 1 0.010805 -0.002798 -0.003527 0.000000 -0.003078 0.000000
# 2 -0.002798 0.021164 -0.006903 0.000000 -0.008144 0.000000
# 3 -0.003527 -0.006903 0.021512 0.000000 0.004343 0.000000
# 4 0.000000 0.000000 0.000000 0.047145 0.000000 -0.006948
# 5 -0.003078 -0.008144 0.004343 0.000000 0.040887 0.000000
# 6 0.000000 0.000000 0.000000 -0.006948 0.000000 0.044371
#
#
# Mechanical properties :
#
#
# Convention : Reuss Voigt Hill
#
# Bulk Modulus (GPa) = 37.00385 41.99764 39.50074
# Shear Modulus (GPa) = 22.58891 24.99149 23.79020
#
# Velocity S-wave (km/s) = 3.58926 3.77531 3.68346
# Velocity P-wave (km/s) = 6.18715 6.55407 6.37325
#
# Compressibility (1/GPa) = 0.02702422
#
# Stress axis : x y z
#
# Youngs Moduli (GPa) = 92.54714 47.25105 46.48626
#
# Poissons Ratio (x) = 0.13220 0.16397
# Poissons Ratio (y) = 0.25893 0.32090
# Poissons Ratio (z) = 0.32644 0.32618
#
# Static dielectric constant tensor:
#      x y z
#    x 1.669890 0.000000 0.018290 
#    y 0.000000 1.584150 0.000000 
#    z 0.018290 0.000000 1.618260 
# 
# From -- ./inp_files/70959.got.cif
#   From: 2010.05.17/outbox.cif.g08.bks.cpg/sg15_36_cif.got.tgz:70959.got - 2010.06.03 18:47:42.
