data_PCOD9268665
_publ_section_title
;
Structure prediction by ZEFSAII (Michael W. Deem and Ramdas Pophale) SiO2 
 PCOD9268665
Probable space group: C 2/C
;
_chemical_formula_sum "Si O2"
_cell_formula_units_Z 40
_cell_length_a 16.572272
_cell_length_b 15.072078
_cell_length_c 13.002074
_cell_angle_alpha 90.000000
_cell_angle_beta 147.394116
_cell_angle_gamma 90.000000
_cell_volume 1750.014263
_symmetry_space_group_name_H-M "C 2/C"
_symmetry_group_IT_number 15
_symmetry_cell_setting 'monoclinic'
loop_
_space_group_symop_operation_xyz
x,y,z
-x,y,1/2-z
-x,-y,-z
x,-y,1/2+z
1/2+x,1/2+y,z
1/2-x,1/2+y,1/2-z
1/2-x,1/2-y,-z
1/2+x,1/2-y,1/2+z
loop_
_atom_site_type_symbol
_atom_site_label
_atom_site_fract_x
_atom_site_fract_y
_atom_site_fract_z
Si Si1 0.282404 0.129535 0.754876
Si Si2 0.825199 0.654250 0.578608
Si Si3 0.335339 0.022509 0.018279
Si Si4 0.280893 0.667581 0.458514
Si Si5 0.025116 0.763211 0.071905
O O1 0.291249 0.099873 0.647517
O O2 0.120136 0.167001 0.609645
O O3 0.333489 0.067508 0.903734
O O4 0.394307 0.213269 0.872889
O O5 0.750000 0.750000 0.500000
O O6 0.783094 0.579301 0.450167
O O7 0.000000 0.670647 0.750000
O O8 0.500000 0.024657 0.250000
O O9 0.234636 0.081944 0.986904
O O10 0.250000 0.750000 0.500000
O O11 0.140837 0.685561 0.231350
O O12 0.436691 0.685927 0.568164
#
# Coordination Sequence:
#
# PCOD9268665 Si02
#       5
#     8   8   8   8   8
#     4  11  22  41  66 100 125 174 220 259 332 393
#     4  11  27  51  68  88 131 180 221 270 325 392
#     4  11  22  39  67  97 131 167 223 272 317 389
#     4  11  17  33  57  99 140 164 201 270 333 375
#     4  10  20  32  65  94 139 165 205 263 331 389
#
# _framework density 22.856957999999999
#
# number of rings (size 3 to 8) (size 9 to 14) (size 15 to 20)
#    0.000    1.200    6.000    1.800    0.000    3.200 
#   10.800    1.000    0.000    0.000    0.000    0.000 
#    0.000    0.000    0.000    0.000    0.000    0.000 
#
# Total GULP energy -111663.808209 kJ/mol
# GULP energy per Si atom -5583.190410 kJ/mol
# Density = 2.280493 g / cm^3
# Si number density = 22.856958 Si / 1000 Ang^3
#
#
#
# Elastic Constant Matrix: (Units=GPa)
#
#
# Indices 1 2 3 4 5 6 
#
# 1 143.5539 40.4505 43.1677 0.0000 18.1123 0.0000
# 2 40.4505 142.9457 26.3301 0.0000 7.6891 0.0000
# 3 43.1677 26.3301 49.5218 0.0000 20.1419 0.0000
# 4 0.0000 0.0000 0.0000 17.0334 0.0000 0.5931
# 5 18.1123 7.6891 20.1419 0.0000 39.2646 0.0000
# 6 0.0000 0.0000 0.0000 0.5931 0.0000 24.3628
#
#
#
# Elastic Compliance Matrix: (Units=1/GPa)
#
#
# Indices 1 2 3 4 5 6 
#
# 1 0.009660 -0.001318 -0.007597 0.000000 -0.000301 0.000000
# 2 -0.001318 0.007953 -0.003403 0.000000 0.000796 0.000000
# 3 -0.007597 -0.003403 0.034029 0.000000 -0.013285 0.000000
# 4 0.000000 0.000000 0.000000 0.058758 0.000000 -0.001430
# 5 -0.000301 0.000796 -0.013285 0.000000 0.032266 0.000000
# 6 0.000000 0.000000 0.000000 -0.001430 0.000000 0.041081
#
#
# Mechanical properties :
#
#
# Convention : Reuss Voigt Hill
#
# Bulk Modulus (GPa) = 37.03218 61.76864 49.40041
# Shear Modulus (GPa) = 23.00067 31.20370 27.10219
#
# Velocity S-wave (km/s) = 3.17564 3.69883 3.44718
# Velocity P-wave (km/s) = 5.44823 6.73235 6.12404
#
# Compressibility (1/GPa) = 0.02700354
#
# Stress axis : x y z
#
# Youngs Moduli (GPa) = 103.52032 125.74388 29.38698
#
# Poissons Ratio (x) = 0.16572 0.22327
# Poissons Ratio (y) = 0.13643 0.10002
# Poissons Ratio (z) = 0.78649 0.42796
#
# Static dielectric constant tensor:
#      x y z
#    x 1.918590 0.000000 -0.112080 
#    y 0.000000 1.849790 0.000000 
#    z -0.112080 0.000000 1.993630 
# 
# From -- ./inp_files/162657.got.cif
#   From: 2010.05.17/outbox.cif.g08.bks.cpg/sg15_82_cif.got.tgz:162657.got - 2010.06.03 18:47:42.
