data_PCOD9268963
_publ_section_title
;
Structure prediction by ZEFSAII (Michael W. Deem and Ramdas Pophale) SiO2 
 PCOD9268963
Probable space group: C 2/C
;
_chemical_formula_sum "Si O2"
_cell_formula_units_Z 48
_cell_length_a 10.859482
_cell_length_b 12.082448
_cell_length_c 15.123975
_cell_angle_alpha 90.000000
_cell_angle_beta 107.357057
_cell_angle_gamma 90.000000
_cell_volume 1894.042128
_symmetry_space_group_name_H-M "C 2/C"
_symmetry_group_IT_number 15
_symmetry_cell_setting 'monoclinic'
loop_
_space_group_symop_operation_xyz
x,y,z
-x,y,1/2-z
-x,-y,-z
x,-y,1/2+z
1/2+x,1/2+y,z
1/2-x,1/2+y,1/2-z
1/2-x,1/2-y,-z
1/2+x,1/2-y,1/2+z
loop_
_atom_site_type_symbol
_atom_site_label
_atom_site_fract_x
_atom_site_fract_y
_atom_site_fract_z
Si Si1 0.519759 0.566846 0.156776
Si Si2 0.342243 0.194864 0.390515
Si Si3 0.602149 0.218112 0.901646
Si Si4 0.731461 0.874583 0.885652
Si Si5 0.981220 0.505859 0.889460
Si Si6 0.399060 0.668314 0.598086
O O1 0.500000 0.612849 0.250000
O O2 0.449956 0.660704 0.084497
O O3 0.665280 0.568896 0.155430
O O4 0.450444 0.449377 0.140565
O O5 0.336977 0.170581 0.494876
O O6 0.212887 0.265882 0.352097
O O7 0.361166 0.076458 0.347207
O O8 0.473389 0.261463 0.399985
O O9 0.485889 0.132525 0.859463
O O10 0.607004 0.950380 0.872941
O O11 0.679299 0.750417 0.853103
O O12 0.806095 0.858061 0.995281
O O13 0.000000 0.500000 0.000000
#
# Coordination Sequence:
#
# PCOD9268963 Si02
#       6
#     8   8   8   8   8   8
#     4  12  26  41  58  90 133 171 202 245 321 395
#     4   9  18  34  60  92 112 150 200 265 309 342
#     4  10  20  33  57  89 122 153 198 251 309 366
#     4  10  21  40  67  93 118 159 215 268 312 360
#     4   9  19  33  60  93 121 143 194 267 319 355
#     4  10  21  39  67  90 118 157 213 267 303 362
#
# _framework density 25.342625999999999
#
# number of rings (size 3 to 8) (size 9 to 14) (size 15 to 20)
#    0.000    2.000    1.667    1.500    9.333    0.000 
#    6.000    0.000    0.000    0.000    0.000    0.000 
#    0.000    0.000    0.000    0.000    0.000    0.000 
#
# Total GULP energy -134075.514079 kJ/mol
# GULP energy per Si atom -5586.479753 kJ/mol
# Density = 2.528495 g / cm^3
# Si number density = 25.342626 Si / 1000 Ang^3
#
#
#
# Elastic Constant Matrix: (Units=GPa)
#
#
# Indices 1 2 3 4 5 6 
#
# 1 100.2285 39.4274 6.7701 0.0000 -10.9790 0.0000
# 2 39.4274 143.2499 -7.2442 0.0000 7.1752 0.0000
# 3 6.7701 -7.2442 36.5175 0.0000 3.1452 0.0000
# 4 0.0000 0.0000 0.0000 0.7398 0.0000 3.1853
# 5 -10.9790 7.1752 3.1452 0.0000 25.1752 0.0000
# 6 0.0000 0.0000 0.0000 3.1853 0.0000 36.6052
#
#
#
# Elastic Compliance Matrix: (Units=1/GPa)
#
#
# Indices 1 2 3 4 5 6 
#
# 1 0.012584 -0.004008 -0.003739 0.000000 0.007097 0.000000
# 2 -0.004008 0.008452 0.002808 0.000000 -0.004508 0.000000
# 3 -0.003739 0.002808 0.029158 0.000000 -0.006074 0.000000
# 4 0.000000 0.000000 0.000000 2.161369 0.000000 -0.188074
# 5 0.007097 -0.004508 -0.006074 0.000000 0.044860 0.000000
# 6 0.000000 0.000000 0.000000 -0.188074 0.000000 0.043684
#
#
# Mechanical properties :
#
#
# Convention : Reuss Voigt Hill
#
# Bulk Modulus (GPa) = 24.80521 39.76694 32.28607
# Shear Modulus (GPa) = 2.15200 28.57356 15.36278
#
# Velocity S-wave (km/s) = 0.92250 3.36145 2.46479
# Velocity P-wave (km/s) = 3.30815 5.54902 4.56812
#
# Compressibility (1/GPa) = 0.04031412
#
# Stress axis : x y z
#
# Youngs Moduli (GPa) = 79.46638 118.31840 34.29641
#
# Poissons Ratio (x) = 0.47424 0.12825
# Poissons Ratio (y) = 0.31851 -0.09630
# Poissons Ratio (z) = 0.29716 -0.33223
#
# Static dielectric constant tensor:
#      x y z
#    x 2.002090 0.000000 0.015860 
#    y 0.000000 2.116970 0.000000 
#    z 0.015860 0.000000 2.055030 
# 
# From -- ./inp_files/196112.got.cif
#   From: 2010.05.17/outbox.cif.g08.bks.cpg/sg15_99_cif.got.tgz:196112.got - 2010.06.03 18:47:42.
