data_PCOD9268188
_publ_section_title
;
Structure prediction by ZEFSAII (Michael W. Deem and Ramdas Pophale) SiO2 
 PCOD9268188
Probable space group: C 2/C
;
_chemical_formula_sum "Si O2"
_cell_formula_units_Z 40
_cell_length_a 6.999207
_cell_length_b 13.364401
_cell_length_c 19.241714
_cell_angle_alpha 90.000000
_cell_angle_beta 118.985233
_cell_angle_gamma 90.000000
_cell_volume 1574.430071
_symmetry_space_group_name_H-M "C 2/C"
_symmetry_group_IT_number 15
_symmetry_cell_setting 'monoclinic'
loop_
_space_group_symop_operation_xyz
x,y,z
-x,y,1/2-z
-x,-y,-z
x,-y,1/2+z
1/2+x,1/2+y,z
1/2-x,1/2+y,1/2-z
1/2-x,1/2-y,-z
1/2+x,1/2-y,1/2+z
loop_
_atom_site_type_symbol
_atom_site_label
_atom_site_fract_x
_atom_site_fract_y
_atom_site_fract_z
Si Si1 0.849373 0.884664 0.163121
Si Si2 0.472475 0.777334 0.582008
Si Si3 0.108184 0.954043 0.947938
Si Si4 0.136968 0.353010 0.397128
Si Si5 0.652912 0.066172 0.341370
O O1 0.961744 0.788306 0.150007
O O2 0.000000 0.929350 0.250000
O O3 0.822418 0.963958 0.095736
O O4 0.620703 0.844840 0.151357
O O5 0.250000 0.750000 0.500000
O O6 0.453813 0.890101 0.606734
O O7 0.401121 0.605981 0.380583
O O8 0.804722 0.236249 0.911799
O O9 0.302949 0.890838 0.014594
O O10 0.000000 0.000000 0.000000
O O11 0.181076 0.446323 0.352800
O O12 0.500000 0.088606 0.250000
#
# Coordination Sequence:
#
# PCOD9268188 Si02
#       5
#     8   8   8   8   8
#     4  12  25  43  73 108 145 195 257 317 387 452
#     4  12  24  46  71 104 151 198 251 315 380 466
#     4  10  19  43  70 100 142 199 241 301 385 464
#     4  11  24  45  76 101 148 203 250 313 387 457
#     4  11  22  43  72 106 150 195 251 321 391 458
#
# _framework density 25.406020000000002
#
# number of rings (size 3 to 8) (size 9 to 14) (size 15 to 20)
#    0.000    0.800    6.000    3.600    0.000    0.800 
#    3.600    0.000    0.000    0.000    0.000    0.000 
#    0.000    0.000    0.000    0.000    0.000    0.000 
#
# Total GULP energy -111886.371399 kJ/mol
# GULP energy per Si atom -5594.318570 kJ/mol
# Density = 2.534819 g / cm^3
# Si number density = 25.406020 Si / 1000 Ang^3
#
#
#
# Elastic Constant Matrix: (Units=GPa)
#
#
# Indices 1 2 3 4 5 6 
#
# 1 154.3614 39.7445 43.3912 0.0000 23.6829 0.0000
# 2 39.7445 53.7501 8.4555 0.0000 -3.9288 0.0000
# 3 43.3912 8.4555 138.0213 0.0000 31.0731 0.0000
# 4 0.0000 0.0000 0.0000 30.4385 0.0000 -8.3218
# 5 23.6829 -3.9288 31.0731 0.0000 38.6380 0.0000
# 6 0.0000 0.0000 0.0000 -8.3218 0.0000 46.4164
#
#
#
# Elastic Compliance Matrix: (Units=1/GPa)
#
#
# Indices 1 2 3 4 5 6 
#
# 1 0.009573 -0.007278 -0.001314 0.000000 -0.005551 0.000000
# 2 -0.007278 0.024706 -0.000971 0.000000 0.007754 0.000000
# 3 -0.001314 -0.000971 0.009230 0.000000 -0.006716 0.000000
# 4 0.000000 0.000000 0.000000 0.034546 0.000000 0.006194
# 5 -0.005551 0.007754 -0.006716 0.000000 0.035473 0.000000
# 6 0.000000 0.000000 0.000000 0.006194 0.000000 0.022655
#
#
# Mechanical properties :
#
#
# Convention : Reuss Voigt Hill
#
# Bulk Modulus (GPa) = 41.01285 58.81278 49.91281
# Shear Modulus (GPa) = 30.59289 40.06804 35.33046
#
# Velocity S-wave (km/s) = 3.47386 3.97559 3.73317
# Velocity P-wave (km/s) = 5.68052 6.65381 6.18633
#
# Compressibility (1/GPa) = 0.02438260
#
# Stress axis : x y z
#
# Youngs Moduli (GPa) = 104.45806 40.47668 108.34373
#
# Poissons Ratio (x) = 0.29458 0.14237
# Poissons Ratio (y) = 0.76022 0.10523
# Poissons Ratio (z) = 0.13726 0.03931
#
# Static dielectric constant tensor:
#      x y z
#    x 2.217850 0.000000 0.015700 
#    y 0.000000 2.053190 0.000000 
#    z 0.015700 0.000000 2.015620 
# 
# From -- ./inp_files/134617.got.cif
#   From: 2010.05.17/outbox.cif.g08.bks.cpg/sg15_68_cif.got.tgz:134617.got - 2010.06.03 18:47:42.
