data_PCOD9268506
_publ_section_title
;
Structure prediction by ZEFSAII (Michael W. Deem and Ramdas Pophale) SiO2 
 PCOD9268506
Probable space group: C 2/C
;
_chemical_formula_sum "Si O2"
_cell_formula_units_Z 56
_cell_length_a 30.628029
_cell_length_b 11.691833
_cell_length_c 9.476643
_cell_angle_alpha 90.000000
_cell_angle_beta 57.307856
_cell_angle_gamma 90.000000
_cell_volume 2855.972894
_symmetry_space_group_name_H-M "C 2/C"
_symmetry_group_IT_number 15
_symmetry_cell_setting 'monoclinic'
loop_
_space_group_symop_operation_xyz
x,y,z
-x,y,1/2-z
-x,-y,-z
x,-y,1/2+z
1/2+x,1/2+y,z
1/2-x,1/2+y,1/2-z
1/2-x,1/2-y,-z
1/2+x,1/2-y,1/2+z
loop_
_atom_site_type_symbol
_atom_site_label
_atom_site_fract_x
_atom_site_fract_y
_atom_site_fract_z
Si Si1 0.823507 0.818085 0.818649
Si Si2 0.383243 0.479712 0.253494
Si Si3 0.941206 0.882954 0.900872
Si Si4 0.320783 0.031177 0.479678
Si Si5 0.369566 0.814798 0.487775
Si Si6 0.812145 0.239035 0.864192
Si Si7 0.266765 0.107238 0.827939
O O1 0.857181 0.732190 0.853673
O O2 0.789843 0.736401 0.778302
O O3 0.857314 0.920441 0.702517
O O4 0.786668 0.878186 0.998738
O O5 0.405744 0.544269 0.351722
O O6 0.340053 0.380580 0.351961
O O7 0.428948 0.427341 0.078990
O O8 0.922047 0.750609 0.934563
O O9 0.000000 0.893376 0.750000
O O10 0.338175 0.157449 0.407067
O O11 0.271455 0.047132 0.670115
O O12 0.362054 0.950621 0.487011
O O13 0.301104 0.968185 0.374607
O O14 0.327202 0.768172 0.675218
O O15 0.750000 0.250000 0.000000
#
# Coordination Sequence:
#
# PCOD9268506 Si02
#       7
#     8   8   8   8   8   8   8
#     4   9  19  35  50  78 113 146 193 219 271 336
#     4  10  22  35  59  88 114 148 192 236 290 352
#     4  10  21  41  63  83 111 146 193 254 302 335
#     4  11  20  34  52  76 109 152 190 226 267 328
#     4   9  20  37  53  81 105 147 189 231 284 341
#     4  11  21  34  53  84 122 156 186 226 277 340
#     4  10  20  32  53  74 112 158 184 223 265 326
#
# _framework density 19.608028000000001
#
# number of rings (size 3 to 8) (size 9 to 14) (size 15 to 20)
#    0.000    2.000    1.429    2.143    2.000    2.286 
#    0.000    0.000    0.000    4.286    0.000    0.000 
#    0.000    0.000    0.000    0.000    0.000    0.000 
#
# Total GULP energy -156035.663046 kJ/mol
# GULP energy per Si atom -5572.702252 kJ/mol
# Density = 1.956340 g / cm^3
# Si number density = 19.608028 Si / 1000 Ang^3
#
#
#
# Elastic Constant Matrix: (Units=GPa)
#
#
# Indices 1 2 3 4 5 6 
#
# 1 44.8500 29.7660 22.6193 0.0000 -9.3035 0.0000
# 2 29.7660 123.0192 28.7034 0.0000 -6.9275 0.0000
# 3 22.6193 28.7034 66.3265 0.0000 -7.8517 0.0000
# 4 0.0000 0.0000 0.0000 20.4997 0.0000 1.3733
# 5 -9.3035 -6.9275 -7.8517 0.0000 29.8315 0.0000
# 6 0.0000 0.0000 0.0000 1.3733 0.0000 20.9891
#
#
#
# Elastic Compliance Matrix: (Units=1/GPa)
#
#
# Indices 1 2 3 4 5 6 
#
# 1 0.030977 -0.005390 -0.007469 0.000000 0.006443 0.000000
# 2 -0.005390 0.010015 -0.002497 0.000000 -0.000013 0.000000
# 3 -0.007469 -0.002497 0.018951 0.000000 0.002079 0.000000
# 4 0.000000 0.000000 0.000000 0.048996 0.000000 -0.003206
# 5 0.006443 -0.000013 0.002079 0.000000 0.036075 0.000000
# 6 0.000000 0.000000 0.000000 -0.003206 0.000000 0.047854
#
#
# Mechanical properties :
#
#
# Convention : Reuss Voigt Hill
#
# Bulk Modulus (GPa) = 34.21061 44.04146 39.12604
# Shear Modulus (GPa) = 21.42950 24.47120 22.95035
#
# Velocity S-wave (km/s) = 3.30948 3.53656 3.42491
# Velocity P-wave (km/s) = 5.66469 6.25988 5.96971
#
# Compressibility (1/GPa) = 0.02923069
#
# Stress axis : x y z
#
# Youngs Moduli (GPa) = 32.28208 99.85079 52.76798
#
# Poissons Ratio (x) = 0.53817 0.39411
# Poissons Ratio (y) = 0.17399 0.13179
# Poissons Ratio (z) = 0.24111 0.24938
#
# Static dielectric constant tensor:
#      x y z
#    x 1.712530 0.000000 0.030110 
#    y 0.000000 1.745760 0.000000 
#    z 0.030110 0.000000 1.703400 
# 
# From -- ./inp_files/69290.got.cif
#   From: 2010.05.17/outbox.cif.g08.bks.cpg/sg15_35_cif.got.tgz:69290.got - 2010.06.03 18:47:42.
