data_PCOD9268015
_publ_section_title
;
Structure prediction by ZEFSAII (Michael W. Deem and Ramdas Pophale) SiO2 
 PCOD9268015
Probable space group: C 2/C
;
_chemical_formula_sum "Si O2"
_cell_formula_units_Z 40
_cell_length_a 9.209462
_cell_length_b 13.350579
_cell_length_c 14.084555
_cell_angle_alpha 90.000000
_cell_angle_beta 102.208785
_cell_angle_gamma 90.000000
_cell_volume 1692.553814
_symmetry_space_group_name_H-M "C 2/C"
_symmetry_group_IT_number 15
_symmetry_cell_setting 'monoclinic'
loop_
_space_group_symop_operation_xyz
x,y,z
-x,y,1/2-z
-x,-y,-z
x,-y,1/2+z
1/2+x,1/2+y,z
1/2-x,1/2+y,1/2-z
1/2-x,1/2-y,-z
1/2+x,1/2-y,1/2+z
loop_
_atom_site_type_symbol
_atom_site_label
_atom_site_fract_x
_atom_site_fract_y
_atom_site_fract_z
Si Si1 0.649263 0.709103 0.903288
Si Si2 0.357594 0.802733 0.269933
Si Si3 0.162256 0.184321 0.564579
Si Si4 0.019309 0.514755 0.144886
Si Si5 0.256963 0.506462 0.034657
O O1 0.733011 0.744476 0.820096
O O2 0.482092 0.733560 0.908568
O O3 0.750000 0.750000 0.000000
O O4 0.660625 0.588487 0.909872
O O5 0.500000 0.741712 0.250000
O O6 0.268398 0.841421 0.166926
O O7 0.432552 0.896604 0.336242
O O8 0.250000 0.250000 0.500000
O O9 0.133761 0.083224 0.501469
O O10 0.000000 0.551849 0.250000
O O11 0.870961 0.524641 0.060508
O O12 0.158829 0.556713 0.104900
#
# Coordination Sequence:
#
# PCOD9268015 Si02
#       5
#     8   8   8   8   8
#     4  11  25  42  64  95 131 168 214 266 319 379
#     4  10  19  41  66  91 125 166 206 265 324 372
#     4  12  24  41  65  95 129 171 216 260 319 383
#     4   9  17  35  68  91 122 164 211 258 328 365
#     4  10  21  39  66  92 125 170 212 262 317 380
#
# _framework density 23.632926000000001
#
# number of rings (size 3 to 8) (size 9 to 14) (size 15 to 20)
#    0.000    1.600    4.000    2.400    5.600    0.000 
#    3.600    0.000    0.000    0.000    0.000    0.000 
#    0.000    0.000    0.000    0.000    0.000    0.000 
#
# Total GULP energy -111651.410238 kJ/mol
# GULP energy per Si atom -5582.570512 kJ/mol
# Density = 2.357914 g / cm^3
# Si number density = 23.632926 Si / 1000 Ang^3
#
#
#
# Elastic Constant Matrix: (Units=GPa)
#
#
# Indices 1 2 3 4 5 6 
#
# 1 159.8964 13.6843 38.6810 0.0000 -50.9282 0.0000
# 2 13.6843 37.4228 -4.5282 0.0000 -12.2016 0.0000
# 3 38.6810 -4.5282 118.6194 0.0000 -44.6819 0.0000
# 4 0.0000 0.0000 0.0000 21.1784 0.0000 0.7109
# 5 -50.9282 -12.2016 -44.6819 0.0000 55.2268 0.0000
# 6 0.0000 0.0000 0.0000 0.7109 0.0000 30.5710
#
#
#
# Elastic Compliance Matrix: (Units=1/GPa)
#
#
# Indices 1 2 3 4 5 6 
#
# 1 0.008871 -0.000549 0.000176 0.000000 0.008201 0.000000
# 2 -0.000549 0.031078 0.005410 0.000000 0.010737 0.000000
# 3 0.000176 0.005410 0.013076 0.000000 0.011936 0.000000
# 4 0.000000 0.000000 0.000000 0.047255 0.000000 -0.001099
# 5 0.008201 0.010737 0.011936 0.000000 0.037699 0.000000
# 6 0.000000 0.000000 0.000000 -0.001099 0.000000 0.032736
#
#
# Mechanical properties :
#
#
# Convention : Reuss Voigt Hill
#
# Bulk Modulus (GPa) = 15.84841 45.73477 30.79159
# Shear Modulus (GPa) = 27.52193 39.26868 33.39531
#
# Velocity S-wave (km/s) = 3.41627 4.08071 3.76318
# Velocity P-wave (km/s) = 4.72036 6.44958 5.65150
#
# Compressibility (1/GPa) = 0.06309781
#
# Stress axis : x y z
#
# Youngs Moduli (GPa) = 112.73188 32.17743 76.47742
#
# Poissons Ratio (x) = 0.01765 -0.01343
# Poissons Ratio (y) = 0.06183 -0.41373
# Poissons Ratio (z) = -0.01980 -0.17407
#
# Static dielectric constant tensor:
#      x y z
#    x 1.960610 0.000000 -0.079790 
#    y 0.000000 1.980500 0.000000 
#    z -0.079790 0.000000 1.899180 
# 
# From -- ./inp_files/133183.got.cif
#   From: 2010.05.17/outbox.cif.g08.bks.cpg/sg15_67_cif.got.tgz:133183.got - 2010.06.03 18:47:42.
