data_PCOD9268498
_publ_section_title
;
Structure prediction by ZEFSAII (Michael W. Deem and Ramdas Pophale) SiO2 
 PCOD9268498
Probable space group: C 2/C
;
_chemical_formula_sum "Si O2"
_cell_formula_units_Z 56
_cell_length_a 9.406551
_cell_length_b 10.244099
_cell_length_c 28.618449
_cell_angle_alpha 90.000000
_cell_angle_beta 110.165716
_cell_angle_gamma 90.000000
_cell_volume 2588.670933
_symmetry_space_group_name_H-M "C 2/C"
_symmetry_group_IT_number 15
_symmetry_cell_setting 'monoclinic'
loop_
_space_group_symop_operation_xyz
x,y,z
-x,y,1/2-z
-x,-y,-z
x,-y,1/2+z
1/2+x,1/2+y,z
1/2-x,1/2+y,1/2-z
1/2-x,1/2-y,-z
1/2+x,1/2-y,1/2+z
loop_
_atom_site_type_symbol
_atom_site_label
_atom_site_fract_x
_atom_site_fract_y
_atom_site_fract_z
Si Si1 0.539955 0.145531 0.180216
Si Si2 0.106479 0.385383 0.033486
Si Si3 0.695437 0.455069 0.723809
Si Si4 0.757348 0.859293 0.344114
Si Si5 0.860242 0.092323 0.498019
Si Si6 0.500000 0.327490 0.250000
Si Si7 0.397525 0.950847 0.091161
Si Si8 0.500000 0.242406 0.750000
O O1 0.652488 0.081284 0.230979
O O2 0.629670 0.243730 0.156401
O O3 0.437116 0.238671 0.200801
O O4 0.466150 0.038715 0.139865
O O5 0.092640 0.241004 0.009037
O O6 0.033594 0.386089 0.077062
O O7 0.283848 0.416459 0.041464
O O8 0.000000 0.500000 0.000000
O O9 0.687890 0.499936 0.669004
O O10 0.627618 0.581129 0.742994
O O11 0.586464 0.335309 0.723400
O O12 0.615799 0.838967 0.293430
O O13 0.709262 0.852204 0.392202
O O14 0.716293 0.042439 0.451275
O O15 0.000000 0.000000 0.500000
#
# Coordination Sequence:
#
# PCOD9268498 Si02
#       8
#     8   8   8   8   8   4   8   4
#     4  10  20  33  52  80 115 153 195 240 282 332
#     4   9  22  43  65  89 116 148 189 239 299 365
#     4   9  18  33  51  74 109 157 199 232 275 330
#     4  10  20  32  52  81 113 151 195 238 283 336
#     4  10  23  44  68  88 114 154 193 238 300 369
#     4   9  18  33  52  72 110 159 196 231 278 330
#     4  11  23  36  58  91 119 146 190 242 296 352
#     4   9  18  33  50  72 110 155 198 235 276 328
#
# _framework density 21.632724
#
# number of rings (size 3 to 8) (size 9 to 14) (size 15 to 20)
#    0.000    2.286    0.000    1.714    0.000    9.143 
#    0.000    2.857    0.000    0.000    0.000    0.000 
#    0.000    0.000    0.000    0.000    0.000    0.000 
#
# Total GULP energy -156034.898319 kJ/mol
# GULP energy per Si atom -5572.674940 kJ/mol
# Density = 2.158349 g / cm^3
# Si number density = 21.632724 Si / 1000 Ang^3
#
#
#
# Elastic Constant Matrix: (Units=GPa)
#
#
# Indices 1 2 3 4 5 6 
#
# 1 125.6200 48.2868 32.8041 0.0000 -40.5258 0.0000
# 2 48.2868 87.8868 8.0432 0.0000 -17.1677 0.0000
# 3 32.8041 8.0432 25.5945 0.0000 -30.0421 0.0000
# 4 0.0000 0.0000 0.0000 14.4976 0.0000 3.3661
# 5 -40.5258 -17.1677 -30.0421 0.0000 42.5567 0.0000
# 6 0.0000 0.0000 0.0000 3.3661 0.0000 32.3954
#
#
#
# Elastic Compliance Matrix: (Units=1/GPa)
#
#
# Indices 1 2 3 4 5 6 
#
# 1 0.015066 -0.006996 -0.020910 0.000000 -0.003236 0.000000
# 2 -0.006996 0.016206 0.021749 0.000000 0.015229 0.000000
# 3 -0.020910 0.021749 0.268162 0.000000 0.178166 0.000000
# 4 0.000000 0.000000 0.000000 0.070682 0.000000 -0.007344
# 5 -0.003236 0.015229 0.178166 0.000000 0.152333 0.000000
# 6 0.000000 0.000000 0.000000 -0.007344 0.000000 0.031632
#
#
# Mechanical properties :
#
#
# Convention : Reuss Voigt Hill
#
# Bulk Modulus (GPa) = 3.48284 46.37438 24.92861
# Shear Modulus (GPa) = 7.55170 27.88775 17.71973
#
# Velocity S-wave (km/s) = 1.87041 3.59436 2.86513
# Velocity P-wave (km/s) = 2.50561 6.22171 4.74277
#
# Compressibility (1/GPa) = 0.28712189
#
# Stress axis : x y z
#
# Youngs Moduli (GPa) = 66.37420 61.70375 3.72908
#
# Poissons Ratio (x) = 0.43169 0.07797
# Poissons Ratio (y) = 0.46436 -0.08111
# Poissons Ratio (z) = 1.38786 -1.34201
#
# Static dielectric constant tensor:
#      x y z
#    x 1.878930 0.000000 -0.074990 
#    y 0.000000 1.821610 0.000000 
#    z -0.074990 0.000000 1.796250 
# 
# From -- ./inp_files/307267.got.cif
#   From: 2010.05.17/outbox.cif.g08.bks.cpg/sg15_154_cif.got.tgz:307267.got - 2010.06.03 18:47:42.
