data_PCOD9268711
_publ_section_title
;
Structure prediction by ZEFSAII (Michael W. Deem and Ramdas Pophale) SiO2 
 PCOD9268711
Probable space group: C 2/C
;
_chemical_formula_sum "Si O2"
_cell_formula_units_Z 48
_cell_length_a 11.243251
_cell_length_b 8.541094
_cell_length_c 18.833973
_cell_angle_alpha 90.000000
_cell_angle_beta 108.774453
_cell_angle_gamma 90.000000
_cell_volume 1712.388586
_symmetry_space_group_name_H-M "C 2/C"
_symmetry_group_IT_number 15
_symmetry_cell_setting 'monoclinic'
loop_
_space_group_symop_operation_xyz
x,y,z
-x,y,1/2-z
-x,-y,-z
x,-y,1/2+z
1/2+x,1/2+y,z
1/2-x,1/2+y,1/2-z
1/2-x,1/2-y,-z
1/2+x,1/2-y,1/2+z
loop_
_atom_site_type_symbol
_atom_site_label
_atom_site_fract_x
_atom_site_fract_y
_atom_site_fract_z
Si Si1 0.110035 0.819489 0.065622
Si Si2 0.948349 0.240695 0.166510
Si Si3 0.636999 0.470012 0.455012
Si Si4 0.900911 0.750329 0.172665
Si Si5 0.250981 0.022710 0.704089
Si Si6 0.601510 0.985063 0.635826
O O1 0.129834 0.632411 0.075438
O O2 0.127706 0.906782 0.145279
O O3 0.195688 0.923110 0.028973
O O4 0.966051 0.863341 0.022040
O O5 0.904865 0.107283 0.106104
O O6 0.848666 0.357254 0.185299
O O7 0.000000 0.169518 0.250000
O O8 0.035249 0.348243 0.132077
O O9 0.674789 0.342282 0.403629
O O10 0.793396 0.648675 0.189508
O O11 0.000000 0.819152 0.250000
O O12 0.996303 0.625128 0.153933
O O13 0.274299 0.010078 0.792240
#
# Coordination Sequence:
#
# PCOD9268711 Si02
#       6
#     8   8   8   8   8   8
#     4  10  21  34  49  75 106 134 163 205 260 306
#     4   9  18  34  55  75  95 131 175 207 244 299
#     4  10  20  33  50  74 106 135 164 205 254 309
#     4   8  15  32  54  72  97 136 171 205 250 297
#     4   9  18  33  53  73  96 130 174 214 247 294
#     4   8  17  34  52  71 101 133 164 208 258 302
#
# _framework density 28.031020000000002
#
# number of rings (size 3 to 8) (size 9 to 14) (size 15 to 20)
#    0.000    3.000    0.000    2.500    0.000    4.667 
#    0.000    1.667    0.000    0.000    0.000    0.000 
#    0.000    0.000    0.000    0.000    0.000    0.000 
#
# Total GULP energy -133683.605020 kJ/mol
# GULP energy per Si atom -5570.150209 kJ/mol
# Density = 2.796722 g / cm^3
# Si number density = 28.031020 Si / 1000 Ang^3
#
#
#
# Elastic Constant Matrix: (Units=GPa)
#
#
# Indices 1 2 3 4 5 6 
#
# 1 57.3402 12.2302 1.7241 0.0000 -14.5782 0.0000
# 2 12.2302 93.6187 4.8409 0.0000 -0.2721 0.0000
# 3 1.7241 4.8409 77.7153 0.0000 -23.2088 0.0000
# 4 0.0000 0.0000 0.0000 1047.3560 0.0000 -380.2178
# 5 -14.5782 -0.2721 -23.2088 0.0000 34.3309 0.0000
# 6 0.0000 0.0000 0.0000 -380.2178 0.0000 159.7499
#
#
#
# Elastic Compliance Matrix: (Units=1/GPa)
#
#
# Indices 1 2 3 4 5 6 
#
# 1 0.020684 -0.002822 0.002923 0.000000 0.010737 0.000000
# 2 -0.002822 0.011107 -0.001204 0.000000 -0.001924 0.000000
# 3 0.002923 -0.001204 0.016596 0.000000 0.012451 0.000000
# 4 0.000000 0.000000 0.000000 0.007022 0.000000 0.016713
# 5 0.010737 -0.001924 0.012451 0.000000 0.042090 0.000000
# 6 0.000000 0.000000 0.000000 0.016713 0.000000 0.046039
#
#
# Mechanical properties :
#
#
# Convention : Reuss Voigt Hill
#
# Bulk Modulus (GPa) = 21.65367 29.58497 25.61932
# Shear Modulus (GPa) = 31.02964 262.27928 146.65446
#
# Velocity S-wave (km/s) = 3.33073 9.68352 7.24101
# Velocity P-wave (km/s) = 4.74693 11.64495 8.89208
#
# Compressibility (1/GPa) = 0.04618155
#
# Stress axis : x y z
#
# Youngs Moduli (GPa) = 48.34758 90.03370 60.25519
#
# Poissons Ratio (x) = 0.25408 -0.17615
# Poissons Ratio (y) = 0.13644 0.07254
# Poissons Ratio (z) = -0.14134 0.10839
#
# Static dielectric constant tensor:
#      x y z
#    x 2.379320 0.000000 0.013720 
#    y 0.000000 2.146800 0.000000 
#    z 0.013720 0.000000 2.326370 
# 
# From -- ./inp_files/224558.got.cif
#   From: 2010.05.17/outbox.cif.g08.bks.cpg/sg15_113_cif.got.tgz:224558.got - 2010.06.03 18:47:42.
