data_PCOD9268217
_publ_section_title
;
Structure prediction by ZEFSAII (Michael W. Deem and Ramdas Pophale) SiO2 
 PCOD9268217
Probable space group: C 2/C
;
_chemical_formula_sum "Si O2"
_cell_formula_units_Z 64
_cell_length_a 8.749253
_cell_length_b 16.650358
_cell_length_c 28.770505
_cell_angle_alpha 90.000000
_cell_angle_beta 129.809507
_cell_angle_gamma 90.000000
_cell_volume 3219.611764
_symmetry_space_group_name_H-M "C 2/C"
_symmetry_group_IT_number 15
_symmetry_cell_setting 'monoclinic'
loop_
_space_group_symop_operation_xyz
x,y,z
-x,y,1/2-z
-x,-y,-z
x,-y,1/2+z
1/2+x,1/2+y,z
1/2-x,1/2+y,1/2-z
1/2-x,1/2-y,-z
1/2+x,1/2-y,1/2+z
loop_
_atom_site_type_symbol
_atom_site_label
_atom_site_fract_x
_atom_site_fract_y
_atom_site_fract_z
Si Si1 0.026860 0.968283 0.558031
Si Si2 0.124107 0.671604 0.490135
Si Si3 0.664782 0.735217 0.687967
Si Si4 0.352417 0.536086 0.182713
Si Si5 0.304737 0.311992 0.550751
Si Si6 0.064575 0.393444 0.880052
Si Si7 0.009037 0.213683 0.320949
Si Si8 0.905547 0.088039 0.613437
O O1 0.246129 0.931038 0.607552
O O2 0.874235 0.896524 0.542153
O O3 0.000000 0.000000 0.500000
O O4 0.000920 0.041022 0.588657
O O5 0.250000 0.750000 0.500000
O O6 0.127447 0.613883 0.446320
O O7 0.224732 0.636362 0.555451
O O8 0.893177 0.682861 0.456424
O O9 0.500315 0.804923 0.649298
O O10 0.815007 0.740992 0.672972
O O11 0.558073 0.650046 0.666322
O O12 0.802728 0.756140 0.758945
O O13 0.500000 0.501833 0.250000
O O14 0.450893 0.620314 0.184912
O O15 0.333776 0.477143 0.136125
O O16 0.137173 0.555608 0.161784
O O17 0.250000 0.250000 0.500000
O O18 0.469297 0.280748 0.619530
#
# Coordination Sequence:
#
# PCOD9268217 Si02
#       8
#     8   8   8   8   8   8   8   8
#     4  12  27  41  62 107 145 171 224 290 346 400
#     4  12  22  41  72  97 135 183 225 273 346 417
#     4  10  21  42  73  92 124 182 230 267 333 423
#     4  11  22  46  70  93 130 180 232 283 343 406
#     4  12  26  43  69 101 139 178 228 283 342 413
#     4  11  21  42  71  92 129 187 222 267 343 417
#     4  10  19  45  70  92 125 182 226 266 340 417
#     4  12  25  42  67 102 137 171 230 288 343 393
#
# _framework density 19.878173
#
# number of rings (size 3 to 8) (size 9 to 14) (size 15 to 20)
#    0.000    0.750    8.750    0.750    3.500    1.000 
#    6.750    1.875    0.000    0.000    0.000    0.000 
#    0.000    0.000    0.000    0.000    0.000    0.000 
#
# Total GULP energy -178802.015960 kJ/mol
# GULP energy per Si atom -5587.562999 kJ/mol
# Density = 1.983293 g / cm^3
# Si number density = 19.878173 Si / 1000 Ang^3
#
#
#
# Elastic Constant Matrix: (Units=GPa)
#
#
# Indices 1 2 3 4 5 6 
#
# 1 60.1038 32.0598 22.6898 0.0000 10.3494 0.0000
# 2 32.0598 78.0717 30.3162 0.0000 11.0240 0.0000
# 3 22.6898 30.3162 116.0614 0.0000 1.9022 0.0000
# 4 0.0000 0.0000 0.0000 31.7106 0.0000 -10.1890
# 5 10.3494 11.0240 1.9022 0.0000 34.0795 0.0000
# 6 0.0000 0.0000 0.0000 -10.1890 0.0000 22.6386
#
#
#
# Elastic Compliance Matrix: (Units=1/GPa)
#
#
# Indices 1 2 3 4 5 6 
#
# 1 0.022320 -0.007690 -0.002287 0.000000 -0.004163 0.000000
# 2 -0.007690 0.017597 -0.003041 0.000000 -0.003187 0.000000
# 3 -0.002287 -0.003041 0.009839 0.000000 0.001129 0.000000
# 4 0.000000 0.000000 0.000000 0.036867 0.000000 0.016593
# 5 -0.004163 -0.003187 0.001129 0.000000 0.031575 0.000000
# 6 0.000000 0.000000 0.000000 0.016593 0.000000 0.051640
#
#
# Mechanical properties :
#
#
# Convention : Reuss Voigt Hill
#
# Bulk Modulus (GPa) = 42.15606 47.15207 44.65407
# Shear Modulus (GPa) = 24.53623 28.96380 26.75001
#
# Velocity S-wave (km/s) = 3.51711 3.82129 3.67236
# Velocity P-wave (km/s) = 6.14384 6.57584 6.36351
#
# Compressibility (1/GPa) = 0.02372138
#
# Stress axis : x y z
#
# Youngs Moduli (GPa) = 44.80351 56.82652 101.63643
#
# Poissons Ratio (x) = 0.43698 0.23240
# Poissons Ratio (y) = 0.34453 0.30908
# Poissons Ratio (z) = 0.10245 0.17281
#
# Static dielectric constant tensor:
#      x y z
#    x 2.342290 0.000000 0.060620 
#    y 0.000000 1.726410 0.000000 
#    z 0.060620 0.000000 1.728910 
# 
# From -- ./inp_files/308290.got.cif
#   From: 2010.05.17/outbox.cif.g08.bks.cpg/sg15_155_cif.got.tgz:308290.got - 2010.06.03 18:47:42.
