data_PCOD9268426
_publ_section_title
;
Structure prediction by ZEFSAII (Michael W. Deem and Ramdas Pophale) SiO2 
 PCOD9268426
Probable space group: C 2/C
;
_chemical_formula_sum "Si O2"
_cell_formula_units_Z 32
_cell_length_a 11.581357
_cell_length_b 21.999442
_cell_length_c 12.502204
_cell_angle_alpha 90.000000
_cell_angle_beta 155.766078
_cell_angle_gamma 90.000000
_cell_volume 1307.469880
_symmetry_space_group_name_H-M "C 2/C"
_symmetry_group_IT_number 15
_symmetry_cell_setting 'monoclinic'
loop_
_space_group_symop_operation_xyz
x,y,z
-x,y,1/2-z
-x,-y,-z
x,-y,1/2+z
1/2+x,1/2+y,z
1/2-x,1/2+y,1/2-z
1/2-x,1/2-y,-z
1/2+x,1/2-y,1/2+z
loop_
_atom_site_type_symbol
_atom_site_label
_atom_site_fract_x
_atom_site_fract_y
_atom_site_fract_z
Si Si1 0.470678 0.098299 0.925556
Si Si2 0.256488 0.792258 0.768662
Si Si3 0.708402 0.983459 0.812026
Si Si4 0.099327 0.864785 0.448275
O O1 0.173698 0.129559 0.704288
O O2 0.440206 0.048803 0.806781
O O3 0.714869 0.148826 0.129628
O O4 0.535352 0.057135 0.083133
O O5 0.981312 0.753233 0.510925
O O6 0.310500 0.822852 0.696195
O O7 0.788985 0.934331 0.970516
O O8 0.000000 0.000000 0.000000
O O9 0.000000 0.840861 0.250000
#
# Coordination Sequence:
#
# PCOD9268426 Si02
#       4
#     8   8   8   8
#     4   9  17  33  49  67  93 129 165 208 244 279
#     4  11  21  34  47  68  97 136 171 201 232 285
#     4   8  16  30  50  68  89 124 163 207 250 283
#     4  10  20  32  48  71 100 133 165 201 242 290
#
# _framework density 24.474751999999999
#
# number of rings (size 3 to 8) (size 9 to 14) (size 15 to 20)
#    0.000    2.500    2.500    0.000    0.000    5.000 
#    0.000    0.000    0.000    0.000    0.000    0.000 
#    0.000    2.000    0.000   17.750    0.000    2.500 
#
# Total GULP energy -89082.123754 kJ/mol
# GULP energy per Si atom -5567.632735 kJ/mol
# Density = 2.441905 g / cm^3
# Si number density = 24.474752 Si / 1000 Ang^3
#
#
#
# Elastic Constant Matrix: (Units=GPa)
#
#
# Indices 1 2 3 4 5 6 
#
# 1 35.9303 -8.3678 15.0449 0.0059 -8.2644 0.0022
# 2 -8.3678 124.2921 54.5806 0.0061 -5.2446 0.0030
# 3 15.0449 54.5806 155.0177 0.0066 -1.8832 0.0023
# 4 0.0059 0.0061 0.0066 66.3548 0.0035 -1.6355
# 5 -8.2644 -5.2446 -1.8832 0.0035 14.1040 0.0017
# 6 0.0022 0.0030 0.0023 -1.6355 0.0017 -5.2198
#
#
#
# Elastic Compliance Matrix: (Units=1/GPa)
#
#
# Indices 1 2 3 4 5 6 
#
# 1 0.036672 0.005769 -0.005312 -0.000004 0.022924 0.000025
# 2 0.005769 0.010561 -0.004197 -0.000001 0.006747 0.000009
# 3 -0.005312 -0.004197 0.008401 0.000000 -0.003551 -0.000002
# 4 -0.000004 -0.000001 0.000000 0.014955 -0.000006 -0.004686
# 5 0.022924 0.006747 -0.003551 -0.000006 0.086370 0.000042
# 6 0.000025 0.000009 -0.000002 -0.004686 0.000042 -0.190108
#
#
# Mechanical properties :
#
#
# Convention : Reuss Voigt Hill
#
# Bulk Modulus (GPa) = 20.76612 48.63953 34.70283
# Shear Modulus (GPa) = -519.83701 31.97993 -243.92854
#
# Velocity S-wave (km/s) = -14.58967 3.61868 -9.99409
# Velocity P-wave (km/s) = 16.59241 6.11362 10.90715
#
# Compressibility (1/GPa) = 0.04815535
#
# Stress axis : x y z
#
# Youngs Moduli (GPa) = 27.26866 94.68374 119.03588
#
# Poissons Ratio (x) = -0.54621 0.63229
# Poissons Ratio (y) = -0.15731 0.49954
# Poissons Ratio (z) = 0.14485 0.39734
#
# Static dielectric constant tensor:
#      x y z
#    x 2.000090 0.000000 0.083870 
#    y 0.000000 2.097410 0.000000 
#    z 0.083870 0.000000 2.116100 
# 
# From -- ./inp_files/4083.got.cif
#   From: 2010.05.17/outbox.cif.g08.bks.cpg/sg15_3_cif.got.tgz:4083.got - 2010.06.03 18:47:42.
