data_PCOD9268750
_publ_section_title
;
Structure prediction by ZEFSAII (Michael W. Deem and Ramdas Pophale) SiO2 
 PCOD9268750
Probable space group: C 2/C
;
_chemical_formula_sum "Si O2"
_cell_formula_units_Z 60
_cell_length_a 26.040448
_cell_length_b 25.444343
_cell_length_c 5.724308
_cell_angle_alpha 90.000000
_cell_angle_beta 123.341475
_cell_angle_gamma 90.000000
_cell_volume 3168.561999
_symmetry_space_group_name_H-M "C 2/C"
_symmetry_group_IT_number 15
_symmetry_cell_setting 'monoclinic'
loop_
_space_group_symop_operation_xyz
x,y,z
-x,y,1/2-z
-x,-y,-z
x,-y,1/2+z
1/2+x,1/2+y,z
1/2-x,1/2+y,1/2-z
1/2-x,1/2-y,-z
1/2+x,1/2-y,1/2+z
loop_
_atom_site_type_symbol
_atom_site_label
_atom_site_fract_x
_atom_site_fract_y
_atom_site_fract_z
Si Si1 0.286984 0.631919 0.772761
Si Si2 0.000000 0.191165 0.250000
Si Si3 0.410226 0.357465 0.883973
Si Si4 0.894096 0.972891 0.014099
Si Si5 0.742070 0.705513 0.174676
Si Si6 0.680353 0.201546 0.739807
Si Si7 0.244486 0.010355 0.827955
Si Si8 0.564241 0.250866 0.284599
O O1 0.291421 0.656905 0.526191
O O2 0.227458 0.661288 0.734248
O O3 0.275296 0.570744 0.727400
O O4 0.347919 0.641291 0.074930
O O5 0.967125 0.153619 0.353036
O O6 0.049935 0.231215 0.485602
O O7 0.413866 0.412601 0.029077
O O8 0.413804 0.306153 0.051826
O O9 0.912952 0.003129 0.816697
O O10 0.819265 0.976959 0.828673
O O11 0.702303 0.737898 0.259600
O O12 0.806783 0.691057 0.455107
O O13 0.750000 0.750000 0.000000
O O14 0.613252 0.205392 0.461657
O O15 0.276280 0.000671 0.157895
O O16 0.500000 0.237798 0.250000
#
# Coordination Sequence:
#
# PCOD9268750 Si02
#       8
#     8   4   8   8   8   8   8   8
#     4  11  21  32  57  81 109 145 182 234 282 340
#     4  10  24  38  56  72 102 146 194 232 286 340
#     4  11  21  36  56  76 105 147 191 235 284 336
#     4  10  21  36  56  80 107 147 193 242 292 331
#     4   9  18  30  48  78 109 136 170 225 275 335
#     4  10  20  33  51  80 109 136 181 226 284 341
#     4  10  21  36  54  82 116 154 188 230 290 340
#     4  10  22  38  55  75 107 146 186 233 282 341
#
# _framework density 18.936032999999998
#
# number of rings (size 3 to 8) (size 9 to 14) (size 15 to 20)
#    0.000    1.867    2.667    3.200    3.733    5.333 
#    0.000    0.667    0.000    0.000    0.000    0.000 
#    0.000    1.067    0.000    0.133    0.000    0.000 
#
# Total GULP energy -167155.395763 kJ/mol
# GULP energy per Si atom -5571.846525 kJ/mol
# Density = 1.889293 g / cm^3
# Si number density = 18.936033 Si / 1000 Ang^3
#
#
#
# Elastic Constant Matrix: (Units=GPa)
#
#
# Indices 1 2 3 4 5 6 
#
# 1 45.8803 14.1137 26.0757 0.0000 5.3086 0.0000
# 2 14.1137 36.8655 16.6042 0.0000 5.2949 0.0000
# 3 26.0757 16.6042 99.6598 0.0000 -9.7813 0.0000
# 4 0.0000 0.0000 0.0000 23.7355 0.0000 -6.4156
# 5 5.3086 5.2949 -9.7813 0.0000 32.1883 0.0000
# 6 0.0000 0.0000 0.0000 -6.4156 0.0000 15.2100
#
#
#
# Elastic Compliance Matrix: (Units=1/GPa)
#
#
# Indices 1 2 3 4 5 6 
#
# 1 0.028492 -0.007021 -0.006837 0.000000 -0.005621 0.000000
# 2 -0.007021 0.032439 -0.004100 0.000000 -0.005424 0.000000
# 3 -0.006837 -0.004100 0.013073 0.000000 0.005774 0.000000
# 4 0.000000 0.000000 0.000000 0.047553 0.000000 0.020058
# 5 -0.005621 -0.005424 0.005774 0.000000 0.034641 0.000000
# 6 0.000000 0.000000 0.000000 0.020058 0.000000 0.074207
#
#
# Mechanical properties :
#
#
# Convention : Reuss Voigt Hill
#
# Bulk Modulus (GPa) = 26.25494 32.88809 29.57151
# Shear Modulus (GPa) = 17.92011 22.60090 20.26050
#
# Velocity S-wave (km/s) = 3.07962 3.45851 3.27455
# Velocity P-wave (km/s) = 5.15175 5.77530 5.47242
#
# Compressibility (1/GPa) = 0.03808807
#
# Stress axis : x y z
#
# Youngs Moduli (GPa) = 35.09794 30.82675 76.49486
#
# Poissons Ratio (x) = 0.21644 0.52297
# Poissons Ratio (y) = 0.24643 0.31363
# Poissons Ratio (z) = 0.23995 0.12639
#
# Static dielectric constant tensor:
#      x y z
#    x 1.757900 0.000000 -0.032600 
#    y 0.000000 1.627870 0.000000 
#    z -0.032600 0.000000 1.827010 
# 
# From -- ./inp_files/18709.got.cif
#   From: 2010.05.17/outbox.cif.g08.bks.cpg/sg15_10_cif.got.tgz:18709.got - 2010.06.03 18:47:42.
