data_PCOD9268636
_publ_section_title
;
Structure prediction by ZEFSAII (Michael W. Deem and Ramdas Pophale) SiO2 
 PCOD9268636
Probable space group: C 2/C
;
_chemical_formula_sum "Si O2"
_cell_formula_units_Z 52
_cell_length_a 10.993929
_cell_length_b 28.804914
_cell_length_c 17.987528
_cell_angle_alpha 90.000000
_cell_angle_beta 28.726784
_cell_angle_gamma 90.000000
_cell_volume 2737.820788
_symmetry_space_group_name_H-M "C 2/C"
_symmetry_group_IT_number 15
_symmetry_cell_setting 'monoclinic'
loop_
_space_group_symop_operation_xyz
x,y,z
-x,y,1/2-z
-x,-y,-z
x,-y,1/2+z
1/2+x,1/2+y,z
1/2-x,1/2+y,1/2-z
1/2-x,1/2-y,-z
1/2+x,1/2-y,1/2+z
loop_
_atom_site_type_symbol
_atom_site_label
_atom_site_fract_x
_atom_site_fract_y
_atom_site_fract_z
Si Si1 0.503516 0.544671 0.443107
Si Si2 0.733144 0.196160 0.848039
Si Si3 0.787654 0.107727 0.739684
Si Si4 0.769444 0.005932 0.815459
Si Si5 0.203623 0.135347 0.421757
Si Si6 0.000000 0.586781 0.750000
Si Si7 0.029516 0.765226 0.059811
O O1 0.500000 0.500000 0.500000
O O2 0.656999 0.531078 0.287573
O O3 0.616762 0.592250 0.416490
O O4 0.205986 0.556244 0.595292
O O5 0.678757 0.143219 0.857444
O O6 0.000000 0.197623 0.750000
O O7 0.793162 0.221910 0.737974
O O8 0.521458 0.222416 0.008070
O O9 0.766033 0.055472 0.776527
O O10 0.647629 0.114260 0.735299
O O11 0.082698 0.120030 0.566001
O O12 0.000000 0.005601 0.750000
O O13 0.500000 0.000000 0.000000
O O14 0.500000 0.138414 0.250000
O O15 0.104990 0.188662 0.472434
O O16 0.250000 0.750000 0.000000
#
# Coordination Sequence:
#
# PCOD9268636 Si02
#       7
#     8   8   8   8   8   4   8
#     4  11  23  39  64  81 113 161 200 245 286 369
#     4   9  17  32  54  82 116 147 186 236 305 360
#     4  10  21  37  58  84 113 157 193 247 295 370
#     4  12  26  41  58  90 127 158 202 258 317 355
#     4  10  20  32  60  88 111 148 203 239 291 356
#     4  10  20  40  64  84 110 150 214 234 302 350
#     4   9  17  32  53  84 119 148 181 244 304 359
#
# _framework density 18.993207999999999
#
# number of rings (size 3 to 8) (size 9 to 14) (size 15 to 20)
#    0.000    1.846    3.077    2.769    3.231    0.000 
#    2.769    0.000    0.000    8.308    0.000    0.000 
#    0.000    0.000    0.000    0.000    0.000    0.000 
#
# Total GULP energy -144738.791484 kJ/mol
# GULP energy per Si atom -5566.876596 kJ/mol
# Density = 1.894998 g / cm^3
# Si number density = 18.993208 Si / 1000 Ang^3
#
#
#
# Elastic Constant Matrix: (Units=GPa)
#
#
# Indices 1 2 3 4 5 6 
#
# 1 57.3718 26.0363 20.6988 0.0001 12.6733 -0.0005
# 2 26.0363 100.9249 18.3194 0.0002 19.6592 -0.0002
# 3 20.6988 18.3194 95.4379 -0.0007 5.4997 -0.0008
# 4 0.0001 0.0002 -0.0007 29.5676 0.0001 16.2153
# 5 12.6733 19.6592 5.4997 0.0001 22.2172 0.0006
# 6 -0.0005 -0.0002 -0.0008 16.2153 0.0006 30.6573
#
#
#
# Elastic Compliance Matrix: (Units=1/GPa)
#
#
# Indices 1 2 3 4 5 6 
#
# 1 0.022219 -0.003352 -0.003668 0.000000 -0.008800 0.000001
# 2 -0.003352 0.012760 -0.001199 0.000000 -0.009082 0.000000
# 3 -0.003668 -0.001199 0.011486 0.000000 0.000310 0.000000
# 4 0.000000 0.000000 0.000000 0.047639 0.000001 -0.025198
# 5 -0.008800 -0.009082 0.000310 0.000001 0.057989 -0.000002
# 6 0.000001 0.000000 0.000000 -0.025198 -0.000002 0.045946
#
#
# Mechanical properties :
#
#
# Convention : Reuss Voigt Hill
#
# Bulk Modulus (GPa) = 33.30442 42.64928 37.97685
# Shear Modulus (GPa) = 22.27307 29.06710 25.67009
#
# Velocity S-wave (km/s) = 3.42817 3.91627 3.68032
# Velocity P-wave (km/s) = 5.76565 6.55388 6.17236
#
# Compressibility (1/GPa) = 0.03002604
#
# Stress axis : x y z
#
# Youngs Moduli (GPa) = 45.00716 78.37151 87.06340
#
# Poissons Ratio (x) = 0.26269 0.31938
# Poissons Ratio (y) = 0.15086 0.10438
# Poissons Ratio (z) = 0.16510 0.09396
#
# Static dielectric constant tensor:
#      x y z
#    x 1.729430 0.000000 -0.011460 
#    y 0.000000 1.690000 0.000000 
#    z -0.011460 0.000000 1.699870 
# 
# From -- ./inp_files/201350.got.cif
#   From: 2010.05.17/outbox.cif.g08.bks.cpg/sg15_101_cif.got.tgz:201350.got - 2010.06.03 18:47:42.
