data_PCOD9268558
_publ_section_title
;
Structure prediction by ZEFSAII (Michael W. Deem and Ramdas Pophale) SiO2 
 PCOD9268558
Probable space group: C 2/C
;
_chemical_formula_sum "Si O2"
_cell_formula_units_Z 40
_cell_length_a 21.579711
_cell_length_b 9.740999
_cell_length_c 9.153020
_cell_angle_alpha 90.000000
_cell_angle_beta 125.917842
_cell_angle_gamma 90.000000
_cell_volume 1558.199100
_symmetry_space_group_name_H-M "C 2/C"
_symmetry_group_IT_number 15
_symmetry_cell_setting 'monoclinic'
loop_
_space_group_symop_operation_xyz
x,y,z
-x,y,1/2-z
-x,-y,-z
x,-y,1/2+z
1/2+x,1/2+y,z
1/2-x,1/2+y,1/2-z
1/2-x,1/2-y,-z
1/2+x,1/2-y,1/2+z
loop_
_atom_site_type_symbol
_atom_site_label
_atom_site_fract_x
_atom_site_fract_y
_atom_site_fract_z
Si Si1 0.444965 0.814561 0.307047
Si Si2 0.777873 0.608128 0.611001
Si Si3 0.050815 0.789374 0.192978
Si Si4 0.193874 0.259561 0.058569
Si Si5 0.643662 0.545263 0.239598
O O1 0.500000 0.845366 0.250000
O O2 0.368043 0.905630 0.204385
O O3 0.498236 0.808681 0.523533
O O4 0.411062 0.658508 0.257999
O O5 0.750000 0.750000 0.500000
O O6 0.774823 0.630834 0.780115
O O7 0.714795 0.516048 0.446020
O O8 0.114117 0.707363 0.370955
O O9 0.000000 0.859132 0.250000
O O10 0.094269 0.906072 0.157736
O O11 0.173303 0.128689 0.137311
O O12 0.250000 0.250000 0.000000
#
# Coordination Sequence:
#
# PCOD9268558 Si02
#       5
#     8   8   8   8   8
#     4  10  20  32  55  82 121 157 191 239 299 356
#     4   8  18  37  49  74 116 167 197 220 295 381
#     4  12  22  36  58  94 125 147 198 264 309 341
#     4  10  22  36  53  78 116 165 200 237 294 375
#     4  10  22  35  53  81 124 158 195 240 312 359
#
# _framework density 25.670662
#
# number of rings (size 3 to 8) (size 9 to 14) (size 15 to 20)
#    0.000    2.400    4.000    1.200   11.200    0.000 
#    0.000    0.000    0.000    0.000    0.000    2.800 
#    0.000    0.200    0.000    0.000    0.000    0.000 
#
# Total GULP energy -111686.120591 kJ/mol
# GULP energy per Si atom -5584.306030 kJ/mol
# Density = 2.561223 g / cm^3
# Si number density = 25.670662 Si / 1000 Ang^3
#
#
#
# Elastic Constant Matrix: (Units=GPa)
#
#
# Indices 1 2 3 4 5 6 
#
# 1 223.7572 8.0831 90.1075 0.0000 -19.6190 0.0000
# 2 8.0831 65.5181 12.2752 0.0000 -0.3399 0.0000
# 3 90.1075 12.2752 229.2666 0.0000 30.3548 0.0000
# 4 0.0000 0.0000 0.0000 14.5776 0.0000 -11.4634
# 5 -19.6190 -0.3399 30.3548 0.0000 48.9121 0.0000
# 6 0.0000 0.0000 0.0000 -11.4634 0.0000 20.4775
#
#
#
# Elastic Compliance Matrix: (Units=1/GPa)
#
#
# Indices 1 2 3 4 5 6 
#
# 1 0.006020 -0.000174 -0.002916 0.000000 0.004223 0.000000
# 2 -0.000174 0.015443 -0.000832 0.000000 0.000553 0.000000
# 3 -0.002916 -0.000832 0.006219 0.000000 -0.005035 0.000000
# 4 0.000000 0.000000 0.000000 0.122543 0.000000 0.068600
# 5 0.004223 0.000553 -0.005035 0.000000 0.025267 0.000000
# 6 0.000000 0.000000 0.000000 0.068600 0.000000 0.087237
#
#
# Mechanical properties :
#
#
# Convention : Reuss Voigt Hill
#
# Bulk Modulus (GPa) = 50.40752 82.16374 66.28563
# Shear Modulus (GPa) = 18.03850 43.99851 31.01851
#
# Velocity S-wave (km/s) = 2.65370 4.14449 3.47987
# Velocity P-wave (km/s) = 5.39151 7.41477 6.48256
#
# Compressibility (1/GPa) = 0.01983831
#
# Stress axis : x y z
#
# Youngs Moduli (GPa) = 166.11662 64.75363 160.80277
#
# Poissons Ratio (x) = 0.01130 0.46886
# Poissons Ratio (y) = 0.02899 0.13371
# Poissons Ratio (z) = 0.48435 0.05384
#
# Static dielectric constant tensor:
#      x y z
#    x 2.416590 0.000000 0.000700 
#    y 0.000000 2.187030 0.000000 
#    z 0.000700 0.000000 2.018860 
# 
# From -- ./inp_files/55500.got.cif
#   From: 2010.05.17/outbox.cif.g08.bks.cpg/sg15_28_cif.got.tgz:55500.got - 2010.06.03 18:47:42.
