data_PCOD9268842
_publ_section_title
;
Structure prediction by ZEFSAII (Michael W. Deem and Ramdas Pophale) SiO2 
 PCOD9268842
Probable space group: C 2/C
;
_chemical_formula_sum "Si O2"
_cell_formula_units_Z 56
_cell_length_a 17.270245
_cell_length_b 11.325072
_cell_length_c 16.311293
_cell_angle_alpha 90.000000
_cell_angle_beta 66.226454
_cell_angle_gamma 90.000000
_cell_volume 2919.565301
_symmetry_space_group_name_H-M "C 2/C"
_symmetry_group_IT_number 15
_symmetry_cell_setting 'monoclinic'
loop_
_space_group_symop_operation_xyz
x,y,z
-x,y,1/2-z
-x,-y,-z
x,-y,1/2+z
1/2+x,1/2+y,z
1/2-x,1/2+y,1/2-z
1/2-x,1/2-y,-z
1/2+x,1/2-y,1/2+z
loop_
_atom_site_type_symbol
_atom_site_label
_atom_site_fract_x
_atom_site_fract_y
_atom_site_fract_z
Si Si1 0.953141 0.150648 0.087355
Si Si2 0.319271 0.286379 0.265632
Si Si3 0.774721 0.107456 0.099867
Si Si4 0.123149 0.219124 0.076016
Si Si5 0.744168 0.332370 0.376054
Si Si6 0.516920 0.608344 0.875715
Si Si7 0.163967 0.948403 0.103148
O O1 0.856614 0.174434 0.103351
O O2 0.022510 0.228862 0.105494
O O3 0.951668 0.027254 0.137567
O O4 0.997105 0.131456 0.979708
O O5 0.305232 0.176924 0.331888
O O6 0.261769 0.274171 0.209841
O O7 0.412708 0.306719 0.190110
O O8 0.297802 0.402447 0.328872
O O9 0.776099 0.970627 0.125595
O O10 0.784112 0.098215 0.997675
O O11 0.166602 0.311731 0.117762
O O12 0.147381 0.087993 0.100016
O O13 0.173918 0.222030 0.967909
O O14 0.428777 0.610245 0.865571
#
# Coordination Sequence:
#
# PCOD9268842 Si02
#       7
#     8   8   8   8   8   8   8
#     4   9  15  34  56  80 111 143 181 238 293 331
#     4  12  20  31  52  83 114 144 192 234 280 356
#     4  10  21  35  52  80 122 152 180 236 298 346
#     4   9  18  35  58  81 109 146 189 239 297 338
#     4  10  20  33  53  86 113 145 189 241 289 341
#     4   9  16  31  56  82 106 138 185 242 283 335
#     4   9  20  34  55  80 112 149 185 236 298 341
#
# _framework density 19.180937
#
# number of rings (size 3 to 8) (size 9 to 14) (size 15 to 20)
#    0.000    2.286    2.857    2.571    2.000    0.000 
#    0.000    0.714    0.000    3.429    0.000    7.000 
#    0.000    0.000    0.000    0.000    0.000    0.000 
#
# Total GULP energy -156026.488318 kJ/mol
# GULP energy per Si atom -5572.374583 kJ/mol
# Density = 1.913728 g / cm^3
# Si number density = 19.180937 Si / 1000 Ang^3
#
#
#
# Elastic Constant Matrix: (Units=GPa)
#
#
# Indices 1 2 3 4 5 6 
#
# 1 74.9541 9.5499 18.7023 0.0000 4.7548 0.0000
# 2 9.5499 14.9914 27.3430 0.0000 -4.0174 0.0000
# 3 18.7023 27.3430 75.6301 0.0000 -0.5113 0.0000
# 4 0.0000 0.0000 0.0000 9.1740 0.0000 -1.7651
# 5 4.7548 -4.0174 -0.5113 0.0000 32.3934 0.0000
# 6 0.0000 0.0000 0.0000 -1.7651 0.0000 26.5212
#
#
#
# Elastic Compliance Matrix: (Units=1/GPa)
#
#
# Indices 1 2 3 4 5 6 
#
# 1 0.014890 -0.010773 0.000189 0.000000 -0.003519 0.000000
# 2 -0.010773 0.222737 -0.077674 0.000000 0.027979 0.000000
# 3 0.000189 -0.077674 0.041197 0.000000 -0.009011 0.000000
# 4 0.000000 0.000000 0.000000 0.110417 0.000000 0.007349
# 5 -0.003519 0.027979 -0.009011 0.000000 0.034715 0.000000
# 6 0.000000 0.000000 0.000000 0.007349 0.000000 0.038195
#
#
# Mechanical properties :
#
#
# Convention : Reuss Voigt Hill
#
# Bulk Modulus (GPa) = 9.77448 30.75178 20.26313
# Shear Modulus (GPa) = 7.43198 20.94974 14.19086
#
# Velocity S-wave (km/s) = 1.97055 3.30846 2.72295
# Velocity P-wave (km/s) = 3.20694 5.53731 4.52472
#
# Compressibility (1/GPa) = 0.10230721
#
# Stress axis : x y z
#
# Youngs Moduli (GPa) = 67.15842 4.48961 24.27384
#
# Poissons Ratio (x) = 0.04837 -0.00458
# Poissons Ratio (y) = 0.72348 1.88545
# Poissons Ratio (z) = -0.01268 0.34873
#
# Static dielectric constant tensor:
#      x y z
#    x 1.736280 0.000000 0.021880 
#    y 0.000000 1.660560 0.000000 
#    z 0.021880 0.000000 1.698730 
# 
# From -- ./inp_files/160823.got.cif
#   From: 2010.05.17/outbox.cif.g08.bks.cpg/sg15_81_cif.got.tgz:160823.got - 2010.06.03 18:47:42.
