data_PCOD9268622
_publ_section_title
;
Structure prediction by ZEFSAII (Michael W. Deem and Ramdas Pophale) SiO2 
 PCOD9268622
Probable space group: C 2/C
;
_chemical_formula_sum "Si O2"
_cell_formula_units_Z 48
_cell_length_a 8.754228
_cell_length_b 16.546862
_cell_length_c 21.538429
_cell_angle_alpha 90.000000
_cell_angle_beta 140.300955
_cell_angle_gamma 90.000000
_cell_volume 1992.883123
_symmetry_space_group_name_H-M "C 2/C"
_symmetry_group_IT_number 15
_symmetry_cell_setting 'monoclinic'
loop_
_space_group_symop_operation_xyz
x,y,z
-x,y,1/2-z
-x,-y,-z
x,-y,1/2+z
1/2+x,1/2+y,z
1/2-x,1/2+y,1/2-z
1/2-x,1/2-y,-z
1/2+x,1/2-y,1/2+z
loop_
_atom_site_type_symbol
_atom_site_label
_atom_site_fract_x
_atom_site_fract_y
_atom_site_fract_z
Si Si1 0.109574 0.527753 0.650628
Si Si2 0.000000 0.835966 0.250000
Si Si3 0.000000 0.433355 0.250000
Si Si4 0.572125 0.418862 0.952463
Si Si5 0.682687 0.631001 0.356864
Si Si6 0.517081 0.399243 0.067214
Si Si7 0.690859 0.803732 0.041004
O O1 0.297626 0.601203 0.709869
O O2 0.053478 0.513508 0.705535
O O3 0.212426 0.451572 0.643706
O O4 0.857578 0.562153 0.546049
O O5 0.851638 0.786166 0.151707
O O6 0.776801 0.372983 0.169610
O O7 0.531978 0.386558 0.871725
O O8 0.449091 0.504783 0.922423
O O9 0.485356 0.370104 0.986317
O O10 0.500000 0.667700 0.250000
O O11 0.908485 0.682542 0.451896
O O12 0.311820 0.386290 0.052905
O O13 0.750000 0.750000 0.000000
#
# Coordination Sequence:
#
# PCOD9268622 Si02
#       7
#     8   4   4   8   8   8   8
#     4  11  19  34  68 101 133 163 215 282 347 397
#     4  12  22  44  75  93 126 178 226 280 344 400
#     4  10  20  32  59 105 128 168 206 268 352 402
#     4  10  20  36  63  99 136 169 210 282 347 384
#     4  12  23  40  64 103 139 172 217 280 338 398
#     4  10  20  38  62  96 137 167 216 279 334 399
#     4  12  27  49  66  94 136 186 233 268 322 409
#
# _framework density 24.085708
#
# number of rings (size 3 to 8) (size 9 to 14) (size 15 to 20)
#    0.000    1.000    5.833    2.500    0.000    0.000 
#    4.500    0.833    0.000    0.000    0.000    0.000 
#    0.000    0.000    0.000    0.000    0.000    0.000 
#
# Total GULP energy -133849.772523 kJ/mol
# GULP energy per Si atom -5577.073855 kJ/mol
# Density = 2.403089 g / cm^3
# Si number density = 24.085708 Si / 1000 Ang^3
#
#
#
# Elastic Constant Matrix: (Units=GPa)
#
#
# Indices 1 2 3 4 5 6 
#
# 1 84.5012 -14.0059 35.5131 0.0001 -17.2894 0.0001
# 2 -14.0059 22.3858 19.9801 0.0001 -5.6926 0.0001
# 3 35.5131 19.9801 189.6287 0.0003 -11.9900 0.0003
# 4 0.0001 0.0001 0.0003 17.5377 0.0001 -5.9939
# 5 -17.2894 -5.6926 -11.9900 0.0001 58.8234 0.0001
# 6 0.0001 0.0001 0.0003 -5.9939 0.0001 18.8269
#
#
#
# Elastic Compliance Matrix: (Units=1/GPa)
#
#
# Indices 1 2 3 4 5 6 
#
# 1 0.017841 0.016904 -0.004749 0.000000 0.005912 0.000000
# 2 0.016904 0.066160 -0.009541 -0.000001 0.009426 -0.000001
# 3 -0.004749 -0.009541 0.007113 0.000000 -0.000869 0.000000
# 4 0.000000 -0.000001 0.000000 0.063982 0.000000 0.020370
# 5 0.005912 0.009426 -0.000869 0.000000 0.019473 0.000000
# 6 0.000000 -0.000001 0.000000 0.020370 0.000000 0.059601
#
#
# Mechanical properties :
#
#
# Convention : Reuss Voigt Hill
#
# Bulk Modulus (GPa) = 10.37942 42.16558 26.27250
# Shear Modulus (GPa) = 19.15308 36.03949 27.59629
#
# Velocity S-wave (km/s) = 2.82300 3.87240 3.38857
# Velocity P-wave (km/s) = 3.86581 6.12687 5.12264
#
# Compressibility (1/GPa) = 0.09634446
#
# Stress axis : x y z
#
# Youngs Moduli (GPa) = 56.04981 15.11485 140.58663
#
# Poissons Ratio (x) = -0.25551 0.66758
# Poissons Ratio (y) = -0.94748 1.34129
# Poissons Ratio (z) = 0.26616 0.14421
#
# Static dielectric constant tensor:
#      x y z
#    x 2.575300 0.000000 0.365970 
#    y 0.000000 2.122750 0.000000 
#    z 0.365970 0.000000 2.276120 
# 
# From -- ./inp_files/234021.got.cif
#   From: 2010.05.17/outbox.cif.g08.bks.cpg/sg15_118_cif.got.tgz:234021.got - 2010.06.03 18:47:42.
