data_PCOD9268549
_publ_section_title
;
Structure prediction by ZEFSAII (Michael W. Deem and Ramdas Pophale) SiO2 
 PCOD9268549
Probable space group: C 2/C
;
_chemical_formula_sum "Si O2"
_cell_formula_units_Z 44
_cell_length_a 17.500239
_cell_length_b 9.160194
_cell_length_c 13.321505
_cell_angle_alpha 90.000000
_cell_angle_beta 108.659935
_cell_angle_gamma 90.000000
_cell_volume 2023.256850
_symmetry_space_group_name_H-M "C 2/C"
_symmetry_group_IT_number 15
_symmetry_cell_setting 'monoclinic'
loop_
_space_group_symop_operation_xyz
x,y,z
-x,y,1/2-z
-x,-y,-z
x,-y,1/2+z
1/2+x,1/2+y,z
1/2-x,1/2+y,1/2-z
1/2-x,1/2-y,-z
1/2+x,1/2-y,1/2+z
loop_
_atom_site_type_symbol
_atom_site_label
_atom_site_fract_x
_atom_site_fract_y
_atom_site_fract_z
Si Si1 0.018534 0.183130 0.069565
Si Si2 0.920819 0.473217 0.330548
Si Si3 0.000000 0.277198 0.750000
Si Si4 0.797366 0.330869 0.888145
Si Si5 0.129056 0.737862 0.869348
Si Si6 0.595076 0.406338 0.157935
O O1 0.043854 0.351323 0.081391
O O2 0.946630 0.171877 0.121011
O O3 0.090168 0.079013 0.138263
O O4 0.980491 0.139083 0.947236
O O5 0.982580 0.603425 0.330293
O O6 0.840833 0.546816 0.341038
O O7 0.899908 0.382236 0.221630
O O8 0.073126 0.164247 0.756462
O O9 0.701745 0.333151 0.855654
O O10 0.827668 0.175997 0.854491
O O11 0.833657 0.337210 0.015478
#
# Coordination Sequence:
#
# PCOD9268549 Si02
#       6
#     8   8   4   8   8   8
#     4  10  20  37  61  83 111 150 194 233 282 335
#     4  11  21  35  60  88 108 153 194 234 277 344
#     4  10  20  32  54  90 110 146 188 240 274 328
#     4   9  22  39  57  81 117 149 187 233 289 335
#     4  10  20  38  60  80 115 151 185 233 287 335
#     4   9  21  36  57  83 116 147 187 239 283 334
#
# _framework density 21.747115999999998
#
# number of rings (size 3 to 8) (size 9 to 14) (size 15 to 20)
#    0.000    2.182    1.818    0.000    5.091    3.636 
#    3.273    0.000    0.000    5.455    0.000    0.000 
#    0.000    0.000    0.000    0.000    0.000    0.000 
#
# Total GULP energy -122654.375410 kJ/mol
# GULP energy per Si atom -5575.198882 kJ/mol
# Density = 2.169762 g / cm^3
# Si number density = 21.747116 Si / 1000 Ang^3
#
#
#
# Elastic Constant Matrix: (Units=GPa)
#
#
# Indices 1 2 3 4 5 6 
#
# 1 75.5041 15.0729 11.9521 0.0000 -18.1765 0.0000
# 2 15.0729 92.8850 5.6835 0.0000 -9.5423 0.0000
# 3 11.9521 5.6835 80.5530 0.0000 -3.6765 0.0000
# 4 0.0000 0.0000 0.0000 14.0503 0.0000 -0.7037
# 5 -18.1765 -9.5423 -3.6765 0.0000 27.5267 0.0000
# 6 0.0000 0.0000 0.0000 -0.7037 0.0000 28.1583
#
#
#
# Elastic Compliance Matrix: (Units=1/GPa)
#
#
# Indices 1 2 3 4 5 6 
#
# 1 0.016232 -0.001499 -0.001848 0.000000 0.009952 0.000000
# 2 -0.001499 0.011332 -0.000446 0.000000 0.002879 0.000000
# 3 -0.001848 -0.000446 0.012735 0.000000 0.000326 0.000000
# 4 0.000000 0.000000 0.000000 0.071262 0.000000 0.001781
# 5 0.009952 0.002879 0.000326 0.000000 0.043942 0.000000
# 6 0.000000 0.000000 0.000000 0.001781 0.000000 0.035558
#
#
# Mechanical properties :
#
#
# Convention : Reuss Voigt Hill
#
# Bulk Modulus (GPa) = 30.56864 34.92881 32.74872
# Shear Modulus (GPa) = 23.86060 28.36263 26.11162
#
# Velocity S-wave (km/s) = 3.31597 3.61529 3.46886
# Velocity P-wave (km/s) = 5.36170 5.78993 5.57993
#
# Compressibility (1/GPa) = 0.03271327
#
# Stress axis : x y z
#
# Youngs Moduli (GPa) = 61.60725 88.24371 78.52512
#
# Poissons Ratio (x) = 0.13224 0.14515
# Poissons Ratio (y) = 0.09232 0.03501
# Poissons Ratio (z) = 0.11388 0.03934
#
# Static dielectric constant tensor:
#      x y z
#    x 1.778970 0.000000 -0.011470 
#    y 0.000000 1.835130 0.000000 
#    z -0.011470 0.000000 1.845390 
# 
# From -- ./inp_files/159230.got.cif
#   From: 2010.05.17/outbox.cif.g08.bks.cpg/sg15_80_cif.got.tgz:159230.got - 2010.06.03 18:47:42.
