data_PCOD9268757
_publ_section_title
;
Structure prediction by ZEFSAII (Michael W. Deem and Ramdas Pophale) SiO2 
 PCOD9268757
Probable space group: C 2/C
;
_chemical_formula_sum "Si O2"
_cell_formula_units_Z 64
_cell_length_a 26.616506
_cell_length_b 17.739052
_cell_length_c 9.209258
_cell_angle_alpha 90.000000
_cell_angle_beta 139.100092
_cell_angle_gamma 90.000000
_cell_volume 2846.916305
_symmetry_space_group_name_H-M "C 2/C"
_symmetry_group_IT_number 15
_symmetry_cell_setting 'monoclinic'
loop_
_space_group_symop_operation_xyz
x,y,z
-x,y,1/2-z
-x,-y,-z
x,-y,1/2+z
1/2+x,1/2+y,z
1/2-x,1/2+y,1/2-z
1/2-x,1/2-y,-z
1/2+x,1/2-y,1/2+z
loop_
_atom_site_type_symbol
_atom_site_label
_atom_site_fract_x
_atom_site_fract_y
_atom_site_fract_z
Si Si1 0.677014 0.350702 0.043055
Si Si2 0.242185 0.016683 0.520548
Si Si3 0.519351 0.923182 0.126098
Si Si4 0.338461 0.980998 0.969814
Si Si5 0.982881 0.919858 0.883355
Si Si6 0.782361 0.244518 0.404779
Si Si7 0.859137 0.887068 0.198766
Si Si8 0.574765 0.141756 0.309134
O O1 0.715824 0.268500 0.146914
O O2 0.668996 0.372967 0.196417
O O3 0.736262 0.403615 0.085751
O O4 0.596050 0.371638 0.790487
O O5 0.312025 0.969666 0.747358
O O6 0.261265 0.016267 0.394223
O O7 0.163524 0.973240 0.378270
O O8 0.500000 0.932931 0.250000
O O9 0.611016 0.918774 0.335891
O O10 0.466998 0.860856 0.938682
O O11 0.500000 0.000000 0.000000
O O12 0.385329 0.059961 0.074665
O O13 0.000000 0.066719 0.250000
O O14 0.948719 0.130115 0.899108
O O15 0.000000 0.000000 0.000000
O O16 0.750000 0.250000 0.500000
O O17 0.815955 0.160881 0.482623
O O18 0.855642 0.299164 0.539293
O O19 0.500000 0.151479 0.250000
#
# Coordination Sequence:
#
# PCOD9268757 Si02
#       8
#     8   8   8   8   8   8   8   8
#     4  10  20  37  62  93 125 170 215 274 335 393
#     4  12  19  33  60  94 125 164 214 265 330 383
#     4  10  20  33  51  85 126 163 210 262 315 377
#     4  11  20  32  56  92 126 164 208 261 318 390
#     4  10  20  36  61  93 127 163 216 276 333 390
#     4  10  21  41  65  92 128 175 223 270 333 419
#     4  10  21  38  60  95 124 168 219 274 332 402
#     4  11  21  39  62  88 128 173 216 266 333 399
#
# _framework density 22.480464999999999
#
# number of rings (size 3 to 8) (size 9 to 14) (size 15 to 20)
#    0.000    1.500    3.750    4.500    0.000    0.000 
#    0.000    5.000    0.000    0.750    0.000    0.000 
#    0.000    0.000    0.000    0.000    0.000    0.000 
#
# Total GULP energy -178187.803826 kJ/mol
# GULP energy per Si atom -5568.368870 kJ/mol
# Density = 2.242930 g / cm^3
# Si number density = 22.480465 Si / 1000 Ang^3
#
#
#
# Elastic Constant Matrix: (Units=GPa)
#
#
# Indices 1 2 3 4 5 6 
#
# 1 86.1808 21.7780 33.2806 0.0000 14.2955 0.0000
# 2 21.7780 49.9703 16.4168 0.0000 6.8132 0.0000
# 3 33.2806 16.4168 89.7916 0.0000 10.3371 0.0000
# 4 0.0000 0.0000 0.0000 32.9319 0.0000 -0.0227
# 5 14.2955 6.8132 10.3371 0.0000 35.4327 0.0000
# 6 0.0000 0.0000 0.0000 -0.0227 0.0000 4.3057
#
#
#
# Elastic Compliance Matrix: (Units=1/GPa)
#
#
# Indices 1 2 3 4 5 6 
#
# 1 0.015084 -0.004626 -0.004291 0.000000 -0.003944 0.000000
# 2 -0.004626 0.023035 -0.002278 0.000000 -0.001898 0.000000
# 3 -0.004291 -0.002278 0.013342 0.000000 -0.001723 0.000000
# 4 0.000000 0.000000 0.000000 0.030366 0.000000 0.000160
# 5 -0.003944 -0.001898 -0.001723 0.000000 0.030682 0.000000
# 6 0.000000 0.000000 0.000000 0.000160 0.000000 0.232253
#
#
# Mechanical properties :
#
#
# Convention : Reuss Voigt Hill
#
# Bulk Modulus (GPa) = 34.39923 40.98817 37.69370
# Shear Modulus (GPa) = 13.26813 24.83188 19.05000
#
# Velocity S-wave (km/s) = 2.43205 3.32715 2.91418
# Velocity P-wave (km/s) = 4.81888 5.74738 5.30348
#
# Compressibility (1/GPa) = 0.02907042
#
# Stress axis : x y z
#
# Youngs Moduli (GPa) = 66.29603 43.41128 74.95018
#
# Poissons Ratio (x) = 0.20084 0.32160
# Poissons Ratio (y) = 0.30671 0.17076
# Poissons Ratio (z) = 0.28446 0.09891
#
# Static dielectric constant tensor:
#      x y z
#    x 1.836230 0.000000 0.078930 
#    y 0.000000 1.859850 0.000000 
#    z 0.078930 0.000000 1.880460 
# 
# From -- ./inp_files/70612.got.cif
#   From: 2010.05.17/outbox.cif.g08.bks.cpg/sg15_36_cif.got.tgz:70612.got - 2010.06.03 18:47:42.
