data_PCOD9268782
_publ_section_title
;
Structure prediction by ZEFSAII (Michael W. Deem and Ramdas Pophale) SiO2 
 PCOD9268782
Probable space group: C 2/C
;
_chemical_formula_sum "Si O2"
_cell_formula_units_Z 40
_cell_length_a 23.563714
_cell_length_b 5.109438
_cell_length_c 25.671337
_cell_angle_alpha 90.000000
_cell_angle_beta 150.093023
_cell_angle_gamma 90.000000
_cell_volume 1541.032515
_symmetry_space_group_name_H-M "C 2/C"
_symmetry_group_IT_number 15
_symmetry_cell_setting 'monoclinic'
loop_
_space_group_symop_operation_xyz
x,y,z
-x,y,1/2-z
-x,-y,-z
x,-y,1/2+z
1/2+x,1/2+y,z
1/2-x,1/2+y,1/2-z
1/2-x,1/2-y,-z
1/2+x,1/2-y,1/2+z
loop_
_atom_site_type_symbol
_atom_site_label
_atom_site_fract_x
_atom_site_fract_y
_atom_site_fract_z
Si Si1 0.146212 0.548750 0.404900
Si Si2 0.317637 0.631562 0.973668
Si Si3 0.316935 0.528412 0.784268
Si Si4 0.015558 0.677836 0.962819
Si Si5 0.020465 0.268767 0.655186
O O1 0.250000 0.750000 0.500000
O O2 0.187874 0.445371 0.381803
O O3 0.154191 0.317281 0.454391
O O4 0.024586 0.670273 0.322927
O O5 0.353983 0.767934 0.949223
O O6 0.409254 0.396199 0.047458
O O7 0.264987 0.784982 0.769605
O O8 0.434159 0.427636 0.903322
O O9 0.363761 0.610471 0.764062
O O10 0.971218 0.519395 0.876150
O O11 0.000000 0.500000 0.000000
#
# Coordination Sequence:
#
# PCOD9268782 Si02
#       5
#     8   8   8   8   8
#     4   8  13  25  43  69 102 138 168 224 280 318
#     4   8  15  25  44  71 106 140 174 221 278 327
#     4  11  21  36  52  74 110 152 190 232 272 345
#     4  10  20  33  52  79 115 155 184 230 289 341
#     4   9  17  30  49  73 107 143 177 226 281 325
#
# _framework density 25.956623
#
# number of rings (size 3 to 8) (size 9 to 14) (size 15 to 20)
#    0.000    2.800    2.000    0.000    0.000    3.200 
#    0.000    0.000    0.000    0.000    0.000    0.000 
#    0.000  273.600    0.000    0.000    0.000    0.000 
#
# Total GULP energy -111509.152282 kJ/mol
# GULP energy per Si atom -5575.457614 kJ/mol
# Density = 2.589754 g / cm^3
# Si number density = 25.956623 Si / 1000 Ang^3
#
#
#
# Elastic Constant Matrix: (Units=GPa)
#
#
# Indices 1 2 3 4 5 6 
#
# 1 280.0296 66.9243 81.1689 -0.0020 82.5734 0.0015
# 2 66.9243 117.3594 40.5724 -0.0239 36.0532 -0.0397
# 3 81.1689 40.5724 75.8731 -0.0015 39.5293 -0.0053
# 4 -0.0020 -0.0239 -0.0015 36.9004 -0.0015 27.5804
# 5 82.5734 36.0532 39.5293 -0.0015 57.9638 -0.0042
# 6 0.0015 -0.0397 -0.0053 27.5804 -0.0042 56.6997
#
#
#
# Elastic Compliance Matrix: (Units=1/GPa)
#
#
# Indices 1 2 3 4 5 6 
#
# 1 0.006705 -0.000556 -0.003225 0.000001 -0.007006 -0.000002
# 2 -0.000556 0.011193 -0.003375 0.000002 -0.003868 0.000006
# 3 -0.003225 -0.003375 0.023185 -0.000002 -0.009118 0.000000
# 4 0.000001 0.000002 -0.000002 0.042581 -0.000002 -0.020713
# 5 -0.007006 -0.003868 -0.009118 -0.000002 0.035856 0.000000
# 6 -0.000002 0.000006 0.000000 -0.020713 0.000000 0.027712
#
#
# Mechanical properties :
#
#
# Convention : Reuss Voigt Hill
#
# Bulk Modulus (GPa) = 37.35545 94.51037 65.93291
# Shear Modulus (GPa) = 29.33082 49.28589 39.30836
#
# Velocity S-wave (km/s) = 3.36518 4.36223 3.89573
# Velocity P-wave (km/s) = 5.43342 7.86524 6.75958
#
# Compressibility (1/GPa) = 0.02676985
#
# Stress axis : x y z
#
# Youngs Moduli (GPa) = 149.14981 89.34081 43.13057
#
# Poissons Ratio (x) = 0.04968 0.13911
# Poissons Ratio (y) = 0.08294 0.14558
# Poissons Ratio (z) = 0.48105 0.30155
#
# Static dielectric constant tensor:
#      x y z
#    x 2.124490 0.000000 -0.004010 
#    y 0.000000 2.190260 0.000010 
#    z -0.004010 0.000010 2.106200 
# 
# From -- ./inp_files/217322.got.cif
#   From: 2010.05.17/outbox.cif.g08.bks.cpg/sg15_109_cif.got.tgz:217322.got - 2010.06.03 18:47:42.
