data_PCOD9268343
_publ_section_title
;
Structure prediction by ZEFSAII (Michael W. Deem and Ramdas Pophale) SiO2 
 PCOD9268343
Probable space group: C 2/C
;
_chemical_formula_sum "Si O2"
_cell_formula_units_Z 40
_cell_length_a 18.688146
_cell_length_b 11.977645
_cell_length_c 8.073730
_cell_angle_alpha 90.000000
_cell_angle_beta 123.371371
_cell_angle_gamma 90.000000
_cell_volume 1509.253623
_symmetry_space_group_name_H-M "C 2/C"
_symmetry_group_IT_number 15
_symmetry_cell_setting 'monoclinic'
loop_
_space_group_symop_operation_xyz
x,y,z
-x,y,1/2-z
-x,-y,-z
x,-y,1/2+z
1/2+x,1/2+y,z
1/2-x,1/2+y,1/2-z
1/2-x,1/2-y,-z
1/2+x,1/2-y,1/2+z
loop_
_atom_site_type_symbol
_atom_site_label
_atom_site_fract_x
_atom_site_fract_y
_atom_site_fract_z
Si Si1 0.901652 0.340109 0.176239
Si Si2 0.932751 0.873806 0.307752
Si Si3 0.312677 0.164236 0.234978
Si Si4 0.200115 0.367926 0.142264
Si Si5 0.626579 0.587427 0.443519
O O1 0.877677 0.381009 0.329078
O O2 0.000000 0.356704 0.250000
O O3 0.843296 0.384846 0.948716
O O4 0.879252 0.207154 0.151229
O O5 0.883170 0.759515 0.282362
O O6 0.950984 0.911969 0.519925
O O7 0.000000 0.849743 0.250000
O O8 0.879081 0.976989 0.168770
O O9 0.226056 0.235184 0.155300
O O10 0.310212 0.096902 0.061472
O O11 0.283743 0.415456 0.342018
#
# Coordination Sequence:
#
# PCOD9268343 Si02
#       5
#     8   8   8   8   8
#     4  10  20  32  53  79 104 137 178 225 266 310
#     4  10  20  31  50  78 114 145 169 211 264 329
#     4   9  20  34  52  77 105 150 174 215 268 310
#     4   9  19  36  52  70 110 142 187 218 253 320
#     4  10  21  34  47  80 106 149 178 207 269 318
#
# _framework density 26.503167000000001
#
# number of rings (size 3 to 8) (size 9 to 14) (size 15 to 20)
#    0.000    2.800    0.000    3.600    8.400    0.000 
#    3.600    0.000    0.000    0.000    0.000    5.600 
#    0.000    0.000    0.000    0.000    0.000    0.000 
#
# Total GULP energy -111869.209802 kJ/mol
# GULP energy per Si atom -5593.460490 kJ/mol
# Density = 2.644284 g / cm^3
# Si number density = 26.503167 Si / 1000 Ang^3
#
#
#
# Elastic Constant Matrix: (Units=GPa)
#
#
# Indices 1 2 3 4 5 6 
#
# 1 179.5924 15.5891 33.6467 0.0000 -50.6636 0.0000
# 2 15.5891 93.4696 32.9388 0.0000 -24.5714 0.0000
# 3 33.6467 32.9388 128.8792 0.0000 -31.3612 0.0000
# 4 0.0000 0.0000 0.0000 38.1260 0.0000 -18.9817
# 5 -50.6636 -24.5714 -31.3612 0.0000 50.8506 0.0000
# 6 0.0000 0.0000 0.0000 -18.9817 0.0000 28.6028
#
#
#
# Elastic Compliance Matrix: (Units=1/GPa)
#
#
# Indices 1 2 3 4 5 6 
#
# 1 0.007814 0.000922 -0.000321 0.000000 0.008033 0.000000
# 2 0.000922 0.012814 -0.002101 0.000000 0.005814 0.000000
# 3 -0.000321 -0.002101 0.009477 0.000000 0.004510 0.000000
# 4 0.000000 0.000000 0.000000 0.039171 0.000000 0.025995
# 5 0.008033 0.005814 0.004510 0.000000 0.033260 0.000000
# 6 0.000000 0.000000 0.000000 0.025995 0.000000 0.052213
#
#
# Mechanical properties :
#
#
# Convention : Reuss Voigt Hill
#
# Bulk Modulus (GPa) = 36.89296 62.92114 49.90705
# Shear Modulus (GPa) = 29.97881 44.83367 37.40624
#
# Velocity S-wave (km/s) = 3.36689 4.11741 3.76092
# Velocity P-wave (km/s) = 5.39120 6.81151 6.14254
#
# Compressibility (1/GPa) = 0.02710544
#
# Stress axis : x y z
#
# Youngs Moduli (GPa) = 127.96804 78.04143 105.51449
#
# Poissons Ratio (x) = -0.07192 0.03386
# Poissons Ratio (y) = -0.11792 0.22165
# Poissons Ratio (z) = 0.04106 0.16394
#
# Static dielectric constant tensor:
#      x y z
#    x 2.104550 0.000000 0.028110 
#    y 0.000000 2.108890 0.000000 
#    z 0.028110 0.000000 2.147130 
# 
# From -- ./inp_files/47259.got.cif
#   From: 2010.05.17/outbox.cif.g08.bks.cpg/sg15_24_cif.got.tgz:47259.got - 2010.06.03 18:47:42.
