data_PCOD9268237
_publ_section_title
;
Structure prediction by ZEFSAII (Michael W. Deem and Ramdas Pophale) SiO2 
 PCOD9268237
Probable space group: C 2/C
;
_chemical_formula_sum "Si O2"
_cell_formula_units_Z 60
_cell_length_a 16.552174
_cell_length_b 7.770703
_cell_length_c 17.820946
_cell_angle_alpha 90.000000
_cell_angle_beta 69.865726
_cell_angle_gamma 90.000000
_cell_volume 2152.088523
_symmetry_space_group_name_H-M "C 2/C"
_symmetry_group_IT_number 15
_symmetry_cell_setting 'monoclinic'
loop_
_space_group_symop_operation_xyz
x,y,z
-x,y,1/2-z
-x,-y,-z
x,-y,1/2+z
1/2+x,1/2+y,z
1/2-x,1/2+y,1/2-z
1/2-x,1/2-y,-z
1/2+x,1/2-y,1/2+z
loop_
_atom_site_type_symbol
_atom_site_label
_atom_site_fract_x
_atom_site_fract_y
_atom_site_fract_z
Si Si1 0.040691 0.224971 0.549707
Si Si2 0.232327 0.072940 0.865343
Si Si3 0.146180 0.150451 0.656282
Si Si4 0.230893 0.548839 0.487427
Si Si5 0.573981 0.381050 0.875310
Si Si6 0.500000 0.386352 0.750000
Si Si7 0.125225 0.572010 0.401592
Si Si8 0.599578 0.996183 0.749865
O O1 0.111906 0.232669 0.590160
O O2 0.068821 0.220793 0.454492
O O3 0.971082 0.369309 0.583623
O O4 0.987862 0.046660 0.586398
O O5 0.182990 0.253551 0.878906
O O6 0.171240 0.951426 0.833888
O O7 0.333554 0.107617 0.820989
O O8 0.232755 0.976267 0.946562
O O9 0.139202 0.303346 0.718644
O O10 0.227282 0.043392 0.599255
O O11 0.079209 0.008597 0.705307
O O12 0.250000 0.750000 0.500000
O O13 0.134521 0.534160 0.487763
O O14 0.530770 0.294977 0.816091
O O15 0.136709 0.464077 0.322061
O O16 0.500000 0.989413 0.750000
#
# Coordination Sequence:
#
# PCOD9268237 Si02
#       8
#     8   8   8   8   8   4   8   8
#     4   9  16  33  62  85 119 157 215 261 304 378
#     4  10  22  41  63  93 133 165 220 265 336 391
#     4  11  19  38  61  95 123 162 225 263 322 385
#     4  10  23  40  65  93 130 176 212 269 326 395
#     4   9  17  31  55  91 121 156 199 278 305 370
#     4  10  20  28  60  92 126 154 210 282 308 364
#     4  10  22  40  66  94 123 172 213 269 330 394
#     4  12  24  41  68  94 131 174 213 283 332 389
#
# _framework density 27.879895999999999
#
# number of rings (size 3 to 8) (size 9 to 14) (size 15 to 20)
#    0.000    1.867    3.333    1.600    9.333    0.533 
#    0.000    0.667    8.800    0.000    0.000    0.000 
#    0.000    0.000    0.000    0.000    0.000    0.000 
#
# Total GULP energy -167493.750500 kJ/mol
# GULP energy per Si atom -5583.125017 kJ/mol
# Density = 2.781644 g / cm^3
# Si number density = 27.879896 Si / 1000 Ang^3
#
#
#
# Elastic Constant Matrix: (Units=GPa)
#
#
# Indices 1 2 3 4 5 6 
#
# 1 106.9678 19.3454 31.1602 0.0000 29.9185 0.0000
# 2 19.3454 58.7992 -8.5106 0.0000 17.9533 0.0000
# 3 31.1602 -8.5106 101.8880 0.0000 43.5014 0.0000
# 4 0.0000 0.0000 0.0000 32.3236 0.0000 5.3503
# 5 29.9185 17.9533 43.5014 0.0000 74.6621 0.0000
# 6 0.0000 0.0000 0.0000 5.3503 0.0000 33.9290
#
#
#
# Elastic Compliance Matrix: (Units=1/GPa)
#
#
# Indices 1 2 3 4 5 6 
#
# 1 0.011408 -0.003564 -0.002930 0.000000 -0.002007 0.000000
# 2 -0.003564 0.021202 0.005894 0.000000 -0.007104 0.000000
# 3 -0.002930 0.005894 0.015051 0.000000 -0.009013 0.000000
# 4 0.000000 0.000000 0.000000 0.031766 0.000000 -0.005009
# 5 -0.002007 -0.007104 -0.009013 0.000000 0.021158 0.000000
# 6 0.000000 0.000000 0.000000 -0.005009 0.000000 0.030263
#
#
# Mechanical properties :
#
#
# Convention : Reuss Voigt Hill
#
# Bulk Modulus (GPa) = 21.52316 39.07166 30.29741
# Shear Modulus (GPa) = 33.89026 43.22694 38.55860
#
# Velocity S-wave (km/s) = 3.49030 3.94187 3.72294
# Velocity P-wave (km/s) = 4.89690 5.89597 5.41951
#
# Compressibility (1/GPa) = 0.04646158
#
# Stress axis : x y z
#
# Youngs Moduli (GPa) = 87.65687 47.16532 66.44062
#
# Poissons Ratio (x) = 0.16812 0.19464
# Poissons Ratio (y) = 0.31245 -0.39162
# Poissons Ratio (z) = 0.25680 -0.27800
#
# Static dielectric constant tensor:
#      x y z
#    x 2.099940 0.000000 -0.090430 
#    y 0.000000 2.311570 0.000000 
#    z -0.090430 0.000000 1.049470 
# 
# From -- ./inp_files/210278.got.cif
#   From: 2010.05.17/outbox.cif.g08.bks.cpg/sg15_106_cif.got.tgz:210278.got - 2010.06.03 18:47:42.
