data_PCOD9268088
_publ_section_title
;
Structure prediction by ZEFSAII (Michael W. Deem and Ramdas Pophale) SiO2 
 PCOD9268088
Probable space group: C 2/C
;
_chemical_formula_sum "Si O2"
_cell_formula_units_Z 60
_cell_length_a 21.677755
_cell_length_b 24.766447
_cell_length_c 8.331517
_cell_angle_alpha 90.000000
_cell_angle_beta 36.606439
_cell_angle_gamma 90.000000
_cell_volume 2667.337049
_symmetry_space_group_name_H-M "C 2/C"
_symmetry_group_IT_number 15
_symmetry_cell_setting 'monoclinic'
loop_
_space_group_symop_operation_xyz
x,y,z
-x,y,1/2-z
-x,-y,-z
x,-y,1/2+z
1/2+x,1/2+y,z
1/2-x,1/2+y,1/2-z
1/2-x,1/2-y,-z
1/2+x,1/2-y,1/2+z
loop_
_atom_site_type_symbol
_atom_site_label
_atom_site_fract_x
_atom_site_fract_y
_atom_site_fract_z
Si Si1 0.616355 0.081026 0.901215
Si Si2 0.443331 0.604731 0.634946
Si Si3 0.645575 0.616161 0.037780
Si Si4 0.135343 0.237772 0.185062
Si Si5 0.000000 0.800257 0.250000
Si Si6 0.738708 0.435023 0.800403
Si Si7 0.406148 0.852154 0.332223
Si Si8 0.151834 0.520518 0.126680
O O1 0.739911 0.094953 0.663961
O O2 0.571851 0.131763 0.898903
O O3 0.592805 0.058466 0.126298
O O4 0.597557 0.030978 0.819767
O O5 0.560295 0.590313 0.337201
O O6 0.385025 0.608429 0.584867
O O7 0.445187 0.660391 0.733752
O O8 0.378005 0.568689 0.894373
O O9 0.633902 0.679979 0.100300
O O10 0.102304 0.287834 0.143853
O O11 0.071919 0.233890 0.483182
O O12 0.250000 0.250000 0.000000
O O13 0.797168 0.382837 0.601309
O O14 0.757494 0.488513 0.657111
O O15 0.805563 0.444244 0.820032
O O16 0.500000 0.870959 0.250000
#
# Coordination Sequence:
#
# PCOD9268088 Si02
#       8
#     8   8   8   8   4   8   8   8
#     4  10  19  42  60  91 125 167 206 269 330 369
#     4  10  21  37  62  90 125 176 207 254 316 392
#     4  10  21  38  63  90 133 172 214 255 317 397
#     4  11  22  43  65  95 127 176 211 267 327 381
#     4  10  24  38  62  94 130 168 218 262 314 402
#     4  10  20  42  62  92 124 168 210 269 334 375
#     4  11  25  42  65  92 131 166 216 274 321 385
#     4   9  20  36  67  89 122 162 216 269 321 391
#
# _framework density 22.494346
#
# number of rings (size 3 to 8) (size 9 to 14) (size 15 to 20)
#    0.000    1.867    2.667    0.800    9.333    0.000 
#    4.800   16.000    0.000    0.000    0.000    0.000 
#    0.000    0.000    0.000    0.000    0.000    0.000 
#
# Total GULP energy -167396.636468 kJ/mol
# GULP energy per Si atom -5579.887882 kJ/mol
# Density = 2.244315 g / cm^3
# Si number density = 22.494346 Si / 1000 Ang^3
#
#
#
# Elastic Constant Matrix: (Units=GPa)
#
#
# Indices 1 2 3 4 5 6 
#
# 1 92.0808 14.0497 16.2675 0.0001 9.7713 0.0000
# 2 14.0497 66.3631 35.7884 0.0000 10.1512 0.0000
# 3 16.2675 35.7884 117.3573 0.0001 13.4380 0.0000
# 4 0.0001 0.0000 0.0001 2.9159 -0.0001 12.0890
# 5 9.7713 10.1512 13.4380 -0.0001 36.3867 0.0000
# 6 0.0000 0.0000 0.0000 12.0890 0.0000 36.4302
#
#
#
# Elastic Compliance Matrix: (Units=1/GPa)
#
#
# Indices 1 2 3 4 5 6 
#
# 1 0.011503 -0.001631 -0.000830 0.000001 -0.002327 0.000000
# 2 -0.001631 0.018614 -0.005123 0.000000 -0.002863 0.000000
# 3 -0.000830 -0.005123 0.010451 0.000001 -0.002208 0.000000
# 4 0.000001 0.000000 0.000001 -0.912619 -0.000002 0.302844
# 5 -0.002327 -0.002863 -0.002208 -0.000002 0.029722 0.000001
# 6 0.000000 0.000000 0.000000 0.302844 0.000001 -0.073046
#
#
# Mechanical properties :
#
#
# Convention : Reuss Voigt Hill
#
# Bulk Modulus (GPa) = 39.37124 45.33473 42.35298
# Shear Modulus (GPa) = -5.60702 29.12625 11.75962
#
# Velocity S-wave (km/s) = -1.58052 3.60227 2.28892
# Velocity P-wave (km/s) = 3.76962 6.12368 5.08475
#
# Compressibility (1/GPa) = 0.02539925
#
# Stress axis : x y z
#
# Youngs Moduli (GPa) = 86.93681 53.72170 95.68454
#
# Poissons Ratio (x) = 0.08764 0.07946
# Poissons Ratio (y) = 0.14183 0.49015
# Poissons Ratio (z) = 0.07220 0.27519
#
# Static dielectric constant tensor:
#      x y z
#    x 1.835170 0.000000 -0.030400 
#    y 0.000000 1.889150 0.000000 
#    z -0.030400 0.000000 1.944020 
# 
# From -- ./inp_files/64103.got.cif
#   From: 2010.05.17/outbox.cif.g08.bks.cpg/sg15_33_cif.got.tgz:64103.got - 2010.06.03 18:47:42.
