data_PCOD9268163
_publ_section_title
;
Structure prediction by ZEFSAII (Michael W. Deem and Ramdas Pophale) SiO2 
 PCOD9268163
Probable space group: C 2/C
;
_chemical_formula_sum "Si O2"
_cell_formula_units_Z 64
_cell_length_a 14.069373
_cell_length_b 26.784765
_cell_length_c 8.678311
_cell_angle_alpha 90.000000
_cell_angle_beta 103.977207
_cell_angle_gamma 90.000000
_cell_volume 3173.547124
_symmetry_space_group_name_H-M "C 2/C"
_symmetry_group_IT_number 15
_symmetry_cell_setting 'monoclinic'
loop_
_space_group_symop_operation_xyz
x,y,z
-x,y,1/2-z
-x,-y,-z
x,-y,1/2+z
1/2+x,1/2+y,z
1/2-x,1/2+y,1/2-z
1/2-x,1/2-y,-z
1/2+x,1/2-y,1/2+z
loop_
_atom_site_type_symbol
_atom_site_label
_atom_site_fract_x
_atom_site_fract_y
_atom_site_fract_z
Si Si1 0.108989 0.092485 0.834513
Si Si2 0.436801 0.209167 0.380368
Si Si3 0.359045 0.053389 0.516713
Si Si4 0.439427 0.615517 0.363189
Si Si5 0.244097 0.849095 0.881630
Si Si6 0.111972 0.176766 0.598601
Si Si7 0.810861 0.447335 0.352521
Si Si8 0.468837 0.887734 0.557052
O O1 0.120484 0.149034 0.768157
O O2 0.195365 0.061464 0.792987
O O3 0.000000 0.075551 0.750000
O O4 0.114578 0.087108 0.020669
O O5 0.500000 0.214206 0.250000
O O6 0.329721 0.183076 0.336297
O O7 0.417527 0.265620 0.420945
O O8 0.500720 0.166973 0.494661
O O9 0.284854 0.095041 0.420579
O O10 0.354407 0.054092 0.698747
O O11 0.464696 0.071071 0.499806
O O12 0.333209 0.999445 0.442340
O O13 0.500000 0.588494 0.250000
O O14 0.355428 0.649302 0.254630
O O15 0.523637 0.646784 0.482572
O O16 0.210797 0.830282 0.037636
O O17 0.858762 0.403564 0.476208
O O18 0.500000 0.888961 0.750000
#
# Coordination Sequence:
#
# PCOD9268163 Si02
#       8
#     8   8   8   8   8   8   8   8
#     4  10  22  40  64  90 126 163 211 266 324 376
#     4  10  21  36  62  93 133 160 215 265 318 387
#     4  11  24  41  64  93 130 167 220 262 326 389
#     4   9  20  36  63  84 117 164 209 253 319 375
#     4  10  21  40  62  90 123 171 211 267 322 383
#     4  10  19  43  60  90 126 170 212 270 318 382
#     4  12  24  42  67  94 127 174 213 268 331 383
#     4  10  23  42  64  95 133 171 212 269 320 388
#
# _framework density 20.166709000000001
#
# number of rings (size 3 to 8) (size 9 to 14) (size 15 to 20)
#    0.000    1.750    1.250    3.000    7.000    0.000 
#    2.250    8.750    0.000    0.000    0.000    0.000 
#    0.000    0.000    0.000    0.000    0.000    0.000 
#
# Total GULP energy -178361.932769 kJ/mol
# GULP energy per Si atom -5573.810399 kJ/mol
# Density = 2.012081 g / cm^3
# Si number density = 20.166709 Si / 1000 Ang^3
#
#
#
# Elastic Constant Matrix: (Units=GPa)
#
#
# Indices 1 2 3 4 5 6 
#
# 1 94.8280 1.2570 9.6715 0.0000 -16.8501 0.0000
# 2 1.2570 62.5527 -5.4846 0.0000 7.0504 0.0000
# 3 9.6715 -5.4846 76.0372 0.0000 -18.6556 0.0000
# 4 0.0000 0.0000 0.0000 6.5238 0.0000 -10.0603
# 5 -16.8501 7.0504 -18.6556 0.0000 28.2738 0.0000
# 6 0.0000 0.0000 0.0000 -10.0603 0.0000 5.8790
#
#
#
# Elastic Compliance Matrix: (Units=1/GPa)
#
#
# Indices 1 2 3 4 5 6 
#
# 1 0.011867 -0.001062 0.000255 0.000000 0.007506 0.000000
# 2 -0.001062 0.016547 0.000192 0.000000 -0.004632 0.000000
# 3 0.000255 0.000192 0.015700 0.000000 0.010464 0.000000
# 4 0.000000 0.000000 0.000000 -0.093533 0.000000 -0.160054
# 5 0.007506 -0.004632 0.010464 0.000000 0.047901 0.000000
# 6 0.000000 0.000000 0.000000 -0.160054 0.000000 -0.103790
#
#
# Mechanical properties :
#
#
# Convention : Reuss Voigt Hill
#
# Bulk Modulus (GPa) = 23.31815 27.14507 25.23161
# Shear Modulus (GPa) = -55.68925 23.33359 -16.17783
#
# Velocity S-wave (km/s) = -5.26065 3.40521 -2.83539
# Velocity P-wave (km/s) = 5.03104 5.38054 1.34885
#
# Compressibility (1/GPa) = 0.04288504
#
# Stress axis : x y z
#
# Youngs Moduli (GPa) = 84.26626 60.43453 63.69417
#
# Poissons Ratio (x) = 0.06418 -0.01627
# Poissons Ratio (y) = 0.08950 -0.01223
# Poissons Ratio (z) = -0.02153 -0.01161
#
# Static dielectric constant tensor:
#      x y z
#    x 1.750250 0.000000 -0.026730 
#    y 0.000000 1.708930 0.000000 
#    z -0.026730 0.000000 1.764540 
# 
# From -- ./inp_files/43558.got.cif
#   From: 2010.05.17/outbox.cif.g08.bks.cpg/sg15_22_cif.got.tgz:43558.got - 2010.06.03 18:47:42.
