data_PCOD9268881
_publ_section_title
;
Structure prediction by ZEFSAII (Michael W. Deem and Ramdas Pophale) SiO2 
 PCOD9268881
Probable space group: C 2/C
;
_chemical_formula_sum "Si O2"
_cell_formula_units_Z 60
_cell_length_a 9.782194
_cell_length_b 24.023394
_cell_length_c 17.042191
_cell_angle_alpha 90.000000
_cell_angle_beta 132.409922
_cell_angle_gamma 90.000000
_cell_volume 2957.001970
_symmetry_space_group_name_H-M "C 2/C"
_symmetry_group_IT_number 15
_symmetry_cell_setting 'monoclinic'
loop_
_space_group_symop_operation_xyz
x,y,z
-x,y,1/2-z
-x,-y,-z
x,-y,1/2+z
1/2+x,1/2+y,z
1/2-x,1/2+y,1/2-z
1/2-x,1/2-y,-z
1/2+x,1/2-y,1/2+z
loop_
_atom_site_type_symbol
_atom_site_label
_atom_site_fract_x
_atom_site_fract_y
_atom_site_fract_z
Si Si1 0.777394 0.562393 0.311149
Si Si2 0.050727 0.048911 0.689727
Si Si3 0.718274 0.427374 0.089498
Si Si4 0.997068 0.218455 0.083396
Si Si5 0.901771 0.316387 0.129957
Si Si6 0.321732 0.037536 0.043952
Si Si7 0.684127 0.615296 0.112628
Si Si8 0.500000 0.347764 0.750000
O O1 0.659110 0.506684 0.255323
O O2 0.783183 0.590922 0.227283
O O3 0.673924 0.609813 0.320599
O O4 0.978391 0.543080 0.416230
O O5 0.165479 0.075930 0.661728
O O6 0.000000 0.081701 0.750000
O O7 0.852412 0.030775 0.579246
O O8 0.864891 0.382017 0.116546
O O9 0.797356 0.487477 0.097174
O O10 0.521748 0.413329 0.971211
O O11 0.015889 0.283914 0.107182
O O12 0.152838 0.181259 0.102967
O O13 0.989651 0.188975 0.167101
O O14 0.805923 0.208443 0.961960
O O15 0.000000 0.303658 0.250000
O O16 0.287776 0.094811 0.076619
#
# Coordination Sequence:
#
# PCOD9268881 Si02
#       8
#     8   8   8   8   8   8   8   4
#     4  11  20  32  56  80 111 154 195 236 284 352
#     4  11  22  37  49  79 124 160 192 237 290 350
#     4  10  20  35  55  80 117 154 187 240 282 354
#     4   9  19  36  57  78 113 141 183 252 294 327
#     4  10  20  33  54  87 104 144 196 230 291 349
#     4  11  21  35  56  84 115 156 203 225 292 367
#     4   9  17  34  56  77 108 145 190 240 285 328
#     4  10  20  38  54  80 118 144 184 258 302 320
#
# _framework density 20.290821000000001
#
# number of rings (size 3 to 8) (size 9 to 14) (size 15 to 20)
#    0.000    1.867    4.000    1.200    1.867    0.533 
#    2.400    0.000    0.000    0.000    3.467    3.733 
#    4.000    0.000    0.000    0.000    0.000    0.000 
#
# Total GULP energy -167220.114396 kJ/mol
# GULP energy per Si atom -5574.003813 kJ/mol
# Density = 2.024464 g / cm^3
# Si number density = 20.290821 Si / 1000 Ang^3
#
#
#
# Elastic Constant Matrix: (Units=GPa)
#
#
# Indices 1 2 3 4 5 6 
#
# 1 60.2682 39.4595 26.8586 0.0000 8.9517 0.0000
# 2 39.4595 84.0679 26.7051 0.0000 4.1147 0.0000
# 3 26.8586 26.7051 53.6384 0.0000 4.4083 0.0000
# 4 0.0000 0.0000 0.0000 5.3966 0.0000 3.9325
# 5 8.9517 4.1147 4.4083 0.0000 32.4363 0.0000
# 6 0.0000 0.0000 0.0000 3.9325 0.0000 15.9162
#
#
#
# Elastic Compliance Matrix: (Units=1/GPa)
#
#
# Indices 1 2 3 4 5 6 
#
# 1 0.027728 -0.010079 -0.008437 0.000000 -0.005227 0.000000
# 2 -0.010079 0.017816 -0.003910 0.000000 0.001053 0.000000
# 3 -0.008437 -0.003910 0.024860 0.000000 -0.000554 0.000000
# 4 0.000000 0.000000 0.000000 0.225990 0.000000 -0.055836
# 5 -0.005227 0.001053 -0.000554 0.000000 0.032214 0.000000
# 6 0.000000 0.000000 0.000000 -0.055836 0.000000 0.076625
#
#
# Mechanical properties :
#
#
# Convention : Reuss Voigt Hill
#
# Bulk Modulus (GPa) = 39.13402 42.66899 40.90150
# Shear Modulus (GPa) = 10.90271 17.74658 14.32464
#
# Velocity S-wave (km/s) = 2.32054 2.96059 2.65989
# Velocity P-wave (km/s) = 5.14862 5.72374 5.44378
#
# Compressibility (1/GPa) = 0.02555321
#
# Stress axis : x y z
#
# Youngs Moduli (GPa) = 36.06509 56.12785 40.22512
#
# Poissons Ratio (x) = 0.56571 0.33936
# Poissons Ratio (y) = 0.36350 0.15728
# Poissons Ratio (z) = 0.30427 0.21946
#
# Static dielectric constant tensor:
#      x y z
#    x 1.754390 0.000000 -0.023750 
#    y 0.000000 1.738620 0.000000 
#    z -0.023750 0.000000 1.749680 
# 
# From -- ./inp_files/193741.got.cif
#   From: 2010.05.17/outbox.cif.g08.bks.cpg/sg15_97_cif.got.tgz:193741.got - 2010.06.03 18:47:42.
