data_PCOD9268208
_publ_section_title
;
Structure prediction by ZEFSAII (Michael W. Deem and Ramdas Pophale) SiO2 
 PCOD9268208
Probable space group: C 2/C
;
_chemical_formula_sum "Si O2"
_cell_formula_units_Z 60
_cell_length_a 9.626945
_cell_length_b 19.600223
_cell_length_c 17.166381
_cell_angle_alpha 90.000000
_cell_angle_beta 57.704672
_cell_angle_gamma 90.000000
_cell_volume 2738.053281
_symmetry_space_group_name_H-M "C 2/C"
_symmetry_group_IT_number 15
_symmetry_cell_setting 'monoclinic'
loop_
_space_group_symop_operation_xyz
x,y,z
-x,y,1/2-z
-x,-y,-z
x,-y,1/2+z
1/2+x,1/2+y,z
1/2-x,1/2+y,1/2-z
1/2-x,1/2-y,-z
1/2+x,1/2-y,1/2+z
loop_
_atom_site_type_symbol
_atom_site_label
_atom_site_fract_x
_atom_site_fract_y
_atom_site_fract_z
Si Si1 0.703639 0.554889 0.533578
Si Si2 0.136252 0.685280 0.951533
Si Si3 0.838736 0.882769 0.140545
Si Si4 0.000000 0.363609 0.750000
Si Si5 0.404840 0.429142 0.859517
Si Si6 0.722543 0.473219 0.854062
Si Si7 0.513625 0.259672 0.135551
Si Si8 0.696083 0.828157 0.022188
O O1 0.831006 0.614831 0.512345
O O2 0.527299 0.591386 0.574279
O O3 0.692757 0.501110 0.607413
O O4 0.736150 0.516641 0.442893
O O5 0.060162 0.742523 0.032117
O O6 0.000712 0.670671 0.927568
O O7 0.318369 0.711699 0.876177
O O8 0.868976 0.815163 0.182448
O O9 0.752107 0.952901 0.193587
O O10 0.757150 0.858927 0.085100
O O11 0.847418 0.413859 0.797713
O O12 0.022808 0.312119 0.814609
O O13 0.500000 0.417286 0.750000
O O14 0.546445 0.443787 0.881111
O O15 0.284807 0.370218 0.925875
O O16 0.750000 0.750000 0.000000
#
# Coordination Sequence:
#
# PCOD9268208 Si02
#       8
#     8   8   8   4   8   8   8   8
#     4  10  19  44  71  90 126 186 227 271 334 432
#     4  10  22  38  66  97 130 171 234 278 334 420
#     4  10  20  43  67  92 131 179 228 267 349 420
#     4  12  26  40  72 102 134 178 246 300 332 396
#     4  11  25  41  66  99 138 170 226 290 351 402
#     4  11  22  43  71  94 134 184 230 284 346 421
#     4  10  22  42  66  95 132 179 231 282 338 413
#     4  12  23  37  68  98 131 176 222 285 348 412
#
# _framework density 21.913378000000002
#
# number of rings (size 3 to 8) (size 9 to 14) (size 15 to 20)
#    0.000    1.333    5.333    0.800    3.733    0.533 
#   13.200    0.000    1.467    0.000    0.000    0.000 
#    0.000    0.000    0.000    0.000    0.000    0.000 
#
# Total GULP energy -167483.611603 kJ/mol
# GULP energy per Si atom -5582.787053 kJ/mol
# Density = 2.186350 g / cm^3
# Si number density = 21.913378 Si / 1000 Ang^3
#
#
#
# Elastic Constant Matrix: (Units=GPa)
#
#
# Indices 1 2 3 4 5 6 
#
# 1 99.9561 50.4491 13.7557 0.0000 1.0775 0.0000
# 2 50.4491 165.2660 32.8194 0.0000 -5.7553 0.0000
# 3 13.7557 32.8194 54.3900 0.0000 7.6242 0.0000
# 4 0.0000 0.0000 0.0000 31.0528 0.0000 -5.6993
# 5 1.0775 -5.7553 7.6242 0.0000 12.2323 0.0000
# 6 0.0000 0.0000 0.0000 -5.6993 0.0000 31.7330
#
#
#
# Elastic Compliance Matrix: (Units=1/GPa)
#
#
# Indices 1 2 3 4 5 6 
#
# 1 0.011930 -0.003632 -0.000481 0.000000 -0.002460 0.000000
# 2 -0.003632 0.008466 -0.005252 0.000000 0.007577 0.000000
# 3 -0.000481 -0.005252 0.024125 0.000000 -0.017466 0.000000
# 4 0.000000 0.000000 0.000000 0.033301 0.000000 0.005981
# 5 -0.002460 0.007577 -0.017466 0.000000 0.096419 0.000000
# 6 0.000000 0.000000 0.000000 0.005981 0.000000 0.032587
#
#
# Mechanical properties :
#
#
# Convention : Reuss Voigt Hill
#
# Bulk Modulus (GPa) = 38.77278 57.07339 47.92308
# Shear Modulus (GPa) = 21.35332 29.84280 25.59806
#
# Velocity S-wave (km/s) = 3.12499 3.69433 3.42153
# Velocity P-wave (km/s) = 5.54552 6.65575 6.12584
#
# Compressibility (1/GPa) = 0.02579129
#
# Stress axis : x y z
#
# Youngs Moduli (GPa) = 83.82097 118.11321 41.45100
#
# Poissons Ratio (x) = 0.42899 0.01993
# Poissons Ratio (y) = 0.30444 0.21771
# Poissons Ratio (z) = 0.04030 0.62037
#
# Static dielectric constant tensor:
#      x y z
#    x 0.978610 0.000000 0.812610 
#    y 0.000000 1.903670 0.000000 
#    z 0.812610 0.000000 1.032300 
# 
# From -- ./inp_files/192519.got.cif
#   From: 2010.05.17/outbox.cif.g08.bks.cpg/sg15_97_cif.got.tgz:192519.got - 2010.06.03 18:47:42.
