data_PCOD9268298
_publ_section_title
;
Structure prediction by ZEFSAII (Michael W. Deem and Ramdas Pophale) SiO2 
 PCOD9268298
Probable space group: C 2/C
;
_chemical_formula_sum "Si O2"
_cell_formula_units_Z 52
_cell_length_a 16.914570
_cell_length_b 12.007180
_cell_length_c 22.547856
_cell_angle_alpha 90.000000
_cell_angle_beta 152.874681
_cell_angle_gamma 90.000000
_cell_volume 2087.917148
_symmetry_space_group_name_H-M "C 2/C"
_symmetry_group_IT_number 15
_symmetry_cell_setting 'monoclinic'
loop_
_space_group_symop_operation_xyz
x,y,z
-x,y,1/2-z
-x,-y,-z
x,-y,1/2+z
1/2+x,1/2+y,z
1/2-x,1/2+y,1/2-z
1/2-x,1/2-y,-z
1/2+x,1/2-y,1/2+z
loop_
_atom_site_type_symbol
_atom_site_label
_atom_site_fract_x
_atom_site_fract_y
_atom_site_fract_z
Si Si1 0.000000 0.931632 0.750000
Si Si2 0.135523 0.636926 0.022288
Si Si3 0.140304 0.595945 0.890554
Si Si4 0.074884 0.377166 0.013629
Si Si5 0.622634 0.533025 0.028654
Si Si6 0.981708 0.872162 0.318483
Si Si7 0.024958 0.362922 0.685042
O O1 0.841065 0.864322 0.670111
O O2 0.064819 0.020820 0.841635
O O3 0.023758 0.691193 0.999685
O O4 0.126099 0.657147 0.944978
O O5 0.070514 0.511411 0.995393
O O6 0.308853 0.576669 0.961981
O O7 0.000000 0.638827 0.750000
O O8 0.088556 0.468414 0.872211
O O9 0.986808 0.342145 0.893025
O O10 0.278359 0.365802 0.165781
O O11 0.786216 0.601807 0.164634
O O12 0.500000 0.500000 0.000000
O O13 0.516906 0.603709 0.910177
O O14 0.053187 0.753842 0.344825
#
# Coordination Sequence:
#
# PCOD9268298 Si02
#       7
#     4   8   8   8   8   8   8
#     4  10  20  30  56  86 108 142 188 228 280 336
#     4   9  17  33  51  78 108 140 190 226 269 328
#     4   9  19  33  52  80 113 144 184 224 295 330
#     4   9  20  33  56  75 112 151 186 223 275 337
#     4  11  24  36  55  85 120 150 195 239 283 342
#     4  11  22  36  56  85 119 152 183 233 289 350
#     4  10  22  38  55  82 120 155 181 227 294 353
#
# _framework density 24.905201999999999
#
# number of rings (size 3 to 8) (size 9 to 14) (size 15 to 20)
#    0.000    2.154    1.538    0.923   14.000    0.615 
#    0.000    0.000    0.000    0.000    0.000   11.846 
#    0.000    0.000    0.000    0.000    0.000    0.000 
#
# Total GULP energy -144900.983532 kJ/mol
# GULP energy per Si atom -5573.114751 kJ/mol
# Density = 2.484852 g / cm^3
# Si number density = 24.905202 Si / 1000 Ang^3
#
#
#
# Elastic Constant Matrix: (Units=GPa)
#
#
# Indices 1 2 3 4 5 6 
#
# 1 205.6333 11.3575 81.8964 -0.0002 -10.9332 -0.0002
# 2 11.3575 41.3016 8.8309 -0.0025 -7.6552 -0.0004
# 3 81.8964 8.8309 133.3522 -0.0039 -34.5061 -0.0025
# 4 -0.0002 -0.0025 -0.0039 5.6377 -0.0014 7.2023
# 5 -10.9332 -7.6552 -34.5061 -0.0014 42.5137 0.0000
# 6 -0.0002 -0.0004 -0.0025 7.2023 0.0000 5.2324
#
#
#
# Elastic Compliance Matrix: (Units=1/GPa)
#
#
# Indices 1 2 3 4 5 6 
#
# 1 0.006633 -0.001260 -0.004566 0.000002 -0.002227 -0.000005
# 2 -0.001260 0.025328 0.000244 -0.000013 0.004435 0.000020
# 3 -0.004566 0.000244 0.012652 -0.000005 0.009138 0.000012
# 4 0.000002 -0.000013 -0.000005 -0.233855 -0.000013 0.321897
# 5 -0.002227 0.004435 0.009138 -0.000013 0.031165 0.000023
# 6 -0.000005 0.000020 0.000012 0.321897 0.000023 -0.251969
#
#
# Mechanical properties :
#
#
# Convention : Reuss Voigt Hill
#
# Bulk Modulus (GPa) = 29.89699 64.93963 47.41831
# Shear Modulus (GPa) = -12.89551 29.22359 8.16404
#
# Velocity S-wave (km/s) = -2.27795 3.42920 1.81250
# Velocity P-wave (km/s) = 2.26089 6.46611 4.84366
#
# Compressibility (1/GPa) = 0.03344818
#
# Stress axis : x y z
#
# Youngs Moduli (GPa) = 150.76507 39.48122 79.04021
#
# Poissons Ratio (x) = 0.04976 0.36093
# Poissons Ratio (y) = 0.19003 -0.01931
# Poissons Ratio (z) = 0.68845 -0.00965
#
# Static dielectric constant tensor:
#      x y z
#    x 2.227710 0.000000 -0.076440 
#    y 0.000000 2.179860 0.000000 
#    z -0.076440 0.000000 2.005720 
# 
# From -- ./inp_files/97833.got.cif
#   From: 2010.05.17/outbox.cif.g08.bks.cpg/sg15_49_cif.got.tgz:97833.got - 2010.06.03 18:47:42.
