data_PCOD9268900
_publ_section_title
;
Structure prediction by ZEFSAII (Michael W. Deem and Ramdas Pophale) SiO2 
 PCOD9268900
Probable space group: C 2/C
;
_chemical_formula_sum "Si O2"
_cell_formula_units_Z 36
_cell_length_a 6.923647
_cell_length_b 14.737486
_cell_length_c 24.815057
_cell_angle_alpha 90.000000
_cell_angle_beta 139.247829
_cell_angle_gamma 90.000000
_cell_volume 1652.898046
_symmetry_space_group_name_H-M "C 2/C"
_symmetry_group_IT_number 15
_symmetry_cell_setting 'monoclinic'
loop_
_space_group_symop_operation_xyz
x,y,z
-x,y,1/2-z
-x,-y,-z
x,-y,1/2+z
1/2+x,1/2+y,z
1/2-x,1/2+y,1/2-z
1/2-x,1/2-y,-z
1/2+x,1/2-y,1/2+z
loop_
_atom_site_type_symbol
_atom_site_label
_atom_site_fract_x
_atom_site_fract_y
_atom_site_fract_z
Si Si1 0.500000 0.942924 0.750000
Si Si2 0.913144 0.135279 0.085303
Si Si3 0.748571 0.536913 0.009352
Si Si4 0.150509 0.451591 0.173640
Si Si5 0.632399 0.311006 0.046234
O O1 0.451416 0.005652 0.791597
O O2 0.214144 0.881873 0.679761
O O3 0.702323 0.206224 0.070414
O O4 0.970744 0.178075 0.037913
O O5 0.774112 0.037136 0.042529
O O6 0.050220 0.523738 0.106380
O O7 0.500000 0.500000 0.000000
O O8 0.607690 0.635342 0.968475
O O9 0.500000 0.434835 0.250000
O O10 0.947898 0.363524 0.118892
#
# Coordination Sequence:
#
# PCOD9268900 Si02
#       5
#     4   8   8   8   8
#     4  12  18  34  56  86 112 148 194 252 292 354
#     4   9  17  28  58  80 107 155 197 227 307 349
#     4   8  14  34  50  77 116 150 188 248 287 360
#     4  10  20  33  55  83 113 146 194 244 297 353
#     4   9  16  34  53  81 113 156 192 243 294 365
#
# _framework density 21.779928000000002
#
# number of rings (size 3 to 8) (size 9 to 14) (size 15 to 20)
#    0.000    3.111    6.667    0.000    1.556    0.000 
#    0.000    4.444    2.444    1.333    0.000    1.556 
#    0.000    0.000    0.000    0.000    0.000    0.000 
#
# Total GULP energy -100395.496321 kJ/mol
# GULP energy per Si atom -5577.527573 kJ/mol
# Density = 2.173036 g / cm^3
# Si number density = 21.779928 Si / 1000 Ang^3
#
#
#
# Elastic Constant Matrix: (Units=GPa)
#
#
# Indices 1 2 3 4 5 6 
#
# 1 50.1937 56.0453 38.5685 0.0000 4.0362 0.0000
# 2 56.0453 133.7623 51.8454 0.0000 11.0219 0.0000
# 3 38.5685 51.8454 163.2372 0.0000 18.1361 0.0000
# 4 0.0000 0.0000 0.0000 26.1824 0.0000 7.5963
# 5 4.0362 11.0219 18.1361 0.0000 40.9733 0.0000
# 6 0.0000 0.0000 0.0000 7.5963 0.0000 28.8178
#
#
#
# Elastic Compliance Matrix: (Units=1/GPa)
#
#
# Indices 1 2 3 4 5 6 
#
# 1 0.040647 -0.015281 -0.005009 0.000000 0.002323 0.000000
# 2 -0.015281 0.014322 -0.000713 0.000000 -0.002032 0.000000
# 3 -0.005009 -0.000713 0.007845 0.000000 -0.002788 0.000000
# 4 0.000000 0.000000 0.000000 0.041356 0.000000 -0.010901
# 5 0.002323 -0.002032 -0.002788 0.000000 0.025958 0.000000
# 6 0.000000 0.000000 0.000000 -0.010901 0.000000 0.037574
#
#
# Mechanical properties :
#
#
# Convention : Reuss Voigt Hill
#
# Bulk Modulus (GPa) = 48.05294 71.12352 59.58823
# Shear Modulus (GPa) = 23.07935 32.57696 27.82816
#
# Velocity S-wave (km/s) = 3.25878 3.87167 3.57837
# Velocity P-wave (km/s) = 6.02249 7.26036 6.67020
#
# Compressibility (1/GPa) = 0.02081038
#
# Stress axis : x y z
#
# Youngs Moduli (GPa) = 24.60218 69.82203 127.46186
#
# Poissons Ratio (x) = 1.06694 0.63840
# Poissons Ratio (y) = 0.37594 0.09083
# Poissons Ratio (z) = 0.12322 0.04976
#
# Static dielectric constant tensor:
#      x y z
#    x 1.876150 0.000000 0.032640 
#    y 0.000000 1.903690 0.000000 
#    z 0.032640 0.000000 1.766870 
# 
# From -- ./inp_files/187994.got.cif
#   From: 2010.05.17/outbox.cif.g08.bks.cpg/sg15_94_cif.got.tgz:187994.got - 2010.06.03 18:47:42.
