data_PCOD9268678
_publ_section_title
;
Structure prediction by ZEFSAII (Michael W. Deem and Ramdas Pophale) SiO2 
 PCOD9268678
Probable space group: C 2/C
;
_chemical_formula_sum "Si O2"
_cell_formula_units_Z 48
_cell_length_a 22.324360
_cell_length_b 13.860076
_cell_length_c 22.106874
_cell_angle_alpha 90.000000
_cell_angle_beta 161.164183
_cell_angle_gamma 90.000000
_cell_volume 2208.425321
_symmetry_space_group_name_H-M "C 2/C"
_symmetry_group_IT_number 15
_symmetry_cell_setting 'monoclinic'
loop_
_space_group_symop_operation_xyz
x,y,z
-x,y,1/2-z
-x,-y,-z
x,-y,1/2+z
1/2+x,1/2+y,z
1/2-x,1/2+y,1/2-z
1/2-x,1/2-y,-z
1/2+x,1/2-y,1/2+z
loop_
_atom_site_type_symbol
_atom_site_label
_atom_site_fract_x
_atom_site_fract_y
_atom_site_fract_z
Si Si1 0.048106 0.113709 0.046386
Si Si2 0.281715 0.663241 0.620347
Si Si3 0.659454 0.095197 0.088140
Si Si4 0.967632 0.493365 0.153613
Si Si5 0.341152 0.128331 0.869754
Si Si6 0.201042 0.870615 0.562199
O O1 0.145456 0.136823 0.202694
O O2 0.182582 0.133269 0.117826
O O3 0.852574 0.160500 0.843955
O O4 0.000000 0.000000 0.000000
O O5 0.178299 0.583673 0.481280
O O6 0.150470 0.669567 0.554856
O O7 0.289404 0.776595 0.613324
O O8 0.487317 0.625179 0.834206
O O9 0.661926 0.985725 0.117473
O O10 0.498682 0.146500 0.972093
O O11 0.611959 0.078714 0.973089
O O12 0.000000 0.449380 0.250000
O O13 0.163558 0.539677 0.320181
#
# Coordination Sequence:
#
# PCOD9268678 Si02
#       6
#     8   8   8   8   8   8
#     4   9  16  28  49  70  87 113 146 196 253 284
#     4  10  20  33  47  68  96 127 158 192 234 280
#     4   9  16  29  48  66  87 115 156 193 236 273
#     4  11  23  35  46  64  94 136 173 194 215 261
#     4   8  15  27  47  69  88 112 143 192 248 284
#     4  11  20  33  49  68  96 127 158 195 235 282
#
# _framework density 21.734943999999999
#
# number of rings (size 3 to 8) (size 9 to 14) (size 15 to 20)
#    0.000    2.333    1.667    5.000    0.000    1.333 
#    0.000    0.000    0.000    0.000    0.000    0.000 
#    0.000    1.333    0.333    0.000    0.000    0.000 
#
# Total GULP energy -133874.676668 kJ/mol
# GULP energy per Si atom -5578.111528 kJ/mol
# Density = 2.168547 g / cm^3
# Si number density = 21.734944 Si / 1000 Ang^3
#
#
#
# Elastic Constant Matrix: (Units=GPa)
#
#
# Indices 1 2 3 4 5 6 
#
# 1 66.3350 -1.8836 59.8462 -0.0032 -31.6510 -0.0018
# 2 -1.8836 36.8188 -7.1534 -0.0224 -0.6666 -0.0100
# 3 59.8462 -7.1534 105.9892 -0.0146 -22.7602 -0.0069
# 4 -0.0032 -0.0224 -0.0146 16.7299 -0.0041 -1.1172
# 5 -31.6510 -0.6666 -22.7602 -0.0041 31.1385 -0.0014
# 6 -0.0018 -0.0100 -0.0069 -1.1172 -0.0014 15.5734
#
#
#
# Elastic Compliance Matrix: (Units=1/GPa)
#
#
# Indices 1 2 3 4 5 6 
#
# 1 0.052437 -0.000838 -0.021616 -0.000001 0.037482 -0.000001
# 2 -0.000838 0.027675 0.002711 0.000041 0.001722 0.000022
# 3 -0.021616 0.002711 0.020304 0.000016 -0.007072 0.000009
# 4 -0.000001 0.000041 0.000016 0.060061 0.000020 0.004309
# 5 0.037482 0.001722 -0.007072 0.000020 0.065081 0.000010
# 6 -0.000001 0.000022 0.000009 0.004309 0.000010 0.064521
#
#
# Mechanical properties :
#
#
# Convention : Reuss Voigt Hill
#
# Bulk Modulus (GPa) = 16.41233 34.52905 25.47069
# Shear Modulus (GPa) = 14.29080 23.24394 18.76737
#
# Velocity S-wave (km/s) = 2.56696 3.27376 2.94167
# Velocity P-wave (km/s) = 4.04392 5.49644 4.82515
#
# Compressibility (1/GPa) = 0.06092982
#
# Stress axis : x y z
#
# Youngs Moduli (GPa) = 19.07065 36.13358 49.25045
#
# Poissons Ratio (x) = 0.03030 1.06458
# Poissons Ratio (y) = 0.01599 -0.13352
# Poissons Ratio (z) = 0.41223 -0.09796
#
# Static dielectric constant tensor:
#      x y z
#    x 1.810990 0.000000 -0.003040 
#    y 0.000000 1.896540 0.000000 
#    z -0.003040 0.000000 1.844570 
# 
# From -- ./inp_files/216591.got.cif
#   From: 2010.05.17/outbox.cif.g08.bks.cpg/sg15_109_cif.got.tgz:216591.got - 2010.06.03 18:47:42.
