data_PCOD9268234
_publ_section_title
;
Structure prediction by ZEFSAII (Michael W. Deem and Ramdas Pophale) SiO2 
 PCOD9268234
Probable space group: C 2/C
;
_chemical_formula_sum "Si O2"
_cell_formula_units_Z 40
_cell_length_a 26.068010
_cell_length_b 13.245002
_cell_length_c 5.608324
_cell_angle_alpha 90.000000
_cell_angle_beta 61.996200
_cell_angle_gamma 90.000000
_cell_volume 1709.671268
_symmetry_space_group_name_H-M "C 2/C"
_symmetry_group_IT_number 15
_symmetry_cell_setting 'monoclinic'
loop_
_space_group_symop_operation_xyz
x,y,z
-x,y,1/2-z
-x,-y,-z
x,-y,1/2+z
1/2+x,1/2+y,z
1/2-x,1/2+y,1/2-z
1/2-x,1/2-y,-z
1/2+x,1/2-y,1/2+z
loop_
_atom_site_type_symbol
_atom_site_label
_atom_site_fract_x
_atom_site_fract_y
_atom_site_fract_z
Si Si1 0.767892 0.412838 0.952579
Si Si2 0.800966 0.242240 0.199693
Si Si3 0.611043 0.103901 0.542095
Si Si4 0.844008 0.957128 0.748331
Si Si5 0.432613 0.123674 0.360615
O O1 0.721031 0.329583 0.968676
O O2 0.821362 0.422817 0.650748
O O3 0.801780 0.355505 0.093180
O O4 0.724636 0.505737 0.101260
O O5 0.750000 0.250000 0.500000
O O6 0.846120 0.163279 0.217677
O O7 0.588000 0.161399 0.356178
O O8 0.577339 0.997425 0.631843
O O9 0.599956 0.153480 0.822700
O O10 0.867780 0.006821 0.452339
O O11 0.500000 0.145885 0.250000
#
# Coordination Sequence:
#
# PCOD9268234 Si02
#       5
#     8   8   8   8   8
#     4  10  22  32  46  74  92 129 179 209 246 278
#     4  10  20  33  47  63 101 124 162 229 247 280
#     4  10  20  28  50  65  90 125 160 207 228 294
#     4  10  20  31  49  63  90 121 166 205 246 285
#     4  10  20  33  47  70  95 123 160 207 247 288
#
# _framework density 23.396308999999999
#
# number of rings (size 3 to 8) (size 9 to 14) (size 15 to 20)
#    0.000    2.000    2.000    3.000   14.000    0.000 
#    0.000    0.000    0.000    0.000    0.000    0.000 
#    0.000    0.000    0.000    0.000    0.000  306.000 
#
# Total GULP energy -111426.261685 kJ/mol
# GULP energy per Si atom -5571.313084 kJ/mol
# Density = 2.334306 g / cm^3
# Si number density = 23.396309 Si / 1000 Ang^3
#
#
#
# Elastic Constant Matrix: (Units=GPa)
#
#
# Indices 1 2 3 4 5 6 
#
# 1 56.3285 4.9269 20.6951 0.0000 15.5791 0.0000
# 2 4.9269 114.7784 27.4094 0.0000 2.7865 0.0000
# 3 20.6951 27.4094 142.9918 0.0000 41.5242 0.0000
# 4 0.0000 0.0000 0.0000 20.9571 0.0000 3.5885
# 5 15.5791 2.7865 41.5242 0.0000 35.9711 0.0000
# 6 0.0000 0.0000 0.0000 3.5885 0.0000 10.3797
#
#
#
# Elastic Compliance Matrix: (Units=1/GPa)
#
#
# Indices 1 2 3 4 5 6 
#
# 1 0.020235 -0.000566 -0.000433 0.000000 -0.008220 0.000000
# 2 -0.000566 0.009240 -0.002336 0.000000 0.002225 0.000000
# 3 -0.000433 -0.002336 0.011127 0.000000 -0.012476 0.000000
# 4 0.000000 0.000000 0.000000 0.050719 0.000000 -0.017535
# 5 -0.008220 0.002225 -0.012476 0.000000 0.045590 0.000000
# 6 0.000000 0.000000 0.000000 -0.017535 0.000000 0.102404
#
#
# Mechanical properties :
#
#
# Convention : Reuss Voigt Hill
#
# Bulk Modulus (GPa) = 29.46935 46.68461 38.07698
# Shear Modulus (GPa) = 19.43295 30.86608 25.14951
#
# Velocity S-wave (km/s) = 2.88514 3.63612 3.28218
# Velocity P-wave (km/s) = 4.87050 6.13397 5.53838
#
# Compressibility (1/GPa) = 0.03393356
#
# Stress axis : x y z
#
# Youngs Moduli (GPa) = 49.41910 108.21988 89.87347
#
# Poissons Ratio (x) = 0.06121 0.03893
# Poissons Ratio (y) = 0.02795 0.20991
# Poissons Ratio (z) = 0.02141 0.25276
#
# Static dielectric constant tensor:
#      x y z
#    x 1.989290 0.000000 0.102070 
#    y 0.000000 2.211070 0.000000 
#    z 0.102070 0.000000 2.060350 
# 
# From -- ./inp_files/14991.got.cif
#   From: 2010.05.17/outbox.cif.g08.bks.cpg/sg15_8_cif.got.tgz:14991.got - 2010.06.03 18:47:42.
