data_PCOD9268861
_publ_section_title
;
Structure prediction by ZEFSAII (Michael W. Deem and Ramdas Pophale) SiO2 
 PCOD9268861
Probable space group: C 2/C
;
_chemical_formula_sum "Si O2"
_cell_formula_units_Z 60
_cell_length_a 21.173768
_cell_length_b 16.193051
_cell_length_c 24.398948
_cell_angle_alpha 90.000000
_cell_angle_beta 23.552347
_cell_angle_gamma 90.000000
_cell_volume 3342.789415
_symmetry_space_group_name_H-M "C 2/C"
_symmetry_group_IT_number 15
_symmetry_cell_setting 'monoclinic'
loop_
_space_group_symop_operation_xyz
x,y,z
-x,y,1/2-z
-x,-y,-z
x,-y,1/2+z
1/2+x,1/2+y,z
1/2-x,1/2+y,1/2-z
1/2-x,1/2-y,-z
1/2+x,1/2-y,1/2+z
loop_
_atom_site_type_symbol
_atom_site_label
_atom_site_fract_x
_atom_site_fract_y
_atom_site_fract_z
Si Si1 0.626741 0.166854 0.434422
Si Si2 0.524961 0.106686 0.057459
Si Si3 0.819985 0.015852 0.302429
Si Si4 0.761429 0.333745 0.834658
Si Si5 0.738642 0.283064 0.070315
Si Si6 0.000000 0.931599 0.250000
Si Si7 0.790256 0.707926 0.728272
Si Si8 0.049589 0.058885 0.910311
O O1 0.549470 0.120788 0.442920
O O2 0.753010 0.107237 0.361282
O O3 0.713788 0.244149 0.339204
O O4 0.475008 0.192397 0.589595
O O5 0.379279 0.097324 0.215335
O O6 0.606028 0.188569 0.019449
O O7 0.664297 0.040688 0.938649
O O8 0.960640 0.989289 0.230519
O O9 0.891868 0.998780 0.185606
O O10 0.831474 0.284357 0.831420
O O11 0.730837 0.266081 0.809873
O O12 0.601039 0.380574 0.979800
O O13 0.643428 0.367212 0.136678
O O14 0.750000 0.250000 0.000000
O O15 0.695597 0.622486 0.799712
O O16 0.000000 0.000000 0.000000
#
# Coordination Sequence:
#
# PCOD9268861 Si02
#       8
#     8   8   8   8   8   4   8   8
#     4  11  21  36  60  83 118 147 196 247 303 355
#     4  10  20  33  54  81 115 155 193 234 287 346
#     4  11  23  39  59  84 119 161 194 244 304 362
#     4  11  20  35  53  85 122 162 199 244 281 353
#     4  11  19  33  54  81 120 165 198 235 282 351
#     4  10  22  38  56  82 112 158 206 238 292 366
#     4  11  20  36  55  87 117 153 195 243 304 357
#     4  12  23  35  55  91 128 159 194 246 301 356
#
# _framework density 17.949082000000001
#
# number of rings (size 3 to 8) (size 9 to 14) (size 15 to 20)
#    0.000    1.067    4.000    5.200    1.867    0.000 
#    0.000    0.000    0.000    0.800    0.000    0.000 
#    0.000    0.000    0.000    0.000    0.000    0.000 
#
# Total GULP energy -167168.608457 kJ/mol
# GULP energy per Si atom -5572.286949 kJ/mol
# Density = 1.790823 g / cm^3
# Si number density = 17.949082 Si / 1000 Ang^3
#
#
#
# Elastic Constant Matrix: (Units=GPa)
#
#
# Indices 1 2 3 4 5 6 
#
# 1 46.4929 17.7411 12.2214 0.0013 -0.7259 0.0006
# 2 17.7411 31.1080 18.2759 -0.0018 0.5004 0.0051
# 3 12.2214 18.2759 108.5227 0.0008 5.8865 -0.0020
# 4 0.0013 -0.0018 0.0008 47.8616 0.0002 18.5905
# 5 -0.7259 0.5004 5.8865 0.0002 19.4451 0.0021
# 6 0.0006 0.0051 -0.0020 18.5905 0.0021 47.0696
#
#
#
# Elastic Compliance Matrix: (Units=1/GPa)
#
#
# Indices 1 2 3 4 5 6 
#
# 1 0.027566 -0.015395 -0.000599 -0.000002 0.001607 0.000002
# 2 -0.015395 0.044290 -0.005726 0.000005 0.000019 -0.000007
# 3 -0.000599 -0.005726 0.010411 -0.000001 -0.003027 0.000002
# 4 -0.000002 0.000005 -0.000001 0.024680 0.000001 -0.009747
# 5 0.001607 0.000019 -0.003027 0.000001 0.052402 -0.000003
# 6 0.000002 -0.000007 0.000002 -0.009747 -0.000003 0.025095
#
#
# Mechanical properties :
#
#
# Convention : Reuss Voigt Hill
#
# Bulk Modulus (GPa) = 25.75569 31.40003 28.57786
# Shear Modulus (GPa) = 20.76203 32.06763 26.41483
#
# Velocity S-wave (km/s) = 3.40475 4.23139 3.84038
# Velocity P-wave (km/s) = 5.46231 6.43466 5.96832
#
# Compressibility (1/GPa) = 0.03882637
#
# Stress axis : x y z
#
# Youngs Moduli (GPa) = 36.27705 22.57870 96.05635
#
# Poissons Ratio (x) = 0.34760 0.05753
# Poissons Ratio (y) = 0.55848 0.55002
# Poissons Ratio (z) = 0.02173 0.12928
#
# Static dielectric constant tensor:
#      x y z
#    x 1.638440 0.000000 -0.023910 
#    y 0.000000 1.643750 0.000000 
#    z -0.023910 0.000000 1.669190 
# 
# From -- ./inp_files/302344.got.cif
#   From: 2010.05.17/outbox.cif.g08.bks.cpg/sg15_152_cif.got.tgz:302344.got - 2010.06.03 18:47:42.
