data_PCOD9268511
_publ_section_title
;
Structure prediction by ZEFSAII (Michael W. Deem and Ramdas Pophale) SiO2 
 PCOD9268511
Probable space group: C 2/C
;
_chemical_formula_sum "Si O2"
_cell_formula_units_Z 56
_cell_length_a 11.626260
_cell_length_b 26.660102
_cell_length_c 11.866311
_cell_angle_alpha 90.000000
_cell_angle_beta 51.737665
_cell_angle_gamma 90.000000
_cell_volume 2887.944220
_symmetry_space_group_name_H-M "C 2/C"
_symmetry_group_IT_number 15
_symmetry_cell_setting 'monoclinic'
loop_
_space_group_symop_operation_xyz
x,y,z
-x,y,1/2-z
-x,-y,-z
x,-y,1/2+z
1/2+x,1/2+y,z
1/2-x,1/2+y,1/2-z
1/2-x,1/2-y,-z
1/2+x,1/2-y,1/2+z
loop_
_atom_site_type_symbol
_atom_site_label
_atom_site_fract_x
_atom_site_fract_y
_atom_site_fract_z
Si Si1 0.133814 0.975952 0.094019
Si Si2 0.344833 0.069609 0.293427
Si Si3 0.572834 0.794703 0.082715
Si Si4 0.391742 0.103556 0.030707
Si Si5 0.917427 0.185702 0.418088
Si Si6 0.161866 0.533030 0.826449
Si Si7 0.158963 0.919264 0.474138
O O1 0.257384 0.987316 0.112278
O O2 0.000000 0.956512 0.250000
O O3 0.087903 0.028143 0.059832
O O4 0.210087 0.937360 0.961402
O O5 0.500000 0.087863 0.250000
O O6 0.311525 0.099849 0.199463
O O7 0.372317 0.012513 0.235871
O O8 0.500000 0.799106 0.250000
O O9 0.533805 0.739369 0.060477
O O10 0.533361 0.842330 0.031481
O O11 0.747061 0.802665 0.993934
O O12 0.284623 0.092153 0.991216
O O13 0.519696 0.062856 0.949155
O O14 0.929846 0.132784 0.474394
O O15 0.000000 0.179076 0.250000
O O16 0.267503 0.568945 0.689746
#
# Coordination Sequence:
#
# PCOD9268511 Si02
#       7
#     8   8   8   8   8   8   8
#     4  11  23  37  49  74 111 152 186 218 260 324
#     4  11  21  34  54  75 106 146 187 226 263 314
#     4   9  18  31  52  77 108 137 172 218 275 324
#     4  11  18  33  54  80 105 141 186 227 266 319
#     4   9  17  32  49  76 111 136 169 221 271 328
#     4  11  20  34  53  77 110 148 184 226 261 319
#     4  10  20  32  53  80 108 144 178 221 276 320
#
# _framework density 19.390955999999999
#
# number of rings (size 3 to 8) (size 9 to 14) (size 15 to 20)
#    0.000    1.714    2.857    4.714    0.000    2.286 
#    5.143    0.000    0.000    0.000    0.000    2.000 
#    0.000    0.000    0.000    0.000    0.000    0.000 
#
# Total GULP energy -156162.585221 kJ/mol
# GULP energy per Si atom -5577.235186 kJ/mol
# Density = 1.934682 g / cm^3
# Si number density = 19.390956 Si / 1000 Ang^3
#
#
#
# Elastic Constant Matrix: (Units=GPa)
#
#
# Indices 1 2 3 4 5 6 
#
# 1 29.8544 6.4362 4.7994 0.0000 4.0629 0.0000
# 2 6.4362 91.8529 41.0703 0.0000 4.4651 0.0000
# 3 4.7994 41.0703 148.1515 0.0000 -6.5101 0.0000
# 4 0.0000 0.0000 0.0000 31.2888 0.0000 3.1683
# 5 4.0629 4.4651 -6.5101 0.0000 22.0190 0.0000
# 6 0.0000 0.0000 0.0000 3.1683 0.0000 2.9341
#
#
#
# Elastic Compliance Matrix: (Units=1/GPa)
#
#
# Indices 1 2 3 4 5 6 
#
# 1 0.034882 -0.001717 -0.000934 0.000000 -0.006364 0.000000
# 2 -0.001717 0.012798 -0.003640 0.000000 -0.003354 0.000000
# 3 -0.000934 -0.003640 0.007932 0.000000 0.003255 0.000000
# 4 0.000000 0.000000 0.000000 0.035884 0.000000 -0.038749
# 5 -0.006364 -0.003354 0.003255 0.000000 0.048232 0.000000
# 6 0.000000 0.000000 0.000000 -0.038749 0.000000 0.382662
#
#
# Mechanical properties :
#
#
# Convention : Reuss Voigt Hill
#
# Bulk Modulus (GPa) = 23.23905 41.60787 32.42346
# Shear Modulus (GPa) = 9.10225 25.75190 17.42707
#
# Velocity S-wave (km/s) = 2.16893 3.64818 3.00112
# Velocity P-wave (km/s) = 4.27584 6.26494 5.36341
#
# Compressibility (1/GPa) = 0.04303102
#
# Stress axis : x y z
#
# Youngs Moduli (GPa) = 28.66784 78.13894 126.07017
#
# Poissons Ratio (x) = 0.13420 0.11769
# Poissons Ratio (y) = 0.04924 0.45884
# Poissons Ratio (z) = 0.02676 0.28439
#
# Static dielectric constant tensor:
#      x y z
#    x 1.693950 0.000000 -0.036740 
#    y 0.000000 1.792680 0.000000 
#    z -0.036740 0.000000 1.710100 
# 
# From -- ./inp_files/91980.got.cif
#   From: 2010.05.17/outbox.cif.g08.bks.cpg/sg15_46_cif.got.tgz:91980.got - 2010.06.03 18:47:42.
