data_PCOD9268522
_publ_section_title
;
Structure prediction by ZEFSAII (Michael W. Deem and Ramdas Pophale) SiO2 
 PCOD9268522
Probable space group: C 2/C
;
_chemical_formula_sum "Si O2"
_cell_formula_units_Z 44
_cell_length_a 5.015782
_cell_length_b 20.514199
_cell_length_c 19.225008
_cell_angle_alpha 90.000000
_cell_angle_beta 110.194852
_cell_angle_gamma 90.000000
_cell_volume 1856.543584
_symmetry_space_group_name_H-M "C 2/C"
_symmetry_group_IT_number 15
_symmetry_cell_setting 'monoclinic'
loop_
_space_group_symop_operation_xyz
x,y,z
-x,y,1/2-z
-x,-y,-z
x,-y,1/2+z
1/2+x,1/2+y,z
1/2-x,1/2+y,1/2-z
1/2-x,1/2-y,-z
1/2+x,1/2-y,1/2+z
loop_
_atom_site_type_symbol
_atom_site_label
_atom_site_fract_x
_atom_site_fract_y
_atom_site_fract_z
Si Si1 0.110247 0.015281 0.340700
Si Si2 0.500000 0.688139 0.750000
Si Si3 0.531099 0.705382 0.178713
Si Si4 0.723718 0.624682 0.899671
Si Si5 0.112033 0.403715 0.839236
Si Si6 0.202320 0.794940 0.062358
O O1 0.236661 0.952538 0.390904
O O2 0.344844 0.073522 0.360450
O O3 0.000000 0.003936 0.250000
O O4 0.836839 0.037886 0.358756
O O5 0.764756 0.735118 0.783394
O O6 0.502245 0.644273 0.818329
O O7 0.500000 0.669507 0.250000
O O8 0.696781 0.661308 0.137610
O O9 0.246732 0.739636 0.126179
O O10 0.580351 0.662244 0.951985
O O11 0.031598 0.655388 0.913756
O O12 0.000000 0.398697 0.750000
O O13 0.250000 0.750000 0.000000
#
# Coordination Sequence:
#
# PCOD9268522 Si02
#       6
#     8   4   8   8   8   8
#     4  10  20  34  55  87 122 157 195 250 308 363
#     4  10  20  32  56  94 114 152 198 252 310 358
#     4  11  20  36  60  88 126 152 210 252 316 374
#     4  11  21  39  61  84 125 155 205 252 311 372
#     4  10  20  32  53  85 123 155 192 249 311 357
#     4  11  25  40  61  89 123 165 204 256 316 374
#
# _framework density 23.699956
#
# number of rings (size 3 to 8) (size 9 to 14) (size 15 to 20)
#    0.000    1.455    3.636    3.273    0.000    0.000 
#    0.000    0.000    0.000    6.545    0.000    0.000 
#    0.000    0.000    0.000    0.000    0.000    0.000 
#
# Total GULP energy -122759.795106 kJ/mol
# GULP energy per Si atom -5579.990687 kJ/mol
# Density = 2.364601 g / cm^3
# Si number density = 23.699956 Si / 1000 Ang^3
#
#
#
# Elastic Constant Matrix: (Units=GPa)
#
#
# Indices 1 2 3 4 5 6 
#
# 1 109.5020 24.6712 -9.8643 0.0000 -3.5422 0.0000
# 2 24.6712 72.4203 -10.2064 0.0000 10.4641 0.0000
# 3 -9.8643 -10.2064 12.2491 0.0000 -14.2919 0.0000
# 4 0.0000 0.0000 0.0000 55.9676 0.0000 74.6848
# 5 -3.5422 10.4641 -14.2919 0.0000 18.4990 0.0000
# 6 0.0000 0.0000 0.0000 74.6848 0.0000 135.1658
#
#
#
# Elastic Compliance Matrix: (Units=1/GPa)
#
#
# Indices 1 2 3 4 5 6 
#
# 1 -0.043475 0.003137 -0.448179 0.000000 -0.356352 0.000000
# 2 0.003137 0.015704 0.060339 0.000000 0.038334 0.000000
# 3 -0.448179 0.060339 -3.742834 0.000000 -3.011574 0.000000
# 4 0.000000 0.000000 0.000000 0.068022 0.000000 -0.037585
# 5 -0.356352 0.038334 -3.011574 0.000000 -2.362532 0.000000
# 6 0.000000 0.000000 0.000000 -0.037585 0.000000 0.028166
#
#
# Mechanical properties :
#
#
# Convention : Reuss Voigt Hill
#
# Bulk Modulus (GPa) = -0.22026 22.59694 11.18834
# Shear Modulus (GPa) = -0.73737 54.56454 26.91359
#
# Velocity S-wave (km/s) = -0.55839 4.80344 3.37352
# Velocity P-wave (km/s) = 0.71336 6.34975 4.46153
#
# Compressibility (1/GPa) = -4.54000954
#
# Stress axis : x y z
#
# Youngs Moduli (GPa) = -23.00162 63.67679 -0.26718
#
# Poissons Ratio (x) = -0.19977 -0.11974
# Poissons Ratio (y) = 0.07216 0.01612
# Poissons Ratio (z) = -10.30884 -3.84220
#
# Static dielectric constant tensor:
#      x y z
#    x 1.922200 0.000000 -0.049540 
#    y 0.000000 1.916830 0.000000 
#    z -0.049540 0.000000 2.005110 
# 
# From -- ./inp_files/227142.got.cif
#   From: 2010.05.17/outbox.cif.g08.bks.cpg/sg15_114_cif.got.tgz:227142.got - 2010.06.03 18:47:42.
