data_PCOD9268572
_publ_section_title
;
Structure prediction by ZEFSAII (Michael W. Deem and Ramdas Pophale) SiO2 
 PCOD9268572
Probable space group: C 2/C
;
_chemical_formula_sum "Si O2"
_cell_formula_units_Z 48
_cell_length_a 21.107880
_cell_length_b 11.958567
_cell_length_c 17.399177
_cell_angle_alpha 90.000000
_cell_angle_beta 152.602236
_cell_angle_gamma 90.000000
_cell_volume 2020.999361
_symmetry_space_group_name_H-M "C 2/C"
_symmetry_group_IT_number 15
_symmetry_cell_setting 'monoclinic'
loop_
_space_group_symop_operation_xyz
x,y,z
-x,y,1/2-z
-x,-y,-z
x,-y,1/2+z
1/2+x,1/2+y,z
1/2-x,1/2+y,1/2-z
1/2-x,1/2-y,-z
1/2+x,1/2-y,1/2+z
loop_
_atom_site_type_symbol
_atom_site_label
_atom_site_fract_x
_atom_site_fract_y
_atom_site_fract_z
Si Si1 0.103768 0.599340 0.169589
Si Si2 0.908451 0.954465 0.019513
Si Si3 0.868292 0.726644 0.065804
Si Si4 0.473420 0.121900 0.862080
Si Si5 0.677047 0.693068 0.561047
Si Si6 0.835874 0.843966 0.269196
O O1 0.261905 0.564859 0.316923
O O2 0.062369 0.507801 0.188351
O O3 0.106628 0.725828 0.200681
O O4 0.011850 0.610325 0.994222
O O5 0.904256 0.850582 0.072872
O O6 0.049106 0.936259 0.123848
O O7 0.898282 0.077934 0.044317
O O8 0.000000 0.679033 0.250000
O O9 0.750000 0.750000 0.000000
O O10 0.805361 0.648732 0.930122
O O11 0.332932 0.190547 0.700396
O O12 0.595017 0.193393 0.955743
O O13 0.683194 0.677392 0.660941
#
# Coordination Sequence:
#
# PCOD9268572 Si02
#       6
#     8   8   8   8   8   8
#     4   8  18  30  49  71 110 151 183 232 291 328
#     4  10  20  36  53  85 115 156 194 246 301 365
#     4  11  22  38  60  83 121 161 204 248 297 347
#     4   9  18  33  47  73 112 155 193 228 281 361
#     4  10  21  33  55  82 121 160 191 236 309 363
#     4  10  20  32  56  82 119 149 193 244 301 357
#
# _framework density 23.750627000000001
#
# number of rings (size 3 to 8) (size 9 to 14) (size 15 to 20)
#    0.000    2.333    1.667    0.500   14.000    0.000 
#    3.000    0.000    0.000    0.000    0.000   10.500 
#    0.000    0.000    0.000    0.000    0.000    0.000 
#
# Total GULP energy -133906.884340 kJ/mol
# GULP energy per Si atom -5579.453514 kJ/mol
# Density = 2.369657 g / cm^3
# Si number density = 23.750627 Si / 1000 Ang^3
#
#
#
# Elastic Constant Matrix: (Units=GPa)
#
#
# Indices 1 2 3 4 5 6 
#
# 1 33.6315 -6.8013 4.8719 0.0000 1.6744 0.0000
# 2 -6.8013 92.5423 39.9677 0.0000 15.6224 0.0000
# 3 4.8719 39.9677 123.9264 0.0001 17.4930 0.0000
# 4 0.0000 0.0000 0.0001 38.1441 0.0001 10.8776
# 5 1.6744 15.6224 17.4930 0.0001 23.4564 0.0000
# 6 0.0000 0.0000 0.0000 10.8776 0.0000 26.3349
#
#
#
# Elastic Compliance Matrix: (Units=1/GPa)
#
#
# Indices 1 2 3 4 5 6 
#
# 1 0.030912 0.003649 -0.001942 0.000000 -0.003189 0.000000
# 2 0.003649 0.013781 -0.003639 0.000000 -0.006725 0.000000
# 3 -0.001942 -0.003639 0.010011 0.000000 -0.004904 0.000000
# 4 0.000000 0.000000 0.000000 0.029717 0.000000 -0.012274
# 5 -0.003189 -0.006725 -0.004904 0.000000 0.050996 0.000000
# 6 0.000000 0.000000 0.000000 -0.012274 0.000000 0.043042
#
#
# Mechanical properties :
#
#
# Convention : Reuss Voigt Hill
#
# Bulk Modulus (GPa) = 19.66928 36.24187 27.95557
# Shear Modulus (GPa) = 25.09161 31.72457 28.40809
#
# Velocity S-wave (km/s) = 3.25385 3.65874 3.46222
# Velocity P-wave (km/s) = 4.73458 5.75682 5.27054
#
# Compressibility (1/GPa) = 0.05084070
#
# Stress axis : x y z
#
# Youngs Moduli (GPa) = 32.34992 72.56475 99.88622
#
# Poissons Ratio (x) = -0.26478 0.19397
# Poissons Ratio (y) = -0.11804 0.36345
# Poissons Ratio (z) = 0.06282 0.26403
#
# Static dielectric constant tensor:
#      x y z
#    x 1.933700 0.000000 0.033310 
#    y 0.000000 1.979000 0.000000 
#    z 0.033310 0.000000 2.028190 
# 
# From -- ./inp_files/252498.got.cif
#   From: 2010.05.17/outbox.cif.g08.bks.cpg/sg15_127_cif.got.tgz:252498.got - 2010.06.03 18:47:42.
