data_PCOD9268211
_publ_section_title
;
Structure prediction by ZEFSAII (Michael W. Deem and Ramdas Pophale) SiO2 
 PCOD9268211
Probable space group: C 2/C
;
_chemical_formula_sum "Si O2"
_cell_formula_units_Z 48
_cell_length_a 7.426342
_cell_length_b 33.705887
_cell_length_c 13.679800
_cell_angle_alpha 90.000000
_cell_angle_beta 140.403361
_cell_angle_gamma 90.000000
_cell_volume 2182.519142
_symmetry_space_group_name_H-M "C 2/C"
_symmetry_group_IT_number 15
_symmetry_cell_setting 'monoclinic'
loop_
_space_group_symop_operation_xyz
x,y,z
-x,y,1/2-z
-x,-y,-z
x,-y,1/2+z
1/2+x,1/2+y,z
1/2-x,1/2+y,1/2-z
1/2-x,1/2-y,-z
1/2+x,1/2-y,1/2+z
loop_
_atom_site_type_symbol
_atom_site_label
_atom_site_fract_x
_atom_site_fract_y
_atom_site_fract_z
Si Si1 0.505994 0.217878 0.599460
Si Si2 0.325051 0.975909 0.510055
Si Si3 0.058298 0.900564 0.472372
Si Si4 0.500000 0.149450 0.750000
Si Si5 0.415067 0.452943 0.827156
Si Si6 0.787027 0.285877 0.811727
Si Si7 0.000000 0.345135 0.750000
O O1 0.250000 0.250000 0.500000
O O2 0.438285 0.178886 0.633244
O O3 0.760464 0.241534 0.757506
O O4 0.531461 0.210210 0.494921
O O5 0.585541 0.963689 0.687080
O O6 0.148174 0.934630 0.432170
O O7 0.500000 0.000000 0.500000
O O8 0.090114 0.008590 0.433263
O O9 0.768392 0.877345 0.332789
O O10 0.024322 0.920633 0.565510
O O11 0.318959 0.871049 0.599007
O O12 0.500000 0.442209 0.750000
O O13 0.500000 0.295054 0.750000
O O14 0.806412 0.316305 0.732215
#
# Coordination Sequence:
#
# PCOD9268211 Si02
#       7
#     8   8   8   4   8   8   4
#     4  10  19  44  72 102 140 197 249 290 366 453
#     4  10  22  44  69  99 134 186 239 284 353 446
#     4  12  25  44  65 104 149 179 239 309 376 424
#     4  12  26  42  75 110 148 194 244 316 379 428
#     4  10  22  42  73  99 135 188 241 287 363 446
#     4  10  22  42  74  98 143 196 245 296 366 449
#     4  12  26  44  71 110 148 188 242 306 377 442
#
# _framework density 21.992934999999999
#
# number of rings (size 3 to 8) (size 9 to 14) (size 15 to 20)
#    0.000    1.333    4.167    2.500    2.333    2.667 
#    0.000    0.000    0.000    0.000    0.000    0.000 
#    0.000    0.000    0.000    0.000    0.000    0.000 
#
# Total GULP energy -133833.977809 kJ/mol
# GULP energy per Si atom -5576.415742 kJ/mol
# Density = 2.194288 g / cm^3
# Si number density = 21.992935 Si / 1000 Ang^3
#
#
#
# Elastic Constant Matrix: (Units=GPa)
#
#
# Indices 1 2 3 4 5 6 
#
# 1 65.1508 56.5415 29.2735 0.0000 -6.9248 0.0000
# 2 56.5415 109.3667 26.5485 0.0000 6.2669 0.0000
# 3 29.2735 26.5485 76.6318 0.0000 2.4771 0.0000
# 4 0.0000 0.0000 0.0000 49.0978 0.0000 14.2539
# 5 -6.9248 6.2669 2.4771 0.0000 47.6748 0.0000
# 6 0.0000 0.0000 0.0000 14.2539 0.0000 34.4177
#
#
#
# Elastic Compliance Matrix: (Units=1/GPa)
#
#
# Indices 1 2 3 4 5 6 
#
# 1 0.033114 -0.015731 -0.007434 0.000000 0.007264 0.000000
# 2 -0.015731 0.017518 0.000089 0.000000 -0.004592 0.000000
# 3 -0.007434 0.000089 0.015921 0.000000 -0.001919 0.000000
# 4 0.000000 0.000000 0.000000 0.023151 0.000000 -0.009588
# 5 0.007264 -0.004592 -0.001919 0.000000 0.022734 0.000000
# 6 0.000000 0.000000 0.000000 -0.009588 0.000000 0.033026
#
#
# Mechanical properties :
#
#
# Convention : Reuss Voigt Hill
#
# Bulk Modulus (GPa) = 49.02210 52.87515 50.94862
# Shear Modulus (GPa) = 25.19961 35.49044 30.34502
#
# Velocity S-wave (km/s) = 3.38865 4.02147 3.71855
# Velocity P-wave (km/s) = 6.13587 6.75700 6.45391
#
# Compressibility (1/GPa) = 0.02039896
#
# Stress axis : x y z
#
# Youngs Moduli (GPa) = 30.19894 57.08443 62.81145
#
# Poissons Ratio (x) = 0.89800 0.46697
# Poissons Ratio (y) = 0.47506 -0.00558
# Poissons Ratio (z) = 0.22451 -0.00507
#
# Static dielectric constant tensor:
#      x y z
#    x 1.875700 0.000000 -0.010750 
#    y 0.000000 1.816500 0.000000 
#    z -0.010750 0.000000 1.929400 
# 
# From -- ./inp_files/139653.got.cif
#   From: 2010.05.17/outbox.cif.g08.bks.cpg/sg15_70_cif.got.tgz:139653.got - 2010.06.03 18:47:42.
