data_PCOD9268106
_publ_section_title
;
Structure prediction by ZEFSAII (Michael W. Deem and Ramdas Pophale) SiO2 
 PCOD9268106
Probable space group: C 2/C
;
_chemical_formula_sum "Si O2"
_cell_formula_units_Z 56
_cell_length_a 23.675959
_cell_length_b 7.695574
_cell_length_c 14.189647
_cell_angle_alpha 90.000000
_cell_angle_beta 86.366513
_cell_angle_gamma 90.000000
_cell_volume 2580.158098
_symmetry_space_group_name_H-M "C 2/C"
_symmetry_group_IT_number 15
_symmetry_cell_setting 'monoclinic'
loop_
_space_group_symop_operation_xyz
x,y,z
-x,y,1/2-z
-x,-y,-z
x,-y,1/2+z
1/2+x,1/2+y,z
1/2-x,1/2+y,1/2-z
1/2-x,1/2-y,-z
1/2+x,1/2-y,1/2+z
loop_
_atom_site_type_symbol
_atom_site_label
_atom_site_fract_x
_atom_site_fract_y
_atom_site_fract_z
Si Si1 0.088890 0.102519 0.949689
Si Si2 0.859438 0.337886 0.389217
Si Si3 0.313660 0.361851 0.193298
Si Si4 0.740693 0.061529 0.046877
Si Si5 0.731645 0.413153 0.650773
Si Si6 0.974180 0.528992 0.848064
Si Si7 0.965261 0.250229 0.004391
O O1 0.121962 0.124317 0.847897
O O2 0.024651 0.171126 0.959621
O O3 0.122902 0.218728 0.022529
O O4 0.081045 0.900012 0.977841
O O5 0.823839 0.508015 0.423049
O O6 0.815725 0.232683 0.329894
O O7 0.917618 0.367108 0.329017
O O8 0.280058 0.501198 0.129752
O O9 0.293982 0.417656 0.298530
O O10 0.289949 0.167972 0.181337
O O11 0.750000 0.250000 0.000000
O O12 0.759566 0.936777 0.960084
O O13 0.951807 0.393041 0.927671
O O14 0.000000 0.454580 0.750000
O O15 0.018263 0.651848 0.900077
#
# Coordination Sequence:
#
# PCOD9268106 Si02
#       7
#     8   8   8   8   8   8   8
#     4  10  19  42  65  84 120 165 197 254 301 355
#     4  10  21  40  65  85 123 160 200 250 302 355
#     4  11  22  39  61  87 125 159 197 250 299 358
#     4  11  22  40  61  90 122 161 196 250 302 366
#     4  11  22  41  57  93 122 157 205 247 294 370
#     4  10  22  42  60  92 123 153 197 259 300 370
#     4   9  22  41  62  89 119 156 206 244 309 363
#
# _framework density 21.704096
#
# number of rings (size 3 to 8) (size 9 to 14) (size 15 to 20)
#    0.000    1.714    2.857    1.714    4.000    0.000 
#   10.286    1.429    0.000    0.000    0.000    0.000 
#    0.000    0.000    0.000    0.000    0.000    0.000 
#
# Total GULP energy -156206.948514 kJ/mol
# GULP energy per Si atom -5578.819590 kJ/mol
# Density = 2.165470 g / cm^3
# Si number density = 21.704096 Si / 1000 Ang^3
#
#
#
# Elastic Constant Matrix: (Units=GPa)
#
#
# Indices 1 2 3 4 5 6 
#
# 1 53.1801 0.7447 12.8230 0.0000 -13.0300 0.0000
# 2 0.7447 50.5342 -19.9362 0.0000 -0.3081 0.0000
# 3 12.8230 -19.9362 61.0627 0.0000 -15.0552 0.0000
# 4 0.0000 0.0000 0.0000 25.8115 0.0000 -9.6591
# 5 -13.0300 -0.3081 -15.0552 0.0000 15.6750 0.0000
# 6 0.0000 0.0000 0.0000 -9.6591 0.0000 26.2267
#
#
#
# Elastic Compliance Matrix: (Units=1/GPa)
#
#
# Indices 1 2 3 4 5 6 
#
# 1 0.023620 -0.000352 -0.000309 0.000000 0.019330 0.000000
# 2 -0.000352 0.023960 0.010404 0.000000 0.010171 0.000000
# 3 -0.000309 0.010404 0.025977 0.000000 0.024897 0.000000
# 4 0.000000 0.000000 0.000000 0.044935 0.000000 0.016549
# 5 0.019330 0.010171 0.024897 0.000000 0.103977 0.000000
# 6 0.000000 0.000000 0.000000 0.016549 0.000000 0.044224
#
#
# Mechanical properties :
#
#
# Convention : Reuss Voigt Hill
#
# Bulk Modulus (GPa) = 10.74763 16.89331 13.82047
# Shear Modulus (GPa) = 17.97125 24.95236 21.46180
#
# Velocity S-wave (km/s) = 2.88064 3.39434 3.14799
# Velocity P-wave (km/s) = 4.00334 4.81274 4.42658
#
# Compressibility (1/GPa) = 0.09304375
#
# Stress axis : x y z
#
# Youngs Moduli (GPa) = 42.33740 41.73550 38.49565
#
# Poissons Ratio (x) = 0.01470 0.01190
# Poissons Ratio (y) = 0.01491 -0.40053
# Poissons Ratio (z) = 0.01308 -0.43424
#
# Static dielectric constant tensor:
#      x y z
#    x 1.818710 0.000000 0.009490 
#    y 0.000000 1.881420 0.000000 
#    z 0.009490 0.000000 1.762800 
# 
# From -- ./inp_files/171826.got.cif
#   From: 2010.05.17/outbox.cif.g08.bks.cpg/sg15_86_cif.got.tgz:171826.got - 2010.06.03 18:47:42.
