data_PCOD9268116
_publ_section_title
;
Structure prediction by ZEFSAII (Michael W. Deem and Ramdas Pophale) SiO2 
 PCOD9268116
Probable space group: C 2/C
;
_chemical_formula_sum "Si O2"
_cell_formula_units_Z 48
_cell_length_a 9.196763
_cell_length_b 11.074923
_cell_length_c 22.506212
_cell_angle_alpha 90.000000
_cell_angle_beta 105.366432
_cell_angle_gamma 90.000000
_cell_volume 2210.386060
_symmetry_space_group_name_H-M "C 2/C"
_symmetry_group_IT_number 15
_symmetry_cell_setting 'monoclinic'
loop_
_space_group_symop_operation_xyz
x,y,z
-x,y,1/2-z
-x,-y,-z
x,-y,1/2+z
1/2+x,1/2+y,z
1/2-x,1/2+y,1/2-z
1/2-x,1/2-y,-z
1/2+x,1/2-y,1/2+z
loop_
_atom_site_type_symbol
_atom_site_label
_atom_site_fract_x
_atom_site_fract_y
_atom_site_fract_z
Si Si1 0.511943 0.104455 0.823126
Si Si2 0.106915 0.907788 0.932949
Si Si3 0.888363 0.157631 0.513157
Si Si4 0.375214 0.131618 0.282488
Si Si5 0.307165 0.717475 0.887599
Si Si6 0.075537 0.872008 0.693789
O O1 0.500000 0.100696 0.750000
O O2 0.679252 0.114360 0.868437
O O3 0.432457 0.232265 0.829298
O O4 0.433232 0.978685 0.829651
O O5 0.234531 0.814941 0.925349
O O6 0.021472 0.946260 0.863325
O O7 0.166296 0.023356 0.974913
O O8 0.976930 0.849729 0.960202
O O9 0.750000 0.250000 0.500000
O O10 0.025821 0.187965 0.572930
O O11 0.500000 0.178335 0.250000
O O12 0.313682 0.229304 0.321673
O O13 0.243454 0.087364 0.224470
O O14 0.000000 0.876305 0.750000
#
# Coordination Sequence:
#
# PCOD9268116 Si02
#       6
#     8   8   8   8   8   8
#     4   9  19  38  62  90 134 169 204 257 328 389
#     4  10  24  45  68  91 136 174 210 272 327 385
#     4  11  27  44  68  98 124 173 233 269 310 381
#     4  11  23  35  65 103 129 171 217 266 326 399
#     4  11  23  46  65  95 135 176 213 266 331 387
#     4  10  19  42  65  95 136 167 210 264 337 391
#
# _framework density 21.715665000000001
#
# number of rings (size 3 to 8) (size 9 to 14) (size 15 to 20)
#    0.000    1.667    5.000    0.500    7.000    4.667 
#    0.000    1.667    0.000    0.000    0.000    0.000 
#    0.000    0.000    0.000    0.000    0.000    0.000 
#
# Total GULP energy -133923.412716 kJ/mol
# GULP energy per Si atom -5580.142196 kJ/mol
# Density = 2.166624 g / cm^3
# Si number density = 21.715665 Si / 1000 Ang^3
#
#
#
# Elastic Constant Matrix: (Units=GPa)
#
#
# Indices 1 2 3 4 5 6 
#
# 1 89.2302 25.7211 8.8153 0.0000 18.9409 0.0000
# 2 25.7211 35.5854 7.7904 0.0000 -1.6325 0.0000
# 3 8.8153 7.7904 67.3077 0.0000 4.4105 0.0000
# 4 0.0000 0.0000 0.0000 5.3288 0.0000 -38.5707
# 5 18.9409 -1.6325 4.4105 0.0000 47.9471 0.0000
# 6 0.0000 0.0000 0.0000 -38.5707 0.0000 -210.4257
#
#
#
# Elastic Compliance Matrix: (Units=1/GPa)
#
#
# Indices 1 2 3 4 5 6 
#
# 1 0.016087 -0.011873 -0.000292 0.000000 -0.006733 0.000000
# 2 -0.011873 0.037675 -0.003216 0.000000 0.006269 0.000000
# 3 -0.000292 -0.003216 0.015360 0.000000 -0.001407 0.000000
# 4 0.000000 0.000000 0.000000 0.080653 0.000000 -0.014784
# 5 -0.006733 0.006269 -0.001407 0.000000 0.023859 0.000000
# 6 0.000000 0.000000 0.000000 -0.014784 0.000000 -0.002042
#
#
# Mechanical properties :
#
#
# Convention : Reuss Voigt Hill
#
# Bulk Modulus (GPa) = 26.06871 30.75301 28.41086
# Shear Modulus (GPa) = 23.24066 -21.44352 0.89857
#
# Velocity S-wave (km/s) = 3.27498 -3.14581 0.64396
# Velocity P-wave (km/s) = 5.13140 0.99880 3.69654
#
# Compressibility (1/GPa) = 0.03836017
#
# Stress axis : x y z
#
# Youngs Moduli (GPa) = 62.16070 26.54291 65.10490
#
# Poissons Ratio (x) = 0.31514 0.01898
# Poissons Ratio (y) = 0.73803 0.20940
# Poissons Ratio (z) = 0.01813 0.08537
#
# Static dielectric constant tensor:
#      x y z
#    x 2.029130 0.000000 0.099880 
#    y 0.000000 1.867110 0.000000 
#    z 0.099880 0.000000 1.841050 
# 
# From -- ./inp_files/263261.got.cif
#   From: 2010.05.17/outbox.cif.g08.bks.cpg/sg15_132_cif.got.tgz:263261.got - 2010.06.03 18:47:42.
