data_PCOD9268936
_publ_section_title
;
Structure prediction by ZEFSAII (Michael W. Deem and Ramdas Pophale) SiO2 
 PCOD9268936
Probable space group: C 2/C
;
_chemical_formula_sum "Si O2"
_cell_formula_units_Z 56
_cell_length_a 16.261826
_cell_length_b 7.161259
_cell_length_c 33.132647
_cell_angle_alpha 90.000000
_cell_angle_beta 138.313112
_cell_angle_gamma 90.000000
_cell_volume 2566.110223
_symmetry_space_group_name_H-M "C 2/C"
_symmetry_group_IT_number 15
_symmetry_cell_setting 'monoclinic'
loop_
_space_group_symop_operation_xyz
x,y,z
-x,y,1/2-z
-x,-y,-z
x,-y,1/2+z
1/2+x,1/2+y,z
1/2-x,1/2+y,1/2-z
1/2-x,1/2-y,-z
1/2+x,1/2-y,1/2+z
loop_
_atom_site_type_symbol
_atom_site_label
_atom_site_fract_x
_atom_site_fract_y
_atom_site_fract_z
Si Si1 0.505329 0.305059 0.449884
Si Si2 0.541580 0.053348 0.309163
Si Si3 0.428799 0.483305 0.340561
Si Si4 0.678499 0.413844 0.578602
Si Si5 0.669138 0.036064 0.624282
Si Si6 0.572873 0.495537 0.816256
Si Si7 0.180351 0.422815 0.718994
O O1 0.500841 0.429040 0.407529
O O2 0.634566 0.320732 0.520552
O O3 0.407012 0.411470 0.442133
O O4 0.451963 0.095656 0.424524
O O5 0.500000 0.989347 0.250000
O O6 0.682382 0.010312 0.371121
O O7 0.549777 0.280097 0.309811
O O8 0.435980 0.986599 0.300935
O O9 0.517386 0.565549 0.338592
O O10 0.299559 0.593847 0.291426
O O11 0.370029 0.282970 0.307758
O O12 0.657264 0.249131 0.604243
O O13 0.783369 0.961074 0.639241
O O14 0.708409 0.010179 0.685472
O O15 0.500000 0.428454 0.750000
#
# Coordination Sequence:
#
# PCOD9268936 Si02
#       7
#     8   8   8   8   8   8   8
#     4  10  22  38  57  86 112 152 198 228 284 357
#     4   9  18  33  57  84 111 149 192 236 295 345
#     4  10  20  34  55  88 117 147 192 240 290 343
#     4  10  21  40  61  77 117 156 184 239 292 336
#     4  10  20  37  58  84 112 150 196 237 282 341
#     4   9  16  32  55  81 114 151 187 236 293 339
#     4  10  20  33  56  87 113 147 195 239 288 351
#
# _framework density 21.822911999999999
#
# number of rings (size 3 to 8) (size 9 to 14) (size 15 to 20)
#    0.000    2.286    1.429    1.286    4.000    0.000 
#    2.571   13.571    0.000    3.429    0.000    0.000 
#    0.000    0.000    0.000    0.000    0.000    0.000 
#
# Total GULP energy -156124.989253 kJ/mol
# GULP energy per Si atom -5575.892473 kJ/mol
# Density = 2.177324 g / cm^3
# Si number density = 21.822912 Si / 1000 Ang^3
#
#
#
# Elastic Constant Matrix: (Units=GPa)
#
#
# Indices 1 2 3 4 5 6 
#
# 1 116.6293 9.1744 45.8976 0.0000 0.3248 0.0002
# 2 9.1744 60.0843 -4.8181 -0.0001 -5.8852 0.0005
# 3 45.8976 -4.8181 120.9919 0.0000 -7.0475 -0.0001
# 4 0.0000 -0.0001 0.0000 35.0485 0.0000 -7.2703
# 5 0.3248 -5.8852 -7.0475 0.0000 29.6780 0.0000
# 6 0.0002 0.0005 -0.0001 -7.2703 0.0000 30.1311
#
#
#
# Elastic Compliance Matrix: (Units=1/GPa)
#
#
# Indices 1 2 3 4 5 6 
#
# 1 0.010352 -0.002055 -0.004096 0.000000 -0.001493 0.000000
# 2 -0.002055 0.017475 0.001702 0.000000 0.003892 0.000000
# 3 -0.004096 0.001702 0.010048 0.000000 0.002768 0.000000
# 4 0.000000 0.000000 0.000000 0.030035 0.000000 0.007247
# 5 -0.001493 0.003892 0.002768 0.000000 0.035141 0.000000
# 6 0.000000 0.000000 0.000000 0.007247 0.000000 0.034937
#
#
# Mechanical properties :
#
#
# Convention : Reuss Voigt Hill
#
# Bulk Modulus (GPa) = 34.51041 44.24593 39.37817
# Shear Modulus (GPa) = 31.93993 35.46828 33.70411
#
# Velocity S-wave (km/s) = 3.82985 4.03585 3.93420
# Velocity P-wave (km/s) = 5.95022 6.48355 6.22260
#
# Compressibility (1/GPa) = 0.02897676
#
# Stress axis : x y z
#
# Youngs Moduli (GPa) = 96.60131 57.22507 99.52475
#
# Poissons Ratio (x) = 0.11762 0.40763
# Poissons Ratio (y) = 0.19855 -0.16942
# Poissons Ratio (z) = 0.39565 -0.09741
#
# Static dielectric constant tensor:
#      x y z
#    x 0.827980 0.000000 -0.760140 
#    y 0.000000 1.893140 0.000000 
#    z -0.760140 0.000000 1.242820 
# 
# From -- ./inp_files/312949.got.cif
#   From: 2010.05.17/outbox.cif.g08.bks.cpg/sg15_157_cif.got.tgz:312949.got - 2010.06.03 18:47:42.
