data_PCOD9268087
_publ_section_title
;
Structure prediction by ZEFSAII (Michael W. Deem and Ramdas Pophale) SiO2 
 PCOD9268087
Probable space group: C 2/C
;
_chemical_formula_sum "Si O2"
_cell_formula_units_Z 36
_cell_length_a 12.780367
_cell_length_b 7.956619
_cell_length_c 15.650601
_cell_angle_alpha 90.000000
_cell_angle_beta 88.052980
_cell_angle_gamma 90.000000
_cell_volume 1590.567498
_symmetry_space_group_name_H-M "C 2/C"
_symmetry_group_IT_number 15
_symmetry_cell_setting 'monoclinic'
loop_
_space_group_symop_operation_xyz
x,y,z
-x,y,1/2-z
-x,-y,-z
x,-y,1/2+z
1/2+x,1/2+y,z
1/2-x,1/2+y,1/2-z
1/2-x,1/2-y,-z
1/2+x,1/2-y,1/2+z
loop_
_atom_site_type_symbol
_atom_site_label
_atom_site_fract_x
_atom_site_fract_y
_atom_site_fract_z
Si Si1 0.107518 0.822736 0.460909
Si Si2 0.500000 0.052537 0.250000
Si Si3 0.431820 0.377487 0.323339
Si Si4 0.964772 0.633128 0.574044
Si Si5 0.745472 0.991818 0.436733
O O1 0.185320 0.973397 0.481063
O O2 0.179837 0.666349 0.429166
O O3 0.014568 0.851053 0.397484
O O4 0.046349 0.779689 0.551188
O O5 0.413536 0.190493 0.283159
O O6 0.525068 0.940924 0.331553
O O7 0.500000 0.473819 0.250000
O O8 0.325035 0.454860 0.358332
O O9 0.842330 0.651544 0.557399
O O10 0.000000 0.500000 0.500000
#
# Coordination Sequence:
#
# PCOD9268087 Si02
#       5
#     8   4   8   8   8
#     4  10  21  41  60  86 119 153 201 242 287 355
#     4  10  20  40  58  84 128 148 190 262 276 340
#     4  10  20  39  58  87 126 149 195 250 284 350
#     4  10  19  42  60  85 121 153 196 247 290 346
#     4  10  20  38  62  83 112 161 191 237 303 341
#
# _framework density 22.633431999999999
#
# number of rings (size 3 to 8) (size 9 to 14) (size 15 to 20)
#    0.667    1.333    4.444    0.667    0.000    0.889 
#   18.000    0.000    0.000    0.000    0.000    0.000 
#    0.000    0.000    0.000    0.000    0.000    0.000 
#
# Total GULP energy -100327.365085 kJ/mol
# GULP energy per Si atom -5573.742505 kJ/mol
# Density = 2.258192 g / cm^3
# Si number density = 22.633432 Si / 1000 Ang^3
#
#
#
# Elastic Constant Matrix: (Units=GPa)
#
#
# Indices 1 2 3 4 5 6 
#
# 1 155.4982 48.2640 66.4553 0.0000 -35.0182 0.0000
# 2 48.2640 88.3442 38.3166 0.0000 -7.9055 0.0000
# 3 66.4553 38.3166 134.5135 0.0000 -4.2212 0.0000
# 4 0.0000 0.0000 0.0000 15.7626 0.0000 -6.7177
# 5 -35.0182 -7.9055 -4.2212 0.0000 35.6700 0.0000
# 6 0.0000 0.0000 0.0000 -6.7177 0.0000 14.6830
#
#
#
# Elastic Compliance Matrix: (Units=1/GPa)
#
#
# Indices 1 2 3 4 5 6 
#
# 1 0.011747 -0.003566 -0.004467 0.000000 0.010213 0.000000
# 2 -0.003566 0.014212 -0.002306 0.000000 -0.000624 0.000000
# 3 -0.004467 -0.002306 0.010182 0.000000 -0.003692 0.000000
# 4 0.000000 0.000000 0.000000 0.078807 0.000000 0.036055
# 5 0.010213 -0.000624 -0.003692 0.000000 0.037486 0.000000
# 6 0.000000 0.000000 0.000000 0.036055 0.000000 0.084602
#
#
# Mechanical properties :
#
#
# Convention : Reuss Voigt Hill
#
# Bulk Modulus (GPa) = 64.67313 76.04749 70.36031
# Shear Modulus (GPa) = 19.02083 28.24445 23.63264
#
# Velocity S-wave (km/s) = 2.90209 3.53641 3.23483
# Velocity P-wave (km/s) = 6.31393 7.09560 6.71614
#
# Compressibility (1/GPa) = 0.01546237
#
# Stress axis : x y z
#
# Youngs Moduli (GPa) = 85.12810 70.36335 98.21047
#
# Poissons Ratio (x) = 0.25093 0.43872
# Poissons Ratio (y) = 0.30358 0.22648
# Poissons Ratio (z) = 0.38028 0.16226
#
# Static dielectric constant tensor:
#      x y z
#    x 1.845520 0.000000 0.002800 
#    y 0.000000 1.991050 0.000000 
#    z 0.002800 0.000000 1.867730 
# 
# From -- ./inp_files/141309.got.cif
#   From: 2010.05.17/outbox.cif.g08.bks.cpg/sg15_71_cif.got.tgz:141309.got - 2010.06.03 18:47:42.
