data_PCOD9268887
_publ_section_title
;
Structure prediction by ZEFSAII (Michael W. Deem and Ramdas Pophale) SiO2 
 PCOD9268887
Probable space group: C 2/C
;
_chemical_formula_sum "Si O2"
_cell_formula_units_Z 56
_cell_length_a 23.611017
_cell_length_b 14.400842
_cell_length_c 9.117149
_cell_angle_alpha 90.000000
_cell_angle_beta 124.402096
_cell_angle_gamma 90.000000
_cell_volume 2557.787408
_symmetry_space_group_name_H-M "C 2/C"
_symmetry_group_IT_number 15
_symmetry_cell_setting 'monoclinic'
loop_
_space_group_symop_operation_xyz
x,y,z
-x,y,1/2-z
-x,-y,-z
x,-y,1/2+z
1/2+x,1/2+y,z
1/2-x,1/2+y,1/2-z
1/2-x,1/2-y,-z
1/2+x,1/2-y,1/2+z
loop_
_atom_site_type_symbol
_atom_site_label
_atom_site_fract_x
_atom_site_fract_y
_atom_site_fract_z
Si Si1 0.549335 0.191522 0.147552
Si Si2 0.000000 0.855960 0.250000
Si Si3 0.696697 0.475990 0.455435
Si Si4 0.000000 0.475152 0.750000
Si Si5 0.610159 0.198070 0.680310
Si Si6 0.881492 0.395190 0.992950
Si Si7 0.285249 0.932897 0.313788
Si Si8 0.882947 0.093042 0.385484
O O1 0.553027 0.282962 0.252268
O O2 0.549886 0.094777 0.236781
O O3 0.471282 0.192741 0.971426
O O4 0.606281 0.184956 0.107139
O O5 0.040969 0.911604 0.433088
O O6 0.746093 0.424404 0.411352
O O7 0.736066 0.559274 0.599414
O O8 0.636767 0.517512 0.264739
O O9 0.666618 0.418384 0.546673
O O10 0.049354 0.541697 0.913852
O O11 0.622765 0.148146 0.853067
O O12 0.656940 0.143440 0.632264
O O13 0.626940 0.306284 0.700332
O O14 0.820728 0.465485 0.871416
#
# Coordination Sequence:
#
# PCOD9268887 Si02
#       8
#     8   4   8   4   8   8   8   8
#     4  10  20  33  54  95 141 160 210 256 306 384
#     4   9  22  42  68  97 116 156 208 277 330 380
#     4  10  24  46  63  88 126 165 221 271 310 365
#     4  11  18  28  54  85 136 190 198 237 308 376
#     4  11  21  37  62  94 131 172 213 256 312 377
#     4  12  20  32  57  96 140 181 202 240 311 386
#     4  11  22  38  63  94 131 177 213 243 302 388
#     4  10  24  47  70  91 120 158 209 283 329 376
#
# _framework density 21.893923000000001
#
# number of rings (size 3 to 8) (size 9 to 14) (size 15 to 20)
#    0.000    1.429    4.286    1.286    0.000    1.714 
#    5.143    0.000    0.000    0.000    0.000    0.000 
#    0.000    0.000    0.000    0.000    0.000    0.000 
#
# Total GULP energy -156422.795164 kJ/mol
# GULP energy per Si atom -5586.528399 kJ/mol
# Density = 2.184409 g / cm^3
# Si number density = 21.893923 Si / 1000 Ang^3
#
#
#
# Elastic Constant Matrix: (Units=GPa)
#
#
# Indices 1 2 3 4 5 6 
#
# 1 30.5238 0.9194 -6.9420 0.0000 -3.2628 0.0000
# 2 0.9194 30.9863 -0.5615 0.0000 11.0277 0.0000
# 3 -6.9420 -0.5615 80.5832 0.0000 8.0225 0.0000
# 4 0.0000 0.0000 0.0000 23.0685 0.0000 3.8661
# 5 -3.2628 11.0277 8.0225 0.0000 26.8368 0.0000
# 6 0.0000 0.0000 0.0000 3.8661 0.0000 0.7836
#
#
#
# Elastic Compliance Matrix: (Units=1/GPa)
#
#
# Indices 1 2 3 4 5 6 
#
# 1 0.033870 -0.002535 0.002460 0.000000 0.004424 0.000000
# 2 -0.002535 0.038264 0.001695 0.000000 -0.016538 0.000000
# 3 0.002460 0.001695 0.013062 0.000000 -0.004302 0.000000
# 4 0.000000 0.000000 0.000000 0.250437 0.000000 -1.235666
# 5 0.004424 -0.016538 -0.004302 0.000000 0.045882 0.000000
# 6 0.000000 0.000000 0.000000 -1.235666 0.000000 7.373057
#
#
# Mechanical properties :
#
#
# Convention : Reuss Voigt Hill
#
# Bulk Modulus (GPa) = 11.30782 14.32502 12.81642
# Shear Modulus (GPa) = 0.64261 20.04958 10.34610
#
# Velocity S-wave (km/s) = 0.54235 3.02944 2.17619
# Velocity P-wave (km/s) = 2.35971 4.33518 3.49013
#
# Compressibility (1/GPa) = 0.08843438
#
# Stress axis : x y z
#
# Youngs Moduli (GPa) = 29.52467 26.13424 76.56088
#
# Poissons Ratio (x) = 0.06625 -0.18831
# Poissons Ratio (y) = 0.07484 -0.12975
# Poissons Ratio (z) = -0.07262 -0.04429
#
# Static dielectric constant tensor:
#      x y z
#    x 1.815280 0.000000 0.013490 
#    y 0.000000 1.767800 0.000000 
#    z 0.013490 0.000000 1.848450 
# 
# From -- ./inp_files/62037.got.cif
#   From: 2010.05.17/outbox.cif.g08.bks.cpg/sg15_32_cif.got.tgz:62037.got - 2010.06.03 18:47:42.
