data_PCOD9268487
_publ_section_title
;
Structure prediction by ZEFSAII (Michael W. Deem and Ramdas Pophale) SiO2 
 PCOD9268487
Probable space group: C 2/C
;
_chemical_formula_sum "Si O2"
_cell_formula_units_Z 52
_cell_length_a 17.223037
_cell_length_b 8.592089
_cell_length_c 13.554799
_cell_angle_alpha 90.000000
_cell_angle_beta 84.479449
_cell_angle_gamma 90.000000
_cell_volume 1996.560771
_symmetry_space_group_name_H-M "C 2/C"
_symmetry_group_IT_number 15
_symmetry_cell_setting 'monoclinic'
loop_
_space_group_symop_operation_xyz
x,y,z
-x,y,1/2-z
-x,-y,-z
x,-y,1/2+z
1/2+x,1/2+y,z
1/2-x,1/2+y,1/2-z
1/2-x,1/2-y,-z
1/2+x,1/2-y,1/2+z
loop_
_atom_site_type_symbol
_atom_site_label
_atom_site_fract_x
_atom_site_fract_y
_atom_site_fract_z
Si Si1 0.073888 0.821466 0.521755
Si Si2 0.338613 0.281805 0.756981
Si Si3 0.500000 0.599508 0.250000
Si Si4 0.106101 0.846412 0.963241
Si Si5 0.074919 0.781661 0.285294
Si Si6 0.406185 0.989993 0.999292
Si Si7 0.304061 0.042960 0.204732
O O1 0.065025 0.798295 0.404177
O O2 0.113541 0.657802 0.545876
O O3 0.984230 0.847997 0.571230
O O4 0.113492 0.991441 0.519856
O O5 0.428666 0.279059 0.776825
O O6 0.339872 0.332440 0.639606
O O7 0.279639 0.397651 0.817526
O O8 0.302029 0.110489 0.769277
O O9 0.566207 0.456757 0.248812
O O10 0.110988 0.689513 0.027875
O O11 0.152220 0.688853 0.251512
O O12 0.000000 0.693185 0.250000
O O13 0.361125 0.998337 0.108352
O O14 0.500000 0.000000 0.000000
#
# Coordination Sequence:
#
# PCOD9268487 Si02
#       7
#     8   8   4   8   8   8   8
#     4   9  15  28  50  73  98 135 175 218 260 307
#     4  11  21  34  51  83 109 141 181 222 273 324
#     4  10  20  32  52  74 116 138 174 224 272 326
#     4   9  16  28  48  74 100 132 178 218 253 321
#     4   9  18  33  52  76 105 135 176 217 274 309
#     4   8  16  29  47  76  99 129 175 222 260 309
#     4  10  21  33  55  78 111 140 180 226 267 321
#
# _framework density 26.044786999999999
#
# number of rings (size 3 to 8) (size 9 to 14) (size 15 to 20)
#    0.462    2.154    1.538    0.923    3.231    0.000 
#    0.000    0.000    0.000    0.923    4.000   18.308 
#    0.000    0.000    0.000    0.000    0.000    0.000 
#
# Total GULP energy -144742.611565 kJ/mol
# GULP energy per Si atom -5567.023522 kJ/mol
# Density = 2.598551 g / cm^3
# Si number density = 26.044787 Si / 1000 Ang^3
#
#
#
# Elastic Constant Matrix: (Units=GPa)
#
#
# Indices 1 2 3 4 5 6 
#
# 1 115.4073 36.6490 18.9586 0.0000 -3.5737 0.0000
# 2 36.6490 226.6201 13.2459 0.0000 7.4540 0.0000
# 3 18.9586 13.2459 68.2949 0.0000 0.1879 0.0000
# 4 0.0000 0.0000 0.0000 19.1879 0.0000 -21.8883
# 5 -3.5737 7.4540 0.1879 0.0000 20.2396 0.0000
# 6 0.0000 0.0000 0.0000 -21.8883 0.0000 30.8415
#
#
#
# Elastic Compliance Matrix: (Units=1/GPa)
#
#
# Indices 1 2 3 4 5 6 
#
# 1 0.009599 -0.001488 -0.002382 0.000000 0.002265 0.000000
# 2 -0.001488 0.004749 -0.000503 0.000000 -0.002007 0.000000
# 3 -0.002382 -0.000503 0.015402 0.000000 -0.000379 0.000000
# 4 0.000000 0.000000 0.000000 0.273701 0.000000 0.194247
# 5 0.002265 -0.002007 -0.000379 0.000000 0.050551 0.000000
# 6 0.000000 0.000000 0.000000 0.194247 0.000000 0.170281
#
#
# Mechanical properties :
#
#
# Convention : Reuss Voigt Hill
#
# Bulk Modulus (GPa) = 47.60814 60.89213 54.25013
# Shear Modulus (GPa) = 9.25876 36.81839 23.03857
#
# Velocity S-wave (km/s) = 1.88750 3.76394 2.97741
# Velocity P-wave (km/s) = 4.80304 6.50540 5.71793
#
# Compressibility (1/GPa) = 0.02100481
#
# Stress axis : x y z
#
# Youngs Moduli (GPa) = 104.17908 210.58732 64.92563
#
# Poissons Ratio (x) = 0.31326 0.15468
# Poissons Ratio (y) = 0.15497 0.03263
# Poissons Ratio (z) = 0.24819 0.10583
#
# Static dielectric constant tensor:
#      x y z
#    x 2.134960 0.000000 0.076900 
#    y 0.000000 2.217500 0.000000 
#    z 0.076900 0.000000 2.014340 
# 
# From -- ./inp_files/246893.got.cif
#   From: 2010.05.17/outbox.cif.g08.bks.cpg/sg15_124_cif.got.tgz:246893.got - 2010.06.03 18:47:42.
