data_PCOD9268830
_publ_section_title
;
Structure prediction by ZEFSAII (Michael W. Deem and Ramdas Pophale) SiO2 
 PCOD9268830
Probable space group: C 2/C
;
_chemical_formula_sum "Si O2"
_cell_formula_units_Z 48
_cell_length_a 24.656142
_cell_length_b 12.762284
_cell_length_c 12.284584
_cell_angle_alpha 90.000000
_cell_angle_beta 149.137012
_cell_angle_gamma 90.000000
_cell_volume 1982.988589
_symmetry_space_group_name_H-M "C 2/C"
_symmetry_group_IT_number 15
_symmetry_cell_setting 'monoclinic'
loop_
_space_group_symop_operation_xyz
x,y,z
-x,y,1/2-z
-x,-y,-z
x,-y,1/2+z
1/2+x,1/2+y,z
1/2-x,1/2+y,1/2-z
1/2-x,1/2-y,-z
1/2+x,1/2-y,1/2+z
loop_
_atom_site_type_symbol
_atom_site_label
_atom_site_fract_x
_atom_site_fract_y
_atom_site_fract_z
Si Si1 0.454831 0.260642 0.795897
Si Si2 0.205193 0.121126 0.213972
Si Si3 0.720623 0.936578 0.885752
Si Si4 0.628080 0.584474 0.653786
Si Si5 0.416839 0.966751 0.199961
Si Si6 0.255430 0.162551 0.667104
O O1 0.500000 0.260747 0.750000
O O2 0.459610 0.138057 0.833895
O O3 0.337357 0.303549 0.575593
O O4 0.525132 0.343924 0.980300
O O5 0.308151 0.077501 0.457342
O O6 0.172122 0.235611 0.197162
O O7 0.249952 0.130835 0.168327
O O8 0.118129 0.031300 0.082763
O O9 0.618034 0.935173 0.786629
O O10 0.705628 0.052325 0.808775
O O11 0.818257 0.926949 0.136832
O O12 0.705687 0.640061 0.699992
O O13 0.500000 0.995308 0.250000
#
# Coordination Sequence:
#
# PCOD9268830 Si02
#       6
#     8   8   8   8   8   8
#     4   8  15  30  51  74 108 149 184 223 272 330
#     4   9  19  34  54  80 112 151 191 232 282 343
#     4  10  20  33  53  82 112 147 190 238 286 332
#     4   9  18  32  52  81 110 141 191 238 277 331
#     4   9  18  33  53  78 108 148 193 231 274 334
#     4   9  18  34  52  75 113 154 189 227 280 347
#
# _framework density 24.205887000000001
#
# number of rings (size 3 to 8) (size 9 to 14) (size 15 to 20)
#    0.000    3.000    0.000    1.000    0.000    8.000 
#    0.000    0.000    0.000    0.000    0.000   18.667 
#    0.000    0.000    0.000    0.000    0.000    0.000 
#
# Total GULP energy -134007.943237 kJ/mol
# GULP energy per Si atom -5583.664302 kJ/mol
# Density = 2.415079 g / cm^3
# Si number density = 24.205887 Si / 1000 Ang^3
#
#
#
# Elastic Constant Matrix: (Units=GPa)
#
#
# Indices 1 2 3 4 5 6 
#
# 1 82.1169 23.6331 19.1506 0.0000 -13.0250 0.0000
# 2 23.6331 86.7944 40.0883 0.0000 -11.3254 0.0000
# 3 19.1506 40.0883 43.9630 0.0000 -16.6830 0.0000
# 4 0.0000 0.0000 0.0000 36.2793 0.0000 4.0446
# 5 -13.0250 -11.3254 -16.6830 0.0000 31.1205 0.0000
# 6 0.0000 0.0000 0.0000 4.0446 0.0000 18.0653
#
#
#
# Elastic Compliance Matrix: (Units=1/GPa)
#
#
# Indices 1 2 3 4 5 6 
#
# 1 0.014000 -0.001995 -0.002926 0.000000 0.003565 0.000000
# 2 -0.001995 0.020434 -0.019155 0.000000 -0.003668 0.000000
# 3 -0.002926 -0.019155 0.048179 0.000000 0.017632 0.000000
# 4 0.000000 0.000000 0.000000 0.028270 0.000000 -0.006329
# 5 0.003565 -0.003668 0.017632 0.000000 0.041742 0.000000
# 6 0.000000 0.000000 0.000000 -0.006329 0.000000 0.056772
#
#
# Mechanical properties :
#
#
# Convention : Reuss Voigt Hill
#
# Bulk Modulus (GPa) = 29.02020 42.06869 35.54445
# Shear Modulus (GPa) = 18.58485 25.75985 22.17235
#
# Velocity S-wave (km/s) = 2.77389 3.26574 3.02982
# Velocity P-wave (km/s) = 4.71956 5.62471 5.19190
#
# Compressibility (1/GPa) = 0.03445876
#
# Stress axis : x y z
#
# Youngs Moduli (GPa) = 71.42942 48.93904 20.75584
#
# Poissons Ratio (x) = 0.09765 0.06074
# Poissons Ratio (y) = 0.14252 0.39758
# Poissons Ratio (z) = 0.20903 0.93744
#
# Static dielectric constant tensor:
#      x y z
#    x 2.034680 0.000000 0.009400 
#    y 0.000000 1.946070 0.000000 
#    z 0.009400 0.000000 1.944320 
# 
# From -- ./inp_files/123596.got.cif
#   From: 2010.05.17/outbox.cif.g08.bks.cpg/sg15_62_cif.got.tgz:123596.got - 2010.06.03 18:47:42.
