data_PCOD9268195
_publ_section_title
;
Structure prediction by ZEFSAII (Michael W. Deem and Ramdas Pophale) SiO2 
 PCOD9268195
Probable space group: C 2/C
;
_chemical_formula_sum "Si O2"
_cell_formula_units_Z 48
_cell_length_a 8.605424
_cell_length_b 10.537626
_cell_length_c 25.049387
_cell_angle_alpha 90.000000
_cell_angle_beta 111.108865
_cell_angle_gamma 90.000000
_cell_volume 2119.074554
_symmetry_space_group_name_H-M "C 2/C"
_symmetry_group_IT_number 15
_symmetry_cell_setting 'monoclinic'
loop_
_space_group_symop_operation_xyz
x,y,z
-x,y,1/2-z
-x,-y,-z
x,-y,1/2+z
1/2+x,1/2+y,z
1/2-x,1/2+y,1/2-z
1/2-x,1/2-y,-z
1/2+x,1/2-y,1/2+z
loop_
_atom_site_type_symbol
_atom_site_label
_atom_site_fract_x
_atom_site_fract_y
_atom_site_fract_z
Si Si1 0.806295 0.038612 0.981851
Si Si2 0.848093 0.797427 0.582467
Si Si3 0.759889 0.843170 0.889982
Si Si4 0.811609 0.515546 0.721902
Si Si5 0.000067 0.167572 0.691141
Si Si6 0.650863 0.608649 0.301239
O O1 0.745513 0.168265 0.945707
O O2 0.726825 0.920419 0.940556
O O3 0.782375 0.080792 0.040298
O O4 0.000000 0.000000 0.000000
O O5 0.813854 0.820435 0.640036
O O6 0.048460 0.791866 0.593046
O O7 0.615287 0.740375 0.864145
O O8 0.734852 0.936749 0.836514
O O9 0.691432 0.637219 0.704349
O O10 0.779839 0.433353 0.771901
O O11 0.000000 0.552661 0.750000
O O12 0.000000 0.229116 0.750000
O O13 0.920690 0.028013 0.687658
O O14 0.500000 0.669637 0.250000
#
# Coordination Sequence:
#
# PCOD9268195 Si02
#       6
#     8   8   8   8   8   8
#     4   9  22  39  68 103 133 181 234 283 349 413
#     4  10  19  43  72  95 142 178 224 299 345 409
#     4  11  20  40  68  97 135 180 229 282 342 419
#     4  10  21  40  67 102 144 180 229 283 347 420
#     4   9  20  39  65  94 143 179 220 284 341 414
#     4   9  18  40  67 100 137 179 223 278 354 413
#
# _framework density 22.651396999999999
#
# number of rings (size 3 to 8) (size 9 to 14) (size 15 to 20)
#    0.000    2.667    3.333    0.500    0.000    2.667 
#    9.000    2.500    0.000    6.000    0.000    0.000 
#    0.000    0.000    0.000    0.000    0.000    0.000 
#
# Total GULP energy -133936.720706 kJ/mol
# GULP energy per Si atom -5580.696696 kJ/mol
# Density = 2.259984 g / cm^3
# Si number density = 22.651397 Si / 1000 Ang^3
#
#
#
# Elastic Constant Matrix: (Units=GPa)
#
#
# Indices 1 2 3 4 5 6 
#
# 1 119.2001 55.3692 36.6120 0.0000 16.1506 0.0000
# 2 55.3692 81.6181 45.7544 0.0000 14.4289 0.0000
# 3 36.6120 45.7544 130.0217 0.0000 7.9162 0.0000
# 4 0.0000 0.0000 0.0000 44.7266 0.0000 8.5365
# 5 16.1506 14.4289 7.9162 0.0000 32.0038 0.0000
# 6 0.0000 0.0000 0.0000 8.5365 0.0000 31.0033
#
#
#
# Elastic Compliance Matrix: (Units=1/GPa)
#
#
# Indices 1 2 3 4 5 6 
#
# 1 0.012506 -0.007629 -0.000672 0.000000 -0.002705 0.000000
# 2 -0.007629 0.020989 -0.004971 0.000000 -0.004383 0.000000
# 3 -0.000672 -0.004971 0.009617 0.000000 0.000202 0.000000
# 4 0.000000 0.000000 0.000000 0.023598 0.000000 -0.006498
# 5 -0.002705 -0.004383 0.000202 0.000000 0.034538 0.000000
# 6 0.000000 0.000000 0.000000 -0.006498 0.000000 0.034044
#
#
# Mechanical properties :
#
#
# Convention : Reuss Voigt Hill
#
# Bulk Modulus (GPa) = 60.35606 67.36791 63.86199
# Shear Modulus (GPa) = 29.87588 34.42036 32.14812
#
# Velocity S-wave (km/s) = 3.63566 3.90239 3.77139
# Velocity P-wave (km/s) = 6.65789 7.07889 6.87161
#
# Compressibility (1/GPa) = 0.01656834
#
# Stress axis : x y z
#
# Youngs Moduli (GPa) = 79.96221 47.64359 103.97909
#
# Poissons Ratio (x) = 0.36347 0.06989
# Poissons Ratio (y) = 0.61002 0.51688
# Poissons Ratio (z) = 0.05375 0.23684
#
# Static dielectric constant tensor:
#      x y z
#    x 1.891550 0.000000 0.014030 
#    y 0.000000 1.898970 0.000000 
#    z 0.014030 0.000000 1.853310 
# 
# From -- ./inp_files/263550.got.cif
#   From: 2010.05.17/outbox.cif.g08.bks.cpg/sg15_132_cif.got.tgz:263550.got - 2010.06.03 18:47:42.
