data_PCOD9268177
_publ_section_title
;
Structure prediction by ZEFSAII (Michael W. Deem and Ramdas Pophale) SiO2 
 PCOD9268177
Probable space group: C 2/C
;
_chemical_formula_sum "Si O2"
_cell_formula_units_Z 44
_cell_length_a 8.773490
_cell_length_b 18.821274
_cell_length_c 14.259430
_cell_angle_alpha 90.000000
_cell_angle_beta 113.779322
_cell_angle_gamma 90.000000
_cell_volume 2154.738710
_symmetry_space_group_name_H-M "C 2/C"
_symmetry_group_IT_number 15
_symmetry_cell_setting 'monoclinic'
loop_
_space_group_symop_operation_xyz
x,y,z
-x,y,1/2-z
-x,-y,-z
x,-y,1/2+z
1/2+x,1/2+y,z
1/2-x,1/2+y,1/2-z
1/2-x,1/2-y,-z
1/2+x,1/2-y,1/2+z
loop_
_atom_site_type_symbol
_atom_site_label
_atom_site_fract_x
_atom_site_fract_y
_atom_site_fract_z
Si Si1 0.815105 0.874358 0.250297
Si Si2 0.000000 0.875180 0.750000
Si Si3 0.285240 0.780012 0.789244
Si Si4 0.333212 0.188231 0.083517
Si Si5 0.985479 0.996237 0.886161
Si Si6 0.155569 0.554884 0.545247
O O1 0.763161 0.804188 0.291659
O O2 0.671143 0.894057 0.140117
O O3 0.000000 0.857325 0.250000
O O4 0.859013 0.942497 0.323058
O O5 0.152504 0.824768 0.813757
O O6 0.942640 0.924546 0.821724
O O7 0.470017 0.798649 0.866334
O O8 0.272272 0.800274 0.675159
O O9 0.250000 0.250000 0.000000
O O10 0.316034 0.109142 0.035080
O O11 0.173735 0.011480 0.899051
O O12 0.000000 0.000000 0.000000
O O13 0.000000 0.500000 0.500000
#
# Coordination Sequence:
#
# PCOD9268177 Si02
#       6
#     8   4   8   8   8   8
#     4  10  19  43  67  85 128 175 214 255 319 394
#     4  12  24  42  64 100 138 164 214 278 326 386
#     4  11  23  40  64  97 131 168 217 277 322 387
#     4  11  20  38  68  94 122 172 228 259 318 395
#     4  11  23  44  66  89 130 179 210 257 335 392
#     4  11  21  38  65  94 124 162 219 272 311 378
#
# _framework density 20.420109
#
# number of rings (size 3 to 8) (size 9 to 14) (size 15 to 20)
#    0.000    1.091    6.364    3.273    0.000    0.000 
#    3.273    1.818    0.000    0.000    0.000    0.000 
#    0.000    0.000    0.000    0.000    0.000    0.000 
#
# Total GULP energy -122721.619929 kJ/mol
# GULP energy per Si atom -5578.255451 kJ/mol
# Density = 2.037363 g / cm^3
# Si number density = 20.420109 Si / 1000 Ang^3
#
#
#
# Elastic Constant Matrix: (Units=GPa)
#
#
# Indices 1 2 3 4 5 6 
#
# 1 18.5669 36.9167 7.2559 0.0000 3.3795 0.0000
# 2 36.9167 139.0170 33.4892 0.0000 13.2893 0.0000
# 3 7.2559 33.4892 90.9911 0.0000 5.4765 0.0000
# 4 0.0000 0.0000 0.0000 24.9451 0.0000 17.4555
# 5 3.3795 13.2893 5.4765 0.0000 23.8570 0.0000
# 6 0.0000 0.0000 0.0000 17.4555 0.0000 26.5474
#
#
#
# Elastic Compliance Matrix: (Units=1/GPa)
#
#
# Indices 1 2 3 4 5 6 
#
# 1 0.114539 -0.031008 0.002247 0.000000 0.000532 0.000000
# 2 -0.031008 0.016640 -0.003405 0.000000 -0.004095 0.000000
# 3 0.002247 -0.003405 0.012137 0.000000 -0.001208 0.000000
# 4 0.000000 0.000000 0.000000 0.074251 0.000000 -0.048822
# 5 0.000532 -0.004095 -0.001208 0.000000 0.044399 0.000000
# 6 0.000000 0.000000 0.000000 -0.048822 0.000000 0.069770
#
#
# Mechanical properties :
#
#
# Convention : Reuss Voigt Hill
#
# Bulk Modulus (GPa) = 12.66112 44.87763 28.76937
# Shear Modulus (GPa) = 11.83723 26.46411 19.15067
#
# Velocity S-wave (km/s) = 2.41028 3.60388 3.06573
# Velocity P-wave (km/s) = 3.73627 6.27233 5.16245
#
# Compressibility (1/GPa) = 0.07898195
#
# Stress axis : x y z
#
# Youngs Moduli (GPa) = 8.73067 60.09789 82.39400
#
# Poissons Ratio (x) = 1.86355 -0.18513
# Poissons Ratio (y) = 0.27072 0.28055
# Poissons Ratio (z) = -0.01962 0.20463
#
# Static dielectric constant tensor:
#      x y z
#    x 1.750560 0.000000 -0.038370 
#    y 0.000000 1.805360 0.000000 
#    z -0.038370 0.000000 1.736000 
# 
# From -- ./inp_files/134722.got.cif
#   From: 2010.05.17/outbox.cif.g08.bks.cpg/sg15_68_cif.got.tgz:134722.got - 2010.06.03 18:47:42.
