data_PCOD9268499
_publ_section_title
;
Structure prediction by ZEFSAII (Michael W. Deem and Ramdas Pophale) SiO2 
 PCOD9268499
Probable space group: C 2/C
;
_chemical_formula_sum "Si O2"
_cell_formula_units_Z 52
_cell_length_a 17.648822
_cell_length_b 27.335087
_cell_length_c 5.692318
_cell_angle_alpha 90.000000
_cell_angle_beta 48.933086
_cell_angle_gamma 90.000000
_cell_volume 2070.445381
_symmetry_space_group_name_H-M "C 2/C"
_symmetry_group_IT_number 15
_symmetry_cell_setting 'monoclinic'
loop_
_space_group_symop_operation_xyz
x,y,z
-x,y,1/2-z
-x,-y,-z
x,-y,1/2+z
1/2+x,1/2+y,z
1/2-x,1/2+y,1/2-z
1/2-x,1/2-y,-z
1/2+x,1/2-y,1/2+z
loop_
_atom_site_type_symbol
_atom_site_label
_atom_site_fract_x
_atom_site_fract_y
_atom_site_fract_z
Si Si1 0.000000 0.689330 0.750000
Si Si2 0.886412 0.722297 0.375195
Si Si3 0.382300 0.628993 0.491496
Si Si4 0.393991 0.125880 0.585698
Si Si5 0.124933 0.985491 0.595506
Si Si6 0.623398 0.327802 0.996118
Si Si7 0.148338 0.516276 0.817322
O O1 0.082484 0.723511 0.458442
O O2 0.070312 0.652880 0.753635
O O3 0.845180 0.669195 0.528979
O O4 0.838190 0.771828 0.559376
O O5 0.000000 0.720391 0.250000
O O6 0.500000 0.643686 0.250000
O O7 0.377508 0.570708 0.479068
O O8 0.345854 0.644801 0.826118
O O9 0.342696 0.650291 0.322481
O O10 0.339999 0.074806 0.725617
O O11 0.500000 0.111832 0.250000
O O12 0.238897 0.005268 0.396417
O O13 0.084632 0.987337 0.944677
O O14 0.500000 0.327190 0.250000
O O15 0.102405 0.496947 0.666042
#
# Coordination Sequence:
#
# PCOD9268499 Si02
#       7
#     4   8   8   8   8   8   8
#     4   8  16  28  48  74 104 136 168 206 254 300
#     4   8  16  27  47  73 105 142 166 201 249 307
#     4  10  20  32  52  82 106 130 167 218 257 293
#     4   9  19  32  50  78 105 134 174 212 256 300
#     4  10  21  39  57  73 100 138 177 208 255 318
#     4   9  18  29  49  78 110 134 164 204 255 304
#     4  10  23  38  55  75  99 138 177 213 259 308
#
# _framework density 25.115369000000001
#
# number of rings (size 3 to 8) (size 9 to 14) (size 15 to 20)
#    0.000    3.077    0.000    0.923   11.846    1.231 
#    0.000    0.000    0.000    1.846    0.000    0.000 
#    0.000    0.000    0.000    0.000    0.000    0.000 
#
# Total GULP energy -145006.562795 kJ/mol
# GULP energy per Si atom -5577.175492 kJ/mol
# Density = 2.505821 g / cm^3
# Si number density = 25.115369 Si / 1000 Ang^3
#
#
#
# Elastic Constant Matrix: (Units=GPa)
#
#
# Indices 1 2 3 4 5 6 
#
# 1 107.8730 19.3082 53.0765 0.0000 32.5434 0.0000
# 2 19.3082 159.3437 37.6071 0.0000 43.4517 0.0000
# 3 53.0765 37.6071 109.3636 0.0000 35.1849 0.0000
# 4 0.0000 0.0000 0.0000 77.4593 0.0000 46.2131
# 5 32.5434 43.4517 35.1849 0.0000 43.9100 0.0000
# 6 0.0000 0.0000 0.0000 46.2131 0.0000 57.2131
#
#
#
# Elastic Compliance Matrix: (Units=1/GPa)
#
#
# Indices 1 2 3 4 5 6 
#
# 1 0.013674 0.001626 -0.004604 0.000000 -0.008054 0.000000
# 2 0.001626 0.008796 -0.000843 0.000000 -0.009233 0.000000
# 3 -0.004604 -0.000843 0.013880 0.000000 -0.006875 0.000000
# 4 0.000000 0.000000 0.000000 0.024918 0.000000 -0.020127
# 5 -0.008054 -0.009233 -0.006875 0.000000 0.043389 0.000000
# 6 0.000000 0.000000 0.000000 -0.020127 0.000000 0.033736
#
#
# Mechanical properties :
#
#
# Convention : Reuss Voigt Hill
#
# Bulk Modulus (GPa) = 34.83433 66.28488 50.55961
# Shear Modulus (GPa) = 32.13244 53.48905 42.81075
#
# Velocity S-wave (km/s) = 3.58074 4.61991 4.13312
# Velocity P-wave (km/s) = 5.56736 7.40996 6.55374
#
# Compressibility (1/GPa) = 0.02870731
#
# Stress axis : x y z
#
# Youngs Moduli (GPa) = 73.12925 113.69414 72.04424
#
# Poissons Ratio (x) = -0.18487 0.33172
# Poissons Ratio (y) = -0.11891 0.06074
# Poissons Ratio (z) = 0.33672 0.09586
#
# Static dielectric constant tensor:
#      x y z
#    x 2.100820 0.000000 0.116540 
#    y 0.000000 1.921350 0.000000 
#    z 0.116540 0.000000 2.280340 
# 
# From -- ./inp_files/14373.got.cif
#   From: 2010.05.17/outbox.cif.g08.bks.cpg/sg15_8_cif.got.tgz:14373.got - 2010.06.03 18:47:42.
