data_PCOD9268617
_publ_section_title
;
Structure prediction by ZEFSAII (Michael W. Deem and Ramdas Pophale) SiO2 
 PCOD9268617
Probable space group: C 2/C
;
_chemical_formula_sum "Si O2"
_cell_formula_units_Z 52
_cell_length_a 16.788343
_cell_length_b 11.807475
_cell_length_c 23.851139
_cell_angle_alpha 90.000000
_cell_angle_beta 31.951324
_cell_angle_gamma 90.000000
_cell_volume 2502.030994
_symmetry_space_group_name_H-M "C 2/C"
_symmetry_group_IT_number 15
_symmetry_cell_setting 'monoclinic'
loop_
_space_group_symop_operation_xyz
x,y,z
-x,y,1/2-z
-x,-y,-z
x,-y,1/2+z
1/2+x,1/2+y,z
1/2-x,1/2+y,1/2-z
1/2-x,1/2-y,-z
1/2+x,1/2-y,1/2+z
loop_
_atom_site_type_symbol
_atom_site_label
_atom_site_fract_x
_atom_site_fract_y
_atom_site_fract_z
Si Si1 0.170678 0.040192 0.904407
Si Si2 0.206661 0.372687 0.051052
Si Si3 0.188800 0.341684 0.749170
Si Si4 0.607882 0.135717 0.910206
Si Si5 0.073241 0.539440 0.048013
Si Si6 0.500000 0.759600 0.250000
Si Si7 0.779350 0.712676 0.148252
O O1 0.201317 0.080967 0.950271
O O2 0.205848 0.153594 0.848665
O O3 0.268381 0.937925 0.821146
O O4 0.000000 0.000000 0.000000
O O5 0.187881 0.469940 0.017178
O O6 0.044004 0.342615 0.173516
O O7 0.250000 0.250000 0.000000
O O8 0.266576 0.226665 0.680721
O O9 0.254972 0.350028 0.773191
O O10 0.010701 0.358180 0.869119
O O11 0.562332 0.045548 0.889931
O O12 0.441745 0.186160 0.024350
O O13 0.648088 0.076708 0.945049
O O14 0.645395 0.693056 0.184140
#
# Coordination Sequence:
#
# PCOD9268617 Si02
#       7
#     8   8   8   8   8   4   8
#     4  11  22  37  61  91 124 156 208 258 316 390
#     4  11  23  40  65  93 125 159 204 272 325 371
#     4  11  21  36  62  87 125 168 207 254 313 387
#     4  10  20  38  59  92 126 165 213 258 314 386
#     4  10  21  38  64  90 122 167 210 260 323 377
#     4  10  20  32  58  90 120 150 204 256 310 366
#     4  10  21  36  58  91 122 165 207 261 322 368
#
# _framework density 20.783114999999999
#
# number of rings (size 3 to 8) (size 9 to 14) (size 15 to 20)
#    0.000    1.538    1.538    5.538    2.154    0.000 
#    0.000    0.769    3.385    0.000    0.000    0.000 
#    0.000    0.000    0.000    0.000    0.000    0.000 
#
# Total GULP energy -144894.308018 kJ/mol
# GULP energy per Si atom -5572.858001 kJ/mol
# Density = 2.073581 g / cm^3
# Si number density = 20.783115 Si / 1000 Ang^3
#
#
#
# Elastic Constant Matrix: (Units=GPa)
#
#
# Indices 1 2 3 4 5 6 
#
# 1 129.1666 48.6203 33.3267 -0.0002 6.3865 -0.0001
# 2 48.6203 95.4236 26.2390 -0.0004 5.3137 0.0001
# 3 33.3267 26.2390 60.4837 -0.0015 7.9340 0.0001
# 4 -0.0002 -0.0004 -0.0015 35.2641 0.0002 5.3041
# 5 6.3865 5.3137 7.9340 0.0002 21.7112 0.0002
# 6 -0.0001 0.0001 0.0001 5.3041 0.0002 40.3580
#
#
#
# Elastic Compliance Matrix: (Units=1/GPa)
#
#
# Indices 1 2 3 4 5 6 
#
# 1 0.010326 -0.004184 -0.003793 0.000000 -0.000628 0.000000
# 2 -0.004184 0.013618 -0.003494 0.000000 -0.000825 0.000000
# 3 -0.003793 -0.003494 0.020881 0.000001 -0.005660 0.000000
# 4 0.000000 0.000000 0.000001 0.028929 0.000000 -0.003802
# 5 -0.000628 -0.000825 -0.005660 0.000000 0.048514 0.000000
# 6 0.000000 0.000000 0.000000 -0.003802 0.000000 0.025278
#
#
# Mechanical properties :
#
#
# Convention : Reuss Voigt Hill
#
# Bulk Modulus (GPa) = 45.69386 55.71623 50.70505
# Shear Modulus (GPa) = 28.12418 31.25919 29.69168
#
# Velocity S-wave (km/s) = 3.68261 3.88244 3.78384
# Velocity P-wave (km/s) = 6.33371 6.85306 6.59850
#
# Compressibility (1/GPa) = 0.02188478
#
# Stress axis : x y z
#
# Youngs Moduli (GPa) = 96.84018 73.43200 47.88950
#
# Poissons Ratio (x) = 0.30721 0.18162
# Poissons Ratio (y) = 0.40515 0.16734
# Poissons Ratio (z) = 0.36727 0.25659
#
# Static dielectric constant tensor:
#      x y z
#    x 1.746290 0.000000 -0.002910 
#    y 0.000000 1.813340 0.000000 
#    z -0.002910 0.000000 1.778960 
# 
# From -- ./inp_files/298854.got.cif
#   From: 2010.05.17/outbox.cif.g08.bks.cpg/sg15_150_cif.got.tgz:298854.got - 2010.06.03 18:47:42.
