data_PCOD9268591
_publ_section_title
;
Structure prediction by ZEFSAII (Michael W. Deem and Ramdas Pophale) SiO2 
 PCOD9268591
Probable space group: C 2/C
;
_chemical_formula_sum "Si O2"
_cell_formula_units_Z 56
_cell_length_a 23.519989
_cell_length_b 21.574211
_cell_length_c 10.554134
_cell_angle_alpha 90.000000
_cell_angle_beta 153.008407
_cell_angle_gamma 90.000000
_cell_volume 2430.615801
_symmetry_space_group_name_H-M "C 2/C"
_symmetry_group_IT_number 15
_symmetry_cell_setting 'monoclinic'
loop_
_space_group_symop_operation_xyz
x,y,z
-x,y,1/2-z
-x,-y,-z
x,-y,1/2+z
1/2+x,1/2+y,z
1/2-x,1/2+y,1/2-z
1/2-x,1/2-y,-z
1/2+x,1/2-y,1/2+z
loop_
_atom_site_type_symbol
_atom_site_label
_atom_site_fract_x
_atom_site_fract_y
_atom_site_fract_z
Si Si1 0.119307 0.254158 0.671961
Si Si2 0.888704 0.957901 0.220168
Si Si3 0.962516 0.631182 0.809426
Si Si4 0.454672 0.339808 0.002445
Si Si5 0.149527 0.053134 0.571422
Si Si6 0.225389 0.368095 0.377831
Si Si7 0.742766 0.763919 0.667823
O O1 0.158595 0.233699 0.610235
O O2 0.075369 0.325387 0.579229
O O3 0.017702 0.211344 0.536764
O O4 0.250000 0.250000 0.000000
O O5 0.817709 0.949191 0.213774
O O6 0.943641 0.893370 0.276600
O O7 0.834359 0.992551 0.988299
O O8 0.000000 0.000000 0.500000
O O9 0.893805 0.599930 0.791266
O O10 0.853927 0.681961 0.562601
O O11 0.000000 0.600444 0.750000
O O12 0.346916 0.375163 0.708174
O O13 0.373391 0.301827 0.946282
O O14 0.240329 0.101871 0.686411
O O15 0.000000 0.069144 0.250000
O O16 0.216499 0.294085 0.336478
#
# Coordination Sequence:
#
# PCOD9268591 Si02
#       7
#     8   8   8   8   8   8   8
#     4  11  22  35  47  80 121 149 183 226 291 358
#     4  10  20  36  55  84 121 148 192 248 295 349
#     4   9  18  33  52  77 109 140 193 236 275 342
#     4  11  19  36  56  81 119 149 191 237 290 354
#     4  10  20  34  55  88 119 148 193 243 304 349
#     4  11  17  33  60  82 106 152 195 241 282 343
#     4  10  20  32  57  80 108 154 192 231 290 350
#
# _framework density 23.039428999999998
#
# number of rings (size 3 to 8) (size 9 to 14) (size 15 to 20)
#    0.000    1.714    5.714    1.714    0.000    0.571 
#    7.714    0.000    0.000    0.000    0.000    4.000 
#    0.000    0.000    0.000    0.000    0.000    0.000 
#
# Total GULP energy -155882.456345 kJ/mol
# GULP energy per Si atom -5567.230584 kJ/mol
# Density = 2.298699 g / cm^3
# Si number density = 23.039429 Si / 1000 Ang^3
#
#
#
# Elastic Constant Matrix: (Units=GPa)
#
#
# Indices 1 2 3 4 5 6 
#
# 1 175.6417 29.7778 15.3927 0.0000 30.1635 0.0000
# 2 29.7778 71.0083 -2.0646 0.0000 0.4590 0.0000
# 3 15.3927 -2.0646 48.9407 0.0000 12.4948 0.0000
# 4 0.0000 0.0000 0.0000 10.1521 0.0000 -2.2609
# 5 30.1635 0.4590 12.4948 0.0000 21.8922 0.0000
# 6 0.0000 0.0000 0.0000 -2.2609 0.0000 41.5660
#
#
#
# Elastic Compliance Matrix: (Units=1/GPa)
#
#
# Indices 1 2 3 4 5 6 
#
# 1 0.008190 -0.003356 0.000170 0.000000 -0.011311 0.000000
# 2 -0.003356 0.015486 0.000715 0.000000 0.003892 0.000000
# 3 0.000170 0.000715 0.023965 0.000000 -0.013928 0.000000
# 4 0.000000 0.000000 0.000000 0.099710 0.000000 0.005424
# 5 -0.011311 0.003892 -0.013928 0.000000 0.069131 0.000000
# 6 0.000000 0.000000 0.000000 0.005424 0.000000 0.024353
#
#
# Mechanical properties :
#
#
# Convention : Reuss Voigt Hill
#
# Bulk Modulus (GPa) = 23.41927 42.42251 32.92089
# Shear Modulus (GPa) = 19.23002 31.55437 25.39220
#
# Velocity S-wave (km/s) = 2.89218 3.70480 3.32342
# Velocity P-wave (km/s) = 4.61951 6.06248 5.38951
#
# Compressibility (1/GPa) = 0.04269989
#
# Stress axis : x y z
#
# Youngs Moduli (GPa) = 122.09948 64.57420 41.72699
#
# Poissons Ratio (x) = 0.21674 -0.00711
# Poissons Ratio (y) = 0.40982 -0.02985
# Poissons Ratio (z) = -0.02079 -0.04620
#
# Static dielectric constant tensor:
#      x y z
#    x 1.862200 0.000000 0.055980 
#    y 0.000000 1.906330 0.000000 
#    z 0.055980 0.000000 1.926450 
# 
# From -- ./inp_files/120181.got.cif
#   From: 2010.05.17/outbox.cif.g08.bks.cpg/sg15_61_cif.got.tgz:120181.got - 2010.06.03 18:47:42.
