data_PCOD9268790
_publ_section_title
;
Structure prediction by ZEFSAII (Michael W. Deem and Ramdas Pophale) SiO2 
 PCOD9268790
Probable space group: C 2/C
;
_chemical_formula_sum "Si O2"
_cell_formula_units_Z 64
_cell_length_a 21.301814
_cell_length_b 10.044159
_cell_length_c 13.719096
_cell_angle_alpha 90.000000
_cell_angle_beta 79.673826
_cell_angle_gamma 90.000000
_cell_volume 2887.778756
_symmetry_space_group_name_H-M "C 2/C"
_symmetry_group_IT_number 15
_symmetry_cell_setting 'monoclinic'
loop_
_space_group_symop_operation_xyz
x,y,z
-x,y,1/2-z
-x,-y,-z
x,-y,1/2+z
1/2+x,1/2+y,z
1/2-x,1/2+y,1/2-z
1/2-x,1/2-y,-z
1/2+x,1/2-y,1/2+z
loop_
_atom_site_type_symbol
_atom_site_label
_atom_site_fract_x
_atom_site_fract_y
_atom_site_fract_z
Si Si1 0.393067 0.897388 0.273117
Si Si2 0.352443 0.842858 0.488757
Si Si3 0.954235 0.450797 0.598847
Si Si4 0.159373 0.940933 0.408515
Si Si5 0.759402 0.653531 0.729916
Si Si6 0.833676 0.317090 0.831342
Si Si7 0.748680 0.062918 0.988286
Si Si8 0.442127 0.663091 0.702593
O O1 0.396548 0.835358 0.379529
O O2 0.332642 0.829687 0.237155
O O3 0.448603 0.932728 0.181420
O O4 0.369251 0.046260 0.303438
O O5 0.387038 0.928800 0.562846
O O6 0.342896 0.696813 0.531751
O O7 0.287046 0.920503 0.486098
O O8 0.965815 0.303240 0.643728
O O9 0.000000 0.500000 0.500000
O O10 0.218390 0.931422 0.317032
O O11 0.093393 0.934046 0.364881
O O12 0.182635 0.052580 0.477931
O O13 0.721204 0.792207 0.733319
O O14 0.750148 0.592345 0.625649
O O15 0.886330 0.206568 0.793511
O O16 0.798267 0.334220 0.943400
O O17 0.500000 0.607153 0.750000
#
# Coordination Sequence:
#
# PCOD9268790 Si02
#       8
#     8   8   8   8   8   8   8   8
#     4  10  20  33  52  80 112 153 188 229 287 348
#     4  10  20  35  52  78 115 153 190 231 283 349
#     4  10  21  32  51  80 116 157 189 229 292 344
#     4  10  21  36  54  82 109 151 194 233 292 349
#     4  11  20  31  55  80 112 149 185 238 288 351
#     4   9  20  34  49  79 116 141 187 226 289 332
#     4  11  20  33  53  79 117 144 184 238 292 343
#     4   9  20  35  57  79 109 154 196 236 277 351
#
# _framework density 22.16236
#
# number of rings (size 3 to 8) (size 9 to 14) (size 15 to 20)
#    0.000    2.000    3.750    1.500    5.250    0.000 
#    0.000    0.000    0.000    3.000    0.000    0.000 
#    0.000    0.000    0.000    0.000    0.000    0.000 
#
# Total GULP energy -178435.531839 kJ/mol
# GULP energy per Si atom -5576.110370 kJ/mol
# Density = 2.211192 g / cm^3
# Si number density = 22.162360 Si / 1000 Ang^3
#
#
#
# Elastic Constant Matrix: (Units=GPa)
#
#
# Indices 1 2 3 4 5 6 
#
# 1 91.8274 19.3089 25.2491 0.0000 24.3552 0.0000
# 2 19.3089 29.4697 20.5641 0.0000 -0.2039 0.0000
# 3 25.2491 20.5641 141.1256 0.0000 1.9238 0.0000
# 4 0.0000 0.0000 0.0000 -19.7303 0.0000 50.4164
# 5 24.3552 -0.2039 1.9238 0.0000 41.7311 0.0000
# 6 0.0000 0.0000 0.0000 50.4164 0.0000 -31.9303
#
#
#
# Elastic Compliance Matrix: (Units=1/GPa)
#
#
# Indices 1 2 3 4 5 6 
#
# 1 0.015644 -0.009403 -0.001304 0.000000 -0.009116 0.000000
# 2 -0.009403 0.043434 -0.004727 0.000000 0.005918 0.000000
# 3 -0.001304 -0.004727 0.008003 0.000000 0.000369 0.000000
# 4 0.000000 0.000000 0.000000 0.016701 0.000000 0.026371
# 5 -0.009116 0.005918 0.000369 0.000000 0.029295 0.000000
# 6 0.000000 0.000000 0.000000 0.026371 0.000000 0.010320
#
#
# Mechanical properties :
#
#
# Convention : Reuss Voigt Hill
#
# Bulk Modulus (GPa) = 27.61567 43.62967 35.62267
# Shear Modulus (GPa) = 30.05956 11.16747 20.61352
#
# Velocity S-wave (km/s) = 3.68684 2.24719 3.05309
# Velocity P-wave (km/s) = 5.53276 5.14415 5.34199
#
# Compressibility (1/GPa) = 0.03621132
#
# Stress axis : x y z
#
# Youngs Moduli (GPa) = 63.92401 23.02362 124.95186
#
# Poissons Ratio (x) = 0.21648 0.16299
# Poissons Ratio (y) = 0.60106 0.59069
# Poissons Ratio (z) = 0.08339 0.10884
#
# Static dielectric constant tensor:
#      x y z
#    x 1.847810 0.000000 -0.027590 
#    y 0.000000 1.886770 0.000000 
#    z -0.027590 0.000000 1.853710 
# 
# From -- ./inp_files/167623.got.cif
#   From: 2010.05.17/outbox.cif.g08.bks.cpg/sg15_84_cif.got.tgz:167623.got - 2010.06.03 18:47:42.
