data_PCOD9268039
_publ_section_title
;
Structure prediction by ZEFSAII (Michael W. Deem and Ramdas Pophale) SiO2 
 PCOD9268039
Probable space group: C 2/C
;
_chemical_formula_sum "Si O2"
_cell_formula_units_Z 32
_cell_length_a 13.577240
_cell_length_b 7.801577
_cell_length_c 20.511361
_cell_angle_alpha 90.000000
_cell_angle_beta 31.304953
_cell_angle_gamma 90.000000
_cell_volume 1128.890044
_symmetry_space_group_name_H-M "C 2/C"
_symmetry_group_IT_number 15
_symmetry_cell_setting 'monoclinic'
loop_
_space_group_symop_operation_xyz
x,y,z
-x,y,1/2-z
-x,-y,-z
x,-y,1/2+z
1/2+x,1/2+y,z
1/2-x,1/2+y,1/2-z
1/2-x,1/2-y,-z
1/2+x,1/2-y,1/2+z
loop_
_atom_site_type_symbol
_atom_site_label
_atom_site_fract_x
_atom_site_fract_y
_atom_site_fract_z
Si Si1 0.897185 0.916541 0.496092
Si Si2 0.583433 0.164516 0.637177
Si Si3 0.726684 0.953628 0.761253
Si Si4 0.794509 0.140302 0.832956
O O1 0.850746 0.717630 0.530236
O O2 0.052197 0.982653 0.358034
O O3 0.695026 0.999572 0.600324
O O4 0.000000 0.000000 0.500000
O O5 0.500000 0.250102 0.750000
O O6 0.750000 0.250000 0.500000
O O7 0.408467 0.099324 0.693317
O O8 0.701306 0.970456 0.853624
O O9 0.708212 0.796130 0.720902
O O10 0.000000 0.127662 0.750000
#
# Coordination Sequence:
#
# PCOD9268039 Si02
#       4
#     8   8   8   8
#     4  10  19  41  67  96 144 191 241 299 374 438
#     4  12  22  41  73 109 147 198 253 309 379 453
#     4  11  23  41  73 103 139 200 249 303 374 452
#     4  11  22  45  68 101 145 195 250 310 375 440
#
# _framework density 28.346426999999998
#
# number of rings (size 3 to 8) (size 9 to 14) (size 15 to 20)
#    0.000    1.000    7.500    3.000    0.000    1.000 
#    0.000    7.500    0.000    0.000    0.000    0.000 
#    0.000    0.000    0.000    0.000    0.000    0.000 
#
# Total GULP energy -89299.393973 kJ/mol
# GULP energy per Si atom -5581.212123 kJ/mol
# Density = 2.828191 g / cm^3
# Si number density = 28.346427 Si / 1000 Ang^3
#
#
#
# Elastic Constant Matrix: (Units=GPa)
#
#
# Indices 1 2 3 4 5 6 
#
# 1 201.8676 51.8671 44.9318 0.0000 -43.6729 0.0000
# 2 51.8671 87.9284 39.0198 -0.0002 -14.1410 0.0000
# 3 44.9318 39.0198 133.5208 -0.0005 -27.7877 0.0001
# 4 0.0000 -0.0002 -0.0005 33.3420 0.0001 -3.5957
# 5 -43.6729 -14.1410 -27.7877 0.0001 59.5558 0.0000
# 6 0.0000 0.0000 0.0001 -3.5957 0.0000 68.2360
#
#
#
# Elastic Compliance Matrix: (Units=1/GPa)
#
#
# Indices 1 2 3 4 5 6 
#
# 1 0.006721 -0.003092 -0.000537 0.000000 0.003944 0.000000
# 2 -0.003092 0.014606 -0.003298 0.000000 -0.000338 0.000000
# 3 -0.000537 -0.003298 0.009291 0.000000 0.003158 0.000000
# 4 0.000000 0.000000 0.000000 0.030164 0.000000 0.001589
# 5 0.003944 -0.000338 0.003158 0.000000 0.021076 0.000000
# 6 0.000000 0.000000 0.000000 0.001589 0.000000 0.014739
#
#
# Mechanical properties :
#
#
# Convention : Reuss Voigt Hill
#
# Bulk Modulus (GPa) = 59.65443 77.21712 68.43578
# Shear Modulus (GPa) = 43.08866 51.39331 47.24099
#
# Velocity S-wave (km/s) = 3.90304 4.26260 4.08678
# Velocity P-wave (km/s) = 6.43445 7.17816 6.81646
#
# Compressibility (1/GPa) = 0.01676321
#
# Stress axis : x y z
#
# Youngs Moduli (GPa) = 148.78840 68.46491 107.62592
#
# Poissons Ratio (x) = 0.21168 0.05784
# Poissons Ratio (y) = 0.46003 0.35499
# Poissons Ratio (z) = 0.07996 0.22582
#
# Static dielectric constant tensor:
#      x y z
#    x 2.200570 0.000000 0.147320 
#    y 0.000000 2.546610 0.000000 
#    z 0.147320 0.000000 2.744100 
# 
# From -- ./inp_files/93419.got.cif
#   From: 2010.05.17/outbox.cif.g08.bks.cpg/sg15_47_cif.got.tgz:93419.got - 2010.06.03 18:47:42.
