data_PCOD9268484
_publ_section_title
;
Structure prediction by ZEFSAII (Michael W. Deem and Ramdas Pophale) SiO2 
 PCOD9268484
Probable space group: C 2/C
;
_chemical_formula_sum "Si O2"
_cell_formula_units_Z 64
_cell_length_a 18.271522
_cell_length_b 8.710870
_cell_length_c 16.696903
_cell_angle_alpha 90.000000
_cell_angle_beta 112.362714
_cell_angle_gamma 90.000000
_cell_volume 2457.633412
_symmetry_space_group_name_H-M "C 2/C"
_symmetry_group_IT_number 15
_symmetry_cell_setting 'monoclinic'
loop_
_space_group_symop_operation_xyz
x,y,z
-x,y,1/2-z
-x,-y,-z
x,-y,1/2+z
1/2+x,1/2+y,z
1/2-x,1/2+y,1/2-z
1/2-x,1/2-y,-z
1/2+x,1/2-y,1/2+z
loop_
_atom_site_type_symbol
_atom_site_label
_atom_site_fract_x
_atom_site_fract_y
_atom_site_fract_z
Si Si1 0.356825 0.278768 0.207798
Si Si2 0.730942 0.081784 0.953615
Si Si3 0.187641 0.638934 0.578154
Si Si4 0.889224 0.877562 0.540712
Si Si5 0.405994 0.056066 0.733357
Si Si6 0.445213 0.314341 0.072980
Si Si7 0.407567 0.606103 0.232952
Si Si8 0.070081 0.387801 0.553564
O O1 0.262398 0.285131 0.152233
O O2 0.406651 0.286093 0.144386
O O3 0.377116 0.445217 0.255631
O O4 0.380693 0.113022 0.252506
O O5 0.656609 0.070875 0.865515
O O6 0.750000 0.250000 0.000000
O O7 0.818389 0.061713 0.954356
O O8 0.721979 0.947047 0.013970
O O9 0.118073 0.747132 0.516634
O O10 0.144423 0.495797 0.604232
O O11 0.869283 0.883167 0.627502
O O12 0.911242 0.712461 0.517476
O O13 0.956276 0.005460 0.563745
O O14 0.500000 0.049061 0.750000
O O15 0.396464 0.226565 0.770187
O O16 0.527020 0.228538 0.094866
O O17 0.500000 0.593813 0.250000
O O18 0.000000 0.500000 0.500000
#
# Coordination Sequence:
#
# PCOD9268484 Si02
#       8
#     8   8   8   8   8   8   8   8
#     4  11  20  35  59  84 119 154 193 249 304 352
#     4  12  18  32  58  85 116 149 195 243 308 351
#     4  11  18  34  53  85 116 147 187 245 298 344
#     4  11  20  34  57  82 119 157 194 251 299 352
#     4  11  22  34  53  87 125 154 188 245 312 366
#     4  10  20  32  51  84 121 154 190 241 294 368
#     4  10  21  35  53  87 121 153 193 244 309 356
#     4  10  22  33  51  81 124 154 194 240 304 361
#
# _framework density 26.041312000000001
#
# number of rings (size 3 to 8) (size 9 to 14) (size 15 to 20)
#    0.000    1.250    6.250    1.875    1.750    0.000 
#    0.000    0.000    0.000    0.000    0.000   17.500 
#    0.000    0.000    0.000    0.000    0.000    0.000 
#
# Total GULP energy -178579.804962 kJ/mol
# GULP energy per Si atom -5580.618905 kJ/mol
# Density = 2.598204 g / cm^3
# Si number density = 26.041312 Si / 1000 Ang^3
#
#
#
# Elastic Constant Matrix: (Units=GPa)
#
#
# Indices 1 2 3 4 5 6 
#
# 1 51.0046 10.0566 2.2685 0.0000 1.8951 0.0000
# 2 10.0566 218.3967 25.4432 0.0000 -1.4714 0.0000
# 3 2.2685 25.4432 81.4619 0.0000 22.0777 0.0000
# 4 0.0000 0.0000 0.0000 20.5703 0.0000 25.8036
# 5 1.8951 -1.4714 22.0777 0.0000 29.4228 0.0000
# 6 0.0000 0.0000 0.0000 25.8036 0.0000 43.1055
#
#
#
# Elastic Compliance Matrix: (Units=1/GPa)
#
#
# Indices 1 2 3 4 5 6 
#
# 1 0.019838 -0.000938 0.000125 0.000000 -0.001418 0.000000
# 2 -0.000938 0.004864 -0.001978 0.000000 0.001788 0.000000
# 3 0.000125 -0.001978 0.016217 0.000000 -0.012275 0.000000
# 4 0.000000 0.000000 0.000000 0.195163 0.000000 -0.116827
# 5 -0.001418 0.001788 -0.012275 0.000000 0.043379 0.000000
# 6 0.000000 0.000000 0.000000 -0.116827 0.000000 0.093133
#
#
# Mechanical properties :
#
#
# Convention : Reuss Voigt Hill
#
# Bulk Modulus (GPa) = 28.29797 47.37776 37.83786
# Shear Modulus (GPa) = 12.82201 39.49272 26.15737
#
# Velocity S-wave (km/s) = 2.22135 3.89850 3.17275
# Velocity P-wave (km/s) = 4.17964 6.20462 5.28993
#
# Compressibility (1/GPa) = 0.03533823
#
# Stress axis : x y z
#
# Youngs Moduli (GPa) = 50.40812 205.57340 61.66469
#
# Poissons Ratio (x) = 0.19274 -0.00769
# Poissons Ratio (y) = 0.04726 0.12195
# Poissons Ratio (z) = -0.00629 0.40656
#
# Static dielectric constant tensor:
#      x y z
#    x 2.843570 0.000000 0.006370 
#    y 0.000000 2.139410 0.000000 
#    z 0.006370 0.000000 2.105630 
# 
# From -- ./inp_files/300373.got.cif
#   From: 2010.05.17/outbox.cif.g08.bks.cpg/sg15_151_cif.got.tgz:300373.got - 2010.06.03 18:47:42.
