data_PCOD9268320
_publ_section_title
;
Structure prediction by ZEFSAII (Michael W. Deem and Ramdas Pophale) SiO2 
 PCOD9268320
Probable space group: C 2/C
;
_chemical_formula_sum "Si O2"
_cell_formula_units_Z 28
_cell_length_a 16.243473
_cell_length_b 22.239509
_cell_length_c 5.368231
_cell_angle_alpha 90.000000
_cell_angle_beta 127.225473
_cell_angle_gamma 90.000000
_cell_volume 1544.154492
_symmetry_space_group_name_H-M "C 2/C"
_symmetry_group_IT_number 15
_symmetry_cell_setting 'monoclinic'
loop_
_space_group_symop_operation_xyz
x,y,z
-x,y,1/2-z
-x,-y,-z
x,-y,1/2+z
1/2+x,1/2+y,z
1/2-x,1/2+y,1/2-z
1/2-x,1/2-y,-z
1/2+x,1/2-y,1/2+z
loop_
_atom_site_type_symbol
_atom_site_label
_atom_site_fract_x
_atom_site_fract_y
_atom_site_fract_z
Si Si1 0.121268 0.471630 0.451936
Si Si2 0.724111 0.713154 0.706119
Si Si3 0.587489 0.855764 0.093686
Si Si4 0.000000 0.246759 0.250000
O O1 0.166599 0.491569 0.799820
O O2 0.117872 0.401502 0.369525
O O3 0.000000 0.487045 0.250000
O O4 0.750000 0.750000 0.500000
O O5 0.805136 0.658766 0.846767
O O6 0.600458 0.706607 0.486827
O O7 0.750000 0.750000 0.000000
O O8 0.535762 0.794206 0.102009
O O9 0.500000 0.881907 0.750000
#
# Coordination Sequence:
#
# PCOD9268320 Si02
#       4
#     8   8   8   4
#     4  10  20  31  46  71 100 129 162 199 246 302
#     4  10  21  33  49  72  97 134 169 199 244 294
#     4  11  19  31  52  70 103 133 161 201 254 290
#     4  10  20  34  48  72 104 130 168 204 238 298
#
# _framework density 18.132899999999999
#
# number of rings (size 3 to 8) (size 9 to 14) (size 15 to 20)
#    0.000    1.714    4.286    2.571    0.000    0.000 
#    0.000    0.000    0.000    0.000    0.000    2.000 
#    0.000    0.000    0.000    4.571    0.000    0.000 
#
# Total GULP energy -77956.225323 kJ/mol
# GULP energy per Si atom -5568.301809 kJ/mol
# Density = 1.809163 g / cm^3
# Si number density = 18.132900 Si / 1000 Ang^3
#
#
#
# Elastic Constant Matrix: (Units=GPa)
#
#
# Indices 1 2 3 4 5 6 
#
# 1 110.4938 34.4395 55.9370 0.0000 12.9993 0.0000
# 2 34.4395 55.5474 12.3855 0.0000 4.2108 0.0000
# 3 55.9370 12.3855 73.8759 0.0000 -1.2769 0.0000
# 4 0.0000 0.0000 0.0000 13.6564 0.0000 -16.7907
# 5 12.9993 4.2108 -1.2769 0.0000 50.3988 0.0000
# 6 0.0000 0.0000 0.0000 -16.7907 0.0000 26.5433
#
#
#
# Elastic Compliance Matrix: (Units=1/GPa)
#
#
# Indices 1 2 3 4 5 6 
#
# 1 0.018669 -0.008383 -0.012807 0.000000 -0.004439 0.000000
# 2 -0.008383 0.022603 0.002564 0.000000 0.000339 0.000000
# 3 -0.012807 0.002564 0.022867 0.000000 0.003668 0.000000
# 4 0.000000 0.000000 0.000000 0.329486 0.000000 0.208425
# 5 -0.004439 0.000339 0.003668 0.000000 0.021051 0.000000
# 6 0.000000 0.000000 0.000000 0.208425 0.000000 0.169519
#
#
# Mechanical properties :
#
#
# Convention : Reuss Voigt Hill
#
# Bulk Modulus (GPa) = 37.19352 49.49346 43.34349
# Shear Modulus (GPa) = 7.93136 27.26338 17.59737
#
# Velocity S-wave (km/s) = 2.09368 3.88175 3.11861
# Velocity P-wave (km/s) = 5.13817 6.88801 6.07641
#
# Compressibility (1/GPa) = 0.02688641
#
# Stress axis : x y z
#
# Youngs Moduli (GPa) = 53.56560 44.24271 43.73142
#
# Poissons Ratio (x) = 0.37087 0.56006
# Poissons Ratio (y) = 0.44902 -0.11211
# Poissons Ratio (z) = 0.68601 -0.11342
#
# Static dielectric constant tensor:
#      x y z
#    x 1.665360 0.000000 -0.038360 
#    y 0.000000 1.660280 0.000000 
#    z -0.038360 0.000000 1.690750 
# 
# From -- ./inp_files/3878.got.cif
#   From: 2010.05.17/outbox.cif.g08.bks.cpg/sg15_2_cif.got.tgz:3878.got - 2010.06.03 18:47:42.
