data_PCOD9268875
_publ_section_title
;
Structure prediction by ZEFSAII (Michael W. Deem and Ramdas Pophale) SiO2 
 PCOD9268875
Probable space group: C 2/C
;
_chemical_formula_sum "Si O2"
_cell_formula_units_Z 64
_cell_length_a 23.912248
_cell_length_b 13.217775
_cell_length_c 11.348958
_cell_angle_alpha 90.000000
_cell_angle_beta 71.345526
_cell_angle_gamma 90.000000
_cell_volume 3398.582386
_symmetry_space_group_name_H-M "C 2/C"
_symmetry_group_IT_number 15
_symmetry_cell_setting 'monoclinic'
loop_
_space_group_symop_operation_xyz
x,y,z
-x,y,1/2-z
-x,-y,-z
x,-y,1/2+z
1/2+x,1/2+y,z
1/2-x,1/2+y,1/2-z
1/2-x,1/2-y,-z
1/2+x,1/2-y,1/2+z
loop_
_atom_site_type_symbol
_atom_site_label
_atom_site_fract_x
_atom_site_fract_y
_atom_site_fract_z
Si Si1 0.328294 0.117920 0.590939
Si Si2 0.885560 0.798750 0.169523
Si Si3 0.812140 0.879564 0.009902
Si Si4 0.810842 0.605363 0.192363
Si Si5 0.234046 0.094332 0.469378
Si Si6 0.206277 0.252235 0.170282
Si Si7 0.622747 0.707149 0.550204
Si Si8 0.995028 0.917753 0.395526
O O1 0.266645 0.134005 0.562867
O O2 0.326942 0.181557 0.711538
O O3 0.378527 0.173797 0.479891
O O4 0.328467 0.998131 0.615390
O O5 0.849372 0.869084 0.103560
O O6 0.864935 0.684607 0.153581
O O7 0.867771 0.809233 0.317462
O O8 0.952750 0.835962 0.120253
O O9 0.747499 0.834774 0.079112
O O10 0.801779 0.992948 0.978652
O O11 0.836046 0.807487 0.890732
O O12 0.785929 0.578079 0.339085
O O13 0.754628 0.668437 0.179529
O O14 0.183300 0.166133 0.453469
O O15 0.566886 0.641296 0.551413
O O16 0.000000 0.951091 0.250000
O O17 0.000000 0.000000 0.500000
#
# Coordination Sequence:
#
# PCOD9268875 Si02
#       8
#     8   8   8   8   8   8   8   8
#     4  12  22  36  56  89 125 159 201 242 303 366
#     4  10  22  41  62  85 120 162 203 254 305 363
#     4  10  20  33  54  84 118 158 198 235 308 352
#     4  11  21  34  57  88 125 165 193 241 305 366
#     4  12  20  33  57  89 127 157 197 239 306 374
#     4  10  20  34  48  80 124 157 190 241 285 365
#     4  11  23  38  62  90 120 158 203 257 299 363
#     4  10  23  48  71  92 119 158 213 261 312 359
#
# _framework density 18.831381
#
# number of rings (size 3 to 8) (size 9 to 14) (size 15 to 20)
#    0.000    1.250    5.000    2.625    0.000    0.000 
#    6.750    0.625    0.000    0.000    0.000    0.000 
#    0.000    0.000    0.000    0.000    0.000    0.000 
#
# Total GULP energy -178203.879952 kJ/mol
# GULP energy per Si atom -5568.871249 kJ/mol
# Density = 1.878852 g / cm^3
# Si number density = 18.831381 Si / 1000 Ang^3
#
#
#
# Elastic Constant Matrix: (Units=GPa)
#
#
# Indices 1 2 3 4 5 6 
#
# 1 81.5139 45.1510 36.8621 0.0000 3.5376 0.0000
# 2 45.1510 111.7745 30.5063 0.0000 -6.6351 0.0000
# 3 36.8621 30.5063 64.3946 0.0000 5.8264 0.0000
# 4 0.0000 0.0000 0.0000 27.8421 0.0000 0.4104
# 5 3.5376 -6.6351 5.8264 0.0000 15.7376 0.0000
# 6 0.0000 0.0000 0.0000 0.4104 0.0000 20.2032
#
#
#
# Elastic Compliance Matrix: (Units=1/GPa)
#
#
# Indices 1 2 3 4 5 6 
#
# 1 0.019247 -0.005849 -0.007897 0.000000 -0.003869 0.000000
# 2 -0.005849 0.012704 -0.003387 0.000000 0.007925 0.000000
# 3 -0.007897 -0.003387 0.022372 0.000000 -0.007936 0.000000
# 4 0.000000 0.000000 0.000000 0.035928 0.000000 -0.000730
# 5 -0.003869 0.007925 -0.007936 0.000000 0.070691 0.000000
# 6 0.000000 0.000000 0.000000 -0.000730 0.000000 0.049512
#
#
# Mechanical properties :
#
#
# Convention : Reuss Voigt Hill
#
# Bulk Modulus (GPa) = 49.85725 53.63574 51.74649
# Shear Modulus (GPa) = 19.88823 22.43416 21.16120
#
# Velocity S-wave (km/s) = 3.25333 3.45529 3.35583
# Velocity P-wave (km/s) = 6.37537 6.66803 6.52334
#
# Compressibility (1/GPa) = 0.02005726
#
# Stress axis : x y z
#
# Youngs Moduli (GPa) = 51.95743 78.71392 44.69819
#
# Poissons Ratio (x) = 0.46040 0.35296
# Poissons Ratio (y) = 0.30390 0.15141
# Poissons Ratio (z) = 0.41028 0.26663
#
# Static dielectric constant tensor:
#      x y z
#    x 1.640010 0.000000 0.033670 
#    y 0.000000 1.685620 0.000000 
#    z 0.033670 0.000000 1.768520 
# 
# From -- ./inp_files/117993.got.cif
#   From: 2010.05.17/outbox.cif.g08.bks.cpg/sg15_59_cif.got.tgz:117993.got - 2010.06.03 18:47:42.
