data_PCOD9268768
_publ_section_title
;
Structure prediction by ZEFSAII (Michael W. Deem and Ramdas Pophale) SiO2 
 PCOD9268768
Probable space group: C 2/C
;
_chemical_formula_sum "Si O2"
_cell_formula_units_Z 48
_cell_length_a 12.762015
_cell_length_b 12.748816
_cell_length_c 17.506002
_cell_angle_alpha 90.000000
_cell_angle_beta 69.236867
_cell_angle_gamma 90.000000
_cell_volume 2663.255050
_symmetry_space_group_name_H-M "C 2/C"
_symmetry_group_IT_number 15
_symmetry_cell_setting 'monoclinic'
loop_
_space_group_symop_operation_xyz
x,y,z
-x,y,1/2-z
-x,-y,-z
x,-y,1/2+z
1/2+x,1/2+y,z
1/2-x,1/2+y,1/2-z
1/2-x,1/2-y,-z
1/2+x,1/2-y,1/2+z
loop_
_atom_site_type_symbol
_atom_site_label
_atom_site_fract_x
_atom_site_fract_y
_atom_site_fract_z
Si Si1 0.209075 0.700766 0.330462
Si Si2 0.967110 0.876884 0.170696
Si Si3 0.887048 0.623546 0.826394
Si Si4 0.884662 0.954309 0.495096
Si Si5 0.787718 0.946639 0.674820
Si Si6 0.794368 0.632364 0.004945
O O1 0.107990 0.779406 0.337307
O O2 0.314646 0.773224 0.326102
O O3 0.246348 0.634110 0.248228
O O4 0.178720 0.630969 0.412425
O O5 0.000000 0.866238 0.250000
O O6 0.075091 0.888412 0.087972
O O7 0.889958 0.981132 0.179709
O O8 0.812742 0.526141 0.817730
O O9 0.000000 0.626508 0.750000
O O10 0.892469 0.615457 0.917273
O O11 0.826441 0.899524 0.583066
O O12 0.803126 0.048954 0.490209
O O13 0.000000 0.000000 0.500000
O O14 0.750000 0.750000 0.000000
#
# Coordination Sequence:
#
# PCOD9268768 Si02
#       6
#     8   8   8   8   8   8
#     4  10  20  33  52  77 103 134 173 213 253 305
#     4  10  20  34  52  77 104 135 174 215 258 308
#     4   9  19  33  51  75 103 131 166 207 251 302
#     4   9  17  31  52  76 104 136 169 212 259 307
#     4   9  19  34  51  75 104 132 167 210 255 304
#     4   9  17  31  50  76 105 132 168 213 253 300
#
# _framework density 18.023057999999999
#
# number of rings (size 3 to 8) (size 9 to 14) (size 15 to 20)
#    0.000    2.667    0.000    4.000    0.000    8.000 
#    0.000    1.667    0.000    0.000    0.000    0.000 
#    0.000    0.000    0.000    0.000    0.000    0.000 
#
# Total GULP energy -133707.441791 kJ/mol
# GULP energy per Si atom -5571.143408 kJ/mol
# Density = 1.798204 g / cm^3
# Si number density = 18.023058 Si / 1000 Ang^3
#
#
#
# Elastic Constant Matrix: (Units=GPa)
#
#
# Indices 1 2 3 4 5 6 
#
# 1 52.4624 9.2787 59.6659 0.0000 -6.4657 0.0000
# 2 9.2787 50.6266 57.4298 0.0000 -4.3067 0.0000
# 3 59.6659 57.4298 226.6860 0.0000 -8.2387 0.0000
# 4 0.0000 0.0000 0.0000 30.1092 0.0000 -2.1223
# 5 -6.4657 -4.3067 -8.2387 0.0000 30.7209 0.0000
# 6 0.0000 0.0000 0.0000 -2.1223 0.0000 2.2812
#
#
#
# Elastic Compliance Matrix: (Units=1/GPa)
#
#
# Indices 1 2 3 4 5 6 
#
# 1 0.028492 0.004880 -0.008576 0.000000 0.004381 0.000000
# 2 0.004880 0.028679 -0.008449 0.000000 0.002782 0.000000
# 3 -0.008576 -0.008449 0.008786 0.000000 -0.000633 0.000000
# 4 0.000000 0.000000 0.000000 0.035543 0.000000 0.033067
# 5 0.004381 0.002782 -0.000633 0.000000 0.033693 0.000000
# 6 0.000000 0.000000 0.000000 0.033067 0.000000 0.469126
#
#
# Mechanical properties :
#
#
# Convention : Reuss Voigt Hill
#
# Bulk Modulus (GPa) = 24.00043 64.72486 44.36265
# Shear Modulus (GPa) = 7.78210 26.18231 16.98220
#
# Velocity S-wave (km/s) = 2.08020 3.81558 3.07294
# Velocity P-wave (km/s) = 4.37208 7.44324 6.10397
#
# Compressibility (1/GPa) = 0.04166593
#
# Stress axis : x y z
#
# Youngs Moduli (GPa) = 35.09736 34.86862 113.81394
#
# Poissons Ratio (x) = -0.17014 0.97612
# Poissons Ratio (y) = -0.17126 0.96161
# Poissons Ratio (z) = 0.30101 0.29460
#
# Static dielectric constant tensor:
#      x y z
#    x 1.607460 0.000000 0.011270 
#    y 0.000000 1.627790 0.000000 
#    z 0.011270 0.000000 1.666500 
# 
# From -- ./inp_files/143792.got.cif
#   From: 2010.05.17/outbox.cif.g08.bks.cpg/sg15_72_cif.got.tgz:143792.got - 2010.06.03 18:47:42.
