data_PCOD9268898
_publ_section_title
;
Structure prediction by ZEFSAII (Michael W. Deem and Ramdas Pophale) SiO2 
 PCOD9268898
Probable space group: C 2/C
;
_chemical_formula_sum "Si O2"
_cell_formula_units_Z 56
_cell_length_a 11.167673
_cell_length_b 22.804999
_cell_length_c 12.968232
_cell_angle_alpha 90.000000
_cell_angle_beta 116.822757
_cell_angle_gamma 90.000000
_cell_volume 2947.381300
_symmetry_space_group_name_H-M "C 2/C"
_symmetry_group_IT_number 15
_symmetry_cell_setting 'monoclinic'
loop_
_space_group_symop_operation_xyz
x,y,z
-x,y,1/2-z
-x,-y,-z
x,-y,1/2+z
1/2+x,1/2+y,z
1/2-x,1/2+y,1/2-z
1/2-x,1/2-y,-z
1/2+x,1/2-y,1/2+z
loop_
_atom_site_type_symbol
_atom_site_label
_atom_site_fract_x
_atom_site_fract_y
_atom_site_fract_z
Si Si1 0.281016 0.810870 0.880117
Si Si2 0.617932 0.794056 0.374724
Si Si3 0.353307 0.217137 0.183308
Si Si4 0.643760 0.336395 0.446163
Si Si5 0.854103 0.930363 0.640643
Si Si6 0.837877 0.941377 0.193524
Si Si7 0.143749 0.117019 0.586681
O O1 0.157770 0.774063 0.880619
O O2 0.306135 0.779648 0.782267
O O3 0.237607 0.877778 0.852616
O O4 0.400658 0.805885 0.010460
O O5 0.500000 0.807173 0.250000
O O6 0.745074 0.833618 0.392085
O O7 0.500000 0.188810 0.250000
O O8 0.369280 0.279998 0.133745
O O9 0.246009 0.181150 0.075721
O O10 0.700532 0.390112 0.400561
O O11 0.498685 0.354557 0.435532
O O12 0.870294 0.919756 0.524309
O O13 0.000000 0.925902 0.750000
O O14 0.793835 0.993979 0.643283
O O15 0.807464 0.922527 0.298421
O O16 0.000000 0.942960 0.250000
#
# Coordination Sequence:
#
# PCOD9268898 Si02
#       7
#     8   8   8   8   8   8   8
#     4  10  21  35  53  81 110 137 182 227 269 323
#     4  10  21  36  57  80 109 146 178 219 274 327
#     4  11  22  35  56  84 112 142 178 223 278 326
#     4  10  21  36  56  81 111 144 178 224 272 325
#     4  10  20  33  55  83 109 142 181 230 276 311
#     4   9  19  34  55  81 108 143 185 223 269 322
#     4  10  20  37  57  81 111 142 184 223 267 331
#
# _framework density 18.999917
#
# number of rings (size 3 to 8) (size 9 to 14) (size 15 to 20)
#    0.000    2.000    0.000    4.286    0.000   12.000 
#    0.000    0.000    0.000   12.000    0.000    0.000 
#    0.000    0.000    0.000    0.000    0.000    0.000 
#
# Total GULP energy -156263.769727 kJ/mol
# GULP energy per Si atom -5580.848919 kJ/mol
# Density = 1.895667 g / cm^3
# Si number density = 18.999917 Si / 1000 Ang^3
#
#
#
# Elastic Constant Matrix: (Units=GPa)
#
#
# Indices 1 2 3 4 5 6 
#
# 1 38.3409 27.4038 50.1864 0.0000 0.0960 0.0000
# 2 27.4038 111.5889 64.1088 0.0000 -1.0493 0.0000
# 3 50.1864 64.1088 181.2445 0.0000 -1.5157 0.0000
# 4 0.0000 0.0000 0.0000 -5.2389 0.0000 -0.1004
# 5 0.0960 -1.0493 -1.5157 0.0000 33.7862 0.0000
# 6 0.0000 0.0000 0.0000 -0.1004 0.0000 14.9842
#
#
#
# Elastic Compliance Matrix: (Units=1/GPa)
#
#
# Indices 1 2 3 4 5 6 
#
# 1 0.042759 -0.004646 -0.010203 0.000000 -0.000723 0.000000
# 2 -0.004646 0.011753 -0.002869 0.000000 0.000250 0.000000
# 3 -0.010203 -0.002869 0.009360 0.000000 0.000360 0.000000
# 4 0.000000 0.000000 0.000000 -0.190855 0.000000 -0.001278
# 5 -0.000723 0.000250 0.000360 0.000000 0.029624 0.000000
# 6 0.000000 0.000000 0.000000 -0.001278 0.000000 0.066728
#
#
# Mechanical properties :
#
#
# Convention : Reuss Voigt Hill
#
# Bulk Modulus (GPa) = 35.16469 68.28581 51.72525
# Shear Modulus (GPa) = 350.06561 21.33799 185.70180
#
# Velocity S-wave (km/s) = 13.58845 3.35484 9.89699
# Velocity P-wave (km/s) = 16.27091 7.14316 12.56517
#
# Compressibility (1/GPa) = 0.02843762
#
# Stress axis : x y z
#
# Youngs Moduli (GPa) = 23.38684 85.08621 106.83562
#
# Poissons Ratio (x) = 0.39531 1.09001
# Poissons Ratio (y) = 0.10866 0.30647
# Poissons Ratio (z) = 0.23861 0.24408
#
# Static dielectric constant tensor:
#      x y z
#    x 1.712990 0.000000 -0.049980 
#    y 0.000000 1.669540 0.000000 
#    z -0.049980 0.000000 1.719680 
# 
# From -- ./inp_files/89658.got.cif
#   From: 2010.05.17/outbox.cif.g08.bks.cpg/sg15_45_cif.got.tgz:89658.got - 2010.06.03 18:47:42.
