data_PCOD9268527
_publ_section_title
;
Structure prediction by ZEFSAII (Michael W. Deem and Ramdas Pophale) SiO2 
 PCOD9268527
Probable space group: C 2/C
;
_chemical_formula_sum "Si O2"
_cell_formula_units_Z 56
_cell_length_a 19.717275
_cell_length_b 25.427015
_cell_length_c 10.354712
_cell_angle_alpha 90.000000
_cell_angle_beta 146.436737
_cell_angle_gamma 90.000000
_cell_volume 2870.076084
_symmetry_space_group_name_H-M "C 2/C"
_symmetry_group_IT_number 15
_symmetry_cell_setting 'monoclinic'
loop_
_space_group_symop_operation_xyz
x,y,z
-x,y,1/2-z
-x,-y,-z
x,-y,1/2+z
1/2+x,1/2+y,z
1/2-x,1/2+y,1/2-z
1/2-x,1/2-y,-z
1/2+x,1/2-y,1/2+z
loop_
_atom_site_type_symbol
_atom_site_label
_atom_site_fract_x
_atom_site_fract_y
_atom_site_fract_z
Si Si1 0.403277 0.955036 0.870455
Si Si2 0.000000 0.075218 0.250000
Si Si3 0.760912 0.810118 0.976599
Si Si4 0.353087 0.409743 0.767178
Si Si5 0.789166 0.985486 0.283754
Si Si6 0.500000 0.367641 0.250000
Si Si7 0.114790 0.355792 0.502804
Si Si8 0.637647 0.109571 0.449155
O O1 0.442228 0.910159 0.031720
O O2 0.379205 0.926369 0.701434
O O3 0.275648 0.977536 0.716074
O O4 0.500000 0.000000 0.000000
O O5 0.082453 0.103141 0.268443
O O6 0.084778 0.038348 0.471516
O O7 0.668116 0.824536 0.711258
O O8 0.726382 0.844014 0.048504
O O9 0.750000 0.750000 0.000000
O O10 0.891668 0.831182 0.134498
O O11 0.312083 0.471795 0.705488
O O12 0.231754 0.374015 0.602029
O O13 0.442049 0.399654 0.034684
O O14 0.699740 0.934063 0.138078
O O15 0.000000 0.328676 0.250000
O O16 0.500000 0.130347 0.250000
#
# Coordination Sequence:
#
# PCOD9268527 Si02
#       8
#     8   4   8   8   8   4   8   8
#     4  10  20  32  53  87 125 166 196 247 308 370
#     4  12  23  32  52  84 124 174 216 246 289 360
#     4  10  23  42  68  88 113 164 213 273 321 367
#     4  10  22  37  60  87 128 179 204 251 309 378
#     4  11  22  34  54  84 133 171 206 246 306 372
#     4  10  21  46  66  88 124 164 226 250 313 404
#     4   9  21  37  62  90 121 157 208 257 321 386
#     4  11  22  36  57  94 120 156 212 260 306 369
#
# _framework density 19.511678
#
# number of rings (size 3 to 8) (size 9 to 14) (size 15 to 20)
#    0.000    1.714    1.429    3.429    7.000    0.000 
#    0.000    0.000    6.286    1.714    0.000    0.000 
#    0.000    0.000    0.000    0.000    0.000    0.000 
#
# Total GULP energy -155907.187793 kJ/mol
# GULP energy per Si atom -5568.113850 kJ/mol
# Density = 1.946727 g / cm^3
# Si number density = 19.511678 Si / 1000 Ang^3
#
#
#
# Elastic Constant Matrix: (Units=GPa)
#
#
# Indices 1 2 3 4 5 6 
#
# 1 100.6417 27.8269 9.1436 0.0000 7.3973 0.0000
# 2 27.8269 85.9644 11.5297 0.0000 5.0839 0.0000
# 3 9.1436 11.5297 71.9285 0.0000 9.9861 0.0000
# 4 0.0000 0.0000 0.0000 38.6788 0.0000 -24.2128
# 5 7.3973 5.0839 9.9861 0.0000 25.2461 0.0000
# 6 0.0000 0.0000 0.0000 -24.2128 0.0000 37.1868
#
#
#
# Elastic Compliance Matrix: (Units=1/GPa)
#
#
# Indices 1 2 3 4 5 6 
#
# 1 0.011093 -0.003379 -0.000541 0.000000 -0.002356 0.000000
# 2 -0.003379 0.012990 -0.001510 0.000000 -0.001029 0.000000
# 3 -0.000541 -0.001510 0.014971 0.000000 -0.005459 0.000000
# 4 0.000000 0.000000 0.000000 0.043642 0.000000 0.028416
# 5 -0.002356 -0.001029 -0.005459 0.000000 0.042667 0.000000
# 6 0.000000 0.000000 0.000000 0.028416 0.000000 0.045393
#
#
# Mechanical properties :
#
#
# Convention : Reuss Voigt Hill
#
# Bulk Modulus (GPa) = 35.46886 39.50388 37.48637
# Shear Modulus (GPa) = 26.17597 34.22463 30.20030
#
# Velocity S-wave (km/s) = 3.66670 4.19269 3.93849
# Velocity P-wave (km/s) = 6.01198 6.61275 6.31951
#
# Compressibility (1/GPa) = 0.02819375
#
# Stress axis : x y z
#
# Youngs Moduli (GPa) = 90.14846 76.98352 66.79367
#
# Poissons Ratio (x) = 0.26012 0.03617
# Poissons Ratio (y) = 0.30460 0.10085
# Poissons Ratio (z) = 0.04881 0.11623
#
# Static dielectric constant tensor:
#      x y z
#    x 1.744610 0.000000 -0.034240 
#    y 0.000000 1.686690 0.000000 
#    z -0.034240 0.000000 1.893750 
# 
# From -- ./inp_files/52411.got.cif
#   From: 2010.05.17/outbox.cif.g08.bks.cpg/sg15_27_cif.got.tgz:52411.got - 2010.06.03 18:47:42.
