data_PCOD9268133
_publ_section_title
;
Structure prediction by ZEFSAII (Michael W. Deem and Ramdas Pophale) SiO2 
 PCOD9268133
Probable space group: C 2/C
;
_chemical_formula_sum "Si O2"
_cell_formula_units_Z 64
_cell_length_a 7.569918
_cell_length_b 24.056595
_cell_length_c 24.855010
_cell_angle_alpha 90.000000
_cell_angle_beta 33.312947
_cell_angle_gamma 90.000000
_cell_volume 2485.873533
_symmetry_space_group_name_H-M "C 2/C"
_symmetry_group_IT_number 15
_symmetry_cell_setting 'monoclinic'
loop_
_space_group_symop_operation_xyz
x,y,z
-x,y,1/2-z
-x,-y,-z
x,-y,1/2+z
1/2+x,1/2+y,z
1/2-x,1/2+y,1/2-z
1/2-x,1/2-y,-z
1/2+x,1/2-y,1/2+z
loop_
_atom_site_type_symbol
_atom_site_label
_atom_site_fract_x
_atom_site_fract_y
_atom_site_fract_z
Si Si1 0.667294 0.287104 0.329592
Si Si2 0.777481 0.994466 0.974479
Si Si3 0.750395 0.630366 0.017590
Si Si4 0.833465 0.289527 0.841427
Si Si5 0.791974 0.881748 0.472899
Si Si6 0.156205 0.388832 0.808803
Si Si7 0.837763 0.626796 0.694513
Si Si8 0.151440 0.492138 0.310330
O O1 0.375010 0.249330 0.382863
O O2 0.533688 0.329814 0.408126
O O3 0.789869 0.328027 0.251707
O O4 0.000000 0.251977 0.250000
O O5 0.910952 0.931449 0.935501
O O6 0.936324 0.055658 0.929627
O O7 0.500000 0.000000 0.000000
O O8 0.608952 0.993374 0.075652
O O9 0.508012 0.682274 0.082932
O O10 0.031950 0.629131 0.991029
O O11 0.906955 0.634439 0.918373
O O12 0.000000 0.256947 0.750000
O O13 0.080117 0.340038 0.788100
O O14 0.604918 0.883091 0.576914
O O15 0.500000 0.385056 0.750000
O O16 0.130939 0.448914 0.787338
O O17 0.500000 0.623544 0.750000
O O18 0.881934 0.566188 0.709671
O O19 0.500000 0.492878 0.250000
#
# Coordination Sequence:
#
# PCOD9268133 Si02
#       8
#     8   8   8   8   8   8   8   8
#     4  12  28  47  66  96 135 181 232 285 338 402
#     4   8  16  33  61 100 138 167 211 270 332 409
#     4  10  21  41  71 102 135 179 224 277 343 404
#     4  12  28  48  66  96 131 179 236 286 331 401
#     4  10  21  42  71 103 136 177 223 276 348 405
#     4  10  21  43  66  98 139 179 222 277 341 409
#     4  10  19  42  68 100 134 176 224 277 334 407
#     4   8  16  31  63  93 131 176 213 262 337 401
#
# _framework density 25.745476
#
# number of rings (size 3 to 8) (size 9 to 14) (size 15 to 20)
#    0.000    2.000    1.250    1.500    3.500    2.000 
#    4.500    1.875    0.000    0.000    0.000    0.000 
#    0.000    0.000    0.000    0.000    0.000    0.000 
#
# Total GULP energy -178834.897626 kJ/mol
# GULP energy per Si atom -5588.590551 kJ/mol
# Density = 2.568688 g / cm^3
# Si number density = 25.745476 Si / 1000 Ang^3
#
#
#
# Elastic Constant Matrix: (Units=GPa)
#
#
# Indices 1 2 3 4 5 6 
#
# 1 62.2249 12.8596 25.2270 0.0038 -15.5226 -0.0134
# 2 12.8596 120.9943 22.5977 0.0007 -2.2913 -0.0026
# 3 25.2270 22.5977 109.1912 -0.0090 1.5349 0.0195
# 4 0.0038 0.0007 -0.0090 -14.9272 -0.0015 112.4312
# 5 -15.5226 -2.2913 1.5349 -0.0015 49.6388 0.0051
# 6 -0.0134 -0.0026 0.0195 112.4312 0.0051 -372.8142
#
#
#
# Elastic Compliance Matrix: (Units=1/GPa)
#
#
# Indices 1 2 3 4 5 6 
#
# 1 0.019640 -0.001150 -0.004387 0.000000 0.006224 -0.000001
# 2 -0.001150 0.008675 -0.001531 0.000000 0.000088 0.000000
# 3 -0.004387 -0.001531 0.010513 0.000002 -0.001768 0.000001
# 4 0.000000 0.000000 0.000002 0.052689 0.000000 0.015890
# 5 0.006224 0.000088 -0.001768 0.000000 0.022151 0.000000
# 6 -0.000001 0.000000 0.000001 0.015890 0.000000 0.002110
#
#
# Mechanical properties :
#
#
# Convention : Reuss Voigt Hill
#
# Bulk Modulus (GPa) = 40.49893 45.97546 43.23719
# Shear Modulus (GPa) = 36.19419 -52.17212 -7.98896
#
# Velocity S-wave (km/s) = 3.75353 -4.50650 -1.76346
# Velocity P-wave (km/s) = 5.87792 3.03012 3.56148
#
# Compressibility (1/GPa) = 0.02469201
#
# Stress axis : x y z
#
# Youngs Moduli (GPa) = 50.91753 115.27830 95.11648
#
# Poissons Ratio (x) = 0.13259 0.41727
# Poissons Ratio (y) = 0.05856 0.14560
# Poissons Ratio (z) = 0.22337 0.17647
#
# Static dielectric constant tensor:
#      x y z
#    x 2.085390 0.000000 -0.038300 
#    y 0.000000 2.042500 0.000000 
#    z -0.038300 0.000000 2.042280 
# 
# From -- ./inp_files/309085.got.cif
#   From: 2010.05.17/outbox.cif.g08.bks.cpg/sg15_155_cif.got.tgz:309085.got - 2010.06.03 18:47:42.
