data_PCOD9268067
_publ_section_title
;
Structure prediction by ZEFSAII (Michael W. Deem and Ramdas Pophale) SiO2 
 PCOD9268067
Probable space group: C 2/C
;
_chemical_formula_sum "Si O2"
_cell_formula_units_Z 60
_cell_length_a 10.584516
_cell_length_b 16.744500
_cell_length_c 14.916868
_cell_angle_alpha 90.000000
_cell_angle_beta 92.989532
_cell_angle_gamma 90.000000
_cell_volume 2640.154800
_symmetry_space_group_name_H-M "C 2/C"
_symmetry_group_IT_number 15
_symmetry_cell_setting 'monoclinic'
loop_
_space_group_symop_operation_xyz
x,y,z
-x,y,1/2-z
-x,-y,-z
x,-y,1/2+z
1/2+x,1/2+y,z
1/2-x,1/2+y,1/2-z
1/2-x,1/2-y,-z
1/2+x,1/2-y,1/2+z
loop_
_atom_site_type_symbol
_atom_site_label
_atom_site_fract_x
_atom_site_fract_y
_atom_site_fract_z
Si Si1 0.787697 0.181846 0.313878
Si Si2 0.223876 0.308302 0.625427
Si Si3 0.591097 0.820169 0.086076
Si Si4 0.948175 0.253715 0.611508
Si Si5 0.805336 0.366748 0.073721
Si Si6 0.836300 0.970233 0.911094
Si Si7 0.145244 0.912000 0.391862
Si Si8 0.000000 0.997247 0.750000
O O1 0.795426 0.153483 0.211970
O O2 0.896455 0.243573 0.347416
O O3 0.659155 0.232719 0.319208
O O4 0.762453 0.110208 0.381783
O O5 0.238850 0.351921 0.531089
O O6 0.267107 0.216119 0.619725
O O7 0.073820 0.302484 0.634683
O O8 0.458309 0.866624 0.086723
O O9 0.713388 0.875802 0.103015
O O10 0.597608 0.780853 0.988086
O O11 0.959869 0.158390 0.605462
O O12 0.740951 0.447975 0.103909
O O13 0.869195 0.961961 0.017071
O O14 0.945892 0.960675 0.840124
O O15 0.116063 0.953597 0.297102
#
# Coordination Sequence:
#
# PCOD9268067 Si02
#       8
#     8   8   8   8   8   8   8   4
#     4  11  22  41  69 103 135 179 240 283 343 419
#     4  10  23  42  69  98 137 183 237 278 340 427
#     4  10  21  43  71  96 135 186 223 276 352 421
#     4  10  19  41  70  99 129 183 225 284 333 418
#     4  10  25  45  68  99 140 185 226 291 357 412
#     4  12  26  47  67 103 143 179 233 298 357 413
#     4  11  23  45  69  99 136 177 231 287 346 423
#     4  12  30  42  68  96 130 182 228 284 358 402
#
# _framework density 22.725940000000001
#
# number of rings (size 3 to 8) (size 9 to 14) (size 15 to 20)
#    0.000    1.333    2.667    2.400    9.333    2.133 
#    0.000    1.333    0.000    0.000    0.000    0.000 
#    0.000    0.000    0.000    0.000    0.000    0.000 
#
# Total GULP energy -167475.036323 kJ/mol
# GULP energy per Si atom -5582.501211 kJ/mol
# Density = 2.267421 g / cm^3
# Si number density = 22.725940 Si / 1000 Ang^3
#
#
#
# Elastic Constant Matrix: (Units=GPa)
#
#
# Indices 1 2 3 4 5 6 
#
# 1 40.5825 19.6773 15.3934 0.0000 -7.8202 0.0000
# 2 19.6773 72.1757 18.1370 0.0000 -2.5387 0.0000
# 3 15.3934 18.1370 123.2717 0.0000 17.7043 0.0000
# 4 0.0000 0.0000 0.0000 17.6551 0.0000 -8.9273
# 5 -7.8202 -2.5387 17.7043 0.0000 27.8323 0.0000
# 6 0.0000 0.0000 0.0000 -8.9273 0.0000 19.4631
#
#
#
# Elastic Compliance Matrix: (Units=1/GPa)
#
#
# Indices 1 2 3 4 5 6 
#
# 1 0.032021 -0.007190 -0.004555 0.000000 0.011239 0.000000
# 2 -0.007190 0.016221 -0.001553 0.000000 0.000447 0.000000
# 3 -0.004555 -0.001553 0.010030 0.000000 -0.007801 0.000000
# 4 0.000000 0.000000 0.000000 0.073745 0.000000 0.033825
# 5 0.011239 0.000447 -0.007801 0.000000 0.044091 0.000000
# 6 0.000000 0.000000 0.000000 0.033825 0.000000 0.066894
#
#
# Mechanical properties :
#
#
# Convention : Reuss Voigt Hill
#
# Bulk Modulus (GPa) = 31.56930 38.04947 34.80939
# Shear Modulus (GPa) = 17.84722 25.17824 21.51273
#
# Velocity S-wave (km/s) = 2.80540 3.33214 3.08005
# Velocity P-wave (km/s) = 4.94117 5.61990 5.29143
#
# Compressibility (1/GPa) = 0.03167634
#
# Stress axis : x y z
#
# Youngs Moduli (GPa) = 31.22975 61.64744 99.70210
#
# Poissons Ratio (x) = 0.44324 0.45412
# Poissons Ratio (y) = 0.22454 0.15484
# Poissons Ratio (z) = 0.14224 0.09574
#
# Static dielectric constant tensor:
#      x y z
#    x 1.912550 0.000000 0.016260 
#    y 0.000000 1.962390 0.000000 
#    z 0.016260 0.000000 1.853710 
# 
# From -- ./inp_files/145719.got.cif
#   From: 2010.05.17/outbox.cif.g08.bks.cpg/sg15_73_cif.got.tgz:145719.got - 2010.06.03 18:47:42.
