data_PCOD9268863
_publ_section_title
;
Structure prediction by ZEFSAII (Michael W. Deem and Ramdas Pophale) SiO2 
 PCOD9268863
Probable space group: C 2/C
;
_chemical_formula_sum "Si O2"
_cell_formula_units_Z 60
_cell_length_a 21.412235
_cell_length_b 24.898438
_cell_length_c 8.893811
_cell_angle_alpha 90.000000
_cell_angle_beta 32.967920
_cell_angle_gamma 90.000000
_cell_volume 2580.216201
_symmetry_space_group_name_H-M "C 2/C"
_symmetry_group_IT_number 15
_symmetry_cell_setting 'monoclinic'
loop_
_space_group_symop_operation_xyz
x,y,z
-x,y,1/2-z
-x,-y,-z
x,-y,1/2+z
1/2+x,1/2+y,z
1/2-x,1/2+y,1/2-z
1/2-x,1/2-y,-z
1/2+x,1/2-y,1/2+z
loop_
_atom_site_type_symbol
_atom_site_label
_atom_site_fract_x
_atom_site_fract_y
_atom_site_fract_z
Si Si1 0.643377 0.180806 0.105827
Si Si2 0.598024 0.092592 0.429841
Si Si3 0.722203 0.004481 0.559691
Si Si4 0.877559 0.984487 0.494008
Si Si5 0.325539 0.629728 0.149335
Si Si6 0.500000 0.643029 0.250000
Si Si7 0.757878 0.123164 0.603046
Si Si8 0.395527 0.298189 0.241065
O O1 0.582381 0.135739 0.329744
O O2 0.580664 0.237503 0.254840
O O3 0.672509 0.156103 0.883451
O O4 0.768634 0.193941 0.924800
O O5 0.710994 0.111409 0.292590
O O6 0.621659 0.034917 0.308628
O O7 0.500000 0.090340 0.750000
O O8 0.709801 0.065883 0.638784
O O9 0.839120 0.981748 0.400233
O O10 0.759581 0.996868 0.311836
O O11 0.892541 0.926162 0.540907
O O12 0.000000 0.012333 0.250000
O O13 0.290451 0.653079 0.381332
O O14 0.390904 0.666629 0.900534
O O15 0.377815 0.614724 0.454074
O O16 0.475238 0.679052 0.447985
#
# Coordination Sequence:
#
# PCOD9268863 Si02
#       8
#     8   8   8   8   8   4   8   8
#     4   9  19  38  61  87 120 156 205 262 307 364
#     4  10  21  41  66  86 114 168 213 268 307 368
#     4  10  21  36  55  89 121 157 211 247 304 364
#     4  10  20  33  54  81 121 164 194 246 297 375
#     4   9  21  37  58  88 129 154 205 251 320 365
#     4  10  22  34  62  92 120 170 208 242 306 386
#     4  10  21  38  58  88 131 162 200 256 304 374
#     4   9  19  36  60  89 120 159 201 256 310 371
#
# _framework density 23.253865000000001
#
# number of rings (size 3 to 8) (size 9 to 14) (size 15 to 20)
#    0.000    2.400    0.000    1.200    5.600    1.600 
#    0.000   11.333    2.933    0.000    0.000    0.000 
#    0.000    0.000    0.000    0.000    0.000    0.000 
#
# Total GULP energy -167405.069149 kJ/mol
# GULP energy per Si atom -5580.168972 kJ/mol
# Density = 2.320094 g / cm^3
# Si number density = 23.253865 Si / 1000 Ang^3
#
#
#
# Elastic Constant Matrix: (Units=GPa)
#
#
# Indices 1 2 3 4 5 6 
#
# 1 39.1140 16.3568 14.3927 0.0002 18.8617 -0.0002
# 2 16.3568 119.9855 79.0326 0.0001 18.9147 -0.0001
# 3 14.3927 79.0326 173.3002 0.0002 37.9796 -0.0001
# 4 0.0002 0.0001 0.0002 25.9525 -0.0001 6.3733
# 5 18.8617 18.9147 37.9796 -0.0001 43.7330 0.0001
# 6 -0.0002 -0.0001 -0.0001 6.3733 0.0001 12.2293
#
#
#
# Elastic Compliance Matrix: (Units=1/GPa)
#
#
# Indices 1 2 3 4 5 6 
#
# 1 0.033370 -0.003615 0.002086 -0.000001 -0.014640 0.000001
# 2 -0.003615 0.012315 -0.005546 0.000000 0.001049 0.000000
# 3 0.002086 -0.005546 0.009631 0.000000 -0.006865 0.000000
# 4 -0.000001 0.000000 0.000000 0.044187 0.000001 -0.023028
# 5 -0.014640 0.001049 -0.006865 0.000001 0.034688 -0.000001
# 6 0.000001 0.000000 0.000000 -0.023028 -0.000001 0.093772
#
#
# Mechanical properties :
#
#
# Convention : Reuss Voigt Hill
#
# Bulk Modulus (GPa) = 24.29223 61.32932 42.81077
# Shear Modulus (GPa) = 19.54386 31.22412 25.38399
#
# Velocity S-wave (km/s) = 2.90221 3.66833 3.30753
# Velocity P-wave (km/s) = 4.65829 6.66133 5.74773
#
# Compressibility (1/GPa) = 0.04116543
#
# Stress axis : x y z
#
# Youngs Moduli (GPa) = 29.96669 81.20408 103.83524
#
# Poissons Ratio (x) = 0.29356 -0.21656
# Poissons Ratio (y) = 0.10833 0.57584
# Poissons Ratio (z) = -0.06250 0.45034
#
# Static dielectric constant tensor:
#      x y z
#    x 1.885100 0.000000 -0.042010 
#    y 0.000000 1.932850 0.000000 
#    z -0.042010 0.000000 1.872060 
# 
# From -- ./inp_files/67788.got.cif
#   From: 2010.05.17/outbox.cif.g08.bks.cpg/sg15_34_cif.got.tgz:67788.got - 2010.06.03 18:47:42.
