data_PCOD9268190
_publ_section_title
;
Structure prediction by ZEFSAII (Michael W. Deem and Ramdas Pophale) SiO2 
 PCOD9268190
Probable space group: C 2/C
;
_chemical_formula_sum "Si O2"
_cell_formula_units_Z 52
_cell_length_a 7.964590
_cell_length_b 17.492090
_cell_length_c 20.884419
_cell_angle_alpha 90.000000
_cell_angle_beta 123.189925
_cell_angle_gamma 90.000000
_cell_volume 2434.897248
_symmetry_space_group_name_H-M "C 2/C"
_symmetry_group_IT_number 15
_symmetry_cell_setting 'monoclinic'
loop_
_space_group_symop_operation_xyz
x,y,z
-x,y,1/2-z
-x,-y,-z
x,-y,1/2+z
1/2+x,1/2+y,z
1/2-x,1/2+y,1/2-z
1/2-x,1/2-y,-z
1/2+x,1/2-y,1/2+z
loop_
_atom_site_type_symbol
_atom_site_label
_atom_site_fract_x
_atom_site_fract_y
_atom_site_fract_z
Si Si1 0.881709 0.986329 0.664253
Si Si2 0.579716 0.355605 0.638626
Si Si3 0.518831 0.047988 0.865447
Si Si4 0.957012 0.908446 0.482419
Si Si5 0.500000 0.927558 0.750000
Si Si6 0.817779 0.699097 0.803571
Si Si7 0.020603 0.152365 0.853053
O O1 0.652305 0.011409 0.624913
O O2 0.000000 0.954120 0.750000
O O3 0.917850 0.920378 0.621494
O O4 0.000770 0.064701 0.675870
O O5 0.573585 0.361040 0.560829
O O6 0.797967 0.378144 0.712852
O O7 0.542085 0.271866 0.658370
O O8 0.552930 0.982028 0.820759
O O9 0.715985 0.084994 0.937158
O O10 0.424390 0.120263 0.810636
O O11 0.015729 0.865927 0.427671
O O12 0.000000 0.000000 0.500000
O O13 0.709137 0.684609 0.850645
O O14 0.655510 0.704656 0.712792
#
# Coordination Sequence:
#
# PCOD9268190 Si02
#       7
#     8   8   8   8   4   8   8
#     4  11  19  40  67  97 125 177 234 276 312 399
#     4  12  25  41  66 101 139 163 230 285 328 393
#     4  11  22  39  67  89 128 182 218 265 344 397
#     4  12  24  41  66 103 133 171 218 289 334 397
#     4  12  20  40  68  96 122 174 234 270 314 406
#     4  10  22  42  66  95 130 181 217 270 329 413
#     4  10  19  43  70  92 133 177 221 266 344 404
#
# _framework density 21.356134999999998
#
# number of rings (size 3 to 8) (size 9 to 14) (size 15 to 20)
#    0.000    0.923    7.692    1.846    0.000    1.846 
#    4.154    0.000    0.000    0.000    0.000    0.000 
#    0.000    0.000    0.000    0.000    0.000    0.000 
#
# Total GULP energy -144773.847170 kJ/mol
# GULP energy per Si atom -5568.224891 kJ/mol
# Density = 2.130753 g / cm^3
# Si number density = 21.356135 Si / 1000 Ang^3
#
#
#
# Elastic Constant Matrix: (Units=GPa)
#
#
# Indices 1 2 3 4 5 6 
#
# 1 39.6631 11.6081 17.9894 0.0000 4.2218 0.0000
# 2 11.6081 64.7939 8.3048 0.0000 -11.7153 0.0000
# 3 17.9894 8.3048 68.5912 0.0000 -17.4949 0.0000
# 4 0.0000 0.0000 0.0000 22.7124 0.0000 -4.5322
# 5 4.2218 -11.7153 -17.4949 0.0000 35.0158 0.0000
# 6 0.0000 0.0000 0.0000 -4.5322 0.0000 10.8054
#
#
#
# Elastic Compliance Matrix: (Units=1/GPa)
#
#
# Indices 1 2 3 4 5 6 
#
# 1 0.033382 -0.006700 -0.010936 0.000000 -0.011730 0.000000
# 2 -0.006700 0.017799 0.001521 0.000000 0.007523 0.000000
# 3 -0.010936 0.001521 0.020318 0.000000 0.011979 0.000000
# 4 0.000000 0.000000 0.000000 0.048051 0.000000 0.020154
# 5 -0.011730 0.007523 0.011979 0.000000 0.038475 0.000000
# 6 0.000000 0.000000 0.000000 0.020154 0.000000 0.101000
#
#
# Mechanical properties :
#
#
# Convention : Reuss Voigt Hill
#
# Bulk Modulus (GPa) = 25.46472 27.65030 26.55751
# Shear Modulus (GPa) = 16.42880 22.71644 19.57262
#
# Velocity S-wave (km/s) = 2.77659 3.26497 3.03064
# Velocity P-wave (km/s) = 4.71477 5.21428 4.97080
#
# Compressibility (1/GPa) = 0.03927002
#
# Stress axis : x y z
#
# Youngs Moduli (GPa) = 29.95655 56.18267 49.21629
#
# Poissons Ratio (x) = 0.37641 0.53822
# Poissons Ratio (y) = 0.20070 -0.07485
# Poissons Ratio (z) = 0.32760 -0.08544
#
# Static dielectric constant tensor:
#      x y z
#    x 1.913010 0.000000 -0.012650 
#    y 0.000000 1.742130 0.000000 
#    z -0.012650 0.000000 1.849560 
# 
# From -- ./inp_files/233110.got.cif
#   From: 2010.05.17/outbox.cif.g08.bks.cpg/sg15_117_cif.got.tgz:233110.got - 2010.06.03 18:47:42.
