data_PCOD9268280
_publ_section_title
;
Structure prediction by ZEFSAII (Michael W. Deem and Ramdas Pophale) SiO2 
 PCOD9268280
Probable space group: C 2/C
;
_chemical_formula_sum "Si O2"
_cell_formula_units_Z 36
_cell_length_a 21.047469
_cell_length_b 18.582812
_cell_length_c 9.265254
_cell_angle_alpha 90.000000
_cell_angle_beta 151.095351
_cell_angle_gamma 90.000000
_cell_volume 1751.593943
_symmetry_space_group_name_H-M "C 2/C"
_symmetry_group_IT_number 15
_symmetry_cell_setting 'monoclinic'
loop_
_space_group_symop_operation_xyz
x,y,z
-x,y,1/2-z
-x,-y,-z
x,-y,1/2+z
1/2+x,1/2+y,z
1/2-x,1/2+y,1/2-z
1/2-x,1/2-y,-z
1/2+x,1/2-y,1/2+z
loop_
_atom_site_type_symbol
_atom_site_label
_atom_site_fract_x
_atom_site_fract_y
_atom_site_fract_z
Si Si1 0.500000 0.503619 0.750000
Si Si2 0.244166 0.248674 0.243743
Si Si3 0.139155 0.912366 0.272028
Si Si4 0.117266 0.335707 0.735373
Si Si5 0.563347 0.717528 0.135241
O O1 0.411918 0.455366 0.468226
O O2 0.412762 0.550813 0.685625
O O3 0.322351 0.197642 0.291103
O O4 0.345583 0.293034 0.544566
O O5 0.148542 0.205936 0.161394
O O6 0.161583 0.298759 0.973450
O O7 0.297939 0.908230 0.588048
O O8 0.064498 0.833894 0.117147
O O9 0.970960 0.303590 0.433191
#
# Coordination Sequence:
#
# PCOD9268280 Si02
#       5
#     4   8   8   8   8
#     4  10  24  34  56  78 110 166 188 236 266 310
#     4  10  20  30  50  88 114 148 162 220 306 340
#     4  11  20  37  53  80 111 147 197 229 271 332
#     4  11  20  32  56  81 117 145 173 235 291 334
#     4  11  20  33  55  85 120 135 183 232 295 343
#
# _framework density 20.552709
#
# number of rings (size 3 to 8) (size 9 to 14) (size 15 to 20)
#    0.000    1.333    4.444    4.000    0.000    0.000 
#    0.000    0.000    0.000    0.000    0.000  105.778 
#    0.000    0.000    0.000    0.000    0.000    0.000 
#
# Total GULP energy -100218.579305 kJ/mol
# GULP energy per Si atom -5567.698850 kJ/mol
# Density = 2.050593 g / cm^3
# Si number density = 20.552709 Si / 1000 Ang^3
#
#
#
# Elastic Constant Matrix: (Units=GPa)
#
#
# Indices 1 2 3 4 5 6 
#
# 1 83.0169 12.2463 40.4898 0.0000 -34.1689 0.0000
# 2 12.2463 50.5372 18.0967 0.0000 -4.8527 0.0000
# 3 40.4898 18.0967 54.2564 0.0000 -11.9216 0.0000
# 4 0.0000 0.0000 0.0000 26.0435 0.0000 4.7749
# 5 -34.1689 -4.8527 -11.9216 0.0000 32.9320 0.0000
# 6 0.0000 0.0000 0.0000 4.7749 0.0000 19.1305
#
#
#
# Elastic Compliance Matrix: (Units=1/GPa)
#
#
# Indices 1 2 3 4 5 6 
#
# 1 0.031604 0.001414 -0.018258 0.000000 0.026390 0.000000
# 2 0.001414 0.022547 -0.008173 0.000000 0.001830 0.000000
# 3 -0.018258 -0.008173 0.032979 0.000000 -0.008210 0.000000
# 4 0.000000 0.000000 0.000000 0.040239 0.000000 -0.010043
# 5 0.026390 0.001830 -0.008210 0.000000 0.055044 0.000000
# 6 0.000000 0.000000 0.000000 -0.010043 0.000000 0.054779
#
#
# Mechanical properties :
#
#
# Convention : Reuss Voigt Hill
#
# Bulk Modulus (GPa) = 26.95803 36.60844 31.78323
# Shear Modulus (GPa) = 16.68938 23.41973 20.05455
#
# Velocity S-wave (km/s) = 2.85270 3.37930 3.12711
# Velocity P-wave (km/s) = 4.89853 5.75125 5.34193
#
# Compressibility (1/GPa) = 0.03709470
#
# Stress axis : x y z
#
# Youngs Moduli (GPa) = 31.64171 44.35117 30.32277
#
# Poissons Ratio (x) = -0.06269 0.55363
# Poissons Ratio (y) = -0.04473 0.24783
# Poissons Ratio (z) = 0.57771 0.36249
#
# Static dielectric constant tensor:
#      x y z
#    x 1.738870 0.000000 0.061230 
#    y 0.000000 1.816870 0.000000 
#    z 0.061230 0.000000 1.813590 
# 
# From -- ./inp_files/57667.got.cif
#   From: 2010.05.17/outbox.cif.g08.bks.cpg/sg15_29_cif.got.tgz:57667.got - 2010.06.03 18:47:42.
