data_PCOD9268125
_publ_section_title
;
Structure prediction by ZEFSAII (Michael W. Deem and Ramdas Pophale) SiO2 
 PCOD9268125
Probable space group: C 2/C
;
_chemical_formula_sum "Si O2"
_cell_formula_units_Z 56
_cell_length_a 22.094666
_cell_length_b 17.834644
_cell_length_c 14.142506
_cell_angle_alpha 90.000000
_cell_angle_beta 26.274335
_cell_angle_gamma 90.000000
_cell_volume 2466.936276
_symmetry_space_group_name_H-M "C 2/C"
_symmetry_group_IT_number 15
_symmetry_cell_setting 'monoclinic'
loop_
_space_group_symop_operation_xyz
x,y,z
-x,y,1/2-z
-x,-y,-z
x,-y,1/2+z
1/2+x,1/2+y,z
1/2-x,1/2+y,1/2-z
1/2-x,1/2-y,-z
1/2+x,1/2-y,1/2+z
loop_
_atom_site_type_symbol
_atom_site_label
_atom_site_fract_x
_atom_site_fract_y
_atom_site_fract_z
Si Si1 0.822270 0.445026 0.216510
Si Si2 0.251556 0.184894 0.579361
Si Si3 0.905007 0.685577 0.733735
Si Si4 0.059049 0.922365 0.456492
Si Si5 0.297239 0.346800 0.838451
Si Si6 0.706599 0.811718 0.774376
Si Si7 0.114129 0.572280 0.241374
O O1 0.869673 0.368333 0.197051
O O2 0.689597 0.437562 0.338862
O O3 0.801917 0.502807 0.331769
O O4 0.959626 0.460714 0.962032
O O5 0.250000 0.250000 0.500000
O O6 0.113233 0.139631 0.803318
O O7 0.281571 0.237903 0.628547
O O8 0.347636 0.116981 0.407855
O O9 0.827463 0.760260 0.813346
O O10 0.062270 0.708453 0.525068
O O11 0.843314 0.641898 0.909894
O O12 0.928631 0.888992 0.693606
O O13 0.000000 0.000000 0.500000
O O14 0.287439 0.357985 0.739868
O O15 0.656194 0.864691 0.760307
#
# Coordination Sequence:
#
# PCOD9268125 Si02
#       7
#     8   8   8   8   8   8   8
#     4  10  22  44  67  96 139 178 231 291 342 421
#     4  10  22  44  70 102 137 181 238 281 351 421
#     4  10  22  38  65  91 128 182 232 272 342 415
#     4  12  26  43  65 102 147 178 225 296 363 416
#     4  11  23  39  61  97 134 177 226 281 351 414
#     4  10  19  42  66  94 135 172 231 292 333 412
#     4   9  21  42  70  96 128 184 233 278 346 420
#
# _framework density 22.700220999999999
#
# number of rings (size 3 to 8) (size 9 to 14) (size 15 to 20)
#    0.000    1.714    1.429    2.143    2.000    1.143 
#    2.571    5.000    0.000    0.000    0.000    0.000 
#    0.000    0.000    0.000    0.000    0.000    0.000 
#
# Total GULP energy -155896.714363 kJ/mol
# GULP energy per Si atom -5567.739799 kJ/mol
# Density = 2.264855 g / cm^3
# Si number density = 22.700221 Si / 1000 Ang^3
#
#
#
# Elastic Constant Matrix: (Units=GPa)
#
#
# Indices 1 2 3 4 5 6 
#
# 1 92.9968 12.8052 38.7356 0.0000 -18.1542 0.0000
# 2 12.8052 89.9739 14.4337 0.0000 2.5181 0.0000
# 3 38.7356 14.4337 69.0012 -0.0002 -7.8101 0.0000
# 4 0.0000 0.0000 -0.0002 32.4925 0.0000 -0.6901
# 5 -18.1542 2.5181 -7.8101 0.0000 24.5402 0.0000
# 6 0.0000 0.0000 0.0000 -0.6901 0.0000 18.8709
#
#
#
# Elastic Compliance Matrix: (Units=1/GPa)
#
#
# Indices 1 2 3 4 5 6 
#
# 1 0.015962 -0.001318 -0.007607 0.000000 0.009523 0.000000
# 2 -0.001318 0.011706 -0.002028 0.000000 -0.002822 0.000000
# 3 -0.007607 -0.002028 0.019268 0.000000 0.000713 0.000000
# 4 0.000000 0.000000 0.000000 0.030800 0.000000 0.001126
# 5 0.009523 -0.002822 0.000713 0.000000 0.048310 0.000000
# 6 0.000000 0.000000 0.000000 0.001126 0.000000 0.053033
#
#
# Mechanical properties :
#
#
# Convention : Reuss Voigt Hill
#
# Bulk Modulus (GPa) = 39.95280 42.65788 41.30534
# Shear Modulus (GPa) = 23.88579 27.58054 25.73316
#
# Velocity S-wave (km/s) = 3.24732 3.48945 3.37056
# Velocity P-wave (km/s) = 5.63015 5.92180 5.77781
#
# Compressibility (1/GPa) = 0.02502953
#
# Stress axis : x y z
#
# Youngs Moduli (GPa) = 62.64859 85.42448 51.89967
#
# Poissons Ratio (x) = 0.11258 0.39481
# Poissons Ratio (y) = 0.08256 0.10527
# Poissons Ratio (z) = 0.47658 0.17326
#
# Static dielectric constant tensor:
#      x y z
#    x 1.890850 0.000000 0.088050 
#    y 0.000000 1.886560 0.000000 
#    z 0.088050 0.000000 1.987360 
# 
# From -- ./inp_files/169116.got.cif
#   From: 2010.05.17/outbox.cif.g08.bks.cpg/sg15_85_cif.got.tgz:169116.got - 2010.06.03 18:47:42.
