data_PCOD9268819
_publ_section_title
;
Structure prediction by ZEFSAII (Michael W. Deem and Ramdas Pophale) SiO2 
 PCOD9268819
Probable space group: C 2/C
;
_chemical_formula_sum "Si O2"
_cell_formula_units_Z 40
_cell_length_a 9.170103
_cell_length_b 18.460377
_cell_length_c 18.429656
_cell_angle_alpha 90.000000
_cell_angle_beta 150.770184
_cell_angle_gamma 90.000000
_cell_volume 1523.459985
_symmetry_space_group_name_H-M "C 2/C"
_symmetry_group_IT_number 15
_symmetry_cell_setting 'monoclinic'
loop_
_space_group_symop_operation_xyz
x,y,z
-x,y,1/2-z
-x,-y,-z
x,-y,1/2+z
1/2+x,1/2+y,z
1/2-x,1/2+y,1/2-z
1/2-x,1/2-y,-z
1/2+x,1/2-y,1/2+z
loop_
_atom_site_type_symbol
_atom_site_label
_atom_site_fract_x
_atom_site_fract_y
_atom_site_fract_z
Si Si1 0.850871 0.297169 0.112904
Si Si2 0.317538 0.016706 0.605121
Si Si3 0.224049 0.647666 0.407372
Si Si4 0.320034 0.478308 0.608336
Si Si5 0.959992 0.860425 0.315805
O O1 0.000000 0.260236 0.250000
O O2 0.141078 0.338212 0.207135
O O3 0.750000 0.250000 0.000000
O O4 0.553210 0.339538 0.013572
O O5 0.500000 0.050921 0.750000
O O6 0.424874 0.932938 0.642330
O O7 0.255366 0.054241 0.501824
O O8 0.000000 0.000000 0.500000
O O9 0.291528 0.669256 0.520213
O O10 0.000000 0.679985 0.250000
O O11 0.500000 0.438629 0.750000
O O12 0.506053 0.551632 0.670711
O O13 0.000000 0.500000 0.500000
O O14 0.000000 0.838808 0.250000
#
# Coordination Sequence:
#
# PCOD9268819 Si02
#       5
#     8   8   8   8   8
#     4  10  22  40  62  86 116 156 202 252 308 362
#     4  10  20  33  53  80 109 147 190 232 282 346
#     4   9  20  38  58  84 117 151 195 251 301 356
#     4  10  20  35  54  81 118 158 195 237 292 355
#     4   9  20  38  57  83 118 156 195 246 303 359
#
# _framework density 26.256022999999999
#
# number of rings (size 3 to 8) (size 9 to 14) (size 15 to 20)
#    0.000    2.400    0.000    1.200    0.000    9.600 
#    0.000    4.000    0.000    1.200    0.000    0.000 
#    0.000    0.000    0.000    0.000    0.000    0.000 
#
# Total GULP energy -111563.210106 kJ/mol
# GULP energy per Si atom -5578.160505 kJ/mol
# Density = 2.619626 g / cm^3
# Si number density = 26.256023 Si / 1000 Ang^3
#
#
#
# Elastic Constant Matrix: (Units=GPa)
#
#
# Indices 1 2 3 4 5 6 
#
# 1 182.1588 0.4808 110.2191 -0.0075 -67.4178 -0.0003
# 2 0.4808 78.4738 24.1110 -0.0063 -22.4083 -0.0023
# 3 110.2191 24.1110 288.3941 -0.0126 -71.3512 -0.0038
# 4 -0.0075 -0.0063 -0.0126 16.1671 -0.0044 3.2336
# 5 -67.4178 -22.4083 -71.3512 -0.0044 77.6428 -0.0010
# 6 -0.0003 -0.0023 -0.0038 3.2336 -0.0010 15.4931
#
#
#
# Elastic Compliance Matrix: (Units=1/GPa)
#
#
# Indices 1 2 3 4 5 6 
#
# 1 0.009281 0.002546 -0.002050 0.000006 0.006909 -0.000001
# 2 0.002546 0.014597 -0.000782 0.000008 0.005705 0.000001
# 3 -0.002050 -0.000782 0.004944 0.000003 0.002538 0.000001
# 4 0.000006 0.000008 0.000003 0.064548 0.000014 -0.013472
# 5 0.006909 0.005705 0.002538 0.000014 0.022857 0.000000
# 6 -0.000001 0.000001 0.000001 -0.013472 0.000000 0.067357
#
#
# Mechanical properties :
#
#
# Convention : Reuss Voigt Hill
#
# Bulk Modulus (GPa) = 35.39940 90.96096 63.18018
# Shear Modulus (GPa) = 25.83003 49.47499 37.65251
#
# Velocity S-wave (km/s) = 3.13992 4.34560 3.79100
# Velocity P-wave (km/s) = 5.16306 7.73938 6.57857
#
# Compressibility (1/GPa) = 0.02824907
#
# Stress axis : x y z
#
# Youngs Moduli (GPa) = 107.75036 68.50819 202.25273
#
# Poissons Ratio (x) = -0.17442 0.41470
# Poissons Ratio (y) = -0.27433 0.15815
# Poissons Ratio (z) = 0.22093 0.05357
#
# Static dielectric constant tensor:
#      x y z
#    x 2.062290 -0.000010 -0.020220 
#    y -0.000010 2.380710 -0.000030 
#    z -0.020220 -0.000030 2.032270 
# 
# From -- ./inp_files/23752.got.cif
#   From: 2010.05.17/outbox.cif.g08.bks.cpg/sg15_12_cif.got.tgz:23752.got - 2010.06.03 18:47:42.
