data_PCOD9268055
_publ_section_title
;
Structure prediction by ZEFSAII (Michael W. Deem and Ramdas Pophale) SiO2 
 PCOD9268055
Probable space group: C 2/C
;
_chemical_formula_sum "Si O2"
_cell_formula_units_Z 64
_cell_length_a 19.472690
_cell_length_b 11.511167
_cell_length_c 21.745722
_cell_angle_alpha 90.000000
_cell_angle_beta 40.476124
_cell_angle_gamma 90.000000
_cell_volume 3164.109948
_symmetry_space_group_name_H-M "C 2/C"
_symmetry_group_IT_number 15
_symmetry_cell_setting 'monoclinic'
loop_
_space_group_symop_operation_xyz
x,y,z
-x,y,1/2-z
-x,-y,-z
x,-y,1/2+z
1/2+x,1/2+y,z
1/2-x,1/2+y,1/2-z
1/2-x,1/2-y,-z
1/2+x,1/2-y,1/2+z
loop_
_atom_site_type_symbol
_atom_site_label
_atom_site_fract_x
_atom_site_fract_y
_atom_site_fract_z
Si Si1 0.111144 0.713798 0.407084
Si Si2 0.887932 0.928322 0.356411
Si Si3 0.708065 0.153320 0.893585
Si Si4 0.451956 0.960126 0.446506
Si Si5 0.773763 0.386106 0.481137
Si Si6 0.805255 0.504482 0.213766
Si Si7 0.316088 0.443165 0.083208
Si Si8 0.069077 0.150802 0.537111
O O1 0.047211 0.626542 0.495506
O O2 0.197702 0.630117 0.317065
O O3 0.157709 0.810801 0.419509
O O4 0.038114 0.783389 0.408567
O O5 0.817251 0.857630 0.356012
O O6 0.907761 0.856149 0.405892
O O7 0.000000 0.958694 0.250000
O O8 0.816755 0.041495 0.420543
O O9 0.720127 0.098290 0.817660
O O10 0.659799 0.279715 0.937886
O O11 0.620695 0.069202 0.985083
O O12 0.387347 0.905290 0.434596
O O13 0.571706 0.992380 0.351178
O O14 0.750000 0.250000 0.500000
O O15 0.763868 0.439174 0.419679
O O16 0.732923 0.494432 0.321810
O O17 0.418530 0.517779 0.993539
#
# Coordination Sequence:
#
# PCOD9268055 Si02
#       8
#     8   8   8   8   8   8   8   8
#     4  11  21  41  64  91 127 171 207 256 320 375
#     4  10  24  40  62  95 124 166 212 256 323 383
#     4  10  20  41  65  88 125 171 206 252 317 376
#     4  10  19  41  69  85 119 174 211 251 311 383
#     4  10  21  45  64  86 131 167 209 262 317 378
#     4  11  23  39  65  95 124 162 222 257 305 382
#     4  11  26  38  60 101 126 165 209 266 322 367
#     4  11  22  41  64  88 134 164 209 262 319 379
#
# _framework density 20.226858
#
# number of rings (size 3 to 8) (size 9 to 14) (size 15 to 20)
#    0.000    1.500    3.750    1.500    3.500    0.500 
#    2.250    0.000    0.000    0.000    0.000    0.000 
#    0.000    0.000    0.000    0.000    0.000    0.000 
#
# Total GULP energy -178655.846624 kJ/mol
# GULP energy per Si atom -5582.995207 kJ/mol
# Density = 2.018082 g / cm^3
# Si number density = 20.226858 Si / 1000 Ang^3
#
#
#
# Elastic Constant Matrix: (Units=GPa)
#
#
# Indices 1 2 3 4 5 6 
#
# 1 110.2784 3.4563 8.7336 0.0000 7.0904 0.0000
# 2 3.4563 71.6589 2.9576 0.0000 8.6575 0.0000
# 3 8.7336 2.9576 51.0525 0.0000 8.0823 0.0000
# 4 0.0000 0.0000 0.0000 13.2482 0.0000 -0.6993
# 5 7.0904 8.6575 8.0823 0.0000 26.2115 0.0000
# 6 0.0000 0.0000 0.0000 -0.6993 0.0000 31.9080
#
#
#
# Elastic Compliance Matrix: (Units=1/GPa)
#
#
# Indices 1 2 3 4 5 6 
#
# 1 0.009306 -0.000145 -0.001254 0.000000 -0.002083 0.000000
# 2 -0.000145 0.014538 -0.000067 0.000000 -0.004742 0.000000
# 3 -0.001254 -0.000067 0.020762 0.000000 -0.006041 0.000000
# 4 0.000000 0.000000 0.000000 0.075569 0.000000 0.001656
# 5 -0.002083 -0.004742 -0.006041 0.000000 0.042143 0.000000
# 6 0.000000 0.000000 0.000000 0.001656 0.000000 0.031376
#
#
# Mechanical properties :
#
#
# Convention : Reuss Voigt Hill
#
# Bulk Modulus (GPa) = 23.99581 29.25386 26.62483
# Shear Modulus (GPa) = 23.75094 28.79638 26.27366
#
# Velocity S-wave (km/s) = 3.43042 3.77725 3.60800
# Velocity P-wave (km/s) = 5.25161 5.78945 5.52708
#
# Compressibility (1/GPa) = 0.04167395
#
# Stress axis : x y z
#
# Youngs Moduli (GPa) = 107.46078 68.78696 48.16402
#
# Poissons Ratio (x) = 0.01001 0.06039
# Poissons Ratio (y) = 0.01563 0.00321
# Poissons Ratio (z) = 0.13473 0.00458
#
# Static dielectric constant tensor:
#      x y z
#    x 1.728460 0.000000 0.009420 
#    y 0.000000 1.745540 0.000000 
#    z 0.009420 0.000000 1.685010 
# 
# From -- ./inp_files/279894.got.cif
#   From: 2010.05.17/outbox.cif.g08.bks.cpg/sg15_140_cif.got.tgz:279894.got - 2010.06.03 18:47:42.
