data_PCOD9268310
_publ_section_title
;
Structure prediction by ZEFSAII (Michael W. Deem and Ramdas Pophale) SiO2 
 PCOD9268310
Probable space group: C 2/C
;
_chemical_formula_sum "Si O2"
_cell_formula_units_Z 48
_cell_length_a 15.862009
_cell_length_b 31.194810
_cell_length_c 15.383289
_cell_angle_alpha 90.000000
_cell_angle_beta 161.537721
_cell_angle_gamma 90.000000
_cell_volume 2410.519892
_symmetry_space_group_name_H-M "C 2/C"
_symmetry_group_IT_number 15
_symmetry_cell_setting 'monoclinic'
loop_
_space_group_symop_operation_xyz
x,y,z
-x,y,1/2-z
-x,-y,-z
x,-y,1/2+z
1/2+x,1/2+y,z
1/2-x,1/2+y,1/2-z
1/2-x,1/2-y,-z
1/2+x,1/2-y,1/2+z
loop_
_atom_site_type_symbol
_atom_site_label
_atom_site_fract_x
_atom_site_fract_y
_atom_site_fract_z
Si Si1 0.070291 0.366629 0.609004
Si Si2 0.470007 0.433003 0.820050
Si Si3 0.590424 0.648765 0.527944
Si Si4 0.444748 0.046915 0.910318
Si Si5 0.513407 0.220688 0.158251
Si Si6 0.606537 0.724328 0.263708
O O1 0.893904 0.351210 0.353951
O O2 0.965661 0.416246 0.506518
O O3 0.020113 0.327925 0.627754
O O4 0.386607 0.368682 0.902084
O O5 0.500000 0.447375 0.750000
O O6 0.174078 0.440515 0.565678
O O7 0.544239 0.382877 0.902294
O O8 0.670952 0.452928 0.088125
O O9 0.478604 0.694876 0.397628
O O10 0.500000 0.000000 0.000000
O O11 0.500000 0.217328 0.250000
O O12 0.766878 0.250498 0.385095
O O13 0.500000 0.705030 0.250000
O O14 0.917261 0.733945 0.571227
#
# Coordination Sequence:
#
# PCOD9268310 Si02
#       6
#     8   8   8   8   8   8
#     4  10  21  35  55  80 103 138 179 216 274 334
#     4  10  20  36  58  82 108 143 186 222 267 334
#     4  10  20  33  51  75 103 135 173 219 259 306
#     4  10  21  38  59  83 116 148 180 234 289 336
#     4  10  21  37  56  78 108 144 183 233 286 336
#     4  10  20  31  43  64  98 136 169 204 249 292
#
# _framework density 19.912717000000001
#
# number of rings (size 3 to 8) (size 9 to 14) (size 15 to 20)
#    0.000    2.000    0.000    3.500    0.000    4.000 
#    0.000    6.667    0.000    2.000    0.000    0.000 
#    0.000    0.000    0.000    0.000    0.000    0.000 
#
# Total GULP energy -133657.190183 kJ/mol
# GULP energy per Si atom -5569.049591 kJ/mol
# Density = 1.986740 g / cm^3
# Si number density = 19.912717 Si / 1000 Ang^3
#
#
#
# Elastic Constant Matrix: (Units=GPa)
#
#
# Indices 1 2 3 4 5 6 
#
# 1 32.6352 33.3979 7.1875 -0.0024 -3.0720 -0.0006
# 2 33.3979 119.1793 13.8277 -0.0018 -14.7745 -0.0013
# 3 7.1875 13.8277 91.8942 -0.0037 7.7938 0.0005
# 4 -0.0024 -0.0018 -0.0037 23.5292 -0.0016 -5.8241
# 5 -3.0720 -14.7745 7.7938 -0.0016 16.0672 0.0000
# 6 -0.0006 -0.0013 0.0005 -5.8241 0.0000 17.1918
#
#
#
# Elastic Compliance Matrix: (Units=1/GPa)
#
#
# Indices 1 2 3 4 5 6 
#
# 1 0.043261 -0.012259 -0.001340 0.000004 -0.002352 0.000002
# 2 -0.012259 0.013415 -0.001989 0.000000 0.010957 0.000001
# 3 -0.001340 -0.001989 0.011955 0.000001 -0.007884 0.000000
# 4 0.000004 0.000000 0.000001 0.046391 0.000005 0.015716
# 5 -0.002352 0.010957 -0.007884 0.000005 0.075689 0.000003
# 6 0.000002 0.000001 0.000000 0.015716 0.000003 0.063491
#
#
# Mechanical properties :
#
#
# Convention : Reuss Voigt Hill
#
# Bulk Modulus (GPa) = 26.69831 39.17052 32.93441
# Shear Modulus (GPa) = 16.78625 23.97734 20.38179
#
# Velocity S-wave (km/s) = 2.90658 3.47381 3.20278
# Velocity P-wave (km/s) = 4.97002 5.98361 5.50021
#
# Compressibility (1/GPa) = 0.03745556
#
# Stress axis : x y z
#
# Youngs Moduli (GPa) = 23.11537 74.54202 83.64818
#
# Poissons Ratio (x) = 0.91383 0.11205
# Poissons Ratio (y) = 0.28338 0.16638
# Poissons Ratio (z) = 0.03096 0.14827
#
# Static dielectric constant tensor:
#      x y z
#    x 1.725360 0.000000 0.019700 
#    y 0.000000 1.761170 0.000000 
#    z 0.019700 0.000000 1.702870 
# 
# From -- ./inp_files/8848.got.cif
#   From: 2010.05.17/outbox.cif.g08.bks.cpg/sg15_5_cif.got.tgz:8848.got - 2010.06.03 18:47:42.
