data_PCOD9268997
_publ_section_title
;
Structure prediction by ZEFSAII (Michael W. Deem and Ramdas Pophale) SiO2 
 PCOD9268997
Probable space group: C 2/C
;
_chemical_formula_sum "Si O2"
_cell_formula_units_Z 44
_cell_length_a 26.349816
_cell_length_b 7.014170
_cell_length_c 15.047515
_cell_angle_alpha 90.000000
_cell_angle_beta 145.197342
_cell_angle_gamma 90.000000
_cell_volume 1587.324952
_symmetry_space_group_name_H-M "C 2/C"
_symmetry_group_IT_number 15
_symmetry_cell_setting 'monoclinic'
loop_
_space_group_symop_operation_xyz
x,y,z
-x,y,1/2-z
-x,-y,-z
x,-y,1/2+z
1/2+x,1/2+y,z
1/2-x,1/2+y,1/2-z
1/2-x,1/2-y,-z
1/2+x,1/2-y,1/2+z
loop_
_atom_site_type_symbol
_atom_site_label
_atom_site_fract_x
_atom_site_fract_y
_atom_site_fract_z
Si Si1 0.866338 0.612773 0.632704
Si Si2 0.205097 0.424317 0.274689
Si Si3 0.000000 0.075799 0.250000
Si Si4 0.534542 0.014479 0.449979
Si Si5 0.778892 0.847814 0.136244
Si Si6 0.608950 0.408037 0.054255
O O1 0.818320 0.646311 0.659071
O O2 0.915952 0.801585 0.669130
O O3 0.796050 0.511463 0.466809
O O4 0.947152 0.460284 0.764696
O O5 0.125093 0.369345 0.093095
O O6 0.211541 0.651660 0.296878
O O7 0.296653 0.389792 0.358062
O O8 0.043327 0.967247 0.396650
O O9 0.562537 0.796387 0.473822
O O10 0.500000 0.000000 0.500000
O O11 0.868370 0.946043 0.308905
O O12 0.750000 0.750000 0.000000
#
# Coordination Sequence:
#
# PCOD9268997 Si02
#       6
#     8   8   4   8   8   8
#     4   9  18  33  57  82 116 155 209 243 300 370
#     4   9  18  34  55  87 120 154 197 259 311 352
#     4  10  22  36  56  86 116 166 208 244 304 378
#     4   8  16  33  56  86 116 156 200 244 295 366
#     4   9  19  34  57  86 117 154 199 256 308 364
#     4  10  20  33  59  84 121 158 201 256 307 366
#
# _framework density 27.719594000000001
#
# number of rings (size 3 to 8) (size 9 to 14) (size 15 to 20)
#    0.000    2.909    0.000    1.091    7.636    0.727 
#    0.000    0.909    0.000    4.364    0.000    0.000 
#    0.000    0.000    0.000    0.000    0.000    0.000 
#
# Total GULP energy -122496.778190 kJ/mol
# GULP energy per Si atom -5568.035372 kJ/mol
# Density = 2.765650 g / cm^3
# Si number density = 27.719594 Si / 1000 Ang^3
#
#
#
# Elastic Constant Matrix: (Units=GPa)
#
#
# Indices 1 2 3 4 5 6 
#
# 1 92.2688 5.0506 -17.2871 0.0000 -3.1266 0.0000
# 2 5.0506 70.4352 19.7430 0.0000 -5.3707 0.0000
# 3 -17.2871 19.7430 233.3666 0.0000 -39.3066 0.0000
# 4 0.0000 0.0000 0.0000 45.1136 0.0000 -1.2169
# 5 -3.1266 -5.3707 -39.3066 0.0000 51.9459 0.0000
# 6 0.0000 0.0000 0.0000 -1.2169 0.0000 29.6536
#
#
#
# Elastic Compliance Matrix: (Units=1/GPa)
#
#
# Indices 1 2 3 4 5 6 
#
# 1 0.011159 -0.001014 0.001155 0.000000 0.001441 0.000000
# 2 -0.001014 0.014654 -0.001226 0.000000 0.000526 0.000000
# 3 0.001155 -0.001226 0.005117 0.000000 0.003815 0.000000
# 4 0.000000 0.000000 0.000000 0.022191 0.000000 0.000911
# 5 0.001441 0.000526 0.003815 0.000000 0.022278 0.000000
# 6 0.000000 0.000000 0.000000 0.000911 0.000000 0.033760
#
#
# Mechanical properties :
#
#
# Convention : Reuss Voigt Hill
#
# Bulk Modulus (GPa) = 34.77156 45.67596 40.22376
# Shear Modulus (GPa) = 41.35114 51.24690 46.29902
#
# Velocity S-wave (km/s) = 3.86653 4.30439 4.09132
# Velocity P-wave (km/s) = 5.70129 6.42007 6.07132
#
# Compressibility (1/GPa) = 0.02875913
#
# Stress axis : x y z
#
# Youngs Moduli (GPa) = 89.61668 68.24081 195.43021
#
# Poissons Ratio (x) = 0.06920 -0.22573
# Poissons Ratio (y) = 0.09087 0.23964
# Poissons Ratio (z) = -0.10351 0.08368
#
# Static dielectric constant tensor:
#      x y z
#    x 2.127160 0.000000 -0.114640 
#    y 0.000000 2.833560 0.000000 
#    z -0.114640 0.000000 2.437270 
# 
# From -- ./inp_files/224482.got.cif
#   From: 2010.05.17/outbox.cif.g08.bks.cpg/sg15_113_cif.got.tgz:224482.got - 2010.06.03 18:47:42.
