data_PCOD9268740
_publ_section_title
;
Structure prediction by ZEFSAII (Michael W. Deem and Ramdas Pophale) SiO2 
 PCOD9268740
Probable space group: C 2/C
;
_chemical_formula_sum "Si O2"
_cell_formula_units_Z 64
_cell_length_a 14.583044
_cell_length_b 7.814978
_cell_length_c 23.778177
_cell_angle_alpha 90.000000
_cell_angle_beta 120.875580
_cell_angle_gamma 90.000000
_cell_volume 2325.869631
_symmetry_space_group_name_H-M "C 2/C"
_symmetry_group_IT_number 15
_symmetry_cell_setting 'monoclinic'
loop_
_space_group_symop_operation_xyz
x,y,z
-x,y,1/2-z
-x,-y,-z
x,-y,1/2+z
1/2+x,1/2+y,z
1/2-x,1/2+y,1/2-z
1/2-x,1/2-y,-z
1/2+x,1/2-y,1/2+z
loop_
_atom_site_type_symbol
_atom_site_label
_atom_site_fract_x
_atom_site_fract_y
_atom_site_fract_z
Si Si1 0.458023 0.025361 0.906423
Si Si2 0.177904 0.025806 0.289322
Si Si3 0.419539 0.925519 0.658823
Si Si4 0.788407 0.624115 0.217147
Si Si5 0.171427 0.433743 0.535035
Si Si6 0.544721 0.478200 0.345757
Si Si7 0.922244 0.923375 0.910779
Si Si8 0.200890 0.030782 0.524619
O O1 0.440619 0.223798 0.910230
O O2 0.486111 0.001477 0.850036
O O3 0.359061 0.941828 0.908758
O O4 0.566952 0.978489 0.973639
O O5 0.210168 0.825070 0.298077
O O6 0.139732 0.073969 0.340884
O O7 0.064685 0.035570 0.219985
O O8 0.263075 0.116603 0.275268
O O9 0.389182 0.954087 0.714926
O O10 0.438815 0.722360 0.659795
O O11 0.310991 0.983789 0.592295
O O12 0.687012 0.532575 0.156540
O O13 0.178449 0.234140 0.521374
O O14 0.268433 0.518498 0.530205
O O15 0.516405 0.499914 0.402316
O O16 0.892314 0.954304 0.965953
#
# Coordination Sequence:
#
# PCOD9268740 Si02
#       8
#     8   8   8   8   8   8   8   8
#     4  10  20  33  52  76 100 129 169 210 249 299
#     4   9  18  33  52  73  99 132 165 203 247 296
#     4   9  18  34  52  72 100 133 166 200 246 301
#     4   9  19  34  50  73 101 129 164 202 247 296
#     4   9  19  36  53  71  99 135 168 202 252 304
#     4   9  18  34  53  71  99 135 166 200 249 299
#     4  10  20  33  51  77 102 126 164 211 249 290
#     4   9  18  35  53  71 100 132 164 205 249 297
#
# _framework density 27.516590000000001
#
# number of rings (size 3 to 8) (size 9 to 14) (size 15 to 20)
#    0.000    2.750    0.000    0.750    0.000    3.000 
#    0.000   11.250    0.000    0.000    0.000    0.000 
#    0.000    0.000    0.000    0.000    0.000    0.000 
#
# Total GULP energy -178802.540148 kJ/mol
# GULP energy per Si atom -5587.579380 kJ/mol
# Density = 2.745396 g / cm^3
# Si number density = 27.516590 Si / 1000 Ang^3
#
#
#
# Elastic Constant Matrix: (Units=GPa)
#
#
# Indices 1 2 3 4 5 6 
#
# 1 324.1377 43.8887 81.7764 0.0000 -78.7177 0.0000
# 2 43.8887 43.6479 3.5024 0.0000 -32.1939 0.0000
# 3 81.7764 3.5024 191.4610 0.0000 -82.5412 0.0000
# 4 0.0000 0.0000 0.0000 24.0387 0.0000 -16.5167
# 5 -78.7177 -32.1939 -82.5412 0.0000 78.4633 0.0000
# 6 0.0000 0.0000 0.0000 -16.5167 0.0000 41.5985
#
#
#
# Elastic Compliance Matrix: (Units=1/GPa)
#
#
# Indices 1 2 3 4 5 6 
#
# 1 0.004180 -0.002182 -0.000592 0.000000 0.002675 0.000000
# 2 -0.002182 0.047379 0.013728 0.000000 0.031693 0.000000
# 3 -0.000592 0.013728 0.013536 0.000000 0.019278 0.000000
# 4 0.000000 0.000000 0.000000 0.057206 0.000000 0.022713
# 5 0.002675 0.031693 0.019278 0.000000 0.048712 0.000000
# 6 0.000000 0.000000 0.000000 0.022713 0.000000 0.033058
#
#
# Mechanical properties :
#
#
# Convention : Reuss Voigt Hill
#
# Bulk Modulus (GPa) = 11.49387 90.84241 51.16814
# Shear Modulus (GPa) = 23.67847 57.49204 40.58526
#
# Velocity S-wave (km/s) = 2.93664 4.57591 3.84466
# Velocity P-wave (km/s) = 3.96038 7.81050 6.19228
#
# Compressibility (1/GPa) = 0.08700289
#
# Stress axis : x y z
#
# Youngs Moduli (GPa) = 239.25982 21.10640 73.87823
#
# Poissons Ratio (x) = 0.04606 0.04374
# Poissons Ratio (y) = 0.52208 -1.01423
# Poissons Ratio (z) = 0.14165 -0.28976
#
# Static dielectric constant tensor:
#      x y z
#    x 2.198790 0.000000 0.021280 
#    y 0.000000 2.039670 0.000000 
#    z 0.021280 0.000000 2.486740 
# 
# From -- ./inp_files/295174.got.cif
#   From: 2010.05.17/outbox.cif.g08.bks.cpg/sg15_148_cif.got.tgz:295174.got - 2010.06.03 18:47:42.
