data_PCOD9268162
_publ_section_title
;
Structure prediction by ZEFSAII (Michael W. Deem and Ramdas Pophale) SiO2 
 PCOD9268162
Probable space group: C 2/C
;
_chemical_formula_sum "Si O2"
_cell_formula_units_Z 44
_cell_length_a 4.960159
_cell_length_b 13.832045
_cell_length_c 23.790183
_cell_angle_alpha 90.000000
_cell_angle_beta 88.683860
_cell_angle_gamma 90.000000
_cell_volume 1631.793440
_symmetry_space_group_name_H-M "C 2/C"
_symmetry_group_IT_number 15
_symmetry_cell_setting 'monoclinic'
loop_
_space_group_symop_operation_xyz
x,y,z
-x,y,1/2-z
-x,-y,-z
x,-y,1/2+z
1/2+x,1/2+y,z
1/2-x,1/2+y,1/2-z
1/2-x,1/2-y,-z
1/2+x,1/2-y,1/2+z
loop_
_atom_site_type_symbol
_atom_site_label
_atom_site_fract_x
_atom_site_fract_y
_atom_site_fract_z
Si Si1 0.348552 0.322566 0.802344
Si Si2 0.500000 0.338686 0.250000
Si Si3 0.480886 0.587762 0.867755
Si Si4 0.518292 0.954875 0.626296
Si Si5 0.376432 0.753927 0.420312
Si Si6 0.008610 0.386672 0.985260
O O1 0.500000 0.373501 0.750000
O O2 0.229099 0.228338 0.774411
O O3 0.103130 0.387074 0.825754
O O4 0.483882 0.285477 0.859957
O O5 0.618474 0.388290 0.194402
O O6 0.238778 0.520767 0.891958
O O7 0.617706 0.676624 0.902600
O O8 0.741276 0.521496 0.856280
O O9 0.636903 0.891610 0.574039
O O10 0.280377 0.665765 0.460632
O O11 0.555460 0.821539 0.460223
O O12 0.000000 0.500000 0.000000
#
# Coordination Sequence:
#
# PCOD9268162 Si02
#       6
#     8   4   8   8   8   8
#     4  10  24  44  69 101 142 196 240 310 366 451
#     4  10  26  40  68  96 146 192 242 298 376 434
#     4  11  25  46  68 105 143 192 241 308 363 447
#     4  11  26  44  72 105 144 184 253 296 373 436
#     4   9  21  43  68 106 146 188 250 297 378 436
#     4  10  19  42  75 105 145 194 239 312 361 445
#
# _framework density 26.964196999999999
#
# number of rings (size 3 to 8) (size 9 to 14) (size 15 to 20)
#    0.000    1.818    1.818    0.000    8.909    0.727 
#    0.000    0.909    0.000    0.000    0.000    0.000 
#    0.000    0.000    0.000    0.000    0.000    0.000 
#
# Total GULP energy -122839.574656 kJ/mol
# GULP energy per Si atom -5583.617030 kJ/mol
# Density = 2.690283 g / cm^3
# Si number density = 26.964197 Si / 1000 Ang^3
#
#
#
# Elastic Constant Matrix: (Units=GPa)
#
#
# Indices 1 2 3 4 5 6 
#
# 1 97.0163 45.1776 66.4080 0.0000 -0.8329 0.0000
# 2 45.1776 144.9842 78.6994 0.0000 2.8789 0.0000
# 3 66.4080 78.6994 208.8333 0.0000 -10.7421 0.0000
# 4 0.0000 0.0000 0.0000 39.3009 0.0000 7.0246
# 5 -0.8329 2.8789 -10.7421 0.0000 31.8623 0.0000
# 6 0.0000 0.0000 0.0000 7.0246 0.0000 38.6795
#
#
#
# Elastic Compliance Matrix: (Units=1/GPa)
#
#
# Indices 1 2 3 4 5 6 
#
# 1 0.013828 -0.002379 -0.003532 0.000000 -0.000614 0.000000
# 2 -0.002379 0.009197 -0.002804 0.000000 -0.001839 0.000000
# 3 -0.003532 -0.002804 0.007100 0.000000 0.002555 0.000000
# 4 0.000000 0.000000 0.000000 0.026298 0.000000 -0.004776
# 5 -0.000614 -0.001839 0.002555 0.000000 0.032396 0.000000
# 6 0.000000 0.000000 0.000000 -0.004776 0.000000 0.026721
#
#
# Mechanical properties :
#
#
# Convention : Reuss Voigt Hill
#
# Bulk Modulus (GPa) = 78.77664 92.37822 85.57743
# Shear Modulus (GPa) = 36.44230 39.33846 37.89038
#
# Velocity S-wave (km/s) = 3.68027 3.82372 3.75268
# Velocity P-wave (km/s) = 6.88026 7.33678 7.11218
#
# Compressibility (1/GPa) = 0.01269412
#
# Stress axis : x y z
#
# Youngs Moduli (GPa) = 72.31671 108.72807 140.84861
#
# Poissons Ratio (x) = 0.25870 0.49751
# Poissons Ratio (y) = 0.17207 0.39493
# Poissons Ratio (z) = 0.25544 0.30487
#
# Static dielectric constant tensor:
#      x y z
#    x 2.131450 0.000000 -0.085950 
#    y 0.000000 2.192600 0.000000 
#    z -0.085950 0.000000 2.247120 
# 
# From -- ./inp_files/285425.got.cif
#   From: 2010.05.17/outbox.cif.g08.bks.cpg/sg15_143_cif.got.tgz:285425.got - 2010.06.03 18:47:42.
