data_PCOD9268478
_publ_section_title
;
Structure prediction by ZEFSAII (Michael W. Deem and Ramdas Pophale) SiO2 
 PCOD9268478
Probable space group: C 2/C
;
_chemical_formula_sum "Si O2"
_cell_formula_units_Z 64
_cell_length_a 20.999474
_cell_length_b 5.708193
_cell_length_c 20.828691
_cell_angle_alpha 90.000000
_cell_angle_beta 80.454043
_cell_angle_gamma 90.000000
_cell_volume 2462.143144
_symmetry_space_group_name_H-M "C 2/C"
_symmetry_group_IT_number 15
_symmetry_cell_setting 'monoclinic'
loop_
_space_group_symop_operation_xyz
x,y,z
-x,y,1/2-z
-x,-y,-z
x,-y,1/2+z
1/2+x,1/2+y,z
1/2-x,1/2+y,1/2-z
1/2-x,1/2-y,-z
1/2+x,1/2-y,1/2+z
loop_
_atom_site_type_symbol
_atom_site_label
_atom_site_fract_x
_atom_site_fract_y
_atom_site_fract_z
Si Si1 0.009397 0.711099 0.103463
Si Si2 0.383018 0.307455 0.721683
Si Si3 0.427584 0.190603 0.236108
Si Si4 0.350290 0.678744 0.888472
Si Si5 0.660302 0.205190 0.965668
Si Si6 0.734807 0.420889 0.847391
Si Si7 0.971304 0.784699 0.580492
Si Si8 0.243458 0.807990 0.577342
O O1 0.075724 0.753602 0.131472
O O2 0.943587 0.700092 0.156486
O O3 0.014602 0.450302 0.072758
O O4 0.001973 0.957658 0.067063
O O5 0.398516 0.550821 0.755656
O O6 0.314431 0.341968 0.698031
O O7 0.438010 0.297145 0.656660
O O8 0.390217 0.054177 0.753911
O O9 0.500000 0.164609 0.250000
O O10 0.298480 0.769148 0.845975
O O11 0.329704 0.414833 0.906868
O O12 0.331217 0.800059 0.959981
O O13 0.696630 0.416422 0.923166
O O14 0.586707 0.232527 0.958608
O O15 0.696880 0.989817 0.927410
O O16 0.755042 0.686262 0.852148
O O17 0.250000 0.750000 0.500000
#
# Coordination Sequence:
#
# PCOD9268478 Si02
#       8
#     8   8   8   8   8   8   8   8
#     4  10  23  38  54  83 112 148 183 231 291 343
#     4   9  20  34  61  88 108 137 180 234 280 329
#     4  10  20  40  64  87 110 136 177 229 290 356
#     4  11  22  33  50  78 115 154 198 233 277 326
#     4  10  20  32  51  77 105 154 199 245 265 311
#     4  10  20  34  52  79 113 146 193 234 272 316
#     4   9  21  36  53  77 113 145 190 233 279 327
#     4  11  19  32  54  76 109 155 205 238 267 312
#
# _framework density 25.993615999999999
#
# number of rings (size 3 to 8) (size 9 to 14) (size 15 to 20)
#    0.000    2.000    2.500    1.125   12.250    1.000 
#    0.000    0.000    0.000    1.500    0.000    0.000 
#    0.000    0.000    0.000    0.000    0.000    0.000 
#
# Total GULP energy -178428.498177 kJ/mol
# GULP energy per Si atom -5575.890568 kJ/mol
# Density = 2.593445 g / cm^3
# Si number density = 25.993616 Si / 1000 Ang^3
#
#
#
# Elastic Constant Matrix: (Units=GPa)
#
#
# Indices 1 2 3 4 5 6 
#
# 1 128.4702 50.7638 33.8880 0.0000 27.7143 0.0000
# 2 50.7638 155.9969 41.0918 0.0000 28.5902 0.0000
# 3 33.8880 41.0918 57.1910 0.0000 10.1356 0.0000
# 4 0.0000 0.0000 0.0000 11.2910 0.0000 6.0261
# 5 27.7143 28.5902 10.1356 0.0000 61.2074 0.0000
# 6 0.0000 0.0000 0.0000 6.0261 0.0000 40.3437
#
#
#
# Elastic Compliance Matrix: (Units=1/GPa)
#
#
# Indices 1 2 3 4 5 6 
#
# 1 0.010252 -0.001607 -0.004358 0.000000 -0.003170 0.000000
# 2 -0.001607 0.008667 -0.004828 0.000000 -0.002521 0.000000
# 3 -0.004358 -0.004828 0.023476 0.000000 0.000341 0.000000
# 4 0.000000 0.000000 0.000000 0.096238 0.000000 -0.014375
# 5 -0.003170 -0.002521 0.000341 0.000000 0.018894 0.000000
# 6 0.000000 0.000000 0.000000 -0.014375 0.000000 0.026934
#
#
# Mechanical properties :
#
#
# Convention : Reuss Voigt Hill
#
# Bulk Modulus (GPa) = 48.05777 65.90505 56.98141
# Shear Modulus (GPa) = 23.47563 36.96271 30.21917
#
# Velocity S-wave (km/s) = 3.00847 3.77502 3.41333
# Velocity P-wave (km/s) = 5.53139 6.66411 6.12400
#
# Compressibility (1/GPa) = 0.02080829
#
# Stress axis : x y z
#
# Youngs Moduli (GPa) = 97.53739 115.37558 42.59586
#
# Poissons Ratio (x) = 0.18545 0.18565
# Poissons Ratio (y) = 0.15677 0.20566
# Poissons Ratio (z) = 0.42511 0.55707
#
# Static dielectric constant tensor:
#      x y z
#    x 1.969690 0.000000 -0.082410 
#    y 0.000000 2.350770 0.000000 
#    z -0.082410 0.000000 2.228340 
# 
# From -- ./inp_files/301611.got.cif
#   From: 2010.05.17/outbox.cif.g08.bks.cpg/sg15_151_cif.got.tgz:301611.got - 2010.06.03 18:47:42.
