data_PCOD9268568
_publ_section_title
;
Structure prediction by ZEFSAII (Michael W. Deem and Ramdas Pophale) SiO2 
 PCOD9268568
Probable space group: C 2/C
;
_chemical_formula_sum "Si O2"
_cell_formula_units_Z 60
_cell_length_a 16.380485
_cell_length_b 19.846484
_cell_length_c 9.296566
_cell_angle_alpha 90.000000
_cell_angle_beta 70.013879
_cell_angle_gamma 90.000000
_cell_volume 2840.252715
_symmetry_space_group_name_H-M "C 2/C"
_symmetry_group_IT_number 15
_symmetry_cell_setting 'monoclinic'
loop_
_space_group_symop_operation_xyz
x,y,z
-x,y,1/2-z
-x,-y,-z
x,-y,1/2+z
1/2+x,1/2+y,z
1/2-x,1/2+y,1/2-z
1/2-x,1/2-y,-z
1/2+x,1/2-y,1/2+z
loop_
_atom_site_type_symbol
_atom_site_label
_atom_site_fract_x
_atom_site_fract_y
_atom_site_fract_z
Si Si1 0.948829 0.687799 0.473431
Si Si2 0.797068 0.691616 0.801932
Si Si3 0.810437 0.434792 0.821313
Si Si4 0.426793 0.273358 0.916202
Si Si5 0.155242 0.908496 0.440533
Si Si6 0.800079 0.011450 0.852303
Si Si7 0.183120 0.274595 0.662534
Si Si8 0.500000 0.066518 0.250000
O O1 0.030538 0.724374 0.493082
O O2 0.091918 0.730376 0.134109
O O3 0.872008 0.679349 0.637342
O O4 0.976473 0.615717 0.396578
O O5 0.844364 0.738089 0.890431
O O6 0.753480 0.623160 0.885727
O O7 0.716637 0.730996 0.775559
O O8 0.756621 0.467198 0.724362
O O9 0.812169 0.353903 0.803423
O O10 0.907599 0.466233 0.768918
O O11 0.762298 0.448091 0.001562
O O12 0.500000 0.280493 0.750000
O O13 0.407027 0.346673 0.989014
O O14 0.147189 0.963392 0.571388
O O15 0.146439 0.940401 0.287366
O O16 0.250000 0.250000 0.500000
#
# Coordination Sequence:
#
# PCOD9268568 Si02
#       8
#     8   8   8   8   8   8   8   4
#     4   9  20  34  53  91 131 148 181 241 318 367
#     4  10  20  36  63  93 116 153 200 250 303 362
#     4  10  21  37  55  81 119 156 202 252 283 355
#     4  10  22  38  60  96 125 147 187 254 318 368
#     4  11  22  39  65  84 118 159 208 245 297 350
#     4  10  23  40  57  83 113 164 220 244 270 347
#     4   9  17  33  58  86 115 148 190 242 302 354
#     4  10  20  32  56  80 126 156 188 238 308 364
#
# _framework density 21.124880999999998
#
# number of rings (size 3 to 8) (size 9 to 14) (size 15 to 20)
#    0.000    2.133    0.000    3.600    5.600    0.533 
#    0.000    0.667    1.467    0.000    0.000    0.000 
#    0.000    0.000    0.000    0.000    0.000    0.000 
#
# Total GULP energy -167507.185270 kJ/mol
# GULP energy per Si atom -5583.572842 kJ/mol
# Density = 2.107680 g / cm^3
# Si number density = 21.124881 Si / 1000 Ang^3
#
#
#
# Elastic Constant Matrix: (Units=GPa)
#
#
# Indices 1 2 3 4 5 6 
#
# 1 58.1624 -3.3314 12.8426 0.0000 11.3703 0.0000
# 2 -3.3314 49.4922 18.6577 0.0000 7.6897 0.0000
# 3 12.8426 18.6577 110.0840 0.0000 19.1722 0.0000
# 4 0.0000 0.0000 0.0000 39.4435 0.0000 0.0855
# 5 11.3703 7.6897 19.1722 0.0000 27.0153 0.0000
# 6 0.0000 0.0000 0.0000 0.0855 0.0000 22.5002
#
#
#
# Elastic Compliance Matrix: (Units=1/GPa)
#
#
# Indices 1 2 3 4 5 6 
#
# 1 0.019233 0.003052 -0.001369 0.000000 -0.007992 0.000000
# 2 0.003052 0.022464 -0.003225 0.000000 -0.005391 0.000000
# 3 -0.001369 -0.003225 0.010874 0.000000 -0.006223 0.000000
# 4 0.000000 0.000000 0.000000 0.025353 0.000000 -0.000096
# 5 -0.007992 -0.005391 -0.006223 0.000000 0.046330 0.000000
# 6 0.000000 0.000000 0.000000 -0.000096 0.000000 0.044444
#
#
# Mechanical properties :
#
#
# Convention : Reuss Voigt Hill
#
# Bulk Modulus (GPa) = 20.20694 30.45295 25.32994
# Shear Modulus (GPa) = 26.55663 30.42979 28.49321
#
# Velocity S-wave (km/s) = 3.54944 3.79947 3.67658
# Velocity P-wave (km/s) = 5.13656 5.80474 5.48084
#
# Compressibility (1/GPa) = 0.04948794
#
# Stress axis : x y z
#
# Youngs Moduli (GPa) = 51.99458 44.51602 91.96233
#
# Poissons Ratio (x) = -0.13588 0.12592
# Poissons Ratio (y) = -0.15871 0.29654
# Poissons Ratio (z) = 0.07119 0.14355
#
# Static dielectric constant tensor:
#      x y z
#    x 1.763540 0.000000 -0.013640 
#    y 0.000000 1.756610 0.000000 
#    z -0.013640 0.000000 1.821080 
# 
# From -- ./inp_files/50657.got.cif
#   From: 2010.05.17/outbox.cif.g08.bks.cpg/sg15_26_cif.got.tgz:50657.got - 2010.06.03 18:47:42.
